=
 OpenBabel11042416203D

 66 72  0  0  1  0  0  0  0  0999 V2000
  185.6160  178.6090  143.9080 C   0  0  0  0  0  0  0  0  0  0  0  0
  188.3450  175.6380  141.3940 C   0  0  0  0  0  2  0  0  0  0  0  0
  186.7140  178.3080  143.1900 N   0  0  0  0  0  0  0  0  0  0  0  0
  188.8180  174.5620  142.3160 N   0  0  0  0  0  0  0  0  0  0  0  0
  185.9310  178.3790  145.2450 C   0  0  0  0  0  0  0  0  0  0  0  0
  187.6620  177.9410  144.0440 C   0  0  0  0  0  0  0  0  0  0  0  0
  189.0280  174.7940  143.7040 N   0  0  0  0  0  2  0  0  0  0  0  0
  184.2680  178.9030  143.3380 C   0  0  0  0  0  1  0  0  0  0  0  0
  187.2310  177.9490  145.3290 N   0  0  0  0  0  0  0  0  0  0  0  0
  188.0570  176.9200  142.1260 C   0  0  0  0  0  0  0  0  0  0  0  0
  188.5990  177.1380  143.3890 C   0  0  0  0  0  0  0  0  0  0  0  0
  187.8330  177.2500  146.4670 C   0  0  0  0  0  1  0  0  0  0  0  0
  186.9160  177.6940  142.0100 C   0  0  0  0  0  0  0  0  0  0  0  0
  189.5900  176.1280  143.8610 C   0  0  1  0  0  3  0  0  0  0  0  0
  183.8830  179.2600  146.0280 F   0  0  0  0  0  0  0  0  0  0  0  0
  184.5030  177.2100  146.7250 F   0  0  0  0  0  0  0  0  0  0  0  0
  184.9600  178.4720  146.3960 C   0  0  0  0  0  0  0  0  0  0  0  0
  185.5510  179.0260  147.5180 F   0  0  0  0  0  0  0  0  0  0  0  0
  185.8780  177.4370  141.0670 N   0  0  0  0  0  2  0  0  0  0  0  0
  186.0250  177.8010  139.7740 O   0  0  0  0  0  1  0  0  0  0  0  0
  188.9220  173.2080  141.8360 C   0  0  0  0  0  0  0  0  0  0  0  0
  187.8860  172.6630  141.1940 C   0  0  0  0  0  2  0  0  0  0  0  0
  190.1390  171.3450  142.6710 O   0  0  0  0  0  0  0  0  0  0  0  0
  190.1660  172.4140  142.0190 C   0  0  0  0  0  0  0  0  0  0  0  0
  191.7550  172.9860  141.4050 S   0  0  0  0  0  0  0  0  0  0  0  0
  191.9040  171.5980  140.2290 C   0  0  0  0  0  2  0  0  0  0  0  0
  194.8810  173.3990  137.4470 O   0  0  0  0  0  1  0  0  0  0  0  0
  192.6520  174.4200  137.2960 C   0  0  1  0  0  3  0  0  0  0  0  0
  191.2400  174.0200  137.3800 N   0  0  0  0  0  2  0  0  0  0  0  0
  193.5920  173.4120  137.9920 C   0  0  1  0  0  3  0  0  0  0  0  0
  191.6340  171.9970  138.7660 C   0  0  2  0  0  0  0  0  0  0  0  0
  193.0080  174.6200  135.8320 C   0  0  0  0  0  1  0  0  0  0  0  0
  192.9900  172.0080  138.0250 C   0  0  0  0  0  2  0  0  0  0  0  0
  190.9510  173.3860  138.6790 C   0  0  0  0  0  2  0  0  0  0  0  0
  190.7180  170.9870  138.0940 C   0  0  0  0  0  0  0  0  0  0  0  0
  189.4730  171.0630  138.3000 O   0  0  0  0  0  0  0  0  0  0  0  0
  191.1500  169.9040  135.7990 C   0  0  0  0  0  1  0  0  0  0  0  0
  191.7310  168.8430  137.8440 O   0  0  0  0  0  0  0  0  0  0  0  0
  191.2310  169.8580  137.2860 C   0  0  0  0  0  0  0  0  0  0  0  0
  190.3080  176.3750  145.1840 C   0  0  2  0  0  3  0  0  0  0  0  0
  191.5150  177.1470  145.0410 O   0  0  0  0  0  0  0  0  0  0  0  0
  192.8150  176.6670  145.2680 C   0  0  0  0  0  0  0  0  0  0  0  0
  193.4930  177.0730  146.2560 O   0  0  0  0  0  0  0  0  0  0  0  0
  196.0430  171.7390  145.1400 C   0  0  2  0  0  3  0  0  0  0  0  0
  193.3850  175.5780  144.4070 C   0  0  1  0  0  3  0  0  0  0  0  0
  194.7060  175.0080  142.3640 C   0  0  0  0  0  3  0  0  0  0  0  0
  194.5650  171.2200  142.6660 O   0  0  0  0  0  1  0  0  0  0  0  0
  195.9120  171.6230  142.5560 C   0  0  2  0  0  0  0  0  0  0  0  0
  196.6720  171.2600  143.8330 C   0  0  0  0  0  2  0  0  0  0  0  0
  194.0120  176.1200  143.1130 C   0  0  0  0  0  2  0  0  0  0  0  0
  194.4110  174.7610  145.1600 C   0  0  0  0  0  3  0  0  0  0  0  0
  195.9750  173.0260  142.2780 O   0  0  0  0  0  0  0  0  0  0  0  0
  195.2820  173.9970  144.5030 C   0  0  0  0  0  0  0  0  0  0  0  0
  196.2970  173.2410  145.2840 C   0  0  0  0  0  2  0  0  0  0  0  0
  195.3200  174.0160  143.0220 C   0  0  0  0  0  0  0  0  0  0  0  0
  196.5920  170.8720  141.4030 C   0  0  2  0  0  3  0  0  0  0  0  0
  196.4040  171.5400  140.0590 C   0  0  0  0  0  2  0  0  0  0  0  0
  196.0870  170.5730  139.0850 O   0  0  0  0  0  0  0  0  0  0  0  0
  196.0710  169.4790  141.1980 C   0  0  0  0  0  2  0  0  0  0  0  0
  196.1500  169.3070  139.7050 C   0  0  0  0  0  2  0  0  0  0  0  0
  197.4710  169.8820  145.6970 C   0  0  0  0  0  1  0  0  0  0  0  0
  196.6790  170.9970  146.2300 N   0  0  0  0  0  2  0  0  0  0  0  0
  190.5050  175.2060  145.9490 O   0  0  0  0  0  0  0  0  0  0  0  0
  191.2060  175.2670  148.1020 C   0  0  0  0  0  1  0  0  0  0  0  0
  190.0740  175.4690  147.2110 N   0  0  0  0  0  0  0  0  0  0  0  0
  189.1020  174.4390  147.5360 C   0  0  0  0  0  1  0  0  0  0  0  0
  1  5  2  0  0  0  0
  2 10  1  0  0  0  0
  2  4  1  0  0  0  0
  3  1  1  0  0  0  0
  3  6  1  0  0  0  0
  4  7  1  0  0  0  0
  5  9  1  0  0  0  0
  5 17  1  0  0  0  0
  6  9  1  0  0  0  0
  7 14  1  0  0  0  0
  8  1  1  0  0  0  0
  9 12  1  0  0  0  0
 10 11  1  0  0  0  0
 11 14  1  0  0  0  0
 11  6  2  0  0  0  0
 13 10  2  0  0  0  0
 13  3  1  0  0  0  0
 14 40  1  1  0  0  0
 15 17  1  0  0  0  0
 17 16  1  0  0  0  0
 17 18  1  0  0  0  0
 19 13  1  0  0  0  0
 20 19  1  0  0  0  0
 21 24  1  0  0  0  0
 21  4  1  0  0  0  0
 22 21  2  0  0  0  0
 24 23  2  0  0  0  0
 25 24  1  0  0  0  0
 26 25  1  0  0  0  0
 28 32  1  6  0  0  0
 28 29  1  0  0  0  0
 28 30  1  0  0  0  0
 29 34  1  0  0  0  0
 30 27  1  6  0  0  0
 30 33  1  0  0  0  0
 31 26  1  1  0  0  0
 33 31  1  0  0  0  0
 34 31  1  0  0  0  0
 35 36  2  0  0  0  0
 35 31  1  0  0  0  0
 37 39  1  0  0  0  0
 39 38  2  0  0  0  0
 39 35  1  0  0  0  0
 40 41  1  6  0  0  0
 40 63  1  0  0  0  0
 41 42  1  0  0  0  0
 42 43  2  0  0  0  0
 44 54  1  0  0  0  0
 44 62  1  1  0  0  0
 45 51  1  0  0  0  0
 45 42  1  1  0  0  0
 46 55  2  0  0  0  0
 46 50  1  0  0  0  0
 48 47  1  1  0  0  0
 48 49  1  0  0  0  0
 49 44  1  0  0  0  0
 50 45  1  0  0  0  0
 52 48  1  0  0  0  0
 52 55  1  0  0  0  0
 53 51  2  0  0  0  0
 53 54  1  0  0  0  0
 55 53  1  0  0  0  0
 56 57  1  6  0  0  0
 56 48  1  0  0  0  0
 58 60  1  0  0  0  0
 58 57  1  0  0  0  0
 59 56  1  0  0  0  0
 60 59  1  0  0  0  0
 61 62  1  0  0  0  0
 63 65  1  0  0  0  0
 65 66  1  0  0  0  0
 65 64  1  0  0  0  0
M  END
>  <MODEL>
1

>  <REMARK>
 VINA RESULT:      -7.6      0.000      0.000
  Name = 
  17 active torsions:
  status: ('A' for Active; 'I' for Inactive)
    1  A    between atoms: C_1  and  N_46
    2  A    between atoms: C_5  and  N_22
    3  A    between atoms: C_5  and  C_66
    4  A    between atoms: C_6  and  O_35
    5  A    between atoms: C_6  and  C_62
    6  A    between atoms: C_6  and  O_65
    7  A    between atoms: C_7  and  C_27
    8  A    between atoms: N_9  and  C_61
    9  A    between atoms: C_10  and  C_43
   10  A    between atoms: C_10  and  C_47
   11  A    between atoms: C_11  and  C_43
   12  A    between atoms: C_11  and  S_58
   13  A    between atoms: C_13  and  C_25
   14  A    between atoms: C_24  and  C_32
   15  A    between atoms: C_25  and  O_35
   16  A    between atoms: N_41  and  O_65
   17  A    between atoms: S_58  and  C_66
                            x       y       z     vdW  Elec       q    Type
                         _______ _______ _______ _____ _____    ______ ____

>  <TORSDO>
F 17

$$$$
=
 OpenBabel11042416203D

 66 72  0  0  1  0  0  0  0  0999 V2000
  190.3160  173.3290  141.1740 C   0  0  0  0  0  0  0  0  0  0  0  0
  194.6290  173.9550  139.2750 C   0  0  0  0  0  2  0  0  0  0  0  0
  191.3880  174.0780  140.8550 N   0  0  0  0  0  0  0  0  0  0  0  0
  195.6000  173.1460  140.0710 N   0  0  0  0  0  0  0  0  0  0  0  0
  190.5320  172.8410  142.4590 C   0  0  0  0  0  0  0  0  0  0  0  0
  192.2050  174.0740  141.9020 C   0  0  0  0  0  0  0  0  0  0  0  0
  195.4120  172.8890  141.4580 N   0  0  0  0  0  2  0  0  0  0  0  0
  189.2350  172.9270  140.2260 C   0  0  0  0  0  1  0  0  0  0  0  0
  191.7360  173.3100  142.9190 N   0  0  0  0  0  0  0  0  0  0  0  0
  193.4370  174.3690  140.0930 C   0  0  0  0  0  0  0  0  0  0  0  0
  193.5070  174.3550  141.4830 C   0  0  0  0  0  0  0  0  0  0  0  0
  192.5060  172.7540  144.0330 C   0  0  0  0  0  1  0  0  0  0  0  0
  192.1070  174.2450  139.7300 C   0  0  0  0  0  0  0  0  0  0  0  0
  194.8530  174.0870  142.0690 C   0  0  1  0  0  3  0  0  0  0  0  0
  189.8680  170.5840  142.6830 F   0  0  0  0  0  0  0  0  0  0  0  0
  189.9230  171.8710  144.5300 F   0  0  0  0  0  0  0  0  0  0  0  0
  189.6410  171.8570  143.1770 C   0  0  0  0  0  0  0  0  0  0  0  0
  188.3020  172.1650  143.0090 F   0  0  0  0  0  0  0  0  0  0  0  0
  191.6760  173.8020  138.4460 N   0  0  0  0  0  2  0  0  0  0  0  0
  191.8500  174.5870  137.3590 O   0  0  0  0  0  1  0  0  0  0  0  0
  196.6810  172.4700  139.4010 C   0  0  0  0  0  0  0  0  0  0  0  0
  197.5730  171.7900  140.1250 C   0  0  0  0  0  2  0  0  0  0  0  0
  197.0040  173.5770  137.3230 O   0  0  0  0  0  0  0  0  0  0  0  0
  196.8120  172.4930  137.9190 C   0  0  0  0  0  0  0  0  0  0  0  0
  196.6080  171.0090  136.9270 S   0  0  0  0  0  0  0  0  0  0  0  0
  194.8880  171.4300  136.4850 C   0  0  0  0  0  2  0  0  0  0  0  0
  192.9690  170.8820  140.4670 O   0  0  0  0  0  1  0  0  0  0  0  0
  193.6670  168.7750  139.4140 C   0  0  1  0  0  3  0  0  0  0  0  0
  193.7440  168.1770  138.0740 N   0  0  0  0  0  2  0  0  0  0  0  0
  193.6280  170.3190  139.3690 C   0  0  1  0  0  3  0  0  0  0  0  0
  193.8710  170.3300  136.8440 C   0  0  2  0  0  0  0  0  0  0  0  0
  192.4610  168.1920  140.1320 C   0  0  0  0  0  1  0  0  0  0  0  0
  193.0470  170.8300  138.0510 C   0  0  0  0  0  2  0  0  0  0  0  0
  194.5840  168.9960  137.1810 C   0  0  0  0  0  2  0  0  0  0  0  0
  192.9280  170.0700  135.6810 C   0  0  0  0  0  0  0  0  0  0  0  0
  192.9870  168.9570  135.0850 O   0  0  0  0  0  0  0  0  0  0  0  0
  192.5530  172.3330  134.5130 C   0  0  0  0  0  1  0  0  0  0  0  0
  190.7580  170.9610  135.2470 O   0  0  0  0  0  0  0  0  0  0  0  0
  192.0080  171.1040  135.1530 C   0  0  0  0  0  0  0  0  0  0  0  0
  195.0180  174.1770  143.5820 C   0  0  2  0  0  3  0  0  0  0  0  0
  194.5430  175.4200  144.1330 O   0  0  0  0  0  0  0  0  0  0  0  0
  194.2160  175.6350  145.4820 C   0  0  0  0  0  0  0  0  0  0  0  0
  195.1220  175.8100  146.3480 O   0  0  0  0  0  0  0  0  0  0  0  0
  188.8020  177.3330  143.8950 C   0  0  2  0  0  3  0  0  0  0  0  0
  192.7840  175.7730  145.9060 C   0  0  1  0  0  3  0  0  0  0  0  0
  191.1910  176.6250  147.6320 C   0  0  0  0  0  3  0  0  0  0  0  0
  187.9550  175.4800  145.9980 O   0  0  0  0  0  1  0  0  0  0  0  0
  187.8710  176.8620  146.2650 C   0  0  2  0  0  0  0  0  0  0  0  0
  187.7460  177.6420  144.9550 C   0  0  0  0  0  2  0  0  0  0  0  0
  192.6440  176.3630  147.3180 C   0  0  0  0  0  2  0  0  0  0  0  0
  191.9980  176.6160  144.9280 C   0  0  0  0  0  3  0  0  0  0  0  0
  189.0100  177.2770  147.0270 O   0  0  0  0  0  0  0  0  0  0  0  0
  190.8330  177.1550  145.2830 C   0  0  0  0  0  0  0  0  0  0  0  0
  190.1140  178.0090  144.3000 C   0  0  0  0  0  2  0  0  0  0  0  0
  190.3410  177.0160  146.6740 C   0  0  0  0  0  0  0  0  0  0  0  0
  186.6080  177.1620  147.0850 C   0  0  2  0  0  3  0  0  0  0  0  0
  185.3340  176.7010  146.4120 C   0  0  0  0  0  2  0  0  0  0  0  0
  184.3480  177.7010  146.5210 O   0  0  0  0  0  0  0  0  0  0  0  0
  186.3840  178.6250  147.3370 C   0  0  0  0  0  2  0  0  0  0  0  0
  184.8840  178.7450  147.3050 C   0  0  0  0  0  2  0  0  0  0  0  0
  187.3450  176.9450  142.0170 C   0  0  0  0  0  1  0  0  0  0  0  0
  188.3130  177.8670  142.6220 N   0  0  0  0  0  2  0  0  0  0  0  0
  196.3160  173.8520  144.0310 O   0  0  0  0  0  0  0  0  0  0  0  0
  196.8370  173.0480  146.0840 C   0  0  0  0  0  1  0  0  0  0  0  0
  196.2110  172.7410  144.8070 N   0  0  0  0  0  0  0  0  0  0  0  0
  197.0330  171.7210  144.1770 C   0  0  0  0  0  1  0  0  0  0  0  0
  1  5  2  0  0  0  0
  2  4  1  0  0  0  0
  2 10  1  0  0  0  0
  3  1  1  0  0  0  0
  3  6  1  0  0  0  0
  4  7  1  0  0  0  0
  5  9  1  0  0  0  0
  5 17  1  0  0  0  0
  6  9  1  0  0  0  0
  7 14  1  0  0  0  0
  8  1  1  0  0  0  0
  9 12  1  0  0  0  0
 10 11  1  0  0  0  0
 11  6  2  0  0  0  0
 11 14  1  0  0  0  0
 13 10  2  0  0  0  0
 13  3  1  0  0  0  0
 14 40  1  1  0  0  0
 15 17  1  0  0  0  0
 17 16  1  0  0  0  0
 18 17  1  0  0  0  0
 19 13  1  0  0  0  0
 20 19  1  0  0  0  0
 21  4  1  0  0  0  0
 21 22  2  0  0  0  0
 23 24  2  0  0  0  0
 24 21  1  0  0  0  0
 25 24  1  0  0  0  0
 26 25  1  0  0  0  0
 28 32  1  6  0  0  0
 29 28  1  0  0  0  0
 30 28  1  0  0  0  0
 30 27  1  1  0  0  0
 31 26  1  6  0  0  0
 31 34  1  0  0  0  0
 31 33  1  0  0  0  0
 33 30  1  0  0  0  0
 34 29  1  0  0  0  0
 35 31  1  0  0  0  0
 36 35  2  0  0  0  0
 37 39  1  0  0  0  0
 39 38  2  0  0  0  0
 39 35  1  0  0  0  0
 40 63  1  6  0  0  0
 40 41  1  0  0  0  0
 41 42  1  0  0  0  0
 42 43  2  0  0  0  0
 44 62  1  6  0  0  0
 44 54  1  0  0  0  0
 44 49  1  0  0  0  0
 45 42  1  6  0  0  0
 45 50  1  0  0  0  0
 48 47  1  6  0  0  0
 48 52  1  0  0  0  0
 48 56  1  0  0  0  0
 49 48  1  0  0  0  0
 50 46  1  0  0  0  0
 51 53  2  0  0  0  0
 51 45  1  0  0  0  0
 53 55  1  0  0  0  0
 54 53  1  0  0  0  0
 55 52  1  0  0  0  0
 55 46  2  0  0  0  0
 56 57  1  6  0  0  0
 56 59  1  0  0  0  0
 57 58  1  0  0  0  0
 58 60  1  0  0  0  0
 60 59  1  0  0  0  0
 61 62  1  0  0  0  0
 63 65  1  0  0  0  0
 65 64  1  0  0  0  0
 66 65  1  0  0  0  0
M  END
>  <MODEL>
2

>  <REMARK>
 VINA RESULT:      -7.1      3.086      7.892
  Name = 
  17 active torsions:
  status: ('A' for Active; 'I' for Inactive)
    1  A    between atoms: C_1  and  N_46
    2  A    between atoms: C_5  and  N_22
    3  A    between atoms: C_5  and  C_66
    4  A    between atoms: C_6  and  O_35
    5  A    between atoms: C_6  and  C_62
    6  A    between atoms: C_6  and  O_65
    7  A    between atoms: C_7  and  C_27
    8  A    between atoms: N_9  and  C_61
    9  A    between atoms: C_10  and  C_43
   10  A    between atoms: C_10  and  C_47
   11  A    between atoms: C_11  and  C_43
   12  A    between atoms: C_11  and  S_58
   13  A    between atoms: C_13  and  C_25
   14  A    between atoms: C_24  and  C_32
   15  A    between atoms: C_25  and  O_35
   16  A    between atoms: N_41  and  O_65
   17  A    between atoms: S_58  and  C_66
                            x       y       z     vdW  Elec       q    Type
                         _______ _______ _______ _____ _____    ______ ____

>  <TORSDO>
F 17

$$$$
=
 OpenBabel11042416203D

 66 72  0  0  1  0  0  0  0  0999 V2000
  185.5020  178.5530  144.1650 C   0  0  0  0  0  0  0  0  0  0  0  0
  188.1170  175.7630  141.3400 C   0  0  0  0  0  2  0  0  0  0  0  0
  186.5590  178.3080  143.3660 N   0  0  0  0  0  0  0  0  0  0  0  0
  188.6630  174.6520  142.1750 N   0  0  0  0  0  0  0  0  0  0  0  0
  185.9040  178.2630  145.4660 C   0  0  0  0  0  0  0  0  0  0  0  0
  187.5640  177.9170  144.1410 C   0  0  0  0  0  0  0  0  0  0  0  0
  188.9550  174.8180  143.5580 N   0  0  0  0  0  2  0  0  0  0  0  0
  184.1180  178.8500  143.6940 C   0  0  0  0  0  1  0  0  0  0  0  0
  187.2130  177.8530  145.4490 N   0  0  0  0  0  0  0  0  0  0  0  0
  187.8550  177.0010  142.1530 C   0  0  0  0  0  0  0  0  0  0  0  0
  188.4700  177.1660  143.3900 C   0  0  0  0  0  0  0  0  0  0  0  0
  187.8950  177.1100  146.5100 C   0  0  0  0  0  1  0  0  0  0  0  0
  186.6960  177.7580  142.1470 C   0  0  0  0  0  0  0  0  0  0  0  0
  189.5050  176.1530  143.7480 C   0  0  1  0  0  3  0  0  0  0  0  0
  185.6750  178.8590  147.7410 F   0  0  0  0  0  0  0  0  0  0  0  0
  183.8680  179.0190  146.4060 F   0  0  0  0  0  0  0  0  0  0  0  0
  185.0050  178.2800  146.6770 C   0  0  0  0  0  0  0  0  0  0  0  0
  184.6150  177.0030  147.0420 F   0  0  0  0  0  0  0  0  0  0  0  0
  185.6060  177.5290  141.2570 N   0  0  0  0  0  2  0  0  0  0  0  0
  185.6120  178.0680  140.0170 O   0  0  0  0  0  1  0  0  0  0  0  0
  188.7580  173.3250  141.6210 C   0  0  0  0  0  0  0  0  0  0  0  0
  187.7320  172.4830  141.7670 C   0  0  0  0  0  2  0  0  0  0  0  0
  190.9400  172.3940  141.4830 O   0  0  0  0  0  0  0  0  0  0  0  0
  189.9630  172.8830  140.8700 C   0  0  0  0  0  0  0  0  0  0  0  0
  190.1100  173.1120  139.0940 S   0  0  0  0  0  0  0  0  0  0  0  0
  189.8960  171.3310  138.7550 C   0  0  0  0  0  2  0  0  0  0  0  0
  192.2890  173.0370  135.4070 O   0  0  0  0  0  1  0  0  0  0  0  0
  191.8860  170.6230  135.1970 C   0  0  1  0  0  3  0  0  0  0  0  0
  191.7810  169.4360  136.0570 N   0  0  0  0  0  2  0  0  0  0  0  0
  191.6340  171.9360  135.9700 C   0  0  1  0  0  3  0  0  0  0  0  0
  191.1300  170.6720  138.1110 C   0  0  2  0  0  0  0  0  0  0  0  0
  193.2480  170.6080  134.5210 C   0  0  0  0  0  1  0  0  0  0  0  0
  191.9690  171.7900  137.4540 C   0  0  0  0  0  2  0  0  0  0  0  0
  190.7150  169.6090  137.0610 C   0  0  0  0  0  2  0  0  0  0  0  0
  191.9780  169.9770  139.1630 C   0  0  0  0  0  0  0  0  0  0  0  0
  191.4310  169.1320  139.9270 O   0  0  0  0  0  0  0  0  0  0  0  0
  194.4570  169.7800  138.4970 C   0  0  0  0  0  1  0  0  0  0  0  0
  193.7320  171.0620  140.3610 O   0  0  0  0  0  0  0  0  0  0  0  0
  193.3990  170.3200  139.3970 C   0  0  0  0  0  0  0  0  0  0  0  0
  190.2990  176.3470  145.0360 C   0  0  2  0  0  3  0  0  0  0  0  0
  191.5380  177.0540  144.8380 O   0  0  0  0  0  0  0  0  0  0  0  0
  192.1280  177.3200  143.5930 C   0  0  0  0  0  0  0  0  0  0  0  0
  191.7550  178.3090  142.8970 O   0  0  0  0  0  0  0  0  0  0  0  0
  194.6740  174.7240  138.9560 C   0  0  2  0  0  3  0  0  0  0  0  0
  193.2910  176.5040  143.1100 C   0  0  1  0  0  3  0  0  0  0  0  0
  194.6840  174.4560  143.4400 C   0  0  0  0  0  3  0  0  0  0  0  0
  197.1100  174.9790  140.5600 O   0  0  0  0  0  1  0  0  0  0  0  0
  196.5290  173.7000  140.4460 C   0  0  2  0  0  0  0  0  0  0  0  0
  195.7040  173.6130  139.1600 C   0  0  0  0  0  2  0  0  0  0  0  0
  193.6150  175.3310  144.0490 C   0  0  0  0  0  2  0  0  0  0  0  0
  193.0540  175.9800  141.7120 C   0  0  0  0  0  3  0  0  0  0  0  0
  195.7390  173.4210  141.6070 O   0  0  0  0  0  0  0  0  0  0  0  0
  193.7740  174.9630  141.2400 C   0  0  0  0  0  0  0  0  0  0  0  0
  193.4790  174.4550  139.8730 C   0  0  0  0  0  2  0  0  0  0  0  0
  194.7470  174.2690  142.1150 C   0  0  0  0  0  0  0  0  0  0  0  0
  197.6280  172.6320  140.3420 C   0  0  2  0  0  3  0  0  0  0  0  0
  197.8100  172.0940  138.9410 C   0  0  0  0  0  2  0  0  0  0  0  0
  197.9380  170.6910  138.9800 O   0  0  0  0  0  0  0  0  0  0  0  0
  197.3640  171.4110  141.1750 C   0  0  0  0  0  2  0  0  0  0  0  0
  197.9410  170.3020  140.3370 C   0  0  0  0  0  2  0  0  0  0  0  0
  195.3850  174.2490  136.7050 C   0  0  0  0  0  1  0  0  0  0  0  0
  194.2690  174.6910  137.5490 N   0  0  0  0  0  2  0  0  0  0  0  0
  190.4700  175.1610  145.7810 O   0  0  0  0  0  0  0  0  0  0  0  0
  192.3750  174.4180  146.7560 C   0  0  0  0  0  1  0  0  0  0  0  0
  191.3370  175.4370  146.7900 N   0  0  0  0  0  0  0  0  0  0  0  0
  190.6030  175.2370  148.0290 C   0  0  0  0  0  1  0  0  0  0  0  0
  1  5  2  0  0  0  0
  2 10  1  0  0  0  0
  2  4  1  0  0  0  0
  3  6  1  0  0  0  0
  3  1  1  0  0  0  0
  4  7  1  0  0  0  0
  5 17  1  0  0  0  0
  6  9  1  0  0  0  0
  7 14  1  0  0  0  0
  8  1  1  0  0  0  0
  9  5  1  0  0  0  0
  9 12  1  0  0  0  0
 10 11  1  0  0  0  0
 11 14  1  0  0  0  0
 11  6  2  0  0  0  0
 13 10  2  0  0  0  0
 13  3  1  0  0  0  0
 14 40  1  1  0  0  0
 16 17  1  0  0  0  0
 17 18  1  0  0  0  0
 17 15  1  0  0  0  0
 19 13  1  0  0  0  0
 20 19  1  0  0  0  0
 21 22  2  0  0  0  0
 21  4  1  0  0  0  0
 24 23  2  0  0  0  0
 24 21  1  0  0  0  0
 25 24  1  0  0  0  0
 26 25  1  0  0  0  0
 28 32  1  1  0  0  0
 28 30  1  0  0  0  0
 28 29  1  0  0  0  0
 29 34  1  0  0  0  0
 30 27  1  6  0  0  0
 30 33  1  0  0  0  0
 31 26  1  1  0  0  0
 31 35  1  0  0  0  0
 33 31  1  0  0  0  0
 34 31  1  0  0  0  0
 35 39  1  0  0  0  0
 35 36  2  0  0  0  0
 37 39  1  0  0  0  0
 39 38  2  0  0  0  0
 40 41  1  6  0  0  0
 40 63  1  0  0  0  0
 42 41  1  0  0  0  0
 43 42  2  0  0  0  0
 44 62  1  6  0  0  0
 44 49  1  0  0  0  0
 44 54  1  0  0  0  0
 45 42  1  1  0  0  0
 45 50  1  0  0  0  0
 46 50  1  0  0  0  0
 48 47  1  1  0  0  0
 48 52  1  0  0  0  0
 49 48  1  0  0  0  0
 51 45  1  0  0  0  0
 52 55  1  0  0  0  0
 53 51  2  0  0  0  0
 53 55  1  0  0  0  0
 54 53  1  0  0  0  0
 55 46  2  0  0  0  0
 56 57  1  6  0  0  0
 56 48  1  0  0  0  0
 56 59  1  0  0  0  0
 57 58  1  0  0  0  0
 58 60  1  0  0  0  0
 60 59  1  0  0  0  0
 61 62  1  0  0  0  0
 63 65  1  0  0  0  0
 64 65  1  0  0  0  0
 65 66  1  0  0  0  0
M  END
>  <MODEL>
3

>  <REMARK>
 VINA RESULT:      -6.9      1.860      3.094
  Name = 
  17 active torsions:
  status: ('A' for Active; 'I' for Inactive)
    1  A    between atoms: C_1  and  N_46
    2  A    between atoms: C_5  and  N_22
    3  A    between atoms: C_5  and  C_66
    4  A    between atoms: C_6  and  O_35
    5  A    between atoms: C_6  and  C_62
    6  A    between atoms: C_6  and  O_65
    7  A    between atoms: C_7  and  C_27
    8  A    between atoms: N_9  and  C_61
    9  A    between atoms: C_10  and  C_43
   10  A    between atoms: C_10  and  C_47
   11  A    between atoms: C_11  and  C_43
   12  A    between atoms: C_11  and  S_58
   13  A    between atoms: C_13  and  C_25
   14  A    between atoms: C_24  and  C_32
   15  A    between atoms: C_25  and  O_35
   16  A    between atoms: N_41  and  O_65
   17  A    between atoms: S_58  and  C_66
                            x       y       z     vdW  Elec       q    Type
                         _______ _______ _______ _____ _____    ______ ____

>  <TORSDO>
F 17

$$$$
=
 OpenBabel11042416203D

 66 72  0  0  1  0  0  0  0  0999 V2000
  185.2050  178.7060  143.7510 C   0  0  0  0  0  0  0  0  0  0  0  0
  188.0370  175.9410  141.1180 C   0  0  0  0  0  2  0  0  0  0  0  0
  186.3250  178.4660  143.0450 N   0  0  0  0  0  0  0  0  0  0  0  0
  188.4980  174.8110  141.9770 N   0  0  0  0  0  0  0  0  0  0  0  0
  185.4880  178.3890  145.0770 C   0  0  0  0  0  0  0  0  0  0  0  0
  187.2550  178.0510  143.8980 C   0  0  0  0  0  0  0  0  0  0  0  0
  188.6690  174.9500  143.3830 N   0  0  0  0  0  2  0  0  0  0  0  0
  183.8700  179.0240  143.1650 C   0  0  0  0  0  1  0  0  0  0  0  0
  186.7890  177.9680  145.1680 N   0  0  0  0  0  0  0  0  0  0  0  0
  187.7130  177.1670  141.9260 C   0  0  0  0  0  0  0  0  0  0  0  0
  188.2190  177.3050  143.2160 C   0  0  0  0  0  0  0  0  0  0  0  0
  187.3690  177.2000  146.2720 C   0  0  0  0  0  1  0  0  0  0  0  0
  186.5660  177.9360  141.8320 C   0  0  0  0  0  0  0  0  0  0  0  0
  189.2100  176.2760  143.6450 C   0  0  1  0  0  3  0  0  0  0  0  0
  184.1890  177.0900  146.5630 F   0  0  0  0  0  0  0  0  0  0  0  0
  185.0150  179.0520  147.2990 F   0  0  0  0  0  0  0  0  0  0  0  0
  184.4850  178.3940  146.2050 C   0  0  0  0  0  0  0  0  0  0  0  0
  183.3110  179.0310  145.8420 F   0  0  0  0  0  0  0  0  0  0  0  0
  185.5570  177.7320  140.8460 N   0  0  0  0  0  2  0  0  0  0  0  0
  185.6450  178.3430  139.6430 O   0  0  0  0  0  1  0  0  0  0  0  0
  188.6320  173.4930  141.4100 C   0  0  0  0  0  0  0  0  0  0  0  0
  187.5410  172.8570  140.9760 C   0  0  0  0  0  2  0  0  0  0  0  0
  190.1760  171.7360  141.8270 O   0  0  0  0  0  0  0  0  0  0  0  0
  189.9600  172.8380  141.2740 C   0  0  0  0  0  0  0  0  0  0  0  0
  191.3220  173.6270  140.4070 S   0  0  0  0  0  0  0  0  0  0  0  0
  191.5740  172.1920  139.3070 C   0  0  0  0  0  2  0  0  0  0  0  0
  194.8060  173.7140  136.6470 O   0  0  0  0  0  1  0  0  0  0  0  0
  192.6420  174.8210  136.2970 C   0  0  1  0  0  3  0  0  0  0  0  0
  191.2110  174.4880  136.3040 N   0  0  0  0  0  2  0  0  0  0  0  0
  193.4870  173.8110  137.1030 C   0  0  1  0  0  3  0  0  0  0  0  0
  191.4180  172.5250  137.8110 C   0  0  2  0  0  0  0  0  0  0  0  0
  193.1020  174.9290  134.8510 C   0  0  0  0  0  1  0  0  0  0  0  0
  192.8180  172.4390  137.1640 C   0  0  0  0  0  2  0  0  0  0  0  0
  190.8080  173.9360  137.6110 C   0  0  0  0  0  2  0  0  0  0  0  0
  190.5020  171.5230  137.1300 C   0  0  0  0  0  0  0  0  0  0  0  0
  189.2710  171.7930  137.0290 O   0  0  0  0  0  0  0  0  0  0  0  0
  191.4750  170.0280  135.2740 C   0  0  0  0  0  1  0  0  0  0  0  0
  190.9430  169.1990  137.4360 O   0  0  0  0  0  0  0  0  0  0  0  0
  190.9720  170.1980  136.6660 C   0  0  0  0  0  0  0  0  0  0  0  0
  189.8890  176.4400  145.0010 C   0  0  2  0  0  3  0  0  0  0  0  0
  191.1950  177.0390  144.9140 O   0  0  0  0  0  0  0  0  0  0  0  0
  192.0590  176.9420  143.8110 C   0  0  0  0  0  0  0  0  0  0  0  0
  192.0230  177.8000  142.8820 O   0  0  0  0  0  0  0  0  0  0  0  0
  193.1630  171.1540  143.7370 C   0  0  2  0  0  3  0  0  0  0  0  0
  193.1180  175.8800  143.7640 C   0  0  1  0  0  3  0  0  0  0  0  0
  195.2420  175.0050  144.7480 C   0  0  0  0  0  3  0  0  0  0  0  0
  195.6800  171.9780  142.4900 O   0  0  0  0  0  1  0  0  0  0  0  0
  195.7190  171.5580  143.8350 C   0  0  2  0  0  0  0  0  0  0  0  0
  194.5420  170.6250  144.1250 C   0  0  0  0  0  2  0  0  0  0  0  0
  194.2860  176.1740  144.7180 C   0  0  0  0  0  2  0  0  0  0  0  0
  192.5450  174.5160  144.0750 C   0  0  0  0  0  3  0  0  0  0  0  0
  195.7200  172.7000  144.6980 O   0  0  0  0  0  0  0  0  0  0  0  0
  193.3440  173.5130  144.4350 C   0  0  0  0  0  0  0  0  0  0  0  0
  192.7320  172.1990  144.7690 C   0  0  0  0  0  2  0  0  0  0  0  0
  194.7940  173.7480  144.6320 C   0  0  0  0  0  0  0  0  0  0  0  0
  197.0010  170.7550  144.0970 C   0  0  2  0  0  3  0  0  0  0  0  0
  196.9500  169.3480  143.5430 C   0  0  0  0  0  2  0  0  0  0  0  0
  197.4630  168.4420  144.4910 O   0  0  0  0  0  0  0  0  0  0  0  0
  197.3090  170.5660  145.5540 C   0  0  0  0  0  2  0  0  0  0  0  0
  197.9270  169.1950  145.5910 C   0  0  0  0  0  2  0  0  0  0  0  0
  192.5610  169.1020  142.6300 C   0  0  0  0  0  1  0  0  0  0  0  0
  192.2420  170.0150  143.7340 N   0  0  0  0  0  2  0  0  0  0  0  0
  189.8870  175.2650  145.7820 O   0  0  0  0  0  0  0  0  0  0  0  0
  191.4870  175.2130  147.3850 C   0  0  0  0  0  1  0  0  0  0  0  0
  190.1300  175.6310  147.0680 N   0  0  0  0  0  0  0  0  0  0  0  0
  189.2460  174.8300  147.8980 C   0  0  0  0  0  1  0  0  0  0  0  0
  1  5  2  0  0  0  0
  2 10  1  0  0  0  0
  2  4  1  0  0  0  0
  3  1  1  0  0  0  0
  3  6  1  0  0  0  0
  4  7  1  0  0  0  0
  5  9  1  0  0  0  0
  5 17  1  0  0  0  0
  6  9  1  0  0  0  0
  7 14  1  0  0  0  0
  8  1  1  0  0  0  0
  9 12  1  0  0  0  0
 10 11  1  0  0  0  0
 11 14  1  0  0  0  0
 11  6  2  0  0  0  0
 13 10  2  0  0  0  0
 13  3  1  0  0  0  0
 14 40  1  1  0  0  0
 17 15  1  0  0  0  0
 17 16  1  0  0  0  0
 18 17  1  0  0  0  0
 19 13  1  0  0  0  0
 20 19  1  0  0  0  0
 21  4  1  0  0  0  0
 22 21  2  0  0  0  0
 24 21  1  0  0  0  0
 24 23  2  0  0  0  0
 25 24  1  0  0  0  0
 26 25  1  0  0  0  0
 28 32  1  6  0  0  0
 28 29  1  0  0  0  0
 28 30  1  0  0  0  0
 29 34  1  0  0  0  0
 30 27  1  6  0  0  0
 30 33  1  0  0  0  0
 31 26  1  1  0  0  0
 33 31  1  0  0  0  0
 34 31  1  0  0  0  0
 35 31  1  0  0  0  0
 36 35  2  0  0  0  0
 37 39  1  0  0  0  0
 39 35  1  0  0  0  0
 39 38  2  0  0  0  0
 40 41  1  6  0  0  0
 40 63  1  0  0  0  0
 42 41  1  0  0  0  0
 43 42  2  0  0  0  0
 44 62  1  1  0  0  0
 44 49  1  0  0  0  0
 44 54  1  0  0  0  0
 45 42  1  1  0  0  0
 45 51  1  0  0  0  0
 45 50  1  0  0  0  0
 48 47  1  6  0  0  0
 48 56  1  0  0  0  0
 48 49  1  0  0  0  0
 48 52  1  0  0  0  0
 50 46  1  0  0  0  0
 51 53  2  0  0  0  0
 53 55  1  0  0  0  0
 53 54  1  0  0  0  0
 55 52  1  0  0  0  0
 55 46  2  0  0  0  0
 56 57  1  1  0  0  0
 56 59  1  0  0  0  0
 57 58  1  0  0  0  0
 58 60  1  0  0  0  0
 59 60  1  0  0  0  0
 61 62  1  0  0  0  0
 63 65  1  0  0  0  0
 65 64  1  0  0  0  0
 65 66  1  0  0  0  0
M  END
>  <MODEL>
4

>  <REMARK>
 VINA RESULT:      -6.9      1.457      2.132
  Name = 
  17 active torsions:
  status: ('A' for Active; 'I' for Inactive)
    1  A    between atoms: C_1  and  N_46
    2  A    between atoms: C_5  and  N_22
    3  A    between atoms: C_5  and  C_66
    4  A    between atoms: C_6  and  O_35
    5  A    between atoms: C_6  and  C_62
    6  A    between atoms: C_6  and  O_65
    7  A    between atoms: C_7  and  C_27
    8  A    between atoms: N_9  and  C_61
    9  A    between atoms: C_10  and  C_43
   10  A    between atoms: C_10  and  C_47
   11  A    between atoms: C_11  and  C_43
   12  A    between atoms: C_11  and  S_58
   13  A    between atoms: C_13  and  C_25
   14  A    between atoms: C_24  and  C_32
   15  A    between atoms: C_25  and  O_35
   16  A    between atoms: N_41  and  O_65
   17  A    between atoms: S_58  and  C_66
                            x       y       z     vdW  Elec       q    Type
                         _______ _______ _______ _____ _____    ______ ____

>  <TORSDO>
F 17

$$$$
=
 OpenBabel11042416203D

 66 72  0  0  1  0  0  0  0  0999 V2000
  190.1240  173.2280  142.2860 C   0  0  0  0  0  0  0  0  0  0  0  0
  193.9800  174.1490  139.6620 C   0  0  0  0  0  2  0  0  0  0  0  0
  190.9940  174.0620  141.6850 N   0  0  0  0  0  0  0  0  0  0  0  0
  195.1730  173.6670  140.4200 N   0  0  0  0  0  0  0  0  0  0  0  0
  190.5840  173.0330  143.5850 C   0  0  0  0  0  0  0  0  0  0  0  0
  191.9230  174.3830  142.5780 C   0  0  0  0  0  0  0  0  0  0  0  0
  195.2100  173.6510  141.8430 N   0  0  0  0  0  2  0  0  0  0  0  0
  189.0240  172.4910  141.5980 C   0  0  0  0  0  1  0  0  0  0  0  0
  191.7310  173.7620  143.7680 N   0  0  0  0  0  0  0  0  0  0  0  0
  192.8440  174.5190  140.5760 C   0  0  0  0  0  0  0  0  0  0  0  0
  193.0890  174.7790  141.9210 C   0  0  0  0  0  0  0  0  0  0  0  0
  192.7230  173.5540  144.8250 C   0  0  0  0  0  1  0  0  0  0  0  0
  191.5250  174.1220  140.4510 C   0  0  0  0  0  0  0  0  0  0  0  0
  194.5240  174.8410  142.3270 C   0  0  1  0  0  3  0  0  0  0  0  0
  189.7020  172.7520  145.7590 F   0  0  0  0  0  0  0  0  0  0  0  0
  188.8110  171.5450  144.0790 F   0  0  0  0  0  0  0  0  0  0  0  0
  189.9830  172.0760  144.5850 C   0  0  0  0  0  0  0  0  0  0  0  0
  190.8430  171.0300  144.8720 F   0  0  0  0  0  0  0  0  0  0  0  0
  191.0240  173.3820  139.3400 N   0  0  0  0  0  2  0  0  0  0  0  0
  191.1020  173.8910  138.0890 O   0  0  0  0  0  1  0  0  0  0  0  0
  196.2670  173.0540  139.7110 C   0  0  0  0  0  0  0  0  0  0  0  0
  196.8160  173.6960  138.6780 C   0  0  0  0  0  2  0  0  0  0  0  0
  197.8110  171.6730  140.8770 O   0  0  0  0  0  0  0  0  0  0  0  0
  196.8140  171.7320  140.1220 C   0  0  0  0  0  0  0  0  0  0  0  0
  196.1410  170.1900  139.4900 S   0  0  0  0  0  0  0  0  0  0  0  0
  194.4180  170.7760  139.6370 C   0  0  0  0  0  2  0  0  0  0  0  0
  194.6560  171.3320  144.0510 O   0  0  0  0  0  1  0  0  0  0  0  0
  194.4980  168.9790  143.3630 C   0  0  1  0  0  3  0  0  0  0  0  0
  193.8370  168.1660  142.3340 N   0  0  0  0  0  2  0  0  0  0  0  0
  194.6200  170.4630  142.9540 C   0  0  1  0  0  3  0  0  0  0  0  0
  193.5900  170.0040  140.6820 C   0  0  2  0  0  0  0  0  0  0  0  0
  193.7430  168.8050  144.6710 C   0  0  0  0  0  1  0  0  0  0  0  0
  193.5300  170.8660  141.9620 C   0  0  0  0  0  2  0  0  0  0  0  0
  194.2180  168.6190  140.9830 C   0  0  0  0  0  2  0  0  0  0  0  0
  192.1750  169.7720  140.1810 C   0  0  0  0  0  0  0  0  0  0  0  0
  191.3090  169.3250  140.9860 O   0  0  0  0  0  0  0  0  0  0  0  0
  190.8520  168.9970  138.1130 C   0  0  0  0  0  1  0  0  0  0  0  0
  192.2560  170.9130  138.0880 O   0  0  0  0  0  0  0  0  0  0  0  0
  191.7900  169.9550  138.7630 C   0  0  0  0  0  0  0  0  0  0  0  0
  194.8580  175.2410  143.7610 C   0  0  2  0  0  3  0  0  0  0  0  0
  194.2450  176.4800  144.1620 O   0  0  0  0  0  0  0  0  0  0  0  0
  193.6250  176.7120  145.4000 C   0  0  0  0  0  0  0  0  0  0  0  0
  194.2970  177.0980  146.4000 O   0  0  0  0  0  0  0  0  0  0  0  0
  188.4270  177.5110  142.7420 C   0  0  2  0  0  3  0  0  0  0  0  0
  192.1340  176.6150  145.5340 C   0  0  1  0  0  3  0  0  0  0  0  0
  190.1170  177.1950  146.8920 C   0  0  0  0  0  3  0  0  0  0  0  0
  187.4900  175.5420  144.6960 O   0  0  0  0  0  1  0  0  0  0  0  0
  187.1360  176.8910  144.9010 C   0  0  2  0  0  0  0  0  0  0  0  0
  187.1480  177.6420  143.5680 C   0  0  0  0  0  2  0  0  0  0  0  0
  191.6270  177.1720  146.8740 C   0  0  0  0  0  2  0  0  0  0  0  0
  191.4300  177.3210  144.3970 C   0  0  0  0  0  3  0  0  0  0  0  0
  188.0230  177.4840  145.8560 O   0  0  0  0  0  0  0  0  0  0  0  0
  190.1470  177.6630  144.5030 C   0  0  0  0  0  0  0  0  0  0  0  0
  189.5080  178.3900  143.3740 C   0  0  0  0  0  2  0  0  0  0  0  0
  189.4200  177.4440  145.7760 C   0  0  0  0  0  0  0  0  0  0  0  0
  185.7050  176.9810  145.4510 C   0  0  2  0  0  3  0  0  0  0  0  0
  184.8590  178.0210  144.7500 C   0  0  0  0  0  2  0  0  0  0  0  0
  184.1280  178.7610  145.7010 O   0  0  0  0  0  0  0  0  0  0  0  0
  185.6370  177.3660  146.9000 C   0  0  0  0  0  2  0  0  0  0  0  0
  184.3850  178.1970  146.9690 C   0  0  0  0  0  2  0  0  0  0  0  0
  186.8800  177.3350  140.9050 C   0  0  0  0  0  1  0  0  0  0  0  0
  188.1180  177.9610  141.3830 N   0  0  0  0  0  2  0  0  0  0  0  0
  196.2380  175.2040  144.0520 O   0  0  0  0  0  0  0  0  0  0  0  0
  196.2350  174.3090  146.1330 C   0  0  0  0  0  1  0  0  0  0  0  0
  196.4810  174.0470  144.7230 N   0  0  0  0  0  0  0  0  0  0  0  0
  197.9050  173.7870  144.5920 C   0  0  0  0  0  1  0  0  0  0  0  0
  1  5  2  0  0  0  0
  2  4  1  0  0  0  0
  2 10  1  0  0  0  0
  3  1  1  0  0  0  0
  3  6  1  0  0  0  0
  4  7  1  0  0  0  0
  5  9  1  0  0  0  0
  5 17  1  0  0  0  0
  6  9  1  0  0  0  0
  7 14  1  0  0  0  0
  8  1  1  0  0  0  0
  9 12  1  0  0  0  0
 10 11  1  0  0  0  0
 11 14  1  0  0  0  0
 11  6  2  0  0  0  0
 13 10  2  0  0  0  0
 13  3  1  0  0  0  0
 14 40  1  1  0  0  0
 16 17  1  0  0  0  0
 17 18  1  0  0  0  0
 17 15  1  0  0  0  0
 19 13  1  0  0  0  0
 20 19  1  0  0  0  0
 21 24  1  0  0  0  0
 21  4  1  0  0  0  0
 22 21  2  0  0  0  0
 24 23  2  0  0  0  0
 25 26  1  0  0  0  0
 25 24  1  0  0  0  0
 28 32  1  1  0  0  0
 29 28  1  0  0  0  0
 30 28  1  0  0  0  0
 30 27  1  1  0  0  0
 31 26  1  6  0  0  0
 31 34  1  0  0  0  0
 31 33  1  0  0  0  0
 33 30  1  0  0  0  0
 34 29  1  0  0  0  0
 35 31  1  0  0  0  0
 35 36  2  0  0  0  0
 37 39  1  0  0  0  0
 38 39  2  0  0  0  0
 39 35  1  0  0  0  0
 40 63  1  6  0  0  0
 40 41  1  0  0  0  0
 41 42  1  0  0  0  0
 42 43  2  0  0  0  0
 44 62  1  6  0  0  0
 44 54  1  0  0  0  0
 44 49  1  0  0  0  0
 45 42  1  6  0  0  0
 45 50  1  0  0  0  0
 48 47  1  6  0  0  0
 48 56  1  0  0  0  0
 48 52  1  0  0  0  0
 49 48  1  0  0  0  0
 50 46  1  0  0  0  0
 51 53  2  0  0  0  0
 51 45  1  0  0  0  0
 53 55  1  0  0  0  0
 54 53  1  0  0  0  0
 55 52  1  0  0  0  0
 55 46  2  0  0  0  0
 56 57  1  6  0  0  0
 56 59  1  0  0  0  0
 57 58  1  0  0  0  0
 58 60  1  0  0  0  0
 59 60  1  0  0  0  0
 61 62  1  0  0  0  0
 63 65  1  0  0  0  0
 65 64  1  0  0  0  0
 66 65  1  0  0  0  0
M  END
>  <MODEL>
5

>  <REMARK>
 VINA RESULT:      -6.4      2.976      7.906
  Name = 
  17 active torsions:
  status: ('A' for Active; 'I' for Inactive)
    1  A    between atoms: C_1  and  N_46
    2  A    between atoms: C_5  and  N_22
    3  A    between atoms: C_5  and  C_66
    4  A    between atoms: C_6  and  O_35
    5  A    between atoms: C_6  and  C_62
    6  A    between atoms: C_6  and  O_65
    7  A    between atoms: C_7  and  C_27
    8  A    between atoms: N_9  and  C_61
    9  A    between atoms: C_10  and  C_43
   10  A    between atoms: C_10  and  C_47
   11  A    between atoms: C_11  and  C_43
   12  A    between atoms: C_11  and  S_58
   13  A    between atoms: C_13  and  C_25
   14  A    between atoms: C_24  and  C_32
   15  A    between atoms: C_25  and  O_35
   16  A    between atoms: N_41  and  O_65
   17  A    between atoms: S_58  and  C_66
                            x       y       z     vdW  Elec       q    Type
                         _______ _______ _______ _____ _____    ______ ____

>  <TORSDO>
F 17

$$$$
=
 OpenBabel11042416203D

 66 72  0  0  1  0  0  0  0  0999 V2000
  185.8680  178.4810  143.7070 C   0  0  0  0  0  0  0  0  0  0  0  0
  188.5340  175.4090  141.2460 C   0  0  0  0  0  2  0  0  0  0  0  0
  186.9450  178.1510  142.9690 N   0  0  0  0  0  0  0  0  0  0  0  0
  189.0400  174.3780  142.1990 N   0  0  0  0  0  0  0  0  0  0  0  0
  186.2250  178.3120  145.0410 C   0  0  0  0  0  0  0  0  0  0  0  0
  187.9210  177.8260  143.8100 C   0  0  0  0  0  0  0  0  0  0  0  0
  189.2910  174.6720  143.5690 N   0  0  0  0  0  2  0  0  0  0  0  0
  184.5020  178.7440  143.1650 C   0  0  0  0  0  1  0  0  0  0  0  0
  187.5280  177.8900  145.1050 N   0  0  0  0  0  0  0  0  0  0  0  0
  188.2620  176.7220  141.9280 C   0  0  0  0  0  0  0  0  0  0  0  0
  188.8410  176.9980  143.1630 C   0  0  0  0  0  0  0  0  0  0  0  0
  188.1680  177.2450  146.2540 C   0  0  0  0  0  1  0  0  0  0  0  0
  187.1140  177.4860  141.8130 C   0  0  0  0  0  0  0  0  0  0  0  0
  189.8510  176.0140  143.6480 C   0  0  1  0  0  3  0  0  0  0  0  0
  184.8470  179.7630  146.3000 F   0  0  0  0  0  0  0  0  0  0  0  0
  184.1980  177.6210  146.0480 F   0  0  0  0  0  0  0  0  0  0  0  0
  185.2890  178.4530  146.2160 C   0  0  0  0  0  0  0  0  0  0  0  0
  185.9100  178.1190  147.4070 F   0  0  0  0  0  0  0  0  0  0  0  0
  186.0490  177.1830  140.9140 N   0  0  0  0  0  2  0  0  0  0  0  0
  185.9700  177.8040  139.7160 O   0  0  0  0  0  1  0  0  0  0  0  0
  189.1350  173.0030  141.7780 C   0  0  0  0  0  0  0  0  0  0  0  0
  188.9580  172.0320  142.6760 C   0  0  0  0  0  2  0  0  0  0  0  0
  188.5020  172.7700  139.4990 O   0  0  0  0  0  0  0  0  0  0  0  0
  189.4030  172.6440  140.3590 C   0  0  0  0  0  0  0  0  0  0  0  0
  190.9720  171.9380  139.8400 S   0  0  0  0  0  0  0  0  0  0  0  0
  190.2220  171.0960  138.4040 C   0  0  0  0  0  2  0  0  0  0  0  0
  192.6900  168.1780  136.1150 O   0  0  0  0  0  1  0  0  0  0  0  0
  193.6640  170.4310  136.2060 C   0  0  1  0  0  3  0  0  0  0  0  0
  193.2220  171.8330  136.1950 N   0  0  0  0  0  2  0  0  0  0  0  0
  192.5450  169.4630  136.6490 C   0  0  1  0  0  3  0  0  0  0  0  0
  190.9430  171.3840  137.0740 C   0  0  2  0  0  0  0  0  0  0  0  0
  194.2070  170.0890  134.8280 C   0  0  0  0  0  1  0  0  0  0  0  0
  191.1580  170.0330  136.3560 C   0  0  0  0  0  2  0  0  0  0  0  0
  192.2970  172.0990  137.3120 C   0  0  0  0  0  2  0  0  0  0  0  0
  190.0950  172.2800  136.1870 C   0  0  0  0  0  0  0  0  0  0  0  0
  189.3850  171.7500  135.2850 O   0  0  0  0  0  0  0  0  0  0  0  0
  189.6130  174.5860  135.1490 C   0  0  0  0  0  1  0  0  0  0  0  0
  190.6320  174.3310  137.2800 O   0  0  0  0  0  0  0  0  0  0  0  0
  190.1400  173.7580  136.2700 C   0  0  0  0  0  0  0  0  0  0  0  0
  190.6070  176.3230  144.9370 C   0  0  2  0  0  3  0  0  0  0  0  0
  191.8270  177.0560  144.7180 O   0  0  0  0  0  0  0  0  0  0  0  0
  193.0670  176.7580  145.3060 C   0  0  0  0  0  0  0  0  0  0  0  0
  193.3560  177.1880  146.4610 O   0  0  0  0  0  0  0  0  0  0  0  0
  195.1880  174.8610  140.1470 C   0  0  2  0  0  3  0  0  0  0  0  0
  194.0300  175.8310  144.6250 C   0  0  1  0  0  3  0  0  0  0  0  0
  194.8810  173.4910  144.4150 C   0  0  0  0  0  3  0  0  0  0  0  0
  197.5210  174.1110  141.7500 O   0  0  0  0  0  1  0  0  0  0  0  0
  196.6630  173.0810  141.3160 C   0  0  2  0  0  0  0  0  0  0  0  0
  195.9150  173.5190  140.0560 C   0  0  0  0  0  2  0  0  0  0  0  0
  194.0150  174.4200  145.2320 C   0  0  0  0  0  2  0  0  0  0  0  0
  193.7560  175.7450  143.1410 C   0  0  0  0  0  3  0  0  0  0  0  0
  195.7650  172.7220  142.3720 O   0  0  0  0  0  0  0  0  0  0  0  0
  194.2410  174.7350  142.4210 C   0  0  0  0  0  0  0  0  0  0  0  0
  193.9130  174.6710  140.9720 C   0  0  0  0  0  2  0  0  0  0  0  0
  194.9730  173.6300  143.0850 C   0  0  0  0  0  0  0  0  0  0  0  0
  197.4830  171.8390  140.9380 C   0  0  2  0  0  3  0  0  0  0  0  0
  196.7230  170.8610  140.0710 C   0  0  0  0  0  2  0  0  0  0  0  0
  196.9380  169.5460  140.5310 O   0  0  0  0  0  0  0  0  0  0  0  0
  197.9220  171.0220  142.1180 C   0  0  0  0  0  2  0  0  0  0  0  0
  197.8690  169.6140  141.5900 C   0  0  0  0  0  2  0  0  0  0  0  0
  195.3710  174.2960  137.8130 C   0  0  0  0  0  1  0  0  0  0  0  0
  194.8670  175.2780  138.7810 N   0  0  0  0  0  2  0  0  0  0  0  0
  190.7980  175.1970  145.7660 O   0  0  0  0  0  0  0  0  0  0  0  0
  191.0940  175.4890  147.9930 C   0  0  0  0  0  1  0  0  0  0  0  0
  190.1150  175.4210  146.9190 N   0  0  0  0  0  0  0  0  0  0  0  0
  189.3160  174.2310  147.1620 C   0  0  0  0  0  1  0  0  0  0  0  0
  1  5  2  0  0  0  0
  2 10  1  0  0  0  0
  2  4  1  0  0  0  0
  3  1  1  0  0  0  0
  3  6  1  0  0  0  0
  4  7  1  0  0  0  0
  5  9  1  0  0  0  0
  5 17  1  0  0  0  0
  6  9  1  0  0  0  0
  7 14  1  0  0  0  0
  8  1  1  0  0  0  0
  9 12  1  0  0  0  0
 10 11  1  0  0  0  0
 11 14  1  0  0  0  0
 11  6  2  0  0  0  0
 13 10  2  0  0  0  0
 13  3  1  0  0  0  0
 14 40  1  1  0  0  0
 16 17  1  0  0  0  0
 17 15  1  0  0  0  0
 17 18  1  0  0  0  0
 19 13  1  0  0  0  0
 20 19  1  0  0  0  0
 21  4  1  0  0  0  0
 21 22  2  0  0  0  0
 23 24  2  0  0  0  0
 24 21  1  0  0  0  0
 25 24  1  0  0  0  0
 26 25  1  0  0  0  0
 28 32  1  6  0  0  0
 28 30  1  0  0  0  0
 29 28  1  0  0  0  0
 29 34  1  0  0  0  0
 30 27  1  6  0  0  0
 31 34  1  0  0  0  0
 31 26  1  1  0  0  0
 33 30  1  0  0  0  0
 33 31  1  0  0  0  0
 35 39  1  0  0  0  0
 35 31  1  0  0  0  0
 36 35  2  0  0  0  0
 37 39  1  0  0  0  0
 39 38  2  0  0  0  0
 40 41  1  6  0  0  0
 40 63  1  0  0  0  0
 41 42  1  0  0  0  0
 42 43  2  0  0  0  0
 44 62  1  6  0  0  0
 44 54  1  0  0  0  0
 45 50  1  0  0  0  0
 45 42  1  1  0  0  0
 46 50  1  0  0  0  0
 48 47  1  1  0  0  0
 48 52  1  0  0  0  0
 49 44  1  0  0  0  0
 49 48  1  0  0  0  0
 51 45  1  0  0  0  0
 52 55  1  0  0  0  0
 53 55  1  0  0  0  0
 53 51  2  0  0  0  0
 54 53  1  0  0  0  0
 55 46  2  0  0  0  0
 56 57  1  6  0  0  0
 56 48  1  0  0  0  0
 56 59  1  0  0  0  0
 57 58  1  0  0  0  0
 58 60  1  0  0  0  0
 60 59  1  0  0  0  0
 61 62  1  0  0  0  0
 63 65  1  0  0  0  0
 65 66  1  0  0  0  0
 65 64  1  0  0  0  0
M  END
>  <MODEL>
6

>  <REMARK>
 VINA RESULT:      -6.3      1.805      2.921
  Name = 
  17 active torsions:
  status: ('A' for Active; 'I' for Inactive)
    1  A    between atoms: C_1  and  N_46
    2  A    between atoms: C_5  and  N_22
    3  A    between atoms: C_5  and  C_66
    4  A    between atoms: C_6  and  O_35
    5  A    between atoms: C_6  and  C_62
    6  A    between atoms: C_6  and  O_65
    7  A    between atoms: C_7  and  C_27
    8  A    between atoms: N_9  and  C_61
    9  A    between atoms: C_10  and  C_43
   10  A    between atoms: C_10  and  C_47
   11  A    between atoms: C_11  and  C_43
   12  A    between atoms: C_11  and  S_58
   13  A    between atoms: C_13  and  C_25
   14  A    between atoms: C_24  and  C_32
   15  A    between atoms: C_25  and  O_35
   16  A    between atoms: N_41  and  O_65
   17  A    between atoms: S_58  and  C_66
                            x       y       z     vdW  Elec       q    Type
                         _______ _______ _______ _____ _____    ______ ____

>  <TORSDO>
F 17

$$$$
=
 OpenBabel11042416203D

 66 72  0  0  1  0  0  0  0  0999 V2000
  191.2670  171.4020  140.3960 C   0  0  0  0  0  0  0  0  0  0  0  0
  194.0250  174.9120  138.7590 C   0  0  0  0  0  2  0  0  0  0  0  0
  191.6810  172.6830  140.3570 N   0  0  0  0  0  0  0  0  0  0  0  0
  195.4320  174.6110  139.1600 N   0  0  0  0  0  0  0  0  0  0  0  0
  192.0050  170.7700  141.3930 C   0  0  0  0  0  0  0  0  0  0  0  0
  192.6030  172.8350  141.3000 C   0  0  0  0  0  0  0  0  0  0  0  0
  195.7420  173.8950  140.3500 N   0  0  0  0  0  2  0  0  0  0  0  0
  190.3630  170.7590  139.3980 C   0  0  0  0  0  1  0  0  0  0  0  0
  192.8580  171.6800  141.9630 N   0  0  0  0  0  0  0  0  0  0  0  0
  193.0270  174.3030  139.7060 C   0  0  0  0  0  0  0  0  0  0  0  0
  193.4250  173.9190  140.9840 C   0  0  0  0  0  0  0  0  0  0  0  0
  194.0460  171.3640  142.7600 C   0  0  0  0  0  1  0  0  0  0  0  0
  191.9150  173.5560  139.3610 C   0  0  0  0  0  0  0  0  0  0  0  0
  194.8070  174.3090  141.3860 C   0  0  1  0  0  3  0  0  0  0  0  0
  192.5190  168.5830  140.6610 F   0  0  0  0  0  0  0  0  0  0  0  0
  192.6740  169.0390  142.8610 F   0  0  0  0  0  0  0  0  0  0  0  0
  191.9580  169.2950  141.7070 C   0  0  0  0  0  0  0  0  0  0  0  0
  190.6590  168.8550  141.8950 F   0  0  0  0  0  0  0  0  0  0  0  0
  191.4850  173.3530  138.0170 N   0  0  0  0  0  2  0  0  0  0  0  0
  190.5520  174.1640  137.4690 O   0  0  0  0  0  1  0  0  0  0  0  0
  196.5100  174.9120  138.2540 C   0  0  0  0  0  0  0  0  0  0  0  0
  197.7250  175.1630  138.7470 C   0  0  0  0  0  2  0  0  0  0  0  0
  195.6500  175.8470  136.2460 O   0  0  0  0  0  0  0  0  0  0  0  0
  196.3050  174.9240  136.7810 C   0  0  0  0  0  0  0  0  0  0  0  0
  196.8950  173.5900  135.7310 S   0  0  0  0  0  0  0  0  0  0  0  0
  195.3920  172.5900  136.0000 C   0  0  0  0  0  2  0  0  0  0  0  0
  196.7290  170.9810  139.9330 O   0  0  0  0  0  1  0  0  0  0  0  0
  197.8910  169.9790  138.0150 C   0  0  1  0  0  3  0  0  0  0  0  0
  197.6020  169.5680  136.6340 N   0  0  0  0  0  2  0  0  0  0  0  0
  196.8810  171.0220  138.5430 C   0  0  1  0  0  3  0  0  0  0  0  0
  195.6820  171.1090  136.3090 C   0  0  2  0  0  0  0  0  0  0  0  0
  197.9390  168.7340  138.8860 C   0  0  0  0  0  1  0  0  0  0  0  0
  195.5330  170.9100  137.8330 C   0  0  0  0  0  2  0  0  0  0  0  0
  197.1040  170.7070  135.8410 C   0  0  0  0  0  2  0  0  0  0  0  0
  194.6880  170.2070  135.5970 C   0  0  0  0  0  0  0  0  0  0  0  0
  195.0320  169.6550  134.5140 O   0  0  0  0  0  0  0  0  0  0  0  0
  192.3930  169.0620  135.3790 C   0  0  0  0  0  1  0  0  0  0  0  0
  192.8570  170.6860  137.0490 O   0  0  0  0  0  0  0  0  0  0  0  0
  193.2960  170.0250  136.0690 C   0  0  0  0  0  0  0  0  0  0  0  0
  195.2580  174.0220  142.8150 C   0  0  2  0  0  3  0  0  0  0  0  0
  194.7590  174.9770  143.7710 O   0  0  0  0  0  0  0  0  0  0  0  0
  193.8120  174.7030  144.7700 C   0  0  0  0  0  0  0  0  0  0  0  0
  194.0840  173.9170  145.7230 O   0  0  0  0  0  0  0  0  0  0  0  0
  188.2510  174.7560  142.8220 C   0  0  2  0  0  3  0  0  0  0  0  0
  192.4960  175.4230  144.7900 C   0  0  1  0  0  3  0  0  0  0  0  0
  191.3020  177.5980  144.4950 C   0  0  0  0  0  3  0  0  0  0  0  0
  187.7720  176.3810  145.2100 O   0  0  0  0  0  1  0  0  0  0  0  0
  187.7880  177.0360  143.9620 C   0  0  2  0  0  0  0  0  0  0  0  0
  187.4350  176.0470  142.8480 C   0  0  0  0  0  2  0  0  0  0  0  0
  192.6560  176.9420  144.6240 C   0  0  0  0  0  2  0  0  0  0  0  0
  191.5620  174.8950  143.7250 C   0  0  0  0  0  3  0  0  0  0  0  0
  189.0680  177.6420  143.7500 O   0  0  0  0  0  0  0  0  0  0  0  0
  190.5080  175.6100  143.3350 C   0  0  0  0  0  0  0  0  0  0  0  0
  189.6390  175.0670  142.2570 C   0  0  0  0  0  2  0  0  0  0  0  0
  190.2940  176.9750  143.8700 C   0  0  0  0  0  0  0  0  0  0  0  0
  186.7210  178.1390  143.9330 C   0  0  2  0  0  3  0  0  0  0  0  0
  185.8020  178.1150  145.1350 C   0  0  0  0  0  2  0  0  0  0  0  0
  184.4680  178.2960  144.7190 O   0  0  0  0  0  0  0  0  0  0  0  0
  185.7930  178.0530  142.7570 C   0  0  0  0  0  2  0  0  0  0  0  0
  184.4840  178.5270  143.3270 C   0  0  0  0  0  2  0  0  0  0  0  0
  188.0750  173.8500  140.5980 C   0  0  0  0  0  1  0  0  0  0  0  0
  187.5400  173.8070  141.9640 N   0  0  0  0  0  2  0  0  0  0  0  0
  196.6470  173.8120  142.9400 O   0  0  0  0  0  0  0  0  0  0  0  0
  197.9410  173.9820  144.7910 C   0  0  0  0  0  1  0  0  0  0  0  0
  196.8640  173.2400  144.1530 N   0  0  0  0  0  0  0  0  0  0  0  0
  197.3780  171.9050  143.8940 C   0  0  0  0  0  1  0  0  0  0  0  0
  1  5  2  0  0  0  0
  2  4  1  0  0  0  0
  2 10  1  0  0  0  0
  3  1  1  0  0  0  0
  3  6  1  0  0  0  0
  4  7  1  0  0  0  0
  5 17  1  0  0  0  0
  5  9  1  0  0  0  0
  6  9  1  0  0  0  0
  7 14  1  0  0  0  0
  8  1  1  0  0  0  0
  9 12  1  0  0  0  0
 10 11  1  0  0  0  0
 11  6  2  0  0  0  0
 11 14  1  0  0  0  0
 13 10  2  0  0  0  0
 13  3  1  0  0  0  0
 14 40  1  1  0  0  0
 15 17  1  0  0  0  0
 17 18  1  0  0  0  0
 17 16  1  0  0  0  0
 19 13  1  0  0  0  0
 20 19  1  0  0  0  0
 21 22  2  0  0  0  0
 21  4  1  0  0  0  0
 23 24  2  0  0  0  0
 24 21  1  0  0  0  0
 25 26  1  0  0  0  0
 25 24  1  0  0  0  0
 28 30  1  0  0  0  0
 28 32  1  1  0  0  0
 29 28  1  0  0  0  0
 30 27  1  1  0  0  0
 31 26  1  6  0  0  0
 31 33  1  0  0  0  0
 33 30  1  0  0  0  0
 34 31  1  0  0  0  0
 34 29  1  0  0  0  0
 35 39  1  0  0  0  0
 35 31  1  0  0  0  0
 36 35  2  0  0  0  0
 37 39  1  0  0  0  0
 39 38  2  0  0  0  0
 40 63  1  6  0  0  0
 40 41  1  0  0  0  0
 41 42  1  0  0  0  0
 42 43  2  0  0  0  0
 44 62  1  6  0  0  0
 44 49  1  0  0  0  0
 45 42  1  6  0  0  0
 46 50  1  0  0  0  0
 48 47  1  1  0  0  0
 49 48  1  0  0  0  0
 50 45  1  0  0  0  0
 51 45  1  0  0  0  0
 52 55  1  0  0  0  0
 52 48  1  0  0  0  0
 53 51  2  0  0  0  0
 53 55  1  0  0  0  0
 54 44  1  0  0  0  0
 54 53  1  0  0  0  0
 55 46  2  0  0  0  0
 56 59  1  6  0  0  0
 56 48  1  0  0  0  0
 56 57  1  0  0  0  0
 58 57  1  0  0  0  0
 59 60  1  0  0  0  0
 60 58  1  0  0  0  0
 61 62  1  0  0  0  0
 63 65  1  0  0  0  0
 65 64  1  0  0  0  0
 66 65  1  0  0  0  0
M  END
>  <MODEL>
7

>  <REMARK>
 VINA RESULT:      -6.1      3.818      8.396
  Name = 
  17 active torsions:
  status: ('A' for Active; 'I' for Inactive)
    1  A    between atoms: C_1  and  N_46
    2  A    between atoms: C_5  and  N_22
    3  A    between atoms: C_5  and  C_66
    4  A    between atoms: C_6  and  O_35
    5  A    between atoms: C_6  and  C_62
    6  A    between atoms: C_6  and  O_65
    7  A    between atoms: C_7  and  C_27
    8  A    between atoms: N_9  and  C_61
    9  A    between atoms: C_10  and  C_43
   10  A    between atoms: C_10  and  C_47
   11  A    between atoms: C_11  and  C_43
   12  A    between atoms: C_11  and  S_58
   13  A    between atoms: C_13  and  C_25
   14  A    between atoms: C_24  and  C_32
   15  A    between atoms: C_25  and  O_35
   16  A    between atoms: N_41  and  O_65
   17  A    between atoms: S_58  and  C_66
                            x       y       z     vdW  Elec       q    Type
                         _______ _______ _______ _____ _____    ______ ____

>  <TORSDO>
F 17

$$$$
=
 OpenBabel11042416203D

 66 72  0  0  1  0  0  0  0  0999 V2000
  185.7310  178.4070  141.8590 C   0  0  0  0  0  0  0  0  0  0  0  0
  189.0960  175.0800  141.4030 C   0  0  0  0  0  2  0  0  0  0  0  0
  186.9990  178.0050  141.6500 N   0  0  0  0  0  0  0  0  0  0  0  0
  189.2370  174.3900  142.7200 N   0  0  0  0  0  0  0  0  0  0  0  0
  185.5980  178.6300  143.2260 C   0  0  0  0  0  0  0  0  0  0  0  0
  187.6190  178.0100  142.8250 C   0  0  0  0  0  0  0  0  0  0  0  0
  188.9910  175.0560  143.9530 N   0  0  0  0  0  2  0  0  0  0  0  0
  184.6420  178.3820  140.8380 C   0  0  0  0  0  1  0  0  0  0  0  0
  186.7960  178.3720  143.8400 N   0  0  0  0  0  0  0  0  0  0  0  0
  188.6000  176.4910  141.5570 C   0  0  0  0  0  0  0  0  0  0  0  0
  188.7080  177.1370  142.7850 C   0  0  0  0  0  0  0  0  0  0  0  0
  186.9930  178.1170  145.2690 C   0  0  0  0  0  1  0  0  0  0  0  0
  187.5640  177.0800  140.8540 C   0  0  0  0  0  0  0  0  0  0  0  0
  189.4860  176.4210  143.8370 C   0  0  1  0  0  3  0  0  0  0  0  0
  184.3820  180.2760  144.4080 F   0  0  0  0  0  0  0  0  0  0  0  0
  183.2530  178.8880  143.0400 F   0  0  0  0  0  0  0  0  0  0  0  0
  184.3090  178.9800  143.9280 C   0  0  0  0  0  0  0  0  0  0  0  0
  184.0580  178.1280  144.9900 F   0  0  0  0  0  0  0  0  0  0  0  0
  186.8830  176.4480  139.7720 N   0  0  0  0  0  2  0  0  0  0  0  0
  186.5300  177.1600  138.6790 O   0  0  0  0  0  1  0  0  0  0  0  0
  189.4760  172.9700  142.7580 C   0  0  0  0  0  0  0  0  0  0  0  0
  188.8260  172.2230  143.6530 C   0  0  0  0  0  2  0  0  0  0  0  0
  191.6220  172.1840  142.1040 O   0  0  0  0  0  0  0  0  0  0  0  0
  190.4130  172.3160  141.8050 C   0  0  0  0  0  0  0  0  0  0  0  0
  189.8850  171.7780  140.1740 S   0  0  0  0  0  0  0  0  0  0  0  0
  190.6600  170.1370  140.3630 C   0  0  0  0  0  2  0  0  0  0  0  0
  190.5330  171.6250  136.1660 O   0  0  0  0  0  1  0  0  0  0  0  0
  191.1760  169.2620  136.3520 C   0  0  1  0  0  3  0  0  0  0  0  0
  191.9480  168.3890  137.2470 N   0  0  0  0  0  2  0  0  0  0  0  0
  190.7050  170.5550  137.0520 C   0  0  1  0  0  3  0  0  0  0  0  0
  191.6920  169.8110  139.2670 C   0  0  2  0  0  0  0  0  0  0  0  0
  192.0190  169.5500  135.1190 C   0  0  0  0  0  1  0  0  0  0  0  0
  191.6250  170.9360  138.2110 C   0  0  0  0  0  2  0  0  0  0  0  0
  191.4070  168.4330  138.6180 C   0  0  0  0  0  2  0  0  0  0  0  0
  193.0960  169.7680  139.8470 C   0  0  0  0  0  0  0  0  0  0  0  0
  193.2530  169.3600  141.0330 O   0  0  0  0  0  0  0  0  0  0  0  0
  194.8010  171.6420  139.3940 C   0  0  0  0  0  1  0  0  0  0  0  0
  194.8490  169.5650  138.2430 O   0  0  0  0  0  0  0  0  0  0  0  0
  194.2780  170.2760  139.1150 C   0  0  0  0  0  0  0  0  0  0  0  0
  189.7410  177.1300  145.1640 C   0  0  2  0  0  3  0  0  0  0  0  0
  191.1300  177.4430  145.3830 O   0  0  0  0  0  0  0  0  0  0  0  0
  192.1280  177.4290  144.3950 C   0  0  0  0  0  0  0  0  0  0  0  0
  192.1390  178.2950  143.4730 O   0  0  0  0  0  0  0  0  0  0  0  0
  196.4570  174.7290  141.4480 C   0  0  2  0  0  3  0  0  0  0  0  0
  193.2660  176.4550  144.4770 C   0  0  1  0  0  3  0  0  0  0  0  0
  194.0210  174.1800  145.1820 C   0  0  0  0  0  3  0  0  0  0  0  0
  197.6570  174.4550  144.1040 O   0  0  0  0  0  1  0  0  0  0  0  0
  197.0890  173.3060  143.5170 C   0  0  2  0  0  0  0  0  0  0  0  0
  197.0820  173.4460  141.9940 C   0  0  0  0  0  2  0  0  0  0  0  0
  192.8990  175.1870  145.2630 C   0  0  0  0  0  2  0  0  0  0  0  0
  193.7620  176.0700  143.1020 C   0  0  0  0  0  3  0  0  0  0  0  0
  195.7730  173.0960  144.0400 O   0  0  0  0  0  0  0  0  0  0  0  0
  194.5020  174.9760  142.9320 C   0  0  0  0  0  0  0  0  0  0  0  0
  194.9340  174.6150  141.5550 C   0  0  0  0  0  2  0  0  0  0  0  0
  194.7660  174.0690  144.0740 C   0  0  0  0  0  0  0  0  0  0  0  0
  197.9410  172.0720  143.8480 C   0  0  2  0  0  3  0  0  0  0  0  0
  197.9400  171.0320  142.7500 C   0  0  0  0  0  2  0  0  0  0  0  0
  197.7830  169.7480  143.3080 O   0  0  0  0  0  0  0  0  0  0  0  0
  197.4780  171.3250  145.0640 C   0  0  0  0  0  2  0  0  0  0  0  0
  197.7750  169.8930  144.7120 C   0  0  0  0  0  2  0  0  0  0  0  0
  197.9410  173.8990  139.7430 C   0  0  0  0  0  1  0  0  0  0  0  0
  196.8720  174.8560  140.0490 N   0  0  0  0  0  2  0  0  0  0  0  0
  189.1540  176.4860  146.2730 O   0  0  0  0  0  0  0  0  0  0  0  0
  189.5580  174.6240  147.4990 C   0  0  0  0  0  1  0  0  0  0  0  0
  190.1440  175.8290  146.9320 N   0  0  0  0  0  0  0  0  0  0  0  0
  190.5210  176.6720  148.0550 C   0  0  0  0  0  1  0  0  0  0  0  0
  1  5  2  0  0  0  0
  2 10  1  0  0  0  0
  2  4  1  0  0  0  0
  3  1  1  0  0  0  0
  3  6  1  0  0  0  0
  4 21  1  0  0  0  0
  4  7  1  0  0  0  0
  5  9  1  0  0  0  0
  5 17  1  0  0  0  0
  6  9  1  0  0  0  0
  8  1  1  0  0  0  0
  9 12  1  0  0  0  0
 10 11  1  0  0  0  0
 11  6  2  0  0  0  0
 11 14  1  0  0  0  0
 13 10  2  0  0  0  0
 13  3  1  0  0  0  0
 14  7  1  0  0  0  0
 14 40  1  1  0  0  0
 16 17  1  0  0  0  0
 17 15  1  0  0  0  0
 17 18  1  0  0  0  0
 19 13  1  0  0  0  0
 20 19  1  0  0  0  0
 21 22  2  0  0  0  0
 24 23  2  0  0  0  0
 24 21  1  0  0  0  0
 25 26  1  0  0  0  0
 25 24  1  0  0  0  0
 28 32  1  6  0  0  0
 28 30  1  0  0  0  0
 28 29  1  0  0  0  0
 29 34  1  0  0  0  0
 30 27  1  6  0  0  0
 30 33  1  0  0  0  0
 31 35  1  0  0  0  0
 31 26  1  1  0  0  0
 33 31  1  0  0  0  0
 34 31  1  0  0  0  0
 35 36  2  0  0  0  0
 38 39  2  0  0  0  0
 39 37  1  0  0  0  0
 39 35  1  0  0  0  0
 40 41  1  1  0  0  0
 40 63  1  0  0  0  0
 42 41  1  0  0  0  0
 43 42  2  0  0  0  0
 44 62  1  6  0  0  0
 44 54  1  0  0  0  0
 44 49  1  0  0  0  0
 45 42  1  6  0  0  0
 45 50  1  0  0  0  0
 46 50  1  0  0  0  0
 48 56  1  0  0  0  0
 48 52  1  0  0  0  0
 48 47  1  1  0  0  0
 49 48  1  0  0  0  0
 51 45  1  0  0  0  0
 52 55  1  0  0  0  0
 53 51  2  0  0  0  0
 53 55  1  0  0  0  0
 54 53  1  0  0  0  0
 55 46  2  0  0  0  0
 56 57  1  6  0  0  0
 56 59  1  0  0  0  0
 57 58  1  0  0  0  0
 58 60  1  0  0  0  0
 60 59  1  0  0  0  0
 61 62  1  0  0  0  0
 63 65  1  0  0  0  0
 65 64  1  0  0  0  0
 65 66  1  0  0  0  0
M  END
>  <MODEL>
8

>  <REMARK>
 VINA RESULT:      -6.0      2.112      3.199
  Name = 
  17 active torsions:
  status: ('A' for Active; 'I' for Inactive)
    1  A    between atoms: C_1  and  N_46
    2  A    between atoms: C_5  and  N_22
    3  A    between atoms: C_5  and  C_66
    4  A    between atoms: C_6  and  O_35
    5  A    between atoms: C_6  and  C_62
    6  A    between atoms: C_6  and  O_65
    7  A    between atoms: C_7  and  C_27
    8  A    between atoms: N_9  and  C_61
    9  A    between atoms: C_10  and  C_43
   10  A    between atoms: C_10  and  C_47
   11  A    between atoms: C_11  and  C_43
   12  A    between atoms: C_11  and  S_58
   13  A    between atoms: C_13  and  C_25
   14  A    between atoms: C_24  and  C_32
   15  A    between atoms: C_25  and  O_35
   16  A    between atoms: N_41  and  O_65
   17  A    between atoms: S_58  and  C_66
                            x       y       z     vdW  Elec       q    Type
                         _______ _______ _______ _____ _____    ______ ____

>  <TORSDO>
F 17

$$$$
=
 OpenBabel11042416203D

 66 72  0  0  1  0  0  0  0  0999 V2000
  190.4340  175.0700  146.6110 C   0  0  0  0  0  0  0  0  0  0  0  0
  192.9610  171.7420  144.3450 C   0  0  0  0  0  2  0  0  0  0  0  0
  190.9700  174.5160  145.5070 N   0  0  0  0  0  0  0  0  0  0  0  0
  194.3750  171.8420  144.8170 N   0  0  0  0  0  0  0  0  0  0  0  0
  191.3600  175.9920  147.0910 C   0  0  0  0  0  0  0  0  0  0  0  0
  192.1510  175.0900  145.3050 C   0  0  0  0  0  0  0  0  0  0  0  0
  194.9470  173.0760  145.2330 N   0  0  0  0  0  2  0  0  0  0  0  0
  189.1930  174.5990  147.2940 C   0  0  0  0  0  1  0  0  0  0  0  0
  192.4530  175.9990  146.2630 N   0  0  0  0  0  0  0  0  0  0  0  0
  192.2390  173.0560  144.4480 C   0  0  0  0  0  0  0  0  0  0  0  0
  192.9610  174.2420  144.5470 C   0  0  0  0  0  0  0  0  0  0  0  0
  193.7800  176.5220  146.5960 C   0  0  0  0  0  1  0  0  0  0  0  0
  190.9910  173.2680  145.0070 C   0  0  0  0  0  0  0  0  0  0  0  0
  194.4370  174.1280  144.3650 C   0  0  1  0  0  3  0  0  0  0  0  0
  191.1990  175.8800  149.4460 F   0  0  0  0  0  0  0  0  0  0  0  0
  192.3120  177.6110  148.5310 F   0  0  0  0  0  0  0  0  0  0  0  0
  191.2300  176.7640  148.3810 C   0  0  0  0  0  0  0  0  0  0  0  0
  190.0760  177.5270  148.4050 F   0  0  0  0  0  0  0  0  0  0  0  0
  190.1440  172.2190  145.4710 N   0  0  0  0  0  2  0  0  0  0  0  0
  189.1150  171.7850  144.7090 O   0  0  0  0  0  1  0  0  0  0  0  0
  195.1480  170.6420  145.0090 C   0  0  0  0  0  0  0  0  0  0  0  0
  194.9880  169.9360  146.1300 C   0  0  0  0  0  2  0  0  0  0  0  0
  197.3340  170.1690  144.2030 O   0  0  0  0  0  0  0  0  0  0  0  0
  196.1030  170.1610  143.9740 C   0  0  0  0  0  0  0  0  0  0  0  0
  195.5520  169.6430  142.3440 S   0  0  0  0  0  0  0  0  0  0  0  0
  195.7110  171.3260  141.6560 C   0  0  0  0  0  2  0  0  0  0  0  0
  191.4040  172.3230  141.1070 O   0  0  0  0  0  1  0  0  0  0  0  0
  192.2260  170.6220  139.5390 C   0  0  1  0  0  3  0  0  0  0  0  0
  193.4460  170.3060  138.7830 N   0  0  0  0  0  2  0  0  0  0  0  0
  192.5050  171.5350  140.7520 C   0  0  1  0  0  3  0  0  0  0  0  0
  195.0010  171.5090  140.3010 C   0  0  2  0  0  0  0  0  0  0  0  0
  191.2130  171.2300  138.5830 C   0  0  0  0  0  1  0  0  0  0  0  0
  193.7540  172.3890  140.5410 C   0  0  0  0  0  2  0  0  0  0  0  0
  194.5980  170.1430  139.6900 C   0  0  0  0  0  2  0  0  0  0  0  0
  195.9110  172.2110  139.3080 C   0  0  0  0  0  0  0  0  0  0  0  0
  196.8590  171.5590  138.7840 O   0  0  0  0  0  0  0  0  0  0  0  0
  194.7950  174.1290  138.0040 C   0  0  0  0  0  1  0  0  0  0  0  0
  196.5460  174.4950  139.5670 O   0  0  0  0  0  0  0  0  0  0  0  0
  195.7950  173.6540  139.0000 C   0  0  0  0  0  0  0  0  0  0  0  0
  195.2690  175.4070  144.3430 C   0  0  2  0  0  3  0  0  0  0  0  0
  194.8680  176.3270  143.3100 O   0  0  0  0  0  0  0  0  0  0  0  0
  193.7720  176.1520  142.4500 C   0  0  0  0  0  0  0  0  0  0  0  0
  193.9220  175.6330  141.3060 O   0  0  0  0  0  0  0  0  0  0  0  0
  188.0960  174.5760  142.3060 C   0  0  2  0  0  3  0  0  0  0  0  0
  192.3820  176.4740  142.9140 C   0  0  1  0  0  3  0  0  0  0  0  0
  190.6010  178.2150  143.1230 C   0  0  0  0  0  3  0  0  0  0  0  0
  187.9490  176.0790  144.8150 O   0  0  0  0  0  1  0  0  0  0  0  0
  187.3970  176.6700  143.6610 C   0  0  2  0  0  0  0  0  0  0  0  0
  187.0040  175.5860  142.6550 C   0  0  0  0  0  2  0  0  0  0  0  0
  192.0540  177.9700  142.7930 C   0  0  0  0  0  2  0  0  0  0  0  0
  191.3490  175.6700  142.1580 C   0  0  0  0  0  3  0  0  0  0  0  0
  188.3270  177.6040  143.1020 O   0  0  0  0  0  0  0  0  0  0  0  0
  190.0710  176.0460  142.1510 C   0  0  0  0  0  0  0  0  0  0  0  0
  189.0970  175.2460  141.3620 C   0  0  0  0  0  2  0  0  0  0  0  0
  189.6640  177.3130  142.8020 C   0  0  0  0  0  0  0  0  0  0  0  0
  186.1110  177.4280  144.0240 C   0  0  2  0  0  3  0  0  0  0  0  0
  186.2920  178.9300  144.0590 C   0  0  0  0  0  2  0  0  0  0  0  0
  185.6540  179.4610  145.1970 O   0  0  0  0  0  0  0  0  0  0  0  0
  185.5730  177.0900  145.3830 C   0  0  0  0  0  2  0  0  0  0  0  0
  184.9940  178.3970  145.8510 C   0  0  0  0  0  2  0  0  0  0  0  0
  188.4130  172.6940  140.8380 C   0  0  0  0  0  1  0  0  0  0  0  0
  187.4460  173.4370  141.6540 N   0  0  0  0  0  2  0  0  0  0  0  0
  196.6610  175.1780  144.3480 O   0  0  0  0  0  0  0  0  0  0  0  0
  197.8240  173.6290  143.1740 C   0  0  0  0  0  1  0  0  0  0  0  0
  197.0220  174.8390  143.0830 N   0  0  0  0  0  0  0  0  0  0  0  0
  197.9100  175.8900  142.6140 C   0  0  0  0  0  1  0  0  0  0  0  0
  1  5  2  0  0  0  0
  1  8  1  0  0  0  0
  2 10  1  0  0  0  0
  2  4  1  0  0  0  0
  3  1  1  0  0  0  0
  4 21  1  0  0  0  0
  4  7  1  0  0  0  0
  5 17  1  0  0  0  0
  6  3  1  0  0  0  0
  6  9  1  0  0  0  0
  9 12  1  0  0  0  0
  9  5  1  0  0  0  0
 10 11  1  0  0  0  0
 10 13  2  0  0  0  0
 11  6  2  0  0  0  0
 13 19  1  0  0  0  0
 13  3  1  0  0  0  0
 14 40  1  1  0  0  0
 14 11  1  0  0  0  0
 14  7  1  0  0  0  0
 17 18  1  0  0  0  0
 17 16  1  0  0  0  0
 17 15  1  0  0  0  0
 20 19  1  0  0  0  0
 21 22  2  0  0  0  0
 24 23  2  0  0  0  0
 24 21  1  0  0  0  0
 25 24  1  0  0  0  0
 26 25  1  0  0  0  0
 28 32  1  6  0  0  0
 28 30  1  0  0  0  0
 29 28  1  0  0  0  0
 29 34  1  0  0  0  0
 30 27  1  6  0  0  0
 31 33  1  0  0  0  0
 31 26  1  1  0  0  0
 33 30  1  0  0  0  0
 34 31  1  0  0  0  0
 35 31  1  0  0  0  0
 36 35  2  0  0  0  0
 37 39  1  0  0  0  0
 39 35  1  0  0  0  0
 39 38  2  0  0  0  0
 40 41  1  6  0  0  0
 40 63  1  0  0  0  0
 42 41  1  0  0  0  0
 43 42  2  0  0  0  0
 44 62  1  6  0  0  0
 44 49  1  0  0  0  0
 45 42  1  6  0  0  0
 48 56  1  0  0  0  0
 48 47  1  1  0  0  0
 49 48  1  0  0  0  0
 50 45  1  0  0  0  0
 50 46  1  0  0  0  0
 51 45  1  0  0  0  0
 52 48  1  0  0  0  0
 53 51  2  0  0  0  0
 53 55  1  0  0  0  0
 54 53  1  0  0  0  0
 54 44  1  0  0  0  0
 55 52  1  0  0  0  0
 55 46  2  0  0  0  0
 56 57  1  1  0  0  0
 56 59  1  0  0  0  0
 57 58  1  0  0  0  0
 58 60  1  0  0  0  0
 59 60  1  0  0  0  0
 61 62  1  0  0  0  0
 65 64  1  0  0  0  0
 65 63  1  0  0  0  0
 66 65  1  0  0  0  0
M  END
>  <MODEL>
9

>  <REMARK>
 VINA RESULT:      -5.7      2.705      7.549
  Name = 
  17 active torsions:
  status: ('A' for Active; 'I' for Inactive)
    1  A    between atoms: C_1  and  N_46
    2  A    between atoms: C_5  and  N_22
    3  A    between atoms: C_5  and  C_66
    4  A    between atoms: C_6  and  O_35
    5  A    between atoms: C_6  and  C_62
    6  A    between atoms: C_6  and  O_65
    7  A    between atoms: C_7  and  C_27
    8  A    between atoms: N_9  and  C_61
    9  A    between atoms: C_10  and  C_43
   10  A    between atoms: C_10  and  C_47
   11  A    between atoms: C_11  and  C_43
   12  A    between atoms: C_11  and  S_58
   13  A    between atoms: C_13  and  C_25
   14  A    between atoms: C_24  and  C_32
   15  A    between atoms: C_25  and  O_35
   16  A    between atoms: N_41  and  O_65
   17  A    between atoms: S_58  and  C_66
                            x       y       z     vdW  Elec       q    Type
                         _______ _______ _______ _____ _____    ______ ____

>  <TORSDO>
F 17

$$$$
