=
 OpenBabel11042419003D

 41 45  0  0  1  0  0  0  0  0999 V2000
  194.8070  175.4530  142.7370 N   0  0  0  0  0  1  0  0  0  0  0  0
  193.1780  172.2740  144.9350 C   0  0  0  0  0  3  0  0  0  0  0  0
  194.2270  174.3810  143.4760 C   0  0  0  0  0  0  0  0  0  0  0  0
  196.8990  171.5590  145.1120 C   0  0  0  0  0  1  0  0  0  0  0  0
  195.0400  173.4360  144.0150 N   0  0  0  0  0  0  0  0  0  0  0  0
  192.3030  173.2130  144.3890 C   0  0  0  0  0  0  0  0  0  0  0  0
  194.9820  170.2840  146.0650 C   0  0  0  0  0  1  0  0  0  0  0  0
  195.4630  171.4240  145.3000 N   0  0  0  0  0  0  0  0  0  0  0  0
  194.5590  172.3910  144.7410 C   0  0  0  0  0  0  0  0  0  0  0  0
  192.8330  174.3030  143.6550 C   0  0  0  0  0  0  0  0  0  0  0  0
  190.9000  173.0200  144.6290 N   0  0  0  0  0  2  0  0  0  0  0  0
  190.0290  172.1060  143.9070 C   0  0  0  0  0  2  0  0  0  0  0  0
  189.5050  172.7770  142.6820 C   0  0  0  0  0  0  0  0  0  0  0  0
  189.9660  170.9630  138.8480 C   0  0  0  0  0  2  0  0  0  0  0  0
  188.5670  174.1130  140.3990 C   0  0  0  0  0  3  0  0  0  0  0  0
  189.2710  172.9140  140.2670 C   0  0  0  0  0  0  0  0  0  0  0  0
  191.0240  170.6710  139.9120 C   0  0  0  0  0  2  0  0  0  0  0  0
  188.7980  173.9790  142.8080 C   0  0  0  0  0  3  0  0  0  0  0  0
  190.5270  171.0530  141.2310 N   0  0  0  0  0  2  0  0  0  0  0  0
  189.7620  172.2540  141.4040 C   0  0  0  0  0  0  0  0  0  0  0  0
  188.3320  174.6460  141.6700 C   0  0  0  0  0  3  0  0  0  0  0  0
  189.4950  172.3410  138.9750 N   0  0  0  0  0  2  0  0  0  0  0  0
  191.9710  175.4130  143.1240 C   0  0  0  0  0  2  0  0  0  0  0  0
  190.0860  176.8550  145.7300 C   0  0  1  0  0  3  0  0  0  0  0  0
  191.4660  176.0510  147.5480 O   0  0  0  0  0  0  0  0  0  0  0  0
  191.3300  176.3200  146.3250 C   0  0  0  0  0  0  0  0  0  0  0  0
  192.3800  176.1570  145.3980 N   0  0  0  0  0  2  0  0  0  0  0  0
  190.4820  177.0950  144.2740 C   0  0  1  0  0  3  0  0  0  0  0  0
  190.4330  178.5810  143.9740 C   0  0  0  0  0  1  0  0  0  0  0  0
  191.9230  176.5890  144.0920 C   0  0  2  0  0  3  0  0  0  0  0  0
  188.9800  175.8120  145.7740 C   0  0  0  0  0  2  0  0  0  0  0  0
  187.8250  176.3000  146.6280 C   0  0  0  0  0  2  0  0  0  0  0  0
  187.2120  177.3850  145.9980 O   0  0  0  0  0  0  0  0  0  0  0  0
  185.9540  179.0510  143.1460 C   0  0  0  0  0  2  0  0  0  0  0  0
  185.9940  176.8860  145.5200 C   0  0  1  0  0  3  0  0  0  0  0  0
  184.4320  178.9440  145.1010 C   0  0  0  0  0  2  0  0  0  0  0  0
  184.9740  178.1580  147.3060 O   0  0  0  0  0  1  0  0  0  0  0  0
  184.8040  177.7480  145.9820 C   0  0  2  0  0  3  0  0  0  0  0  0
  186.7820  177.7780  143.2710 C   0  0  0  0  0  2  0  0  0  0  0  0
  186.0380  176.6610  144.0040 C   0  0  0  0  0  2  0  0  0  0  0  0
  185.6330  179.6600  144.5010 C   0  0  0  0  0  2  0  0  0  0  0  0
  1  3  1  0  0  0  0
  3 10  2  0  0  0  0
  3  5  1  0  0  0  0
  4  8  1  0  0  0  0
  5  9  2  0  0  0  0
  6 11  1  0  0  0  0
  6  2  2  0  0  0  0
  8  7  1  0  0  0  0
  9  2  1  0  0  0  0
  9  8  1  0  0  0  0
 10  6  1  0  0  0  0
 12 11  1  0  0  0  0
 13 18  1  0  0  0  0
 13 12  1  0  0  0  0
 14 22  1  0  0  0  0
 14 17  1  0  0  0  0
 15 21  1  0  0  0  0
 16 15  2  0  0  0  0
 16 20  1  0  0  0  0
 17 19  1  0  0  0  0
 19 20  1  0  0  0  0
 20 13  2  0  0  0  0
 21 18  2  0  0  0  0
 22 16  1  0  0  0  0
 23 10  1  0  0  0  0
 24 31  1  6  0  0  0
 24 26  1  0  0  0  0
 26 25  2  0  0  0  0
 27 26  1  0  0  0  0
 28 29  1  1  0  0  0
 28 24  1  0  0  0  0
 30 23  1  6  0  0  0
 30 28  1  0  0  0  0
 30 27  1  0  0  0  0
 31 32  1  0  0  0  0
 33 32  1  0  0  0  0
 34 39  1  0  0  0  0
 34 41  1  0  0  0  0
 35 38  1  0  0  0  0
 35 33  1  6  0  0  0
 36 38  1  0  0  0  0
 38 37  1  1  0  0  0
 39 40  1  0  0  0  0
 40 35  1  0  0  0  0
 41 36  1  0  0  0  0
M  END
>  <MODEL>
1

>  <REMARK>
 VINA RESULT:      -8.0      0.000      0.000
  Name = 
  9 active torsions:
  status: ('A' for Active; 'I' for Inactive)
    1  A    between atoms: C_1  and  C_34
    2  A    between atoms: C_4  and  C_11
    3  A    between atoms: C_9  and  O_25
    4  A    between atoms: C_9  and  C_34
    5  A    between atoms: C_10  and  O_25
    6  A    between atoms: C_11  and  N_23
    7  A    between atoms: N_23  and  C_24
    8  A    between atoms: C_31  and  C_38
    9  A    between atoms: C_31  and  C_41
                            x       y       z     vdW  Elec       q    Type
                         _______ _______ _______ _____ _____    ______ ____

>  <TORSDO>
F 9

$$$$
=
 OpenBabel11042419003D

 41 45  0  0  1  0  0  0  0  0999 V2000
  187.9670  174.4940  142.2230 N   0  0  0  0  0  1  0  0  0  0  0  0
  191.1370  171.7850  141.7680 C   0  0  0  0  0  3  0  0  0  0  0  0
  189.0490  173.5760  142.0960 C   0  0  0  0  0  0  0  0  0  0  0  0
  189.4400  171.6250  138.3790 C   0  0  0  0  0  1  0  0  0  0  0  0
  189.2160  172.9100  140.9240 N   0  0  0  0  0  0  0  0  0  0  0  0
  190.9980  172.4370  142.9950 C   0  0  0  0  0  0  0  0  0  0  0  0
  191.4350  170.3930  139.2260 C   0  0  0  0  0  1  0  0  0  0  0  0
  190.3710  171.3570  139.4640 N   0  0  0  0  0  0  0  0  0  0  0  0
  190.2330  172.0270  140.7280 C   0  0  0  0  0  0  0  0  0  0  0  0
  189.9420  173.3670  143.1650 C   0  0  0  0  0  0  0  0  0  0  0  0
  191.9630  172.1310  144.0120 N   0  0  0  0  0  2  0  0  0  0  0  0
  193.3910  171.9430  143.8060 C   0  0  0  0  0  2  0  0  0  0  0  0
  194.1150  173.2010  144.1480 C   0  0  0  0  0  0  0  0  0  0  0  0
  194.7880  176.1940  141.1830 C   0  0  0  0  0  2  0  0  0  0  0  0
  195.5460  175.5190  144.8240 C   0  0  0  0  0  3  0  0  0  0  0  0
  195.1500  175.3030  143.5020 C   0  0  0  0  0  0  0  0  0  0  0  0
  194.6980  174.7380  140.7260 C   0  0  0  0  0  2  0  0  0  0  0  0
  194.5140  173.4240  145.4720 C   0  0  0  0  0  3  0  0  0  0  0  0
  194.1080  173.9170  141.7800 N   0  0  0  0  0  2  0  0  0  0  0  0
  194.4540  174.1340  143.1540 C   0  0  0  0  0  0  0  0  0  0  0  0
  195.2290  174.5780  145.8080 C   0  0  0  0  0  3  0  0  0  0  0  0
  195.4420  176.2700  142.4880 N   0  0  0  0  0  2  0  0  0  0  0  0
  189.7830  174.1860  144.4130 C   0  0  0  0  0  2  0  0  0  0  0  0
  190.3240  177.3220  145.9300 C   0  0  1  0  0  3  0  0  0  0  0  0
  192.1730  176.6370  147.3320 O   0  0  0  0  0  0  0  0  0  0  0  0
  191.4420  176.4390  146.3250 C   0  0  0  0  0  0  0  0  0  0  0  0
  191.6430  175.3500  145.4520 N   0  0  0  0  0  2  0  0  0  0  0  0
  189.8480  176.7020  144.6170 C   0  0  1  0  0  3  0  0  0  0  0  0
  190.0930  177.6730  143.4790 C   0  0  0  0  0  1  0  0  0  0  0  0
  190.6720  175.4250  144.3800 C   0  0  2  0  0  3  0  0  0  0  0  0
  189.1960  177.2470  146.9480 C   0  0  0  0  0  2  0  0  0  0  0  0
  187.9390  176.6900  146.3070 C   0  0  0  0  0  2  0  0  0  0  0  0
  187.0360  177.7290  146.0800 O   0  0  0  0  0  0  0  0  0  0  0  0
  185.5840  179.0750  143.1520 C   0  0  0  0  0  2  0  0  0  0  0  0
  185.8540  177.0990  145.6720 C   0  0  1  0  0  3  0  0  0  0  0  0
  184.1180  178.9880  145.1500 C   0  0  0  0  0  2  0  0  0  0  0  0
  184.7700  178.4120  147.3900 O   0  0  0  0  0  1  0  0  0  0  0  0
  184.6060  177.8940  146.1040 C   0  0  2  0  0  3  0  0  0  0  0  0
  186.5170  177.8850  143.3440 C   0  0  0  0  0  2  0  0  0  0  0  0
  185.8830  176.7690  144.1750 C   0  0  0  0  0  2  0  0  0  0  0  0
  185.2420  179.7530  144.4690 C   0  0  0  0  0  2  0  0  0  0  0  0
  2  6  1  0  0  0  0
  3  1  1  0  0  0  0
  3 10  1  0  0  0  0
  4  8  1  0  0  0  0
  5  3  2  0  0  0  0
  6 10  2  0  0  0  0
  6 11  1  0  0  0  0
  7  8  1  0  0  0  0
  8  9  1  0  0  0  0
  9  5  1  0  0  0  0
  9  2  2  0  0  0  0
 10 23  1  0  0  0  0
 12 11  1  0  0  0  0
 12 13  1  0  0  0  0
 13 18  1  0  0  0  0
 14 22  1  0  0  0  0
 15 21  1  0  0  0  0
 16 15  2  0  0  0  0
 17 14  1  0  0  0  0
 17 19  1  0  0  0  0
 18 21  2  0  0  0  0
 19 20  1  0  0  0  0
 20 16  1  0  0  0  0
 20 13  2  0  0  0  0
 22 16  1  0  0  0  0
 24 26  1  0  0  0  0
 24 31  1  1  0  0  0
 26 25  2  0  0  0  0
 27 26  1  0  0  0  0
 28 29  1  6  0  0  0
 28 24  1  0  0  0  0
 30 23  1  1  0  0  0
 30 28  1  0  0  0  0
 30 27  1  0  0  0  0
 32 31  1  0  0  0  0
 33 32  1  0  0  0  0
 34 39  1  0  0  0  0
 34 41  1  0  0  0  0
 35 33  1  6  0  0  0
 35 38  1  0  0  0  0
 36 38  1  0  0  0  0
 38 37  1  1  0  0  0
 39 40  1  0  0  0  0
 40 35  1  0  0  0  0
 41 36  1  0  0  0  0
M  END
>  <MODEL>
2

>  <REMARK>
 VINA RESULT:      -7.8      1.452      4.652
  Name = 
  9 active torsions:
  status: ('A' for Active; 'I' for Inactive)
    1  A    between atoms: C_1  and  C_34
    2  A    between atoms: C_4  and  C_11
    3  A    between atoms: C_9  and  O_25
    4  A    between atoms: C_9  and  C_34
    5  A    between atoms: C_10  and  O_25
    6  A    between atoms: C_11  and  N_23
    7  A    between atoms: N_23  and  C_24
    8  A    between atoms: C_31  and  C_38
    9  A    between atoms: C_31  and  C_41
                            x       y       z     vdW  Elec       q    Type
                         _______ _______ _______ _____ _____    ______ ____

>  <TORSDO>
F 9

$$$$
=
 OpenBabel11042419003D

 41 45  0  0  1  0  0  0  0  0999 V2000
  187.4420  174.2850  142.4390 N   0  0  0  0  0  1  0  0  0  0  0  0
  190.9410  173.3180  140.3380 C   0  0  0  0  0  3  0  0  0  0  0  0
  188.6420  173.9480  141.7500 C   0  0  0  0  0  0  0  0  0  0  0  0
  188.5270  174.1800  137.5410 C   0  0  0  0  0  1  0  0  0  0  0  0
  188.6590  173.9940  140.3920 N   0  0  0  0  0  0  0  0  0  0  0  0
  190.9670  173.2440  141.7310 C   0  0  0  0  0  0  0  0  0  0  0  0
  190.9040  173.4400  137.4270 C   0  0  0  0  0  1  0  0  0  0  0  0
  189.7390  173.7700  138.2330 N   0  0  0  0  0  0  0  0  0  0  0  0
  189.7720  173.6950  139.6680 C   0  0  0  0  0  0  0  0  0  0  0  0
  189.8000  173.5810  142.4610 C   0  0  0  0  0  0  0  0  0  0  0  0
  192.2040  172.8450  142.3430 N   0  0  0  0  0  2  0  0  0  0  0  0
  193.5220  173.3700  142.0230 C   0  0  0  0  0  2  0  0  0  0  0  0
  193.9730  174.2850  143.1110 C   0  0  0  0  0  0  0  0  0  0  0  0
  196.8160  172.9730  146.0100 C   0  0  0  0  0  2  0  0  0  0  0  0
  194.7380  176.0190  145.1810 C   0  0  0  0  0  3  0  0  0  0  0  0
  195.2070  174.7040  145.1630 C   0  0  0  0  0  0  0  0  0  0  0  0
  195.8930  171.9270  145.3850 C   0  0  0  0  0  2  0  0  0  0  0  0
  193.5080  175.6050  143.1340 C   0  0  0  0  0  3  0  0  0  0  0  0
  195.2650  172.4670  144.1820 N   0  0  0  0  0  2  0  0  0  0  0  0
  194.8090  173.8250  144.1430 C   0  0  0  0  0  0  0  0  0  0  0  0
  193.8870  176.4680  144.1660 C   0  0  0  0  0  3  0  0  0  0  0  0
  196.1010  174.2360  146.1780 N   0  0  0  0  0  2  0  0  0  0  0  0
  189.7740  173.6290  143.9620 C   0  0  0  0  0  2  0  0  0  0  0  0
  189.5640  176.3020  146.2500 C   0  0  1  0  0  3  0  0  0  0  0  0
  190.9660  175.3170  147.9570 O   0  0  0  0  0  0  0  0  0  0  0  0
  190.5870  175.3630  146.7570 C   0  0  0  0  0  0  0  0  0  0  0  0
  191.1330  174.5240  145.7640 N   0  0  0  0  0  2  0  0  0  0  0  0
  189.5550  176.0180  144.7490 C   0  0  1  0  0  3  0  0  0  0  0  0
  190.0420  177.2420  143.9970 C   0  0  0  0  0  1  0  0  0  0  0  0
  190.5210  174.8480  144.4900 C   0  0  2  0  0  3  0  0  0  0  0  0
  188.1950  175.9650  146.8230 C   0  0  0  0  0  2  0  0  0  0  0  0
  187.4810  177.2270  147.2660 C   0  0  0  0  0  2  0  0  0  0  0  0
  187.0090  177.9100  146.1440 O   0  0  0  0  0  0  0  0  0  0  0  0
  185.5750  179.0010  143.1030 C   0  0  0  0  0  2  0  0  0  0  0  0
  185.8420  177.2320  145.7730 C   0  0  1  0  0  3  0  0  0  0  0  0
  184.0860  179.0470  145.0850 C   0  0  0  0  0  2  0  0  0  0  0  0
  184.7170  178.6580  147.3710 O   0  0  0  0  0  1  0  0  0  0  0  0
  184.5770  178.0380  146.1270 C   0  0  2  0  0  3  0  0  0  0  0  0
  186.5230  177.8450  143.3990 C   0  0  0  0  0  2  0  0  0  0  0  0
  185.8950  176.7870  144.3070 C   0  0  0  0  0  2  0  0  0  0  0  0
  185.2070  179.7740  144.3590 C   0  0  0  0  0  2  0  0  0  0  0  0
  2  6  1  0  0  0  0
  3  1  1  0  0  0  0
  3 10  1  0  0  0  0
  4  8  1  0  0  0  0
  5  3  2  0  0  0  0
  6 11  1  0  0  0  0
  6 10  2  0  0  0  0
  7  8  1  0  0  0  0
  8  9  1  0  0  0  0
  9  2  2  0  0  0  0
  9  5  1  0  0  0  0
 10 23  1  0  0  0  0
 12 11  1  0  0  0  0
 12 13  1  0  0  0  0
 13 18  2  0  0  0  0
 13 20  1  0  0  0  0
 14 22  1  0  0  0  0
 16 15  1  0  0  0  0
 16 22  1  0  0  0  0
 17 14  1  0  0  0  0
 18 21  1  0  0  0  0
 19 17  1  0  0  0  0
 20 19  1  0  0  0  0
 20 16  2  0  0  0  0
 21 15  2  0  0  0  0
 24 26  1  0  0  0  0
 24 31  1  1  0  0  0
 26 25  2  0  0  0  0
 27 26  1  0  0  0  0
 28 29  1  6  0  0  0
 28 24  1  0  0  0  0
 30 23  1  1  0  0  0
 30 28  1  0  0  0  0
 30 27  1  0  0  0  0
 31 32  1  0  0  0  0
 33 32  1  0  0  0  0
 34 39  1  0  0  0  0
 34 41  1  0  0  0  0
 35 38  1  0  0  0  0
 35 33  1  6  0  0  0
 36 38  1  0  0  0  0
 38 37  1  1  0  0  0
 39 40  1  0  0  0  0
 40 35  1  0  0  0  0
 41 36  1  0  0  0  0
M  END
>  <MODEL>
3

>  <REMARK>
 VINA RESULT:      -7.8      1.636      5.320
  Name = 
  9 active torsions:
  status: ('A' for Active; 'I' for Inactive)
    1  A    between atoms: C_1  and  C_34
    2  A    between atoms: C_4  and  C_11
    3  A    between atoms: C_9  and  O_25
    4  A    between atoms: C_9  and  C_34
    5  A    between atoms: C_10  and  O_25
    6  A    between atoms: C_11  and  N_23
    7  A    between atoms: N_23  and  C_24
    8  A    between atoms: C_31  and  C_38
    9  A    between atoms: C_31  and  C_41
                            x       y       z     vdW  Elec       q    Type
                         _______ _______ _______ _____ _____    ______ ____

>  <TORSDO>
F 9

$$$$
=
 OpenBabel11042419003D

 41 45  0  0  1  0  0  0  0  0999 V2000
  189.3340  172.9220  144.0910 N   0  0  0  0  0  1  0  0  0  0  0  0
  191.3830  174.2000  140.6610 C   0  0  0  0  0  3  0  0  0  0  0  0
  190.0520  173.3630  142.9420 C   0  0  0  0  0  0  0  0  0  0  0  0
  188.2550  172.6290  139.1990 C   0  0  0  0  0  1  0  0  0  0  0  0
  189.5260  173.1420  141.7090 N   0  0  0  0  0  0  0  0  0  0  0  0
  191.9680  174.4370  141.9050 C   0  0  0  0  0  0  0  0  0  0  0  0
  190.1930  173.6940  138.0500 C   0  0  0  0  0  1  0  0  0  0  0  0
  189.5440  173.2950  139.2900 N   0  0  0  0  0  0  0  0  0  0  0  0
  190.1500  173.5440  140.5690 C   0  0  0  0  0  0  0  0  0  0  0  0
  191.2860  174.0270  143.0770 C   0  0  0  0  0  0  0  0  0  0  0  0
  193.2360  175.1120  141.9150 N   0  0  0  0  0  2  0  0  0  0  0  0
  194.5430  174.4740  141.8900 C   0  0  0  0  0  2  0  0  0  0  0  0
  195.0670  174.3540  143.2810 C   0  0  0  0  0  0  0  0  0  0  0  0
  196.2400  170.5580  144.8380 C   0  0  0  0  0  2  0  0  0  0  0  0
  195.9790  174.1680  145.9280 C   0  0  0  0  0  3  0  0  0  0  0  0
  195.8140  173.0110  145.1640 C   0  0  0  0  0  0  0  0  0  0  0  0
  195.1370  170.5910  143.7800 C   0  0  0  0  0  2  0  0  0  0  0  0
  195.2360  175.5100  144.0530 C   0  0  0  0  0  3  0  0  0  0  0  0
  195.1250  171.8870  143.1070 N   0  0  0  0  0  2  0  0  0  0  0  0
  195.3350  173.0960  143.8470 C   0  0  0  0  0  0  0  0  0  0  0  0
  195.6890  175.4180  145.3720 C   0  0  0  0  0  3  0  0  0  0  0  0
  196.1330  171.7270  145.7090 N   0  0  0  0  0  2  0  0  0  0  0  0
  191.7950  174.3360  144.4560 C   0  0  0  0  0  2  0  0  0  0  0  0
  189.7180  176.7990  145.8880 C   0  0  1  0  0  3  0  0  0  0  0  0
  190.8780  176.9420  148.0060 O   0  0  0  0  0  0  0  0  0  0  0  0
  190.8760  176.6140  146.7910 C   0  0  0  0  0  0  0  0  0  0  0  0
  192.0050  176.0530  146.1600 N   0  0  0  0  0  2  0  0  0  0  0  0
  190.2650  176.3430  144.5360 C   0  0  1  0  0  3  0  0  0  0  0  0
  190.3040  177.5200  143.5820 C   0  0  0  0  0  1  0  0  0  0  0  0
  191.6960  175.8260  144.7620 C   0  0  2  0  0  3  0  0  0  0  0  0
  188.5730  175.8820  146.2910 C   0  0  0  0  0  2  0  0  0  0  0  0
  187.4610  176.6790  146.9460 C   0  0  0  0  0  2  0  0  0  0  0  0
  186.9800  177.6280  146.0420 O   0  0  0  0  0  0  0  0  0  0  0  0
  185.8820  179.0430  142.9950 C   0  0  0  0  0  2  0  0  0  0  0  0
  185.7960  177.0770  145.5350 C   0  0  1  0  0  3  0  0  0  0  0  0
  184.2460  179.0750  144.8590 C   0  0  0  0  0  2  0  0  0  0  0  0
  184.6620  178.4770  147.1490 O   0  0  0  0  0  1  0  0  0  0  0  0
  184.5740  177.9590  145.8550 C   0  0  2  0  0  3  0  0  0  0  0  0
  186.7100  177.7940  143.2720 C   0  0  0  0  0  2  0  0  0  0  0  0
  185.9310  176.7310  144.0480 C   0  0  0  0  0  2  0  0  0  0  0  0
  185.4750  179.7550  144.2750 C   0  0  0  0  0  2  0  0  0  0  0  0
  2  6  1  0  0  0  0
  3 10  1  0  0  0  0
  3  1  1  0  0  0  0
  4  8  1  0  0  0  0
  5  3  2  0  0  0  0
  6 11  1  0  0  0  0
  6 10  2  0  0  0  0
  7  8  1  0  0  0  0
  8  9  1  0  0  0  0
  9  2  2  0  0  0  0
  9  5  1  0  0  0  0
 10 23  1  0  0  0  0
 12 11  1  0  0  0  0
 12 13  1  0  0  0  0
 13 20  2  0  0  0  0
 13 18  1  0  0  0  0
 14 22  1  0  0  0  0
 16 22  1  0  0  0  0
 16 15  2  0  0  0  0
 17 14  1  0  0  0  0
 18 21  2  0  0  0  0
 19 17  1  0  0  0  0
 19 20  1  0  0  0  0
 20 16  1  0  0  0  0
 21 15  1  0  0  0  0
 24 31  1  1  0  0  0
 24 26  1  0  0  0  0
 26 25  2  0  0  0  0
 27 26  1  0  0  0  0
 28 29  1  6  0  0  0
 28 30  1  0  0  0  0
 28 24  1  0  0  0  0
 30 23  1  1  0  0  0
 30 27  1  0  0  0  0
 31 32  1  0  0  0  0
 33 32  1  0  0  0  0
 34 39  1  0  0  0  0
 34 41  1  0  0  0  0
 35 38  1  0  0  0  0
 35 33  1  6  0  0  0
 36 38  1  0  0  0  0
 38 37  1  1  0  0  0
 39 40  1  0  0  0  0
 40 35  1  0  0  0  0
 41 36  1  0  0  0  0
M  END
>  <MODEL>
4

>  <REMARK>
 VINA RESULT:      -7.5      1.363      5.105
  Name = 
  9 active torsions:
  status: ('A' for Active; 'I' for Inactive)
    1  A    between atoms: C_1  and  C_34
    2  A    between atoms: C_4  and  C_11
    3  A    between atoms: C_9  and  O_25
    4  A    between atoms: C_9  and  C_34
    5  A    between atoms: C_10  and  O_25
    6  A    between atoms: C_11  and  N_23
    7  A    between atoms: N_23  and  C_24
    8  A    between atoms: C_31  and  C_38
    9  A    between atoms: C_31  and  C_41
                            x       y       z     vdW  Elec       q    Type
                         _______ _______ _______ _____ _____    ______ ____

>  <TORSDO>
F 9

$$$$
=
 OpenBabel11042419003D

 41 45  0  0  1  0  0  0  0  0999 V2000
  192.3760  169.8580  143.3020 N   0  0  0  0  0  1  0  0  0  0  0  0
  194.8090  173.1930  144.0440 C   0  0  0  0  0  3  0  0  0  0  0  0
  193.1820  171.0080  143.5440 C   0  0  0  0  0  0  0  0  0  0  0  0
  196.7360  170.3930  145.7280 C   0  0  0  0  0  1  0  0  0  0  0  0
  194.3330  170.8700  144.2530 N   0  0  0  0  0  0  0  0  0  0  0  0
  193.6300  173.3850  143.3230 C   0  0  0  0  0  0  0  0  0  0  0  0
  197.2630  172.8240  145.5700 C   0  0  0  0  0  1  0  0  0  0  0  0
  196.3690  171.7190  145.2580 N   0  0  0  0  0  0  0  0  0  0  0  0
  195.1570  171.9210  144.5130 C   0  0  0  0  0  0  0  0  0  0  0  0
  192.8010  172.2690  143.0480 C   0  0  0  0  0  0  0  0  0  0  0  0
  193.3420  174.7210  142.8810 N   0  0  0  0  0  2  0  0  0  0  0  0
  193.6890  175.9460  143.5850 C   0  0  0  0  0  2  0  0  0  0  0  0
  192.4430  176.6530  144.0010 C   0  0  0  0  0  0  0  0  0  0  0  0
  191.1060  176.4950  148.0500 C   0  0  0  0  0  2  0  0  0  0  0  0
  190.0560  177.9410  144.7200 C   0  0  0  0  0  3  0  0  0  0  0  0
  190.7430  177.1690  145.6590 C   0  0  0  0  0  0  0  0  0  0  0  0
  191.8980  175.3040  147.5080 C   0  0  0  0  0  2  0  0  0  0  0  0
  191.7500  177.4300  143.0640 C   0  0  0  0  0  3  0  0  0  0  0  0
  192.5780  175.6760  146.2700 N   0  0  0  0  0  2  0  0  0  0  0  0
  191.9250  176.5040  145.2980 C   0  0  0  0  0  0  0  0  0  0  0  0
  190.5600  178.0700  143.4220 C   0  0  0  0  0  3  0  0  0  0  0  0
  190.2550  177.0500  146.9990 N   0  0  0  0  0  2  0  0  0  0  0  0
  191.5720  172.3700  142.1910 C   0  0  0  0  0  2  0  0  0  0  0  0
  188.5960  174.0970  142.9590 C   0  0  1  0  0  3  0  0  0  0  0  0
  187.1380  172.7780  141.5490 O   0  0  0  0  0  0  0  0  0  0  0  0
  188.2250  172.9000  142.1740 C   0  0  0  0  0  0  0  0  0  0  0  0
  189.1950  171.8770  142.2030 N   0  0  0  0  0  2  0  0  0  0  0  0
  189.9330  173.6950  143.5810 C   0  0  1  0  0  3  0  0  0  0  0  0
  189.7870  173.6150  145.0880 C   0  0  0  0  0  1  0  0  0  0  0  0
  190.3030  172.3060  143.0330 C   0  0  2  0  0  3  0  0  0  0  0  0
  188.8190  175.2910  142.0420 C   0  0  0  0  0  2  0  0  0  0  0  0
  187.5320  176.0760  141.8730 C   0  0  0  0  0  2  0  0  0  0  0  0
  187.3530  176.9150  142.9730 O   0  0  0  0  0  0  0  0  0  0  0  0
  185.3770  179.6940  143.9020 C   0  0  0  0  0  2  0  0  0  0  0  0
  186.0870  176.5890  143.4750 C   0  0  1  0  0  3  0  0  0  0  0  0
  185.7450  177.9860  145.6620 C   0  0  0  0  0  2  0  0  0  0  0  0
  187.2300  176.1000  145.5500 O   0  0  0  0  0  1  0  0  0  0  0  0
  186.0560  176.6330  145.0150 C   0  0  2  0  0  3  0  0  0  0  0  0
  185.4140  178.8860  142.6110 C   0  0  0  0  0  2  0  0  0  0  0  0
  184.9890  177.4320  142.8140 C   0  0  0  0  0  2  0  0  0  0  0  0
  186.3630  179.1700  144.9340 C   0  0  0  0  0  2  0  0  0  0  0  0
  1  3  1  0  0  0  0
  2  9  1  0  0  0  0
  3  5  1  0  0  0  0
  5  9  2  0  0  0  0
  6  2  2  0  0  0  0
  8  7  1  0  0  0  0
  8  4  1  0  0  0  0
  9  8  1  0  0  0  0
 10  6  1  0  0  0  0
 10  3  2  0  0  0  0
 11  6  1  0  0  0  0
 11 12  1  0  0  0  0
 12 13  1  0  0  0  0
 13 20  1  0  0  0  0
 15 16  1  0  0  0  0
 16 22  1  0  0  0  0
 17 14  1  0  0  0  0
 18 21  1  0  0  0  0
 18 13  2  0  0  0  0
 19 17  1  0  0  0  0
 20 16  2  0  0  0  0
 20 19  1  0  0  0  0
 21 15  2  0  0  0  0
 22 14  1  0  0  0  0
 23 10  1  0  0  0  0
 24 31  1  6  0  0  0
 24 28  1  0  0  0  0
 25 26  2  0  0  0  0
 26 27  1  0  0  0  0
 26 24  1  0  0  0  0
 27 30  1  0  0  0  0
 28 29  1  1  0  0  0
 30 23  1  6  0  0  0
 30 28  1  0  0  0  0
 32 31  1  0  0  0  0
 32 33  1  0  0  0  0
 34 41  1  0  0  0  0
 35 33  1  6  0  0  0
 35 38  1  0  0  0  0
 38 37  1  1  0  0  0
 38 36  1  0  0  0  0
 39 40  1  0  0  0  0
 39 34  1  0  0  0  0
 40 35  1  0  0  0  0
 41 36  1  0  0  0  0
M  END
>  <MODEL>
5

>  <REMARK>
 VINA RESULT:      -7.5      1.909      4.832
  Name = 
  9 active torsions:
  status: ('A' for Active; 'I' for Inactive)
    1  A    between atoms: C_1  and  C_34
    2  A    between atoms: C_4  and  C_11
    3  A    between atoms: C_9  and  O_25
    4  A    between atoms: C_9  and  C_34
    5  A    between atoms: C_10  and  O_25
    6  A    between atoms: C_11  and  N_23
    7  A    between atoms: N_23  and  C_24
    8  A    between atoms: C_31  and  C_38
    9  A    between atoms: C_31  and  C_41
                            x       y       z     vdW  Elec       q    Type
                         _______ _______ _______ _____ _____    ______ ____

>  <TORSDO>
F 9

$$$$
=
 OpenBabel11042419003D

 41 45  0  0  1  0  0  0  0  0999 V2000
  195.0980  176.6390  144.5960 N   0  0  0  0  0  1  0  0  0  0  0  0
  194.3050  173.6550  141.7570 C   0  0  0  0  0  3  0  0  0  0  0  0
  194.8050  175.6190  143.6450 C   0  0  0  0  0  0  0  0  0  0  0  0
  197.3620  175.3660  140.3030 C   0  0  0  0  0  1  0  0  0  0  0  0
  195.5890  175.4990  142.5420 N   0  0  0  0  0  0  0  0  0  0  0  0
  193.4650  173.7480  142.8670 C   0  0  0  0  0  0  0  0  0  0  0  0
  196.0300  173.4550  139.4170 C   0  0  0  0  0  1  0  0  0  0  0  0
  196.2410  174.4530  140.4550 N   0  0  0  0  0  0  0  0  0  0  0  0
  195.3740  174.5430  141.5980 C   0  0  0  0  0  0  0  0  0  0  0  0
  193.7240  174.7400  143.8460 C   0  0  0  0  0  0  0  0  0  0  0  0
  192.3880  172.8030  142.9550 N   0  0  0  0  0  2  0  0  0  0  0  0
  191.6010  172.3000  141.8400 C   0  0  0  0  0  2  0  0  0  0  0  0
  190.4000  173.1620  141.6450 C   0  0  0  0  0  0  0  0  0  0  0  0
  188.7000  173.6720  137.7650 C   0  0  0  0  0  2  0  0  0  0  0  0
  188.1840  174.8530  141.3180 C   0  0  0  0  0  3  0  0  0  0  0  0
  188.7860  174.2680  140.2030 C   0  0  0  0  0  0  0  0  0  0  0  0
  190.2020  173.4040  137.8610 C   0  0  0  0  0  2  0  0  0  0  0  0
  189.7910  173.7520  142.7600 C   0  0  0  0  0  3  0  0  0  0  0  0
  190.5370  172.8970  139.1890 N   0  0  0  0  0  2  0  0  0  0  0  0
  189.9100  173.4390  140.3580 C   0  0  0  0  0  0  0  0  0  0  0  0
  188.6880  174.5960  142.5970 C   0  0  0  0  0  3  0  0  0  0  0  0
  188.2660  174.4980  138.8890 N   0  0  0  0  0  2  0  0  0  0  0  0
  192.9330  174.8420  145.1190 C   0  0  0  0  0  2  0  0  0  0  0  0
  190.1080  176.7650  145.9830 C   0  0  1  0  0  3  0  0  0  0  0  0
  190.6990  177.0970  148.3050 O   0  0  0  0  0  0  0  0  0  0  0  0
  191.0420  176.8080  147.1290 C   0  0  0  0  0  0  0  0  0  0  0  0
  192.3790  176.5180  146.7850 N   0  0  0  0  0  2  0  0  0  0  0  0
  191.0320  176.4720  144.8020 C   0  0  1  0  0  3  0  0  0  0  0  0
  191.0340  177.6560  143.8540 C   0  0  0  0  0  1  0  0  0  0  0  0
  192.4510  176.2670  145.3590 C   0  0  2  0  0  3  0  0  0  0  0  0
  189.1250  175.6140  146.1360 C   0  0  0  0  0  2  0  0  0  0  0  0
  187.8830  176.0730  146.8760 C   0  0  0  0  0  2  0  0  0  0  0  0
  187.3450  177.1860  146.2290 O   0  0  0  0  0  0  0  0  0  0  0  0
  186.0450  178.9290  143.4420 C   0  0  0  0  0  2  0  0  0  0  0  0
  186.0580  176.7920  145.8420 C   0  0  1  0  0  3  0  0  0  0  0  0
  184.6570  178.9770  145.4970 C   0  0  0  0  0  2  0  0  0  0  0  0
  185.2780  178.1680  147.6730 O   0  0  0  0  0  1  0  0  0  0  0  0
  184.9820  177.7610  146.3700 C   0  0  2  0  0  3  0  0  0  0  0  0
  186.7640  177.5880  143.5310 C   0  0  0  0  0  2  0  0  0  0  0  0
  185.9770  176.5500  144.3310 C   0  0  0  0  0  2  0  0  0  0  0  0
  185.8720  179.5770  144.8060 C   0  0  0  0  0  2  0  0  0  0  0  0
  2  6  1  0  0  0  0
  3 10  1  0  0  0  0
  3  1  1  0  0  0  0
  4  8  1  0  0  0  0
  5  3  2  0  0  0  0
  6 11  1  0  0  0  0
  6 10  2  0  0  0  0
  7  8  1  0  0  0  0
  8  9  1  0  0  0  0
  9  2  2  0  0  0  0
  9  5  1  0  0  0  0
 10 23  1  0  0  0  0
 12 11  1  0  0  0  0
 13 12  1  0  0  0  0
 13 18  1  0  0  0  0
 14 17  1  0  0  0  0
 14 22  1  0  0  0  0
 15 21  1  0  0  0  0
 16 20  1  0  0  0  0
 16 15  2  0  0  0  0
 17 19  1  0  0  0  0
 19 20  1  0  0  0  0
 20 13  2  0  0  0  0
 21 18  2  0  0  0  0
 22 16  1  0  0  0  0
 24 31  1  1  0  0  0
 24 26  1  0  0  0  0
 26 25  2  0  0  0  0
 27 26  1  0  0  0  0
 28 29  1  6  0  0  0
 28 30  1  0  0  0  0
 28 24  1  0  0  0  0
 30 23  1  1  0  0  0
 30 27  1  0  0  0  0
 31 32  1  0  0  0  0
 33 32  1  0  0  0  0
 34 39  1  0  0  0  0
 34 41  1  0  0  0  0
 35 33  1  6  0  0  0
 35 38  1  0  0  0  0
 36 38  1  0  0  0  0
 38 37  1  1  0  0  0
 39 40  1  0  0  0  0
 40 35  1  0  0  0  0
 41 36  1  0  0  0  0
M  END
>  <MODEL>
6

>  <REMARK>
 VINA RESULT:      -7.4      1.838      2.460
  Name = 
  9 active torsions:
  status: ('A' for Active; 'I' for Inactive)
    1  A    between atoms: C_1  and  C_34
    2  A    between atoms: C_4  and  C_11
    3  A    between atoms: C_9  and  O_25
    4  A    between atoms: C_9  and  C_34
    5  A    between atoms: C_10  and  O_25
    6  A    between atoms: C_11  and  N_23
    7  A    between atoms: N_23  and  C_24
    8  A    between atoms: C_31  and  C_38
    9  A    between atoms: C_31  and  C_41
                            x       y       z     vdW  Elec       q    Type
                         _______ _______ _______ _____ _____    ______ ____

>  <TORSDO>
F 9

$$$$
=
 OpenBabel11042419003D

 41 45  0  0  1  0  0  0  0  0999 V2000
  195.4220  174.7290  145.7870 N   0  0  0  0  0  1  0  0  0  0  0  0
  193.8720  171.0050  144.6370 C   0  0  0  0  0  3  0  0  0  0  0  0
  194.8720  173.4770  145.3890 C   0  0  0  0  0  0  0  0  0  0  0  0
  197.4950  170.1760  145.3960 C   0  0  0  0  0  1  0  0  0  0  0  0
  195.6740  172.3810  145.3610 N   0  0  0  0  0  0  0  0  0  0  0  0
  193.0130  172.1040  144.6380 C   0  0  0  0  0  0  0  0  0  0  0  0
  195.6520  168.6980  144.6030 C   0  0  0  0  0  1  0  0  0  0  0  0
  196.1040  170.0230  145.0000 N   0  0  0  0  0  0  0  0  0  0  0  0
  195.2150  171.1520  145.0010 C   0  0  0  0  0  0  0  0  0  0  0  0
  193.5130  173.3690  145.0370 C   0  0  0  0  0  0  0  0  0  0  0  0
  191.6510  171.8720  144.2470 N   0  0  0  0  0  2  0  0  0  0  0  0
  191.2070  170.9790  143.1890 C   0  0  0  0  0  2  0  0  0  0  0  0
  190.1860  171.6680  142.3480 C   0  0  0  0  0  0  0  0  0  0  0  0
  190.2460  171.2700  138.0990 C   0  0  0  0  0  2  0  0  0  0  0  0
  188.2880  173.0410  140.8040 C   0  0  0  0  0  3  0  0  0  0  0  0
  189.3050  172.3180  140.1780 C   0  0  0  0  0  0  0  0  0  0  0  0
  191.5760  171.1730  138.8490 C   0  0  0  0  0  2  0  0  0  0  0  0
  189.1620  172.3930  142.9690 C   0  0  0  0  0  3  0  0  0  0  0  0
  191.3340  170.9600  140.2730 N   0  0  0  0  0  2  0  0  0  0  0  0
  190.2720  171.6480  140.9450 C   0  0  0  0  0  0  0  0  0  0  0  0
  188.2180  173.0790  142.2000 C   0  0  0  0  0  3  0  0  0  0  0  0
  189.3750  172.2460  138.7500 N   0  0  0  0  0  2  0  0  0  0  0  0
  192.6330  174.5790  145.1660 C   0  0  0  0  0  2  0  0  0  0  0  0
  190.6580  176.5260  142.9900 C   0  0  1  0  0  3  0  0  0  0  0  0
  191.2940  178.6800  143.8900 O   0  0  0  0  0  0  0  0  0  0  0  0
  191.5300  177.4510  143.7450 C   0  0  0  0  0  0  0  0  0  0  0  0
  192.6830  176.8380  144.2800 N   0  0  0  0  0  2  0  0  0  0  0  0
  191.4360  175.2120  143.0350 C   0  0  1  0  0  3  0  0  0  0  0  0
  191.8700  174.8300  141.6330 C   0  0  0  0  0  1  0  0  0  0  0  0
  192.6830  175.4380  143.9080 C   0  0  2  0  0  3  0  0  0  0  0  0
  189.3290  176.3370  143.7060 C   0  0  0  0  0  2  0  0  0  0  0  0
  188.3360  177.3970  143.2680 C   0  0  0  0  0  2  0  0  0  0  0  0
  187.6950  177.9210  144.3910 O   0  0  0  0  0  0  0  0  0  0  0  0
  184.4480  178.7570  145.5110 C   0  0  0  0  0  2  0  0  0  0  0  0
  186.9670  176.8500  144.9250 C   0  0  1  0  0  3  0  0  0  0  0  0
  185.9280  177.6750  147.1810 C   0  0  0  0  0  2  0  0  0  0  0  0
  188.2700  177.1960  146.9330 O   0  0  0  0  0  1  0  0  0  0  0  0
  187.0010  176.8490  146.4650 C   0  0  2  0  0  3  0  0  0  0  0  0
  184.9250  178.1770  144.1860 C   0  0  0  0  0  2  0  0  0  0  0  0
  185.5500  176.7900  144.3420 C   0  0  0  0  0  2  0  0  0  0  0  0
  185.5960  178.9850  146.4820 C   0  0  0  0  0  2  0  0  0  0  0  0
  2  6  2  0  0  0  0
  2  9  1  0  0  0  0
  3  1  1  0  0  0  0
  5  3  1  0  0  0  0
  6 10  1  0  0  0  0
  7  8  1  0  0  0  0
  8  9  1  0  0  0  0
  8  4  1  0  0  0  0
  9  5  2  0  0  0  0
 10 23  1  0  0  0  0
 10  3  2  0  0  0  0
 11  6  1  0  0  0  0
 12 11  1  0  0  0  0
 13 18  1  0  0  0  0
 13 12  1  0  0  0  0
 14 22  1  0  0  0  0
 14 17  1  0  0  0  0
 15 21  1  0  0  0  0
 16 15  2  0  0  0  0
 16 20  1  0  0  0  0
 17 19  1  0  0  0  0
 19 20  1  0  0  0  0
 20 13  2  0  0  0  0
 21 18  2  0  0  0  0
 22 16  1  0  0  0  0
 24 28  1  0  0  0  0
 24 31  1  1  0  0  0
 24 26  1  0  0  0  0
 26 25  2  0  0  0  0
 26 27  1  0  0  0  0
 28 29  1  6  0  0  0
 28 30  1  0  0  0  0
 30 27  1  0  0  0  0
 30 23  1  1  0  0  0
 32 31  1  0  0  0  0
 32 33  1  0  0  0  0
 34 41  1  0  0  0  0
 35 33  1  1  0  0  0
 35 38  1  0  0  0  0
 38 37  1  6  0  0  0
 38 36  1  0  0  0  0
 39 40  1  0  0  0  0
 39 34  1  0  0  0  0
 40 35  1  0  0  0  0
 41 36  1  0  0  0  0
M  END
>  <MODEL>
7

>  <REMARK>
 VINA RESULT:      -7.2      1.580      2.178
  Name = 
  9 active torsions:
  status: ('A' for Active; 'I' for Inactive)
    1  A    between atoms: C_1  and  C_34
    2  A    between atoms: C_4  and  C_11
    3  A    between atoms: C_9  and  O_25
    4  A    between atoms: C_9  and  C_34
    5  A    between atoms: C_10  and  O_25
    6  A    between atoms: C_11  and  N_23
    7  A    between atoms: N_23  and  C_24
    8  A    between atoms: C_31  and  C_38
    9  A    between atoms: C_31  and  C_41
                            x       y       z     vdW  Elec       q    Type
                         _______ _______ _______ _____ _____    ______ ____

>  <TORSDO>
F 9

$$$$
=
 OpenBabel11042419003D

 41 45  0  0  1  0  0  0  0  0999 V2000
  193.0900  173.6550  139.6230 N   0  0  0  0  0  1  0  0  0  0  0  0
  194.6840  171.0460  142.4950 C   0  0  0  0  0  3  0  0  0  0  0  0
  193.6120  172.7780  140.6180 C   0  0  0  0  0  0  0  0  0  0  0  0
  196.4930  169.9780  139.3370 C   0  0  0  0  0  1  0  0  0  0  0  0
  194.5350  171.8470  140.2590 N   0  0  0  0  0  0  0  0  0  0  0  0
  193.7290  171.9760  142.9080 C   0  0  0  0  0  0  0  0  0  0  0  0
  196.6600  169.0770  141.6540 C   0  0  0  0  0  1  0  0  0  0  0  0
  196.0650  170.0260  140.7260 N   0  0  0  0  0  0  0  0  0  0  0  0
  195.0840  170.9850  141.1560 C   0  0  0  0  0  0  0  0  0  0  0  0
  193.1890  172.8770  141.9560 C   0  0  0  0  0  0  0  0  0  0  0  0
  193.3690  171.9720  144.2980 N   0  0  0  0  0  2  0  0  0  0  0  0
  194.1650  172.5130  145.3880 C   0  0  0  0  0  2  0  0  0  0  0  0
  194.0040  173.9940  145.4380 C   0  0  0  0  0  0  0  0  0  0  0  0
  196.6790  176.5420  143.3010 C   0  0  0  0  0  2  0  0  0  0  0  0
  193.7050  176.7790  145.6210 C   0  0  0  0  0  3  0  0  0  0  0  0
  194.7840  176.2370  144.9200 C   0  0  0  0  0  0  0  0  0  0  0  0
  197.2100  175.1970  143.7970 C   0  0  0  0  0  2  0  0  0  0  0  0
  192.9240  174.5440  146.1390 C   0  0  0  0  0  3  0  0  0  0  0  0
  196.0990  174.3220  144.1630 N   0  0  0  0  0  2  0  0  0  0  0  0
  194.9520  174.8450  144.8450 C   0  0  0  0  0  0  0  0  0  0  0  0
  192.7750  175.9310  146.2320 C   0  0  0  0  0  3  0  0  0  0  0  0
  195.7280  177.0910  144.2660 N   0  0  0  0  0  2  0  0  0  0  0  0
  192.2370  173.9750  142.3360 C   0  0  0  0  0  2  0  0  0  0  0  0
  189.0440  174.7060  143.6380 C   0  0  1  0  0  3  0  0  0  0  0  0
  188.0930  175.5530  141.5810 O   0  0  0  0  0  0  0  0  0  0  0  0
  188.9740  174.8730  142.1700 C   0  0  0  0  0  0  0  0  0  0  0  0
  189.9780  174.1730  141.4700 N   0  0  0  0  0  2  0  0  0  0  0  0
  190.2060  173.7300  143.8150 C   0  0  1  0  0  3  0  0  0  0  0  0
  189.6900  172.4280  144.3960 C   0  0  0  0  0  1  0  0  0  0  0  0
  190.8050  173.4610  142.4240 C   0  0  2  0  0  3  0  0  0  0  0  0
  189.4010  176.0240  144.3100 C   0  0  0  0  0  2  0  0  0  0  0  0
  188.6120  176.1950  145.5940 C   0  0  0  0  0  2  0  0  0  0  0  0
  187.7480  177.2830  145.4640 O   0  0  0  0  0  0  0  0  0  0  0  0
  185.3790  179.3890  143.8990 C   0  0  0  0  0  2  0  0  0  0  0  0
  186.4760  176.7170  145.3070 C   0  0  1  0  0  3  0  0  0  0  0  0
  184.7380  178.4960  146.1220 C   0  0  0  0  0  2  0  0  0  0  0  0
  186.1390  177.2660  147.6390 O   0  0  0  0  0  1  0  0  0  0  0  0
  185.5000  177.1970  146.3990 C   0  0  2  0  0  3  0  0  0  0  0  0
  186.2750  178.2990  143.3250 C   0  0  0  0  0  2  0  0  0  0  0  0
  185.9470  176.9130  143.8820 C   0  0  0  0  0  2  0  0  0  0  0  0
  185.5640  179.5490  145.4000 C   0  0  0  0  0  2  0  0  0  0  0  0
  1  3  1  0  0  0  0
  2  6  1  0  0  0  0
  3 10  1  0  0  0  0
  4  8  1  0  0  0  0
  5  3  2  0  0  0  0
  5  9  1  0  0  0  0
  6 11  1  0  0  0  0
  8  9  1  0  0  0  0
  8  7  1  0  0  0  0
  9  2  2  0  0  0  0
 10 23  1  0  0  0  0
 10  6  2  0  0  0  0
 11 12  1  0  0  0  0
 12 13  1  0  0  0  0
 13 18  1  0  0  0  0
 14 17  1  0  0  0  0
 14 22  1  0  0  0  0
 15 21  1  0  0  0  0
 16 15  2  0  0  0  0
 17 19  1  0  0  0  0
 18 21  2  0  0  0  0
 19 20  1  0  0  0  0
 20 16  1  0  0  0  0
 20 13  2  0  0  0  0
 22 16  1  0  0  0  0
 24 28  1  0  0  0  0
 24 31  1  1  0  0  0
 25 26  2  0  0  0  0
 26 24  1  0  0  0  0
 27 26  1  0  0  0  0
 27 30  1  0  0  0  0
 28 29  1  6  0  0  0
 30 23  1  1  0  0  0
 30 28  1  0  0  0  0
 31 32  1  0  0  0  0
 33 32  1  0  0  0  0
 34 41  1  0  0  0  0
 35 33  1  6  0  0  0
 35 38  1  0  0  0  0
 36 38  1  0  0  0  0
 38 37  1  1  0  0  0
 39 40  1  0  0  0  0
 39 34  1  0  0  0  0
 40 35  1  0  0  0  0
 41 36  1  0  0  0  0
M  END
>  <MODEL>
8

>  <REMARK>
 VINA RESULT:      -7.2      2.505      4.824
  Name = 
  9 active torsions:
  status: ('A' for Active; 'I' for Inactive)
    1  A    between atoms: C_1  and  C_34
    2  A    between atoms: C_4  and  C_11
    3  A    between atoms: C_9  and  O_25
    4  A    between atoms: C_9  and  C_34
    5  A    between atoms: C_10  and  O_25
    6  A    between atoms: C_11  and  N_23
    7  A    between atoms: N_23  and  C_24
    8  A    between atoms: C_31  and  C_38
    9  A    between atoms: C_31  and  C_41
                            x       y       z     vdW  Elec       q    Type
                         _______ _______ _______ _____ _____    ______ ____

>  <TORSDO>
F 9

$$$$
=
 OpenBabel11042419003D

 41 45  0  0  1  0  0  0  0  0999 V2000
  187.9210  174.0060  142.0740 N   0  0  0  0  0  1  0  0  0  0  0  0
  191.8330  173.3550  140.7050 C   0  0  0  0  0  3  0  0  0  0  0  0
  189.2600  173.7980  141.6320 C   0  0  0  0  0  0  0  0  0  0  0  0
  189.7740  171.2650  138.3010 C   0  0  0  0  0  1  0  0  0  0  0  0
  189.4860  172.9820  140.5700 N   0  0  0  0  0  0  0  0  0  0  0  0
  191.6510  174.1920  141.8070 C   0  0  0  0  0  0  0  0  0  0  0  0
  192.2410  171.5930  138.4210 C   0  0  0  0  0  1  0  0  0  0  0  0
  190.9180  171.8820  138.9530 N   0  0  0  0  0  0  0  0  0  0  0  0
  190.7350  172.7460  140.0870 C   0  0  0  0  0  0  0  0  0  0  0  0
  190.3360  174.4370  142.2770 C   0  0  0  0  0  0  0  0  0  0  0  0
  192.8270  174.7750  142.3880 N   0  0  0  0  0  2  0  0  0  0  0  0
  193.4250  176.0460  142.0110 C   0  0  0  0  0  2  0  0  0  0  0  0
  194.9090  175.9560  142.1270 C   0  0  0  0  0  0  0  0  0  0  0  0
  197.3200  175.2910  138.6700 C   0  0  0  0  0  2  0  0  0  0  0  0
  197.6910  175.7210  142.4070 C   0  0  0  0  0  3  0  0  0  0  0  0
  197.0950  175.5180  141.1600 C   0  0  0  0  0  0  0  0  0  0  0  0
  195.9010  174.7220  138.6760 C   0  0  0  0  0  2  0  0  0  0  0  0
  195.5130  176.1600  143.3740 C   0  0  0  0  0  3  0  0  0  0  0  0
  195.1160  175.3440  139.7390 N   0  0  0  0  0  2  0  0  0  0  0  0
  195.7010  175.6110  141.0200 C   0  0  0  0  0  0  0  0  0  0  0  0
  196.8990  176.0410  143.5140 C   0  0  0  0  0  3  0  0  0  0  0  0
  197.8950  175.2180  140.0120 N   0  0  0  0  0  2  0  0  0  0  0  0
  190.0450  175.4040  143.3880 C   0  0  0  0  0  2  0  0  0  0  0  0
  190.3820  176.2130  146.8020 C   0  0  1  0  0  3  0  0  0  0  0  0
  188.8470  174.5400  147.6370 O   0  0  0  0  0  0  0  0  0  0  0  0
  189.5970  174.9620  146.7180 C   0  0  0  0  0  0  0  0  0  0  0  0
  189.7800  174.2560  145.5110 N   0  0  0  0  0  2  0  0  0  0  0  0
  191.1770  176.2040  145.4980 C   0  0  1  0  0  3  0  0  0  0  0  0
  192.6570  176.0810  145.8060 C   0  0  0  0  0  1  0  0  0  0  0  0
  190.7250  174.9790  144.6850 C   0  0  2  0  0  3  0  0  0  0  0  0
  189.4620  177.4240  146.8110 C   0  0  0  0  0  2  0  0  0  0  0  0
  188.0140  176.9890  146.9330 C   0  0  0  0  0  2  0  0  0  0  0  0
  187.1960  177.9190  146.2900 O   0  0  0  0  0  0  0  0  0  0  0  0
  186.2170  179.0150  143.0750 C   0  0  0  0  0  2  0  0  0  0  0  0
  186.1800  177.1580  145.6970 C   0  0  1  0  0  3  0  0  0  0  0  0
  184.4070  178.8410  144.7610 C   0  0  0  0  0  2  0  0  0  0  0  0
  184.6650  178.4070  147.1110 O   0  0  0  0  0  1  0  0  0  0  0  0
  184.8030  177.8340  145.8450 C   0  0  2  0  0  3  0  0  0  0  0  0
  187.2030  177.9340  143.5010 C   0  0  0  0  0  2  0  0  0  0  0  0
  186.5300  176.7850  144.2520 C   0  0  0  0  0  2  0  0  0  0  0  0
  185.5640  179.6950  144.2670 C   0  0  0  0  0  2  0  0  0  0  0  0
  2  6  1  0  0  0  0
  3  1  1  0  0  0  0
  3 10  1  0  0  0  0
  4  8  1  0  0  0  0
  5  3  2  0  0  0  0
  6 10  2  0  0  0  0
  6 11  1  0  0  0  0
  7  8  1  0  0  0  0
  8  9  1  0  0  0  0
  9  5  1  0  0  0  0
  9  2  2  0  0  0  0
 10 23  1  0  0  0  0
 12 13  1  0  0  0  0
 12 11  1  0  0  0  0
 13 18  1  0  0  0  0
 14 17  1  0  0  0  0
 14 22  1  0  0  0  0
 15 21  1  0  0  0  0
 16 15  2  0  0  0  0
 17 19  1  0  0  0  0
 18 21  2  0  0  0  0
 19 20  1  0  0  0  0
 20 16  1  0  0  0  0
 20 13  2  0  0  0  0
 22 16  1  0  0  0  0
 24 31  1  6  0  0  0
 26 24  1  0  0  0  0
 26 25  2  0  0  0  0
 27 26  1  0  0  0  0
 28 29  1  1  0  0  0
 28 24  1  0  0  0  0
 30 23  1  6  0  0  0
 30 28  1  0  0  0  0
 30 27  1  0  0  0  0
 31 32  1  0  0  0  0
 33 32  1  0  0  0  0
 34 39  1  0  0  0  0
 34 41  1  0  0  0  0
 35 38  1  0  0  0  0
 35 33  1  6  0  0  0
 36 38  1  0  0  0  0
 38 37  1  1  0  0  0
 39 40  1  0  0  0  0
 40 35  1  0  0  0  0
 41 36  1  0  0  0  0
M  END
>  <MODEL>
9

>  <REMARK>
 VINA RESULT:      -7.2      2.357      5.252
  Name = 
  9 active torsions:
  status: ('A' for Active; 'I' for Inactive)
    1  A    between atoms: C_1  and  C_34
    2  A    between atoms: C_4  and  C_11
    3  A    between atoms: C_9  and  O_25
    4  A    between atoms: C_9  and  C_34
    5  A    between atoms: C_10  and  O_25
    6  A    between atoms: C_11  and  N_23
    7  A    between atoms: N_23  and  C_24
    8  A    between atoms: C_31  and  C_38
    9  A    between atoms: C_31  and  C_41
                            x       y       z     vdW  Elec       q    Type
                         _______ _______ _______ _____ _____    ______ ____

>  <TORSDO>
F 9

$$$$
