=
 OpenBabel11042417073D

 44 47  0  0  1  0  0  0  0  0999 V2000
  193.6730  173.5230  141.3320 C   0  0  0  0  0  0  0  0  0  0  0  0
  197.0770  175.2920  143.2150 C   0  0  0  0  0  3  0  0  0  0  0  0
  197.4380  175.1890  141.8300 N   0  0  0  0  0  0  0  0  0  0  0  0
  194.8040  173.1980  140.6150 O   0  0  0  0  0  0  0  0  0  0  0  0
  191.6800  174.4400  142.0110 C   0  0  0  0  0  0  0  0  0  0  0  0
  195.3730  173.6810  142.8290 N   0  0  0  0  0  0  0  0  0  0  0  0
  196.9310  174.3090  141.0130 C   0  0  0  0  0  0  0  0  0  0  0  0
  192.3820  173.8550  140.9440 C   0  0  0  0  0  0  0  0  0  0  0  0
  191.8760  173.7370  139.5470 C   0  0  0  0  0  1  0  0  0  0  0  0
  197.3860  174.2940  139.6570 N   0  0  0  0  0  2  0  0  0  0  0  0
  192.7110  174.5400  143.3770 S   0  0  0  0  0  0  0  0  0  0  0  0
  196.0840  174.5600  143.7140 C   0  0  0  0  0  0  0  0  0  0  0  0
  193.9720  173.7390  142.6110 C   0  0  0  0  0  0  0  0  0  0  0  0
  195.9310  173.2810  141.5120 C   0  0  2  0  0  3  0  0  0  0  0  0
  190.0770  176.2810  142.6700 C   0  0  0  0  0  2  0  0  0  0  0  0
  190.2670  174.9430  141.9330 C   0  0  0  0  0  3  0  0  0  0  0  0
  187.8330  174.3640  142.3670 C   0  0  0  0  0  2  0  0  0  0  0  0
  188.6330  176.4800  143.1430 C   0  0  0  0  0  2  0  0  0  0  0  0
  189.2920  173.8830  142.4480 C   0  0  0  0  0  2  0  0  0  0  0  0
  187.7080  175.8210  142.2170 N   0  0  0  0  0  0  0  0  0  0  0  0
  186.3540  176.1620  142.6290 C   0  0  0  0  0  2  0  0  0  0  0  0
  185.4080  178.5170  143.0110 N   0  0  0  0  0  2  0  0  0  0  0  0
  185.2610  178.4550  144.4380 C   0  0  0  0  0  0  0  0  0  0  0  0
  185.9780  177.5270  142.1430 C   0  0  0  0  0  0  0  0  0  0  0  0
  186.1110  177.7960  140.9190 O   0  0  0  0  0  0  0  0  0  0  0  0
  184.5930  179.3920  145.0320 N   0  0  0  0  0  2  0  0  0  0  0  0
  187.1750  177.8750  145.9140 C   0  0  0  0  0  1  0  0  0  0  0  0
  185.9060  177.3750  145.2520 C   0  0  0  0  0  3  0  0  0  0  0  0
  184.9510  176.8350  146.3000 C   0  0  0  0  0  1  0  0  0  0  0  0
  195.1620  175.6780  145.6750 C   0  0  0  0  0  0  0  0  0  0  0  0
  194.8520  177.9850  145.8680 O   0  0  0  0  0  1  0  0  0  0  0  0
  195.7800  174.6550  145.1480 C   0  0  0  0  0  3  0  0  0  0  0  0
  194.5320  176.6800  146.2220 C   0  0  0  0  0  0  0  0  0  0  0  0
  193.4500  176.4210  147.2110 C   0  0  0  0  0  2  0  0  0  0  0  0
  192.6640  175.2720  146.7900 N   0  0  0  0  0  2  0  0  0  0  0  0
  191.4270  175.3140  147.5510 C   0  0  0  0  0  2  0  0  0  0  0  0
  189.0760  175.5020  147.3710 F   0  0  0  0  0  0  0  0  0  0  0  0
  190.2410  175.5450  146.6290 C   0  0  0  0  0  0  0  0  0  0  0  0
  190.3480  176.7820  146.0210 F   0  0  0  0  0  0  0  0  0  0  0  0
  190.1980  174.5580  145.6610 F   0  0  0  0  0  0  0  0  0  0  0  0
  197.0440  173.2450  138.7100 C   0  0  0  0  0  2  0  0  0  0  0  0
  196.6720  173.8680  137.3790 C   0  0  0  0  0  2  0  0  0  0  0  0
  197.1630  175.8530  135.9860 C   0  0  0  0  0  1  0  0  0  0  0  0
  197.0050  175.3440  137.4050 C   0  0  0  0  0  2  0  0  0  0  0  0
  1 13  2  0  0  0  0
  2 12  2  0  0  0  0
  3  2  1  0  0  0  0
  4  1  1  0  0  0  0
  5 11  1  0  0  0  0
  6 12  1  0  0  0  0
  7 14  1  0  0  0  0
  7  3  2  0  0  0  0
  8  1  1  0  0  0  0
  8  5  2  0  0  0  0
  9  8  1  0  0  0  0
 10  7  1  0  0  0  0
 12 32  1  0  0  0  0
 13  6  1  0  0  0  0
 13 11  1  0  0  0  0
 14  4  1  6  0  0  0
 14  6  1  0  0  0  0
 15 18  1  0  0  0  0
 16  5  1  0  0  0  0
 16 19  1  0  0  0  0
 16 15  1  0  0  0  0
 17 19  1  0  0  0  0
 20 17  1  0  0  0  0
 20 21  1  0  0  0  0
 20 18  1  0  0  0  0
 22 23  1  0  0  0  0
 23 26  2  0  0  0  0
 23 28  1  0  0  0  0
 24 21  1  0  0  0  0
 24 22  1  0  0  0  0
 25 24  2  0  0  0  0
 28 27  1  0  0  0  0
 28 29  1  0  0  0  0
 30 33  2  0  0  0  0
 31 33  1  0  0  0  0
 32 30  2  0  0  0  0
 33 34  1  0  0  0  0
 35 34  1  0  0  0  0
 35 36  1  0  0  0  0
 38 37  1  0  0  0  0
 38 36  1  0  0  0  0
 39 38  1  0  0  0  0
 40 38  1  0  0  0  0
 41 10  1  0  0  0  0
 42 44  1  0  0  0  0
 42 41  1  0  0  0  0
 43 44  1  0  0  0  0
M  END
>  <MODEL>
1

>  <REMARK>
 VINA RESULT:      -6.7      0.000      0.000
  Name = 
  12 active torsions:
  status: ('A' for Active; 'I' for Inactive)
    1  A    between atoms: N_4  and  C_19
    2  A    between atoms: N_4  and  C_26
    3  A    between atoms: C_8  and  N_30
    4  A    between atoms: C_8  and  C_42
    5  A    between atoms: C_10  and  C_26
    6  A    between atoms: C_12  and  C_32
    7  A    between atoms: C_15  and  C_24
    8  A    between atoms: C_17  and  C_20
    9  A    between atoms: C_17  and  N_44
   10  A    between atoms: C_19  and  C_41
   11  A    between atoms: C_22  and  C_42
   12  A    between atoms: C_31  and  C_38
                            x       y       z     vdW  Elec       q    Type
                         _______ _______ _______ _____ _____    ______ ____

>  <TORSDO>
F 12

$$$$
=
 OpenBabel11042417073D

 44 47  0  0  1  0  0  0  0  0999 V2000
  190.6670  172.3960  141.7640 C   0  0  0  0  0  0  0  0  0  0  0  0
  194.5720  173.1830  140.2140 C   0  0  0  0  0  3  0  0  0  0  0  0
  193.7700  172.8980  139.0580 N   0  0  0  0  0  0  0  0  0  0  0  0
  190.8290  171.7100  140.5790 O   0  0  0  0  0  0  0  0  0  0  0  0
  190.0070  173.9000  143.3690 C   0  0  0  0  0  0  0  0  0  0  0  0
  192.9130  172.1290  141.5500 N   0  0  0  0  0  0  0  0  0  0  0  0
  192.6950  172.1620  139.0860 C   0  0  0  0  0  0  0  0  0  0  0  0
  189.5880  173.0730  142.3130 C   0  0  0  0  0  0  0  0  0  0  0  0
  188.2060  173.0300  141.7560 C   0  0  0  0  0  1  0  0  0  0  0  0
  191.9900  171.9360  137.8620 N   0  0  0  0  0  2  0  0  0  0  0  0
  191.7070  173.7680  143.5460 S   0  0  0  0  0  0  0  0  0  0  0  0
  194.1710  172.8070  141.4260 C   0  0  0  0  0  0  0  0  0  0  0  0
  191.8420  172.5870  142.3610 C   0  0  0  0  0  0  0  0  0  0  0  0
  192.2420  171.5070  140.3790 C   0  0  2  0  0  3  0  0  0  0  0  0
  189.0740  176.2350  143.6300 C   0  0  0  0  0  2  0  0  0  0  0  0
  189.1030  174.7940  144.1680 C   0  0  0  0  0  3  0  0  0  0  0  0
  188.5720  175.6580  146.4960 C   0  0  0  0  0  2  0  0  0  0  0  0
  188.7160  177.2510  144.7190 C   0  0  0  0  0  2  0  0  0  0  0  0
  189.4910  174.7610  145.6470 C   0  0  0  0  0  2  0  0  0  0  0  0
  187.8180  176.6380  145.7010 N   0  0  0  0  0  0  0  0  0  0  0  0
  187.3960  177.6800  146.6260 C   0  0  0  0  0  2  0  0  0  0  0  0
  184.8380  177.7780  146.8140 N   0  0  0  0  0  2  0  0  0  0  0  0
  184.5660  178.4940  145.5990 C   0  0  0  0  0  0  0  0  0  0  0  0
  186.1070  177.3090  147.2910 C   0  0  0  0  0  0  0  0  0  0  0  0
  186.1420  176.6110  148.3400 O   0  0  0  0  0  0  0  0  0  0  0  0
  183.3720  178.9550  145.4080 N   0  0  0  0  0  2  0  0  0  0  0  0
  185.3440  177.7400  143.3620 C   0  0  0  0  0  1  0  0  0  0  0  0
  185.6060  178.6660  144.5340 C   0  0  0  0  0  3  0  0  0  0  0  0
  185.6690  180.1040  144.0560 C   0  0  0  0  0  1  0  0  0  0  0  0
  195.3080  174.2750  143.0080 C   0  0  0  0  0  0  0  0  0  0  0  0
  195.8630  176.5060  142.5900 O   0  0  0  0  0  1  0  0  0  0  0  0
  195.0450  173.0700  142.5780 C   0  0  0  0  0  3  0  0  0  0  0  0
  195.5700  175.4680  143.4660 C   0  0  0  0  0  0  0  0  0  0  0  0
  195.5330  175.7190  144.9330 C   0  0  0  0  0  2  0  0  0  0  0  0
  194.7310  176.9000  145.2100 N   0  0  0  0  0  2  0  0  0  0  0  0
  194.2480  176.7630  146.5730 C   0  0  0  0  0  2  0  0  0  0  0  0
  192.1500  176.7650  147.6650 F   0  0  0  0  0  0  0  0  0  0  0  0
  192.8240  176.2330  146.5840 C   0  0  0  0  0  0  0  0  0  0  0  0
  192.1740  176.5970  145.4180 F   0  0  0  0  0  0  0  0  0  0  0  0
  192.8350  174.8540  146.6920 F   0  0  0  0  0  0  0  0  0  0  0  0
  190.9000  170.9820  137.7310 C   0  0  0  0  0  2  0  0  0  0  0  0
  189.7370  171.6400  137.0150 C   0  0  0  0  0  2  0  0  0  0  0  0
  188.8210  173.8950  137.4630 C   0  0  0  0  0  1  0  0  0  0  0  0
  188.9540  172.4830  137.9980 C   0  0  0  0  0  2  0  0  0  0  0  0
  1  8  1  0  0  0  0
  1 13  2  0  0  0  0
  2 12  2  0  0  0  0
  3  7  2  0  0  0  0
  3  2  1  0  0  0  0
  4  1  1  0  0  0  0
  5 11  1  0  0  0  0
  5 16  1  0  0  0  0
  6 13  1  0  0  0  0
  8  5  2  0  0  0  0
  9  8  1  0  0  0  0
 10  7  1  0  0  0  0
 12  6  1  0  0  0  0
 12 32  1  0  0  0  0
 13 11  1  0  0  0  0
 14  7  1  6  0  0  0
 14  4  1  0  0  0  0
 14  6  1  0  0  0  0
 15 16  1  0  0  0  0
 15 18  1  0  0  0  0
 16 19  1  0  0  0  0
 18 20  1  0  0  0  0
 19 17  1  0  0  0  0
 20 17  1  0  0  0  0
 20 21  1  0  0  0  0
 21 24  1  0  0  0  0
 22 24  1  0  0  0  0
 23 22  1  0  0  0  0
 24 25  2  0  0  0  0
 26 23  2  0  0  0  0
 27 28  1  0  0  0  0
 28 23  1  0  0  0  0
 29 28  1  0  0  0  0
 30 33  2  0  0  0  0
 31 33  1  0  0  0  0
 32 30  2  0  0  0  0
 33 34  1  0  0  0  0
 34 35  1  0  0  0  0
 35 36  1  0  0  0  0
 36 38  1  0  0  0  0
 38 40  1  0  0  0  0
 38 37  1  0  0  0  0
 39 38  1  0  0  0  0
 41 10  1  0  0  0  0
 42 41  1  0  0  0  0
 42 44  1  0  0  0  0
 43 44  1  0  0  0  0
M  END
>  <MODEL>
2

>  <REMARK>
 VINA RESULT:      -6.7      2.689      4.195
  Name = 
  12 active torsions:
  status: ('A' for Active; 'I' for Inactive)
    1  A    between atoms: N_4  and  C_19
    2  A    between atoms: N_4  and  C_26
    3  A    between atoms: C_8  and  N_30
    4  A    between atoms: C_8  and  C_42
    5  A    between atoms: C_10  and  C_26
    6  A    between atoms: C_12  and  C_32
    7  A    between atoms: C_15  and  C_24
    8  A    between atoms: C_17  and  C_20
    9  A    between atoms: C_17  and  N_44
   10  A    between atoms: C_19  and  C_41
   11  A    between atoms: C_22  and  C_42
   12  A    between atoms: C_31  and  C_38
                            x       y       z     vdW  Elec       q    Type
                         _______ _______ _______ _____ _____    ______ ____

>  <TORSDO>
F 12

$$$$
=
 OpenBabel11042417073D

 44 47  0  0  1  0  0  0  0  0999 V2000
  188.9450  176.2900  144.2920 C   0  0  0  0  0  0  0  0  0  0  0  0
  187.2290  176.7040  140.4000 C   0  0  0  0  0  3  0  0  0  0  0  0
  186.7900  177.8660  141.1190 N   0  0  0  0  0  0  0  0  0  0  0  0
  187.7850  177.0270  144.3870 O   0  0  0  0  0  0  0  0  0  0  0  0
  191.1470  175.6390  144.2500 C   0  0  0  0  0  0  0  0  0  0  0  0
  187.7160  175.6730  142.4850 N   0  0  0  0  0  0  0  0  0  0  0  0
  186.6690  177.9120  142.4150 C   0  0  0  0  0  0  0  0  0  0  0  0
  190.1750  176.3950  144.9260 C   0  0  0  0  0  0  0  0  0  0  0  0
  190.4440  177.3040  146.0770 C   0  0  0  0  0  1  0  0  0  0  0  0
  186.2030  179.1250  143.0150 N   0  0  0  0  0  2  0  0  0  0  0  0
  190.4320  174.9000  142.8780 S   0  0  0  0  0  0  0  0  0  0  0  0
  187.6720  175.6310  141.0510 C   0  0  0  0  0  0  0  0  0  0  0  0
  188.8950  175.4660  143.2480 C   0  0  0  0  0  0  0  0  0  0  0  0
  186.9530  176.6830  143.2610 C   0  0  2  0  0  3  0  0  0  0  0  0
  193.5190  175.2930  143.4460 C   0  0  0  0  0  2  0  0  0  0  0  0
  192.5930  175.5490  144.6480 C   0  0  0  0  0  3  0  0  0  0  0  0
  194.2550  174.3820  146.1720 C   0  0  0  0  0  2  0  0  0  0  0  0
  194.8170  174.5910  143.8570 C   0  0  0  0  0  2  0  0  0  0  0  0
  192.7840  174.4870  145.7320 C   0  0  0  0  0  2  0  0  0  0  0  0
  195.1930  174.9880  145.2160 N   0  0  0  0  0  0  0  0  0  0  0  0
  196.4990  174.4110  145.5010 C   0  0  0  0  0  2  0  0  0  0  0  0
  197.7370  173.0340  143.7220 N   0  0  0  0  0  2  0  0  0  0  0  0
  197.3420  171.7240  144.1590 C   0  0  0  0  0  0  0  0  0  0  0  0
  197.3150  174.3000  144.2500 C   0  0  0  0  0  0  0  0  0  0  0  0
  197.6940  175.3550  143.6750 O   0  0  0  0  0  0  0  0  0  0  0  0
  197.9390  170.6960  143.6480 N   0  0  0  0  0  2  0  0  0  0  0  0
  195.0060  170.9290  144.4610 C   0  0  0  0  0  1  0  0  0  0  0  0
  196.2270  171.5210  145.1400 C   0  0  0  0  0  3  0  0  0  0  0  0
  196.6630  170.6350  146.2900 C   0  0  0  0  0  1  0  0  0  0  0  0
  188.2270  174.4590  138.9860 C   0  0  0  0  0  0  0  0  0  0  0  0
  187.5180  175.1080  136.8560 O   0  0  0  0  0  1  0  0  0  0  0  0
  188.0630  174.4420  140.2810 C   0  0  0  0  0  3  0  0  0  0  0  0
  188.4130  174.4550  137.6940 C   0  0  0  0  0  0  0  0  0  0  0  0
  189.6030  173.7670  137.1230 C   0  0  0  0  0  2  0  0  0  0  0  0
  190.6580  173.6970  138.1210 N   0  0  0  0  0  2  0  0  0  0  0  0
  191.1620  172.3340  138.0980 C   0  0  0  0  0  2  0  0  0  0  0  0
  191.3480  170.3820  139.4190 F   0  0  0  0  0  0  0  0  0  0  0  0
  190.6130  171.5420  139.2720 C   0  0  0  0  0  0  0  0  0  0  0  0
  190.7060  172.2900  140.4320 F   0  0  0  0  0  0  0  0  0  0  0  0
  189.2900  171.2140  139.0420 F   0  0  0  0  0  0  0  0  0  0  0  0
  185.8430  179.2360  144.4200 C   0  0  0  0  0  2  0  0  0  0  0  0
  184.3780  178.8910  144.5940 C   0  0  0  0  0  2  0  0  0  0  0  0
  184.8740  177.4930  146.5750 C   0  0  0  0  0  1  0  0  0  0  0  0
  184.0830  178.6810  146.0640 C   0  0  0  0  0  2  0  0  0  0  0  0
  1  4  1  0  0  0  0
  1  8  1  0  0  0  0
  2 12  2  0  0  0  0
  2  3  1  0  0  0  0
  3  7  2  0  0  0  0
  5 16  1  0  0  0  0
  5  8  2  0  0  0  0
  6 13  1  0  0  0  0
  6 14  1  0  0  0  0
  7 10  1  0  0  0  0
  8  9  1  0  0  0  0
 10 41  1  0  0  0  0
 11 13  1  0  0  0  0
 11  5  1  0  0  0  0
 12  6  1  0  0  0  0
 13  1  2  0  0  0  0
 14  7  1  6  0  0  0
 14  4  1  0  0  0  0
 15 18  1  0  0  0  0
 15 16  1  0  0  0  0
 16 19  1  0  0  0  0
 18 20  1  0  0  0  0
 19 17  1  0  0  0  0
 20 21  1  0  0  0  0
 20 17  1  0  0  0  0
 22 23  1  0  0  0  0
 22 24  1  0  0  0  0
 23 28  1  0  0  0  0
 24 21  1  0  0  0  0
 25 24  2  0  0  0  0
 26 23  2  0  0  0  0
 27 28  1  0  0  0  0
 28 29  1  0  0  0  0
 30 32  2  0  0  0  0
 31 33  1  0  0  0  0
 32 12  1  0  0  0  0
 33 30  2  0  0  0  0
 34 33  1  0  0  0  0
 34 35  1  0  0  0  0
 36 35  1  0  0  0  0
 36 38  1  0  0  0  0
 38 37  1  0  0  0  0
 38 39  1  0  0  0  0
 40 38  1  0  0  0  0
 41 42  1  0  0  0  0
 42 44  1  0  0  0  0
 44 43  1  0  0  0  0
M  END
>  <MODEL>
3

>  <REMARK>
 VINA RESULT:      -6.5      3.450     10.244
  Name = 
  12 active torsions:
  status: ('A' for Active; 'I' for Inactive)
    1  A    between atoms: N_4  and  C_19
    2  A    between atoms: N_4  and  C_26
    3  A    between atoms: C_8  and  N_30
    4  A    between atoms: C_8  and  C_42
    5  A    between atoms: C_10  and  C_26
    6  A    between atoms: C_12  and  C_32
    7  A    between atoms: C_15  and  C_24
    8  A    between atoms: C_17  and  C_20
    9  A    between atoms: C_17  and  N_44
   10  A    between atoms: C_19  and  C_41
   11  A    between atoms: C_22  and  C_42
   12  A    between atoms: C_31  and  C_38
                            x       y       z     vdW  Elec       q    Type
                         _______ _______ _______ _____ _____    ______ ____

>  <TORSDO>
F 12

$$$$
=
 OpenBabel11042417073D

 44 47  0  0  1  0  0  0  0  0999 V2000
  189.8420  172.0730  140.3270 C   0  0  0  0  0  0  0  0  0  0  0  0
  193.9680  171.1730  140.9850 C   0  0  0  0  0  3  0  0  0  0  0  0
  193.7630  170.9440  139.5830 N   0  0  0  0  0  0  0  0  0  0  0  0
  190.2560  171.1470  139.3940 O   0  0  0  0  0  0  0  0  0  0  0  0
  189.1570  174.0040  141.3630 C   0  0  0  0  0  0  0  0  0  0  0  0
  191.6160  171.0310  141.2910 N   0  0  0  0  0  0  0  0  0  0  0  0
  192.6100  170.6330  139.0610 C   0  0  0  0  0  0  0  0  0  0  0  0
  188.9950  173.1690  140.2450 C   0  0  0  0  0  0  0  0  0  0  0  0
  188.1450  173.4790  139.0600 C   0  0  0  0  0  1  0  0  0  0  0  0
  192.5360  170.4110  137.6500 N   0  0  0  0  0  2  0  0  0  0  0  0
  190.3690  173.3500  142.3850 S   0  0  0  0  0  0  0  0  0  0  0  0
  192.9360  171.2080  141.8240 C   0  0  0  0  0  0  0  0  0  0  0  0
  190.5670  171.9760  141.4390 C   0  0  0  0  0  0  0  0  0  0  0  0
  191.3890  170.4450  139.9450 C   0  0  2  0  0  3  0  0  0  0  0  0
  189.3350  176.4180  142.0930 C   0  0  0  0  0  2  0  0  0  0  0  0
  188.4180  175.2930  141.5850 C   0  0  0  0  0  3  0  0  0  0  0  0
  186.4450  176.3740  142.7620 C   0  0  0  0  0  2  0  0  0  0  0  0
  188.5660  177.4710  142.8990 C   0  0  0  0  0  2  0  0  0  0  0  0
  187.2330  175.0730  142.5270 C   0  0  0  0  0  2  0  0  0  0  0  0
  187.1950  177.5840  142.3940 N   0  0  0  0  0  0  0  0  0  0  0  0
  186.5570  178.6910  143.0920 C   0  0  0  0  0  2  0  0  0  0  0  0
  184.3160  178.1930  144.2420 N   0  0  0  0  0  2  0  0  0  0  0  0
  184.7920  178.0940  145.5930 C   0  0  0  0  0  0  0  0  0  0  0  0
  185.0670  178.5440  143.0700 C   0  0  0  0  0  0  0  0  0  0  0  0
  184.4580  178.6750  141.9750 O   0  0  0  0  0  0  0  0  0  0  0  0
  183.9920  177.6260  146.4970 N   0  0  0  0  0  2  0  0  0  0  0  0
  186.0850  179.5360  147.1510 C   0  0  0  0  0  1  0  0  0  0  0  0
  186.1590  178.5680  145.9870 C   0  0  0  0  0  3  0  0  0  0  0  0
  187.0640  177.4020  146.3360 C   0  0  0  0  0  1  0  0  0  0  0  0
  193.4600  172.5560  143.7880 C   0  0  0  0  0  0  0  0  0  0  0  0
  194.5920  174.5990  143.7360 O   0  0  0  0  0  1  0  0  0  0  0  0
  193.1910  171.3920  143.2590 C   0  0  0  0  0  3  0  0  0  0  0  0
  193.7130  173.7100  144.3420 C   0  0  0  0  0  0  0  0  0  0  0  0
  193.0370  174.0810  145.6150 C   0  0  0  0  0  2  0  0  0  0  0  0
  191.9090  174.9550  145.3360 N   0  0  0  0  0  2  0  0  0  0  0  0
  191.0740  174.9470  146.5260 C   0  0  0  0  0  2  0  0  0  0  0  0
  189.8820  173.0640  145.7340 F   0  0  0  0  0  0  0  0  0  0  0  0
  189.7120  174.3470  146.2170 C   0  0  0  0  0  0  0  0  0  0  0  0
  188.9430  174.3020  147.3660 F   0  0  0  0  0  0  0  0  0  0  0  0
  189.0670  175.1090  145.2610 F   0  0  0  0  0  0  0  0  0  0  0  0
  191.3600  169.8730  136.9850 C   0  0  0  0  0  2  0  0  0  0  0  0
  191.1490  170.5950  135.6690 C   0  0  0  0  0  2  0  0  0  0  0  0
  190.2830  172.8590  136.1670 C   0  0  0  0  0  1  0  0  0  0  0  0
  189.9030  171.4490  135.7600 C   0  0  0  0  0  2  0  0  0  0  0  0
  1 13  2  0  0  0  0
  2 12  2  0  0  0  0
  3  2  1  0  0  0  0
  4 14  1  0  0  0  0
  4  1  1  0  0  0  0
  5 16  1  0  0  0  0
  5 11  1  0  0  0  0
  6 13  1  0  0  0  0
  6 12  1  0  0  0  0
  7  3  2  0  0  0  0
  8  1  1  0  0  0  0
  8  5  2  0  0  0  0
  9  8  1  0  0  0  0
 10  7  1  0  0  0  0
 12 32  1  0  0  0  0
 13 11  1  0  0  0  0
 14  7  1  6  0  0  0
 14  6  1  0  0  0  0
 15 18  1  0  0  0  0
 16 15  1  0  0  0  0
 16 19  1  0  0  0  0
 19 17  1  0  0  0  0
 20 17  1  0  0  0  0
 20 18  1  0  0  0  0
 20 21  1  0  0  0  0
 22 23  1  0  0  0  0
 23 28  1  0  0  0  0
 23 26  2  0  0  0  0
 24 21  1  0  0  0  0
 24 22  1  0  0  0  0
 25 24  2  0  0  0  0
 28 29  1  0  0  0  0
 28 27  1  0  0  0  0
 30 33  2  0  0  0  0
 31 33  1  0  0  0  0
 32 30  2  0  0  0  0
 33 34  1  0  0  0  0
 35 34  1  0  0  0  0
 35 36  1  0  0  0  0
 37 38  1  0  0  0  0
 38 36  1  0  0  0  0
 38 39  1  0  0  0  0
 40 38  1  0  0  0  0
 41 10  1  0  0  0  0
 42 44  1  0  0  0  0
 42 41  1  0  0  0  0
 44 43  1  0  0  0  0
M  END
>  <MODEL>
4

>  <REMARK>
 VINA RESULT:      -6.4      3.051      3.994
  Name = 
  12 active torsions:
  status: ('A' for Active; 'I' for Inactive)
    1  A    between atoms: N_4  and  C_19
    2  A    between atoms: N_4  and  C_26
    3  A    between atoms: C_8  and  N_30
    4  A    between atoms: C_8  and  C_42
    5  A    between atoms: C_10  and  C_26
    6  A    between atoms: C_12  and  C_32
    7  A    between atoms: C_15  and  C_24
    8  A    between atoms: C_17  and  C_20
    9  A    between atoms: C_17  and  N_44
   10  A    between atoms: C_19  and  C_41
   11  A    between atoms: C_22  and  C_42
   12  A    between atoms: C_31  and  C_38
                            x       y       z     vdW  Elec       q    Type
                         _______ _______ _______ _____ _____    ______ ____

>  <TORSDO>
F 12

$$$$
=
 OpenBabel11042417073D

 44 47  0  0  1  0  0  0  0  0999 V2000
  191.0370  172.8840  140.4060 C   0  0  0  0  0  0  0  0  0  0  0  0
  194.7830  174.0290  138.6980 C   0  0  0  0  0  3  0  0  0  0  0  0
  193.9140  173.8330  137.5740 N   0  0  0  0  0  0  0  0  0  0  0  0
  191.1420  172.3410  139.1440 O   0  0  0  0  0  0  0  0  0  0  0  0
  190.4320  174.1670  142.2120 C   0  0  0  0  0  0  0  0  0  0  0  0
  193.2710  172.7540  140.0140 N   0  0  0  0  0  0  0  0  0  0  0  0
  192.8750  173.0460  137.5900 C   0  0  0  0  0  0  0  0  0  0  0  0
  189.9730  173.4420  141.1000 C   0  0  0  0  0  0  0  0  0  0  0  0
  188.5570  173.3910  140.6340 C   0  0  0  0  0  1  0  0  0  0  0  0
  192.0940  172.9210  136.3980 N   0  0  0  0  0  2  0  0  0  0  0  0
  192.1440  174.1020  142.2590 S   0  0  0  0  0  0  0  0  0  0  0  0
  194.4880  173.5030  139.8840 C   0  0  0  0  0  0  0  0  0  0  0  0
  192.2430  173.0660  140.9420 C   0  0  0  0  0  0  0  0  0  0  0  0
  192.5450  172.2310  138.8280 C   0  0  2  0  0  3  0  0  0  0  0  0
  189.3200  176.3790  142.7260 C   0  0  0  0  0  2  0  0  0  0  0  0
  189.5500  174.9220  143.1650 C   0  0  0  0  0  3  0  0  0  0  0  0
  189.2270  175.6060  145.5890 C   0  0  0  0  0  2  0  0  0  0  0  0
  189.0020  177.2960  143.9120 C   0  0  0  0  0  2  0  0  0  0  0  0
  190.1170  174.8530  144.5850 C   0  0  0  0  0  2  0  0  0  0  0  0
  188.2930  176.5450  144.9500 N   0  0  0  0  0  0  0  0  0  0  0  0
  187.8890  177.4890  145.9820 C   0  0  0  0  0  2  0  0  0  0  0  0
  185.4110  177.4010  146.6460 N   0  0  0  0  0  2  0  0  0  0  0  0
  184.8940  178.2900  145.6450 C   0  0  0  0  0  0  0  0  0  0  0  0
  186.7600  176.9360  146.7960 C   0  0  0  0  0  0  0  0  0  0  0  0
  187.0130  176.0770  147.6840 O   0  0  0  0  0  0  0  0  0  0  0  0
  183.6720  178.7040  145.7570 N   0  0  0  0  0  2  0  0  0  0  0  0
  185.3850  177.8340  143.2510 C   0  0  0  0  0  1  0  0  0  0  0  0
  185.7080  178.6990  144.4540 C   0  0  0  0  0  3  0  0  0  0  0  0
  185.4900  180.1610  144.1180 C   0  0  0  0  0  1  0  0  0  0  0  0
  195.7010  174.8490  141.5170 C   0  0  0  0  0  0  0  0  0  0  0  0
  196.1940  177.1190  141.2670 O   0  0  0  0  0  1  0  0  0  0  0  0
  195.4300  173.6810  140.9970 C   0  0  0  0  0  3  0  0  0  0  0  0
  195.9750  176.0010  142.0630 C   0  0  0  0  0  0  0  0  0  0  0  0
  196.0290  176.1210  143.5460 C   0  0  0  0  0  2  0  0  0  0  0  0
  194.6800  176.2000  144.0830 N   0  0  0  0  0  2  0  0  0  0  0  0
  194.7440  175.6950  145.4430 C   0  0  0  0  0  2  0  0  0  0  0  0
  192.6460  176.7850  145.4100 F   0  0  0  0  0  0  0  0  0  0  0  0
  193.5710  176.2120  146.2600 C   0  0  0  0  0  0  0  0  0  0  0  0
  192.9750  175.1680  146.9440 F   0  0  0  0  0  0  0  0  0  0  0  0
  194.0080  177.1640  147.1620 F   0  0  0  0  0  0  0  0  0  0  0  0
  191.0380  171.9340  136.2330 C   0  0  0  0  0  2  0  0  0  0  0  0
  189.7910  172.6130  135.7030 C   0  0  0  0  0  2  0  0  0  0  0  0
  188.6790  174.3030  137.1280 C   0  0  0  0  0  1  0  0  0  0  0  0
  189.7930  174.0660  136.1270 C   0  0  0  0  0  2  0  0  0  0  0  0
  1 13  2  0  0  0  0
  1  8  1  0  0  0  0
  2 12  2  0  0  0  0
  3  7  2  0  0  0  0
  3  2  1  0  0  0  0
  4  1  1  0  0  0  0
  5 11  1  0  0  0  0
  5 16  1  0  0  0  0
  6 13  1  0  0  0  0
  8  5  2  0  0  0  0
  9  8  1  0  0  0  0
 10  7  1  0  0  0  0
 12  6  1  0  0  0  0
 12 32  1  0  0  0  0
 13 11  1  0  0  0  0
 14  7  1  6  0  0  0
 14  4  1  0  0  0  0
 14  6  1  0  0  0  0
 15 16  1  0  0  0  0
 15 18  1  0  0  0  0
 16 19  1  0  0  0  0
 18 20  1  0  0  0  0
 19 17  1  0  0  0  0
 20 17  1  0  0  0  0
 20 21  1  0  0  0  0
 21 24  1  0  0  0  0
 22 24  1  0  0  0  0
 23 26  2  0  0  0  0
 23 22  1  0  0  0  0
 24 25  2  0  0  0  0
 27 28  1  0  0  0  0
 28 23  1  0  0  0  0
 29 28  1  0  0  0  0
 30 33  2  0  0  0  0
 31 33  1  0  0  0  0
 32 30  2  0  0  0  0
 33 34  1  0  0  0  0
 34 35  1  0  0  0  0
 35 36  1  0  0  0  0
 36 38  1  0  0  0  0
 37 38  1  0  0  0  0
 38 39  1  0  0  0  0
 38 40  1  0  0  0  0
 41 10  1  0  0  0  0
 42 44  1  0  0  0  0
 42 41  1  0  0  0  0
 44 43  1  0  0  0  0
M  END
>  <MODEL>
5

>  <REMARK>
 VINA RESULT:      -6.4      2.758      4.314
  Name = 
  12 active torsions:
  status: ('A' for Active; 'I' for Inactive)
    1  A    between atoms: N_4  and  C_19
    2  A    between atoms: N_4  and  C_26
    3  A    between atoms: C_8  and  N_30
    4  A    between atoms: C_8  and  C_42
    5  A    between atoms: C_10  and  C_26
    6  A    between atoms: C_12  and  C_32
    7  A    between atoms: C_15  and  C_24
    8  A    between atoms: C_17  and  C_20
    9  A    between atoms: C_17  and  N_44
   10  A    between atoms: C_19  and  C_41
   11  A    between atoms: C_22  and  C_42
   12  A    between atoms: C_31  and  C_38
                            x       y       z     vdW  Elec       q    Type
                         _______ _______ _______ _____ _____    ______ ____

>  <TORSDO>
F 12

$$$$
=
 OpenBabel11042417073D

 44 47  0  0  1  0  0  0  0  0999 V2000
  188.0240  176.4320  141.7690 C   0  0  0  0  0  0  0  0  0  0  0  0
  186.2540  177.5900  145.4820 C   0  0  0  0  0  3  0  0  0  0  0  0
  185.1800  177.6460  144.5320 N   0  0  0  0  0  0  0  0  0  0  0  0
  186.9540  177.2620  141.5180 O   0  0  0  0  0  0  0  0  0  0  0  0
  189.4020  174.6030  141.9500 C   0  0  0  0  0  0  0  0  0  0  0  0
  187.7850  177.6580  143.6650 N   0  0  0  0  0  0  0  0  0  0  0  0
  185.3530  177.8420  143.2550 C   0  0  0  0  0  0  0  0  0  0  0  0
  188.4970  175.2950  141.1270 C   0  0  0  0  0  0  0  0  0  0  0  0
  187.9950  174.8120  139.8090 C   0  0  0  0  0  1  0  0  0  0  0  0
  184.1990  177.8950  142.4100 N   0  0  0  0  0  2  0  0  0  0  0  0
  189.5450  175.4260  143.4470 S   0  0  0  0  0  0  0  0  0  0  0  0
  187.5210  177.6040  145.0750 C   0  0  0  0  0  0  0  0  0  0  0  0
  188.5490  176.6890  142.9650 C   0  0  0  0  0  0  0  0  0  0  0  0
  186.7430  178.0740  142.6910 C   0  0  2  0  0  3  0  0  0  0  0  0
  189.7410  172.1710  142.5500 C   0  0  0  0  0  2  0  0  0  0  0  0
  190.0830  173.3160  141.5810 C   0  0  0  0  0  3  0  0  0  0  0  0
  192.3210  172.2240  141.0860 C   0  0  0  0  0  2  0  0  0  0  0  0
  190.8420  171.1060  142.5960 C   0  0  0  0  0  2  0  0  0  0  0  0
  191.5950  173.5230  141.4770 C   0  0  0  0  0  2  0  0  0  0  0  0
  191.5080  171.0170  141.2950 N   0  0  0  0  0  0  0  0  0  0  0  0
  192.4380  169.8990  141.3490 C   0  0  0  0  0  2  0  0  0  0  0  0
  192.4630  168.2650  143.3300 N   0  0  0  0  0  2  0  0  0  0  0  0
  193.5620  168.8350  144.0570 C   0  0  0  0  0  0  0  0  0  0  0  0
  191.8560  168.7600  142.1270 C   0  0  0  0  0  0  0  0  0  0  0  0
  190.8320  168.1770  141.6790 O   0  0  0  0  0  0  0  0  0  0  0  0
  194.0610  168.1670  145.0470 N   0  0  0  0  0  2  0  0  0  0  0  0
  193.8410  171.1660  144.8740 C   0  0  0  0  0  1  0  0  0  0  0  0
  194.1010  170.1970  143.7370 C   0  0  0  0  0  3  0  0  0  0  0  0
  195.5850  170.1410  143.4300 C   0  0  0  0  0  1  0  0  0  0  0  0
  189.0390  176.5040  146.6350 C   0  0  0  0  0  0  0  0  0  0  0  0
  188.6520  174.4220  147.6230 O   0  0  0  0  0  1  0  0  0  0  0  0
  188.5920  177.5990  146.0810 C   0  0  0  0  0  3  0  0  0  0  0  0
  189.5140  175.4220  147.1890 C   0  0  0  0  0  0  0  0  0  0  0  0
  190.9850  175.2520  147.3330 C   0  0  0  0  0  2  0  0  0  0  0  0
  191.6700  175.9510  146.2580 N   0  0  0  0  0  2  0  0  0  0  0  0
  193.0620  176.0660  146.6570 C   0  0  0  0  0  2  0  0  0  0  0  0
  192.9950  177.4950  144.7740 F   0  0  0  0  0  0  0  0  0  0  0  0
  193.8620  176.8010  145.5950 C   0  0  0  0  0  0  0  0  0  0  0  0
  194.7350  177.6930  146.1920 F   0  0  0  0  0  0  0  0  0  0  0  0
  194.5790  175.8960  144.8340 F   0  0  0  0  0  0  0  0  0  0  0  0
  184.2480  178.2990  141.0140 C   0  0  0  0  0  2  0  0  0  0  0  0
  182.8450  178.5960  140.5250 C   0  0  0  0  0  2  0  0  0  0  0  0
  180.4970  178.8590  141.2610 C   0  0  0  0  0  1  0  0  0  0  0  0
  181.8540  178.2910  141.6270 C   0  0  0  0  0  2  0  0  0  0  0  0
  1 13  2  0  0  0  0
  3  2  1  0  0  0  0
  4  1  1  0  0  0  0
  5 11  1  0  0  0  0
  6 12  1  0  0  0  0
  7  3  2  0  0  0  0
  8  1  1  0  0  0  0
  8  5  2  0  0  0  0
  9  8  1  0  0  0  0
 10  7  1  0  0  0  0
 12  2  2  0  0  0  0
 12 32  1  0  0  0  0
 13 11  1  0  0  0  0
 13  6  1  0  0  0  0
 14  4  1  6  0  0  0
 14  7  1  0  0  0  0
 14  6  1  0  0  0  0
 15 18  1  0  0  0  0
 16  5  1  0  0  0  0
 16 15  1  0  0  0  0
 17 20  1  0  0  0  0
 17 19  1  0  0  0  0
 19 16  1  0  0  0  0
 20 21  1  0  0  0  0
 20 18  1  0  0  0  0
 21 24  1  0  0  0  0
 22 23  1  0  0  0  0
 23 26  2  0  0  0  0
 24 22  1  0  0  0  0
 25 24  2  0  0  0  0
 28 23  1  0  0  0  0
 28 27  1  0  0  0  0
 29 28  1  0  0  0  0
 30 33  2  0  0  0  0
 32 30  2  0  0  0  0
 33 34  1  0  0  0  0
 33 31  1  0  0  0  0
 35 36  1  0  0  0  0
 35 34  1  0  0  0  0
 37 38  1  0  0  0  0
 38 39  1  0  0  0  0
 38 36  1  0  0  0  0
 40 38  1  0  0  0  0
 41 10  1  0  0  0  0
 42 41  1  0  0  0  0
 42 44  1  0  0  0  0
 43 44  1  0  0  0  0
M  END
>  <MODEL>
6

>  <REMARK>
 VINA RESULT:      -6.3      3.662      9.194
  Name = 
  12 active torsions:
  status: ('A' for Active; 'I' for Inactive)
    1  A    between atoms: N_4  and  C_19
    2  A    between atoms: N_4  and  C_26
    3  A    between atoms: C_8  and  N_30
    4  A    between atoms: C_8  and  C_42
    5  A    between atoms: C_10  and  C_26
    6  A    between atoms: C_12  and  C_32
    7  A    between atoms: C_15  and  C_24
    8  A    between atoms: C_17  and  C_20
    9  A    between atoms: C_17  and  N_44
   10  A    between atoms: C_19  and  C_41
   11  A    between atoms: C_22  and  C_42
   12  A    between atoms: C_31  and  C_38
                            x       y       z     vdW  Elec       q    Type
                         _______ _______ _______ _____ _____    ______ ____

>  <TORSDO>
F 12

$$$$
=
 OpenBabel11042417073D

 44 47  0  0  1  0  0  0  0  0999 V2000
  190.5700  174.1660  143.8750 C   0  0  0  0  0  0  0  0  0  0  0  0
  188.7190  177.5070  145.7910 C   0  0  0  0  0  3  0  0  0  0  0  0
  190.1060  177.6020  146.1500 N   0  0  0  0  0  0  0  0  0  0  0  0
  191.2910  174.4950  145.0020 O   0  0  0  0  0  0  0  0  0  0  0  0
  189.8860  173.8710  141.7020 C   0  0  0  0  0  0  0  0  0  0  0  0
  189.0840  175.2280  145.2240 N   0  0  0  0  0  0  0  0  0  0  0  0
  190.9130  176.5790  146.1960 C   0  0  0  0  0  0  0  0  0  0  0  0
  190.9530  173.7470  142.6080 C   0  0  0  0  0  0  0  0  0  0  0  0
  192.3460  173.3620  142.2440 C   0  0  0  0  0  1  0  0  0  0  0  0
  192.2710  176.8000  146.5860 N   0  0  0  0  0  2  0  0  0  0  0  0
  188.5270  174.5240  142.5180 S   0  0  0  0  0  0  0  0  0  0  0  0
  188.2090  176.3590  145.3500 C   0  0  0  0  0  0  0  0  0  0  0  0
  189.2940  174.5210  144.0110 C   0  0  0  0  0  0  0  0  0  0  0  0
  190.4010  175.1790  145.9070 C   0  0  2  0  0  3  0  0  0  0  0  0
  188.8350  174.1960  139.4260 C   0  0  0  0  0  2  0  0  0  0  0  0
  189.9600  173.5340  140.2400 C   0  0  0  0  0  3  0  0  0  0  0  0
  190.0610  171.6390  138.5530 C   0  0  0  0  0  2  0  0  0  0  0  0
  188.5060  173.4110  138.1510 C   0  0  0  0  0  2  0  0  0  0  0  0
  189.9700  172.0170  140.0420 C   0  0  0  0  0  2  0  0  0  0  0  0
  189.7090  172.7450  137.6490 N   0  0  0  0  0  0  0  0  0  0  0  0
  189.3770  172.1380  136.3680 C   0  0  0  0  0  2  0  0  0  0  0  0
  191.2190  172.7770  134.6970 N   0  0  0  0  0  2  0  0  0  0  0  0
  192.1480  171.7240  134.9980 C   0  0  0  0  0  0  0  0  0  0  0  0
  189.9030  172.9660  135.2360 C   0  0  0  0  0  0  0  0  0  0  0  0
  189.1880  173.8990  134.7810 O   0  0  0  0  0  0  0  0  0  0  0  0
  193.3460  171.8000  134.5130 N   0  0  0  0  0  2  0  0  0  0  0  0
  191.4270  169.3470  134.9040 C   0  0  0  0  0  1  0  0  0  0  0  0
  191.7500  170.5250  135.8030 C   0  0  0  0  0  3  0  0  0  0  0  0
  192.8360  170.1420  136.7900 C   0  0  0  0  0  1  0  0  0  0  0  0
  185.9350  177.2400  145.3550 C   0  0  0  0  0  0  0  0  0  0  0  0
  185.1220  178.8130  146.8780 O   0  0  0  0  0  1  0  0  0  0  0  0
  186.7740  176.2890  145.0430 C   0  0  0  0  0  3  0  0  0  0  0  0
  185.0820  178.1850  145.6400 C   0  0  0  0  0  0  0  0  0  0  0  0
  184.0780  178.6030  144.6240 C   0  0  0  0  0  2  0  0  0  0  0  0
  184.7500  179.2230  143.4940 N   0  0  0  0  0  2  0  0  0  0  0  0
  184.5520  178.3410  142.3570 C   0  0  0  0  0  2  0  0  0  0  0  0
  185.7630  178.5650  140.3380 F   0  0  0  0  0  0  0  0  0  0  0  0
  185.8660  178.0990  141.6340 C   0  0  0  0  0  0  0  0  0  0  0  0
  186.8910  178.7700  142.2780 F   0  0  0  0  0  0  0  0  0  0  0  0
  186.1480  176.7460  141.6080 F   0  0  0  0  0  0  0  0  0  0  0  0
  193.2090  175.7220  146.8620 C   0  0  0  0  0  2  0  0  0  0  0  0
  194.5400  176.0320  146.2060 C   0  0  0  0  0  2  0  0  0  0  0  0
  195.4680  174.9460  144.1850 C   0  0  0  0  0  1  0  0  0  0  0  0
  194.4040  175.8930  144.7050 C   0  0  0  0  0  2  0  0  0  0  0  0
  1 13  2  0  0  0  0
  1  4  1  0  0  0  0
  2  3  1  0  0  0  0
  3  7  2  0  0  0  0
  5 11  1  0  0  0  0
  5  8  2  0  0  0  0
  6 12  1  0  0  0  0
  6 14  1  0  0  0  0
  7 10  1  0  0  0  0
  8  1  1  0  0  0  0
  9  8  1  0  0  0  0
 10 41  1  0  0  0  0
 11 13  1  0  0  0  0
 12  2  2  0  0  0  0
 13  6  1  0  0  0  0
 14  4  1  6  0  0  0
 14  7  1  0  0  0  0
 15 16  1  0  0  0  0
 16  5  1  0  0  0  0
 17 19  1  0  0  0  0
 18 15  1  0  0  0  0
 19 16  1  0  0  0  0
 20 18  1  0  0  0  0
 20 17  1  0  0  0  0
 21 20  1  0  0  0  0
 22 23  1  0  0  0  0
 22 24  1  0  0  0  0
 23 28  1  0  0  0  0
 24 21  1  0  0  0  0
 25 24  2  0  0  0  0
 26 23  2  0  0  0  0
 27 28  1  0  0  0  0
 28 29  1  0  0  0  0
 30 33  2  0  0  0  0
 32 12  1  0  0  0  0
 32 30  2  0  0  0  0
 33 31  1  0  0  0  0
 34 33  1  0  0  0  0
 35 34  1  0  0  0  0
 36 35  1  0  0  0  0
 37 38  1  0  0  0  0
 38 39  1  0  0  0  0
 38 36  1  0  0  0  0
 40 38  1  0  0  0  0
 42 41  1  0  0  0  0
 43 44  1  0  0  0  0
 44 42  1  0  0  0  0
M  END
>  <MODEL>
7

>  <REMARK>
 VINA RESULT:      -6.3      3.900      8.516
  Name = 
  12 active torsions:
  status: ('A' for Active; 'I' for Inactive)
    1  A    between atoms: N_4  and  C_19
    2  A    between atoms: N_4  and  C_26
    3  A    between atoms: C_8  and  N_30
    4  A    between atoms: C_8  and  C_42
    5  A    between atoms: C_10  and  C_26
    6  A    between atoms: C_12  and  C_32
    7  A    between atoms: C_15  and  C_24
    8  A    between atoms: C_17  and  C_20
    9  A    between atoms: C_17  and  N_44
   10  A    between atoms: C_19  and  C_41
   11  A    between atoms: C_22  and  C_42
   12  A    between atoms: C_31  and  C_38
                            x       y       z     vdW  Elec       q    Type
                         _______ _______ _______ _____ _____    ______ ____

>  <TORSDO>
F 12

$$$$
=
 OpenBabel11042417073D

 44 47  0  0  1  0  0  0  0  0999 V2000
  188.0110  176.3410  141.5880 C   0  0  0  0  0  0  0  0  0  0  0  0
  186.5150  177.6130  145.3830 C   0  0  0  0  0  3  0  0  0  0  0  0
  185.3830  177.6790  144.5030 N   0  0  0  0  0  0  0  0  0  0  0  0
  186.9480  177.1940  141.3900 O   0  0  0  0  0  0  0  0  0  0  0  0
  189.3520  174.4810  141.7170 C   0  0  0  0  0  0  0  0  0  0  0  0
  187.9260  177.6080  143.4710 N   0  0  0  0  0  0  0  0  0  0  0  0
  185.4770  177.8470  143.2140 C   0  0  0  0  0  0  0  0  0  0  0  0
  188.4140  175.1810  140.9410 C   0  0  0  0  0  0  0  0  0  0  0  0
  187.8160  174.6870  139.6680 C   0  0  0  0  0  1  0  0  0  0  0  0
  184.2730  177.9150  142.4450 N   0  0  0  0  0  2  0  0  0  0  0  0
  189.6120  175.3280  143.1850 S   0  0  0  0  0  0  0  0  0  0  0  0
  187.7530  177.5870  144.8960 C   0  0  0  0  0  0  0  0  0  0  0  0
  188.6190  176.6060  142.7420 C   0  0  0  0  0  0  0  0  0  0  0  0
  186.8340  178.0320  142.5580 C   0  0  2  0  0  3  0  0  0  0  0  0
  189.8050  172.0940  142.4170 C   0  0  0  0  0  2  0  0  0  0  0  0
  189.9760  173.1700  141.3310 C   0  0  0  0  0  3  0  0  0  0  0  0
  192.1150  172.0410  140.5570 C   0  0  0  0  0  2  0  0  0  0  0  0
  190.9080  171.0320  142.3580 C   0  0  0  0  0  2  0  0  0  0  0  0
  191.4500  173.3660  140.9720 C   0  0  0  0  0  2  0  0  0  0  0  0
  191.3560  170.8530  140.9750 N   0  0  0  0  0  0  0  0  0  0  0  0
  192.2930  169.7390  140.9550 C   0  0  0  0  0  2  0  0  0  0  0  0
  192.9600  168.6780  138.7140 N   0  0  0  0  0  2  0  0  0  0  0  0
  194.3060  169.1740  138.6400 C   0  0  0  0  0  0  0  0  0  0  0  0
  192.0230  168.8390  139.7880 C   0  0  0  0  0  0  0  0  0  0  0  0
  190.9110  168.2500  139.7190 O   0  0  0  0  0  0  0  0  0  0  0  0
  194.9520  169.0450  137.5260 N   0  0  0  0  0  2  0  0  0  0  0  0
  196.0430  168.8380  140.3860 C   0  0  0  0  0  1  0  0  0  0  0  0
  194.9920  169.7780  139.8280 C   0  0  0  0  0  3  0  0  0  0  0  0
  195.6200  171.1130  139.4780 C   0  0  0  0  0  1  0  0  0  0  0  0
  189.2810  176.4920  146.4490 C   0  0  0  0  0  0  0  0  0  0  0  0
  188.7970  174.5400  147.6380 O   0  0  0  0  0  1  0  0  0  0  0  0
  188.8860  177.5730  145.8300 C   0  0  0  0  0  3  0  0  0  0  0  0
  189.7040  175.4230  147.0660 C   0  0  0  0  0  0  0  0  0  0  0  0
  191.1640  175.1400  147.1340 C   0  0  0  0  0  2  0  0  0  0  0  0
  191.9130  176.3780  146.9920 N   0  0  0  0  0  2  0  0  0  0  0  0
  192.7910  176.2040  145.8480 C   0  0  0  0  0  2  0  0  0  0  0  0
  194.9400  175.5050  146.5460 F   0  0  0  0  0  0  0  0  0  0  0  0
  194.2090  176.6240  146.1970 C   0  0  0  0  0  0  0  0  0  0  0  0
  194.8040  177.2330  145.1070 F   0  0  0  0  0  0  0  0  0  0  0  0
  194.1920  177.5040  147.2630 F   0  0  0  0  0  0  0  0  0  0  0  0
  184.2410  178.2910  141.0400 C   0  0  0  0  0  2  0  0  0  0  0  0
  182.8600  178.0250  140.4770 C   0  0  0  0  0  2  0  0  0  0  0  0
  180.7370  179.1890  140.9880 C   0  0  0  0  0  1  0  0  0  0  0  0
  181.8220  178.2910  141.5470 C   0  0  0  0  0  2  0  0  0  0  0  0
  1 13  2  0  0  0  0
  3  2  1  0  0  0  0
  4  1  1  0  0  0  0
  5 11  1  0  0  0  0
  6 12  1  0  0  0  0
  7  3  2  0  0  0  0
  8  1  1  0  0  0  0
  8  5  2  0  0  0  0
  9  8  1  0  0  0  0
 10  7  1  0  0  0  0
 12  2  2  0  0  0  0
 12 32  1  0  0  0  0
 13 11  1  0  0  0  0
 13  6  1  0  0  0  0
 14  4  1  6  0  0  0
 14  7  1  0  0  0  0
 14  6  1  0  0  0  0
 16  5  1  0  0  0  0
 16 15  1  0  0  0  0
 17 19  1  0  0  0  0
 17 20  1  0  0  0  0
 18 15  1  0  0  0  0
 19 16  1  0  0  0  0
 20 18  1  0  0  0  0
 21 20  1  0  0  0  0
 22 24  1  0  0  0  0
 23 22  1  0  0  0  0
 23 28  1  0  0  0  0
 24 21  1  0  0  0  0
 25 24  2  0  0  0  0
 26 23  2  0  0  0  0
 28 27  1  0  0  0  0
 29 28  1  0  0  0  0
 30 33  2  0  0  0  0
 32 30  2  0  0  0  0
 33 34  1  0  0  0  0
 33 31  1  0  0  0  0
 35 34  1  0  0  0  0
 36 38  1  0  0  0  0
 36 35  1  0  0  0  0
 38 37  1  0  0  0  0
 38 40  1  0  0  0  0
 39 38  1  0  0  0  0
 41 10  1  0  0  0  0
 42 41  1  0  0  0  0
 42 44  1  0  0  0  0
 43 44  1  0  0  0  0
M  END
>  <MODEL>
8

>  <REMARK>
 VINA RESULT:      -6.2      3.416      9.517
  Name = 
  12 active torsions:
  status: ('A' for Active; 'I' for Inactive)
    1  A    between atoms: N_4  and  C_19
    2  A    between atoms: N_4  and  C_26
    3  A    between atoms: C_8  and  N_30
    4  A    between atoms: C_8  and  C_42
    5  A    between atoms: C_10  and  C_26
    6  A    between atoms: C_12  and  C_32
    7  A    between atoms: C_15  and  C_24
    8  A    between atoms: C_17  and  C_20
    9  A    between atoms: C_17  and  N_44
   10  A    between atoms: C_19  and  C_41
   11  A    between atoms: C_22  and  C_42
   12  A    between atoms: C_31  and  C_38
                            x       y       z     vdW  Elec       q    Type
                         _______ _______ _______ _____ _____    ______ ____

>  <TORSDO>
F 12

$$$$
=
 OpenBabel11042417073D

 44 47  0  0  1  0  0  0  0  0999 V2000
  191.6630  172.3850  140.6390 C   0  0  0  0  0  0  0  0  0  0  0  0
  195.7160  172.8240  139.3560 C   0  0  0  0  0  3  0  0  0  0  0  0
  195.0330  172.2620  138.2250 N   0  0  0  0  0  0  0  0  0  0  0  0
  191.9360  171.4380  139.6750 O   0  0  0  0  0  0  0  0  0  0  0  0
  190.8620  174.2200  141.7620 C   0  0  0  0  0  0  0  0  0  0  0  0
  193.9150  172.1000  140.7270 N   0  0  0  0  0  0  0  0  0  0  0  0
  193.9510  171.5420  138.3180 C   0  0  0  0  0  0  0  0  0  0  0  0
  190.5420  173.1610  140.8970 C   0  0  0  0  0  0  0  0  0  0  0  0
  189.2240  172.9700  140.2270 C   0  0  0  0  0  1  0  0  0  0  0  0
  193.3730  171.0210  137.1170 N   0  0  0  0  0  2  0  0  0  0  0  0
  192.5330  174.1550  142.1390 S   0  0  0  0  0  0  0  0  0  0  0  0
  195.1880  172.7440  140.5750 C   0  0  0  0  0  0  0  0  0  0  0  0
  192.7730  172.7260  141.2910 C   0  0  0  0  0  0  0  0  0  0  0  0
  193.3600  171.2090  139.6760 C   0  0  2  0  0  3  0  0  0  0  0  0
  190.5850  176.5980  142.5750 C   0  0  0  0  0  2  0  0  0  0  0  0
  189.8920  175.2690  142.2270 C   0  0  0  0  0  3  0  0  0  0  0  0
  188.0520  175.7960  143.8960 C   0  0  0  0  0  2  0  0  0  0  0  0
  189.7890  177.4140  143.5990 C   0  0  0  0  0  2  0  0  0  0  0  0
  189.0670  174.7490  143.4060 C   0  0  0  0  0  2  0  0  0  0  0  0
  188.3560  177.1600  143.4370 N   0  0  0  0  0  0  0  0  0  0  0  0
  187.6430  178.0620  144.3300 C   0  0  0  0  0  2  0  0  0  0  0  0
  185.1820  178.7920  144.3350 N   0  0  0  0  0  2  0  0  0  0  0  0
  184.9130  178.6120  145.7340 C   0  0  0  0  0  0  0  0  0  0  0  0
  186.4340  178.6330  143.6540 C   0  0  0  0  0  0  0  0  0  0  0  0
  186.5030  178.9290  142.4310 O   0  0  0  0  0  0  0  0  0  0  0  0
  183.6850  178.6670  146.1400 N   0  0  0  0  0  2  0  0  0  0  0  0
  185.9390  179.4650  147.8320 C   0  0  0  0  0  1  0  0  0  0  0  0
  186.0150  178.4230  146.7330 C   0  0  0  0  0  3  0  0  0  0  0  0
  185.9770  177.0300  147.3320 C   0  0  0  0  0  1  0  0  0  0  0  0
  196.0470  174.5650  141.9520 C   0  0  0  0  0  0  0  0  0  0  0  0
  196.3990  176.7490  141.2000 O   0  0  0  0  0  1  0  0  0  0  0  0
  195.9430  173.2850  141.7140 C   0  0  0  0  0  3  0  0  0  0  0  0
  196.1510  175.8370  142.2190 C   0  0  0  0  0  0  0  0  0  0  0  0
  195.9790  176.3130  143.6190 C   0  0  0  0  0  2  0  0  0  0  0  0
  194.9320  175.5470  144.2750 N   0  0  0  0  0  2  0  0  0  0  0  0
  194.0440  176.5100  144.9030 C   0  0  0  0  0  2  0  0  0  0  0  0
  194.5680  177.5480  146.9620 F   0  0  0  0  0  0  0  0  0  0  0  0
  194.0920  176.3720  146.4150 C   0  0  0  0  0  0  0  0  0  0  0  0
  192.8240  176.1220  146.9080 F   0  0  0  0  0  0  0  0  0  0  0  0
  194.9350  175.3350  146.7680 F   0  0  0  0  0  0  0  0  0  0  0  0
  192.2890  170.0510  137.1060 C   0  0  0  0  0  2  0  0  0  0  0  0
  191.2960  170.4160  136.0210 C   0  0  0  0  0  2  0  0  0  0  0  0
  189.7340  172.2460  136.6000 C   0  0  0  0  0  1  0  0  0  0  0  0
  189.9610  170.7480  136.6520 C   0  0  0  0  0  2  0  0  0  0  0  0
  1  8  1  0  0  0  0
  1 13  2  0  0  0  0
  2 12  2  0  0  0  0
  3  7  2  0  0  0  0
  3  2  1  0  0  0  0
  4 14  1  0  0  0  0
  4  1  1  0  0  0  0
  5 11  1  0  0  0  0
  5 16  1  0  0  0  0
  6 13  1  0  0  0  0
  8  5  2  0  0  0  0
  9  8  1  0  0  0  0
 10  7  1  0  0  0  0
 12  6  1  0  0  0  0
 12 32  1  0  0  0  0
 13 11  1  0  0  0  0
 14  7  1  6  0  0  0
 14  6  1  0  0  0  0
 15 18  1  0  0  0  0
 16 15  1  0  0  0  0
 16 19  1  0  0  0  0
 19 17  1  0  0  0  0
 20 18  1  0  0  0  0
 20 17  1  0  0  0  0
 20 21  1  0  0  0  0
 22 23  1  0  0  0  0
 23 26  2  0  0  0  0
 23 28  1  0  0  0  0
 24 21  1  0  0  0  0
 24 22  1  0  0  0  0
 25 24  2  0  0  0  0
 28 29  1  0  0  0  0
 28 27  1  0  0  0  0
 30 33  2  0  0  0  0
 31 33  1  0  0  0  0
 32 30  2  0  0  0  0
 33 34  1  0  0  0  0
 34 35  1  0  0  0  0
 35 36  1  0  0  0  0
 36 38  1  0  0  0  0
 38 40  1  0  0  0  0
 38 39  1  0  0  0  0
 38 37  1  0  0  0  0
 41 10  1  0  0  0  0
 42 44  1  0  0  0  0
 42 41  1  0  0  0  0
 43 44  1  0  0  0  0
M  END
>  <MODEL>
9

>  <REMARK>
 VINA RESULT:      -6.2      2.619      3.843
  Name = 
  12 active torsions:
  status: ('A' for Active; 'I' for Inactive)
    1  A    between atoms: N_4  and  C_19
    2  A    between atoms: N_4  and  C_26
    3  A    between atoms: C_8  and  N_30
    4  A    between atoms: C_8  and  C_42
    5  A    between atoms: C_10  and  C_26
    6  A    between atoms: C_12  and  C_32
    7  A    between atoms: C_15  and  C_24
    8  A    between atoms: C_17  and  C_20
    9  A    between atoms: C_17  and  N_44
   10  A    between atoms: C_19  and  C_41
   11  A    between atoms: C_22  and  C_42
   12  A    between atoms: C_31  and  C_38
                            x       y       z     vdW  Elec       q    Type
                         _______ _______ _______ _____ _____    ______ ____

>  <TORSDO>
F 12

$$$$
