=
 OpenBabel11042415543D

 50 55  0  0  1  0  0  0  0  0999 V2000
  187.9280  176.3130  146.4520 C   0  0  0  0  0  0  0  0  0  0  0  0
  189.0730  176.1560  145.5060 C   0  0  2  0  0  3  0  0  0  0  0  0
  189.2570  174.7040  147.3190 C   0  0  0  0  0  3  0  0  0  0  0  0
  189.8670  175.1060  146.2110 C   0  0  0  0  0  0  0  0  0  0  0  0
  188.0400  175.4810  147.4810 C   0  0  0  0  0  3  0  0  0  0  0  0
  185.6860  177.0910  144.9620 S   0  0  0  0  0  0  0  0  0  0  0  0
  186.7850  177.2210  146.2350 C   0  0  0  0  0  0  0  0  0  0  0  0
  186.4020  178.3170  147.0170 C   0  0  0  0  0  0  0  0  0  0  0  0
  187.1050  178.7340  148.1830 N   0  0  0  0  0  1  0  0  0  0  0  0
  183.6310  178.9060  144.8090 N   0  0  0  0  0  1  0  0  0  0  0  0
  185.2980  178.9850  146.5860 N   0  0  0  0  0  0  0  0  0  0  0  0
  184.7950  178.4230  145.4680 C   0  0  0  0  0  0  0  0  0  0  0  0
  191.0880  174.4640  145.6210 C   0  0  0  0  0  2  0  0  0  0  0  0
  190.8080  173.7210  144.3220 C   0  0  2  0  0  3  0  0  0  0  0  0
  190.4840  172.3900  144.5910 O   0  0  0  0  0  1  0  0  0  0  0  0
  191.9930  173.7700  143.4780 N   0  0  0  0  0  2  0  0  0  0  0  0
  193.3290  173.8100  143.9870 C   0  0  0  0  0  0  0  0  0  0  0  0
  193.9060  172.5860  144.9250 S   0  0  0  0  0  0  0  0  0  0  0  0
  193.6490  175.7470  142.3580 C   0  0  1  0  0  3  0  0  0  0  0  0
  195.8810  176.7740  144.1030 C   0  0  0  0  0  2  0  0  0  0  0  0
  196.0440  175.9920  141.6940 N   0  0  0  0  0  2  0  0  0  0  0  0
  193.8570  176.4070  145.4900 C   0  0  0  0  0  1  0  0  0  0  0  0
  194.8930  175.7200  144.6160 C   0  0  1  0  0  3  0  0  0  0  0  0
  193.9300  175.1640  141.1100 O   0  0  0  0  0  0  0  0  0  0  0  0
  196.6810  176.2630  142.9480 C   0  0  0  0  0  0  0  0  0  0  0  0
  194.2450  174.8890  143.4830 C   0  0  1  0  0  3  0  0  0  0  0  0
  197.8910  175.9630  143.1130 O   0  0  0  0  0  0  0  0  0  0  0  0
  194.6490  176.3380  141.4080 C   0  0  1  0  0  3  0  0  0  0  0  0
  189.8340  177.3960  145.4310 N   0  0  0  0  0  2  0  0  0  0  0  0
  191.1510  178.2480  143.5720 C   0  0  0  0  0  1  0  0  0  0  0  0
  189.7610  177.8630  144.0560 C   0  0  1  0  0  3  0  0  0  0  0  0
  189.1720  176.7720  143.1730 C   0  0  0  0  0  2  0  0  0  0  0  0
  187.6070  178.5050  142.3180 C   0  0  0  0  0  1  0  0  0  0  0  0
  188.5400  177.3760  141.9260 C   0  0  2  0  0  3  0  0  0  0  0  0
  187.7490  176.3220  141.1650 C   0  0  0  0  0  2  0  0  0  0  0  0
  188.4670  174.9820  141.1700 C   0  0  0  0  0  2  0  0  0  0  0  0
  187.9010  174.1170  142.1940 N   0  0  0  0  0  2  0  0  0  0  0  0
  187.9320  172.7600  141.6700 C   0  0  0  0  0  2  0  0  0  0  0  0
  190.8450  172.9800  138.4190 C   0  0  2  0  0  3  0  0  0  0  0  0
  188.8490  172.7080  140.5420 N   0  0  0  0  0  2  0  0  0  0  0  0
  193.3630  172.9340  138.3490 C   0  0  0  0  0  2  0  0  0  0  0  0
  192.1050  171.0550  139.3810 C   0  0  0  0  0  2  0  0  0  0  0  0
  190.9430  171.9470  139.4640 N   0  0  0  0  0  0  0  0  0  0  0  0
  190.0160  171.8860  140.5520 C   0  0  0  0  0  0  0  0  0  0  0  0
  190.8140  172.3410  137.1410 O   0  0  0  0  0  0  0  0  0  0  0  0
  190.2220  171.0890  141.5130 O   0  0  0  0  0  0  0  0  0  0  0  0
  192.9140  171.4780  138.1510 C   0  0  1  0  0  0  0  0  0  0  0  0
  192.1210  173.8450  138.5020 C   0  0  0  0  0  2  0  0  0  0  0  0
  191.9380  171.4670  136.9560 C   0  0  0  0  0  2  0  0  0  0  0  0
  193.9990  170.6300  137.9370 O   0  0  0  0  0  1  0  0  0  0  0  0
  1  5  2  0  0  0  0
  2 29  1  1  0  0  0
  2  4  1  0  0  0  0
  2  1  1  0  0  0  0
  3  5  1  0  0  0  0
  4  3  2  0  0  0  0
  6 12  1  0  0  0  0
  6  7  1  0  0  0  0
  7  1  1  0  0  0  0
  7  8  2  0  0  0  0
  8  9  1  0  0  0  0
 10 12  1  0  0  0  0
 11  8  1  0  0  0  0
 12 11  2  0  0  0  0
 13  4  1  0  0  0  0
 14 15  1  1  0  0  0
 14 13  1  0  0  0  0
 16 17  1  0  0  0  0
 16 14  1  0  0  0  0
 17 18  2  0  0  0  0
 19 24  1  6  0  0  0
 19 26  1  0  0  0  0
 20 23  1  0  0  0  0
 21 25  1  0  0  0  0
 23 22  1  6  0  0  0
 25 27  2  0  0  0  0
 25 20  1  0  0  0  0
 26 17  1  1  0  0  0
 26 23  1  0  0  0  0
 28 24  1  6  0  0  0
 28 21  1  0  0  0  0
 28 19  1  0  0  0  0
 31 30  1  6  0  0  0
 31 29  1  0  0  0  0
 32 31  1  0  0  0  0
 34 33  1  1  0  0  0
 34 32  1  0  0  0  0
 35 36  1  0  0  0  0
 35 34  1  0  0  0  0
 36 37  1  0  0  0  0
 38 37  1  0  0  0  0
 39 48  1  6  0  0  0
 39 43  1  0  0  0  0
 40 44  1  0  0  0  0
 40 38  1  0  0  0  0
 41 48  1  0  0  0  0
 42 43  1  0  0  0  0
 43 44  1  0  0  0  0
 44 46  2  0  0  0  0
 45 39  1  0  0  0  0
 47 50  1  6  0  0  0
 47 41  1  0  0  0  0
 47 42  1  0  0  0  0
 49 45  1  0  0  0  0
 49 47  1  0  0  0  0
M  END
>  <MODEL>
1

>  <REMARK>
 VINA RESULT:      -7.1      0.000      0.000
  Name = 
  15 active torsions:
  status: ('A' for Active; 'I' for Inactive)
    1  A    between atoms: C_1  and  C_24
    2  A    between atoms: C_1  and  C_30
    3  A    between atoms: C_2  and  N_12
    4  A    between atoms: C_2  and  N_39
    5  A    between atoms: C_5  and  N_13
    6  A    between atoms: C_5  and  C_41
    7  A    between atoms: C_8  and  C_9
    8  A    between atoms: C_10  and  N_31
    9  A    between atoms: N_13  and  C_36
   10  A    between atoms: C_18  and  C_36
   11  A    between atoms: C_18  and  C_38
   12  A    between atoms: C_24  and  C_33
   13  A    between atoms: C_30  and  N_39
   14  A    between atoms: N_31  and  C_44
   15  A    between atoms: C_33  and  C_44
                            x       y       z     vdW  Elec       q    Type
                         _______ _______ _______ _____ _____    ______ ____

>  <TORSDO>
F 15

$$$$
=
 OpenBabel11042415543D

 50 55  0  0  1  0  0  0  0  0999 V2000
  189.3020  173.7340  142.4750 C   0  0  0  0  0  0  0  0  0  0  0  0
  190.7660  173.8200  142.7580 C   0  0  2  0  0  3  0  0  0  0  0  0
  189.8730  171.7950  143.4850 C   0  0  0  0  0  3  0  0  0  0  0  0
  190.9890  172.5110  143.4400 C   0  0  0  0  0  0  0  0  0  0  0  0
  188.8020  172.5770  142.8900 C   0  0  0  0  0  3  0  0  0  0  0  0
  187.7140  176.0420  142.5080 S   0  0  0  0  0  0  0  0  0  0  0  0
  188.5290  174.7680  141.7610 C   0  0  0  0  0  0  0  0  0  0  0  0
  188.3370  174.8930  140.3800 C   0  0  0  0  0  0  0  0  0  0  0  0
  188.8800  173.9860  139.4260 N   0  0  0  0  0  1  0  0  0  0  0  0
  186.3680  177.8450  140.9350 N   0  0  0  0  0  1  0  0  0  0  0  0
  187.5750  175.9510  139.9900 N   0  0  0  0  0  0  0  0  0  0  0  0
  187.1650  176.6740  141.0520 C   0  0  0  0  0  0  0  0  0  0  0  0
  192.3480  172.0110  143.8350 C   0  0  0  0  0  2  0  0  0  0  0  0
  193.4050  172.2340  142.7630 C   0  0  2  0  0  3  0  0  0  0  0  0
  192.9780  171.6930  141.5480 O   0  0  0  0  0  1  0  0  0  0  0  0
  194.6440  171.5900  143.1710 N   0  0  0  0  0  2  0  0  0  0  0  0
  195.8160  172.3060  143.5730 C   0  0  0  0  0  0  0  0  0  0  0  0
  196.8570  171.6610  144.6740 S   0  0  0  0  0  0  0  0  0  0  0  0
  197.3680  174.3220  143.4030 C   0  0  1  0  0  3  0  0  0  0  0  0
  196.5470  174.6430  140.5220 C   0  0  0  0  0  2  0  0  0  0  0  0
  196.1950  176.2950  142.4170 N   0  0  0  0  0  2  0  0  0  0  0  0
  197.2920  172.3090  140.9070 C   0  0  0  0  0  1  0  0  0  0  0  0
  196.2540  173.3510  141.2910 C   0  0  1  0  0  3  0  0  0  0  0  0
  196.9280  175.2370  144.3760 O   0  0  0  0  0  0  0  0  0  0  0  0
  195.8320  175.8130  141.1170 C   0  0  0  0  0  0  0  0  0  0  0  0
  196.1710  173.5580  142.8220 C   0  0  1  0  0  3  0  0  0  0  0  0
  194.8350  176.3010  140.5250 O   0  0  0  0  0  0  0  0  0  0  0  0
  197.3580  175.8040  143.1610 C   0  0  1  0  0  3  0  0  0  0  0  0
  191.0350  174.9180  143.6770 N   0  0  0  0  0  2  0  0  0  0  0  0
  191.6850  177.1400  142.9300 C   0  0  0  0  0  1  0  0  0  0  0  0
  192.1260  175.6950  143.1130 C   0  0  1  0  0  3  0  0  0  0  0  0
  193.3380  175.6210  144.0300 C   0  0  0  0  0  2  0  0  0  0  0  0
  194.4250  177.2210  145.5940 C   0  0  0  0  0  1  0  0  0  0  0  0
  193.1350  176.4980  145.2580 C   0  0  2  0  0  3  0  0  0  0  0  0
  192.7160  175.6540  146.4530 C   0  0  0  0  0  2  0  0  0  0  0  0
  192.4930  176.5150  147.6860 C   0  0  0  0  0  2  0  0  0  0  0  0
  191.1560  176.2910  148.2160 N   0  0  0  0  0  2  0  0  0  0  0  0
  190.4990  175.3450  147.3270 C   0  0  0  0  0  2  0  0  0  0  0  0
  186.4390  176.9100  146.9190 C   0  0  2  0  0  3  0  0  0  0  0  0
  189.1450  175.8050  147.0620 N   0  0  0  0  0  2  0  0  0  0  0  0
  185.4890  179.2410  146.7940 C   0  0  0  0  0  2  0  0  0  0  0  0
  187.1980  178.4950  145.1490 C   0  0  0  0  0  2  0  0  0  0  0  0
  187.5370  177.4070  146.0740 N   0  0  0  0  0  0  0  0  0  0  0  0
  188.8770  176.9280  146.2210 C   0  0  0  0  0  0  0  0  0  0  0  0
  185.3800  176.4510  146.0760 O   0  0  0  0  0  0  0  0  0  0  0  0
  189.8210  177.4880  145.5920 O   0  0  0  0  0  0  0  0  0  0  0  0
  185.7080  178.8000  145.3380 C   0  0  1  0  0  0  0  0  0  0  0  0
  185.9190  178.1030  147.7510 C   0  0  0  0  0  2  0  0  0  0  0  0
  184.9570  177.4670  145.1530 C   0  0  0  0  0  2  0  0  0  0  0  0
  185.2680  179.7690  144.4370 O   0  0  0  0  0  1  0  0  0  0  0  0
  1  2  1  0  0  0  0
  1  5  2  0  0  0  0
  2  4  1  0  0  0  0
  2 29  1  1  0  0  0
  4  3  2  0  0  0  0
  4 13  1  0  0  0  0
  5  3  1  0  0  0  0
  7  1  1  0  0  0  0
  7  6  1  0  0  0  0
  8  7  2  0  0  0  0
  9  8  1  0  0  0  0
 10 12  1  0  0  0  0
 11  8  1  0  0  0  0
 11 12  2  0  0  0  0
 12  6  1  0  0  0  0
 14 15  1  6  0  0  0
 14 16  1  0  0  0  0
 14 13  1  0  0  0  0
 16 17  1  0  0  0  0
 17 18  2  0  0  0  0
 19 24  1  1  0  0  0
 20 25  1  0  0  0  0
 20 23  1  0  0  0  0
 23 22  1  1  0  0  0
 23 26  1  0  0  0  0
 25 21  1  0  0  0  0
 26 19  1  0  0  0  0
 26 17  1  1  0  0  0
 27 25  2  0  0  0  0
 28 21  1  6  0  0  0
 28 19  1  0  0  0  0
 28 24  1  0  0  0  0
 31 30  1  1  0  0  0
 31 29  1  0  0  0  0
 31 32  1  0  0  0  0
 32 34  1  0  0  0  0
 34 33  1  1  0  0  0
 34 35  1  0  0  0  0
 35 36  1  0  0  0  0
 36 37  1  0  0  0  0
 38 37  1  0  0  0  0
 39 48  1  1  0  0  0
 40 38  1  0  0  0  0
 41 48  1  0  0  0  0
 42 47  1  0  0  0  0
 42 43  1  0  0  0  0
 43 44  1  0  0  0  0
 43 39  1  0  0  0  0
 44 40  1  0  0  0  0
 45 39  1  0  0  0  0
 46 44  2  0  0  0  0
 47 50  1  6  0  0  0
 47 41  1  0  0  0  0
 49 47  1  0  0  0  0
 49 45  1  0  0  0  0
M  END
>  <MODEL>
2

>  <REMARK>
 VINA RESULT:      -7.0      2.714      6.960
  Name = 
  15 active torsions:
  status: ('A' for Active; 'I' for Inactive)
    1  A    between atoms: C_1  and  C_24
    2  A    between atoms: C_1  and  C_30
    3  A    between atoms: C_2  and  N_12
    4  A    between atoms: C_2  and  N_39
    5  A    between atoms: C_5  and  N_13
    6  A    between atoms: C_5  and  C_41
    7  A    between atoms: C_8  and  C_9
    8  A    between atoms: C_10  and  N_31
    9  A    between atoms: N_13  and  C_36
   10  A    between atoms: C_18  and  C_36
   11  A    between atoms: C_18  and  C_38
   12  A    between atoms: C_24  and  C_33
   13  A    between atoms: C_30  and  N_39
   14  A    between atoms: N_31  and  C_44
   15  A    between atoms: C_33  and  C_44
                            x       y       z     vdW  Elec       q    Type
                         _______ _______ _______ _____ _____    ______ ____

>  <TORSDO>
F 15

$$$$
=
 OpenBabel11042415543D

 50 55  0  0  1  0  0  0  0  0999 V2000
  187.8160  176.3420  146.3260 C   0  0  0  0  0  0  0  0  0  0  0  0
  188.9820  176.1180  145.4180 C   0  0  2  0  0  3  0  0  0  0  0  0
  189.0960  174.7590  147.3070 C   0  0  0  0  0  3  0  0  0  0  0  0
  189.7400  175.0940  146.1960 C   0  0  0  0  0  0  0  0  0  0  0  0
  187.8880  175.5620  147.3980 C   0  0  0  0  0  3  0  0  0  0  0  0
  185.7310  177.1790  144.6520 S   0  0  0  0  0  0  0  0  0  0  0  0
  186.6950  177.2550  146.0330 C   0  0  0  0  0  0  0  0  0  0  0  0
  186.2260  178.3140  146.8200 C   0  0  0  0  0  0  0  0  0  0  0  0
  186.8040  178.6820  148.0690 N   0  0  0  0  0  1  0  0  0  0  0  0
  183.6900  178.9920  144.3700 N   0  0  0  0  0  1  0  0  0  0  0  0
  185.1670  178.9970  146.3080 N   0  0  0  0  0  0  0  0  0  0  0  0
  184.7840  178.4840  145.1210 C   0  0  0  0  0  0  0  0  0  0  0  0
  190.9650  174.4040  145.6710 C   0  0  0  0  0  2  0  0  0  0  0  0
  192.2600  175.1030  146.0590 C   0  0  2  0  0  3  0  0  0  0  0  0
  192.0160  176.0440  147.0620 O   0  0  0  0  0  1  0  0  0  0  0  0
  192.8110  175.7740  144.8910 N   0  0  0  0  0  2  0  0  0  0  0  0
  194.1750  176.1920  144.7850 C   0  0  0  0  0  0  0  0  0  0  0  0
  194.7770  177.3510  145.7880 S   0  0  0  0  0  0  0  0  0  0  0  0
  196.4530  176.0660  143.6460 C   0  0  1  0  0  3  0  0  0  0  0  0
  196.0460  173.1020  143.2810 C   0  0  0  0  0  2  0  0  0  0  0  0
  196.3160  174.8550  141.4650 N   0  0  0  0  0  2  0  0  0  0  0  0
  195.6830  173.6940  145.6630 C   0  0  0  0  0  1  0  0  0  0  0  0
  195.1730  173.9110  144.2470 C   0  0  1  0  0  3  0  0  0  0  0  0
  196.3870  176.9360  142.5430 O   0  0  0  0  0  0  0  0  0  0  0  0
  195.8690  173.5550  141.8680 C   0  0  0  0  0  0  0  0  0  0  0  0
  195.0850  175.4110  143.8800 C   0  0  1  0  0  3  0  0  0  0  0  0
  195.2220  172.8380  141.0610 O   0  0  0  0  0  0  0  0  0  0  0  0
  197.1000  175.7400  142.3310 C   0  0  1  0  0  3  0  0  0  0  0  0
  189.7660  177.3410  145.3010 N   0  0  0  0  0  2  0  0  0  0  0  0
  191.1020  178.3430  143.5320 C   0  0  0  0  0  1  0  0  0  0  0  0
  189.7630  177.7210  143.8980 C   0  0  1  0  0  3  0  0  0  0  0  0
  189.4920  176.4960  143.0350 C   0  0  0  0  0  2  0  0  0  0  0  0
  187.8800  178.0970  142.0210 C   0  0  0  0  0  1  0  0  0  0  0  0
  188.7620  176.8910  141.7580 C   0  0  2  0  0  3  0  0  0  0  0  0
  187.8950  175.7440  141.2610 C   0  0  0  0  0  2  0  0  0  0  0  0
  187.7440  174.6660  142.3230 C   0  0  0  0  0  2  0  0  0  0  0  0
  187.9300  173.3500  141.7290 N   0  0  0  0  0  2  0  0  0  0  0  0
  189.2180  172.8550  142.1880 C   0  0  0  0  0  2  0  0  0  0  0  0
  190.4820  170.1340  139.0090 C   0  0  2  0  0  3  0  0  0  0  0  0
  189.7730  171.9660  141.1790 N   0  0  0  0  0  2  0  0  0  0  0  0
  190.4540  170.2840  136.4940 C   0  0  0  0  0  2  0  0  0  0  0  0
  191.6490  172.0010  137.8370 C   0  0  0  0  0  2  0  0  0  0  0  0
  190.8750  171.5530  139.0010 N   0  0  0  0  0  0  0  0  0  0  0  0
  190.4400  172.4620  140.0170 C   0  0  0  0  0  0  0  0  0  0  0  0
  191.6590  169.3290  138.9320 O   0  0  0  0  0  0  0  0  0  0  0  0
  190.6620  173.7010  139.8950 O   0  0  0  0  0  0  0  0  0  0  0  0
  191.8410  170.7840  136.9270 C   0  0  1  0  0  0  0  0  0  0  0  0
  189.6340  169.8820  137.7430 C   0  0  0  0  0  2  0  0  0  0  0  0
  192.4680  169.6760  137.7970 C   0  0  0  0  0  2  0  0  0  0  0  0
  192.6420  171.0910  135.8280 O   0  0  0  0  0  1  0  0  0  0  0  0
  1  5  2  0  0  0  0
  2 29  1  1  0  0  0
  2  4  1  0  0  0  0
  2  1  1  0  0  0  0
  3  5  1  0  0  0  0
  4  3  2  0  0  0  0
  6 12  1  0  0  0  0
  6  7  1  0  0  0  0
  7  1  1  0  0  0  0
  7  8  2  0  0  0  0
  8  9  1  0  0  0  0
 10 12  1  0  0  0  0
 11  8  1  0  0  0  0
 12 11  2  0  0  0  0
 13 14  1  0  0  0  0
 13  4  1  0  0  0  0
 14 15  1  1  0  0  0
 16 14  1  0  0  0  0
 17 16  1  0  0  0  0
 17 18  2  0  0  0  0
 19 24  1  6  0  0  0
 19 26  1  0  0  0  0
 20 23  1  0  0  0  0
 21 25  1  0  0  0  0
 23 22  1  1  0  0  0
 25 20  1  0  0  0  0
 26 23  1  0  0  0  0
 26 17  1  1  0  0  0
 27 25  2  0  0  0  0
 28 21  1  6  0  0  0
 28 24  1  0  0  0  0
 28 19  1  0  0  0  0
 31 30  1  6  0  0  0
 31 29  1  0  0  0  0
 32 31  1  0  0  0  0
 34 33  1  1  0  0  0
 34 32  1  0  0  0  0
 35 34  1  0  0  0  0
 35 36  1  0  0  0  0
 37 38  1  0  0  0  0
 37 36  1  0  0  0  0
 39 48  1  6  0  0  0
 40 38  1  0  0  0  0
 41 47  1  0  0  0  0
 41 48  1  0  0  0  0
 42 43  1  0  0  0  0
 43 39  1  0  0  0  0
 43 44  1  0  0  0  0
 44 40  1  0  0  0  0
 45 39  1  0  0  0  0
 46 44  2  0  0  0  0
 47 50  1  6  0  0  0
 47 49  1  0  0  0  0
 47 42  1  0  0  0  0
 49 45  1  0  0  0  0
M  END
>  <MODEL>
3

>  <REMARK>
 VINA RESULT:      -7.0      1.710      2.262
  Name = 
  15 active torsions:
  status: ('A' for Active; 'I' for Inactive)
    1  A    between atoms: C_1  and  C_24
    2  A    between atoms: C_1  and  C_30
    3  A    between atoms: C_2  and  N_12
    4  A    between atoms: C_2  and  N_39
    5  A    between atoms: C_5  and  N_13
    6  A    between atoms: C_5  and  C_41
    7  A    between atoms: C_8  and  C_9
    8  A    between atoms: C_10  and  N_31
    9  A    between atoms: N_13  and  C_36
   10  A    between atoms: C_18  and  C_36
   11  A    between atoms: C_18  and  C_38
   12  A    between atoms: C_24  and  C_33
   13  A    between atoms: C_30  and  N_39
   14  A    between atoms: N_31  and  C_44
   15  A    between atoms: C_33  and  C_44
                            x       y       z     vdW  Elec       q    Type
                         _______ _______ _______ _____ _____    ______ ____

>  <TORSDO>
F 15

$$$$
=
 OpenBabel11042415543D

 50 55  0  0  1  0  0  0  0  0999 V2000
  195.1240  175.9710  144.6410 C   0  0  0  0  0  0  0  0  0  0  0  0
  194.2010  174.9560  145.2320 C   0  0  2  0  0  3  0  0  0  0  0  0
  194.0240  177.0090  146.3200 C   0  0  0  0  0  3  0  0  0  0  0  0
  193.5780  175.7590  146.3260 C   0  0  0  0  0  0  0  0  0  0  0  0
  195.0160  177.1380  145.2650 C   0  0  0  0  0  3  0  0  0  0  0  0
  195.6590  176.2650  141.9070 S   0  0  0  0  0  0  0  0  0  0  0  0
  195.9900  175.7290  143.4710 C   0  0  0  0  0  0  0  0  0  0  0  0
  197.2100  175.0420  143.4360 C   0  0  0  0  0  0  0  0  0  0  0  0
  197.8070  174.4420  144.5810 N   0  0  0  0  0  1  0  0  0  0  0  0
  197.4580  175.6950  139.9130 N   0  0  0  0  0  1  0  0  0  0  0  0
  197.8030  174.9690  142.2140 N   0  0  0  0  0  0  0  0  0  0  0  0
  197.0670  175.6000  141.2760 C   0  0  0  0  0  0  0  0  0  0  0  0
  192.4520  175.2530  147.1790 C   0  0  0  0  0  2  0  0  0  0  0  0
  191.3620  176.2890  147.4110 C   0  0  2  0  0  3  0  0  0  0  0  0
  191.4970  176.8510  148.6830 O   0  0  0  0  0  1  0  0  0  0  0  0
  190.0600  175.6480  147.3020 N   0  0  0  0  0  2  0  0  0  0  0  0
  189.4290  175.3430  146.0550 C   0  0  0  0  0  0  0  0  0  0  0  0
  189.7500  173.9280  145.2760 S   0  0  0  0  0  0  0  0  0  0  0  0
  187.7530  177.1650  146.6700 C   0  0  1  0  0  3  0  0  0  0  0  0
  187.5100  177.8520  143.7460 C   0  0  0  0  0  2  0  0  0  0  0  0
  185.6800  177.0020  145.2850 N   0  0  0  0  0  2  0  0  0  0  0  0
  189.9050  177.8510  144.3920 C   0  0  0  0  0  1  0  0  0  0  0  0
  188.6630  176.9850  144.2640 C   0  0  1  0  0  3  0  0  0  0  0  0
  186.7000  176.5170  147.3400 O   0  0  0  0  0  0  0  0  0  0  0  0
  186.1860  177.1930  143.9580 C   0  0  0  0  0  0  0  0  0  0  0  0
  188.3260  176.2470  145.5820 C   0  0  1  0  0  3  0  0  0  0  0  0
  185.5690  176.7020  142.9780 O   0  0  0  0  0  0  0  0  0  0  0  0
  186.3190  177.5640  146.4780 C   0  0  1  0  0  3  0  0  0  0  0  0
  194.9650  173.8500  145.7940 N   0  0  0  0  0  2  0  0  0  0  0  0
  193.3580  172.8990  144.2350 C   0  0  0  0  0  1  0  0  0  0  0  0
  194.2950  172.6210  145.4010 C   0  0  1  0  0  3  0  0  0  0  0  0
  195.3290  171.5730  145.0150 C   0  0  0  0  0  2  0  0  0  0  0  0
  194.8640  169.6110  146.4710 C   0  0  0  0  0  1  0  0  0  0  0  0
  194.7230  170.1770  145.0710 C   0  0  2  0  0  3  0  0  0  0  0  0
  195.4260  169.2500  144.0900 C   0  0  0  0  0  2  0  0  0  0  0  0
  194.7480  169.2690  142.7300 C   0  0  0  0  0  2  0  0  0  0  0  0
  195.6990  169.6680  141.7030 N   0  0  0  0  0  2  0  0  0  0  0  0
  195.3470  171.0200  141.2990 C   0  0  0  0  0  2  0  0  0  0  0  0
  190.9990  171.1640  140.8750 C   0  0  2  0  0  3  0  0  0  0  0  0
  193.9210  171.0750  141.0160 N   0  0  0  0  0  2  0  0  0  0  0  0
  189.2490  172.8370  141.5720 C   0  0  0  0  0  2  0  0  0  0  0  0
  191.1250  173.5290  140.0950 C   0  0  0  0  0  2  0  0  0  0  0  0
  191.8390  172.3210  140.5240 N   0  0  0  0  0  0  0  0  0  0  0  0
  193.2600  172.2990  140.6900 C   0  0  0  0  0  0  0  0  0  0  0  0
  190.1960  170.8170  139.7460 O   0  0  0  0  0  0  0  0  0  0  0  0
  193.9320  173.3590  140.5300 O   0  0  0  0  0  0  0  0  0  0  0  0
  189.6280  173.2060  140.1290 C   0  0  1  0  0  0  0  0  0  0  0  0
  190.0650  171.6020  142.0240 C   0  0  0  0  0  2  0  0  0  0  0  0
  189.4310  171.9380  139.2740 C   0  0  0  0  0  2  0  0  0  0  0  0
  188.8650  174.2710  139.6540 O   0  0  0  0  0  1  0  0  0  0  0  0
  1  2  1  0  0  0  0
  1  5  2  0  0  0  0
  2 29  1  1  0  0  0
  2  4  1  0  0  0  0
  3  4  2  0  0  0  0
  4 13  1  0  0  0  0
  5  3  1  0  0  0  0
  6  7  1  0  0  0  0
  7  1  1  0  0  0  0
  8  7  2  0  0  0  0
  8  9  1  0  0  0  0
 10 12  1  0  0  0  0
 11  8  1  0  0  0  0
 12  6  1  0  0  0  0
 12 11  2  0  0  0  0
 13 14  1  0  0  0  0
 14 15  1  1  0  0  0
 16 14  1  0  0  0  0
 17 16  1  0  0  0  0
 18 17  2  0  0  0  0
 19 24  1  1  0  0  0
 20 25  1  0  0  0  0
 20 23  1  0  0  0  0
 23 22  1  1  0  0  0
 23 26  1  0  0  0  0
 25 21  1  0  0  0  0
 26 17  1  1  0  0  0
 26 19  1  0  0  0  0
 27 25  2  0  0  0  0
 28 21  1  6  0  0  0
 28 19  1  0  0  0  0
 28 24  1  0  0  0  0
 31 30  1  6  0  0  0
 31 29  1  0  0  0  0
 32 34  1  0  0  0  0
 32 31  1  0  0  0  0
 34 33  1  1  0  0  0
 35 34  1  0  0  0  0
 36 35  1  0  0  0  0
 37 36  1  0  0  0  0
 38 37  1  0  0  0  0
 39 48  1  1  0  0  0
 40 38  1  0  0  0  0
 41 48  1  0  0  0  0
 42 47  1  0  0  0  0
 42 43  1  0  0  0  0
 43 44  1  0  0  0  0
 43 39  1  0  0  0  0
 44 40  1  0  0  0  0
 45 39  1  0  0  0  0
 46 44  2  0  0  0  0
 47 50  1  6  0  0  0
 47 41  1  0  0  0  0
 49 45  1  0  0  0  0
 49 47  1  0  0  0  0
M  END
>  <MODEL>
4

>  <REMARK>
 VINA RESULT:      -6.9      3.015      7.963
  Name = 
  15 active torsions:
  status: ('A' for Active; 'I' for Inactive)
    1  A    between atoms: C_1  and  C_24
    2  A    between atoms: C_1  and  C_30
    3  A    between atoms: C_2  and  N_12
    4  A    between atoms: C_2  and  N_39
    5  A    between atoms: C_5  and  N_13
    6  A    between atoms: C_5  and  C_41
    7  A    between atoms: C_8  and  C_9
    8  A    between atoms: C_10  and  N_31
    9  A    between atoms: N_13  and  C_36
   10  A    between atoms: C_18  and  C_36
   11  A    between atoms: C_18  and  C_38
   12  A    between atoms: C_24  and  C_33
   13  A    between atoms: C_30  and  N_39
   14  A    between atoms: N_31  and  C_44
   15  A    between atoms: C_33  and  C_44
                            x       y       z     vdW  Elec       q    Type
                         _______ _______ _______ _____ _____    ______ ____

>  <TORSDO>
F 15

$$$$
=
 OpenBabel11042415543D

 50 55  0  0  1  0  0  0  0  0999 V2000
  194.3470  173.7040  144.6670 C   0  0  0  0  0  0  0  0  0  0  0  0
  194.2920  175.1710  144.3900 C   0  0  2  0  0  3  0  0  0  0  0  0
  192.3500  174.4250  145.4400 C   0  0  0  0  0  3  0  0  0  0  0  0
  192.9320  175.4960  144.9140 C   0  0  0  0  0  0  0  0  0  0  0  0
  193.2380  173.2880  145.2670 C   0  0  0  0  0  3  0  0  0  0  0  0
  195.5860  171.7220  143.1220 S   0  0  0  0  0  0  0  0  0  0  0  0
  195.5110  172.8450  144.3780 C   0  0  0  0  0  0  0  0  0  0  0  0
  196.7340  172.8030  145.0580 C   0  0  0  0  0  0  0  0  0  0  0  0
  197.0340  173.6180  146.1880 N   0  0  0  0  0  1  0  0  0  0  0  0
  197.8910  170.2670  142.7940 N   0  0  0  0  0  1  0  0  0  0  0  0
  197.6410  171.9120  144.5750 N   0  0  0  0  0  0  0  0  0  0  0  0
  197.1500  171.2470  143.5090 C   0  0  0  0  0  0  0  0  0  0  0  0
  192.3980  176.8960  145.0040 C   0  0  0  0  0  2  0  0  0  0  0  0
  191.1360  177.1110  144.1800 C   0  0  2  0  0  3  0  0  0  0  0  0
  191.3470  178.1170  143.2340 O   0  0  0  0  0  1  0  0  0  0  0  0
  190.0470  177.4980  145.0640 N   0  0  0  0  0  2  0  0  0  0  0  0
  188.8660  176.7160  145.2580 C   0  0  0  0  0  0  0  0  0  0  0  0
  188.9140  175.3290  146.1450 S   0  0  0  0  0  0  0  0  0  0  0  0
  186.7030  176.3310  143.9620 C   0  0  1  0  0  3  0  0  0  0  0  0
  185.4610  178.6330  145.4590 C   0  0  0  0  0  2  0  0  0  0  0  0
  185.8520  178.4550  142.9580 N   0  0  0  0  0  2  0  0  0  0  0  0
  186.4450  177.0340  147.0800 C   0  0  0  0  0  1  0  0  0  0  0  0
  186.7640  177.9850  145.9390 C   0  0  1  0  0  3  0  0  0  0  0  0
  187.0350  176.4620  142.6010 O   0  0  0  0  0  0  0  0  0  0  0  0
  185.6220  179.2670  144.1160 C   0  0  0  0  0  0  0  0  0  0  0  0
  187.5550  177.2910  144.8030 C   0  0  1  0  0  3  0  0  0  0  0  0
  185.6710  180.5210  144.0200 O   0  0  0  0  0  0  0  0  0  0  0  0
  185.7840  176.9910  142.9750 C   0  0  1  0  0  3  0  0  0  0  0  0
  194.3470  175.4120  142.9540 N   0  0  0  0  0  2  0  0  0  0  0  0
  196.2880  176.6040  143.8070 C   0  0  0  0  0  1  0  0  0  0  0  0
  195.2000  176.5700  142.7440 C   0  0  1  0  0  3  0  0  0  0  0  0
  195.8150  176.5110  141.3530 C   0  0  0  0  0  2  0  0  0  0  0  0
  197.2940  174.5150  141.2240 C   0  0  0  0  0  1  0  0  0  0  0  0
  195.9250  175.0680  140.8770 C   0  0  2  0  0  3  0  0  0  0  0  0
  195.7250  174.9860  139.3710 C   0  0  0  0  0  2  0  0  0  0  0  0
  194.2490  174.9440  139.0120 C   0  0  0  0  0  2  0  0  0  0  0  0
  194.0890  174.8780  137.5670 N   0  0  0  0  0  2  0  0  0  0  0  0
  192.8010  174.2530  137.3090 C   0  0  0  0  0  2  0  0  0  0  0  0
  191.2480  173.1450  141.2420 C   0  0  2  0  0  3  0  0  0  0  0  0
  192.2560  173.7550  138.5630 N   0  0  0  0  0  2  0  0  0  0  0  0
  189.2900  173.9420  142.6140 C   0  0  0  0  0  2  0  0  0  0  0  0
  188.9310  173.0350  140.3260 C   0  0  0  0  0  2  0  0  0  0  0  0
  190.3590  173.2530  140.0730 N   0  0  0  0  0  0  0  0  0  0  0  0
  190.8490  173.6480  138.7880 C   0  0  0  0  0  0  0  0  0  0  0  0
  191.1000  171.8450  141.8150 O   0  0  0  0  0  0  0  0  0  0  0  0
  190.0370  173.8840  137.8470 O   0  0  0  0  0  0  0  0  0  0  0  0
  188.7780  172.7290  141.8200 C   0  0  1  0  0  0  0  0  0  0  0  0
  190.7800  174.1910  142.2770 C   0  0  0  0  0  2  0  0  0  0  0  0
  189.7290  171.5550  142.1290 C   0  0  0  0  0  2  0  0  0  0  0  0
  187.4580  172.4220  142.1460 O   0  0  0  0  0  1  0  0  0  0  0  0
  1  5  2  0  0  0  0
  2 29  1  6  0  0  0
  2  1  1  0  0  0  0
  2  4  1  0  0  0  0
  4 13  1  0  0  0  0
  4  3  2  0  0  0  0
  5  3  1  0  0  0  0
  6 12  1  0  0  0  0
  6  7  1  0  0  0  0
  7  1  1  0  0  0  0
  7  8  2  0  0  0  0
  8  9  1  0  0  0  0
 10 12  1  0  0  0  0
 11  8  1  0  0  0  0
 12 11  2  0  0  0  0
 14 15  1  6  0  0  0
 14 13  1  0  0  0  0
 14 16  1  0  0  0  0
 16 17  1  0  0  0  0
 17 18  2  0  0  0  0
 19 24  1  6  0  0  0
 19 26  1  0  0  0  0
 20 23  1  0  0  0  0
 21 28  1  0  0  0  0
 21 25  1  0  0  0  0
 23 22  1  1  0  0  0
 25 20  1  0  0  0  0
 26 17  1  1  0  0  0
 26 23  1  0  0  0  0
 27 25  2  0  0  0  0
 28 24  1  6  0  0  0
 28 19  1  0  0  0  0
 31 29  1  0  0  0  0
 31 30  1  1  0  0  0
 32 31  1  0  0  0  0
 34 33  1  6  0  0  0
 34 32  1  0  0  0  0
 35 34  1  0  0  0  0
 36 35  1  0  0  0  0
 37 36  1  0  0  0  0
 38 37  1  0  0  0  0
 38 40  1  0  0  0  0
 39 45  1  0  0  0  0
 39 48  1  1  0  0  0
 40 44  1  0  0  0  0
 42 47  1  0  0  0  0
 43 42  1  0  0  0  0
 43 39  1  0  0  0  0
 44 43  1  0  0  0  0
 45 49  1  0  0  0  0
 46 44  2  0  0  0  0
 47 49  1  0  0  0  0
 47 50  1  1  0  0  0
 47 41  1  0  0  0  0
 48 41  1  0  0  0  0
M  END
>  <MODEL>
5

>  <REMARK>
 VINA RESULT:      -6.8      2.940      7.960
  Name = 
  15 active torsions:
  status: ('A' for Active; 'I' for Inactive)
    1  A    between atoms: C_1  and  C_24
    2  A    between atoms: C_1  and  C_30
    3  A    between atoms: C_2  and  N_12
    4  A    between atoms: C_2  and  N_39
    5  A    between atoms: C_5  and  N_13
    6  A    between atoms: C_5  and  C_41
    7  A    between atoms: C_8  and  C_9
    8  A    between atoms: C_10  and  N_31
    9  A    between atoms: N_13  and  C_36
   10  A    between atoms: C_18  and  C_36
   11  A    between atoms: C_18  and  C_38
   12  A    between atoms: C_24  and  C_33
   13  A    between atoms: C_30  and  N_39
   14  A    between atoms: N_31  and  C_44
   15  A    between atoms: C_33  and  C_44
                            x       y       z     vdW  Elec       q    Type
                         _______ _______ _______ _____ _____    ______ ____

>  <TORSDO>
F 15

$$$$
=
 OpenBabel11042415543D

 50 55  0  0  1  0  0  0  0  0999 V2000
  190.2170  176.9240  145.0270 C   0  0  0  0  0  0  0  0  0  0  0  0
  191.2560  175.8730  144.8090 C   0  0  2  0  0  3  0  0  0  0  0  0
  191.8400  177.8790  143.7770 C   0  0  0  0  0  3  0  0  0  0  0  0
  192.2270  176.6220  143.9590 C   0  0  0  0  0  0  0  0  0  0  0  0
  190.5590  178.0640  144.4380 C   0  0  0  0  0  3  0  0  0  0  0  0
  187.5430  177.5390  145.5930 S   0  0  0  0  0  0  0  0  0  0  0  0
  189.0060  176.7420  145.8500 C   0  0  0  0  0  0  0  0  0  0  0  0
  188.8420  175.8980  146.9550 C   0  0  0  0  0  0  0  0  0  0  0  0
  189.8770  175.0660  147.4700 N   0  0  0  0  0  1  0  0  0  0  0  0
  185.4360  176.9930  147.2660 N   0  0  0  0  0  1  0  0  0  0  0  0
  187.6100  175.9240  147.5320 N   0  0  0  0  0  0  0  0  0  0  0  0
  186.7890  176.7790  146.8880 C   0  0  0  0  0  0  0  0  0  0  0  0
  193.5580  176.0650  143.5450 C   0  0  0  0  0  2  0  0  0  0  0  0
  194.5710  176.0230  144.6800 C   0  0  2  0  0  3  0  0  0  0  0  0
  195.5150  177.0400  144.5190 O   0  0  0  0  0  1  0  0  0  0  0  0
  195.2440  174.7330  144.6740 N   0  0  0  0  0  2  0  0  0  0  0  0
  196.4080  174.4490  143.8910 C   0  0  0  0  0  0  0  0  0  0  0  0
  197.8340  174.0620  144.6180 S   0  0  0  0  0  0  0  0  0  0  0  0
  197.5650  174.3040  141.6230 C   0  0  1  0  0  3  0  0  0  0  0  0
  195.0500  173.1010  140.4780 C   0  0  0  0  0  2  0  0  0  0  0  0
  196.1520  175.2900  139.8140 N   0  0  0  0  0  2  0  0  0  0  0  0
  195.7240  171.8270  142.4970 C   0  0  0  0  0  1  0  0  0  0  0  0
  195.2710  173.1870  141.9920 C   0  0  1  0  0  3  0  0  0  0  0  0
  197.9410  175.6180  141.2930 O   0  0  0  0  0  0  0  0  0  0  0  0
  194.9860  174.4570  139.8520 C   0  0  0  0  0  0  0  0  0  0  0  0
  196.2440  174.3180  142.4040 C   0  0  1  0  0  3  0  0  0  0  0  0
  193.8800  174.9120  139.4630 O   0  0  0  0  0  0  0  0  0  0  0  0
  197.4830  174.8290  140.2190 C   0  0  1  0  0  3  0  0  0  0  0  0
  190.6890  174.7580  144.0600 N   0  0  0  0  0  2  0  0  0  0  0  0
  189.8160  172.6210  144.8270 C   0  0  0  0  0  1  0  0  0  0  0  0
  191.0270  173.5410  144.7800 C   0  0  1  0  0  3  0  0  0  0  0  0
  192.1970  172.8470  144.0960 C   0  0  0  0  0  2  0  0  0  0  0  0
  192.7010  170.4130  144.1770 C   0  0  0  0  0  1  0  0  0  0  0  0
  191.7830  171.4700  143.5940 C   0  0  2  0  0  3  0  0  0  0  0  0
  191.8620  171.4100  142.0760 C   0  0  0  0  0  2  0  0  0  0  0  0
  190.5290  171.7710  141.4390 C   0  0  0  0  0  2  0  0  0  0  0  0
  190.6010  173.1010  140.8520 N   0  0  0  0  0  2  0  0  0  0  0  0
  189.3940  173.2810  140.0600 C   0  0  0  0  0  2  0  0  0  0  0  0
  187.4830  177.1820  140.5390 C   0  0  2  0  0  3  0  0  0  0  0  0
  188.8360  174.5950  140.3390 N   0  0  0  0  0  2  0  0  0  0  0  0
  185.1040  177.9020  140.9540 C   0  0  0  0  0  2  0  0  0  0  0  0
  186.2390  176.3590  142.5380 C   0  0  0  0  0  2  0  0  0  0  0  0
  187.2210  176.0830  141.4830 N   0  0  0  0  0  0  0  0  0  0  0  0
  187.8140  174.7910  141.3180 C   0  0  0  0  0  0  0  0  0  0  0  0
  187.9380  178.3210  141.2720 O   0  0  0  0  0  0  0  0  0  0  0  0
  187.4460  173.8280  142.0510 O   0  0  0  0  0  0  0  0  0  0  0  0
  185.7570  177.7990  142.3410 C   0  0  1  0  0  0  0  0  0  0  0  0
  186.1410  177.5400  139.8640 C   0  0  0  0  0  2  0  0  0  0  0  0
  187.0180  178.6870  142.3120 C   0  0  0  0  0  2  0  0  0  0  0  0
  184.8780  178.1860  143.3520 O   0  0  0  0  0  1  0  0  0  0  0  0
  1  7  1  0  0  0  0
  2 29  1  6  0  0  0
  2  1  1  0  0  0  0
  3  4  2  0  0  0  0
  3  5  1  0  0  0  0
  4  2  1  0  0  0  0
  5  1  2  0  0  0  0
  6  7  1  0  0  0  0
  6 12  1  0  0  0  0
  7  8  2  0  0  0  0
  8  9  1  0  0  0  0
  8 11  1  0  0  0  0
 12 10  1  0  0  0  0
 12 11  2  0  0  0  0
 13  4  1  0  0  0  0
 13 14  1  0  0  0  0
 14 15  1  6  0  0  0
 16 14  1  0  0  0  0
 17 18  2  0  0  0  0
 17 16  1  0  0  0  0
 19 24  1  1  0  0  0
 19 26  1  0  0  0  0
 20 23  1  0  0  0  0
 21 25  1  0  0  0  0
 23 26  1  0  0  0  0
 23 22  1  6  0  0  0
 25 20  1  0  0  0  0
 26 17  1  1  0  0  0
 27 25  2  0  0  0  0
 28 21  1  1  0  0  0
 28 24  1  0  0  0  0
 28 19  1  0  0  0  0
 29 31  1  0  0  0  0
 31 30  1  6  0  0  0
 32 31  1  0  0  0  0
 34 32  1  0  0  0  0
 34 33  1  1  0  0  0
 35 34  1  0  0  0  0
 36 35  1  0  0  0  0
 37 36  1  0  0  0  0
 38 40  1  0  0  0  0
 38 37  1  0  0  0  0
 39 48  1  1  0  0  0
 39 45  1  0  0  0  0
 39 43  1  0  0  0  0
 40 44  1  0  0  0  0
 41 47  1  0  0  0  0
 43 42  1  0  0  0  0
 44 43  1  0  0  0  0
 44 46  2  0  0  0  0
 45 49  1  0  0  0  0
 47 42  1  0  0  0  0
 47 50  1  1  0  0  0
 48 41  1  0  0  0  0
 49 47  1  0  0  0  0
M  END
>  <MODEL>
6

>  <REMARK>
 VINA RESULT:      -6.7      2.628      5.529
  Name = 
  15 active torsions:
  status: ('A' for Active; 'I' for Inactive)
    1  A    between atoms: C_1  and  C_24
    2  A    between atoms: C_1  and  C_30
    3  A    between atoms: C_2  and  N_12
    4  A    between atoms: C_2  and  N_39
    5  A    between atoms: C_5  and  N_13
    6  A    between atoms: C_5  and  C_41
    7  A    between atoms: C_8  and  C_9
    8  A    between atoms: C_10  and  N_31
    9  A    between atoms: N_13  and  C_36
   10  A    between atoms: C_18  and  C_36
   11  A    between atoms: C_18  and  C_38
   12  A    between atoms: C_24  and  C_33
   13  A    between atoms: C_30  and  N_39
   14  A    between atoms: N_31  and  C_44
   15  A    between atoms: C_33  and  C_44
                            x       y       z     vdW  Elec       q    Type
                         _______ _______ _______ _____ _____    ______ ____

>  <TORSDO>
F 15

$$$$
=
 OpenBabel11042415543D

 50 55  0  0  1  0  0  0  0  0999 V2000
  192.7130  171.9180  139.8460 C   0  0  0  0  0  0  0  0  0  0  0  0
  191.9210  171.9360  141.1120 C   0  0  2  0  0  3  0  0  0  0  0  0
  193.5870  170.3090  141.1700 C   0  0  0  0  0  3  0  0  0  0  0  0
  192.5760  170.8230  141.8600 C   0  0  0  0  0  0  0  0  0  0  0  0
  193.6610  170.9890  139.8880 C   0  0  0  0  0  3  0  0  0  0  0  0
  193.2630  174.3620  138.5930 S   0  0  0  0  0  0  0  0  0  0  0  0
  192.5160  172.8570  138.7250 C   0  0  0  0  0  0  0  0  0  0  0  0
  191.7080  172.6820  137.5940 C   0  0  0  0  0  0  0  0  0  0  0  0
  190.9170  171.5210  137.3650 N   0  0  0  0  0  1  0  0  0  0  0  0
  192.7360  175.9030  136.3830 N   0  0  0  0  0  1  0  0  0  0  0  0
  191.7130  173.7150  136.7090 N   0  0  0  0  0  0  0  0  0  0  0  0
  192.5260  174.7090  137.1230 C   0  0  0  0  0  0  0  0  0  0  0  0
  192.2470  170.4830  143.2840 C   0  0  0  0  0  2  0  0  0  0  0  0
  193.4780  170.3590  144.1720 C   0  0  2  0  0  3  0  0  0  0  0  0
  193.3750  169.2240  144.9790 O   0  0  0  0  0  1  0  0  0  0  0  0
  193.5830  171.5420  145.0120 N   0  0  0  0  0  2  0  0  0  0  0  0
  194.7540  172.3610  145.0860 C   0  0  0  0  0  0  0  0  0  0  0  0
  196.1750  171.7450  145.6480 S   0  0  0  0  0  0  0  0  0  0  0  0
  195.7240  174.7190  145.0280 C   0  0  1  0  0  3  0  0  0  0  0  0
  194.5540  175.0730  142.2730 C   0  0  0  0  0  2  0  0  0  0  0  0
  193.9970  176.3990  144.3650 N   0  0  0  0  0  2  0  0  0  0  0  0
  195.8980  172.9880  142.3330 C   0  0  0  0  0  1  0  0  0  0  0  0
  194.6770  173.6850  142.9110 C   0  0  1  0  0  3  0  0  0  0  0  0
  195.1710  175.3960  146.1290 O   0  0  0  0  0  0  0  0  0  0  0  0
  193.6340  175.9580  143.0500 C   0  0  0  0  0  0  0  0  0  0  0  0
  194.7030  173.7250  144.4580 C   0  0  1  0  0  3  0  0  0  0  0  0
  192.4910  176.2200  142.5970 O   0  0  0  0  0  0  0  0  0  0  0  0
  195.3170  176.1620  144.9560 C   0  0  1  0  0  3  0  0  0  0  0  0
  190.5290  171.6040  140.8360 N   0  0  0  0  0  2  0  0  0  0  0  0
  188.8690  173.1310  139.9250 C   0  0  0  0  0  1  0  0  0  0  0  0
  189.7380  172.7890  141.1250 C   0  0  1  0  0  3  0  0  0  0  0  0
  188.8750  172.5440  142.3550 C   0  0  0  0  0  2  0  0  0  0  0  0
  189.3980  174.9480  142.7180 C   0  0  0  0  0  1  0  0  0  0  0  0
  189.1140  173.6240  143.4010 C   0  0  2  0  0  3  0  0  0  0  0  0
  190.2980  173.2600  144.2850 C   0  0  0  0  0  2  0  0  0  0  0  0
  190.2360  173.9870  145.6190 C   0  0  0  0  0  2  0  0  0  0  0  0
  191.4120  174.8290  145.7830 N   0  0  0  0  0  2  0  0  0  0  0  0
  191.0060  175.9750  146.5810 C   0  0  0  0  0  2  0  0  0  0  0  0
  186.7830  177.0330  146.1980 C   0  0  2  0  0  3  0  0  0  0  0  0
  189.6010  176.2550  146.3300 N   0  0  0  0  0  2  0  0  0  0  0  0
  185.5690  179.2240  145.9180 C   0  0  0  0  0  2  0  0  0  0  0  0
  187.3050  178.5350  144.2770 C   0  0  0  0  0  2  0  0  0  0  0  0
  187.7930  177.5760  145.2750 N   0  0  0  0  0  0  0  0  0  0  0  0
  189.1830  177.2650  145.4100 C   0  0  0  0  0  0  0  0  0  0  0  0
  185.7610  176.3880  145.4370 O   0  0  0  0  0  0  0  0  0  0  0  0
  190.0380  177.8710  144.7030 O   0  0  0  0  0  0  0  0  0  0  0  0
  185.7960  178.6870  144.4960 C   0  0  1  0  0  0  0  0  0  0  0  0
  186.1530  178.2280  146.9480 C   0  0  0  0  0  2  0  0  0  0  0  0
  185.1980  177.2660  144.4500 C   0  0  0  0  0  2  0  0  0  0  0  0
  185.2220  179.5180  143.5360 O   0  0  0  0  0  1  0  0  0  0  0  0
  1  5  2  0  0  0  0
  1  2  1  0  0  0  0
  2 29  1  6  0  0  0
  2  4  1  0  0  0  0
  3  4  2  0  0  0  0
  4 13  1  0  0  0  0
  5  3  1  0  0  0  0
  6  7  1  0  0  0  0
  7  1  1  0  0  0  0
  8  7  2  0  0  0  0
  9  8  1  0  0  0  0
 10 12  1  0  0  0  0
 11 12  2  0  0  0  0
 11  8  1  0  0  0  0
 12  6  1  0  0  0  0
 13 14  1  0  0  0  0
 14 15  1  1  0  0  0
 14 16  1  0  0  0  0
 16 17  1  0  0  0  0
 17 18  2  0  0  0  0
 19 24  1  1  0  0  0
 20 23  1  0  0  0  0
 20 25  1  0  0  0  0
 23 22  1  6  0  0  0
 23 26  1  0  0  0  0
 25 21  1  0  0  0  0
 26 19  1  0  0  0  0
 26 17  1  1  0  0  0
 27 25  2  0  0  0  0
 28 21  1  6  0  0  0
 28 19  1  0  0  0  0
 28 24  1  0  0  0  0
 29 31  1  0  0  0  0
 31 30  1  6  0  0  0
 31 32  1  0  0  0  0
 32 34  1  0  0  0  0
 34 33  1  6  0  0  0
 34 35  1  0  0  0  0
 35 36  1  0  0  0  0
 36 37  1  0  0  0  0
 37 38  1  0  0  0  0
 39 48  1  6  0  0  0
 40 38  1  0  0  0  0
 41 48  1  0  0  0  0
 42 47  1  0  0  0  0
 42 43  1  0  0  0  0
 43 44  1  0  0  0  0
 43 39  1  0  0  0  0
 44 40  1  0  0  0  0
 45 39  1  0  0  0  0
 46 44  2  0  0  0  0
 47 50  1  6  0  0  0
 47 41  1  0  0  0  0
 49 47  1  0  0  0  0
 49 45  1  0  0  0  0
M  END
>  <MODEL>
7

>  <REMARK>
 VINA RESULT:      -6.7      2.971      7.999
  Name = 
  15 active torsions:
  status: ('A' for Active; 'I' for Inactive)
    1  A    between atoms: C_1  and  C_24
    2  A    between atoms: C_1  and  C_30
    3  A    between atoms: C_2  and  N_12
    4  A    between atoms: C_2  and  N_39
    5  A    between atoms: C_5  and  N_13
    6  A    between atoms: C_5  and  C_41
    7  A    between atoms: C_8  and  C_9
    8  A    between atoms: C_10  and  N_31
    9  A    between atoms: N_13  and  C_36
   10  A    between atoms: C_18  and  C_36
   11  A    between atoms: C_18  and  C_38
   12  A    between atoms: C_24  and  C_33
   13  A    between atoms: C_30  and  N_39
   14  A    between atoms: N_31  and  C_44
   15  A    between atoms: C_33  and  C_44
                            x       y       z     vdW  Elec       q    Type
                         _______ _______ _______ _____ _____    ______ ____

>  <TORSDO>
F 15

$$$$
=
 OpenBabel11042415543D

 50 55  0  0  1  0  0  0  0  0999 V2000
  194.9400  175.8670  144.6690 C   0  0  0  0  0  0  0  0  0  0  0  0
  193.8810  174.9040  145.0970 C   0  0  2  0  0  3  0  0  0  0  0  0
  193.8970  176.8090  146.4380 C   0  0  0  0  0  3  0  0  0  0  0  0
  193.3100  175.6310  146.2690 C   0  0  0  0  0  0  0  0  0  0  0  0
  194.9410  176.9500  145.4360 C   0  0  0  0  0  3  0  0  0  0  0  0
  195.4500  176.1600  141.9290 S   0  0  0  0  0  0  0  0  0  0  0  0
  195.8200  175.6730  143.5000 C   0  0  0  0  0  0  0  0  0  0  0  0
  197.0870  175.0770  143.4730 C   0  0  0  0  0  0  0  0  0  0  0  0
  197.7280  174.5400  144.6260 N   0  0  0  0  0  1  0  0  0  0  0  0
  197.2850  175.6960  139.9410 N   0  0  0  0  0  1  0  0  0  0  0  0
  197.6840  175.0310  142.2510 N   0  0  0  0  0  0  0  0  0  0  0  0
  196.9030  175.5920  141.3060 C   0  0  0  0  0  0  0  0  0  0  0  0
  192.0980  175.1600  147.0180 C   0  0  0  0  0  2  0  0  0  0  0  0
  190.7990  175.7590  146.4980 C   0  0  2  0  0  3  0  0  0  0  0  0
  189.7060  175.1070  147.0720 O   0  0  0  0  0  1  0  0  0  0  0  0
  190.7480  175.6090  145.0520 N   0  0  0  0  0  2  0  0  0  0  0  0
  190.3690  176.6590  144.1580 C   0  0  0  0  0  0  0  0  0  0  0  0
  191.3750  177.9350  143.8870 S   0  0  0  0  0  0  0  0  0  0  0  0
  188.6380  175.0170  143.2560 C   0  0  1  0  0  3  0  0  0  0  0  0
  186.7750  177.3340  142.7660 C   0  0  0  0  0  2  0  0  0  0  0  0
  187.7520  175.7520  141.0390 N   0  0  0  0  0  2  0  0  0  0  0  0
  187.5740  177.4050  145.1140 C   0  0  0  0  0  1  0  0  0  0  0  0
  188.0100  177.4840  143.6600 C   0  0  1  0  0  3  0  0  0  0  0  0
  189.2520  174.3560  142.1780 O   0  0  0  0  0  0  0  0  0  0  0  0
  187.1500  177.0130  141.3560 C   0  0  0  0  0  0  0  0  0  0  0  0
  189.1300  176.4690  143.3290 C   0  0  1  0  0  3  0  0  0  0  0  0
  187.0440  177.8960  140.4660 O   0  0  0  0  0  0  0  0  0  0  0  0
  187.8870  174.6590  142.0060 C   0  0  1  0  0  3  0  0  0  0  0  0
  194.4890  173.6520  145.5300 N   0  0  0  0  0  2  0  0  0  0  0  0
  193.6210  172.6440  143.4940 C   0  0  0  0  0  1  0  0  0  0  0  0
  193.6650  172.5720  145.0130 C   0  0  1  0  0  3  0  0  0  0  0  0
  194.2280  171.2330  145.4660 C   0  0  0  0  0  2  0  0  0  0  0  0
  193.0660  169.1930  144.6440 C   0  0  0  0  0  1  0  0  0  0  0  0
  194.1490  170.2100  144.3410 C   0  0  2  0  0  3  0  0  0  0  0  0
  195.4780  169.4850  144.1850 C   0  0  0  0  0  2  0  0  0  0  0  0
  195.6720  168.9880  142.7610 C   0  0  0  0  0  2  0  0  0  0  0  0
  195.3700  170.0530  141.8160 N   0  0  0  0  0  2  0  0  0  0  0  0
  194.7910  169.4240  140.6380 C   0  0  0  0  0  2  0  0  0  0  0  0
  192.0190  171.9610  138.4070 C   0  0  2  0  0  3  0  0  0  0  0  0
  193.8670  170.3550  140.0100 N   0  0  0  0  0  2  0  0  0  0  0  0
  189.6750  171.6200  137.5460 C   0  0  0  0  0  2  0  0  0  0  0  0
  190.1690  171.3620  139.9690 C   0  0  0  0  0  2  0  0  0  0  0  0
  191.5870  171.2350  139.6120 N   0  0  0  0  0  0  0  0  0  0  0  0
  192.4750  170.3740  140.3320 C   0  0  0  0  0  0  0  0  0  0  0  0
  191.7360  173.3510  138.5790 O   0  0  0  0  0  0  0  0  0  0  0  0
  192.0310  169.6450  141.2660 O   0  0  0  0  0  0  0  0  0  0  0  0
  189.5220  172.2790  138.9260 C   0  0  1  0  0  0  0  0  0  0  0  0
  191.1770  171.4340  137.2240 C   0  0  0  0  0  2  0  0  0  0  0  0
  190.3540  173.5760  138.9000 C   0  0  0  0  0  2  0  0  0  0  0  0
  188.1850  172.5310  139.2290 O   0  0  0  0  0  1  0  0  0  0  0  0
  1  2  1  0  0  0  0
  1  5  2  0  0  0  0
  2 29  1  1  0  0  0
  2  4  1  0  0  0  0
  4  3  2  0  0  0  0
  4 13  1  0  0  0  0
  5  3  1  0  0  0  0
  6  7  1  0  0  0  0
  7  1  1  0  0  0  0
  8  7  2  0  0  0  0
  8  9  1  0  0  0  0
 10 12  1  0  0  0  0
 11  8  1  0  0  0  0
 12  6  1  0  0  0  0
 12 11  2  0  0  0  0
 14 13  1  0  0  0  0
 14 15  1  1  0  0  0
 16 14  1  0  0  0  0
 17 16  1  0  0  0  0
 18 17  2  0  0  0  0
 19 24  1  6  0  0  0
 19 26  1  0  0  0  0
 20 23  1  0  0  0  0
 21 25  1  0  0  0  0
 23 22  1  1  0  0  0
 25 20  1  0  0  0  0
 26 23  1  0  0  0  0
 26 17  1  1  0  0  0
 27 25  2  0  0  0  0
 28 21  1  6  0  0  0
 28 24  1  0  0  0  0
 28 19  1  0  0  0  0
 31 30  1  6  0  0  0
 31 32  1  0  0  0  0
 31 29  1  0  0  0  0
 34 33  1  1  0  0  0
 34 32  1  0  0  0  0
 35 34  1  0  0  0  0
 36 35  1  0  0  0  0
 37 36  1  0  0  0  0
 38 37  1  0  0  0  0
 39 48  1  6  0  0  0
 39 45  1  0  0  0  0
 39 43  1  0  0  0  0
 40 44  1  0  0  0  0
 40 38  1  0  0  0  0
 41 47  1  0  0  0  0
 43 42  1  0  0  0  0
 43 44  1  0  0  0  0
 44 46  2  0  0  0  0
 45 49  1  0  0  0  0
 47 50  1  1  0  0  0
 47 42  1  0  0  0  0
 48 41  1  0  0  0  0
 49 47  1  0  0  0  0
M  END
>  <MODEL>
8

>  <REMARK>
 VINA RESULT:      -6.6      2.880      7.458
  Name = 
  15 active torsions:
  status: ('A' for Active; 'I' for Inactive)
    1  A    between atoms: C_1  and  C_24
    2  A    between atoms: C_1  and  C_30
    3  A    between atoms: C_2  and  N_12
    4  A    between atoms: C_2  and  N_39
    5  A    between atoms: C_5  and  N_13
    6  A    between atoms: C_5  and  C_41
    7  A    between atoms: C_8  and  C_9
    8  A    between atoms: C_10  and  N_31
    9  A    between atoms: N_13  and  C_36
   10  A    between atoms: C_18  and  C_36
   11  A    between atoms: C_18  and  C_38
   12  A    between atoms: C_24  and  C_33
   13  A    between atoms: C_30  and  N_39
   14  A    between atoms: N_31  and  C_44
   15  A    between atoms: C_33  and  C_44
                            x       y       z     vdW  Elec       q    Type
                         _______ _______ _______ _____ _____    ______ ____

>  <TORSDO>
F 15

$$$$
=
 OpenBabel11042415543D

 50 55  0  0  1  0  0  0  0  0999 V2000
  188.0030  176.2190  146.5370 C   0  0  0  0  0  0  0  0  0  0  0  0
  189.1130  176.0770  145.5480 C   0  0  2  0  0  3  0  0  0  0  0  0
  189.3160  174.5400  147.2870 C   0  0  0  0  0  3  0  0  0  0  0  0
  189.9010  174.9770  146.1790 C   0  0  0  0  0  0  0  0  0  0  0  0
  188.1250  175.3390  147.5230 C   0  0  0  0  0  3  0  0  0  0  0  0
  185.6810  177.0620  145.2150 S   0  0  0  0  0  0  0  0  0  0  0  0
  186.8790  177.1640  146.3970 C   0  0  0  0  0  0  0  0  0  0  0  0
  186.5950  178.2800  147.1950 C   0  0  0  0  0  0  0  0  0  0  0  0
  187.3990  178.6830  148.2990 N   0  0  0  0  0  1  0  0  0  0  0  0
  183.6840  178.9450  145.1990 N   0  0  0  0  0  1  0  0  0  0  0  0
  185.4840  178.9820  146.8420 N   0  0  0  0  0  0  0  0  0  0  0  0
  184.8770  178.4280  145.7720 C   0  0  0  0  0  0  0  0  0  0  0  0
  191.0860  174.3320  145.5220 C   0  0  0  0  0  2  0  0  0  0  0  0
  190.7910  173.8240  144.1170 C   0  0  2  0  0  3  0  0  0  0  0  0
  189.5490  173.1860  144.0890 O   0  0  0  0  0  1  0  0  0  0  0  0
  191.8270  172.8820  143.7210 N   0  0  0  0  0  2  0  0  0  0  0  0
  193.0960  173.2760  143.1910 C   0  0  0  0  0  0  0  0  0  0  0  0
  193.5290  172.8660  141.6560 S   0  0  0  0  0  0  0  0  0  0  0  0
  195.4250  173.8860  144.0350 C   0  0  1  0  0  3  0  0  0  0  0  0
  194.4510  176.6950  144.5270 C   0  0  0  0  0  2  0  0  0  0  0  0
  195.3190  175.0420  146.2470 N   0  0  0  0  0  2  0  0  0  0  0  0
  193.9160  176.0370  142.1960 C   0  0  0  0  0  1  0  0  0  0  0  0
  193.6510  175.7180  143.6580 C   0  0  1  0  0  3  0  0  0  0  0  0
  195.6870  173.0230  145.1140 O   0  0  0  0  0  0  0  0  0  0  0  0
  194.5580  176.2170  145.9390 C   0  0  0  0  0  0  0  0  0  0  0  0
  193.9310  174.2340  143.9940 C   0  0  1  0  0  3  0  0  0  0  0  0
  193.8850  176.7800  146.8400 O   0  0  0  0  0  0  0  0  0  0  0  0
  196.1530  174.3440  145.2650 C   0  0  1  0  0  3  0  0  0  0  0  0
  189.9050  177.3000  145.5040 N   0  0  0  0  0  2  0  0  0  0  0  0
  191.1150  178.3130  143.6540 C   0  0  0  0  0  1  0  0  0  0  0  0
  189.7590  177.8590  144.1700 C   0  0  1  0  0  3  0  0  0  0  0  0
  189.1560  176.8160  143.2390 C   0  0  0  0  0  2  0  0  0  0  0  0
  187.4860  178.5050  142.5010 C   0  0  0  0  0  1  0  0  0  0  0  0
  188.5070  177.4850  142.0350 C   0  0  2  0  0  3  0  0  0  0  0  0
  187.8110  176.4520  141.1610 C   0  0  0  0  0  2  0  0  0  0  0  0
  188.5020  175.1010  141.2460 C   0  0  0  0  0  2  0  0  0  0  0  0
  188.5560  174.4840  139.9290 N   0  0  0  0  0  2  0  0  0  0  0  0
  188.1710  173.0910  140.0950 C   0  0  0  0  0  2  0  0  0  0  0  0
  190.8140  170.9720  137.3340 C   0  0  2  0  0  3  0  0  0  0  0  0
  188.9870  172.2650  139.2200 N   0  0  0  0  0  2  0  0  0  0  0  0
  193.3110  170.6470  137.2390 C   0  0  0  0  0  2  0  0  0  0  0  0
  192.0320  169.9390  139.2490 C   0  0  0  0  0  2  0  0  0  0  0  0
  190.9370  170.8000  138.7910 N   0  0  0  0  0  0  0  0  0  0  0  0
  190.1010  171.5150  139.7070 C   0  0  0  0  0  0  0  0  0  0  0  0
  190.6400  169.6890  136.7310 O   0  0  0  0  0  0  0  0  0  0  0  0
  190.3370  171.4660  140.9490 O   0  0  0  0  0  0  0  0  0  0  0  0
  192.7610  169.4310  138.0010 C   0  0  1  0  0  0  0  0  0  0  0  0
  192.1430  171.5740  136.8260 C   0  0  0  0  0  2  0  0  0  0  0  0
  191.6910  168.7820  137.0990 C   0  0  0  0  0  2  0  0  0  0  0  0
  193.7720  168.5310  138.3300 O   0  0  0  0  0  1  0  0  0  0  0  0
  1  5  2  0  0  0  0
  2 29  1  1  0  0  0
  2  4  1  0  0  0  0
  2  1  1  0  0  0  0
  3  5  1  0  0  0  0
  4  3  2  0  0  0  0
  6 12  1  0  0  0  0
  6  7  1  0  0  0  0
  7  1  1  0  0  0  0
  7  8  2  0  0  0  0
  8  9  1  0  0  0  0
 10 12  1  0  0  0  0
 11  8  1  0  0  0  0
 12 11  2  0  0  0  0
 13  4  1  0  0  0  0
 14 15  1  1  0  0  0
 14 13  1  0  0  0  0
 16 14  1  0  0  0  0
 17 16  1  0  0  0  0
 18 17  2  0  0  0  0
 19 24  1  1  0  0  0
 19 28  1  0  0  0  0
 20 25  1  0  0  0  0
 23 22  1  6  0  0  0
 23 26  1  0  0  0  0
 23 20  1  0  0  0  0
 25 21  1  0  0  0  0
 25 27  2  0  0  0  0
 26 17  1  6  0  0  0
 26 19  1  0  0  0  0
 28 24  1  1  0  0  0
 28 21  1  0  0  0  0
 31 30  1  6  0  0  0
 31 29  1  0  0  0  0
 32 31  1  0  0  0  0
 34 33  1  1  0  0  0
 34 32  1  0  0  0  0
 35 36  1  0  0  0  0
 35 34  1  0  0  0  0
 37 38  1  0  0  0  0
 37 36  1  0  0  0  0
 39 48  1  6  0  0  0
 39 43  1  0  0  0  0
 40 44  1  0  0  0  0
 40 38  1  0  0  0  0
 41 47  1  0  0  0  0
 43 42  1  0  0  0  0
 43 44  1  0  0  0  0
 44 46  2  0  0  0  0
 45 49  1  0  0  0  0
 45 39  1  0  0  0  0
 47 50  1  1  0  0  0
 47 42  1  0  0  0  0
 48 41  1  0  0  0  0
 49 47  1  0  0  0  0
M  END
>  <MODEL>
9

>  <REMARK>
 VINA RESULT:      -6.6      1.665      2.050
  Name = 
  15 active torsions:
  status: ('A' for Active; 'I' for Inactive)
    1  A    between atoms: C_1  and  C_24
    2  A    between atoms: C_1  and  C_30
    3  A    between atoms: C_2  and  N_12
    4  A    between atoms: C_2  and  N_39
    5  A    between atoms: C_5  and  N_13
    6  A    between atoms: C_5  and  C_41
    7  A    between atoms: C_8  and  C_9
    8  A    between atoms: C_10  and  N_31
    9  A    between atoms: N_13  and  C_36
   10  A    between atoms: C_18  and  C_36
   11  A    between atoms: C_18  and  C_38
   12  A    between atoms: C_24  and  C_33
   13  A    between atoms: C_30  and  N_39
   14  A    between atoms: N_31  and  C_44
   15  A    between atoms: C_33  and  C_44
                            x       y       z     vdW  Elec       q    Type
                         _______ _______ _______ _____ _____    ______ ____

>  <TORSDO>
F 15

$$$$
