=
 OpenBabel11042418013D

 61 65  0  0  1  0  0  0  0  0999 V2000
  190.6440  173.7730  144.7400 C   0  0  2  0  0  3  0  0  0  0  0  0
  190.0670  175.0120  145.5630 C   0  0  2  0  0  3  0  0  0  0  0  0
  189.0800  174.5710  146.5850 C   0  0  0  0  0  3  0  0  0  0  0  0
  189.3760  174.6470  147.8060 O   0  0  0  0  0  0  0  0  0  0  0  0
  189.6970  176.2720  144.8420 C   0  0  0  0  0  2  0  0  0  0  0  0
  189.3250  177.2770  145.7150 F   0  0  0  0  0  0  0  0  0  0  0  0
  189.9910  172.4000  144.7670 C   0  0  0  0  0  2  0  0  0  0  0  0
  189.4230  171.9720  143.3590 C   0  0  2  0  0  3  0  0  0  0  0  0
  190.3170  171.9920  142.1820 C   0  0  2  0  0  3  0  0  0  0  0  0
  189.1580  172.6900  141.5610 C   0  0  1  0  0  3  0  0  0  0  0  0
  188.5520  172.8630  142.7920 O   0  0  0  0  0  0  0  0  0  0  0  0
  189.8080  173.9410  139.7130 O   0  0  0  0  0  1  0  0  0  0  0  0
  189.8420  174.0340  141.0700 C   0  0  1  0  0  3  0  0  0  0  0  0
  189.1730  175.2060  141.5670 C   0  0  0  0  0  2  0  0  0  0  0  0
  187.3010  177.3090  140.8150 C   0  0  0  0  0  2  0  0  0  0  0  0
  187.5930  176.0110  140.1220 C   0  0  0  0  0  2  0  0  0  0  0  0
  187.3200  176.4570  142.0900 C   0  0  2  0  0  3  0  0  0  0  0  0
  187.6980  175.1980  141.3770 N   0  0  0  0  0  0  0  0  0  0  0  0
  185.9830  176.4830  142.7100 O   0  0  0  0  0  0  0  0  0  0  0  0
  184.0010  178.9090  144.6740 C   0  0  0  0  0  3  0  0  0  0  0  0
  185.4600  177.1840  143.7790 C   0  0  0  0  0  0  0  0  0  0  0  0
  186.0650  177.0920  145.0690 C   0  0  0  0  0  3  0  0  0  0  0  0
  185.5790  177.8620  146.1280 C   0  0  0  0  0  0  0  0  0  0  0  0
  184.5390  178.7830  145.9360 C   0  0  0  0  0  3  0  0  0  0  0  0
  184.4500  178.1690  143.6530 C   0  0  0  0  0  3  0  0  0  0  0  0
  186.6930  178.6920  148.0000 O   0  0  0  0  0  1  0  0  0  0  0  0
  186.2250  177.7040  147.3910 C   0  0  0  0  0  0  0  0  0  0  0  0
  186.3020  176.4280  147.9030 O   0  0  0  0  0  0  0  0  0  0  0  0
  190.7130  170.7050  141.3620 C   0  0  1  0  0  3  0  0  0  0  0  0
  192.6550  171.8050  140.0430 C   0  0  0  0  0  1  0  0  0  0  0  0
  192.0720  170.6110  140.6920 C   0  0  0  0  0  2  0  0  0  0  0  0
  191.5660  168.7290  142.0250 C   0  0  0  0  0  1  0  0  0  0  0  0
  190.4040  169.5240  141.9760 O   0  0  0  0  0  0  0  0  0  0  0  0
  192.1170  173.6920  144.7900 N   0  0  0  0  0  2  0  0  0  0  0  0
  195.6680  176.7280  144.0500 C   0  0  0  0  0  3  0  0  0  0  0  0
  192.6160  174.7770  143.9190 C   0  0  2  0  0  3  0  0  0  0  0  0
  196.0600  178.7120  145.4470 F   0  0  0  0  0  0  0  0  0  0  0  0
  195.3570  177.6030  145.1150 C   0  0  0  0  0  0  0  0  0  0  0  0
  194.7440  174.6670  142.6560 C   0  0  2  0  0  3  0  0  0  0  0  0
  193.4130  176.2920  145.6640 C   0  0  0  0  0  3  0  0  0  0  0  0
  194.8070  175.6490  143.7890 C   0  0  0  0  0  0  0  0  0  0  0  0
  194.2510  177.3330  145.9310 C   0  0  0  0  0  3  0  0  0  0  0  0
  193.2670  174.2480  142.6360 C   0  0  0  0  0  2  0  0  0  0  0  0
  193.7040  175.5040  144.5920 C   0  0  0  0  0  0  0  0  0  0  0  0
  195.3950  172.5190  143.5630 O   0  0  0  0  0  0  0  0  0  0  0  0
  195.7210  173.4870  142.8700 C   0  0  0  0  0  0  0  0  0  0  0  0
  197.0920  173.4290  142.2490 C   0  0  0  0  0  2  0  0  0  0  0  0
  197.1100  173.1040  139.8730 N   0  0  0  0  0  0  0  0  0  0  0  0
  197.2490  172.5630  141.0550 C   0  0  0  0  0  0  0  0  0  0  0  0
  197.1960  175.4660  140.2380 O   0  0  0  0  0  0  0  0  0  0  0  0
  196.8880  174.4250  139.4880 C   0  0  0  0  0  0  0  0  0  0  0  0
  195.3170  175.1120  135.4780 C   0  0  0  0  0  1  0  0  0  0  0  0
  193.2970  175.9530  136.7310 C   0  0  0  0  0  1  0  0  0  0  0  0
  195.0270  174.8090  138.0100 C   0  0  0  0  0  3  0  0  0  0  0  0
  194.5480  175.2380  136.7160 N   0  0  0  0  0  0  0  0  0  0  0  0
  196.2510  174.6000  138.2110 N   0  0  0  0  0  0  0  0  0  0  0  0
  197.2290  171.0590  141.2170 C   0  0  0  0  0  2  0  0  0  0  0  0
  196.0510  170.3180  140.7110 N   0  0  0  0  0  0  0  0  0  0  0  0
  196.5810  169.2860  139.8210 C   0  0  0  0  0  1  0  0  0  0  0  0
  196.5910  169.2190  142.7670 C   0  0  0  0  0  1  0  0  0  0  0  0
  195.4890  169.4570  141.7510 C   0  0  0  0  0  2  0  0  0  0  0  0
  1  7  1  1  0  0  0
  1 34  1  0  0  0  0
  1  2  1  0  0  0  0
  2  5  1  6  0  0  0
  2  3  1  0  0  0  0
  3  4  2  0  0  0  0
  5  6  1  0  0  0  0
  8  7  1  1  0  0  0
  9 29  1  6  0  0  0
  9  8  1  0  0  0  0
 10 13  1  1  0  0  0
 10  9  1  0  0  0  0
 10 11  1  0  0  0  0
 11  8  1  0  0  0  0
 13 12  1  6  0  0  0
 13 14  1  0  0  0  0
 15 17  1  0  0  0  0
 16 15  1  0  0  0  0
 16 18  1  0  0  0  0
 17 19  1  6  0  0  0
 18 14  1  0  0  0  0
 18 17  1  0  0  0  0
 19 21  1  0  0  0  0
 20 24  1  0  0  0  0
 21 22  2  0  0  0  0
 22 23  1  0  0  0  0
 23 27  1  0  0  0  0
 24 23  2  0  0  0  0
 25 21  1  0  0  0  0
 25 20  2  0  0  0  0
 27 28  2  0  0  0  0
 27 26  1  0  0  0  0
 29 31  1  1  0  0  0
 29 33  1  0  0  0  0
 30 31  1  0  0  0  0
 33 32  1  0  0  0  0
 35 38  1  0  0  0  0
 36 44  1  0  0  0  0
 36 34  1  1  0  0  0
 38 37  1  0  0  0  0
 38 42  2  0  0  0  0
 39 46  1  1  0  0  0
 39 41  1  0  0  0  0
 40 42  1  0  0  0  0
 41 35  2  0  0  0  0
 41 44  1  0  0  0  0
 43 39  1  0  0  0  0
 43 36  1  0  0  0  0
 44 40  2  0  0  0  0
 46 45  2  0  0  0  0
 47 46  1  0  0  0  0
 48 49  2  0  0  0  0
 49 57  1  0  0  0  0
 49 47  1  0  0  0  0
 51 48  1  0  0  0  0
 51 50  2  0  0  0  0
 52 55  1  0  0  0  0
 54 56  2  0  0  0  0
 55 53  1  0  0  0  0
 55 54  1  0  0  0  0
 56 51  1  0  0  0  0
 58 57  1  0  0  0  0
 58 61  1  0  0  0  0
 59 58  1  0  0  0  0
 61 60  1  0  0  0  0
M  END
>  <MODEL>
1

>  <REMARK>
 VINA RESULT:      -5.9      0.000      0.000
  Name = 
  24 active torsions:
  status: ('A' for Active; 'I' for Inactive)
    1  A    between atoms: O_1  and  C_12
    2  A    between atoms: O_1  and  C_50
    3  A    between atoms: C_4  and  N_38
    4  A    between atoms: C_5  and  C_7
    5  A    between atoms: C_5  and  C_58
    6  A    between atoms: C_9  and  C_13
    7  A    between atoms: N_11  and  C_59
    8  A    between atoms: C_13  and  C_48
    9  A    between atoms: C_13  and  C_58
   10  A    between atoms: C_18  and  C_61
   11  A    between atoms: C_23  and  C_27
   12  A    between atoms: C_23  and  C_30
   13  A    between atoms: C_26  and  C_35
   14  A    between atoms: C_26  and  C_47
   15  A    between atoms: C_28  and  C_60
   16  A    between atoms: C_30  and  N_55
   17  A    between atoms: N_33  and  C_37
   18  A    between atoms: N_33  and  C_47
   19  A    between atoms: C_35  and  C_60
   20  A    between atoms: N_38  and  C_58
   21  A    between atoms: O_40  and  C_61
   22  A    between atoms: C_43  and  C_51
   23  A    between atoms: N_45  and  C_59
   24  A    between atoms: C_46  and  C_61
                            x       y       z     vdW  Elec       q    Type
                         _______ _______ _______ _____ _____    ______ ____

>  <TORSDO>
F 24

$$$$
=
 OpenBabel11042418013D

 61 65  0  0  1  0  0  0  0  0999 V2000
  187.1800  175.8840  142.8120 C   0  0  2  0  0  3  0  0  0  0  0  0
  186.3510  176.8120  141.8140 C   0  0  2  0  0  3  0  0  0  0  0  0
  187.1670  177.2040  140.6340 C   0  0  0  0  0  3  0  0  0  0  0  0
  186.5970  177.6590  139.6090 O   0  0  0  0  0  0  0  0  0  0  0  0
  185.4870  177.9050  142.3650 C   0  0  0  0  0  2  0  0  0  0  0  0
  184.5340  177.4190  143.2410 F   0  0  0  0  0  0  0  0  0  0  0  0
  188.3560  176.4040  143.6240 C   0  0  0  0  0  2  0  0  0  0  0  0
  188.2820  175.9740  145.1400 C   0  0  2  0  0  3  0  0  0  0  0  0
  188.3580  177.0120  146.1910 C   0  0  2  0  0  3  0  0  0  0  0  0
  189.3380  176.0610  146.7820 C   0  0  1  0  0  3  0  0  0  0  0  0
  189.3930  175.3270  145.6120 O   0  0  0  0  0  0  0  0  0  0  0  0
  190.9550  176.8750  148.2400 O   0  0  0  0  0  1  0  0  0  0  0  0
  190.6140  176.9930  146.9280 C   0  0  1  0  0  3  0  0  0  0  0  0
  191.6770  176.6140  146.0380 C   0  0  0  0  0  2  0  0  0  0  0  0
  194.3500  175.7450  145.2690 C   0  0  0  0  0  2  0  0  0  0  0  0
  193.8640  176.2480  146.5960 C   0  0  0  0  0  2  0  0  0  0  0  0
  193.0460  174.9390  145.2690 C   0  0  2  0  0  3  0  0  0  0  0  0
  192.5510  175.5270  146.5520 N   0  0  0  0  0  0  0  0  0  0  0  0
  193.3660  173.5000  145.2880 O   0  0  0  0  0  0  0  0  0  0  0  0
  196.9530  172.6060  145.2440 C   0  0  0  0  0  3  0  0  0  0  0  0
  194.5440  172.8060  145.4850 C   0  0  0  0  0  0  0  0  0  0  0  0
  194.5170  171.4340  145.8800 C   0  0  0  0  0  3  0  0  0  0  0  0
  195.7090  170.7160  146.0040 C   0  0  0  0  0  0  0  0  0  0  0  0
  196.9430  171.3010  145.6820 C   0  0  0  0  0  3  0  0  0  0  0  0
  195.8200  173.3100  145.1330 C   0  0  0  0  0  3  0  0  0  0  0  0
  194.9300  168.5330  145.7550 O   0  0  0  0  0  0  0  0  0  0  0  0
  195.6030  169.3550  146.4180 C   0  0  0  0  0  0  0  0  0  0  0  0
  196.2720  168.9910  147.5650 O   0  0  0  0  0  1  0  0  0  0  0  0
  187.1860  177.3230  147.1980 C   0  0  1  0  0  3  0  0  0  0  0  0
  186.9190  179.5090  148.5670 C   0  0  0  0  0  1  0  0  0  0  0  0
  186.6490  178.7360  147.3360 C   0  0  0  0  0  2  0  0  0  0  0  0
  185.0910  176.9930  146.4410 C   0  0  0  0  0  1  0  0  0  0  0  0
  186.1570  176.4240  147.1670 O   0  0  0  0  0  0  0  0  0  0  0  0
  187.4360  174.5380  142.2600 N   0  0  0  0  0  2  0  0  0  0  0  0
  191.1450  171.6190  141.9450 C   0  0  0  0  0  3  0  0  0  0  0  0
  188.8950  174.4590  142.0350 C   0  0  2  0  0  3  0  0  0  0  0  0
  192.1630  170.5170  143.8920 F   0  0  0  0  0  0  0  0  0  0  0  0
  191.2530  171.3450  143.3270 C   0  0  0  0  0  0  0  0  0  0  0  0
  189.9390  173.1920  140.1800 C   0  0  2  0  0  3  0  0  0  0  0  0
  189.4400  172.8580  143.7990 C   0  0  0  0  0  3  0  0  0  0  0  0
  190.1870  172.5520  141.5150 C   0  0  0  0  0  0  0  0  0  0  0  0
  190.3570  171.9450  144.2230 C   0  0  0  0  0  3  0  0  0  0  0  0
  189.2630  174.5210  140.5480 C   0  0  0  0  0  2  0  0  0  0  0  0
  189.4020  173.1480  142.4690 C   0  0  0  0  0  0  0  0  0  0  0  0
  187.8640  172.4870  139.1520 O   0  0  0  0  0  0  0  0  0  0  0  0
  189.0770  172.2900  139.2660 C   0  0  0  0  0  0  0  0  0  0  0  0
  189.6450  171.1510  138.4600 C   0  0  0  0  0  2  0  0  0  0  0  0
  191.8690  171.2560  137.5690 N   0  0  0  0  0  0  0  0  0  0  0  0
  190.5990  171.5070  137.3820 C   0  0  0  0  0  0  0  0  0  0  0  0
  192.4900  169.3300  138.8440 O   0  0  0  0  0  0  0  0  0  0  0  0
  192.5360  170.6290  138.6200 C   0  0  0  0  0  0  0  0  0  0  0  0
  194.5790  173.0710  141.6010 C   0  0  0  0  0  1  0  0  0  0  0  0
  193.9650  174.9590  140.0480 C   0  0  0  0  0  1  0  0  0  0  0  0
  193.6230  172.6820  139.2510 C   0  0  0  0  0  3  0  0  0  0  0  0
  194.1090  173.5480  140.3010 N   0  0  0  0  0  0  0  0  0  0  0  0
  193.2680  171.5020  139.4980 N   0  0  0  0  0  0  0  0  0  0  0  0
  190.1560  172.4290  136.2680 C   0  0  0  0  0  2  0  0  0  0  0  0
  190.3870  173.8830  136.4320 N   0  0  0  0  0  0  0  0  0  0  0  0
  191.3120  174.2630  135.3650 C   0  0  0  0  0  1  0  0  0  0  0  0
  189.3730  174.8960  134.5150 C   0  0  0  0  0  1  0  0  0  0  0  0
  189.2170  174.6490  136.0040 C   0  0  0  0  0  2  0  0  0  0  0  0
  1  7  1  6  0  0  0
  2  3  1  6  0  0  0
  2  5  1  0  0  0  0
  2  1  1  0  0  0  0
  4  3  2  0  0  0  0
  5  6  1  0  0  0  0
  8  7  1  6  0  0  0
  8 11  1  0  0  0  0
  8  9  1  0  0  0  0
  9 10  1  0  0  0  0
  9 29  1  1  0  0  0
 10 13  1  6  0  0  0
 11 10  1  0  0  0  0
 13 12  1  1  0  0  0
 14 18  1  0  0  0  0
 14 13  1  0  0  0  0
 15 16  1  0  0  0  0
 17 15  1  0  0  0  0
 17 19  1  1  0  0  0
 17 18  1  0  0  0  0
 18 16  1  0  0  0  0
 19 21  1  0  0  0  0
 20 24  1  0  0  0  0
 21 22  2  0  0  0  0
 22 23  1  0  0  0  0
 23 27  1  0  0  0  0
 24 23  2  0  0  0  0
 25 20  2  0  0  0  0
 25 21  1  0  0  0  0
 26 27  2  0  0  0  0
 27 28  1  0  0  0  0
 29 31  1  6  0  0  0
 31 30  1  0  0  0  0
 32 33  1  0  0  0  0
 33 29  1  0  0  0  0
 34  1  1  0  0  0  0
 35 38  1  0  0  0  0
 36 34  1  6  0  0  0
 36 44  1  0  0  0  0
 38 37  1  0  0  0  0
 38 42  2  0  0  0  0
 39 46  1  6  0  0  0
 39 43  1  0  0  0  0
 39 41  1  0  0  0  0
 40 42  1  0  0  0  0
 41 35  2  0  0  0  0
 41 44  1  0  0  0  0
 43 36  1  0  0  0  0
 44 40  2  0  0  0  0
 45 46  2  0  0  0  0
 47 46  1  0  0  0  0
 48 51  1  0  0  0  0
 49 48  2  0  0  0  0
 49 47  1  0  0  0  0
 51 50  2  0  0  0  0
 51 56  1  0  0  0  0
 53 55  1  0  0  0  0
 54 56  2  0  0  0  0
 54 55  1  0  0  0  0
 55 52  1  0  0  0  0
 57 58  1  0  0  0  0
 57 49  1  0  0  0  0
 59 58  1  0  0  0  0
 60 61  1  0  0  0  0
 61 58  1  0  0  0  0
M  END
>  <MODEL>
2

>  <REMARK>
 VINA RESULT:      -5.7      2.851      8.387
  Name = 
  24 active torsions:
  status: ('A' for Active; 'I' for Inactive)
    1  A    between atoms: O_1  and  C_12
    2  A    between atoms: O_1  and  C_50
    3  A    between atoms: C_4  and  N_38
    4  A    between atoms: C_5  and  C_7
    5  A    between atoms: C_5  and  C_58
    6  A    between atoms: C_9  and  C_13
    7  A    between atoms: N_11  and  C_59
    8  A    between atoms: C_13  and  C_48
    9  A    between atoms: C_13  and  C_58
   10  A    between atoms: C_18  and  C_61
   11  A    between atoms: C_23  and  C_27
   12  A    between atoms: C_23  and  C_30
   13  A    between atoms: C_26  and  C_35
   14  A    between atoms: C_26  and  C_47
   15  A    between atoms: C_28  and  C_60
   16  A    between atoms: C_30  and  N_55
   17  A    between atoms: N_33  and  C_37
   18  A    between atoms: N_33  and  C_47
   19  A    between atoms: C_35  and  C_60
   20  A    between atoms: N_38  and  C_58
   21  A    between atoms: O_40  and  C_61
   22  A    between atoms: C_43  and  C_51
   23  A    between atoms: N_45  and  C_59
   24  A    between atoms: C_46  and  C_61
                            x       y       z     vdW  Elec       q    Type
                         _______ _______ _______ _____ _____    ______ ____

>  <TORSDO>
F 24

$$$$
=
 OpenBabel11042418013D

 61 65  0  0  1  0  0  0  0  0999 V2000
  193.5610  174.7160  144.0130 C   0  0  2  0  0  3  0  0  0  0  0  0
  194.2790  175.7160  145.0270 C   0  0  2  0  0  3  0  0  0  0  0  0
  195.1970  174.9900  145.9460 C   0  0  0  0  0  3  0  0  0  0  0  0
  196.3750  174.7440  145.5790 O   0  0  0  0  0  0  0  0  0  0  0  0
  193.4860  176.8100  145.6740 C   0  0  0  0  0  2  0  0  0  0  0  0
  193.8870  177.0370  146.9780 F   0  0  0  0  0  0  0  0  0  0  0  0
  194.0480  174.5100  142.5870 C   0  0  0  0  0  2  0  0  0  0  0  0
  195.2890  173.5380  142.5060 C   0  0  2  0  0  3  0  0  0  0  0  0
  195.7710  173.0900  141.1820 C   0  0  2  0  0  3  0  0  0  0  0  0
  195.7680  171.7610  141.8510 C   0  0  1  0  0  3  0  0  0  0  0  0
  195.0470  172.2570  142.9220 O   0  0  0  0  0  0  0  0  0  0  0  0
  195.7110  170.2510  140.0850 O   0  0  0  0  0  1  0  0  0  0  0  0
  194.8350  170.9320  140.8730 C   0  0  1  0  0  3  0  0  0  0  0  0
  193.9290  170.0670  141.5780 C   0  0  0  0  0  2  0  0  0  0  0  0
  192.3790  168.5690  139.6160 C   0  0  0  0  0  2  0  0  0  0  0  0
  192.1420  168.7250  141.0890 C   0  0  0  0  0  2  0  0  0  0  0  0
  192.6690  170.0740  139.6580 C   0  0  2  0  0  3  0  0  0  0  0  0
  192.5110  170.1770  141.1420 N   0  0  0  0  0  0  0  0  0  0  0  0
  191.6660  170.7830  138.8420 O   0  0  0  0  0  0  0  0  0  0  0  0
  192.7560  174.1090  137.6530 C   0  0  0  0  0  3  0  0  0  0  0  0
  191.6930  171.9850  138.1620 C   0  0  0  0  0  0  0  0  0  0  0  0
  190.5290  172.4580  137.4850 C   0  0  0  0  0  3  0  0  0  0  0  0
  190.5400  173.7100  136.8640 C   0  0  0  0  0  0  0  0  0  0  0  0
  191.6600  174.5500  136.9460 C   0  0  0  0  0  3  0  0  0  0  0  0
  192.7650  172.9080  138.2430 C   0  0  0  0  0  3  0  0  0  0  0  0
  188.4670  174.7740  136.7870 O   0  0  0  0  0  1  0  0  0  0  0  0
  189.3440  174.1080  136.1930 C   0  0  0  0  0  0  0  0  0  0  0  0
  189.2060  173.7320  134.8750 O   0  0  0  0  0  0  0  0  0  0  0  0
  197.1980  173.4370  140.6080 C   0  0  1  0  0  3  0  0  0  0  0  0
  196.3310  173.1480  138.1810 C   0  0  0  0  0  1  0  0  0  0  0  0
  197.4200  173.5230  139.1090 C   0  0  0  0  0  2  0  0  0  0  0  0
  197.8840  175.5680  140.3590 C   0  0  0  0  0  1  0  0  0  0  0  0
  197.8290  174.4700  141.2420 O   0  0  0  0  0  0  0  0  0  0  0  0
  192.0880  174.7800  144.0950 N   0  0  0  0  0  2  0  0  0  0  0  0
  188.5090  174.8170  141.0020 C   0  0  0  0  0  3  0  0  0  0  0  0
  191.6280  175.2930  142.7870 C   0  0  2  0  0  3  0  0  0  0  0  0
  187.9300  172.8930  139.5860 F   0  0  0  0  0  0  0  0  0  0  0  0
  188.6970  173.5010  140.5230 C   0  0  0  0  0  0  0  0  0  0  0  0
  189.6210  176.7140  142.4880 C   0  0  2  0  0  3  0  0  0  0  0  0
  190.6310  173.2310  141.9310 C   0  0  0  0  0  3  0  0  0  0  0  0
  189.4270  175.3340  141.9320 C   0  0  0  0  0  0  0  0  0  0  0  0
  189.7380  172.7190  141.0390 C   0  0  0  0  0  3  0  0  0  0  0  0
  191.1080  176.7330  142.8700 C   0  0  0  0  0  2  0  0  0  0  0  0
  190.4610  174.5230  142.3260 C   0  0  0  0  0  0  0  0  0  0  0  0
  189.1110  177.4250  144.7460 O   0  0  0  0  0  0  0  0  0  0  0  0
  188.6710  176.9870  143.6790 C   0  0  0  0  0  0  0  0  0  0  0  0
  187.1830  176.7610  143.6150 C   0  0  0  0  0  2  0  0  0  0  0  0
  185.5750  178.4880  143.1830 N   0  0  0  0  0  0  0  0  0  0  0  0
  186.3190  177.8780  144.0690 C   0  0  0  0  0  0  0  0  0  0  0  0
  186.3580  178.2070  140.9400 O   0  0  0  0  0  0  0  0  0  0  0  0
  185.3800  178.2440  141.8240 C   0  0  0  0  0  0  0  0  0  0  0  0
  181.3630  177.7690  140.1940 C   0  0  0  0  0  1  0  0  0  0  0  0
  180.7130  179.2150  142.1550 C   0  0  0  0  0  1  0  0  0  0  0  0
  182.9900  178.3490  142.0920 C   0  0  0  0  0  3  0  0  0  0  0  0
  181.6810  178.3870  141.4810 N   0  0  0  0  0  0  0  0  0  0  0  0
  184.0120  178.0690  141.4160 N   0  0  0  0  0  0  0  0  0  0  0  0
  186.5510  178.4960  145.4300 C   0  0  0  0  0  2  0  0  0  0  0  0
  185.3730  178.9770  146.1880 N   0  0  0  0  0  0  0  0  0  0  0  0
  184.5780  177.7870  146.4860 C   0  0  0  0  0  1  0  0  0  0  0  0
  186.8400  178.3910  147.9860 C   0  0  0  0  0  1  0  0  0  0  0  0
  185.7470  179.3500  147.5520 C   0  0  0  0  0  2  0  0  0  0  0  0
  1  7  1  6  0  0  0
  1 34  1  0  0  0  0
  1  2  1  0  0  0  0
  2  5  1  1  0  0  0
  2  3  1  0  0  0  0
  4  3  2  0  0  0  0
  5  6  1  0  0  0  0
  8  7  1  6  0  0  0
  8 11  1  0  0  0  0
  9 29  1  1  0  0  0
  9 10  1  0  0  0  0
  9  8  1  0  0  0  0
 10 13  1  6  0  0  0
 10 11  1  0  0  0  0
 13 12  1  6  0  0  0
 13 14  1  0  0  0  0
 15 17  1  0  0  0  0
 15 16  1  0  0  0  0
 16 18  1  0  0  0  0
 17 19  1  6  0  0  0
 17 18  1  0  0  0  0
 18 14  1  0  0  0  0
 20 25  1  0  0  0  0
 21 25  2  0  0  0  0
 21 19  1  0  0  0  0
 22 21  1  0  0  0  0
 23 24  1  0  0  0  0
 23 22  2  0  0  0  0
 24 20  2  0  0  0  0
 27 26  1  0  0  0  0
 27 23  1  0  0  0  0
 28 27  2  0  0  0  0
 29 31  1  6  0  0  0
 29 33  1  0  0  0  0
 30 31  1  0  0  0  0
 32 33  1  0  0  0  0
 35 41  1  0  0  0  0
 36 43  1  0  0  0  0
 36 34  1  1  0  0  0
 37 38  1  0  0  0  0
 38 35  2  0  0  0  0
 38 42  1  0  0  0  0
 39 43  1  0  0  0  0
 39 46  1  1  0  0  0
 40 44  1  0  0  0  0
 41 44  2  0  0  0  0
 41 39  1  0  0  0  0
 42 40  2  0  0  0  0
 44 36  1  0  0  0  0
 46 45  2  0  0  0  0
 47 46  1  0  0  0  0
 47 49  1  0  0  0  0
 48 49  2  0  0  0  0
 49 57  1  0  0  0  0
 50 51  2  0  0  0  0
 51 48  1  0  0  0  0
 52 55  1  0  0  0  0
 55 54  1  0  0  0  0
 55 53  1  0  0  0  0
 56 51  1  0  0  0  0
 56 54  2  0  0  0  0
 57 58  1  0  0  0  0
 58 59  1  0  0  0  0
 58 61  1  0  0  0  0
 61 60  1  0  0  0  0
M  END
>  <MODEL>
3

>  <REMARK>
 VINA RESULT:      -5.6      2.835      9.704
  Name = 
  24 active torsions:
  status: ('A' for Active; 'I' for Inactive)
    1  A    between atoms: O_1  and  C_12
    2  A    between atoms: O_1  and  C_50
    3  A    between atoms: C_4  and  N_38
    4  A    between atoms: C_5  and  C_7
    5  A    between atoms: C_5  and  C_58
    6  A    between atoms: C_9  and  C_13
    7  A    between atoms: N_11  and  C_59
    8  A    between atoms: C_13  and  C_48
    9  A    between atoms: C_13  and  C_58
   10  A    between atoms: C_18  and  C_61
   11  A    between atoms: C_23  and  C_27
   12  A    between atoms: C_23  and  C_30
   13  A    between atoms: C_26  and  C_35
   14  A    between atoms: C_26  and  C_47
   15  A    between atoms: C_28  and  C_60
   16  A    between atoms: C_30  and  N_55
   17  A    between atoms: N_33  and  C_37
   18  A    between atoms: N_33  and  C_47
   19  A    between atoms: C_35  and  C_60
   20  A    between atoms: N_38  and  C_58
   21  A    between atoms: O_40  and  C_61
   22  A    between atoms: C_43  and  C_51
   23  A    between atoms: N_45  and  C_59
   24  A    between atoms: C_46  and  C_61
                            x       y       z     vdW  Elec       q    Type
                         _______ _______ _______ _____ _____    ______ ____

>  <TORSDO>
F 24

$$$$
=
 OpenBabel11042418013D

 61 65  0  0  1  0  0  0  0  0999 V2000
  188.2380  175.1040  142.2420 C   0  0  2  0  0  3  0  0  0  0  0  0
  187.0500  176.1430  142.0120 C   0  0  2  0  0  3  0  0  0  0  0  0
  187.1640  176.8140  140.6890 C   0  0  0  0  0  3  0  0  0  0  0  0
  186.4020  177.7760  140.4140 O   0  0  0  0  0  0  0  0  0  0  0  0
  186.6260  177.0420  143.1330 C   0  0  0  0  0  2  0  0  0  0  0  0
  185.2610  176.9930  143.3480 F   0  0  0  0  0  0  0  0  0  0  0  0
  189.6540  175.5450  142.5800 C   0  0  0  0  0  2  0  0  0  0  0  0
  190.0690  175.1650  144.0550 C   0  0  2  0  0  3  0  0  0  0  0  0
  190.3200  176.2440  145.0350 C   0  0  2  0  0  3  0  0  0  0  0  0
  191.5340  175.4310  145.3210 C   0  0  1  0  0  3  0  0  0  0  0  0
  191.3360  174.6640  144.1870 O   0  0  0  0  0  0  0  0  0  0  0  0
  193.2200  176.6770  146.3250 O   0  0  0  0  0  1  0  0  0  0  0  0
  192.6790  176.5040  145.0890 C   0  0  1  0  0  3  0  0  0  0  0  0
  193.6430  176.0780  144.1110 C   0  0  0  0  0  2  0  0  0  0  0  0
  196.0780  175.0720  142.8660 C   0  0  0  0  0  2  0  0  0  0  0  0
  195.9190  176.1470  143.9000 C   0  0  0  0  0  2  0  0  0  0  0  0
  195.0570  174.3120  143.7200 C   0  0  2  0  0  3  0  0  0  0  0  0
  194.8570  175.4380  144.6840 N   0  0  0  0  0  0  0  0  0  0  0  0
  195.6870  173.0930  144.2580 O   0  0  0  0  0  0  0  0  0  0  0  0
  193.6230  170.0310  144.0890 C   0  0  0  0  0  3  0  0  0  0  0  0
  195.2040  171.8250  144.5160 C   0  0  0  0  0  0  0  0  0  0  0  0
  195.6200  171.1170  145.6840 C   0  0  0  0  0  3  0  0  0  0  0  0
  195.0700  169.8680  145.9800 C   0  0  0  0  0  0  0  0  0  0  0  0
  194.0590  169.3140  145.1810 C   0  0  0  0  0  3  0  0  0  0  0  0
  194.1490  171.2240  143.7870 C   0  0  0  0  0  3  0  0  0  0  0  0
  196.7630  169.2340  147.4530 O   0  0  0  0  0  0  0  0  0  0  0  0
  195.5460  169.2140  147.1570 C   0  0  0  0  0  0  0  0  0  0  0  0
  194.6150  168.5750  147.9430 O   0  0  0  0  0  1  0  0  0  0  0  0
  189.4590  176.4590  146.3370 C   0  0  1  0  0  3  0  0  0  0  0  0
  187.2000  177.5940  146.9170 C   0  0  0  0  0  1  0  0  0  0  0  0
  187.9430  176.5010  146.2540 C   0  0  0  0  0  2  0  0  0  0  0  0
  189.0350  174.5680  147.4860 C   0  0  0  0  0  1  0  0  0  0  0  0
  189.8550  175.7120  147.4110 O   0  0  0  0  0  0  0  0  0  0  0  0
  188.2180  173.9900  141.2720 N   0  0  0  0  0  2  0  0  0  0  0  0
  191.2540  170.5930  139.9980 C   0  0  0  0  0  3  0  0  0  0  0  0
  189.6330  173.6870  140.9690 C   0  0  2  0  0  3  0  0  0  0  0  0
  191.9980  168.8100  141.5160 F   0  0  0  0  0  0  0  0  0  0  0  0
  191.2840  169.9290  141.2430 C   0  0  0  0  0  0  0  0  0  0  0  0
  190.4210  172.8060  138.7920 C   0  0  2  0  0  3  0  0  0  0  0  0
  189.8140  171.5800  142.1960 C   0  0  0  0  0  3  0  0  0  0  0  0
  190.5130  171.7820  139.8850 C   0  0  0  0  0  0  0  0  0  0  0  0
  190.5180  170.4210  142.3090 C   0  0  0  0  0  3  0  0  0  0  0  0
  190.0260  174.0870  139.5420 C   0  0  0  0  0  2  0  0  0  0  0  0
  189.8550  172.2320  141.0010 C   0  0  0  0  0  0  0  0  0  0  0  0
  188.2370  172.7860  137.7470 O   0  0  0  0  0  0  0  0  0  0  0  0
  189.4040  172.3870  137.7030 C   0  0  0  0  0  0  0  0  0  0  0  0
  189.7630  171.5030  136.5370 C   0  0  0  0  0  2  0  0  0  0  0  0
  191.7040  172.1350  135.2780 N   0  0  0  0  0  0  0  0  0  0  0  0
  190.4000  172.1620  135.3710 C   0  0  0  0  0  0  0  0  0  0  0  0
  192.6340  170.2490  136.4170 O   0  0  0  0  0  0  0  0  0  0  0  0
  192.6690  171.5220  136.0770 C   0  0  0  0  0  0  0  0  0  0  0  0
  196.1070  173.8330  137.4400 C   0  0  0  0  0  1  0  0  0  0  0  0
  194.5810  174.4210  139.3590 C   0  0  0  0  0  1  0  0  0  0  0  0
  193.6050  173.2640  137.4490 C   0  0  0  0  0  3  0  0  0  0  0  0
  194.7730  173.8760  138.0390 N   0  0  0  0  0  0  0  0  0  0  0  0
  193.7140  172.3850  136.5580 N   0  0  0  0  0  0  0  0  0  0  0  0
  189.5910  173.1120  134.5170 C   0  0  0  0  0  2  0  0  0  0  0  0
  189.9570  174.5480  134.5300 N   0  0  0  0  0  0  0  0  0  0  0  0
  188.7200  175.2720  134.8130 C   0  0  0  0  0  1  0  0  0  0  0  0
  191.8030  175.8450  135.3290 C   0  0  0  0  0  1  0  0  0  0  0  0
  190.7020  174.8850  135.7430 C   0  0  0  0  0  2  0  0  0  0  0  0
  1  7  1  6  0  0  0
  2  3  1  6  0  0  0
  2  1  1  0  0  0  0
  2  5  1  0  0  0  0
  4  3  2  0  0  0  0
  5  6  1  0  0  0  0
  8  7  1  6  0  0  0
  8 11  1  0  0  0  0
  8  9  1  0  0  0  0
  9 10  1  0  0  0  0
  9 29  1  1  0  0  0
 10 13  1  6  0  0  0
 11 10  1  0  0  0  0
 13 12  1  1  0  0  0
 14 18  1  0  0  0  0
 14 13  1  0  0  0  0
 15 17  1  0  0  0  0
 15 16  1  0  0  0  0
 16 18  1  0  0  0  0
 17 19  1  1  0  0  0
 17 18  1  0  0  0  0
 19 21  1  0  0  0  0
 20 24  1  0  0  0  0
 21 22  2  0  0  0  0
 22 23  1  0  0  0  0
 23 27  1  0  0  0  0
 24 23  2  0  0  0  0
 25 20  2  0  0  0  0
 25 21  1  0  0  0  0
 27 26  2  0  0  0  0
 27 28  1  0  0  0  0
 29 31  1  6  0  0  0
 29 33  1  0  0  0  0
 31 30  1  0  0  0  0
 33 32  1  0  0  0  0
 34  1  1  0  0  0  0
 35 38  1  0  0  0  0
 36 44  1  0  0  0  0
 36 34  1  6  0  0  0
 38 37  1  0  0  0  0
 38 42  2  0  0  0  0
 39 46  1  6  0  0  0
 39 43  1  0  0  0  0
 39 41  1  0  0  0  0
 40 42  1  0  0  0  0
 41 35  2  0  0  0  0
 41 44  1  0  0  0  0
 43 36  1  0  0  0  0
 44 40  2  0  0  0  0
 46 45  2  0  0  0  0
 47 46  1  0  0  0  0
 48 49  2  0  0  0  0
 48 51  1  0  0  0  0
 49 47  1  0  0  0  0
 51 50  2  0  0  0  0
 51 56  1  0  0  0  0
 52 55  1  0  0  0  0
 54 55  1  0  0  0  0
 55 53  1  0  0  0  0
 56 54  2  0  0  0  0
 57 58  1  0  0  0  0
 57 49  1  0  0  0  0
 58 59  1  0  0  0  0
 58 61  1  0  0  0  0
 60 61  1  0  0  0  0
M  END
>  <MODEL>
4

>  <REMARK>
 VINA RESULT:      -5.6      3.161      8.333
  Name = 
  24 active torsions:
  status: ('A' for Active; 'I' for Inactive)
    1  A    between atoms: O_1  and  C_12
    2  A    between atoms: O_1  and  C_50
    3  A    between atoms: C_4  and  N_38
    4  A    between atoms: C_5  and  C_7
    5  A    between atoms: C_5  and  C_58
    6  A    between atoms: C_9  and  C_13
    7  A    between atoms: N_11  and  C_59
    8  A    between atoms: C_13  and  C_48
    9  A    between atoms: C_13  and  C_58
   10  A    between atoms: C_18  and  C_61
   11  A    between atoms: C_23  and  C_27
   12  A    between atoms: C_23  and  C_30
   13  A    between atoms: C_26  and  C_35
   14  A    between atoms: C_26  and  C_47
   15  A    between atoms: C_28  and  C_60
   16  A    between atoms: C_30  and  N_55
   17  A    between atoms: N_33  and  C_37
   18  A    between atoms: N_33  and  C_47
   19  A    between atoms: C_35  and  C_60
   20  A    between atoms: N_38  and  C_58
   21  A    between atoms: O_40  and  C_61
   22  A    between atoms: C_43  and  C_51
   23  A    between atoms: N_45  and  C_59
   24  A    between atoms: C_46  and  C_61
                            x       y       z     vdW  Elec       q    Type
                         _______ _______ _______ _____ _____    ______ ____

>  <TORSDO>
F 24

$$$$
=
 OpenBabel11042418013D

 61 65  0  0  1  0  0  0  0  0999 V2000
  190.6950  175.4350  145.1090 C   0  0  2  0  0  3  0  0  0  0  0  0
  190.7330  175.9870  146.6050 C   0  0  2  0  0  3  0  0  0  0  0  0
  190.3190  177.4150  146.6660 C   0  0  0  0  0  3  0  0  0  0  0  0
  189.1120  177.7020  146.8770 O   0  0  0  0  0  0  0  0  0  0  0  0
  191.8840  175.6330  147.4960 C   0  0  0  0  0  2  0  0  0  0  0  0
  191.4750  174.9370  148.6180 F   0  0  0  0  0  0  0  0  0  0  0  0
  189.4180  174.9270  144.4590 C   0  0  0  0  0  2  0  0  0  0  0  0
  188.7590  175.9960  143.5030 C   0  0  2  0  0  3  0  0  0  0  0  0
  187.4400  175.7090  142.8980 C   0  0  2  0  0  3  0  0  0  0  0  0
  188.1250  176.1840  141.6640 C   0  0  1  0  0  3  0  0  0  0  0  0
  189.3610  176.1290  142.2810 O   0  0  0  0  0  0  0  0  0  0  0  0
  187.4910  175.4970  139.5360 O   0  0  0  0  0  1  0  0  0  0  0  0
  187.9140  174.9400  140.7030 C   0  0  1  0  0  3  0  0  0  0  0  0
  189.1090  174.1550  140.5480 C   0  0  0  0  0  2  0  0  0  0  0  0
  190.4460  171.7840  139.5080 C   0  0  0  0  0  2  0  0  0  0  0  0
  189.0290  172.2350  139.3080 C   0  0  0  0  0  2  0  0  0  0  0  0
  190.7890  173.2580  139.2650 C   0  0  2  0  0  3  0  0  0  0  0  0
  189.3610  173.6890  139.1580 N   0  0  0  0  0  0  0  0  0  0  0  0
  191.6010  173.3710  138.0400 O   0  0  0  0  0  0  0  0  0  0  0  0
  193.7030  175.8590  136.2930 C   0  0  0  0  0  3  0  0  0  0  0  0
  192.6790  174.1650  137.7010 C   0  0  0  0  0  0  0  0  0  0  0  0
  193.9730  173.8950  138.2380 C   0  0  0  0  0  3  0  0  0  0  0  0
  195.0730  174.6550  137.8320 C   0  0  0  0  0  0  0  0  0  0  0  0
  194.9450  175.6470  136.8490 C   0  0  0  0  0  3  0  0  0  0  0  0
  192.6390  175.1470  136.6810 C   0  0  0  0  0  3  0  0  0  0  0  0
  196.4160  173.4700  139.3250 O   0  0  0  0  0  1  0  0  0  0  0  0
  196.3320  174.3360  138.4250 C   0  0  0  0  0  0  0  0  0  0  0  0
  197.4370  175.0150  137.9610 O   0  0  0  0  0  0  0  0  0  0  0  0
  186.1420  176.5550  143.1900 C   0  0  1  0  0  3  0  0  0  0  0  0
  185.5790  176.8280  145.7060 C   0  0  0  0  0  1  0  0  0  0  0  0
  186.0540  177.4170  144.4360 C   0  0  0  0  0  2  0  0  0  0  0  0
  184.6250  178.0920  142.5510 C   0  0  0  0  0  1  0  0  0  0  0  0
  185.6490  177.2300  142.1090 O   0  0  0  0  0  0  0  0  0  0  0  0
  191.8610  174.5890  144.7830 N   0  0  0  0  0  2  0  0  0  0  0  0
  195.9640  175.5900  142.6510 C   0  0  0  0  0  3  0  0  0  0  0  0
  192.4840  175.1960  143.5880 C   0  0  2  0  0  3  0  0  0  0  0  0
  197.4700  177.3820  143.3980 F   0  0  0  0  0  0  0  0  0  0  0  0
  196.3270  176.6620  143.4960 C   0  0  0  0  0  0  0  0  0  0  0  0
  193.9600  173.9660  142.0250 C   0  0  2  0  0  3  0  0  0  0  0  0
  194.2590  176.4470  144.7100 C   0  0  0  0  0  3  0  0  0  0  0  0
  194.7130  174.9770  142.8380 C   0  0  0  0  0  0  0  0  0  0  0  0
  195.4750  177.0370  144.5430 C   0  0  0  0  0  3  0  0  0  0  0  0
  192.4940  174.2460  142.3850 C   0  0  0  0  0  2  0  0  0  0  0  0
  193.9100  175.4590  143.8400 C   0  0  0  0  0  0  0  0  0  0  0  0
  195.5160  172.3100  142.8610 O   0  0  0  0  0  0  0  0  0  0  0  0
  194.4140  172.5220  142.3490 C   0  0  0  0  0  0  0  0  0  0  0  0
  193.5570  171.3110  142.0860 C   0  0  0  0  0  2  0  0  0  0  0  0
  194.2990  169.0300  142.0550 N   0  0  0  0  0  0  0  0  0  0  0  0
  194.2130  170.1650  141.4100 C   0  0  0  0  0  0  0  0  0  0  0  0
  192.5870  168.2180  143.5140 O   0  0  0  0  0  0  0  0  0  0  0  0
  193.8170  168.6460  143.3050 C   0  0  0  0  0  0  0  0  0  0  0  0
  196.9120  168.8700  146.3700 C   0  0  0  0  0  1  0  0  0  0  0  0
  195.0360  168.1660  147.9000 C   0  0  0  0  0  1  0  0  0  0  0  0
  194.4590  168.8020  145.6200 C   0  0  0  0  0  3  0  0  0  0  0  0
  195.4860  168.6680  146.6270 N   0  0  0  0  0  0  0  0  0  0  0  0
  194.7450  168.7810  144.3960 N   0  0  0  0  0  0  0  0  0  0  0  0
  195.0420  170.4050  140.1680 C   0  0  0  0  0  2  0  0  0  0  0  0
  194.7660  169.5760  138.9720 N   0  0  0  0  0  0  0  0  0  0  0  0
  193.3150  169.6060  138.7930 C   0  0  0  0  0  1  0  0  0  0  0  0
  194.6270  169.4600  136.5860 C   0  0  0  0  0  1  0  0  0  0  0  0
  195.1620  170.2740  137.7500 C   0  0  0  0  0  2  0  0  0  0  0  0
  1  7  1  1  0  0  0
  1  2  1  0  0  0  0
  2  3  1  6  0  0  0
  2  5  1  0  0  0  0
  3  4  2  0  0  0  0
  5  6  1  0  0  0  0
  8  7  1  6  0  0  0
  9 29  1  1  0  0  0
  9  8  1  0  0  0  0
 10 13  1  6  0  0  0
 10 11  1  0  0  0  0
 10  9  1  0  0  0  0
 11  8  1  0  0  0  0
 13 12  1  6  0  0  0
 14 13  1  0  0  0  0
 16 15  1  0  0  0  0
 17 19  1  6  0  0  0
 17 15  1  0  0  0  0
 18 17  1  0  0  0  0
 18 16  1  0  0  0  0
 18 14  1  0  0  0  0
 20 25  2  0  0  0  0
 20 24  1  0  0  0  0
 21 19  1  0  0  0  0
 21 22  2  0  0  0  0
 23 22  1  0  0  0  0
 23 27  1  0  0  0  0
 24 23  2  0  0  0  0
 25 21  1  0  0  0  0
 27 26  1  0  0  0  0
 28 27  2  0  0  0  0
 29 31  1  1  0  0  0
 31 30  1  0  0  0  0
 33 32  1  0  0  0  0
 33 29  1  0  0  0  0
 34  1  1  0  0  0  0
 35 41  2  0  0  0  0
 35 38  1  0  0  0  0
 36 44  1  0  0  0  0
 36 34  1  1  0  0  0
 37 38  1  0  0  0  0
 38 42  2  0  0  0  0
 39 46  1  1  0  0  0
 39 43  1  0  0  0  0
 39 41  1  0  0  0  0
 41 44  1  0  0  0  0
 42 40  1  0  0  0  0
 43 36  1  0  0  0  0
 44 40  2  0  0  0  0
 46 45  2  0  0  0  0
 47 46  1  0  0  0  0
 48 51  1  0  0  0  0
 49 48  2  0  0  0  0
 49 47  1  0  0  0  0
 51 50  2  0  0  0  0
 51 56  1  0  0  0  0
 52 55  1  0  0  0  0
 54 55  1  0  0  0  0
 55 53  1  0  0  0  0
 56 54  2  0  0  0  0
 57 49  1  0  0  0  0
 58 57  1  0  0  0  0
 59 58  1  0  0  0  0
 60 61  1  0  0  0  0
 61 58  1  0  0  0  0
M  END
>  <MODEL>
5

>  <REMARK>
 VINA RESULT:      -5.5      2.303      7.312
  Name = 
  24 active torsions:
  status: ('A' for Active; 'I' for Inactive)
    1  A    between atoms: O_1  and  C_12
    2  A    between atoms: O_1  and  C_50
    3  A    between atoms: C_4  and  N_38
    4  A    between atoms: C_5  and  C_7
    5  A    between atoms: C_5  and  C_58
    6  A    between atoms: C_9  and  C_13
    7  A    between atoms: N_11  and  C_59
    8  A    between atoms: C_13  and  C_48
    9  A    between atoms: C_13  and  C_58
   10  A    between atoms: C_18  and  C_61
   11  A    between atoms: C_23  and  C_27
   12  A    between atoms: C_23  and  C_30
   13  A    between atoms: C_26  and  C_35
   14  A    between atoms: C_26  and  C_47
   15  A    between atoms: C_28  and  C_60
   16  A    between atoms: C_30  and  N_55
   17  A    between atoms: N_33  and  C_37
   18  A    between atoms: N_33  and  C_47
   19  A    between atoms: C_35  and  C_60
   20  A    between atoms: N_38  and  C_58
   21  A    between atoms: O_40  and  C_61
   22  A    between atoms: C_43  and  C_51
   23  A    between atoms: N_45  and  C_59
   24  A    between atoms: C_46  and  C_61
                            x       y       z     vdW  Elec       q    Type
                         _______ _______ _______ _____ _____    ______ ____

>  <TORSDO>
F 24

$$$$
=
 OpenBabel11042418013D

 61 65  0  0  1  0  0  0  0  0999 V2000
  193.2830  174.4470  144.5210 C   0  0  2  0  0  3  0  0  0  0  0  0
  194.2150  175.6290  145.0490 C   0  0  2  0  0  3  0  0  0  0  0  0
  195.3920  175.1010  145.7910 C   0  0  0  0  0  3  0  0  0  0  0  0
  196.3410  174.5750  145.1540 O   0  0  0  0  0  0  0  0  0  0  0  0
  193.5910  176.8480  145.6560 C   0  0  0  0  0  2  0  0  0  0  0  0
  194.5200  177.6260  146.3240 F   0  0  0  0  0  0  0  0  0  0  0  0
  193.5950  173.6640  143.2560 C   0  0  0  0  0  2  0  0  0  0  0  0
  193.7340  172.1150  143.5210 C   0  0  2  0  0  3  0  0  0  0  0  0
  194.9440  171.4070  143.0500 C   0  0  2  0  0  3  0  0  0  0  0  0
  193.9370  170.4330  142.5460 C   0  0  1  0  0  3  0  0  0  0  0  0
  192.9040  171.3240  142.7740 O   0  0  0  0  0  0  0  0  0  0  0  0
  194.7690  169.1110  140.8260 O   0  0  0  0  0  1  0  0  0  0  0  0
  194.3120  170.3800  141.0060 C   0  0  1  0  0  3  0  0  0  0  0  0
  193.1970  170.6980  140.1570 C   0  0  0  0  0  2  0  0  0  0  0  0
  194.8040  171.1050  137.7600 C   0  0  0  0  0  2  0  0  0  0  0  0
  193.3220  171.2510  137.9410 C   0  0  0  0  0  2  0  0  0  0  0  0
  194.8870  171.8410  139.1020 C   0  0  2  0  0  3  0  0  0  0  0  0
  193.4040  171.8920  139.2930 N   0  0  0  0  0  0  0  0  0  0  0  0
  195.5660  173.1340  138.9040 O   0  0  0  0  0  0  0  0  0  0  0  0
  196.7860  175.4130  136.2610 C   0  0  0  0  0  3  0  0  0  0  0  0
  195.5790  174.0340  137.8570 C   0  0  0  0  0  0  0  0  0  0  0  0
  194.3890  174.7290  137.4860 C   0  0  0  0  0  3  0  0  0  0  0  0
  194.4260  175.6940  136.4760 C   0  0  0  0  0  0  0  0  0  0  0  0
  195.6330  176.0460  135.8550 C   0  0  0  0  0  3  0  0  0  0  0  0
  196.7630  174.4780  137.2190 C   0  0  0  0  0  3  0  0  0  0  0  0
  193.1750  177.5070  135.7120 O   0  0  0  0  0  0  0  0  0  0  0  0
  193.1930  176.3350  136.1510 C   0  0  0  0  0  0  0  0  0  0  0  0
  192.0370  175.6090  136.3360 O   0  0  0  0  0  1  0  0  0  0  0  0
  195.9790  170.7090  144.0130 C   0  0  1  0  0  3  0  0  0  0  0  0
  197.9410  172.2260  143.2550 C   0  0  0  0  0  1  0  0  0  0  0  0
  197.3310  171.3480  144.2770 C   0  0  0  0  0  2  0  0  0  0  0  0
  195.2510  168.8470  145.0500 C   0  0  0  0  0  1  0  0  0  0  0  0
  195.4420  170.2370  145.1780 O   0  0  0  0  0  0  0  0  0  0  0  0
  191.8440  174.7560  144.6450 N   0  0  0  0  0  2  0  0  0  0  0  0
  187.9770  174.3460  141.9510 C   0  0  0  0  0  3  0  0  0  0  0  0
  191.3210  174.8280  143.2640 C   0  0  2  0  0  3  0  0  0  0  0  0
  186.9290  172.1890  141.4150 F   0  0  0  0  0  0  0  0  0  0  0  0
  187.8900  172.9380  142.0070 C   0  0  0  0  0  0  0  0  0  0  0  0
  189.5520  176.4010  142.5370 C   0  0  2  0  0  3  0  0  0  0  0  0
  189.9080  172.8340  143.3170 C   0  0  0  0  0  3  0  0  0  0  0  0
  189.0710  174.9800  142.5650 C   0  0  0  0  0  0  0  0  0  0  0  0
  188.8440  172.2140  142.7350 C   0  0  0  0  0  3  0  0  0  0  0  0
  191.0570  176.2680  142.8110 C   0  0  0  0  0  2  0  0  0  0  0  0
  189.9980  174.1870  143.1910 C   0  0  0  0  0  0  0  0  0  0  0  0
  189.3690  178.2410  144.1000 O   0  0  0  0  0  0  0  0  0  0  0  0
  188.8070  177.2760  143.5740 C   0  0  0  0  0  0  0  0  0  0  0  0
  187.3810  177.0270  143.9890 C   0  0  0  0  0  2  0  0  0  0  0  0
  185.9240  178.5420  145.1450 N   0  0  0  0  0  0  0  0  0  0  0  0
  186.4770  178.2030  144.0090 C   0  0  0  0  0  0  0  0  0  0  0  0
  185.0940  177.9820  147.3170 O   0  0  0  0  0  0  0  0  0  0  0  0
  186.0690  178.0190  146.4290 C   0  0  0  0  0  0  0  0  0  0  0  0
  190.2090  176.8650  147.1680 C   0  0  0  0  0  1  0  0  0  0  0  0
  189.2700  174.5280  147.0580 C   0  0  0  0  0  1  0  0  0  0  0  0
  187.6900  176.3810  147.1260 C   0  0  0  0  0  3  0  0  0  0  0  0
  189.0680  175.9500  147.1680 N   0  0  0  0  0  0  0  0  0  0  0  0
  187.3860  177.5450  146.7610 N   0  0  0  0  0  0  0  0  0  0  0  0
  185.9590  178.7690  142.7060 C   0  0  0  0  0  2  0  0  0  0  0  0
  185.3670  177.8310  141.7240 N   0  0  0  0  0  0  0  0  0  0  0  0
  183.9500  178.1790  141.6430 C   0  0  0  0  0  1  0  0  0  0  0  0
  186.7200  177.0960  139.8920 C   0  0  0  0  0  1  0  0  0  0  0  0
  185.7670  178.1800  140.3610 C   0  0  0  0  0  2  0  0  0  0  0  0
  1  7  1  6  0  0  0
  1 34  1  0  0  0  0
  1  2  1  0  0  0  0
  2  5  1  1  0  0  0
  2  3  1  0  0  0  0
  4  3  2  0  0  0  0
  5  6  1  0  0  0  0
  8  7  1  6  0  0  0
  9  8  1  0  0  0  0
  9 29  1  1  0  0  0
 10 13  1  6  0  0  0
 10 11  1  0  0  0  0
 10  9  1  0  0  0  0
 11  8  1  0  0  0  0
 13 12  1  6  0  0  0
 14 13  1  0  0  0  0
 15 16  1  0  0  0  0
 15 17  1  0  0  0  0
 16 18  1  0  0  0  0
 17 19  1  6  0  0  0
 17 18  1  0  0  0  0
 18 14  1  0  0  0  0
 20 25  1  0  0  0  0
 21 19  1  0  0  0  0
 22 21  1  0  0  0  0
 23 22  2  0  0  0  0
 24 20  2  0  0  0  0
 24 23  1  0  0  0  0
 25 21  2  0  0  0  0
 26 27  2  0  0  0  0
 27 28  1  0  0  0  0
 27 23  1  0  0  0  0
 29 31  1  1  0  0  0
 29 33  1  0  0  0  0
 30 31  1  0  0  0  0
 32 33  1  0  0  0  0
 35 38  2  0  0  0  0
 35 41  1  0  0  0  0
 36 34  1  1  0  0  0
 37 38  1  0  0  0  0
 38 42  1  0  0  0  0
 39 41  1  0  0  0  0
 39 43  1  0  0  0  0
 39 46  1  1  0  0  0
 41 44  2  0  0  0  0
 42 40  2  0  0  0  0
 43 36  1  0  0  0  0
 44 36  1  0  0  0  0
 44 40  1  0  0  0  0
 46 47  1  0  0  0  0
 46 45  2  0  0  0  0
 47 49  1  0  0  0  0
 48 51  1  0  0  0  0
 49 48  2  0  0  0  0
 51 56  1  0  0  0  0
 51 50  2  0  0  0  0
 52 55  1  0  0  0  0
 53 55  1  0  0  0  0
 54 55  1  0  0  0  0
 56 54  2  0  0  0  0
 57 49  1  0  0  0  0
 58 57  1  0  0  0  0
 59 58  1  0  0  0  0
 60 61  1  0  0  0  0
 61 58  1  0  0  0  0
M  END
>  <MODEL>
6

>  <REMARK>
 VINA RESULT:      -5.2      2.647      9.741
  Name = 
  24 active torsions:
  status: ('A' for Active; 'I' for Inactive)
    1  A    between atoms: O_1  and  C_12
    2  A    between atoms: O_1  and  C_50
    3  A    between atoms: C_4  and  N_38
    4  A    between atoms: C_5  and  C_7
    5  A    between atoms: C_5  and  C_58
    6  A    between atoms: C_9  and  C_13
    7  A    between atoms: N_11  and  C_59
    8  A    between atoms: C_13  and  C_48
    9  A    between atoms: C_13  and  C_58
   10  A    between atoms: C_18  and  C_61
   11  A    between atoms: C_23  and  C_27
   12  A    between atoms: C_23  and  C_30
   13  A    between atoms: C_26  and  C_35
   14  A    between atoms: C_26  and  C_47
   15  A    between atoms: C_28  and  C_60
   16  A    between atoms: C_30  and  N_55
   17  A    between atoms: N_33  and  C_37
   18  A    between atoms: N_33  and  C_47
   19  A    between atoms: C_35  and  C_60
   20  A    between atoms: N_38  and  C_58
   21  A    between atoms: O_40  and  C_61
   22  A    between atoms: C_43  and  C_51
   23  A    between atoms: N_45  and  C_59
   24  A    between atoms: C_46  and  C_61
                            x       y       z     vdW  Elec       q    Type
                         _______ _______ _______ _____ _____    ______ ____

>  <TORSDO>
F 24

$$$$
=
 OpenBabel11042418013D

 61 65  0  0  1  0  0  0  0  0999 V2000
  188.5760  174.1650  141.6320 C   0  0  2  0  0  3  0  0  0  0  0  0
  188.1830  175.4100  142.5480 C   0  0  2  0  0  3  0  0  0  0  0  0
  186.7610  175.3400  142.9790 C   0  0  0  0  0  3  0  0  0  0  0  0
  185.9560  176.2330  142.6080 O   0  0  0  0  0  0  0  0  0  0  0  0
  188.6530  176.7820  142.1730 C   0  0  0  0  0  2  0  0  0  0  0  0
  189.5690  177.2820  143.0820 F   0  0  0  0  0  0  0  0  0  0  0  0
  189.1790  172.8910  142.2010 C   0  0  0  0  0  2  0  0  0  0  0  0
  190.7510  172.9610  142.3100 C   0  0  2  0  0  3  0  0  0  0  0  0
  191.4260  172.3220  143.4610 C   0  0  2  0  0  3  0  0  0  0  0  0
  192.1490  173.6220  143.5060 C   0  0  1  0  0  3  0  0  0  0  0  0
  191.2540  174.1960  142.6220 O   0  0  0  0  0  0  0  0  0  0  0  0
  192.8610  174.9480  145.2760 O   0  0  0  0  0  1  0  0  0  0  0  0
  191.8510  174.0820  144.9940 C   0  0  1  0  0  3  0  0  0  0  0  0
  190.5500  174.6750  145.1370 C   0  0  0  0  0  2  0  0  0  0  0  0
  188.9680  174.9210  147.5730 C   0  0  0  0  0  2  0  0  0  0  0  0
  190.4590  174.9140  147.4100 C   0  0  0  0  0  2  0  0  0  0  0  0
  188.9920  175.8470  146.3510 C   0  0  2  0  0  3  0  0  0  0  0  0
  190.4730  175.7480  146.1650 N   0  0  0  0  0  0  0  0  0  0  0  0
  188.4680  177.1700  146.7370 O   0  0  0  0  0  0  0  0  0  0  0  0
  185.0500  178.2350  147.6590 C   0  0  0  0  0  3  0  0  0  0  0  0
  187.2100  177.7360  146.6650 C   0  0  0  0  0  0  0  0  0  0  0  0
  186.6760  178.1540  145.4090 C   0  0  0  0  0  3  0  0  0  0  0  0
  185.3740  178.6550  145.3320 C   0  0  0  0  0  0  0  0  0  0  0  0
  184.5460  178.6960  146.4630 C   0  0  0  0  0  3  0  0  0  0  0  0
  186.3000  177.7640  147.7490 C   0  0  0  0  0  3  0  0  0  0  0  0
  183.7040  178.9890  143.7390 O   0  0  0  0  0  1  0  0  0  0  0  0
  184.9160  179.0670  144.0440 C   0  0  0  0  0  0  0  0  0  0  0  0
  185.8590  179.5540  143.1670 O   0  0  0  0  0  0  0  0  0  0  0  0
  192.4310  171.1150  143.3240 C   0  0  1  0  0  3  0  0  0  0  0  0
  194.7220  171.7310  142.2770 C   0  0  0  0  0  1  0  0  0  0  0  0
  193.9250  171.3440  143.4610 C   0  0  0  0  0  2  0  0  0  0  0  0
  192.7810  168.8950  143.4760 C   0  0  0  0  0  1  0  0  0  0  0  0
  192.0590  169.9870  144.0000 O   0  0  0  0  0  0  0  0  0  0  0  0
  189.2180  174.5690  140.3650 N   0  0  0  0  0  2  0  0  0  0  0  0
  187.5950  175.0550  135.9480 C   0  0  0  0  0  3  0  0  0  0  0  0
  188.4380  173.9240  139.2880 C   0  0  2  0  0  3  0  0  0  0  0  0
  185.7350  176.5470  135.3510 F   0  0  0  0  0  0  0  0  0  0  0  0
  186.5770  175.9860  136.2520 C   0  0  0  0  0  0  0  0  0  0  0  0
  189.3520  173.3960  137.0470 C   0  0  2  0  0  3  0  0  0  0  0  0
  187.1220  175.8640  138.5950 C   0  0  0  0  0  3  0  0  0  0  0  0
  188.3500  174.5120  137.0020 C   0  0  0  0  0  0  0  0  0  0  0  0
  186.3960  176.4050  137.5770 C   0  0  0  0  0  3  0  0  0  0  0  0
  189.2620  172.9010  138.4980 C   0  0  0  0  0  2  0  0  0  0  0  0
  188.0530  174.9220  138.2770 C   0  0  0  0  0  0  0  0  0  0  0  0
  190.9610  174.3890  135.5360 O   0  0  0  0  0  0  0  0  0  0  0  0
  190.7640  173.8810  136.6430 C   0  0  0  0  0  0  0  0  0  0  0  0
  191.9600  173.7870  137.5550 C   0  0  0  0  0  2  0  0  0  0  0  0
  194.1170  172.8550  137.0750 N   0  0  0  0  0  0  0  0  0  0  0  0
  192.8610  172.6260  137.3560 C   0  0  0  0  0  0  0  0  0  0  0  0
  194.8180  174.8210  135.9080 O   0  0  0  0  0  0  0  0  0  0  0  0
  194.8330  174.0470  136.9760 C   0  0  0  0  0  0  0  0  0  0  0  0
  197.4250  174.6610  140.4290 C   0  0  0  0  0  1  0  0  0  0  0  0
  195.4480  175.9510  141.3150 C   0  0  0  0  0  1  0  0  0  0  0  0
  195.3930  175.2580  138.9800 C   0  0  0  0  0  3  0  0  0  0  0  0
  196.1350  175.3170  140.2180 N   0  0  0  0  0  0  0  0  0  0  0  0
  195.6440  174.3800  138.1160 N   0  0  0  0  0  0  0  0  0  0  0  0
  192.2690  171.2480  137.1520 C   0  0  0  0  0  2  0  0  0  0  0  0
  193.0950  170.0730  137.5130 N   0  0  0  0  0  0  0  0  0  0  0  0
  193.0230  169.9670  138.9690 C   0  0  0  0  0  1  0  0  0  0  0  0
  191.1620  169.2140  136.3950 C   0  0  0  0  0  1  0  0  0  0  0  0
  192.4150  168.8280  137.1580 C   0  0  0  0  0  2  0  0  0  0  0  0
  1  7  1  1  0  0  0
  1  2  1  0  0  0  0
  2  5  1  6  0  0  0
  2  3  1  0  0  0  0
  4  3  2  0  0  0  0
  5  6  1  0  0  0  0
  8  7  1  1  0  0  0
  8 11  1  0  0  0  0
  8  9  1  0  0  0  0
  9 29  1  6  0  0  0
  9 10  1  0  0  0  0
 10 13  1  1  0  0  0
 11 10  1  0  0  0  0
 13 14  1  0  0  0  0
 13 12  1  6  0  0  0
 14 18  1  0  0  0  0
 16 15  1  0  0  0  0
 17 19  1  1  0  0  0
 17 15  1  0  0  0  0
 18 17  1  0  0  0  0
 18 16  1  0  0  0  0
 20 25  1  0  0  0  0
 21 19  1  0  0  0  0
 21 25  2  0  0  0  0
 22 21  1  0  0  0  0
 23 22  2  0  0  0  0
 23 24  1  0  0  0  0
 24 20  2  0  0  0  0
 26 27  1  0  0  0  0
 27 23  1  0  0  0  0
 28 27  2  0  0  0  0
 29 31  1  1  0  0  0
 29 33  1  0  0  0  0
 30 31  1  0  0  0  0
 32 33  1  0  0  0  0
 34  1  1  0  0  0  0
 35 38  2  0  0  0  0
 35 41  1  0  0  0  0
 36 34  1  1  0  0  0
 37 38  1  0  0  0  0
 38 42  1  0  0  0  0
 39 46  1  1  0  0  0
 39 43  1  0  0  0  0
 41 39  1  0  0  0  0
 41 44  2  0  0  0  0
 42 40  2  0  0  0  0
 43 36  1  0  0  0  0
 44 40  1  0  0  0  0
 44 36  1  0  0  0  0
 45 46  2  0  0  0  0
 46 47  1  0  0  0  0
 48 49  2  0  0  0  0
 49 47  1  0  0  0  0
 50 51  2  0  0  0  0
 51 48  1  0  0  0  0
 51 56  1  0  0  0  0
 54 55  1  0  0  0  0
 55 52  1  0  0  0  0
 55 53  1  0  0  0  0
 56 54  2  0  0  0  0
 57 49  1  0  0  0  0
 57 58  1  0  0  0  0
 58 59  1  0  0  0  0
 60 61  1  0  0  0  0
 61 58  1  0  0  0  0
M  END
>  <MODEL>
7

>  <REMARK>
 VINA RESULT:      -5.2      2.872      5.938
  Name = 
  24 active torsions:
  status: ('A' for Active; 'I' for Inactive)
    1  A    between atoms: O_1  and  C_12
    2  A    between atoms: O_1  and  C_50
    3  A    between atoms: C_4  and  N_38
    4  A    between atoms: C_5  and  C_7
    5  A    between atoms: C_5  and  C_58
    6  A    between atoms: C_9  and  C_13
    7  A    between atoms: N_11  and  C_59
    8  A    between atoms: C_13  and  C_48
    9  A    between atoms: C_13  and  C_58
   10  A    between atoms: C_18  and  C_61
   11  A    between atoms: C_23  and  C_27
   12  A    between atoms: C_23  and  C_30
   13  A    between atoms: C_26  and  C_35
   14  A    between atoms: C_26  and  C_47
   15  A    between atoms: C_28  and  C_60
   16  A    between atoms: C_30  and  N_55
   17  A    between atoms: N_33  and  C_37
   18  A    between atoms: N_33  and  C_47
   19  A    between atoms: C_35  and  C_60
   20  A    between atoms: N_38  and  C_58
   21  A    between atoms: O_40  and  C_61
   22  A    between atoms: C_43  and  C_51
   23  A    between atoms: N_45  and  C_59
   24  A    between atoms: C_46  and  C_61
                            x       y       z     vdW  Elec       q    Type
                         _______ _______ _______ _____ _____    ______ ____

>  <TORSDO>
F 24

$$$$
=
 OpenBabel11042418013D

 61 65  0  0  1  0  0  0  0  0999 V2000
  191.3450  175.3740  144.4950 C   0  0  2  0  0  3  0  0  0  0  0  0
  191.3190  176.0080  143.0320 C   0  0  2  0  0  3  0  0  0  0  0  0
  191.5370  174.9710  141.9880 C   0  0  0  0  0  3  0  0  0  0  0  0
  192.6300  174.9380  141.3650 O   0  0  0  0  0  0  0  0  0  0  0  0
  192.0200  177.3070  142.7760 C   0  0  0  0  0  2  0  0  0  0  0  0
  192.1080  178.0820  143.9180 F   0  0  0  0  0  0  0  0  0  0  0  0
  191.4240  173.8750  144.7340 C   0  0  0  0  0  2  0  0  0  0  0  0
  192.8830  173.3960  145.0960 C   0  0  2  0  0  3  0  0  0  0  0  0
  193.9940  173.6960  144.1670 C   0  0  2  0  0  3  0  0  0  0  0  0
  194.3110  172.2600  144.3970 C   0  0  1  0  0  3  0  0  0  0  0  0
  193.0870  172.0450  145.0040 O   0  0  0  0  0  0  0  0  0  0  0  0
  195.4100  170.9070  142.8590 O   0  0  0  0  0  1  0  0  0  0  0  0
  194.3110  171.7080  142.9100 C   0  0  1  0  0  3  0  0  0  0  0  0
  193.0970  171.0130  142.5800 C   0  0  0  0  0  2  0  0  0  0  0  0
  192.4330  170.0140  139.9240 C   0  0  0  0  0  2  0  0  0  0  0  0
  191.5150  170.4320  141.0340 C   0  0  0  0  0  2  0  0  0  0  0  0
  193.2160  171.2770  140.3020 C   0  0  2  0  0  3  0  0  0  0  0  0
  192.3300  171.6160  141.4580 N   0  0  0  0  0  0  0  0  0  0  0  0
  193.1990  172.2150  139.1650 O   0  0  0  0  0  0  0  0  0  0  0  0
  196.1050  174.4960  139.0320 C   0  0  0  0  0  3  0  0  0  0  0  0
  194.1060  173.1540  138.7130 C   0  0  0  0  0  0  0  0  0  0  0  0
  193.8060  173.9570  137.5710 C   0  0  0  0  0  3  0  0  0  0  0  0
  194.6930  174.9560  137.1640 C   0  0  0  0  0  0  0  0  0  0  0  0
  195.8550  175.2360  137.8990 C   0  0  0  0  0  3  0  0  0  0  0  0
  195.2700  173.5280  139.4270 C   0  0  0  0  0  3  0  0  0  0  0  0
  193.2270  175.5300  135.4450 O   0  0  0  0  0  0  0  0  0  0  0  0
  194.3330  175.7070  136.0050 C   0  0  0  0  0  0  0  0  0  0  0  0
  195.2460  176.6270  135.5410 O   0  0  0  0  0  1  0  0  0  0  0  0
  195.2190  174.6160  144.5370 C   0  0  1  0  0  3  0  0  0  0  0  0
  195.4300  176.0830  142.4090 C   0  0  0  0  0  1  0  0  0  0  0  0
  195.3790  175.9770  143.8830 C   0  0  0  0  0  2  0  0  0  0  0  0
  196.7130  174.0580  146.1270 C   0  0  0  0  0  1  0  0  0  0  0  0
  195.4830  174.6990  145.8760 O   0  0  0  0  0  0  0  0  0  0  0  0
  190.4040  176.0380  145.4210 N   0  0  0  0  0  2  0  0  0  0  0  0
  185.7730  176.8980  144.9870 C   0  0  0  0  0  3  0  0  0  0  0  0
  189.0820  175.4280  145.1660 C   0  0  2  0  0  3  0  0  0  0  0  0
  184.3120  177.4100  146.8960 F   0  0  0  0  0  0  0  0  0  0  0  0
  185.5160  177.0970  146.3620 C   0  0  0  0  0  0  0  0  0  0  0  0
  187.6150  176.0560  143.2710 C   0  0  2  0  0  3  0  0  0  0  0  0
  187.8120  176.6020  146.8940 C   0  0  0  0  0  3  0  0  0  0  0  0
  187.0650  176.5140  144.5900 C   0  0  0  0  0  0  0  0  0  0  0  0
  186.5650  176.9870  147.2840 C   0  0  0  0  0  3  0  0  0  0  0  0
  188.8210  175.1950  143.6730 C   0  0  0  0  0  2  0  0  0  0  0  0
  188.0130  176.3560  145.5690 C   0  0  0  0  0  0  0  0  0  0  0  0
  188.4760  178.2760  142.8370 O   0  0  0  0  0  0  0  0  0  0  0  0
  187.9810  177.2520  142.3600 C   0  0  0  0  0  0  0  0  0  0  0  0
  187.7820  177.2410  140.8670 C   0  0  0  0  0  2  0  0  0  0  0  0
  186.1120  177.1480  139.1480 N   0  0  0  0  0  0  0  0  0  0  0  0
  186.4050  177.4890  140.3760 C   0  0  0  0  0  0  0  0  0  0  0  0
  187.1250  177.0290  136.9840 O   0  0  0  0  0  0  0  0  0  0  0  0
  186.8690  176.5060  138.1680 C   0  0  0  0  0  0  0  0  0  0  0  0
  188.2170  172.6130  139.5980 C   0  0  0  0  0  1  0  0  0  0  0  0
  190.0390  172.9420  137.8870 C   0  0  0  0  0  1  0  0  0  0  0  0
  188.1680  174.5030  137.8620 C   0  0  0  0  0  3  0  0  0  0  0  0
  188.7620  173.3180  138.4380 N   0  0  0  0  0  0  0  0  0  0  0  0
  187.3350  175.1890  138.5080 N   0  0  0  0  0  0  0  0  0  0  0  0
  185.4880  178.4060  141.1550 C   0  0  0  0  0  2  0  0  0  0  0  0
  184.1400  177.9060  141.5110 N   0  0  0  0  0  0  0  0  0  0  0  0
  183.8460  178.4600  142.8320 C   0  0  0  0  0  1  0  0  0  0  0  0
  182.4110  177.5410  139.8970 C   0  0  0  0  0  1  0  0  0  0  0  0
  183.1060  178.5950  140.7390 C   0  0  0  0  0  2  0  0  0  0  0  0
  1  7  1  6  0  0  0
  1 34  1  0  0  0  0
  2  3  1  6  0  0  0
  2  1  1  0  0  0  0
  4  3  2  0  0  0  0
  5  2  1  0  0  0  0
  5  6  1  0  0  0  0
  8  7  1  6  0  0  0
  9 10  1  0  0  0  0
  9 29  1  1  0  0  0
  9  8  1  0  0  0  0
 10 13  1  6  0  0  0
 10 11  1  0  0  0  0
 11  8  1  0  0  0  0
 13 12  1  1  0  0  0
 14 13  1  0  0  0  0
 15 17  1  0  0  0  0
 15 16  1  0  0  0  0
 16 18  1  0  0  0  0
 17 19  1  6  0  0  0
 17 18  1  0  0  0  0
 18 14  1  0  0  0  0
 20 25  1  0  0  0  0
 21 19  1  0  0  0  0
 21 25  2  0  0  0  0
 22 21  1  0  0  0  0
 23 22  2  0  0  0  0
 23 24  1  0  0  0  0
 24 20  2  0  0  0  0
 26 27  2  0  0  0  0
 27 23  1  0  0  0  0
 28 27  1  0  0  0  0
 29 31  1  1  0  0  0
 29 33  1  0  0  0  0
 30 31  1  0  0  0  0
 33 32  1  0  0  0  0
 35 38  1  0  0  0  0
 36 34  1  6  0  0  0
 36 44  1  0  0  0  0
 38 37  1  0  0  0  0
 38 42  2  0  0  0  0
 39 46  1  6  0  0  0
 39 43  1  0  0  0  0
 39 41  1  0  0  0  0
 40 42  1  0  0  0  0
 41 35  2  0  0  0  0
 41 44  1  0  0  0  0
 43 36  1  0  0  0  0
 44 40  2  0  0  0  0
 46 45  2  0  0  0  0
 47 46  1  0  0  0  0
 48 49  2  0  0  0  0
 49 47  1  0  0  0  0
 49 57  1  0  0  0  0
 50 51  2  0  0  0  0
 51 56  1  0  0  0  0
 51 48  1  0  0  0  0
 53 55  1  0  0  0  0
 54 55  1  0  0  0  0
 54 56  2  0  0  0  0
 55 52  1  0  0  0  0
 57 58  1  0  0  0  0
 58 59  1  0  0  0  0
 60 61  1  0  0  0  0
 61 58  1  0  0  0  0
M  END
>  <MODEL>
8

>  <REMARK>
 VINA RESULT:      -5.1      2.901      9.352
  Name = 
  24 active torsions:
  status: ('A' for Active; 'I' for Inactive)
    1  A    between atoms: O_1  and  C_12
    2  A    between atoms: O_1  and  C_50
    3  A    between atoms: C_4  and  N_38
    4  A    between atoms: C_5  and  C_7
    5  A    between atoms: C_5  and  C_58
    6  A    between atoms: C_9  and  C_13
    7  A    between atoms: N_11  and  C_59
    8  A    between atoms: C_13  and  C_48
    9  A    between atoms: C_13  and  C_58
   10  A    between atoms: C_18  and  C_61
   11  A    between atoms: C_23  and  C_27
   12  A    between atoms: C_23  and  C_30
   13  A    between atoms: C_26  and  C_35
   14  A    between atoms: C_26  and  C_47
   15  A    between atoms: C_28  and  C_60
   16  A    between atoms: C_30  and  N_55
   17  A    between atoms: N_33  and  C_37
   18  A    between atoms: N_33  and  C_47
   19  A    between atoms: C_35  and  C_60
   20  A    between atoms: N_38  and  C_58
   21  A    between atoms: O_40  and  C_61
   22  A    between atoms: C_43  and  C_51
   23  A    between atoms: N_45  and  C_59
   24  A    between atoms: C_46  and  C_61
                            x       y       z     vdW  Elec       q    Type
                         _______ _______ _______ _____ _____    ______ ____

>  <TORSDO>
F 24

$$$$
=
 OpenBabel11042418013D

 61 65  0  0  1  0  0  0  0  0999 V2000
  190.8350  172.8750  141.9470 C   0  0  2  0  0  3  0  0  0  0  0  0
  191.7740  172.1070  142.9830 C   0  0  2  0  0  3  0  0  0  0  0  0
  191.9750  170.6880  142.5830 C   0  0  0  0  0  3  0  0  0  0  0  0
  192.2460  169.8290  143.4620 O   0  0  0  0  0  0  0  0  0  0  0  0
  191.5830  172.3190  144.4530 C   0  0  0  0  0  2  0  0  0  0  0  0
  192.2830  173.4190  144.9130 F   0  0  0  0  0  0  0  0  0  0  0  0
  191.3500  173.4150  140.6230 C   0  0  0  0  0  2  0  0  0  0  0  0
  190.5570  172.8410  139.3850 C   0  0  2  0  0  3  0  0  0  0  0  0
  191.2870  172.0760  138.3500 C   0  0  2  0  0  3  0  0  0  0  0  0
  190.5180  172.9630  137.4350 C   0  0  1  0  0  3  0  0  0  0  0  0
  190.1360  173.7800  138.4830 O   0  0  0  0  0  0  0  0  0  0  0  0
  191.2340  174.8760  136.3260 O   0  0  0  0  0  1  0  0  0  0  0  0
  191.6910  173.6240  136.5970 C   0  0  1  0  0  3  0  0  0  0  0  0
  192.9410  173.6270  137.3080 C   0  0  0  0  0  2  0  0  0  0  0  0
  195.5640  174.8300  137.7180 C   0  0  0  0  0  2  0  0  0  0  0  0
  194.4340  175.2980  136.8490 C   0  0  0  0  0  2  0  0  0  0  0  0
  194.4600  174.5690  138.7490 C   0  0  2  0  0  3  0  0  0  0  0  0
  193.3490  174.9600  137.8260 N   0  0  0  0  0  0  0  0  0  0  0  0
  194.6760  175.4390  139.9200 O   0  0  0  0  0  0  0  0  0  0  0  0
  194.4910  175.9560  143.5750 C   0  0  0  0  0  3  0  0  0  0  0  0
  194.6970  175.1920  141.2790 C   0  0  0  0  0  0  0  0  0  0  0  0
  195.2330  173.9700  141.7830 C   0  0  0  0  0  3  0  0  0  0  0  0
  195.3220  173.7580  143.1610 C   0  0  0  0  0  0  0  0  0  0  0  0
  194.9510  174.7580  144.0720 C   0  0  0  0  0  3  0  0  0  0  0  0
  194.3890  176.1680  142.2570 C   0  0  0  0  0  3  0  0  0  0  0  0
  196.9810  172.1210  143.2010 O   0  0  0  0  0  0  0  0  0  0  0  0
  195.8550  172.5050  143.5890 C   0  0  0  0  0  0  0  0  0  0  0  0
  195.0820  171.7500  144.4430 O   0  0  0  0  0  1  0  0  0  0  0  0
  191.0150  170.5560  138.0330 C   0  0  1  0  0  3  0  0  0  0  0  0
  190.9110  169.9370  135.5170 C   0  0  0  0  0  1  0  0  0  0  0  0
  191.6330  169.9070  136.8070 C   0  0  0  0  0  2  0  0  0  0  0  0
  190.3820  168.5520  138.8420 C   0  0  0  0  0  1  0  0  0  0  0  0
  191.1160  169.7240  139.1130 O   0  0  0  0  0  0  0  0  0  0  0  0
  189.9040  173.8120  142.6070 N   0  0  0  0  0  2  0  0  0  0  0  0
  187.8810  177.9240  141.4300 C   0  0  0  0  0  3  0  0  0  0  0  0
  190.1230  175.1250  141.9640 C   0  0  2  0  0  3  0  0  0  0  0  0
  186.2670  178.1550  139.5920 F   0  0  0  0  0  0  0  0  0  0  0  0
  187.1130  177.4240  140.3550 C   0  0  0  0  0  0  0  0  0  0  0  0
  189.8280  177.2960  143.1210 C   0  0  2  0  0  3  0  0  0  0  0  0
  188.0570  175.2300  140.6600 C   0  0  0  0  0  3  0  0  0  0  0  0
  188.7640  177.0530  142.0910 C   0  0  0  0  0  0  0  0  0  0  0  0
  187.1890  176.0640  140.0240 C   0  0  0  0  0  3  0  0  0  0  0  0
  190.8040  176.1310  142.9000 C   0  0  0  0  0  2  0  0  0  0  0  0
  188.8300  175.7560  141.6510 C   0  0  0  0  0  0  0  0  0  0  0  0
  189.5240  178.2720  145.3150 O   0  0  0  0  0  0  0  0  0  0  0  0
  189.2370  177.3470  144.5500 C   0  0  0  0  0  0  0  0  0  0  0  0
  188.2840  176.3110  145.0850 C   0  0  0  0  0  2  0  0  0  0  0  0
  187.6910  176.3240  147.4090 N   0  0  0  0  0  0  0  0  0  0  0  0
  188.4970  175.8690  146.4850 C   0  0  0  0  0  0  0  0  0  0  0  0
  186.0640  177.8010  148.3530 O   0  0  0  0  0  0  0  0  0  0  0  0
  186.5690  177.1470  147.3250 C   0  0  0  0  0  0  0  0  0  0  0  0
  185.0450  177.2300  143.2400 C   0  0  0  0  0  1  0  0  0  0  0  0
  184.0210  179.4120  143.9770 C   0  0  0  0  0  1  0  0  0  0  0  0
  185.0200  177.9950  145.6890 C   0  0  0  0  0  3  0  0  0  0  0  0
  184.6640  178.1630  144.2990 N   0  0  0  0  0  0  0  0  0  0  0  0
  185.9470  177.2170  146.0300 N   0  0  0  0  0  0  0  0  0  0  0  0
  189.7960  175.1940  146.8660 C   0  0  0  0  0  2  0  0  0  0  0  0
  190.9170  176.0480  147.3250 N   0  0  0  0  0  0  0  0  0  0  0  0
  191.5810  175.2970  148.3880 C   0  0  0  0  0  1  0  0  0  0  0  0
  193.2980  176.1710  147.1200 C   0  0  0  0  0  1  0  0  0  0  0  0
  192.0000  176.0590  146.3420 C   0  0  0  0  0  2  0  0  0  0  0  0
  1  7  1  6  0  0  0
  1 34  1  0  0  0  0
  1  2  1  0  0  0  0
  2  3  1  1  0  0  0
  2  5  1  0  0  0  0
  3  4  2  0  0  0  0
  5  6  1  0  0  0  0
  8  7  1  1  0  0  0
  9 29  1  6  0  0  0
  9  8  1  0  0  0  0
 10 13  1  6  0  0  0
 10  9  1  0  0  0  0
 10 11  1  0  0  0  0
 11  8  1  0  0  0  0
 13 12  1  1  0  0  0
 13 14  1  0  0  0  0
 14 18  1  0  0  0  0
 15 17  1  0  0  0  0
 16 15  1  0  0  0  0
 16 18  1  0  0  0  0
 17 19  1  1  0  0  0
 18 17  1  0  0  0  0
 19 21  1  0  0  0  0
 20 24  1  0  0  0  0
 21 22  2  0  0  0  0
 21 25  1  0  0  0  0
 22 23  1  0  0  0  0
 23 27  1  0  0  0  0
 23 24  2  0  0  0  0
 25 20  2  0  0  0  0
 26 27  2  0  0  0  0
 27 28  1  0  0  0  0
 29 31  1  6  0  0  0
 29 33  1  0  0  0  0
 30 31  1  0  0  0  0
 32 33  1  0  0  0  0
 35 41  1  0  0  0  0
 36 34  1  1  0  0  0
 36 43  1  0  0  0  0
 37 38  1  0  0  0  0
 38 35  2  0  0  0  0
 39 46  1  1  0  0  0
 40 44  1  0  0  0  0
 41 39  1  0  0  0  0
 42 38  1  0  0  0  0
 42 40  2  0  0  0  0
 43 39  1  0  0  0  0
 44 36  1  0  0  0  0
 44 41  2  0  0  0  0
 46 47  1  0  0  0  0
 46 45  2  0  0  0  0
 47 49  1  0  0  0  0
 49 57  1  0  0  0  0
 49 48  2  0  0  0  0
 51 48  1  0  0  0  0
 51 50  2  0  0  0  0
 52 55  1  0  0  0  0
 53 55  1  0  0  0  0
 54 56  2  0  0  0  0
 55 54  1  0  0  0  0
 56 51  1  0  0  0  0
 57 58  1  0  0  0  0
 58 59  1  0  0  0  0
 61 60  1  0  0  0  0
 61 58  1  0  0  0  0
M  END
>  <MODEL>
9

>  <REMARK>
 VINA RESULT:      -5.1      2.572      8.672
  Name = 
  24 active torsions:
  status: ('A' for Active; 'I' for Inactive)
    1  A    between atoms: O_1  and  C_12
    2  A    between atoms: O_1  and  C_50
    3  A    between atoms: C_4  and  N_38
    4  A    between atoms: C_5  and  C_7
    5  A    between atoms: C_5  and  C_58
    6  A    between atoms: C_9  and  C_13
    7  A    between atoms: N_11  and  C_59
    8  A    between atoms: C_13  and  C_48
    9  A    between atoms: C_13  and  C_58
   10  A    between atoms: C_18  and  C_61
   11  A    between atoms: C_23  and  C_27
   12  A    between atoms: C_23  and  C_30
   13  A    between atoms: C_26  and  C_35
   14  A    between atoms: C_26  and  C_47
   15  A    between atoms: C_28  and  C_60
   16  A    between atoms: C_30  and  N_55
   17  A    between atoms: N_33  and  C_37
   18  A    between atoms: N_33  and  C_47
   19  A    between atoms: C_35  and  C_60
   20  A    between atoms: N_38  and  C_58
   21  A    between atoms: O_40  and  C_61
   22  A    between atoms: C_43  and  C_51
   23  A    between atoms: N_45  and  C_59
   24  A    between atoms: C_46  and  C_61
                            x       y       z     vdW  Elec       q    Type
                         _______ _______ _______ _____ _____    ______ ____

>  <TORSDO>
F 24

$$$$
