=
 OpenBabel11042418253D

 28 30  0  0  1  0  0  0  0  0999 V2000
  192.4350  176.5400  146.3780 C   0  0  0  0  0  0  0  0  0  0  0  0
  190.4250  177.2780  144.5650 C   0  0  0  0  0  0  0  0  0  0  0  0
  191.1380  176.7830  146.8340 C   0  0  0  0  0  3  0  0  0  0  0  0
  190.1220  177.1270  145.9370 C   0  0  0  0  0  0  0  0  0  0  0  0
  193.4070  176.1900  147.2550 F   0  0  0  0  0  0  0  0  0  0  0  0
  192.7300  176.6540  145.0190 C   0  0  0  0  0  3  0  0  0  0  0  0
  191.7320  177.0270  144.1180 C   0  0  0  0  0  3  0  0  0  0  0  0
  188.1830  175.2200  147.0200 O   0  0  0  0  0  0  0  0  0  0  0  0
  187.8340  176.4030  146.7660 C   0  0  0  0  0  0  0  0  0  0  0  0
  188.8150  177.4010  146.4600 N   0  0  0  0  0  2  0  0  0  0  0  0
  185.8200  178.9190  147.7610 C   0  0  0  0  0  3  0  0  0  0  0  0
  185.5930  177.2750  142.9960 C   0  0  0  0  0  2  0  0  0  0  0  0
  185.9580  176.6570  144.3220 C   0  0  0  0  0  3  0  0  0  0  0  0
  186.0820  177.6490  147.8900 N   0  0  0  0  0  0  0  0  0  0  0  0
  186.0040  177.3790  145.4450 C   0  0  0  0  0  0  0  0  0  0  0  0
  185.8050  178.8340  145.3760 C   0  0  0  0  0  0  0  0  0  0  0  0
  185.7390  179.5330  146.4660 N   0  0  0  0  0  0  0  0  0  0  0  0
  186.3810  176.7560  146.7630 C   0  0  1  0  0  3  0  0  0  0  0  0
  185.7350  179.4740  144.0980 N   0  0  0  0  0  0  0  0  0  0  0  0
  185.6750  178.7840  142.9970 C   0  0  0  0  0  3  0  0  0  0  0  0
  189.4190  177.7240  143.6480 N   0  0  0  0  0  2  0  0  0  0  0  0
  189.2540  177.2010  142.3000 C   0  0  0  0  0  2  0  0  0  0  0  0
  188.7210  175.7780  142.3640 C   0  0  0  0  0  2  0  0  0  0  0  0
  189.7890  174.7830  141.9140 C   0  0  2  0  0  3  0  0  0  0  0  0
  188.3770  173.1010  140.9070 C   0  0  0  0  0  1  0  0  0  0  0  0
  189.4220  174.0950  140.6700 N   0  0  0  0  0  2  0  0  0  0  0  0
  189.7320  173.9120  144.1290 O   0  0  0  0  0  0  0  0  0  0  0  0
  190.1960  173.8240  143.0020 C   0  0  0  0  0  3  0  0  0  0  0  0
  1  3  1  0  0  0  0
  1  5  1  0  0  0  0
  2  4  1  0  0  0  0
  4 10  1  0  0  0  0
  4  3  2  0  0  0  0
  6  1  2  0  0  0  0
  7  2  2  0  0  0  0
  7  6  1  0  0  0  0
  9  8  2  0  0  0  0
 10  9  1  0  0  0  0
 11 14  2  0  0  0  0
 12 20  1  0  0  0  0
 12 13  1  0  0  0  0
 13 15  2  0  0  0  0
 15 18  1  0  0  0  0
 16 15  1  0  0  0  0
 16 17  2  0  0  0  0
 17 11  1  0  0  0  0
 18  9  1  6  0  0  0
 18 14  1  0  0  0  0
 19 16  1  0  0  0  0
 20 19  2  0  0  0  0
 21  2  1  0  0  0  0
 22 23  1  0  0  0  0
 22 21  1  0  0  0  0
 24 23  1  1  0  0  0
 24 28  1  0  0  0  0
 26 25  1  0  0  0  0
 26 24  1  0  0  0  0
 28 27  2  0  0  0  0
M  END
>  <MODEL>
1

>  <REMARK>
 VINA RESULT:      -6.4      0.000      0.000
  Name = 
  8 active torsions:
  status: ('A' for Active; 'I' for Inactive)
    1  A    between atoms: C_1  and  C_10
    2  A    between atoms: C_1  and  N_16
    3  A    between atoms: C_6  and  N_16
    4  A    between atoms: C_10  and  CA_25
    5  A    between atoms: C_11  and  N_28
    6  A    between atoms: C_17  and  C_22
    7  A    between atoms: N_21  and  CA_25
    8  A    between atoms: C_24  and  CA_25
                            x       y       z     vdW  Elec       q    Type
                         _______ _______ _______ _____ _____    ______ ____

>  <TORSDO>
F 8

$$$$
=
 OpenBabel11042418253D

 28 30  0  0  1  0  0  0  0  0999 V2000
  191.0550  176.8700  147.8700 C   0  0  0  0  0  0  0  0  0  0  0  0
  189.8230  175.4240  145.8060 C   0  0  0  0  0  0  0  0  0  0  0  0
  189.8750  177.3430  147.2940 C   0  0  0  0  0  3  0  0  0  0  0  0
  189.2380  176.6190  146.2810 C   0  0  0  0  0  0  0  0  0  0  0  0
  191.6530  177.5710  148.8630 F   0  0  0  0  0  0  0  0  0  0  0  0
  191.6170  175.6720  147.4280 C   0  0  0  0  0  3  0  0  0  0  0  0
  191.0080  174.9560  146.3960 C   0  0  0  0  0  3  0  0  0  0  0  0
  186.5220  176.5890  147.3750 O   0  0  0  0  0  0  0  0  0  0  0  0
  186.7200  176.9220  146.1760 C   0  0  0  0  0  0  0  0  0  0  0  0
  188.0480  177.1650  145.6970 N   0  0  0  0  0  2  0  0  0  0  0  0
  184.6550  179.2990  144.9670 C   0  0  0  0  0  3  0  0  0  0  0  0
  187.1030  176.2590  141.7700 C   0  0  0  0  0  2  0  0  0  0  0  0
  186.6040  176.1380  143.1880 C   0  0  0  0  0  3  0  0  0  0  0  0
  184.7180  178.1830  145.6360 N   0  0  0  0  0  0  0  0  0  0  0  0
  186.0410  177.1670  143.8250 C   0  0  0  0  0  0  0  0  0  0  0  0
  186.0060  178.4860  143.1750 C   0  0  0  0  0  0  0  0  0  0  0  0
  185.3690  179.4680  143.7330 N   0  0  0  0  0  0  0  0  0  0  0  0
  185.5550  177.0410  145.2450 C   0  0  1  0  0  3  0  0  0  0  0  0
  186.7200  178.6860  141.9520 N   0  0  0  0  0  0  0  0  0  0  0  0
  187.2610  177.6900  141.3120 C   0  0  0  0  0  3  0  0  0  0  0  0
  189.2360  174.7210  144.7050 N   0  0  0  0  0  2  0  0  0  0  0  0
  189.9390  174.4050  143.4700 C   0  0  0  0  0  2  0  0  0  0  0  0
  190.4950  175.6800  142.8570 C   0  0  0  0  0  2  0  0  0  0  0  0
  192.0200  175.6190  142.7780 C   0  0  2  0  0  3  0  0  0  0  0  0
  193.7450  174.3180  143.8590 C   0  0  0  0  0  1  0  0  0  0  0  0
  192.5380  174.2700  143.0370 N   0  0  0  0  0  2  0  0  0  0  0  0
  192.0530  177.5570  144.1620 O   0  0  0  0  0  0  0  0  0  0  0  0
  192.6950  176.6650  143.6250 C   0  0  0  0  0  3  0  0  0  0  0  0
  1  5  1  0  0  0  0
  2  4  2  0  0  0  0
  2  7  1  0  0  0  0
  3  1  2  0  0  0  0
  4  3  1  0  0  0  0
  6  1  1  0  0  0  0
  7  6  2  0  0  0  0
  9  8  2  0  0  0  0
 10  9  1  0  0  0  0
 10  4  1  0  0  0  0
 11 14  2  0  0  0  0
 12 13  1  0  0  0  0
 13 15  2  0  0  0  0
 15 18  1  0  0  0  0
 16 17  2  0  0  0  0
 16 15  1  0  0  0  0
 17 11  1  0  0  0  0
 18 14  1  0  0  0  0
 18  9  1  1  0  0  0
 19 16  1  0  0  0  0
 20 12  1  0  0  0  0
 20 19  2  0  0  0  0
 21  2  1  0  0  0  0
 22 21  1  0  0  0  0
 23 22  1  0  0  0  0
 24 23  1  1  0  0  0
 24 26  1  0  0  0  0
 24 28  1  0  0  0  0
 26 25  1  0  0  0  0
 28 27  2  0  0  0  0
M  END
>  <MODEL>
2

>  <REMARK>
 VINA RESULT:      -6.3      2.001      2.791
  Name = 
  8 active torsions:
  status: ('A' for Active; 'I' for Inactive)
    1  A    between atoms: C_1  and  C_10
    2  A    between atoms: C_1  and  N_16
    3  A    between atoms: C_6  and  N_16
    4  A    between atoms: C_10  and  CA_25
    5  A    between atoms: C_11  and  N_28
    6  A    between atoms: C_17  and  C_22
    7  A    between atoms: N_21  and  CA_25
    8  A    between atoms: C_24  and  CA_25
                            x       y       z     vdW  Elec       q    Type
                         _______ _______ _______ _____ _____    ______ ____

>  <TORSDO>
F 8

$$$$
=
 OpenBabel11042418253D

 28 30  0  0  1  0  0  0  0  0999 V2000
  185.2780  178.2390  147.0460 C   0  0  0  0  0  0  0  0  0  0  0  0
  187.0660  177.3520  145.0750 C   0  0  0  0  0  0  0  0  0  0  0  0
  186.2590  177.2980  147.3650 C   0  0  0  0  0  3  0  0  0  0  0  0
  187.1720  176.8660  146.3970 C   0  0  0  0  0  0  0  0  0  0  0  0
  184.4110  178.6620  147.9980 F   0  0  0  0  0  0  0  0  0  0  0  0
  185.1930  178.7480  145.7500 C   0  0  0  0  0  3  0  0  0  0  0  0
  186.0780  178.3010  144.7670 C   0  0  0  0  0  3  0  0  0  0  0  0
  189.9910  177.2630  147.0780 O   0  0  0  0  0  0  0  0  0  0  0  0
  189.5470  176.1030  146.8680 C   0  0  0  0  0  0  0  0  0  0  0  0
  188.1360  175.8720  146.7650 N   0  0  0  0  0  2  0  0  0  0  0  0
  190.3930  173.7950  144.5600 C   0  0  0  0  0  3  0  0  0  0  0  0
  193.9650  176.7290  146.5820 C   0  0  0  0  0  2  0  0  0  0  0  0
  192.6310  176.1980  147.0440 C   0  0  0  0  0  3  0  0  0  0  0  0
  189.9520  173.9770  145.7720 N   0  0  0  0  0  0  0  0  0  0  0  0
  191.8410  175.4840  146.2380 C   0  0  0  0  0  0  0  0  0  0  0  0
  192.2220  175.3030  144.8300 C   0  0  0  0  0  0  0  0  0  0  0  0
  191.5240  174.5250  144.0620 N   0  0  0  0  0  0  0  0  0  0  0  0
  190.5050  174.9680  146.7040 C   0  0  1  0  0  3  0  0  0  0  0  0
  193.3370  176.0300  144.3040 N   0  0  0  0  0  0  0  0  0  0  0  0
  194.1250  176.7170  145.0790 C   0  0  0  0  0  3  0  0  0  0  0  0
  187.9310  176.8490  144.0500 N   0  0  0  0  0  2  0  0  0  0  0  0
  188.9020  177.6590  143.3300 C   0  0  0  0  0  2  0  0  0  0  0  0
  188.4530  177.8360  141.8880 C   0  0  0  0  0  2  0  0  0  0  0  0
  187.3980  176.7930  141.5210 C   0  0  2  0  0  3  0  0  0  0  0  0
  188.3590  174.5940  141.2490 C   0  0  0  0  0  1  0  0  0  0  0  0
  187.9030  175.8020  140.5640 N   0  0  0  0  0  2  0  0  0  0  0  0
  186.0310  178.1050  140.0790 O   0  0  0  0  0  0  0  0  0  0  0  0
  186.0940  177.4050  141.0790 C   0  0  0  0  0  3  0  0  0  0  0  0
  1  3  1  0  0  0  0
  1  5  1  0  0  0  0
  2  4  1  0  0  0  0
  4 10  1  0  0  0  0
  4  3  2  0  0  0  0
  6  1  2  0  0  0  0
  7  2  2  0  0  0  0
  7  6  1  0  0  0  0
  9  8  2  0  0  0  0
 10  9  1  0  0  0  0
 11 14  2  0  0  0  0
 12 13  1  0  0  0  0
 14 18  1  0  0  0  0
 15 18  1  0  0  0  0
 15 13  2  0  0  0  0
 16 15  1  0  0  0  0
 17 11  1  0  0  0  0
 17 16  2  0  0  0  0
 18  9  1  6  0  0  0
 19 16  1  0  0  0  0
 19 20  2  0  0  0  0
 20 12  1  0  0  0  0
 21  2  1  0  0  0  0
 22 21  1  0  0  0  0
 23 22  1  0  0  0  0
 24 28  1  6  0  0  0
 24 23  1  0  0  0  0
 26 25  1  0  0  0  0
 26 24  1  0  0  0  0
 27 28  2  0  0  0  0
M  END
>  <MODEL>
3

>  <REMARK>
 VINA RESULT:      -6.3      2.901      5.843
  Name = 
  8 active torsions:
  status: ('A' for Active; 'I' for Inactive)
    1  A    between atoms: C_1  and  C_10
    2  A    between atoms: C_1  and  N_16
    3  A    between atoms: C_6  and  N_16
    4  A    between atoms: C_10  and  CA_25
    5  A    between atoms: C_11  and  N_28
    6  A    between atoms: C_17  and  C_22
    7  A    between atoms: N_21  and  CA_25
    8  A    between atoms: C_24  and  CA_25
                            x       y       z     vdW  Elec       q    Type
                         _______ _______ _______ _____ _____    ______ ____

>  <TORSDO>
F 8

$$$$
=
 OpenBabel11042418253D

 28 30  0  0  1  0  0  0  0  0999 V2000
  188.6800  173.0740  139.9200 C   0  0  0  0  0  0  0  0  0  0  0  0
  189.6580  174.1670  142.3110 C   0  0  0  0  0  0  0  0  0  0  0  0
  188.3500  174.3830  140.2750 C   0  0  0  0  0  3  0  0  0  0  0  0
  188.8520  174.9480  141.4530 C   0  0  0  0  0  0  0  0  0  0  0  0
  188.2020  172.5440  138.7680 F   0  0  0  0  0  0  0  0  0  0  0  0
  189.5040  172.3110  140.7480 C   0  0  0  0  0  3  0  0  0  0  0  0
  189.9850  172.8530  141.9410 C   0  0  0  0  0  3  0  0  0  0  0  0
  186.3900  175.8100  142.7810 O   0  0  0  0  0  0  0  0  0  0  0  0
  187.1460  176.6570  142.2350 C   0  0  0  0  0  0  0  0  0  0  0  0
  188.4560  176.2830  141.7910 N   0  0  0  0  0  2  0  0  0  0  0  0
  184.5560  178.2710  140.8000 C   0  0  0  0  0  3  0  0  0  0  0  0
  185.7120  179.1990  145.6230 C   0  0  0  0  0  2  0  0  0  0  0  0
  186.4840  178.7560  144.4060 C   0  0  0  0  0  3  0  0  0  0  0  0
  185.8510  178.1320  140.8080 N   0  0  0  0  0  0  0  0  0  0  0  0
  185.8800  178.5100  143.2410 C   0  0  0  0  0  0  0  0  0  0  0  0
  184.4130  178.5600  143.1650 C   0  0  0  0  0  0  0  0  0  0  0  0
  183.8170  178.4300  142.0210 N   0  0  0  0  0  0  0  0  0  0  0  0
  186.6580  178.0560  142.0340 C   0  0  1  0  0  3  0  0  0  0  0  0
  183.6510  178.7030  144.3670 N   0  0  0  0  0  0  0  0  0  0  0  0
  184.2250  178.9590  145.5070 C   0  0  0  0  0  3  0  0  0  0  0  0
  190.1000  174.6970  143.5660 N   0  0  0  0  0  2  0  0  0  0  0  0
  190.3840  173.8860  144.7410 C   0  0  0  0  0  2  0  0  0  0  0  0
  189.6250  174.4360  145.9380 C   0  0  0  0  0  2  0  0  0  0  0  0
  189.7940  175.9520  146.0320 C   0  0  2  0  0  3  0  0  0  0  0  0
  191.2110  175.5200  147.9400 C   0  0  0  0  0  1  0  0  0  0  0  0
  191.0210  176.3330  146.7410 N   0  0  0  0  0  2  0  0  0  0  0  0
  187.6030  176.0120  146.9610 O   0  0  0  0  0  0  0  0  0  0  0  0
  188.5750  176.6470  146.5800 C   0  0  0  0  0  3  0  0  0  0  0  0
  1  3  2  0  0  0  0
  1  6  1  0  0  0  0
  2 21  1  0  0  0  0
  3  4  1  0  0  0  0
  4 10  1  0  0  0  0
  4  2  2  0  0  0  0
  5  1  1  0  0  0  0
  6  7  2  0  0  0  0
  7  2  1  0  0  0  0
  9  8  2  0  0  0  0
 10  9  1  0  0  0  0
 11 14  2  0  0  0  0
 11 17  1  0  0  0  0
 13 12  1  0  0  0  0
 14 18  1  0  0  0  0
 15 13  2  0  0  0  0
 16 15  1  0  0  0  0
 16 19  1  0  0  0  0
 17 16  2  0  0  0  0
 18  9  1  1  0  0  0
 18 15  1  0  0  0  0
 19 20  2  0  0  0  0
 20 12  1  0  0  0  0
 21 22  1  0  0  0  0
 22 23  1  0  0  0  0
 24 23  1  1  0  0  0
 24 28  1  0  0  0  0
 24 26  1  0  0  0  0
 26 25  1  0  0  0  0
 28 27  2  0  0  0  0
M  END
>  <MODEL>
4

>  <REMARK>
 VINA RESULT:      -6.2      2.955      5.406
  Name = 
  8 active torsions:
  status: ('A' for Active; 'I' for Inactive)
    1  A    between atoms: C_1  and  C_10
    2  A    between atoms: C_1  and  N_16
    3  A    between atoms: C_6  and  N_16
    4  A    between atoms: C_10  and  CA_25
    5  A    between atoms: C_11  and  N_28
    6  A    between atoms: C_17  and  C_22
    7  A    between atoms: N_21  and  CA_25
    8  A    between atoms: C_24  and  CA_25
                            x       y       z     vdW  Elec       q    Type
                         _______ _______ _______ _____ _____    ______ ____

>  <TORSDO>
F 8

$$$$
=
 OpenBabel11042418253D

 28 30  0  0  1  0  0  0  0  0999 V2000
  191.0540  177.1660  147.9210 C   0  0  0  0  0  0  0  0  0  0  0  0
  190.0380  176.1720  145.5030 C   0  0  0  0  0  0  0  0  0  0  0  0
  189.7630  177.5070  147.5140 C   0  0  0  0  0  3  0  0  0  0  0  0
  189.2360  176.9970  146.3220 C   0  0  0  0  0  0  0  0  0  0  0  0
  191.5460  177.6520  149.0870 F   0  0  0  0  0  0  0  0  0  0  0  0
  191.8360  176.3220  147.1320 C   0  0  0  0  0  3  0  0  0  0  0  0
  191.3330  175.8330  145.9260 C   0  0  0  0  0  3  0  0  0  0  0  0
  186.6950  176.3750  147.6370 O   0  0  0  0  0  0  0  0  0  0  0  0
  186.7050  176.8850  146.4850 C   0  0  0  0  0  0  0  0  0  0  0  0
  187.9190  177.4060  145.9300 N   0  0  0  0  0  2  0  0  0  0  0  0
  184.2160  179.0410  145.7550 C   0  0  0  0  0  3  0  0  0  0  0  0
  186.6910  176.7270  142.0160 C   0  0  0  0  0  2  0  0  0  0  0  0
  186.3710  176.3940  143.4520 C   0  0  0  0  0  3  0  0  0  0  0  0
  184.5030  177.8850  146.2840 N   0  0  0  0  0  0  0  0  0  0  0  0
  185.7460  177.2600  144.2520 C   0  0  0  0  0  0  0  0  0  0  0  0
  185.4600  178.6170  143.7630 C   0  0  0  0  0  0  0  0  0  0  0  0
  184.7600  179.4350  144.4870 N   0  0  0  0  0  0  0  0  0  0  0  0
  185.4410  176.9230  145.6880 C   0  0  1  0  0  3  0  0  0  0  0  0
  186.0030  179.0410  142.5090 N   0  0  0  0  0  0  0  0  0  0  0  0
  186.6000  178.2040  141.7120 C   0  0  0  0  0  3  0  0  0  0  0  0
  189.5490  175.7200  144.2350 N   0  0  0  0  0  2  0  0  0  0  0  0
  190.2310  175.9480  142.9690 C   0  0  0  0  0  2  0  0  0  0  0  0
  190.1970  174.6780  142.1330 C   0  0  0  0  0  2  0  0  0  0  0  0
  189.2540  173.6490  142.7560 C   0  0  2  0  0  3  0  0  0  0  0  0
  189.8070  172.2380  144.6370 C   0  0  0  0  0  1  0  0  0  0  0  0
  189.9610  172.4410  143.1980 N   0  0  0  0  0  2  0  0  0  0  0  0
  188.2140  172.8940  140.7520 O   0  0  0  0  0  0  0  0  0  0  0  0
  188.0680  173.3330  141.8840 C   0  0  0  0  0  3  0  0  0  0  0  0
  1  5  1  0  0  0  0
  2  7  2  0  0  0  0
  2  4  1  0  0  0  0
  3  1  1  0  0  0  0
  4  3  2  0  0  0  0
  6  1  2  0  0  0  0
  7  6  1  0  0  0  0
  9  8  2  0  0  0  0
 10  4  1  0  0  0  0
 10  9  1  0  0  0  0
 11 14  2  0  0  0  0
 12 13  1  0  0  0  0
 13 15  2  0  0  0  0
 15 18  1  0  0  0  0
 16 15  1  0  0  0  0
 16 17  2  0  0  0  0
 17 11  1  0  0  0  0
 18 14  1  0  0  0  0
 18  9  1  1  0  0  0
 19 16  1  0  0  0  0
 20 12  1  0  0  0  0
 20 19  2  0  0  0  0
 21  2  1  0  0  0  0
 22 21  1  0  0  0  0
 23 24  1  0  0  0  0
 23 22  1  0  0  0  0
 24 28  1  6  0  0  0
 24 26  1  0  0  0  0
 26 25  1  0  0  0  0
 27 28  2  0  0  0  0
M  END
>  <MODEL>
5

>  <REMARK>
 VINA RESULT:      -6.1      1.777      2.143
  Name = 
  8 active torsions:
  status: ('A' for Active; 'I' for Inactive)
    1  A    between atoms: C_1  and  C_10
    2  A    between atoms: C_1  and  N_16
    3  A    between atoms: C_6  and  N_16
    4  A    between atoms: C_10  and  CA_25
    5  A    between atoms: C_11  and  N_28
    6  A    between atoms: C_17  and  C_22
    7  A    between atoms: N_21  and  CA_25
    8  A    between atoms: C_24  and  CA_25
                            x       y       z     vdW  Elec       q    Type
                         _______ _______ _______ _____ _____    ______ ____

>  <TORSDO>
F 8

$$$$
=
 OpenBabel11042418253D

 28 30  0  0  1  0  0  0  0  0999 V2000
  186.3150  177.4710  140.0330 C   0  0  0  0  0  0  0  0  0  0  0  0
  186.2490  178.5740  142.6120 C   0  0  0  0  0  0  0  0  0  0  0  0
  187.4720  177.4910  140.8130 C   0  0  0  0  0  3  0  0  0  0  0  0
  187.4460  178.0160  142.1100 C   0  0  0  0  0  0  0  0  0  0  0  0
  186.3480  176.9430  138.7860 F   0  0  0  0  0  0  0  0  0  0  0  0
  185.1220  177.9890  140.5390 C   0  0  0  0  0  3  0  0  0  0  0  0
  185.0910  178.5440  141.8190 C   0  0  0  0  0  3  0  0  0  0  0  0
  188.6060  175.8850  143.7480 O   0  0  0  0  0  0  0  0  0  0  0  0
  189.0660  177.0560  143.8120 C   0  0  0  0  0  0  0  0  0  0  0  0
  188.6690  178.0470  142.8570 N   0  0  0  0  0  2  0  0  0  0  0  0
  189.7340  176.1640  146.9950 C   0  0  0  0  0  3  0  0  0  0  0  0
  193.4410  176.1590  143.5720 C   0  0  0  0  0  2  0  0  0  0  0  0
  192.1540  176.9250  143.7520 C   0  0  0  0  0  3  0  0  0  0  0  0
  189.3940  177.1500  146.2150 N   0  0  0  0  0  0  0  0  0  0  0  0
  191.3050  176.6500  144.7450 C   0  0  0  0  0  0  0  0  0  0  0  0
  191.5690  175.4990  145.6210 C   0  0  0  0  0  0  0  0  0  0  0  0
  190.8140  175.2820  146.6530 N   0  0  0  0  0  0  0  0  0  0  0  0
  190.0170  177.4120  144.9100 C   0  0  1  0  0  3  0  0  0  0  0  0
  192.6300  174.5970  145.2960 N   0  0  0  0  0  0  0  0  0  0  0  0
  193.4740  174.8590  144.3410 C   0  0  0  0  0  3  0  0  0  0  0  0
  186.2300  179.2020  143.8990 N   0  0  0  0  0  2  0  0  0  0  0  0
  185.0380  179.7670  144.5140 C   0  0  0  0  0  2  0  0  0  0  0  0
  184.1760  178.6500  145.0820 C   0  0  0  0  0  2  0  0  0  0  0  0
  184.6570  178.2570  146.4780 C   0  0  2  0  0  3  0  0  0  0  0  0
  186.4730  178.6470  148.0220 C   0  0  0  0  0  1  0  0  0  0  0  0
  185.5580  179.2580  147.0610 N   0  0  0  0  0  2  0  0  0  0  0  0
  185.9370  176.4370  145.6310 O   0  0  0  0  0  0  0  0  0  0  0  0
  185.2320  176.8660  146.5320 C   0  0  0  0  0  3  0  0  0  0  0  0
  1  6  2  0  0  0  0
  1  3  1  0  0  0  0
  2 21  1  0  0  0  0
  3  4  2  0  0  0  0
  4  2  1  0  0  0  0
  4 10  1  0  0  0  0
  5  1  1  0  0  0  0
  6  7  1  0  0  0  0
  7  2  2  0  0  0  0
  8  9  2  0  0  0  0
 10  9  1  0  0  0  0
 12 13  1  0  0  0  0
 12 20  1  0  0  0  0
 13 15  2  0  0  0  0
 14 11  2  0  0  0  0
 15 18  1  0  0  0  0
 15 16  1  0  0  0  0
 16 17  2  0  0  0  0
 17 11  1  0  0  0  0
 18  9  1  6  0  0  0
 18 14  1  0  0  0  0
 19 16  1  0  0  0  0
 20 19  2  0  0  0  0
 21 22  1  0  0  0  0
 22 23  1  0  0  0  0
 24 23  1  6  0  0  0
 24 28  1  0  0  0  0
 24 26  1  0  0  0  0
 26 25  1  0  0  0  0
 27 28  2  0  0  0  0
M  END
>  <MODEL>
6

>  <REMARK>
 VINA RESULT:      -6.1      2.908      6.714
  Name = 
  8 active torsions:
  status: ('A' for Active; 'I' for Inactive)
    1  A    between atoms: C_1  and  C_10
    2  A    between atoms: C_1  and  N_16
    3  A    between atoms: C_6  and  N_16
    4  A    between atoms: C_10  and  CA_25
    5  A    between atoms: C_11  and  N_28
    6  A    between atoms: C_17  and  C_22
    7  A    between atoms: N_21  and  CA_25
    8  A    between atoms: C_24  and  CA_25
                            x       y       z     vdW  Elec       q    Type
                         _______ _______ _______ _____ _____    ______ ____

>  <TORSDO>
F 8

$$$$
=
 OpenBabel11042418253D

 28 30  0  0  1  0  0  0  0  0999 V2000
  186.3750  177.3510  140.5120 C   0  0  0  0  0  0  0  0  0  0  0  0
  187.8090  177.7120  142.8950 C   0  0  0  0  0  0  0  0  0  0  0  0
  187.4680  176.5320  140.7990 C   0  0  0  0  0  3  0  0  0  0  0  0
  188.1760  176.6860  141.9960 C   0  0  0  0  0  0  0  0  0  0  0  0
  185.6860  177.1800  139.3570 F   0  0  0  0  0  0  0  0  0  0  0  0
  185.9880  178.3430  141.4140 C   0  0  0  0  0  3  0  0  0  0  0  0
  186.7060  178.5270  142.5960 C   0  0  0  0  0  3  0  0  0  0  0  0
  188.1990  173.8130  142.5600 O   0  0  0  0  0  0  0  0  0  0  0  0
  189.2440  174.4990  142.7170 C   0  0  0  0  0  0  0  0  0  0  0  0
  189.3120  175.8440  142.2280 N   0  0  0  0  0  2  0  0  0  0  0  0
  192.5720  174.9660  143.0070 C   0  0  0  0  0  3  0  0  0  0  0  0
  189.7050  174.7930  147.1560 C   0  0  0  0  0  2  0  0  0  0  0  0
  189.6170  174.2010  145.7710 C   0  0  0  0  0  3  0  0  0  0  0  0
  191.6400  174.1210  142.6680 N   0  0  0  0  0  0  0  0  0  0  0  0
  190.5120  174.4920  144.8240 C   0  0  0  0  0  0  0  0  0  0  0  0
  191.5460  175.5010  145.0950 C   0  0  0  0  0  0  0  0  0  0  0  0
  192.4860  175.7170  144.2280 N   0  0  0  0  0  0  0  0  0  0  0  0
  190.4100  173.9050  143.4410 C   0  0  1  0  0  3  0  0  0  0  0  0
  191.4770  176.2730  146.2970 N   0  0  0  0  0  0  0  0  0  0  0  0
  190.6210  175.9920  147.2350 C   0  0  0  0  0  3  0  0  0  0  0  0
  188.5820  177.9450  144.0780 N   0  0  0  0  0  2  0  0  0  0  0  0
  188.1260  177.6390  145.4260 C   0  0  0  0  0  2  0  0  0  0  0  0
  186.9450  176.6840  145.3620 C   0  0  0  0  0  2  0  0  0  0  0  0
  185.7670  177.2280  146.1680 C   0  0  2  0  0  3  0  0  0  0  0  0
  184.3580  179.0700  145.4910 C   0  0  0  0  0  1  0  0  0  0  0  0
  184.6520  177.6500  145.3120 N   0  0  0  0  0  2  0  0  0  0  0  0
  186.1020  178.1040  148.3570 O   0  0  0  0  0  0  0  0  0  0  0  0
  186.1710  178.2950  147.1520 C   0  0  0  0  0  3  0  0  0  0  0  0
  1  3  2  0  0  0  0
  1  6  1  0  0  0  0
  2 21  1  0  0  0  0
  3  4  1  0  0  0  0
  4 10  1  0  0  0  0
  4  2  2  0  0  0  0
  5  1  1  0  0  0  0
  6  7  2  0  0  0  0
  7  2  1  0  0  0  0
  8  9  2  0  0  0  0
 10  9  1  0  0  0  0
 11 17  1  0  0  0  0
 12 20  1  0  0  0  0
 13 12  1  0  0  0  0
 14 11  2  0  0  0  0
 14 18  1  0  0  0  0
 15 16  1  0  0  0  0
 15 13  2  0  0  0  0
 16 19  1  0  0  0  0
 17 16  2  0  0  0  0
 18  9  1  6  0  0  0
 18 15  1  0  0  0  0
 19 20  2  0  0  0  0
 21 22  1  0  0  0  0
 23 22  1  0  0  0  0
 24 23  1  6  0  0  0
 24 28  1  0  0  0  0
 26 25  1  0  0  0  0
 26 24  1  0  0  0  0
 28 27  2  0  0  0  0
M  END
>  <MODEL>
7

>  <REMARK>
 VINA RESULT:      -6.1      2.946      6.588
  Name = 
  8 active torsions:
  status: ('A' for Active; 'I' for Inactive)
    1  A    between atoms: C_1  and  C_10
    2  A    between atoms: C_1  and  N_16
    3  A    between atoms: C_6  and  N_16
    4  A    between atoms: C_10  and  CA_25
    5  A    between atoms: C_11  and  N_28
    6  A    between atoms: C_17  and  C_22
    7  A    between atoms: N_21  and  CA_25
    8  A    between atoms: C_24  and  CA_25
                            x       y       z     vdW  Elec       q    Type
                         _______ _______ _______ _____ _____    ______ ____

>  <TORSDO>
F 8

$$$$
=
 OpenBabel11042418253D

 28 30  0  0  1  0  0  0  0  0999 V2000
  184.9620  178.3960  145.0780 C   0  0  0  0  0  0  0  0  0  0  0  0
  186.6840  177.7040  142.9750 C   0  0  0  0  0  0  0  0  0  0  0  0
  186.3380  178.3210  145.2990 C   0  0  0  0  0  3  0  0  0  0  0  0
  187.2090  178.0000  144.2520 C   0  0  0  0  0  0  0  0  0  0  0  0
  184.1300  178.7250  146.0960 F   0  0  0  0  0  0  0  0  0  0  0  0
  184.4420  178.1390  143.8090 C   0  0  0  0  0  3  0  0  0  0  0  0
  185.2980  177.7870  142.7640 C   0  0  0  0  0  3  0  0  0  0  0  0
  188.6190  175.8070  145.5840 O   0  0  0  0  0  0  0  0  0  0  0  0
  189.2000  176.9080  145.3870 C   0  0  0  0  0  0  0  0  0  0  0  0
  188.6100  177.9000  144.5380 N   0  0  0  0  0  2  0  0  0  0  0  0
  191.0380  175.7190  147.9520 C   0  0  0  0  0  3  0  0  0  0  0  0
  193.1330  176.1870  143.3860 C   0  0  0  0  0  2  0  0  0  0  0  0
  192.0230  176.8870  144.1280 C   0  0  0  0  0  3  0  0  0  0  0  0
  190.4320  176.7670  147.4730 N   0  0  0  0  0  0  0  0  0  0  0  0
  191.6220  176.4840  145.3360 C   0  0  0  0  0  0  0  0  0  0  0  0
  192.1930  175.2600  145.9150 C   0  0  0  0  0  0  0  0  0  0  0  0
  191.8950  174.9140  147.1280 N   0  0  0  0  0  0  0  0  0  0  0  0
  190.5040  177.1820  146.0650 C   0  0  1  0  0  3  0  0  0  0  0  0
  193.0390  174.4310  145.1110 N   0  0  0  0  0  0  0  0  0  0  0  0
  193.4510  174.8170  143.9390 C   0  0  0  0  0  3  0  0  0  0  0  0
  187.5520  177.2800  141.9170 N   0  0  0  0  0  2  0  0  0  0  0  0
  187.7480  175.8920  141.5280 C   0  0  0  0  0  2  0  0  0  0  0  0
  189.0770  175.3900  142.0690 C   0  0  0  0  0  2  0  0  0  0  0  0
  188.9420  173.9570  142.5830 C   0  0  2  0  0  3  0  0  0  0  0  0
  189.8320  172.7000  144.4440 C   0  0  0  0  0  1  0  0  0  0  0  0
  190.1580  173.4910  143.2590 N   0  0  0  0  0  2  0  0  0  0  0  0
  189.2600  172.3350  140.8690 O   0  0  0  0  0  0  0  0  0  0  0  0
  188.4680  172.9950  141.5260 C   0  0  0  0  0  3  0  0  0  0  0  0
  1  3  1  0  0  0  0
  1  5  1  0  0  0  0
  2  4  1  0  0  0  0
  4 10  1  0  0  0  0
  4  3  2  0  0  0  0
  6  1  2  0  0  0  0
  7  2  2  0  0  0  0
  7  6  1  0  0  0  0
  9  8  2  0  0  0  0
 10  9  1  0  0  0  0
 12 20  1  0  0  0  0
 12 13  1  0  0  0  0
 13 15  2  0  0  0  0
 14 11  2  0  0  0  0
 15 16  1  0  0  0  0
 15 18  1  0  0  0  0
 16 17  2  0  0  0  0
 17 11  1  0  0  0  0
 18  9  1  6  0  0  0
 18 14  1  0  0  0  0
 19 16  1  0  0  0  0
 20 19  2  0  0  0  0
 21  2  1  0  0  0  0
 22 21  1  0  0  0  0
 22 23  1  0  0  0  0
 23 24  1  0  0  0  0
 24 28  1  6  0  0  0
 24 26  1  0  0  0  0
 26 25  1  0  0  0  0
 27 28  2  0  0  0  0
M  END
>  <MODEL>
8

>  <REMARK>
 VINA RESULT:      -6.0      2.698      5.562
  Name = 
  8 active torsions:
  status: ('A' for Active; 'I' for Inactive)
    1  A    between atoms: C_1  and  C_10
    2  A    between atoms: C_1  and  N_16
    3  A    between atoms: C_6  and  N_16
    4  A    between atoms: C_10  and  CA_25
    5  A    between atoms: C_11  and  N_28
    6  A    between atoms: C_17  and  C_22
    7  A    between atoms: N_21  and  CA_25
    8  A    between atoms: C_24  and  CA_25
                            x       y       z     vdW  Elec       q    Type
                         _______ _______ _______ _____ _____    ______ ____

>  <TORSDO>
F 8

$$$$
=
 OpenBabel11042418253D

 28 30  0  0  1  0  0  0  0  0999 V2000
  185.0290  178.6960  145.4520 C   0  0  0  0  0  0  0  0  0  0  0  0
  187.4020  177.7160  144.3220 C   0  0  0  0  0  0  0  0  0  0  0  0
  185.7810  177.7350  146.1310 C   0  0  0  0  0  3  0  0  0  0  0  0
  186.9790  177.2570  145.5890 C   0  0  0  0  0  0  0  0  0  0  0  0
  183.8800  179.1640  145.9960 F   0  0  0  0  0  0  0  0  0  0  0  0
  185.4630  179.1780  144.2160 C   0  0  0  0  0  3  0  0  0  0  0  0
  186.6400  178.6850  143.6510 C   0  0  0  0  0  3  0  0  0  0  0  0
  189.3630  177.5840  147.2560 O   0  0  0  0  0  0  0  0  0  0  0  0
  188.9770  176.4320  146.9200 C   0  0  0  0  0  0  0  0  0  0  0  0
  187.6960  176.2450  146.3070 N   0  0  0  0  0  2  0  0  0  0  0  0
  189.8060  173.5280  145.4180 C   0  0  0  0  0  3  0  0  0  0  0  0
  193.4320  176.7770  146.7430 C   0  0  0  0  0  2  0  0  0  0  0  0
  192.0500  176.4530  147.2530 C   0  0  0  0  0  3  0  0  0  0  0  0
  189.3170  174.0670  146.4990 N   0  0  0  0  0  0  0  0  0  0  0  0
  191.2620  175.5690  146.6350 C   0  0  0  0  0  0  0  0  0  0  0  0
  191.7010  174.9780  145.3630 C   0  0  0  0  0  0  0  0  0  0  0  0
  190.9990  174.0410  144.8060 N   0  0  0  0  0  0  0  0  0  0  0  0
  189.8790  175.2610  147.1440 C   0  0  1  0  0  3  0  0  0  0  0  0
  192.8780  175.4800  144.7230 N   0  0  0  0  0  0  0  0  0  0  0  0
  193.6640  176.3290  145.3190 C   0  0  0  0  0  3  0  0  0  0  0  0
  188.5750  177.1660  143.7090 N   0  0  0  0  0  2  0  0  0  0  0  0
  188.5830  176.4960  142.4170 C   0  0  0  0  0  2  0  0  0  0  0  0
  188.0470  175.0810  142.5710 C   0  0  0  0  0  2  0  0  0  0  0  0
  188.7530  174.1310  141.6050 C   0  0  2  0  0  3  0  0  0  0  0  0
  189.4220  173.8040  139.3070 C   0  0  0  0  0  1  0  0  0  0  0  0
  188.4560  174.4380  140.2010 N   0  0  0  0  0  2  0  0  0  0  0  0
  189.4490  171.9510  142.2650 O   0  0  0  0  0  0  0  0  0  0  0  0
  188.5240  172.6790  141.9360 C   0  0  0  0  0  3  0  0  0  0  0  0
  1  5  1  0  0  0  0
  1  3  1  0  0  0  0
  2  4  1  0  0  0  0
  4  3  2  0  0  0  0
  4 10  1  0  0  0  0
  6  1  2  0  0  0  0
  7  6  1  0  0  0  0
  7  2  2  0  0  0  0
  9  8  2  0  0  0  0
 10  9  1  0  0  0  0
 11 14  2  0  0  0  0
 12 13  1  0  0  0  0
 14 18  1  0  0  0  0
 15 18  1  0  0  0  0
 15 13  2  0  0  0  0
 16 15  1  0  0  0  0
 17 16  2  0  0  0  0
 17 11  1  0  0  0  0
 18  9  1  6  0  0  0
 19 20  2  0  0  0  0
 19 16  1  0  0  0  0
 20 12  1  0  0  0  0
 21  2  1  0  0  0  0
 22 23  1  0  0  0  0
 22 21  1  0  0  0  0
 24 28  1  1  0  0  0
 24 23  1  0  0  0  0
 25 26  1  0  0  0  0
 26 24  1  0  0  0  0
 28 27  2  0  0  0  0
M  END
>  <MODEL>
9

>  <REMARK>
 VINA RESULT:      -5.9      2.702      5.446
  Name = 
  8 active torsions:
  status: ('A' for Active; 'I' for Inactive)
    1  A    between atoms: C_1  and  C_10
    2  A    between atoms: C_1  and  N_16
    3  A    between atoms: C_6  and  N_16
    4  A    between atoms: C_10  and  CA_25
    5  A    between atoms: C_11  and  N_28
    6  A    between atoms: C_17  and  C_22
    7  A    between atoms: N_21  and  CA_25
    8  A    between atoms: C_24  and  CA_25
                            x       y       z     vdW  Elec       q    Type
                         _______ _______ _______ _____ _____    ______ ____

>  <TORSDO>
F 8

$$$$
