=
 OpenBabel11042417053D

 44 50  0  0  1  0  0  0  0  0999 V2000
  192.6030  173.4420  141.9990 C   0  0  0  0  0  0  0  0  0  0  0  0
  194.8560  171.2960  143.9800 S   0  0  0  0  0  0  0  0  0  0  0  0
  191.4140  174.8820  144.7720 C   0  0  2  0  0  3  0  0  0  0  0  0
  191.3020  175.9580  145.8890 C   0  0  2  0  0  0  0  0  0  0  0  0
  192.5410  176.3760  146.6770 C   0  0  1  0  0  3  0  0  0  0  0  0
  191.6890  175.6150  142.0490 F   0  0  0  0  0  0  0  0  0  0  0  0
  190.9070  174.1580  140.5410 F   0  0  0  0  0  0  0  0  0  0  0  0
  194.1480  172.1540  142.7370 C   0  0  0  0  0  0  0  0  0  0  0  0
  191.3730  174.2850  141.8370 C   0  0  0  0  0  0  0  0  0  0  0  0
  191.4590  175.5220  147.3310 C   0  0  0  0  0  2  0  0  0  0  0  0
  190.3780  177.1520  145.6610 C   0  0  0  0  0  2  0  0  0  0  0  0
  194.2970  172.1640  141.4060 N   0  0  0  0  0  0  0  0  0  0  0  0
  193.8120  171.9680  145.1620 C   0  0  0  0  0  3  0  0  0  0  0  0
  193.3410  172.9730  140.9520 N   0  0  0  0  0  0  0  0  0  0  0  0
  190.0720  174.6110  144.0660 C   0  0  2  0  0  3  0  0  0  0  0  0
  193.1420  172.9170  143.1580 C   0  0  2  0  0  3  0  0  0  0  0  0
  188.2170  175.9880  146.1240 C   0  0  0  0  0  1  0  0  0  0  0  0
  190.2650  173.7940  142.7800 C   0  0  0  0  0  2  0  0  0  0  0  0
  192.9190  172.8520  144.5350 C   0  0  0  0  0  0  0  0  0  0  0  0
  191.9720  173.6290  145.2700 N   0  0  0  0  0  2  0  0  0  0  0  0
  189.2740  175.9030  143.7990 C   0  0  2  0  0  3  0  0  0  0  0  0
  189.0400  176.7260  145.0740 C   0  0  2  0  0  3  0  0  0  0  0  0
  193.7830  175.5440  146.3920 C   0  0  0  0  0  2  0  0  0  0  0  0
  194.7350  176.2820  145.4620 C   0  0  0  0  0  2  0  0  0  0  0  0
  195.8000  175.3550  144.8860 C   0  0  0  0  0  2  0  0  0  0  0  0
  196.8730  174.7730  141.2980 C   0  0  0  0  0  0  0  0  0  0  0  0
  195.8460  175.4280  143.3960 C   0  0  0  0  0  0  0  0  0  0  0  0
  194.9430  176.2360  141.2960 C   0  0  0  0  0  3  0  0  0  0  0  0
  194.9060  176.1880  142.6920 C   0  0  0  0  0  3  0  0  0  0  0  0
  195.9520  175.5950  139.2410 F   0  0  0  0  0  0  0  0  0  0  0  0
  197.9410  174.0220  140.5710 C   0  0  0  0  0  1  0  0  0  0  0  0
  196.8240  174.7170  142.6960 C   0  0  0  0  0  3  0  0  0  0  0  0
  195.9260  175.5300  140.5950 C   0  0  0  0  0  0  0  0  0  0  0  0
  188.0020  175.7120  142.9580 C   0  0  0  0  0  2  0  0  0  0  0  0
  187.9540  176.5970  141.7180 C   0  0  0  0  0  2  0  0  0  0  0  0
  186.5770  176.9520  141.4220 N   0  0  0  0  0  2  0  0  0  0  0  0
  186.3070  178.2020  142.1060 C   0  0  0  0  0  2  0  0  0  0  0  0
  185.0480  178.0530  142.9470 C   0  0  0  0  0  2  0  0  0  0  0  0
  183.9290  178.7700  144.9440 O   0  0  0  0  0  0  0  0  0  0  0  0
  185.0230  178.1600  145.5850 C   0  0  1  0  0  3  0  0  0  0  0  0
  185.6130  180.1380  144.1840 O   0  0  0  0  0  1  0  0  0  0  0  0
  185.1540  178.8210  144.2560 C   0  0  1  0  0  0  0  0  0  0  0  0
  186.0290  178.1870  147.8480 C   0  0  0  0  0  1  0  0  0  0  0  0
  185.5000  179.0470  146.7220 C   0  0  0  0  0  2  0  0  0  0  0  0
  2 13  1  0  0  0  0
  3 20  1  1  0  0  0
  3  4  1  0  0  0  0
  4 11  1  6  0  0  0
  4  5  1  0  0  0  0
  4 10  1  0  0  0  0
  5 23  1  6  0  0  0
  5 10  1  0  0  0  0
  7  9  1  0  0  0  0
  8 16  1  0  0  0  0
  8  2  1  0  0  0  0
  9  1  1  0  0  0  0
  9  6  1  0  0  0  0
  9 18  1  0  0  0  0
 12  8  2  0  0  0  0
 14 12  1  0  0  0  0
 14  1  2  0  0  0  0
 15 18  1  6  0  0  0
 15  3  1  0  0  0  0
 16  1  1  6  0  0  0
 16 19  1  0  0  0  0
 19 13  2  0  0  0  0
 19 20  1  0  0  0  0
 21 34  1  1  0  0  0
 21 15  1  0  0  0  0
 21 22  1  0  0  0  0
 22 11  1  0  0  0  0
 22 17  1  1  0  0  0
 24 23  1  0  0  0  0
 25 24  1  0  0  0  0
 26 32  1  0  0  0  0
 27 25  1  0  0  0  0
 28 29  2  0  0  0  0
 29 27  1  0  0  0  0
 30 33  1  0  0  0  0
 31 26  1  0  0  0  0
 32 27  2  0  0  0  0
 33 28  1  0  0  0  0
 33 26  2  0  0  0  0
 35 34  1  0  0  0  0
 36 35  1  0  0  0  0
 36 37  1  0  0  0  0
 37 38  1  0  0  0  0
 38 42  1  0  0  0  0
 39 40  1  0  0  0  0
 40 44  1  1  0  0  0
 42 41  1  6  0  0  0
 42 39  1  0  0  0  0
 42 40  1  0  0  0  0
 44 43  1  0  0  0  0
M  END
>  <MODEL>
1

>  <REMARK>
 VINA RESULT:      -7.8      0.000      0.000
  Name = 
  11 active torsions:
  status: ('A' for Active; 'I' for Inactive)
    1  A    between atoms: C_3  and  C_39
    2  A    between atoms: C_6  and  C_38
    3  A    between atoms: C_7  and  C_12
    4  A    between atoms: C_7  and  C_13
    5  A    between atoms: C_8  and  C_36
    6  A    between atoms: C_8  and  C_40
    7  A    between atoms: C_13  and  C_39
    8  A    between atoms: C_25  and  C_41
    9  A    between atoms: C_31  and  N_37
   10  A    between atoms: C_31  and  C_41
   11  A    between atoms: C_36  and  N_37
                            x       y       z     vdW  Elec       q    Type
                         _______ _______ _______ _____ _____    ______ ____

>  <TORSDO>
F 11

$$$$
=
 OpenBabel11042417053D

 44 50  0  0  1  0  0  0  0  0999 V2000
  188.8980  174.3750  142.4510 C   0  0  0  0  0  0  0  0  0  0  0  0
  188.2330  177.9490  141.8230 S   0  0  0  0  0  0  0  0  0  0  0  0
  191.5400  175.1250  144.3590 C   0  0  2  0  0  3  0  0  0  0  0  0
  192.3200  175.4040  145.6740 C   0  0  2  0  0  0  0  0  0  0  0  0
  191.8070  176.4500  146.6620 C   0  0  1  0  0  3  0  0  0  0  0  0
  189.7060  172.9740  144.1680 F   0  0  0  0  0  0  0  0  0  0  0  0
  189.4000  172.1040  142.1280 F   0  0  0  0  0  0  0  0  0  0  0  0
  188.0740  176.2950  141.9750 C   0  0  0  0  0  0  0  0  0  0  0  0
  189.8050  173.2360  142.8130 C   0  0  0  0  0  0  0  0  0  0  0  0
  193.0470  176.7260  145.8170 C   0  0  0  0  0  2  0  0  0  0  0  0
  192.9490  174.2250  146.4130 C   0  0  0  0  0  2  0  0  0  0  0  0
  187.1600  175.4040  141.5720 N   0  0  0  0  0  0  0  0  0  0  0  0
  189.7900  177.9580  142.5390 C   0  0  0  0  0  3  0  0  0  0  0  0
  187.6710  174.2130  141.8790 N   0  0  0  0  0  0  0  0  0  0  0  0
  192.1870  174.0200  143.5030 C   0  0  2  0  0  3  0  0  0  0  0  0
  189.1490  175.7320  142.5240 C   0  0  2  0  0  3  0  0  0  0  0  0
  194.9320  173.9260  144.9250 C   0  0  0  0  0  1  0  0  0  0  0  0
  191.2460  173.5480  142.3840 C   0  0  0  0  0  2  0  0  0  0  0  0
  190.1490  176.6420  142.8730 C   0  0  0  0  0  0  0  0  0  0  0  0
  191.3640  176.3320  143.5580 N   0  0  0  0  0  2  0  0  0  0  0  0
  192.6930  172.8370  144.3510 C   0  0  2  0  0  3  0  0  0  0  0  0
  193.6600  173.2770  145.4600 C   0  0  2  0  0  3  0  0  0  0  0  0
  190.6240  177.2670  146.1620 C   0  0  0  0  0  2  0  0  0  0  0  0
  189.3580  176.9260  146.9360 C   0  0  0  0  0  2  0  0  0  0  0  0
  188.3350  176.2100  146.0630 C   0  0  0  0  0  2  0  0  0  0  0  0
  185.7080  178.7390  145.0290 C   0  0  0  0  0  0  0  0  0  0  0  0
  187.0470  176.9610  145.9940 C   0  0  0  0  0  0  0  0  0  0  0  0
  184.7560  177.2860  146.7160 C   0  0  0  0  0  3  0  0  0  0  0  0
  185.9650  176.5910  146.7990 C   0  0  0  0  0  3  0  0  0  0  0  0
  183.4450  179.0300  145.7710 F   0  0  0  0  0  0  0  0  0  0  0  0
  185.5940  179.8940  144.0880 C   0  0  0  0  0  1  0  0  0  0  0  0
  186.9130  178.0310  145.1060 C   0  0  0  0  0  3  0  0  0  0  0  0
  184.6230  178.3610  145.8330 C   0  0  0  0  0  0  0  0  0  0  0  0
  193.2050  171.6360  143.5410 C   0  0  0  0  0  2  0  0  0  0  0  0
  192.4570  170.3410  143.8330 C   0  0  0  0  0  2  0  0  0  0  0  0
  191.7450  169.9080  142.6440 N   0  0  0  0  0  2  0  0  0  0  0  0
  192.6240  170.1480  141.5140 C   0  0  0  0  0  2  0  0  0  0  0  0
  191.8330  170.0020  140.2230 C   0  0  0  0  0  2  0  0  0  0  0  0
  191.2220  171.1260  138.1940 O   0  0  0  0  0  0  0  0  0  0  0  0
  190.3600  171.8470  139.0410 C   0  0  1  0  0  3  0  0  0  0  0  0
  192.7880  172.1850  139.5010 O   0  0  0  0  0  1  0  0  0  0  0  0
  191.6800  171.3350  139.5070 C   0  0  1  0  0  0  0  0  0  0  0  0
  189.0020  173.8790  138.6410 C   0  0  0  0  0  1  0  0  0  0  0  0
  190.4070  173.3190  138.6730 C   0  0  0  0  0  2  0  0  0  0  0  0
  1 16  1  0  0  0  0
  1  9  1  0  0  0  0
  2  8  1  0  0  0  0
  2 13  1  0  0  0  0
  3 20  1  6  0  0  0
  3  4  1  0  0  0  0
  4 10  1  6  0  0  0
  4 11  1  0  0  0  0
  4  5  1  0  0  0  0
  5 23  1  6  0  0  0
  7  9  1  0  0  0  0
  9  6  1  0  0  0  0
 10  5  1  0  0  0  0
 12 14  1  0  0  0  0
 12  8  2  0  0  0  0
 13 19  2  0  0  0  0
 14  1  2  0  0  0  0
 15 18  1  6  0  0  0
 15 21  1  0  0  0  0
 15  3  1  0  0  0  0
 16  8  1  6  0  0  0
 16 19  1  0  0  0  0
 18  9  1  0  0  0  0
 19 20  1  0  0  0  0
 21 34  1  6  0  0  0
 21 22  1  0  0  0  0
 22 17  1  6  0  0  0
 22 11  1  0  0  0  0
 23 24  1  0  0  0  0
 25 24  1  0  0  0  0
 26 32  2  0  0  0  0
 26 33  1  0  0  0  0
 27 25  1  0  0  0  0
 27 29  2  0  0  0  0
 28 29  1  0  0  0  0
 30 33  1  0  0  0  0
 31 26  1  0  0  0  0
 32 27  1  0  0  0  0
 33 28  2  0  0  0  0
 34 35  1  0  0  0  0
 36 35  1  0  0  0  0
 37 36  1  0  0  0  0
 38 37  1  0  0  0  0
 39 40  1  0  0  0  0
 39 42  1  0  0  0  0
 40 44  1  6  0  0  0
 40 42  1  0  0  0  0
 42 41  1  1  0  0  0
 42 38  1  0  0  0  0
 43 44  1  0  0  0  0
M  END
>  <MODEL>
2

>  <REMARK>
 VINA RESULT:      -7.7      3.893      8.221
  Name = 
  11 active torsions:
  status: ('A' for Active; 'I' for Inactive)
    1  A    between atoms: C_3  and  C_39
    2  A    between atoms: C_6  and  C_38
    3  A    between atoms: C_7  and  C_12
    4  A    between atoms: C_7  and  C_13
    5  A    between atoms: C_8  and  C_36
    6  A    between atoms: C_8  and  C_40
    7  A    between atoms: C_13  and  C_39
    8  A    between atoms: C_25  and  C_41
    9  A    between atoms: C_31  and  N_37
   10  A    between atoms: C_31  and  C_41
   11  A    between atoms: C_36  and  N_37
                            x       y       z     vdW  Elec       q    Type
                         _______ _______ _______ _____ _____    ______ ____

>  <TORSDO>
F 11

$$$$
=
 OpenBabel11042417053D

 44 50  0  0  1  0  0  0  0  0999 V2000
  191.0330  174.1490  141.5120 C   0  0  0  0  0  0  0  0  0  0  0  0
  187.7370  175.8070  141.5410 S   0  0  0  0  0  0  0  0  0  0  0  0
  191.7980  175.4530  144.4950 C   0  0  2  0  0  3  0  0  0  0  0  0
  191.9390  175.4960  146.0420 C   0  0  2  0  0  0  0  0  0  0  0  0
  190.7380  175.1790  146.9300 C   0  0  1  0  0  3  0  0  0  0  0  0
  192.5580  173.1600  143.0150 F   0  0  0  0  0  0  0  0  0  0  0  0
  193.2080  173.5090  140.9010 F   0  0  0  0  0  0  0  0  0  0  0  0
  189.0090  174.7790  141.2050 C   0  0  0  0  0  0  0  0  0  0  0  0
  192.4650  174.0320  141.9440 C   0  0  0  0  0  0  0  0  0  0  0  0
  191.2470  176.6110  146.8000 C   0  0  0  0  0  2  0  0  0  0  0  0
  193.2290  174.9770  146.6720 C   0  0  0  0  0  2  0  0  0  0  0  0
  189.2530  173.8800  140.2440 N   0  0  0  0  0  0  0  0  0  0  0  0
  188.5670  176.5570  142.8400 C   0  0  0  0  0  3  0  0  0  0  0  0
  190.5090  173.4830  140.4440 N   0  0  0  0  0  0  0  0  0  0  0  0
  193.1170  175.7710  143.7650 C   0  0  2  0  0  3  0  0  0  0  0  0
  190.0480  174.9800  142.0120 C   0  0  2  0  0  3  0  0  0  0  0  0
  194.6620  176.9590  146.1670 C   0  0  0  0  0  1  0  0  0  0  0  0
  193.0360  175.4190  142.2720 C   0  0  0  0  0  2  0  0  0  0  0  0
  189.8400  175.9760  142.9670 C   0  0  0  0  0  0  0  0  0  0  0  0
  190.7420  176.3380  144.0140 N   0  0  0  0  0  2  0  0  0  0  0  0
  194.3370  175.1080  144.4350 C   0  0  2  0  0  3  0  0  0  0  0  0
  194.4600  175.4670  145.9230 C   0  0  2  0  0  3  0  0  0  0  0  0
  189.4250  175.0060  146.1810 C   0  0  0  0  0  2  0  0  0  0  0  0
  188.2710  175.6390  146.9450 C   0  0  0  0  0  2  0  0  0  0  0  0
  188.2640  177.1570  146.8090 C   0  0  0  0  0  2  0  0  0  0  0  0
  185.4230  178.7480  144.8700 C   0  0  0  0  0  0  0  0  0  0  0  0
  186.9080  177.6720  146.4580 C   0  0  0  0  0  0  0  0  0  0  0  0
  184.5740  178.0170  147.0170 C   0  0  0  0  0  3  0  0  0  0  0  0
  185.8460  177.5500  147.3600 C   0  0  0  0  0  3  0  0  0  0  0  0
  183.1200  179.0720  145.4600 F   0  0  0  0  0  0  0  0  0  0  0  0
  185.2190  179.3990  143.5400 C   0  0  0  0  0  1  0  0  0  0  0  0
  186.6910  178.2660  145.2120 C   0  0  0  0  0  3  0  0  0  0  0  0
  184.3590  178.6170  145.7730 C   0  0  0  0  0  0  0  0  0  0  0  0
  195.6570  175.2590  143.6640 C   0  0  0  0  0  2  0  0  0  0  0  0
  196.8420  174.5900  144.3500 C   0  0  0  0  0  2  0  0  0  0  0  0
  197.1910  173.3690  143.6450 N   0  0  0  0  0  2  0  0  0  0  0  0
  197.6770  172.4320  144.6400 C   0  0  0  0  0  2  0  0  0  0  0  0
  196.7470  172.4510  145.8440 C   0  0  0  0  0  2  0  0  0  0  0  0
  196.1550  170.3290  144.8940 O   0  0  0  0  0  0  0  0  0  0  0  0
  196.0040  169.9490  146.2410 C   0  0  1  0  0  3  0  0  0  0  0  0
  194.4030  171.7010  145.4700 O   0  0  0  0  0  1  0  0  0  0  0  0
  195.7160  171.3350  145.7740 C   0  0  1  0  0  0  0  0  0  0  0  0
  194.6610  168.5690  147.7980 C   0  0  0  0  0  1  0  0  0  0  0  0
  194.7430  169.1160  146.3900 C   0  0  0  0  0  2  0  0  0  0  0  0
  1  9  1  0  0  0  0
  1 16  1  0  0  0  0
  2 13  1  0  0  0  0
  3 20  1  6  0  0  0
  3  4  1  0  0  0  0
  4 11  1  1  0  0  0
  4 10  1  0  0  0  0
  4  5  1  0  0  0  0
  5 23  1  6  0  0  0
  7  9  1  0  0  0  0
  8  2  1  0  0  0  0
  9 18  1  0  0  0  0
  9  6  1  0  0  0  0
 10  5  1  0  0  0  0
 12 14  1  0  0  0  0
 12  8  2  0  0  0  0
 13 19  2  0  0  0  0
 14  1  2  0  0  0  0
 15 18  1  6  0  0  0
 15 21  1  0  0  0  0
 15  3  1  0  0  0  0
 16  8  1  6  0  0  0
 16 19  1  0  0  0  0
 19 20  1  0  0  0  0
 21 34  1  6  0  0  0
 21 22  1  0  0  0  0
 22 17  1  6  0  0  0
 22 11  1  0  0  0  0
 23 24  1  0  0  0  0
 25 24  1  0  0  0  0
 26 32  2  0  0  0  0
 26 33  1  0  0  0  0
 27 25  1  0  0  0  0
 27 29  2  0  0  0  0
 28 29  1  0  0  0  0
 30 33  1  0  0  0  0
 31 26  1  0  0  0  0
 32 27  1  0  0  0  0
 33 28  2  0  0  0  0
 34 35  1  0  0  0  0
 36 35  1  0  0  0  0
 36 37  1  0  0  0  0
 37 38  1  0  0  0  0
 39 42  1  0  0  0  0
 39 40  1  0  0  0  0
 40 44  1  6  0  0  0
 42 41  1  6  0  0  0
 42 38  1  0  0  0  0
 42 40  1  0  0  0  0
 44 43  1  0  0  0  0
M  END
>  <MODEL>
3

>  <REMARK>
 VINA RESULT:      -7.6      4.001      8.863
  Name = 
  11 active torsions:
  status: ('A' for Active; 'I' for Inactive)
    1  A    between atoms: C_3  and  C_39
    2  A    between atoms: C_6  and  C_38
    3  A    between atoms: C_7  and  C_12
    4  A    between atoms: C_7  and  C_13
    5  A    between atoms: C_8  and  C_36
    6  A    between atoms: C_8  and  C_40
    7  A    between atoms: C_13  and  C_39
    8  A    between atoms: C_25  and  C_41
    9  A    between atoms: C_31  and  N_37
   10  A    between atoms: C_31  and  C_41
   11  A    between atoms: C_36  and  N_37
                            x       y       z     vdW  Elec       q    Type
                         _______ _______ _______ _____ _____    ______ ____

>  <TORSDO>
F 11

$$$$
=
 OpenBabel11042417053D

 44 50  0  0  1  0  0  0  0  0999 V2000
  191.0230  172.6660  142.0060 C   0  0  0  0  0  0  0  0  0  0  0  0
  193.5070  170.4000  143.5240 S   0  0  0  0  0  0  0  0  0  0  0  0
  191.5540  174.9600  144.3800 C   0  0  2  0  0  3  0  0  0  0  0  0
  192.1750  176.2300  145.0270 C   0  0  2  0  0  0  0  0  0  0  0  0
  193.6920  176.4000  145.0770 C   0  0  1  0  0  3  0  0  0  0  0  0
  190.6520  174.9740  141.6940 F   0  0  0  0  0  0  0  0  0  0  0  0
  189.0050  173.5450  141.1880 F   0  0  0  0  0  0  0  0  0  0  0  0
  192.4700  171.1510  142.4540 C   0  0  0  0  0  0  0  0  0  0  0  0
  190.0370  173.7950  142.0750 C   0  0  0  0  0  0  0  0  0  0  0  0
  192.9060  176.0840  146.3460 C   0  0  0  0  0  2  0  0  0  0  0  0
  191.4870  177.5740  144.8030 C   0  0  0  0  0  2  0  0  0  0  0  0
  191.9780  170.8300  141.2510 N   0  0  0  0  0  0  0  0  0  0  0  0
  193.2790  171.5990  144.7280 C   0  0  0  0  0  3  0  0  0  0  0  0
  191.0860  171.7800  140.9710 N   0  0  0  0  0  0  0  0  0  0  0  0
  190.0130  174.9750  144.3920 C   0  0  2  0  0  3  0  0  0  0  0  0
  191.9350  172.2600  142.9610 C   0  0  2  0  0  3  0  0  0  0  0  0
  189.6220  177.2640  146.4350 C   0  0  0  0  0  1  0  0  0  0  0  0
  189.4300  173.8840  143.4820 C   0  0  0  0  0  2  0  0  0  0  0  0
  192.3750  172.5620  144.2510 C   0  0  0  0  0  0  0  0  0  0  0  0
  192.0410  173.7320  145.0000 N   0  0  0  0  0  2  0  0  0  0  0  0
  189.4340  176.3620  144.0520 C   0  0  2  0  0  3  0  0  0  0  0  0
  189.9770  177.4700  144.9670 C   0  0  2  0  0  3  0  0  0  0  0  0
  194.4810  175.1830  144.6170 C   0  0  0  0  0  2  0  0  0  0  0  0
  195.3970  174.6750  145.7220 C   0  0  0  0  0  2  0  0  0  0  0  0
  196.7840  174.3270  145.1940 C   0  0  0  0  0  2  0  0  0  0  0  0
  196.8560  170.5840  145.7840 C   0  0  0  0  0  0  0  0  0  0  0  0
  196.9280  172.8610  144.9520 C   0  0  0  0  0  0  0  0  0  0  0  0
  197.3590  171.0050  143.4530 C   0  0  0  0  0  3  0  0  0  0  0  0
  197.2440  172.3790  143.6770 C   0  0  0  0  0  3  0  0  0  0  0  0
  197.2890  168.7730  144.2710 F   0  0  0  0  0  0  0  0  0  0  0  0
  196.6590  169.6400  146.9260 C   0  0  0  0  0  1  0  0  0  0  0  0
  196.7280  171.9600  146.0010 C   0  0  0  0  0  3  0  0  0  0  0  0
  197.1660  170.1030  144.5040 C   0  0  0  0  0  0  0  0  0  0  0  0
  187.9060  176.4020  143.8950 C   0  0  0  0  0  2  0  0  0  0  0  0
  187.4450  177.0230  142.5820 C   0  0  0  0  0  2  0  0  0  0  0  0
  186.0240  176.7810  142.3980 N   0  0  0  0  0  2  0  0  0  0  0  0
  185.4090  178.0680  142.1340 C   0  0  0  0  0  2  0  0  0  0  0  0
  184.2930  178.3070  143.1400 C   0  0  0  0  0  2  0  0  0  0  0  0
  183.7850  178.8970  145.4090 O   0  0  0  0  0  0  0  0  0  0  0  0
  184.7020  177.8740  145.7120 C   0  0  1  0  0  3  0  0  0  0  0  0
  185.6890  179.8330  144.5250 O   0  0  0  0  0  1  0  0  0  0  0  0
  184.8410  178.7240  144.4960 C   0  0  1  0  0  0  0  0  0  0  0  0
  186.1500  177.1190  147.5740 C   0  0  0  0  0  1  0  0  0  0  0  0
  185.6080  178.3270  146.8420 C   0  0  0  0  0  2  0  0  0  0  0  0
  1  9  1  0  0  0  0
  2 13  1  0  0  0  0
  3 15  1  0  0  0  0
  3 20  1  1  0  0  0
  3  4  1  0  0  0  0
  4 11  1  6  0  0  0
  4  5  1  0  0  0  0
  4 10  1  0  0  0  0
  5 23  1  6  0  0  0
  5 10  1  0  0  0  0
  6  9  1  0  0  0  0
  7  9  1  0  0  0  0
  8 16  1  0  0  0  0
  8  2  1  0  0  0  0
  9 18  1  0  0  0  0
 11 22  1  0  0  0  0
 12  8  2  0  0  0  0
 14 12  1  0  0  0  0
 14  1  2  0  0  0  0
 15 18  1  6  0  0  0
 16  1  1  1  0  0  0
 16 19  1  0  0  0  0
 19 13  2  0  0  0  0
 19 20  1  0  0  0  0
 21 34  1  1  0  0  0
 21 15  1  0  0  0  0
 21 22  1  0  0  0  0
 22 17  1  1  0  0  0
 23 24  1  0  0  0  0
 25 24  1  0  0  0  0
 26 32  1  0  0  0  0
 26 31  1  0  0  0  0
 27 25  1  0  0  0  0
 27 32  2  0  0  0  0
 28 29  2  0  0  0  0
 28 33  1  0  0  0  0
 29 27  1  0  0  0  0
 30 33  1  0  0  0  0
 33 26  2  0  0  0  0
 35 34  1  0  0  0  0
 36 35  1  0  0  0  0
 37 36  1  0  0  0  0
 37 38  1  0  0  0  0
 38 42  1  0  0  0  0
 39 40  1  0  0  0  0
 40 44  1  1  0  0  0
 42 41  1  1  0  0  0
 42 39  1  0  0  0  0
 42 40  1  0  0  0  0
 44 43  1  0  0  0  0
M  END
>  <MODEL>
4

>  <REMARK>
 VINA RESULT:      -7.3      2.167      2.923
  Name = 
  11 active torsions:
  status: ('A' for Active; 'I' for Inactive)
    1  A    between atoms: C_3  and  C_39
    2  A    between atoms: C_6  and  C_38
    3  A    between atoms: C_7  and  C_12
    4  A    between atoms: C_7  and  C_13
    5  A    between atoms: C_8  and  C_36
    6  A    between atoms: C_8  and  C_40
    7  A    between atoms: C_13  and  C_39
    8  A    between atoms: C_25  and  C_41
    9  A    between atoms: C_31  and  N_37
   10  A    between atoms: C_31  and  C_41
   11  A    between atoms: C_36  and  N_37
                            x       y       z     vdW  Elec       q    Type
                         _______ _______ _______ _____ _____    ______ ____

>  <TORSDO>
F 11

$$$$
=
 OpenBabel11042417053D

 44 50  0  0  1  0  0  0  0  0999 V2000
  192.5460  176.3710  145.3360 C   0  0  0  0  0  0  0  0  0  0  0  0
  195.7350  175.6360  143.6350 S   0  0  0  0  0  0  0  0  0  0  0  0
  190.8020  175.1820  142.7430 C   0  0  2  0  0  3  0  0  0  0  0  0
  190.0090  174.1330  141.9140 C   0  0  2  0  0  0  0  0  0  0  0  0
  190.6220  172.7650  141.6220 C   0  0  1  0  0  3  0  0  0  0  0  0
  190.3670  175.4880  145.5250 F   0  0  0  0  0  0  0  0  0  0  0  0
  190.7820  177.5150  146.3820 F   0  0  0  0  0  0  0  0  0  0  0  0
  194.5770  175.9660  144.7900 C   0  0  0  0  0  0  0  0  0  0  0  0
  191.0740  176.6620  145.3330 C   0  0  0  0  0  0  0  0  0  0  0  0
  190.4870  173.8060  140.5140 C   0  0  0  0  0  2  0  0  0  0  0  0
  188.5030  174.0140  142.1380 C   0  0  0  0  0  2  0  0  0  0  0  0
  194.6210  176.3400  146.0750 N   0  0  0  0  0  0  0  0  0  0  0  0
  194.5710  175.4390  142.3920 C   0  0  0  0  0  3  0  0  0  0  0  0
  193.3550  176.5810  146.4130 N   0  0  0  0  0  2  0  0  0  0  0  0
  190.0160  176.4890  142.9630 C   0  0  2  0  0  3  0  0  0  0  0  0
  193.3450  175.9570  144.2880 C   0  0  0  0  0  0  0  0  0  0  0  0
  187.8180  176.0320  140.8350 C   0  0  0  0  0  1  0  0  0  0  0  0
  190.6770  177.3730  144.0310 C   0  0  0  0  0  2  0  0  0  0  0  0
  193.2900  175.6510  142.9260 C   0  0  0  0  0  0  0  0  0  0  0  0
  192.1020  175.4810  142.1510 N   0  0  0  0  0  2  0  0  0  0  0  0
  188.5290  176.2360  143.2810 C   0  0  2  0  0  3  0  0  0  0  0  0
  187.8340  175.3790  142.2130 C   0  0  2  0  0  3  0  0  0  0  0  0
  192.0750  172.6190  142.0480 C   0  0  0  0  0  2  0  0  0  0  0  0
  192.2800  171.3550  142.8710 C   0  0  0  0  0  2  0  0  0  0  0  0
  192.4300  171.6630  144.3560 C   0  0  0  0  0  2  0  0  0  0  0  0
  195.9450  171.9880  145.7360 C   0  0  0  0  0  0  0  0  0  0  0  0
  193.7900  171.3050  144.8580 C   0  0  0  0  0  0  0  0  0  0  0  0
  195.4500  169.6370  145.4390 C   0  0  0  0  0  3  0  0  0  0  0  0
  194.1830  169.9660  144.9500 C   0  0  0  0  0  3  0  0  0  0  0  0
  197.5630  170.3080  146.2980 F   0  0  0  0  0  0  0  0  0  0  0  0
  196.8790  173.0840  146.1380 C   0  0  0  0  0  1  0  0  0  0  0  0
  194.6710  172.3130  145.2580 C   0  0  0  0  0  3  0  0  0  0  0  0
  196.3340  170.6450  145.8330 C   0  0  0  0  0  0  0  0  0  0  0  0
  187.7300  177.4920  143.6640 C   0  0  0  0  0  2  0  0  0  0  0  0
  187.1510  178.2340  142.4660 C   0  0  0  0  0  2  0  0  0  0  0  0
  185.7140  178.3790  142.6270 N   0  0  0  0  0  2  0  0  0  0  0  0
  185.5030  179.4200  143.6140 C   0  0  0  0  0  2  0  0  0  0  0  0
  184.4320  178.9710  144.5960 C   0  0  0  0  0  2  0  0  0  0  0  0
  184.1140  177.6500  146.5740 O   0  0  0  0  0  0  0  0  0  0  0  0
  185.2960  177.0170  146.1480 C   0  0  1  0  0  3  0  0  0  0  0  0
  185.5690  179.4190  146.7650 O   0  0  0  0  0  1  0  0  0  0  0  0
  185.0390  178.4640  145.8950 C   0  0  1  0  0  0  0  0  0  0  0  0
  187.4640  176.0830  146.8940 C   0  0  0  0  0  1  0  0  0  0  0  0
  186.2050  176.7910  147.3420 C   0  0  0  0  0  2  0  0  0  0  0  0
  1 14  1  0  0  0  0
  2  8  1  0  0  0  0
  3 20  1  6  0  0  0
  3 15  1  0  0  0  0
  4 10  1  6  0  0  0
  4 11  1  0  0  0  0
  4  3  1  0  0  0  0
  5  4  1  0  0  0  0
  5 23  1  1  0  0  0
  8 12  2  0  0  0  0
  9  1  1  0  0  0  0
  9  6  1  0  0  0  0
  9  7  1  0  0  0  0
 10  5  1  0  0  0  0
 11 22  1  0  0  0  0
 12 14  1  0  0  0  0
 13 19  2  0  0  0  0
 13  2  1  0  0  0  0
 15 21  1  0  0  0  0
 15 18  1  1  0  0  0
 16  8  1  0  0  0  0
 16  1  2  0  0  0  0
 18  9  1  0  0  0  0
 19 16  1  0  0  0  0
 20 19  1  0  0  0  0
 21 34  1  6  0  0  0
 22 17  1  6  0  0  0
 22 21  1  0  0  0  0
 23 24  1  0  0  0  0
 24 25  1  0  0  0  0
 25 27  1  0  0  0  0
 26 33  1  0  0  0  0
 26 31  1  0  0  0  0
 27 29  2  0  0  0  0
 27 32  1  0  0  0  0
 28 33  2  0  0  0  0
 29 28  1  0  0  0  0
 32 26  2  0  0  0  0
 33 30  1  0  0  0  0
 35 36  1  0  0  0  0
 35 34  1  0  0  0  0
 36 37  1  0  0  0  0
 37 38  1  0  0  0  0
 38 42  1  0  0  0  0
 40 39  1  0  0  0  0
 40 44  1  1  0  0  0
 42 40  1  0  0  0  0
 42 39  1  0  0  0  0
 42 41  1  1  0  0  0
 43 44  1  0  0  0  0
M  END
>  <MODEL>
5

>  <REMARK>
 VINA RESULT:      -7.2      2.489      4.663
  Name = 
  11 active torsions:
  status: ('A' for Active; 'I' for Inactive)
    1  A    between atoms: C_3  and  C_39
    2  A    between atoms: C_6  and  C_38
    3  A    between atoms: C_7  and  C_12
    4  A    between atoms: C_7  and  C_13
    5  A    between atoms: C_8  and  C_36
    6  A    between atoms: C_8  and  C_40
    7  A    between atoms: C_13  and  C_39
    8  A    between atoms: C_25  and  C_41
    9  A    between atoms: C_31  and  N_37
   10  A    between atoms: C_31  and  C_41
   11  A    between atoms: C_36  and  N_37
                            x       y       z     vdW  Elec       q    Type
                         _______ _______ _______ _____ _____    ______ ____

>  <TORSDO>
F 11

$$$$
=
 OpenBabel11042417053D

 44 50  0  0  1  0  0  0  0  0999 V2000
  191.8540  172.0670  143.1650 C   0  0  0  0  0  0  0  0  0  0  0  0
  188.5970  172.9920  141.7010 S   0  0  0  0  0  0  0  0  0  0  0  0
  192.0620  175.0050  144.7470 C   0  0  2  0  0  3  0  0  0  0  0  0
  191.9220  176.0050  145.9290 C   0  0  2  0  0  0  0  0  0  0  0  0
  190.5830  176.1620  146.6460 C   0  0  1  0  0  3  0  0  0  0  0  0
  193.0900  172.3960  145.1470 F   0  0  0  0  0  0  0  0  0  0  0  0
  194.1070  171.4460  143.3930 F   0  0  0  0  0  0  0  0  0  0  0  0
  189.9140  172.1330  142.2590 C   0  0  0  0  0  0  0  0  0  0  0  0
  193.1850  172.4080  143.7670 C   0  0  0  0  0  0  0  0  0  0  0  0
  191.0990  177.2600  145.7200 C   0  0  0  0  0  2  0  0  0  0  0  0
  193.0810  176.1370  146.9150 C   0  0  0  0  0  2  0  0  0  0  0  0
  190.3320  170.8690  142.1150 N   0  0  0  0  0  0  0  0  0  0  0  0
  189.1750  174.4730  142.3440 C   0  0  0  0  0  3  0  0  0  0  0  0
  191.5340  170.8300  142.6890 N   0  0  0  0  0  0  0  0  0  0  0  0
  193.4890  174.9600  144.1680 C   0  0  2  0  0  3  0  0  0  0  0  0
  190.7900  172.9070  142.8950 C   0  0  2  0  0  3  0  0  0  0  0  0
  194.5700  177.5420  145.4830 C   0  0  0  0  0  1  0  0  0  0  0  0
  193.6800  173.7590  143.2300 C   0  0  0  0  0  2  0  0  0  0  0  0
  190.4070  174.2470  142.9790 C   0  0  0  0  0  0  0  0  0  0  0  0
  191.1040  175.2780  143.6800 N   0  0  0  0  0  2  0  0  0  0  0  0
  194.5720  174.9970  145.2640 C   0  0  2  0  0  3  0  0  0  0  0  0
  194.4230  176.2050  146.2010 C   0  0  2  0  0  3  0  0  0  0  0  0
  189.4270  175.4130  145.9980 C   0  0  0  0  0  2  0  0  0  0  0  0
  188.1240  175.6660  146.7440 C   0  0  0  0  0  2  0  0  0  0  0  0
  187.8920  177.1510  146.9950 C   0  0  0  0  0  2  0  0  0  0  0  0
  185.7380  178.4230  144.1480 C   0  0  0  0  0  0  0  0  0  0  0  0
  186.7130  177.6610  146.2340 C   0  0  0  0  0  0  0  0  0  0  0  0
  184.3740  178.2910  146.1450 C   0  0  0  0  0  3  0  0  0  0  0  0
  185.4790  177.8330  146.8680 C   0  0  0  0  0  3  0  0  0  0  0  0
  183.4200  179.0400  144.1000 F   0  0  0  0  0  0  0  0  0  0  0  0
  185.8990  178.7480  142.6980 C   0  0  0  0  0  1  0  0  0  0  0  0
  186.8380  177.9500  144.8720 C   0  0  0  0  0  3  0  0  0  0  0  0
  184.5000  178.5880  144.7840 C   0  0  0  0  0  0  0  0  0  0  0  0
  196.0090  174.7950  144.7580 C   0  0  0  0  0  2  0  0  0  0  0  0
  196.5270  175.9580  143.9210 C   0  0  0  0  0  2  0  0  0  0  0  0
  197.6670  175.5250  143.1320 N   0  0  0  0  0  2  0  0  0  0  0  0
  197.1870  174.4970  142.2270 C   0  0  0  0  0  2  0  0  0  0  0  0
  197.1230  175.0610  140.8160 C   0  0  0  0  0  2  0  0  0  0  0  0
  195.6240  175.2910  138.9580 O   0  0  0  0  0  0  0  0  0  0  0  0
  194.9290  174.2460  139.5950 C   0  0  1  0  0  3  0  0  0  0  0  0
  195.0120  176.3780  140.8880 O   0  0  0  0  0  1  0  0  0  0  0  0
  195.6880  175.2740  140.3620 C   0  0  1  0  0  0  0  0  0  0  0  0
  192.6680  173.2390  139.6700 C   0  0  0  0  0  1  0  0  0  0  0  0
  193.4390  174.5350  139.5560 C   0  0  0  0  0  2  0  0  0  0  0  0
  1  9  1  0  0  0  0
  2  8  1  0  0  0  0
  2 13  1  0  0  0  0
  3 20  1  6  0  0  0
  3  4  1  0  0  0  0
  4 10  1  6  0  0  0
  4  5  1  0  0  0  0
  4 11  1  0  0  0  0
  5 23  1  6  0  0  0
  7  9  1  0  0  0  0
  9  6  1  0  0  0  0
 10  5  1  0  0  0  0
 12  8  2  0  0  0  0
 12 14  1  0  0  0  0
 13 19  2  0  0  0  0
 14  1  2  0  0  0  0
 15 18  1  1  0  0  0
 15  3  1  0  0  0  0
 15 21  1  0  0  0  0
 16  8  1  6  0  0  0
 16 19  1  0  0  0  0
 16  1  1  0  0  0  0
 18  9  1  0  0  0  0
 19 20  1  0  0  0  0
 21 34  1  6  0  0  0
 21 22  1  0  0  0  0
 22 17  1  6  0  0  0
 22 11  1  0  0  0  0
 23 24  1  0  0  0  0
 24 25  1  0  0  0  0
 26 33  2  0  0  0  0
 26 32  1  0  0  0  0
 27 29  1  0  0  0  0
 27 25  1  0  0  0  0
 28 29  2  0  0  0  0
 30 33  1  0  0  0  0
 31 26  1  0  0  0  0
 32 27  2  0  0  0  0
 33 28  1  0  0  0  0
 35 34  1  0  0  0  0
 36 35  1  0  0  0  0
 37 36  1  0  0  0  0
 38 37  1  0  0  0  0
 39 40  1  0  0  0  0
 39 42  1  0  0  0  0
 40 44  1  1  0  0  0
 40 42  1  0  0  0  0
 42 38  1  0  0  0  0
 42 41  1  1  0  0  0
 44 43  1  0  0  0  0
M  END
>  <MODEL>
6

>  <REMARK>
 VINA RESULT:      -6.8      3.559      8.323
  Name = 
  11 active torsions:
  status: ('A' for Active; 'I' for Inactive)
    1  A    between atoms: C_3  and  C_39
    2  A    between atoms: C_6  and  C_38
    3  A    between atoms: C_7  and  C_12
    4  A    between atoms: C_7  and  C_13
    5  A    between atoms: C_8  and  C_36
    6  A    between atoms: C_8  and  C_40
    7  A    between atoms: C_13  and  C_39
    8  A    between atoms: C_25  and  C_41
    9  A    between atoms: C_31  and  N_37
   10  A    between atoms: C_31  and  C_41
   11  A    between atoms: C_36  and  N_37
                            x       y       z     vdW  Elec       q    Type
                         _______ _______ _______ _____ _____    ______ ____

>  <TORSDO>
F 11

$$$$
=
 OpenBabel11042417053D

 44 50  0  0  1  0  0  0  0  0999 V2000
  192.8240  175.6950  144.3400 C   0  0  0  0  0  0  0  0  0  0  0  0
  190.6810  175.5130  147.3370 S   0  0  0  0  0  0  0  0  0  0  0  0
  190.5520  174.0450  142.5240 C   0  0  2  0  0  3  0  0  0  0  0  0
  189.3590  173.8700  141.5430 C   0  0  2  0  0  0  0  0  0  0  0  0
  188.0430  174.6010  141.8000 C   0  0  1  0  0  3  0  0  0  0  0  0
  192.6230  175.9060  141.9990 F   0  0  0  0  0  0  0  0  0  0  0  0
  194.6320  175.4320  142.8650 F   0  0  0  0  0  0  0  0  0  0  0  0
  191.8490  175.9540  146.2290 C   0  0  0  0  0  0  0  0  0  0  0  0
  193.2740  175.2020  142.9960 C   0  0  0  0  0  0  0  0  0  0  0  0
  188.1460  173.0930  142.0130 C   0  0  0  0  0  2  0  0  0  0  0  0
  189.6500  173.7910  140.0460 C   0  0  0  0  0  2  0  0  0  0  0  0
  192.9410  176.7260  146.2830 N   0  0  0  0  0  0  0  0  0  0  0  0
  189.9260  174.4270  146.2460 C   0  0  0  0  0  3  0  0  0  0  0  0
  193.5390  176.5700  145.1030 N   0  0  0  0  0  2  0  0  0  0  0  0
  191.8040  173.2580  142.0890 C   0  0  2  0  0  3  0  0  0  0  0  0
  191.7170  175.3100  145.0720 C   0  0  0  0  0  0  0  0  0  0  0  0
  190.4540  171.4270  139.9930 C   0  0  0  0  0  1  0  0  0  0  0  0
  193.0460  173.6880  142.8830 C   0  0  0  0  0  2  0  0  0  0  0  0
  190.6290  174.4360  145.0300 C   0  0  0  0  0  0  0  0  0  0  0  0
  190.1960  173.6880  143.8930 N   0  0  0  0  0  2  0  0  0  0  0  0
  192.0510  173.3360  140.5690 C   0  0  2  0  0  3  0  0  0  0  0  0
  190.8340  172.8840  139.7490 C   0  0  2  0  0  3  0  0  0  0  0  0
  187.9730  175.3280  143.1360 C   0  0  0  0  0  2  0  0  0  0  0  0
  188.2970  176.8060  142.9720 C   0  0  0  0  0  2  0  0  0  0  0  0
  188.6580  177.4590  144.3010 C   0  0  0  0  0  2  0  0  0  0  0  0
  185.1620  178.4590  145.3670 C   0  0  0  0  0  0  0  0  0  0  0  0
  187.4510  177.6890  145.1480 C   0  0  0  0  0  0  0  0  0  0  0  0
  186.3150  177.5340  147.2840 C   0  0  0  0  0  3  0  0  0  0  0  0
  187.4550  177.3340  146.5010 C   0  0  0  0  0  3  0  0  0  0  0  0
  184.0720  178.2910  147.4970 F   0  0  0  0  0  0  0  0  0  0  0  0
  183.9500  179.0750  144.7460 C   0  0  0  0  0  1  0  0  0  0  0  0
  186.3010  178.2450  144.5830 C   0  0  0  0  0  3  0  0  0  0  0  0
  185.1660  178.0970  146.7210 C   0  0  0  0  0  0  0  0  0  0  0  0
  193.3700  172.7030  140.0970 C   0  0  0  0  0  2  0  0  0  0  0  0
  194.2590  173.6620  139.3160 C   0  0  0  0  0  2  0  0  0  0  0  0
  195.4490  173.9700  140.0910 N   0  0  0  0  0  2  0  0  0  0  0  0
  196.2900  172.7880  140.0580 C   0  0  0  0  0  2  0  0  0  0  0  0
  197.3440  172.8930  141.1500 C   0  0  0  0  0  2  0  0  0  0  0  0
  197.8040  172.3520  143.4420 O   0  0  0  0  0  0  0  0  0  0  0  0
  196.9730  173.4560  143.7030 C   0  0  1  0  0  3  0  0  0  0  0  0
  195.8310  171.5380  142.5900 O   0  0  0  0  0  1  0  0  0  0  0  0
  196.7660  172.5730  142.5200 C   0  0  1  0  0  0  0  0  0  0  0  0
  196.8180  173.0320  146.1380 C   0  0  0  0  0  1  0  0  0  0  0  0
  196.0340  173.1210  144.8480 C   0  0  0  0  0  2  0  0  0  0  0  0
  1 16  2  0  0  0  0
  1 14  1  0  0  0  0
  3 20  1  1  0  0  0
  4 11  1  6  0  0  0
  4  5  1  0  0  0  0
  4 10  1  0  0  0  0
  4  3  1  0  0  0  0
  5 10  1  0  0  0  0
  5 23  1  1  0  0  0
  6  9  1  0  0  0  0
  7  9  1  0  0  0  0
  8 12  2  0  0  0  0
  8  2  1  0  0  0  0
  9  1  1  0  0  0  0
 13  2  1  0  0  0  0
 14 12  1  0  0  0  0
 15  3  1  0  0  0  0
 15 18  1  1  0  0  0
 16  8  1  0  0  0  0
 18  9  1  0  0  0  0
 19 16  1  0  0  0  0
 19 13  2  0  0  0  0
 20 19  1  0  0  0  0
 21 34  1  1  0  0  0
 21 15  1  0  0  0  0
 22 17  1  1  0  0  0
 22 11  1  0  0  0  0
 22 21  1  0  0  0  0
 24 23  1  0  0  0  0
 24 25  1  0  0  0  0
 25 27  1  0  0  0  0
 26 33  1  0  0  0  0
 27 29  2  0  0  0  0
 29 28  1  0  0  0  0
 31 26  1  0  0  0  0
 32 27  1  0  0  0  0
 32 26  2  0  0  0  0
 33 28  2  0  0  0  0
 33 30  1  0  0  0  0
 35 36  1  0  0  0  0
 35 34  1  0  0  0  0
 37 36  1  0  0  0  0
 37 38  1  0  0  0  0
 38 42  1  0  0  0  0
 39 40  1  0  0  0  0
 40 44  1  1  0  0  0
 42 41  1  1  0  0  0
 42 39  1  0  0  0  0
 42 40  1  0  0  0  0
 44 43  1  0  0  0  0
M  END
>  <MODEL>
7

>  <REMARK>
 VINA RESULT:      -6.8      3.938      8.843
  Name = 
  11 active torsions:
  status: ('A' for Active; 'I' for Inactive)
    1  A    between atoms: C_3  and  C_39
    2  A    between atoms: C_6  and  C_38
    3  A    between atoms: C_7  and  C_12
    4  A    between atoms: C_7  and  C_13
    5  A    between atoms: C_8  and  C_36
    6  A    between atoms: C_8  and  C_40
    7  A    between atoms: C_13  and  C_39
    8  A    between atoms: C_25  and  C_41
    9  A    between atoms: C_31  and  N_37
   10  A    between atoms: C_31  and  C_41
   11  A    between atoms: C_36  and  N_37
                            x       y       z     vdW  Elec       q    Type
                         _______ _______ _______ _____ _____    ______ ____

>  <TORSDO>
F 11

$$$$
=
 OpenBabel11042417053D

 44 50  0  0  1  0  0  0  0  0999 V2000
  193.0280  175.1380  145.4310 C   0  0  0  0  0  0  0  0  0  0  0  0
  190.1860  176.5400  147.3190 S   0  0  0  0  0  0  0  0  0  0  0  0
  190.9560  173.4550  143.4160 C   0  0  2  0  0  3  0  0  0  0  0  0
  190.1030  173.1880  142.1450 C   0  0  2  0  0  0  0  0  0  0  0  0
  189.0850  174.2240  141.6740 C   0  0  1  0  0  3  0  0  0  0  0  0
  193.5820  174.5030  143.2280 F   0  0  0  0  0  0  0  0  0  0  0  0
  194.9900  173.9670  144.8850 F   0  0  0  0  0  0  0  0  0  0  0  0
  191.6980  176.2800  146.6610 C   0  0  0  0  0  0  0  0  0  0  0  0
  193.6540  174.0980  144.5490 C   0  0  0  0  0  0  0  0  0  0  0  0
  188.6210  172.9180  142.3130 C   0  0  0  0  0  2  0  0  0  0  0  0
  190.7640  172.4990  140.9530 C   0  0  0  0  0  2  0  0  0  0  0  0
  192.9210  176.7650  146.9110 N   0  0  0  0  0  0  0  0  0  0  0  0
  189.4600  175.3140  146.3650 C   0  0  0  0  0  3  0  0  0  0  0  0
  193.7430  176.0590  146.1370 N   0  0  0  0  0  2  0  0  0  0  0  0
  191.9480  172.3170  143.7210 C   0  0  2  0  0  3  0  0  0  0  0  0
  191.6970  175.2960  145.7640 C   0  0  0  0  0  0  0  0  0  0  0  0
  190.7270  170.1710  141.8570 C   0  0  0  0  0  1  0  0  0  0  0  0
  192.9830  172.7350  144.7760 C   0  0  0  0  0  2  0  0  0  0  0  0
  190.4410  174.7220  145.5540 C   0  0  0  0  0  0  0  0  0  0  0  0
  190.1290  173.7160  144.5890 N   0  0  0  0  0  2  0  0  0  0  0  0
  192.6290  171.7710  142.4500 C   0  0  2  0  0  3  0  0  0  0  0  0
  191.6180  171.3160  141.3870 C   0  0  2  0  0  3  0  0  0  0  0  0
  188.8810  175.3910  142.6290 C   0  0  0  0  0  2  0  0  0  0  0  0
  187.8510  176.3710  142.0840 C   0  0  0  0  0  2  0  0  0  0  0  0
  186.4860  176.1800  142.7340 C   0  0  0  0  0  2  0  0  0  0  0  0
  186.1170  177.5830  146.2360 C   0  0  0  0  0  0  0  0  0  0  0  0
  186.2710  177.1420  143.8560 C   0  0  0  0  0  0  0  0  0  0  0  0
  185.8650  179.3960  144.6500 C   0  0  0  0  0  3  0  0  0  0  0  0
  186.0460  178.4970  143.5960 C   0  0  0  0  0  3  0  0  0  0  0  0
  185.7130  179.8260  146.9840 F   0  0  0  0  0  0  0  0  0  0  0  0
  186.1430  177.0730  147.6400 C   0  0  0  0  0  1  0  0  0  0  0  0
  186.3120  176.6890  145.1770 C   0  0  0  0  0  3  0  0  0  0  0  0
  185.8990  178.9420  145.9720 C   0  0  0  0  0  0  0  0  0  0  0  0
  193.7430  170.7440  142.7050 C   0  0  0  0  0  2  0  0  0  0  0  0
  195.0050  171.0000  141.8920 C   0  0  0  0  0  2  0  0  0  0  0  0
  195.8010  172.0310  142.5340 N   0  0  0  0  0  2  0  0  0  0  0  0
  197.0250  171.3980  142.9880 C   0  0  0  0  0  2  0  0  0  0  0  0
  197.0770  171.4380  144.5080 C   0  0  0  0  0  2  0  0  0  0  0  0
  196.7480  170.1490  146.5050 O   0  0  0  0  0  0  0  0  0  0  0  0
  195.3940  170.2100  146.1300 C   0  0  1  0  0  3  0  0  0  0  0  0
  196.8550  168.9590  144.5420 O   0  0  0  0  0  1  0  0  0  0  0  0
  196.4920  170.1760  145.1220 C   0  0  1  0  0  0  0  0  0  0  0  0
  194.7450  168.5080  147.8080 C   0  0  0  0  0  1  0  0  0  0  0  0
  194.7530  168.8490  146.3340 C   0  0  0  0  0  2  0  0  0  0  0  0
  1 16  2  0  0  0  0
  1 14  1  0  0  0  0
  3 15  1  0  0  0  0
  3 20  1  1  0  0  0
  4 11  1  6  0  0  0
  4 10  1  0  0  0  0
  4  3  1  0  0  0  0
  5  4  1  0  0  0  0
  5 10  1  0  0  0  0
  5 23  1  1  0  0  0
  6  9  1  0  0  0  0
  8 12  2  0  0  0  0
  8  2  1  0  0  0  0
  9 18  1  0  0  0  0
  9  7  1  0  0  0  0
  9  1  1  0  0  0  0
 11 22  1  0  0  0  0
 13  2  1  0  0  0  0
 14 12  1  0  0  0  0
 15 18  1  1  0  0  0
 16  8  1  0  0  0  0
 19 16  1  0  0  0  0
 19 13  2  0  0  0  0
 20 19  1  0  0  0  0
 21 34  1  1  0  0  0
 21 15  1  0  0  0  0
 22 17  1  1  0  0  0
 22 21  1  0  0  0  0
 24 23  1  0  0  0  0
 24 25  1  0  0  0  0
 25 27  1  0  0  0  0
 26 31  1  0  0  0  0
 27 32  1  0  0  0  0
 28 33  2  0  0  0  0
 29 27  2  0  0  0  0
 29 28  1  0  0  0  0
 32 26  2  0  0  0  0
 33 26  1  0  0  0  0
 33 30  1  0  0  0  0
 35 36  1  0  0  0  0
 35 34  1  0  0  0  0
 36 37  1  0  0  0  0
 37 38  1  0  0  0  0
 38 42  1  0  0  0  0
 40 44  1  6  0  0  0
 40 39  1  0  0  0  0
 42 41  1  6  0  0  0
 42 40  1  0  0  0  0
 42 39  1  0  0  0  0
 44 43  1  0  0  0  0
M  END
>  <MODEL>
8

>  <REMARK>
 VINA RESULT:      -6.8      4.301      9.199
  Name = 
  11 active torsions:
  status: ('A' for Active; 'I' for Inactive)
    1  A    between atoms: C_3  and  C_39
    2  A    between atoms: C_6  and  C_38
    3  A    between atoms: C_7  and  C_12
    4  A    between atoms: C_7  and  C_13
    5  A    between atoms: C_8  and  C_36
    6  A    between atoms: C_8  and  C_40
    7  A    between atoms: C_13  and  C_39
    8  A    between atoms: C_25  and  C_41
    9  A    between atoms: C_31  and  N_37
   10  A    between atoms: C_31  and  C_41
   11  A    between atoms: C_36  and  N_37
                            x       y       z     vdW  Elec       q    Type
                         _______ _______ _______ _____ _____    ______ ____

>  <TORSDO>
F 11

$$$$
=
 OpenBabel11042417053D

 44 50  0  0  1  0  0  0  0  0999 V2000
  192.8620  175.4040  144.8200 C   0  0  0  0  0  0  0  0  0  0  0  0
  190.4340  175.3960  147.5970 S   0  0  0  0  0  0  0  0  0  0  0  0
  190.6430  173.9630  142.7760 C   0  0  2  0  0  3  0  0  0  0  0  0
  189.5380  173.8960  141.6850 C   0  0  2  0  0  0  0  0  0  0  0  0
  188.2710  174.7370  141.8240 C   0  0  1  0  0  3  0  0  0  0  0  0
  192.9060  175.6400  142.4740 F   0  0  0  0  0  0  0  0  0  0  0  0
  194.7750  174.9910  143.5210 F   0  0  0  0  0  0  0  0  0  0  0  0
  191.7360  175.7390  146.6110 C   0  0  0  0  0  0  0  0  0  0  0  0
  193.3960  174.8790  143.5200 C   0  0  0  0  0  0  0  0  0  0  0  0
  188.2230  173.2250  142.0270 C   0  0  0  0  0  2  0  0  0  0  0  0
  189.9630  173.7980  140.2210 C   0  0  0  0  0  2  0  0  0  0  0  0
  192.8810  176.4130  146.7780 N   0  0  0  0  0  0  0  0  0  0  0  0
  189.6970  174.3840  146.4260 C   0  0  0  0  0  3  0  0  0  0  0  0
  193.5740  176.2110  145.6580 N   0  0  0  0  0  2  0  0  0  0  0  0
  191.8580  173.0730  142.4530 C   0  0  2  0  0  3  0  0  0  0  0  0
  191.6620  175.1130  145.4390 C   0  0  0  0  0  0  0  0  0  0  0  0
  190.5630  171.3730  140.2160 C   0  0  0  0  0  1  0  0  0  0  0  0
  193.0510  173.3910  143.3670 C   0  0  0  0  0  2  0  0  0  0  0  0
  190.5120  174.3370  145.2830 C   0  0  0  0  0  0  0  0  0  0  0  0
  190.1270  173.6330  144.1010 N   0  0  0  0  0  2  0  0  0  0  0  0
  192.2560  173.1350  140.9650 C   0  0  2  0  0  3  0  0  0  0  0  0
  191.0890  172.7920  140.0270 C   0  0  2  0  0  3  0  0  0  0  0  0
  188.1360  175.4610  143.1550 C   0  0  0  0  0  2  0  0  0  0  0  0
  188.5920  176.9090  143.0390 C   0  0  0  0  0  2  0  0  0  0  0  0
  188.8370  177.5380  144.4050 C   0  0  0  0  0  2  0  0  0  0  0  0
  185.2890  178.5890  145.2230 C   0  0  0  0  0  0  0  0  0  0  0  0
  187.5620  177.7460  145.1530 C   0  0  0  0  0  0  0  0  0  0  0  0
  186.2210  177.4610  147.1520 C   0  0  0  0  0  3  0  0  0  0  0  0
  187.4240  177.2810  146.4650 C   0  0  0  0  0  3  0  0  0  0  0  0
  183.9940  178.2890  147.2200 F   0  0  0  0  0  0  0  0  0  0  0  0
  184.1630  179.3040  144.5480 C   0  0  0  0  0  1  0  0  0  0  0  0
  186.4910  178.3940  144.5330 C   0  0  0  0  0  3  0  0  0  0  0  0
  185.1510  178.1160  146.5350 C   0  0  0  0  0  0  0  0  0  0  0  0
  193.5540  172.3930  140.6130 C   0  0  0  0  0  2  0  0  0  0  0  0
  194.4200  173.1290  139.5980 C   0  0  0  0  0  2  0  0  0  0  0  0
  194.3430  174.5600  139.8350 N   0  0  0  0  0  2  0  0  0  0  0  0
  194.2760  175.1990  138.5340 C   0  0  0  0  0  2  0  0  0  0  0  0
  193.8270  174.1810  137.4970 C   0  0  0  0  0  2  0  0  0  0  0  0
  192.4390  173.8870  135.5620 O   0  0  0  0  0  0  0  0  0  0  0  0
  191.4030  173.8330  136.5120 C   0  0  1  0  0  3  0  0  0  0  0  0
  192.5810  176.0280  136.3870 O   0  0  0  0  0  1  0  0  0  0  0  0
  192.6180  174.6710  136.7160 C   0  0  1  0  0  0  0  0  0  0  0  0
  188.9540  174.1580  136.6870 C   0  0  0  0  0  1  0  0  0  0  0  0
  190.2180  174.6410  136.0130 C   0  0  0  0  0  2  0  0  0  0  0  0
  1 16  2  0  0  0  0
  1 14  1  0  0  0  0
  3 20  1  1  0  0  0
  4 11  1  6  0  0  0
  4  5  1  0  0  0  0
  4 10  1  0  0  0  0
  4  3  1  0  0  0  0
  5 10  1  0  0  0  0
  5 23  1  1  0  0  0
  6  9  1  0  0  0  0
  8 12  2  0  0  0  0
  8  2  1  0  0  0  0
  9  7  1  0  0  0  0
  9  1  1  0  0  0  0
 13  2  1  0  0  0  0
 14 12  1  0  0  0  0
 15  3  1  0  0  0  0
 15 18  1  1  0  0  0
 16  8  1  0  0  0  0
 18  9  1  0  0  0  0
 19 16  1  0  0  0  0
 19 13  2  0  0  0  0
 20 19  1  0  0  0  0
 21 34  1  1  0  0  0
 21 15  1  0  0  0  0
 22 17  1  1  0  0  0
 22 11  1  0  0  0  0
 22 21  1  0  0  0  0
 24 23  1  0  0  0  0
 24 25  1  0  0  0  0
 25 27  1  0  0  0  0
 26 33  1  0  0  0  0
 27 29  2  0  0  0  0
 29 28  1  0  0  0  0
 31 26  1  0  0  0  0
 32 27  1  0  0  0  0
 32 26  2  0  0  0  0
 33 28  2  0  0  0  0
 33 30  1  0  0  0  0
 35 36  1  0  0  0  0
 35 34  1  0  0  0  0
 37 36  1  0  0  0  0
 38 37  1  0  0  0  0
 39 40  1  0  0  0  0
 39 42  1  0  0  0  0
 40 44  1  6  0  0  0
 40 42  1  0  0  0  0
 42 41  1  6  0  0  0
 42 38  1  0  0  0  0
 44 43  1  0  0  0  0
M  END
>  <MODEL>
9

>  <REMARK>
 VINA RESULT:      -6.7      3.969      8.435
  Name = 
  11 active torsions:
  status: ('A' for Active; 'I' for Inactive)
    1  A    between atoms: C_3  and  C_39
    2  A    between atoms: C_6  and  C_38
    3  A    between atoms: C_7  and  C_12
    4  A    between atoms: C_7  and  C_13
    5  A    between atoms: C_8  and  C_36
    6  A    between atoms: C_8  and  C_40
    7  A    between atoms: C_13  and  C_39
    8  A    between atoms: C_25  and  C_41
    9  A    between atoms: C_31  and  N_37
   10  A    between atoms: C_31  and  C_41
   11  A    between atoms: C_36  and  N_37
                            x       y       z     vdW  Elec       q    Type
                         _______ _______ _______ _____ _____    ______ ____

>  <TORSDO>
F 11

$$$$
