=
 OpenBabel11042418293D

 30 33  0  0  0  0  0  0  0  0999 V2000
  189.9800  175.6660  145.1940 C   0  0  0  0  0  3  0  0  0  0  0  0
  188.2510  175.6480  143.4880 C   0  0  0  0  0  0  0  0  0  0  0  0
  188.8480  174.9010  141.1860 N   0  0  0  0  0  2  0  0  0  0  0  0
  190.9140  175.1660  144.2780 C   0  0  0  0  0  0  0  0  0  0  0  0
  189.1900  175.1710  142.5520 C   0  0  0  0  0  0  0  0  0  0  0  0
  187.7470  175.2320  139.1740 O   0  0  0  0  0  0  0  0  0  0  0  0
  186.8150  175.8020  143.1020 C   0  0  0  0  0  2  0  0  0  0  0  0
  186.6640  176.8510  142.0550 C   0  0  0  0  0  3  0  0  0  0  0  0
  190.5020  174.9190  142.9610 C   0  0  0  0  0  3  0  0  0  0  0  0
  187.1230  176.7030  140.8510 N   0  0  0  0  0  0  0  0  0  0  0  0
  187.8760  175.5780  140.3760 C   0  0  0  0  0  0  0  0  0  0  0  0
  188.6590  175.9050  144.8130 C   0  0  0  0  0  0  0  0  0  0  0  0
  196.7440  172.9300  146.0410 C   0  0  0  0  0  3  0  0  0  0  0  0
  192.7790  173.5910  144.8600 C   0  0  0  0  0  3  0  0  0  0  0  0
  194.9520  174.4560  145.4780 C   0  0  0  0  0  0  0  0  0  0  0  0
  194.5690  172.0540  145.4230 C   0  0  0  0  0  3  0  0  0  0  0  0
  196.2740  174.2360  145.8720 C   0  0  0  0  0  3  0  0  0  0  0  0
  193.2030  175.9650  144.9290 C   0  0  0  0  0  3  0  0  0  0  0  0
  194.0960  173.3580  145.2530 C   0  0  0  0  0  0  0  0  0  0  0  0
  195.8950  171.8410  145.8170 C   0  0  0  0  0  3  0  0  0  0  0  0
  192.3140  174.9040  144.6920 C   0  0  0  0  0  0  0  0  0  0  0  0
  194.4870  175.7230  145.3120 N   0  0  0  0  0  0  0  0  0  0  0  0
  186.9630  176.8160  146.6290 C   0  0  0  0  0  0  0  0  0  0  0  0
  187.7380  176.4020  145.8030 C   0  0  0  0  0  0  0  0  0  0  0  0
  186.0160  177.3170  147.6290 C   0  0  0  0  0  2  0  0  0  0  0  0
  185.4530  178.6320  147.1980 C   0  0  0  0  0  0  0  0  0  0  0  0
  185.9610  179.6740  147.5830 O   0  0  0  0  0  0  0  0  0  0  0  0
  184.2630  178.6640  146.2950 C   0  0  0  0  0  2  0  0  0  0  0  0
  185.3630  179.6470  144.3090 C   0  0  0  0  0  1  0  0  0  0  0  0
  184.6830  178.4110  144.8610 C   0  0  0  0  0  2  0  0  0  0  0  0
  2 12  2  0  0  0  0
  3  5  1  0  0  0  0
  4 21  1  0  0  0  0
  4  1  2  0  0  0  0
  5  9  2  0  0  0  0
  5  2  1  0  0  0  0
  6 11  2  0  0  0  0
  7  2  1  0  0  0  0
  8  7  1  0  0  0  0
  9  4  1  0  0  0  0
 10  8  2  0  0  0  0
 11 10  1  0  0  0  0
 11  3  1  0  0  0  0
 12  1  1  0  0  0  0
 12 24  1  0  0  0  0
 14 19  1  0  0  0  0
 15 17  2  0  0  0  0
 16 20  1  0  0  0  0
 17 13  1  0  0  0  0
 18 22  2  0  0  0  0
 19 16  2  0  0  0  0
 19 15  1  0  0  0  0
 20 13  2  0  0  0  0
 21 14  2  0  0  0  0
 21 18  1  0  0  0  0
 22 15  1  0  0  0  0
 23 25  1  0  0  0  0
 24 23  3  0  0  0  0
 26 27  2  0  0  0  0
 26 25  1  0  0  0  0
 28 26  1  0  0  0  0
 29 30  1  0  0  0  0
 30 28  1  0  0  0  0
M  END
>  <MODEL>
1

>  <REMARK>
 VINA RESULT:      -7.8      0.000      0.000
  Name = 
  6 active torsions:
  status: ('A' for Active; 'I' for Inactive)
    1  A    between atoms: C_2  and  C_27
    2  A    between atoms: C_2  and  C_28
    3  A    between atoms: C_9  and  C_18
    4  A    between atoms: C_9  and  C_27
    5  A    between atoms: C_10  and  C_21
    6  A    between atoms: C_20  and  C_29
                            x       y       z     vdW  Elec       q    Type
                         _______ _______ _______ _____ _____    ______ ____

>  <TORSDO>
F 6

$$$$
=
 OpenBabel11042418293D

 30 33  0  0  0  0  0  0  0  0999 V2000
  189.9310  175.8660  143.3000 C   0  0  0  0  0  3  0  0  0  0  0  0
  190.7040  174.3810  141.5390 C   0  0  0  0  0  0  0  0  0  0  0  0
  189.0140  173.2690  140.0850 N   0  0  0  0  0  2  0  0  0  0  0  0
  188.6000  175.6570  142.9170 C   0  0  0  0  0  0  0  0  0  0  0  0
  189.3660  174.1410  141.1660 C   0  0  0  0  0  0  0  0  0  0  0  0
  189.2140  171.4160  138.7070 O   0  0  0  0  0  0  0  0  0  0  0  0
  191.8250  173.7930  140.7450 C   0  0  0  0  0  2  0  0  0  0  0  0
  191.8120  172.3070  140.8410 C   0  0  0  0  0  3  0  0  0  0  0  0
  188.3340  174.7940  141.8450 C   0  0  0  0  0  3  0  0  0  0  0  0
  190.8690  171.5850  140.3190 N   0  0  0  0  0  0  0  0  0  0  0  0
  189.7040  172.0870  139.6510 C   0  0  0  0  0  0  0  0  0  0  0  0
  190.9800  175.2420  142.6220 C   0  0  0  0  0  0  0  0  0  0  0  0
  184.4240  178.5270  146.9690 C   0  0  0  0  0  3  0  0  0  0  0  0
  187.5980  176.6240  145.0040 C   0  0  0  0  0  3  0  0  0  0  0  0
  185.3850  177.5990  144.9510 C   0  0  0  0  0  0  0  0  0  0  0  0
  186.6430  177.5510  147.0320 C   0  0  0  0  0  3  0  0  0  0  0  0
  184.3260  178.2340  145.6050 C   0  0  0  0  0  3  0  0  0  0  0  0
  186.3140  176.6920  142.9630 C   0  0  0  0  0  3  0  0  0  0  0  0
  186.5490  177.2570  145.6690 C   0  0  0  0  0  0  0  0  0  0  0  0
  185.5790  178.1870  147.6810 C   0  0  0  0  0  3  0  0  0  0  0  0
  187.4930  176.3320  143.6360 C   0  0  0  0  0  0  0  0  0  0  0  0
  185.2980  177.3100  143.6250 N   0  0  0  0  0  0  0  0  0  0  0  0
  193.4580  175.7350  143.4090 C   0  0  0  0  0  0  0  0  0  0  0  0
  192.3290  175.5100  143.0480 C   0  0  0  0  0  0  0  0  0  0  0  0
  194.8270  176.0080  143.8540 C   0  0  0  0  0  2  0  0  0  0  0  0
  194.8180  176.6240  145.2150 C   0  0  0  0  0  0  0  0  0  0  0  0
  195.1890  177.7770  145.3710 O   0  0  0  0  0  0  0  0  0  0  0  0
  194.3530  175.8200  146.3850 C   0  0  0  0  0  2  0  0  0  0  0  0
  191.9900  175.2400  146.8320 C   0  0  0  0  0  1  0  0  0  0  0  0
  193.0240  176.3440  146.8910 C   0  0  0  0  0  2  0  0  0  0  0  0
  2 12  1  0  0  0  0
  3  5  1  0  0  0  0
  4  1  1  0  0  0  0
  4 21  1  0  0  0  0
  5  2  2  0  0  0  0
  5  9  1  0  0  0  0
  6 11  2  0  0  0  0
  7  8  1  0  0  0  0
  7  2  1  0  0  0  0
  9  4  2  0  0  0  0
 10  8  2  0  0  0  0
 11  3  1  0  0  0  0
 11 10  1  0  0  0  0
 12 24  1  0  0  0  0
 12  1  2  0  0  0  0
 13 20  1  0  0  0  0
 14 19  1  0  0  0  0
 15 17  1  0  0  0  0
 15 19  2  0  0  0  0
 16 20  2  0  0  0  0
 17 13  2  0  0  0  0
 18 22  2  0  0  0  0
 18 21  1  0  0  0  0
 19 16  1  0  0  0  0
 21 14  2  0  0  0  0
 22 15  1  0  0  0  0
 23 25  1  0  0  0  0
 24 23  3  0  0  0  0
 25 26  1  0  0  0  0
 26 27  2  0  0  0  0
 26 28  1  0  0  0  0
 28 30  1  0  0  0  0
 29 30  1  0  0  0  0
M  END
>  <MODEL>
2

>  <REMARK>
 VINA RESULT:      -7.6      3.062      7.731
  Name = 
  6 active torsions:
  status: ('A' for Active; 'I' for Inactive)
    1  A    between atoms: C_2  and  C_27
    2  A    between atoms: C_2  and  C_28
    3  A    between atoms: C_9  and  C_18
    4  A    between atoms: C_9  and  C_27
    5  A    between atoms: C_10  and  C_21
    6  A    between atoms: C_20  and  C_29
                            x       y       z     vdW  Elec       q    Type
                         _______ _______ _______ _____ _____    ______ ____

>  <TORSDO>
F 6

$$$$
=
 OpenBabel11042418293D

 30 33  0  0  0  0  0  0  0  0999 V2000
  190.3370  175.1990  143.8960 C   0  0  0  0  0  3  0  0  0  0  0  0
  190.5690  174.2760  141.6610 C   0  0  0  0  0  0  0  0  0  0  0  0
  188.5730  174.2350  140.1700 N   0  0  0  0  0  2  0  0  0  0  0  0
  188.9900  175.4980  143.6520 C   0  0  0  0  0  0  0  0  0  0  0  0
  189.2080  174.5470  141.4170 C   0  0  0  0  0  0  0  0  0  0  0  0
  188.1640  172.9990  138.2520 O   0  0  0  0  0  0  0  0  0  0  0  0
  191.4350  173.7290  140.5730 C   0  0  0  0  0  2  0  0  0  0  0  0
  190.9860  172.3630  140.1830 C   0  0  0  0  0  3  0  0  0  0  0  0
  188.4410  175.1690  142.4050 C   0  0  0  0  0  3  0  0  0  0  0  0
  189.8530  172.1470  139.5900 N   0  0  0  0  0  0  0  0  0  0  0  0
  188.8650  173.1420  139.2860 C   0  0  0  0  0  0  0  0  0  0  0  0
  191.1270  174.5970  142.9160 C   0  0  0  0  0  0  0  0  0  0  0  0
  184.6390  178.5580  147.3680 C   0  0  0  0  0  3  0  0  0  0  0  0
  186.9280  176.7350  144.3690 C   0  0  0  0  0  3  0  0  0  0  0  0
  186.6300  177.3610  146.6860 C   0  0  0  0  0  0  0  0  0  0  0  0
  184.9300  177.9340  145.0430 C   0  0  0  0  0  3  0  0  0  0  0  0
  185.8670  177.9690  147.6870 C   0  0  0  0  0  3  0  0  0  0  0  0
  188.5880  176.1900  146.0320 C   0  0  0  0  0  3  0  0  0  0  0  0
  186.1580  177.3450  145.3570 C   0  0  0  0  0  0  0  0  0  0  0  0
  184.1710  178.5400  146.0500 C   0  0  0  0  0  3  0  0  0  0  0  0
  188.1600  176.1470  144.6950 C   0  0  0  0  0  0  0  0  0  0  0  0
  187.8250  176.7870  146.9870 N   0  0  0  0  0  0  0  0  0  0  0  0
  193.6690  174.1130  143.4720 C   0  0  0  0  0  0  0  0  0  0  0  0
  192.5110  174.3320  143.2160 C   0  0  0  0  0  0  0  0  0  0  0  0
  195.0750  173.8500  143.7880 C   0  0  0  0  0  2  0  0  0  0  0  0
  195.6400  174.9630  144.6100 C   0  0  0  0  0  0  0  0  0  0  0  0
  196.4560  175.7320  144.1260 O   0  0  0  0  0  0  0  0  0  0  0  0
  195.2010  175.1290  146.0280 C   0  0  0  0  0  2  0  0  0  0  0  0
  193.0070  176.1310  146.5810 C   0  0  0  0  0  1  0  0  0  0  0  0
  194.4410  176.4300  146.1960 C   0  0  0  0  0  2  0  0  0  0  0  0
  2 12  1  0  0  0  0
  3  5  1  0  0  0  0
  4  1  1  0  0  0  0
  4 21  1  0  0  0  0
  5  2  2  0  0  0  0
  5  9  1  0  0  0  0
  6 11  2  0  0  0  0
  7  2  1  0  0  0  0
  8  7  1  0  0  0  0
  9  4  2  0  0  0  0
 10  8  2  0  0  0  0
 11 10  1  0  0  0  0
 11  3  1  0  0  0  0
 12 24  1  0  0  0  0
 12  1  2  0  0  0  0
 13 17  1  0  0  0  0
 14 21  2  0  0  0  0
 14 19  1  0  0  0  0
 15 22  1  0  0  0  0
 15 17  2  0  0  0  0
 16 19  2  0  0  0  0
 16 20  1  0  0  0  0
 18 22  2  0  0  0  0
 19 15  1  0  0  0  0
 20 13  2  0  0  0  0
 21 18  1  0  0  0  0
 23 25  1  0  0  0  0
 24 23  3  0  0  0  0
 25 26  1  0  0  0  0
 26 28  1  0  0  0  0
 27 26  2  0  0  0  0
 28 30  1  0  0  0  0
 30 29  1  0  0  0  0
M  END
>  <MODEL>
3

>  <REMARK>
 VINA RESULT:      -7.6      2.946      7.826
  Name = 
  6 active torsions:
  status: ('A' for Active; 'I' for Inactive)
    1  A    between atoms: C_2  and  C_27
    2  A    between atoms: C_2  and  C_28
    3  A    between atoms: C_9  and  C_18
    4  A    between atoms: C_9  and  C_27
    5  A    between atoms: C_10  and  C_21
    6  A    between atoms: C_20  and  C_29
                            x       y       z     vdW  Elec       q    Type
                         _______ _______ _______ _____ _____    ______ ____

>  <TORSDO>
F 6

$$$$
=
 OpenBabel11042418293D

 30 33  0  0  0  0  0  0  0  0999 V2000
  189.6800  175.1640  145.1560 C   0  0  0  0  0  3  0  0  0  0  0  0
  187.9970  175.7580  143.5070 C   0  0  0  0  0  0  0  0  0  0  0  0
  188.3880  175.1400  141.1240 N   0  0  0  0  0  2  0  0  0  0  0  0
  190.4590  174.5510  144.1670 C   0  0  0  0  0  0  0  0  0  0  0  0
  188.7880  175.1680  142.5000 C   0  0  0  0  0  0  0  0  0  0  0  0
  187.4000  175.9480  139.1890 O   0  0  0  0  0  0  0  0  0  0  0  0
  186.6450  176.3020  143.1800 C   0  0  0  0  0  2  0  0  0  0  0  0
  186.7570  177.4620  142.2530 C   0  0  0  0  0  3  0  0  0  0  0  0
  189.9970  174.5570  142.8440 C   0  0  0  0  0  3  0  0  0  0  0  0
  187.1640  177.3370  141.0280 N   0  0  0  0  0  0  0  0  0  0  0  0
  187.6130  176.1200  140.4170 C   0  0  0  0  0  0  0  0  0  0  0  0
  188.4590  175.7620  144.8400 C   0  0  0  0  0  0  0  0  0  0  0  0
  196.4650  172.7980  145.8870 C   0  0  0  0  0  3  0  0  0  0  0  0
  192.8450  174.6800  144.9330 C   0  0  0  0  0  3  0  0  0  0  0  0
  194.1630  172.6640  145.1500 C   0  0  0  0  0  0  0  0  0  0  0  0
  195.1510  174.8240  145.6720 C   0  0  0  0  0  3  0  0  0  0  0  0
  195.3700  172.0350  145.4680 C   0  0  0  0  0  3  0  0  0  0  0  0
  191.9070  172.5160  144.4250 C   0  0  0  0  0  3  0  0  0  0  0  0
  194.0540  174.0660  145.2530 C   0  0  0  0  0  0  0  0  0  0  0  0
  196.3560  174.1890  145.9890 C   0  0  0  0  0  3  0  0  0  0  0  0
  191.7500  173.9090  144.5130 C   0  0  0  0  0  0  0  0  0  0  0  0
  193.0940  171.9300  144.7410 N   0  0  0  0  0  0  0  0  0  0  0  0
  187.0480  176.8650  146.7880 C   0  0  0  0  0  0  0  0  0  0  0  0
  187.6910  176.3600  145.9020 C   0  0  0  0  0  0  0  0  0  0  0  0
  186.2650  177.4840  147.8610 C   0  0  0  0  0  2  0  0  0  0  0  0
  185.5970  178.7250  147.3670 C   0  0  0  0  0  0  0  0  0  0  0  0
  185.9460  179.8190  147.7840 O   0  0  0  0  0  0  0  0  0  0  0  0
  184.4980  178.6210  146.3600 C   0  0  0  0  0  2  0  0  0  0  0  0
  183.9000  178.9290  143.9790 C   0  0  0  0  0  1  0  0  0  0  0  0
  184.9240  179.2490  145.0480 C   0  0  0  0  0  2  0  0  0  0  0  0
  2 12  2  0  0  0  0
  3  5  1  0  0  0  0
  4 21  1  0  0  0  0
  4  1  2  0  0  0  0
  5  9  2  0  0  0  0
  5  2  1  0  0  0  0
  6 11  2  0  0  0  0
  7  2  1  0  0  0  0
  8  7  1  0  0  0  0
  9  4  1  0  0  0  0
 10  8  2  0  0  0  0
 11 10  1  0  0  0  0
 11  3  1  0  0  0  0
 12  1  1  0  0  0  0
 12 24  1  0  0  0  0
 13 20  1  0  0  0  0
 14 19  1  0  0  0  0
 15 19  2  0  0  0  0
 15 17  1  0  0  0  0
 16 20  2  0  0  0  0
 17 13  2  0  0  0  0
 18 21  1  0  0  0  0
 18 22  2  0  0  0  0
 19 16  1  0  0  0  0
 21 14  2  0  0  0  0
 22 15  1  0  0  0  0
 23 25  1  0  0  0  0
 24 23  3  0  0  0  0
 26 27  2  0  0  0  0
 26 25  1  0  0  0  0
 28 26  1  0  0  0  0
 29 30  1  0  0  0  0
 30 28  1  0  0  0  0
M  END
>  <MODEL>
4

>  <REMARK>
 VINA RESULT:      -7.6      0.985      1.474
  Name = 
  6 active torsions:
  status: ('A' for Active; 'I' for Inactive)
    1  A    between atoms: C_2  and  C_27
    2  A    between atoms: C_2  and  C_28
    3  A    between atoms: C_9  and  C_18
    4  A    between atoms: C_9  and  C_27
    5  A    between atoms: C_10  and  C_21
    6  A    between atoms: C_20  and  C_29
                            x       y       z     vdW  Elec       q    Type
                         _______ _______ _______ _____ _____    ______ ____

>  <TORSDO>
F 6

$$$$
=
 OpenBabel11042418293D

 30 33  0  0  0  0  0  0  0  0999 V2000
  188.2210  174.7370  142.0640 C   0  0  0  0  0  3  0  0  0  0  0  0
  188.9210  175.7020  144.1800 C   0  0  0  0  0  0  0  0  0  0  0  0
  191.0270  174.8830  145.2300 N   0  0  0  0  0  2  0  0  0  0  0  0
  189.3590  173.9210  142.0380 C   0  0  0  0  0  0  0  0  0  0  0  0
  190.0550  174.8650  144.1770 C   0  0  0  0  0  0  0  0  0  0  0  0
  191.7820  175.0730  147.4130 O   0  0  0  0  0  0  0  0  0  0  0  0
  188.7400  176.7220  145.2570 C   0  0  0  0  0  2  0  0  0  0  0  0
  188.5540  176.0610  146.5790 C   0  0  0  0  0  3  0  0  0  0  0  0
  190.2700  174.0010  143.1010 C   0  0  0  0  0  3  0  0  0  0  0  0
  189.5020  175.3980  147.1640 N   0  0  0  0  0  0  0  0  0  0  0  0
  190.8070  175.1510  146.6230 C   0  0  0  0  0  0  0  0  0  0  0  0
  187.9960  175.6230  143.1180 C   0  0  0  0  0  0  0  0  0  0  0  0
  189.9460  170.6630  136.4580 C   0  0  0  0  0  3  0  0  0  0  0  0
  189.2550  173.3510  139.5970 C   0  0  0  0  0  3  0  0  0  0  0  0
  190.0530  171.2060  138.8150 C   0  0  0  0  0  0  0  0  0  0  0  0
  189.1430  172.8150  137.2340 C   0  0  0  0  0  3  0  0  0  0  0  0
  190.2840  170.3090  137.7690 C   0  0  0  0  0  3  0  0  0  0  0  0
  190.1640  171.7240  141.1280 C   0  0  0  0  0  3  0  0  0  0  0  0
  189.4790  172.4650  138.5440 C   0  0  0  0  0  0  0  0  0  0  0  0
  189.3770  171.9120  136.1910 C   0  0  0  0  0  3  0  0  0  0  0  0
  189.5960  172.9900  140.9090 C   0  0  0  0  0  0  0  0  0  0  0  0
  190.3790  170.8700  140.0910 N   0  0  0  0  0  0  0  0  0  0  0  0
  185.8330  177.1460  143.0540 C   0  0  0  0  0  0  0  0  0  0  0  0
  186.8180  176.4500  143.0810 C   0  0  0  0  0  0  0  0  0  0  0  0
  184.6380  177.9950  143.0260 C   0  0  0  0  0  2  0  0  0  0  0  0
  184.7130  179.0320  144.0980 C   0  0  0  0  0  0  0  0  0  0  0  0
  185.3780  180.0430  143.9320 O   0  0  0  0  0  0  0  0  0  0  0  0
  183.9700  178.8240  145.3780 C   0  0  0  0  0  2  0  0  0  0  0  0
  184.9990  176.9220  146.5800 C   0  0  0  0  0  1  0  0  0  0  0  0
  184.9280  178.4320  146.4860 C   0  0  0  0  0  2  0  0  0  0  0  0
  1 12  1  0  0  0  0
  2  7  1  0  0  0  0
  3 11  1  0  0  0  0
  4  1  2  0  0  0  0
  4  9  1  0  0  0  0
  5  2  1  0  0  0  0
  5  3  1  0  0  0  0
  7  8  1  0  0  0  0
  8 10  2  0  0  0  0
  9  5  2  0  0  0  0
 11 10  1  0  0  0  0
 11  6  2  0  0  0  0
 12  2  2  0  0  0  0
 13 17  1  0  0  0  0
 14 21  2  0  0  0  0
 15 22  1  0  0  0  0
 16 19  2  0  0  0  0
 17 15  2  0  0  0  0
 19 15  1  0  0  0  0
 19 14  1  0  0  0  0
 20 13  2  0  0  0  0
 20 16  1  0  0  0  0
 21 18  1  0  0  0  0
 21  4  1  0  0  0  0
 22 18  2  0  0  0  0
 23 24  3  0  0  0  0
 24 12  1  0  0  0  0
 25 23  1  0  0  0  0
 25 26  1  0  0  0  0
 26 28  1  0  0  0  0
 27 26  2  0  0  0  0
 28 30  1  0  0  0  0
 30 29  1  0  0  0  0
M  END
>  <MODEL>
5

>  <REMARK>
 VINA RESULT:      -7.6      3.455      6.233
  Name = 
  6 active torsions:
  status: ('A' for Active; 'I' for Inactive)
    1  A    between atoms: C_2  and  C_27
    2  A    between atoms: C_2  and  C_28
    3  A    between atoms: C_9  and  C_18
    4  A    between atoms: C_9  and  C_27
    5  A    between atoms: C_10  and  C_21
    6  A    between atoms: C_20  and  C_29
                            x       y       z     vdW  Elec       q    Type
                         _______ _______ _______ _____ _____    ______ ____

>  <TORSDO>
F 6

$$$$
=
 OpenBabel11042418293D

 30 33  0  0  0  0  0  0  0  0999 V2000
  188.6960  175.0680  143.6240 C   0  0  0  0  0  3  0  0  0  0  0  0
  190.0500  176.2780  145.2380 C   0  0  0  0  0  0  0  0  0  0  0  0
  192.5320  176.1690  145.0370 N   0  0  0  0  0  2  0  0  0  0  0  0
  189.8480  174.6320  142.9570 C   0  0  0  0  0  0  0  0  0  0  0  0
  191.2160  175.8210  144.5900 C   0  0  0  0  0  0  0  0  0  0  0  0
  194.1810  176.6580  146.5910 O   0  0  0  0  0  0  0  0  0  0  0  0
  190.1510  177.2360  146.3800 C   0  0  0  0  0  2  0  0  0  0  0  0
  190.8350  176.5990  147.5400 C   0  0  0  0  0  3  0  0  0  0  0  0
  191.1010  175.0210  143.4500 C   0  0  0  0  0  3  0  0  0  0  0  0
  192.0900  176.2730  147.5120 N   0  0  0  0  0  0  0  0  0  0  0  0
  192.9650  176.4100  146.3840 C   0  0  0  0  0  0  0  0  0  0  0  0
  188.7860  175.8850  144.7520 C   0  0  0  0  0  0  0  0  0  0  0  0
  190.0040  170.1310  138.2860 C   0  0  0  0  0  3  0  0  0  0  0  0
  190.3330  172.5000  141.7270 C   0  0  0  0  0  3  0  0  0  0  0  0
  189.5290  172.1900  139.4670 C   0  0  0  0  0  0  0  0  0  0  0  0
  190.8140  170.4330  140.5520 C   0  0  0  0  0  3  0  0  0  0  0  0
  189.4180  171.4010  138.3190 C   0  0  0  0  0  3  0  0  0  0  0  0
  189.0560  174.2150  140.6110 C   0  0  0  0  0  3  0  0  0  0  0  0
  190.2300  171.7020  140.5880 C   0  0  0  0  0  0  0  0  0  0  0  0
  190.6990  169.6470  139.4000 C   0  0  0  0  0  3  0  0  0  0  0  0
  189.7440  173.7730  141.7530 C   0  0  0  0  0  0  0  0  0  0  0  0
  188.9630  173.4260  139.5060 N   0  0  0  0  0  0  0  0  0  0  0  0
  186.5470  176.6850  145.9140 C   0  0  0  0  0  0  0  0  0  0  0  0
  187.5670  176.3180  145.3850 C   0  0  0  0  0  0  0  0  0  0  0  0
  185.3090  177.1380  146.5540 C   0  0  0  0  0  2  0  0  0  0  0  0
  185.1380  178.6100  146.3710 C   0  0  0  0  0  0  0  0  0  0  0  0
  185.5560  179.3880  147.2170 O   0  0  0  0  0  0  0  0  0  0  0  0
  184.4520  179.1280  145.1490 C   0  0  0  0  0  2  0  0  0  0  0  0
  185.8330  179.0000  143.1010 C   0  0  0  0  0  1  0  0  0  0  0  0
  185.4340  179.8760  144.2700 C   0  0  0  0  0  2  0  0  0  0  0  0
  1 12  1  0  0  0  0
  2  7  1  0  0  0  0
  3 11  1  0  0  0  0
  4  9  1  0  0  0  0
  4  1  2  0  0  0  0
  5  3  1  0  0  0  0
  5  2  1  0  0  0  0
  7  8  1  0  0  0  0
  9  5  2  0  0  0  0
 10  8  2  0  0  0  0
 11  6  2  0  0  0  0
 11 10  1  0  0  0  0
 12  2  2  0  0  0  0
 12 24  1  0  0  0  0
 13 17  2  0  0  0  0
 13 20  1  0  0  0  0
 14 21  1  0  0  0  0
 15 22  2  0  0  0  0
 15 19  1  0  0  0  0
 16 19  1  0  0  0  0
 17 15  1  0  0  0  0
 18 21  2  0  0  0  0
 19 14  2  0  0  0  0
 20 16  2  0  0  0  0
 21  4  1  0  0  0  0
 22 18  1  0  0  0  0
 23 25  1  0  0  0  0
 24 23  3  0  0  0  0
 26 25  1  0  0  0  0
 26 27  2  0  0  0  0
 28 26  1  0  0  0  0
 29 30  1  0  0  0  0
 30 28  1  0  0  0  0
M  END
>  <MODEL>
6

>  <REMARK>
 VINA RESULT:      -7.4      3.131      5.648
  Name = 
  6 active torsions:
  status: ('A' for Active; 'I' for Inactive)
    1  A    between atoms: C_2  and  C_27
    2  A    between atoms: C_2  and  C_28
    3  A    between atoms: C_9  and  C_18
    4  A    between atoms: C_9  and  C_27
    5  A    between atoms: C_10  and  C_21
    6  A    between atoms: C_20  and  C_29
                            x       y       z     vdW  Elec       q    Type
                         _______ _______ _______ _____ _____    ______ ____

>  <TORSDO>
F 6

$$$$
=
 OpenBabel11042418293D

 30 33  0  0  0  0  0  0  0  0999 V2000
  186.1790  176.6170  142.4060 C   0  0  0  0  0  3  0  0  0  0  0  0
  185.6010  178.0750  144.2610 C   0  0  0  0  0  0  0  0  0  0  0  0
  187.1050  178.1360  146.2470 N   0  0  0  0  0  2  0  0  0  0  0  0
  187.3440  176.2070  143.0670 C   0  0  0  0  0  0  0  0  0  0  0  0
  186.7570  177.6470  144.9460 C   0  0  0  0  0  0  0  0  0  0  0  0
  186.7080  178.8950  148.4010 O   0  0  0  0  0  0  0  0  0  0  0  0
  184.7340  179.1430  144.8430 C   0  0  0  0  0  2  0  0  0  0  0  0
  184.1020  178.6750  146.1080 C   0  0  0  0  0  3  0  0  0  0  0  0
  187.6210  176.7350  144.3350 C   0  0  0  0  0  3  0  0  0  0  0  0
  184.7890  178.4440  147.1830 N   0  0  0  0  0  0  0  0  0  0  0  0
  186.2160  178.5370  147.3010 C   0  0  0  0  0  0  0  0  0  0  0  0
  185.3120  177.5430  142.9870 C   0  0  0  0  0  0  0  0  0  0  0  0
  190.8390  172.1960  139.3530 C   0  0  0  0  0  3  0  0  0  0  0  0
  188.2070  174.9740  141.0590 C   0  0  0  0  0  3  0  0  0  0  0  0
  190.0140  173.3840  141.2940 C   0  0  0  0  0  0  0  0  0  0  0  0
  189.0270  173.7890  139.1080 C   0  0  0  0  0  3  0  0  0  0  0  0
  190.8920  172.4570  140.7260 C   0  0  0  0  0  3  0  0  0  0  0  0
  189.2150  174.5390  143.2070 C   0  0  0  0  0  3  0  0  0  0  0  0
  189.0770  174.0520  140.4790 C   0  0  0  0  0  0  0  0  0  0  0  0
  189.9090  172.8600  138.5450 C   0  0  0  0  0  3  0  0  0  0  0  0
  188.2650  175.2310  142.4380 C   0  0  0  0  0  0  0  0  0  0  0  0
  190.0590  173.6430  142.6280 N   0  0  0  0  0  0  0  0  0  0  0  0
  183.1600  178.2760  141.6330 C   0  0  0  0  0  0  0  0  0  0  0  0
  184.1390  177.9410  142.2530 C   0  0  0  0  0  0  0  0  0  0  0  0
  181.9730  178.6820  140.8750 C   0  0  0  0  0  2  0  0  0  0  0  0
  180.7780  178.7340  141.7690 C   0  0  0  0  0  0  0  0  0  0  0  0
  180.7980  179.4130  142.7850 O   0  0  0  0  0  0  0  0  0  0  0  0
  179.5580  177.9480  141.4160 C   0  0  0  0  0  2  0  0  0  0  0  0
  178.0650  177.0480  143.1710 C   0  0  0  0  0  1  0  0  0  0  0  0
  178.4240  178.2790  142.3660 C   0  0  0  0  0  2  0  0  0  0  0  0
  1 12  2  0  0  0  0
  1  4  1  0  0  0  0
  2  7  1  0  0  0  0
  2  5  2  0  0  0  0
  3 11  1  0  0  0  0
  4  9  2  0  0  0  0
  5  3  1  0  0  0  0
  7  8  1  0  0  0  0
  8 10  2  0  0  0  0
  9  5  1  0  0  0  0
 10 11  1  0  0  0  0
 11  6  2  0  0  0  0
 12  2  1  0  0  0  0
 13 17  1  0  0  0  0
 14 21  2  0  0  0  0
 15 22  1  0  0  0  0
 16 19  2  0  0  0  0
 17 15  2  0  0  0  0
 19 14  1  0  0  0  0
 19 15  1  0  0  0  0
 20 16  1  0  0  0  0
 20 13  2  0  0  0  0
 21  4  1  0  0  0  0
 21 18  1  0  0  0  0
 22 18  2  0  0  0  0
 23 24  3  0  0  0  0
 24 12  1  0  0  0  0
 25 23  1  0  0  0  0
 25 26  1  0  0  0  0
 26 27  2  0  0  0  0
 28 26  1  0  0  0  0
 28 30  1  0  0  0  0
 30 29  1  0  0  0  0
M  END
>  <MODEL>
7

>  <REMARK>
 VINA RESULT:      -7.4      4.038      6.542
  Name = 
  6 active torsions:
  status: ('A' for Active; 'I' for Inactive)
    1  A    between atoms: C_2  and  C_27
    2  A    between atoms: C_2  and  C_28
    3  A    between atoms: C_9  and  C_18
    4  A    between atoms: C_9  and  C_27
    5  A    between atoms: C_10  and  C_21
    6  A    between atoms: C_20  and  C_29
                            x       y       z     vdW  Elec       q    Type
                         _______ _______ _______ _____ _____    ______ ____

>  <TORSDO>
F 6

$$$$
=
 OpenBabel11042418293D

 30 33  0  0  0  0  0  0  0  0999 V2000
  189.7280  175.6270  142.8000 C   0  0  0  0  0  3  0  0  0  0  0  0
  192.0040  175.3160  143.5920 C   0  0  0  0  0  0  0  0  0  0  0  0
  192.7900  176.6660  145.5330 N   0  0  0  0  0  2  0  0  0  0  0  0
  189.4870  176.5700  143.8070 C   0  0  0  0  0  0  0  0  0  0  0  0
  191.7800  176.2850  144.5900 C   0  0  0  0  0  0  0  0  0  0  0  0
  194.9410  177.1250  146.2630 O   0  0  0  0  0  0  0  0  0  0  0  0
  193.2990  174.5720  143.5420 C   0  0  0  0  0  2  0  0  0  0  0  0
  194.4240  175.4980  143.2330 C   0  0  0  0  0  3  0  0  0  0  0  0
  190.5230  176.8860  144.6970 C   0  0  0  0  0  3  0  0  0  0  0  0
  194.8150  176.4160  144.0610 N   0  0  0  0  0  0  0  0  0  0  0  0
  194.2090  176.7140  145.3260 C   0  0  0  0  0  0  0  0  0  0  0  0
  190.9690  174.9980  142.6870 C   0  0  0  0  0  0  0  0  0  0  0  0
  183.6980  179.0360  145.3880 C   0  0  0  0  0  3  0  0  0  0  0  0
  187.4380  177.1660  145.1270 C   0  0  0  0  0  3  0  0  0  0  0  0
  185.6730  178.4690  144.1090 C   0  0  0  0  0  0  0  0  0  0  0  0
  185.4630  177.7290  146.4170 C   0  0  0  0  0  3  0  0  0  0  0  0
  184.4260  179.0930  144.1950 C   0  0  0  0  0  3  0  0  0  0  0  0
  187.6030  177.9190  142.8410 C   0  0  0  0  0  3  0  0  0  0  0  0
  186.1930  177.7840  145.2260 C   0  0  0  0  0  0  0  0  0  0  0  0
  184.2150  178.3570  146.4960 C   0  0  0  0  0  3  0  0  0  0  0  0
  188.1630  177.2260  143.9260 C   0  0  0  0  0  0  0  0  0  0  0  0
  186.3860  178.5190  142.9520 N   0  0  0  0  0  0  0  0  0  0  0  0
  191.3090  173.2080  140.7680 C   0  0  0  0  0  0  0  0  0  0  0  0
  191.1530  174.0220  141.6440 C   0  0  0  0  0  0  0  0  0  0  0  0
  191.5040  172.2220  139.7010 C   0  0  0  0  0  2  0  0  0  0  0  0
  190.3040  172.1770  138.8120 C   0  0  0  0  0  0  0  0  0  0  0  0
  189.6780  171.1360  138.6760 O   0  0  0  0  0  0  0  0  0  0  0  0
  189.8760  173.4110  138.0870 C   0  0  0  0  0  2  0  0  0  0  0  0
  188.1910  174.5410  139.5030 C   0  0  0  0  0  1  0  0  0  0  0  0
  188.3940  173.6550  138.2920 C   0  0  0  0  0  2  0  0  0  0  0  0
  1  4  1  0  0  0  0
  2  5  2  0  0  0  0
  4 21  1  0  0  0  0
  4  9  2  0  0  0  0
  5  9  1  0  0  0  0
  5  3  1  0  0  0  0
  7  2  1  0  0  0  0
  8  7  1  0  0  0  0
  8 10  2  0  0  0  0
 10 11  1  0  0  0  0
 11  3  1  0  0  0  0
 11  6  2  0  0  0  0
 12  1  2  0  0  0  0
 12  2  1  0  0  0  0
 13 20  1  0  0  0  0
 14 19  1  0  0  0  0
 15 17  1  0  0  0  0
 15 19  2  0  0  0  0
 16 20  2  0  0  0  0
 17 13  2  0  0  0  0
 18 22  2  0  0  0  0
 18 21  1  0  0  0  0
 19 16  1  0  0  0  0
 21 14  2  0  0  0  0
 22 15  1  0  0  0  0
 23 24  3  0  0  0  0
 24 12  1  0  0  0  0
 25 23  1  0  0  0  0
 26 25  1  0  0  0  0
 27 26  2  0  0  0  0
 28 30  1  0  0  0  0
 28 26  1  0  0  0  0
 30 29  1  0  0  0  0
M  END
>  <MODEL>
8

>  <REMARK>
 VINA RESULT:      -7.0      2.877      8.686
  Name = 
  6 active torsions:
  status: ('A' for Active; 'I' for Inactive)
    1  A    between atoms: C_2  and  C_27
    2  A    between atoms: C_2  and  C_28
    3  A    between atoms: C_9  and  C_18
    4  A    between atoms: C_9  and  C_27
    5  A    between atoms: C_10  and  C_21
    6  A    between atoms: C_20  and  C_29
                            x       y       z     vdW  Elec       q    Type
                         _______ _______ _______ _____ _____    ______ ____

>  <TORSDO>
F 6

$$$$
=
 OpenBabel11042418293D

 30 33  0  0  0  0  0  0  0  0999 V2000
  190.2780  175.7260  143.8720 C   0  0  0  0  0  3  0  0  0  0  0  0
  191.2930  174.2860  142.2000 C   0  0  0  0  0  0  0  0  0  0  0  0
  189.8460  173.3200  140.4160 N   0  0  0  0  0  2  0  0  0  0  0  0
  189.0280  175.5960  143.2520 C   0  0  0  0  0  0  0  0  0  0  0  0
  190.0350  174.1260  141.5860 C   0  0  0  0  0  0  0  0  0  0  0  0
  190.2160  171.5220  139.0000 O   0  0  0  0  0  0  0  0  0  0  0  0
  192.5130  173.6820  141.5840 C   0  0  0  0  0  2  0  0  0  0  0  0
  192.4270  172.1950  141.5990 C   0  0  0  0  0  3  0  0  0  0  0  0
  188.9240  174.7950  142.1060 C   0  0  0  0  0  3  0  0  0  0  0  0
  191.5650  171.5420  140.8840 N   0  0  0  0  0  0  0  0  0  0  0  0
  190.5560  172.1270  140.0490 C   0  0  0  0  0  0  0  0  0  0  0  0
  191.4050  175.0840  143.3570 C   0  0  0  0  0  0  0  0  0  0  0  0
  184.4050  178.6660  146.6140 C   0  0  0  0  0  3  0  0  0  0  0  0
  187.8080  176.7190  145.1350 C   0  0  0  0  0  3  0  0  0  0  0  0
  185.5770  177.5870  144.7910 C   0  0  0  0  0  0  0  0  0  0  0  0
  186.6420  177.7990  146.9670 C   0  0  0  0  0  3  0  0  0  0  0  0
  184.4410  178.2360  145.2830 C   0  0  0  0  0  3  0  0  0  0  0  0
  186.7120  176.5290  142.9940 C   0  0  0  0  0  3  0  0  0  0  0  0
  186.6820  177.3680  145.6390 C   0  0  0  0  0  0  0  0  0  0  0  0
  185.5030  178.4490  147.4540 C   0  0  0  0  0  3  0  0  0  0  0  0
  187.8380  176.2890  143.7990 C   0  0  0  0  0  0  0  0  0  0  0  0
  185.6200  177.1650  143.4990 N   0  0  0  0  0  0  0  0  0  0  0  0
  193.7210  175.4280  144.5900 C   0  0  0  0  0  0  0  0  0  0  0  0
  192.6670  175.2700  144.0260 C   0  0  0  0  0  0  0  0  0  0  0  0
  194.9990  175.6210  145.2810 C   0  0  0  0  0  2  0  0  0  0  0  0
  196.1240  175.6240  144.2990 C   0  0  0  0  0  0  0  0  0  0  0  0
  196.9170  174.6950  144.2680 O   0  0  0  0  0  0  0  0  0  0  0  0
  196.2770  176.7720  143.3550 C   0  0  0  0  0  2  0  0  0  0  0  0
  195.0070  176.4150  141.2620 C   0  0  0  0  0  1  0  0  0  0  0  0
  196.3600  176.2720  141.9260 C   0  0  0  0  0  2  0  0  0  0  0  0
  2 12  2  0  0  0  0
  3  5  1  0  0  0  0
  4 21  1  0  0  0  0
  4  1  2  0  0  0  0
  5  9  2  0  0  0  0
  5  2  1  0  0  0  0
  6 11  2  0  0  0  0
  7  8  1  0  0  0  0
  7  2  1  0  0  0  0
  9  4  1  0  0  0  0
 10  8  2  0  0  0  0
 11  3  1  0  0  0  0
 11 10  1  0  0  0  0
 12  1  1  0  0  0  0
 12 24  1  0  0  0  0
 13 20  1  0  0  0  0
 14 19  1  0  0  0  0
 15 17  1  0  0  0  0
 15 19  2  0  0  0  0
 16 20  2  0  0  0  0
 17 13  2  0  0  0  0
 18 22  2  0  0  0  0
 18 21  1  0  0  0  0
 19 16  1  0  0  0  0
 21 14  2  0  0  0  0
 22 15  1  0  0  0  0
 23 25  1  0  0  0  0
 24 23  3  0  0  0  0
 26 25  1  0  0  0  0
 27 26  2  0  0  0  0
 28 26  1  0  0  0  0
 29 30  1  0  0  0  0
 30 28  1  0  0  0  0
M  END
>  <MODEL>
9

>  <REMARK>
 VINA RESULT:      -7.0      3.206      8.259
  Name = 
  6 active torsions:
  status: ('A' for Active; 'I' for Inactive)
    1  A    between atoms: C_2  and  C_27
    2  A    between atoms: C_2  and  C_28
    3  A    between atoms: C_9  and  C_18
    4  A    between atoms: C_9  and  C_27
    5  A    between atoms: C_10  and  C_21
    6  A    between atoms: C_20  and  C_29
                            x       y       z     vdW  Elec       q    Type
                         _______ _______ _______ _____ _____    ______ ____

>  <TORSDO>
F 6

$$$$
