=
 OpenBabel11042413473D

 30 33  0  0  1  0  0  0  0  0999 V2000
  186.6300  177.4990  144.3710 C   0  0  2  0  0  3  0  0  0  0  0  0
  183.6950  178.6840  143.4820 N   0  0  0  0  0  0  0  0  0  0  0  0
  185.6710  178.4940  142.5300 O   0  0  0  0  0  0  0  0  0  0  0  0
  186.0330  178.7260  143.8380 N   0  0  0  0  0  0  0  0  0  0  0  0
  184.3070  178.4670  142.3780 C   0  0  0  0  0  0  0  0  0  0  0  0
  184.7220  178.8880  144.5010 C   0  0  0  0  0  2  0  0  0  0  0  0
  184.3200  178.0170  140.0630 O   0  0  0  0  0  0  0  0  0  0  0  0
  183.6340  178.2080  141.1020 C   0  0  0  0  0  0  0  0  0  0  0  0
  182.1450  178.1640  141.0160 C   0  0  0  0  0  1  0  0  0  0  0  0
  186.8830  176.5060  143.3850 O   0  0  0  0  0  0  0  0  0  0  0  0
  188.2610  176.1900  143.2380 C   0  0  1  0  0  3  0  0  0  0  0  0
  189.3450  174.1490  143.8240 F   0  0  0  0  0  0  0  0  0  0  0  0
  188.6450  174.7690  142.8050 C   0  0  0  0  0  3  0  0  0  0  0  0
  189.4580  174.8160  141.6860 F   0  0  0  0  0  0  0  0  0  0  0  0
  188.9480  177.9240  141.8080 O   0  0  0  0  0  0  0  0  0  0  0  0
  189.1570  177.3450  142.8630 C   0  0  0  0  0  0  0  0  0  0  0  0
  191.4590  176.8150  143.5300 C   0  0  0  0  0  2  0  0  0  0  0  0
  190.3330  177.7610  143.7050 C   0  0  1  0  0  3  0  0  0  0  0  0
  191.4400  178.0630  142.8870 O   0  0  0  0  0  0  0  0  0  0  0  0
  185.9120  176.9510  145.6050 C   0  0  0  0  0  2  0  0  0  0  0  0
  186.7580  177.1690  146.8480 C   0  0  1  0  0  0  0  0  0  0  0  0
  186.3580  178.2460  147.7790 C   0  0  0  0  0  2  0  0  0  0  0  0
  186.0360  176.8920  148.0230 O   0  0  0  0  0  0  0  0  0  0  0  0
  188.4260  175.2920  146.9000 C   0  0  0  0  0  3  0  0  0  0  0  0
  190.7830  175.7540  147.0900 C   0  0  0  0  0  0  0  0  0  0  0  0
  190.5120  177.0860  147.1220 N   0  0  0  0  0  0  0  0  0  0  0  0
  192.1880  175.2780  147.1860 C   0  0  0  0  0  1  0  0  0  0  0  0
  188.1660  176.6660  146.9160 C   0  0  0  0  0  0  0  0  0  0  0  0
  189.2370  177.5580  147.0410 C   0  0  0  0  0  3  0  0  0  0  0  0
  189.7410  174.8290  146.9830 C   0  0  0  0  0  3  0  0  0  0  0  0
  1 20  1  1  0  0  0
  2  6  1  0  0  0  0
  3  4  1  0  0  0  0
  4  1  1  0  0  0  0
  4  6  1  0  0  0  0
  5  3  1  0  0  0  0
  5  2  2  0  0  0  0
  7  8  2  0  0  0  0
  8  5  1  0  0  0  0
  9  8  1  0  0  0  0
 10  1  1  0  0  0  0
 11 13  1  6  0  0  0
 11 10  1  0  0  0  0
 13 12  1  0  0  0  0
 14 13  1  0  0  0  0
 15 16  2  0  0  0  0
 16 11  1  0  0  0  0
 17 18  1  0  0  0  0
 18 16  1  6  0  0  0
 19 17  1  0  0  0  0
 19 18  1  0  0  0  0
 21 20  1  6  0  0  0
 21 28  1  0  0  0  0
 21 22  1  0  0  0  0
 21 23  1  0  0  0  0
 22 23  1  0  0  0  0
 24 28  2  0  0  0  0
 24 30  1  0  0  0  0
 25 26  1  0  0  0  0
 25 27  1  0  0  0  0
 28 29  1  0  0  0  0
 29 26  2  0  0  0  0
 30 25  2  0  0  0  0
M  END
>  <MODEL>
1

>  <REMARK>
 VINA RESULT:      -6.7      0.000      0.000
  Name = 
  10 active torsions:
  status: ('A' for Active; 'I' for Inactive)
    1  A    between atoms: O_3  and  C_23
    2  A    between atoms: O_3  and  C_26
    3  A    between atoms: C_8  and  C_23
    4  A    between atoms: C_10  and  C_19
    5  A    between atoms: C_10  and  C_22
    6  A    between atoms: N_13  and  C_26
    7  A    between atoms: C_14  and  C_15
    8  A    between atoms: C_16  and  C_29
    9  A    between atoms: C_19  and  C_26
   10  A    between atoms: C_23  and  C_29
                            x       y       z     vdW  Elec       q    Type
                         _______ _______ _______ _____ _____    ______ ____

>  <TORSDO>
F 10

$$$$
=
 OpenBabel11042413473D

 30 33  0  0  1  0  0  0  0  0999 V2000
  189.1040  177.1660  142.9570 C   0  0  2  0  0  3  0  0  0  0  0  0
  191.4790  176.9460  145.2200 N   0  0  0  0  0  0  0  0  0  0  0  0
  189.3040  177.2840  145.2480 O   0  0  0  0  0  0  0  0  0  0  0  0
  189.6540  177.9280  144.0820 N   0  0  0  0  0  0  0  0  0  0  0  0
  190.3950  176.7220  145.8630 C   0  0  0  0  0  0  0  0  0  0  0  0
  191.1190  177.7420  144.0490 C   0  0  0  0  0  2  0  0  0  0  0  0
  191.0970  176.2210  148.0580 O   0  0  0  0  0  0  0  0  0  0  0  0
  190.3200  175.9460  147.1050 C   0  0  0  0  0  0  0  0  0  0  0  0
  189.3340  174.8370  147.2570 C   0  0  0  0  0  1  0  0  0  0  0  0
  190.0210  176.2400  142.3870 O   0  0  0  0  0  0  0  0  0  0  0  0
  189.6550  174.8820  142.5920 C   0  0  1  0  0  3  0  0  0  0  0  0
  188.6050  175.0050  140.4550 F   0  0  0  0  0  0  0  0  0  0  0  0
  188.6970  174.2220  141.5910 C   0  0  0  0  0  3  0  0  0  0  0  0
  187.4330  174.1110  142.1450 F   0  0  0  0  0  0  0  0  0  0  0  0
  191.8620  174.2970  143.1530 O   0  0  0  0  0  0  0  0  0  0  0  0
  190.6790  174.0330  143.3050 C   0  0  0  0  0  0  0  0  0  0  0  0
  190.4710  171.5870  143.3610 C   0  0  0  0  0  2  0  0  0  0  0  0
  190.2980  172.8360  144.1360 C   0  0  1  0  0  3  0  0  0  0  0  0
  191.4120  171.9930  144.3210 O   0  0  0  0  0  0  0  0  0  0  0  0
  188.3990  178.0330  141.9130 C   0  0  0  0  0  2  0  0  0  0  0  0
  186.8920  177.9310  142.0720 C   0  0  1  0  0  0  0  0  0  0  0  0
  186.0510  178.1670  140.8790 C   0  0  0  0  0  2  0  0  0  0  0  0
  186.3610  176.8640  141.3280 O   0  0  0  0  0  0  0  0  0  0  0  0
  186.0260  179.3170  143.9810 C   0  0  0  0  0  3  0  0  0  0  0  0
  185.1110  178.2610  145.9430 C   0  0  0  0  0  0  0  0  0  0  0  0
  185.3550  177.0420  145.3930 N   0  0  0  0  0  0  0  0  0  0  0  0
  184.5010  178.3590  147.2950 C   0  0  0  0  0  1  0  0  0  0  0  0
  186.2530  178.0550  143.4210 C   0  0  0  0  0  0  0  0  0  0  0  0
  185.9170  176.9150  144.1580 C   0  0  0  0  0  3  0  0  0  0  0  0
  185.4480  179.4250  145.2470 C   0  0  0  0  0  3  0  0  0  0  0  0
  1 20  1  6  0  0  0
  1  4  1  0  0  0  0
  2  5  2  0  0  0  0
  3  5  1  0  0  0  0
  4  3  1  0  0  0  0
  5  8  1  0  0  0  0
  6  4  1  0  0  0  0
  6  2  1  0  0  0  0
  8  9  1  0  0  0  0
  8  7  2  0  0  0  0
 10 11  1  0  0  0  0
 10  1  1  0  0  0  0
 11 13  1  6  0  0  0
 11 16  1  0  0  0  0
 12 13  1  0  0  0  0
 13 14  1  0  0  0  0
 15 16  2  0  0  0  0
 17 18  1  0  0  0  0
 17 19  1  0  0  0  0
 18 16  1  6  0  0  0
 18 19  1  0  0  0  0
 21 20  1  6  0  0  0
 21 28  1  0  0  0  0
 22 23  1  0  0  0  0
 22 21  1  0  0  0  0
 23 21  1  0  0  0  0
 24 30  1  0  0  0  0
 25 27  1  0  0  0  0
 26 25  1  0  0  0  0
 28 24  2  0  0  0  0
 28 29  1  0  0  0  0
 29 26  2  0  0  0  0
 30 25  2  0  0  0  0
M  END
>  <MODEL>
2

>  <REMARK>
 VINA RESULT:      -6.6      2.482      5.929
  Name = 
  10 active torsions:
  status: ('A' for Active; 'I' for Inactive)
    1  A    between atoms: O_3  and  C_23
    2  A    between atoms: O_3  and  C_26
    3  A    between atoms: C_8  and  C_23
    4  A    between atoms: C_10  and  C_19
    5  A    between atoms: C_10  and  C_22
    6  A    between atoms: N_13  and  C_26
    7  A    between atoms: C_14  and  C_15
    8  A    between atoms: C_16  and  C_29
    9  A    between atoms: C_19  and  C_26
   10  A    between atoms: C_23  and  C_29
                            x       y       z     vdW  Elec       q    Type
                         _______ _______ _______ _____ _____    ______ ____

>  <TORSDO>
F 10

$$$$
=
 OpenBabel11042413473D

 30 33  0  0  1  0  0  0  0  0999 V2000
  189.4690  176.9430  143.0160 C   0  0  2  0  0  3  0  0  0  0  0  0
  191.6880  176.4670  145.3950 N   0  0  0  0  0  0  0  0  0  0  0  0
  189.5780  177.0900  145.3110 O   0  0  0  0  0  0  0  0  0  0  0  0
  190.0630  177.6530  144.1520 N   0  0  0  0  0  0  0  0  0  0  0  0
  190.5550  176.4040  145.9890 C   0  0  0  0  0  0  0  0  0  0  0  0
  191.4910  177.2750  144.1940 C   0  0  0  0  0  2  0  0  0  0  0  0
  191.1050  175.8410  148.2120 O   0  0  0  0  0  0  0  0  0  0  0  0
  190.3220  175.6760  147.2400 C   0  0  0  0  0  0  0  0  0  0  0  0
  189.1650  174.7430  147.3790 C   0  0  0  0  0  1  0  0  0  0  0  0
  190.3830  176.1060  142.3190 O   0  0  0  0  0  0  0  0  0  0  0  0
  189.9570  174.7540  142.2270 C   0  0  1  0  0  3  0  0  0  0  0  0
  189.8440  173.6730  144.3490 F   0  0  0  0  0  0  0  0  0  0  0  0
  189.0580  174.1910  143.3350 C   0  0  0  0  0  3  0  0  0  0  0  0
  188.2680  173.1700  142.8350 F   0  0  0  0  0  0  0  0  0  0  0  0
  188.8540  174.5040  140.1660 O   0  0  0  0  0  0  0  0  0  0  0  0
  189.8370  174.2040  140.8260 C   0  0  0  0  0  0  0  0  0  0  0  0
  190.4810  171.8500  140.5640 C   0  0  0  0  0  2  0  0  0  0  0  0
  190.8450  173.2490  140.2450 C   0  0  1  0  0  3  0  0  0  0  0  0
  190.2310  172.4050  139.2980 O   0  0  0  0  0  0  0  0  0  0  0  0
  188.6500  177.8430  142.0890 C   0  0  0  0  0  2  0  0  0  0  0  0
  187.1650  177.5930  142.2870 C   0  0  1  0  0  0  0  0  0  0  0  0
  186.2980  177.5810  141.0890 C   0  0  0  0  0  2  0  0  0  0  0  0
  186.7560  176.3880  141.6900 O   0  0  0  0  0  0  0  0  0  0  0  0
  186.1820  176.7230  144.4280 C   0  0  0  0  0  3  0  0  0  0  0  0
  185.2860  178.2420  146.0700 C   0  0  0  0  0  0  0  0  0  0  0  0
  185.6060  179.2900  145.2650 N   0  0  0  0  0  0  0  0  0  0  0  0
  184.6230  178.4840  147.3780 C   0  0  0  0  0  1  0  0  0  0  0  0
  186.5220  177.8130  143.6210 C   0  0  0  0  0  0  0  0  0  0  0  0
  186.2100  179.1050  144.0580 C   0  0  0  0  0  3  0  0  0  0  0  0
  185.5650  176.9340  145.6630 C   0  0  0  0  0  3  0  0  0  0  0  0
  1 20  1  6  0  0  0
  1  4  1  0  0  0  0
  2  5  2  0  0  0  0
  3  5  1  0  0  0  0
  4  6  1  0  0  0  0
  4  3  1  0  0  0  0
  5  8  1  0  0  0  0
  6  2  1  0  0  0  0
  8  9  1  0  0  0  0
  8  7  2  0  0  0  0
 10  1  1  0  0  0  0
 11 16  1  6  0  0  0
 11 10  1  0  0  0  0
 11 13  1  0  0  0  0
 13 12  1  0  0  0  0
 14 13  1  0  0  0  0
 15 16  2  0  0  0  0
 18 17  1  0  0  0  0
 18 16  1  1  0  0  0
 19 18  1  0  0  0  0
 19 17  1  0  0  0  0
 21 20  1  6  0  0  0
 21 28  1  0  0  0  0
 22 23  1  0  0  0  0
 22 21  1  0  0  0  0
 23 21  1  0  0  0  0
 24 30  1  0  0  0  0
 25 27  1  0  0  0  0
 26 25  1  0  0  0  0
 28 29  1  0  0  0  0
 28 24  2  0  0  0  0
 29 26  2  0  0  0  0
 30 25  2  0  0  0  0
M  END
>  <MODEL>
3

>  <REMARK>
 VINA RESULT:      -6.5      2.465      5.898
  Name = 
  10 active torsions:
  status: ('A' for Active; 'I' for Inactive)
    1  A    between atoms: O_3  and  C_23
    2  A    between atoms: O_3  and  C_26
    3  A    between atoms: C_8  and  C_23
    4  A    between atoms: C_10  and  C_19
    5  A    between atoms: C_10  and  C_22
    6  A    between atoms: N_13  and  C_26
    7  A    between atoms: C_14  and  C_15
    8  A    between atoms: C_16  and  C_29
    9  A    between atoms: C_19  and  C_26
   10  A    between atoms: C_23  and  C_29
                            x       y       z     vdW  Elec       q    Type
                         _______ _______ _______ _____ _____    ______ ____

>  <TORSDO>
F 10

$$$$
=
 OpenBabel11042413473D

 30 33  0  0  1  0  0  0  0  0999 V2000
  189.2640  176.9430  145.0040 C   0  0  2  0  0  3  0  0  0  0  0  0
  189.0390  178.1260  141.9450 N   0  0  0  0  0  0  0  0  0  0  0  0
  189.1480  176.1250  142.8550 O   0  0  0  0  0  0  0  0  0  0  0  0
  189.9490  176.8450  143.7130 N   0  0  0  0  0  0  0  0  0  0  0  0
  188.6360  176.9140  141.8560 C   0  0  0  0  0  0  0  0  0  0  0  0
  189.9190  178.1940  143.1090 C   0  0  0  0  0  2  0  0  0  0  0  0
  187.8420  175.2450  140.3910 O   0  0  0  0  0  0  0  0  0  0  0  0
  187.7250  176.4250  140.8170 C   0  0  0  0  0  0  0  0  0  0  0  0
  186.6570  177.3040  140.2580 C   0  0  0  0  0  1  0  0  0  0  0  0
  188.1920  177.8760  145.0180 O   0  0  0  0  0  0  0  0  0  0  0  0
  186.9180  177.2750  145.2070 C   0  0  1  0  0  3  0  0  0  0  0  0
  187.1070  176.1990  147.3260 F   0  0  0  0  0  0  0  0  0  0  0  0
  186.3730  177.1470  146.6360 C   0  0  0  0  0  3  0  0  0  0  0  0
  185.0520  176.7350  146.6060 F   0  0  0  0  0  0  0  0  0  0  0  0
  185.5440  176.4140  143.5050 O   0  0  0  0  0  0  0  0  0  0  0  0
  185.9510  177.4250  144.0580 C   0  0  0  0  0  0  0  0  0  0  0  0
  184.3010  179.2360  144.2110 C   0  0  0  0  0  2  0  0  0  0  0  0
  185.5280  178.7690  143.5280 C   0  0  1  0  0  3  0  0  0  0  0  0
  185.5680  179.7350  144.5530 O   0  0  0  0  0  0  0  0  0  0  0  0
  190.2120  177.0990  146.1940 C   0  0  0  0  0  2  0  0  0  0  0  0
  190.7920  175.7510  146.5880 C   0  0  1  0  0  0  0  0  0  0  0  0
  190.1050  174.9840  147.6490 C   0  0  0  0  0  2  0  0  0  0  0  0
  189.9140  174.6970  146.2790 O   0  0  0  0  0  0  0  0  0  0  0  0
  193.2500  176.2610  146.6900 C   0  0  0  0  0  3  0  0  0  0  0  0
  194.8510  174.7820  145.6640 C   0  0  0  0  0  0  0  0  0  0  0  0
  193.8340  173.9740  145.2590 N   0  0  0  0  0  0  0  0  0  0  0  0
  196.2560  174.4360  145.3250 C   0  0  0  0  0  1  0  0  0  0  0  0
  192.2170  175.4100  146.2820 C   0  0  0  0  0  0  0  0  0  0  0  0
  192.5340  174.2620  145.5470 C   0  0  0  0  0  3  0  0  0  0  0  0
  194.5750  175.9470  146.3850 C   0  0  0  0  0  3  0  0  0  0  0  0
  1 10  1  0  0  0  0
  1 20  1  1  0  0  0
  2  6  1  0  0  0  0
  3  4  1  0  0  0  0
  4  1  1  0  0  0  0
  5  2  2  0  0  0  0
  5  3  1  0  0  0  0
  6  4  1  0  0  0  0
  7  8  2  0  0  0  0
  8  5  1  0  0  0  0
  9  8  1  0  0  0  0
 10 11  1  0  0  0  0
 11 16  1  6  0  0  0
 11 13  1  0  0  0  0
 13 12  1  0  0  0  0
 14 13  1  0  0  0  0
 15 16  2  0  0  0  0
 17 19  1  0  0  0  0
 18 16  1  1  0  0  0
 18 17  1  0  0  0  0
 18 19  1  0  0  0  0
 21 20  1  6  0  0  0
 21 22  1  0  0  0  0
 23 21  1  0  0  0  0
 23 22  1  0  0  0  0
 25 30  2  0  0  0  0
 26 29  2  0  0  0  0
 26 25  1  0  0  0  0
 27 25  1  0  0  0  0
 28 21  1  0  0  0  0
 28 24  2  0  0  0  0
 29 28  1  0  0  0  0
 30 24  1  0  0  0  0
M  END
>  <MODEL>
4

>  <REMARK>
 VINA RESULT:      -6.5      2.750      4.784
  Name = 
  10 active torsions:
  status: ('A' for Active; 'I' for Inactive)
    1  A    between atoms: O_3  and  C_23
    2  A    between atoms: O_3  and  C_26
    3  A    between atoms: C_8  and  C_23
    4  A    between atoms: C_10  and  C_19
    5  A    between atoms: C_10  and  C_22
    6  A    between atoms: N_13  and  C_26
    7  A    between atoms: C_14  and  C_15
    8  A    between atoms: C_16  and  C_29
    9  A    between atoms: C_19  and  C_26
   10  A    between atoms: C_23  and  C_29
                            x       y       z     vdW  Elec       q    Type
                         _______ _______ _______ _____ _____    ______ ____

>  <TORSDO>
F 10

$$$$
=
 OpenBabel11042413473D

 30 33  0  0  1  0  0  0  0  0999 V2000
  187.9000  177.4080  145.1570 C   0  0  2  0  0  3  0  0  0  0  0  0
  190.5480  176.6840  146.9680 N   0  0  0  0  0  0  0  0  0  0  0  0
  189.0300  175.5310  145.8680 O   0  0  0  0  0  0  0  0  0  0  0  0
  188.2770  176.5930  146.3160 N   0  0  0  0  0  0  0  0  0  0  0  0
  190.3400  175.6370  146.2610 C   0  0  0  0  0  0  0  0  0  0  0  0
  189.2660  177.3750  147.0860 C   0  0  0  0  0  2  0  0  0  0  0  0
  191.0590  173.6000  145.3140 O   0  0  0  0  0  0  0  0  0  0  0  0
  191.3800  174.6670  145.9020 C   0  0  0  0  0  0  0  0  0  0  0  0
  192.8140  174.9280  146.2200 C   0  0  0  0  0  1  0  0  0  0  0  0
  187.0380  178.4940  145.4740 O   0  0  0  0  0  0  0  0  0  0  0  0
  185.6710  178.2360  145.1820 C   0  0  1  0  0  3  0  0  0  0  0  0
  185.1920  178.1290  147.5150 F   0  0  0  0  0  0  0  0  0  0  0  0
  184.7850  177.6430  146.2850 C   0  0  0  0  0  3  0  0  0  0  0  0
  184.9050  176.2640  146.3020 F   0  0  0  0  0  0  0  0  0  0  0  0
  185.4350  180.2850  144.0530 O   0  0  0  0  0  0  0  0  0  0  0  0
  185.0510  179.1280  144.1340 C   0  0  0  0  0  0  0  0  0  0  0  0
  184.3770  178.6260  141.8280 C   0  0  0  0  0  2  0  0  0  0  0  0
  183.9320  178.6650  143.2390 C   0  0  1  0  0  3  0  0  0  0  0  0
  184.2830  177.4580  142.6020 O   0  0  0  0  0  0  0  0  0  0  0  0
  187.4210  176.5890  143.9590 C   0  0  0  0  0  2  0  0  0  0  0  0
  188.2420  176.9260  142.7260 C   0  0  1  0  0  0  0  0  0  0  0  0
  187.5270  177.1140  141.4460 C   0  0  0  0  0  2  0  0  0  0  0  0
  187.9420  178.2090  142.2360 O   0  0  0  0  0  0  0  0  0  0  0  0
  190.1590  175.3580  142.3030 C   0  0  0  0  0  3  0  0  0  0  0  0
  192.4320  176.0850  142.6370 C   0  0  0  0  0  0  0  0  0  0  0  0
  191.9770  177.3090  143.0170 N   0  0  0  0  0  0  0  0  0  0  0  0
  193.8920  175.8050  142.6230 C   0  0  0  0  0  1  0  0  0  0  0  0
  189.7090  176.6280  142.6770 C   0  0  0  0  0  0  0  0  0  0  0  0
  190.6460  177.5990  143.0470 C   0  0  0  0  0  3  0  0  0  0  0  0
  191.5280  175.0820  142.2770 C   0  0  0  0  0  3  0  0  0  0  0  0
  1 20  1  6  0  0  0
  1 10  1  0  0  0  0
  1  4  1  0  0  0  0
  2  6  1  0  0  0  0
  3  5  1  0  0  0  0
  3  4  1  0  0  0  0
  4  6  1  0  0  0  0
  5  2  2  0  0  0  0
  7  8  2  0  0  0  0
  8  9  1  0  0  0  0
  8  5  1  0  0  0  0
 11 16  1  1  0  0  0
 11 10  1  0  0  0  0
 11 13  1  0  0  0  0
 13 14  1  0  0  0  0
 13 12  1  0  0  0  0
 15 16  2  0  0  0  0
 17 19  1  0  0  0  0
 17 18  1  0  0  0  0
 18 16  1  1  0  0  0
 19 18  1  0  0  0  0
 21 20  1  1  0  0  0
 22 23  1  0  0  0  0
 22 21  1  0  0  0  0
 23 21  1  0  0  0  0
 24 28  1  0  0  0  0
 25 26  2  0  0  0  0
 26 29  1  0  0  0  0
 27 25  1  0  0  0  0
 28 21  1  0  0  0  0
 28 29  2  0  0  0  0
 30 24  2  0  0  0  0
 30 25  1  0  0  0  0
M  END
>  <MODEL>
5

>  <REMARK>
 VINA RESULT:      -6.4      2.581      6.176
  Name = 
  10 active torsions:
  status: ('A' for Active; 'I' for Inactive)
    1  A    between atoms: O_3  and  C_23
    2  A    between atoms: O_3  and  C_26
    3  A    between atoms: C_8  and  C_23
    4  A    between atoms: C_10  and  C_19
    5  A    between atoms: C_10  and  C_22
    6  A    between atoms: N_13  and  C_26
    7  A    between atoms: C_14  and  C_15
    8  A    between atoms: C_16  and  C_29
    9  A    between atoms: C_19  and  C_26
   10  A    between atoms: C_23  and  C_29
                            x       y       z     vdW  Elec       q    Type
                         _______ _______ _______ _____ _____    ______ ____

>  <TORSDO>
F 10

$$$$
=
 OpenBabel11042413473D

 30 33  0  0  1  0  0  0  0  0999 V2000
  187.7870  176.4980  144.0300 C   0  0  2  0  0  3  0  0  0  0  0  0
  188.1160  178.2100  141.2420 N   0  0  0  0  0  0  0  0  0  0  0  0
  187.3370  176.2250  141.7880 O   0  0  0  0  0  0  0  0  0  0  0  0
  188.3670  176.3580  142.6910 N   0  0  0  0  0  0  0  0  0  0  0  0
  187.2250  177.3280  140.9790 C   0  0  0  0  0  0  0  0  0  0  0  0
  188.9310  177.6760  142.3300 C   0  0  0  0  0  2  0  0  0  0  0  0
  186.4140  177.0460  138.7820 O   0  0  0  0  0  0  0  0  0  0  0  0
  186.1970  177.4800  139.9450 C   0  0  0  0  0  0  0  0  0  0  0  0
  184.8930  178.1380  140.2520 C   0  0  0  0  0  1  0  0  0  0  0  0
  186.3650  176.4980  144.0420 O   0  0  0  0  0  0  0  0  0  0  0  0
  185.8030  177.6480  144.6610 C   0  0  1  0  0  3  0  0  0  0  0  0
  185.7730  179.9640  144.0980 F   0  0  0  0  0  0  0  0  0  0  0  0
  185.2100  178.7450  143.7680 C   0  0  0  0  0  3  0  0  0  0  0  0
  183.8420  178.8310  143.9650 F   0  0  0  0  0  0  0  0  0  0  0  0
  184.9470  176.2930  146.3810 O   0  0  0  0  0  0  0  0  0  0  0  0
  185.2350  177.4310  146.0420 C   0  0  0  0  0  0  0  0  0  0  0  0
  185.8730  178.5370  148.1390 C   0  0  0  0  0  2  0  0  0  0  0  0
  184.9470  178.5690  146.9850 C   0  0  1  0  0  3  0  0  0  0  0  0
  186.0600  179.4290  147.0700 O   0  0  0  0  0  0  0  0  0  0  0  0
  188.3960  177.6370  144.8480 C   0  0  0  0  0  2  0  0  0  0  0  0
  189.3420  177.0840  145.9000 C   0  0  1  0  0  0  0  0  0  0  0  0
  189.2550  177.6340  147.2700 C   0  0  0  0  0  2  0  0  0  0  0  0
  188.6490  176.4070  146.9190 O   0  0  0  0  0  0  0  0  0  0  0  0
  191.5950  177.0530  144.7890 C   0  0  0  0  0  3  0  0  0  0  0  0
  192.9070  175.0330  144.7380 C   0  0  0  0  0  0  0  0  0  0  0  0
  191.9230  174.3850  145.4180 N   0  0  0  0  0  0  0  0  0  0  0  0
  194.1360  174.3020  144.3320 C   0  0  0  0  0  1  0  0  0  0  0  0
  190.6010  176.3770  145.5040 C   0  0  0  0  0  0  0  0  0  0  0  0
  190.7810  175.0220  145.8020 C   0  0  0  0  0  3  0  0  0  0  0  0
  192.7580  176.3820  144.4050 C   0  0  0  0  0  3  0  0  0  0  0  0
  1 10  1  0  0  0  0
  1 20  1  6  0  0  0
  2  6  1  0  0  0  0
  3  4  1  0  0  0  0
  4  1  1  0  0  0  0
  5  2  2  0  0  0  0
  5  3  1  0  0  0  0
  6  4  1  0  0  0  0
  7  8  2  0  0  0  0
  8  9  1  0  0  0  0
  8  5  1  0  0  0  0
 10 11  1  0  0  0  0
 11 13  1  6  0  0  0
 11 16  1  0  0  0  0
 13 14  1  0  0  0  0
 13 12  1  0  0  0  0
 16 15  2  0  0  0  0
 18 16  1  6  0  0  0
 18 19  1  0  0  0  0
 18 17  1  0  0  0  0
 19 17  1  0  0  0  0
 21 20  1  6  0  0  0
 21 23  1  0  0  0  0
 21 22  1  0  0  0  0
 23 22  1  0  0  0  0
 24 28  1  0  0  0  0
 25 26  2  0  0  0  0
 26 29  1  0  0  0  0
 27 25  1  0  0  0  0
 28 29  2  0  0  0  0
 28 21  1  0  0  0  0
 30 25  1  0  0  0  0
 30 24  2  0  0  0  0
M  END
>  <MODEL>
6

>  <REMARK>
 VINA RESULT:      -6.4      2.788      4.387
  Name = 
  10 active torsions:
  status: ('A' for Active; 'I' for Inactive)
    1  A    between atoms: O_3  and  C_23
    2  A    between atoms: O_3  and  C_26
    3  A    between atoms: C_8  and  C_23
    4  A    between atoms: C_10  and  C_19
    5  A    between atoms: C_10  and  C_22
    6  A    between atoms: N_13  and  C_26
    7  A    between atoms: C_14  and  C_15
    8  A    between atoms: C_16  and  C_29
    9  A    between atoms: C_19  and  C_26
   10  A    between atoms: C_23  and  C_29
                            x       y       z     vdW  Elec       q    Type
                         _______ _______ _______ _____ _____    ______ ____

>  <TORSDO>
F 10

$$$$
=
 OpenBabel11042413473D

 30 33  0  0  1  0  0  0  0  0999 V2000
  189.2960  175.5540  143.8430 C   0  0  2  0  0  3  0  0  0  0  0  0
  188.0230  175.6730  140.8140 N   0  0  0  0  0  0  0  0  0  0  0  0
  187.2660  176.0030  142.8540 O   0  0  0  0  0  0  0  0  0  0  0  0
  188.1800  174.9970  143.0750 N   0  0  0  0  0  0  0  0  0  0  0  0
  187.2210  176.3670  141.5320 C   0  0  0  0  0  0  0  0  0  0  0  0
  188.6880  174.7320  141.7130 C   0  0  0  0  0  2  0  0  0  0  0  0
  186.2100  177.5560  139.7640 O   0  0  0  0  0  0  0  0  0  0  0  0
  186.3630  177.4340  141.0090 C   0  0  0  0  0  0  0  0  0  0  0  0
  185.6640  178.3760  141.9310 C   0  0  0  0  0  1  0  0  0  0  0  0
  190.5560  175.4390  143.1940 O   0  0  0  0  0  0  0  0  0  0  0  0
  191.2590  176.6700  143.0950 C   0  0  1  0  0  3  0  0  0  0  0  0
  189.8330  178.2590  142.0330 F   0  0  0  0  0  0  0  0  0  0  0  0
  190.4680  177.9780  143.2290 C   0  0  0  0  0  3  0  0  0  0  0  0
  191.3260  179.0250  143.5210 F   0  0  0  0  0  0  0  0  0  0  0  0
  193.5620  176.4470  142.6810 O   0  0  0  0  0  0  0  0  0  0  0  0
  192.7040  176.6310  143.5300 C   0  0  0  0  0  0  0  0  0  0  0  0
  193.1670  175.4030  145.6040 C   0  0  0  0  0  2  0  0  0  0  0  0
  193.1150  176.7410  144.9740 C   0  0  1  0  0  3  0  0  0  0  0  0
  194.3330  176.0670  145.1900 O   0  0  0  0  0  0  0  0  0  0  0  0
  189.3280  175.0970  145.3020 C   0  0  0  0  0  2  0  0  0  0  0  0
  188.9950  176.2560  146.2260 C   0  0  1  0  0  0  0  0  0  0  0  0
  189.7630  176.3850  147.4830 C   0  0  0  0  0  2  0  0  0  0  0  0
  190.0690  177.1560  146.3400 O   0  0  0  0  0  0  0  0  0  0  0  0
  186.5300  176.3830  146.6930 C   0  0  0  0  0  3  0  0  0  0  0  0
  185.2290  178.2520  145.9060 C   0  0  0  0  0  0  0  0  0  0  0  0
  186.3490  178.7880  145.3510 N   0  0  0  0  0  0  0  0  0  0  0  0
  183.9250  178.9540  145.7770 C   0  0  0  0  0  1  0  0  0  0  0  0
  187.6750  176.9570  146.1330 C   0  0  0  0  0  0  0  0  0  0  0  0
  187.5600  178.1710  145.4460 C   0  0  0  0  0  3  0  0  0  0  0  0
  185.2990  177.0330  146.5860 C   0  0  0  0  0  3  0  0  0  0  0  0
  1 20  1  1  0  0  0
  2  5  2  0  0  0  0
  2  6  1  0  0  0  0
  3  4  1  0  0  0  0
  4  1  1  0  0  0  0
  5  3  1  0  0  0  0
  6  4  1  0  0  0  0
  7  8  2  0  0  0  0
  8  5  1  0  0  0  0
  8  9  1  0  0  0  0
 10  1  1  0  0  0  0
 11 10  1  1  0  0  0
 11 13  1  0  0  0  0
 11 16  1  0  0  0  0
 12 13  1  0  0  0  0
 13 14  1  0  0  0  0
 15 16  2  0  0  0  0
 18 16  1  6  0  0  0
 18 19  1  0  0  0  0
 18 17  1  0  0  0  0
 19 17  1  0  0  0  0
 21 20  1  6  0  0  0
 21 23  1  0  0  0  0
 21 22  1  0  0  0  0
 23 22  1  0  0  0  0
 25 30  2  0  0  0  0
 26 29  2  0  0  0  0
 26 25  1  0  0  0  0
 27 25  1  0  0  0  0
 28 21  1  0  0  0  0
 28 24  2  0  0  0  0
 29 28  1  0  0  0  0
 30 24  1  0  0  0  0
M  END
>  <MODEL>
7

>  <REMARK>
 VINA RESULT:      -6.3      2.415      4.277
  Name = 
  10 active torsions:
  status: ('A' for Active; 'I' for Inactive)
    1  A    between atoms: O_3  and  C_23
    2  A    between atoms: O_3  and  C_26
    3  A    between atoms: C_8  and  C_23
    4  A    between atoms: C_10  and  C_19
    5  A    between atoms: C_10  and  C_22
    6  A    between atoms: N_13  and  C_26
    7  A    between atoms: C_14  and  C_15
    8  A    between atoms: C_16  and  C_29
    9  A    between atoms: C_19  and  C_26
   10  A    between atoms: C_23  and  C_29
                            x       y       z     vdW  Elec       q    Type
                         _______ _______ _______ _____ _____    ______ ____

>  <TORSDO>
F 10

$$$$
=
 OpenBabel11042413473D

 30 33  0  0  1  0  0  0  0  0999 V2000
  189.1360  175.6280  144.5860 C   0  0  2  0  0  3  0  0  0  0  0  0
  187.2420  176.1780  147.2170 N   0  0  0  0  0  0  0  0  0  0  0  0
  188.0300  177.3960  145.5620 O   0  0  0  0  0  0  0  0  0  0  0  0
  189.0690  176.5130  145.7530 N   0  0  0  0  0  0  0  0  0  0  0  0
  186.9920  177.1530  146.4260 C   0  0  0  0  0  0  0  0  0  0  0  0
  188.5800  175.6950  146.8820 C   0  0  0  0  0  2  0  0  0  0  0  0
  184.8190  177.6060  145.6290 O   0  0  0  0  0  0  0  0  0  0  0  0
  185.7400  177.9150  146.4320 C   0  0  0  0  0  0  0  0  0  0  0  0
  185.5380  179.0520  147.3770 C   0  0  0  0  0  1  0  0  0  0  0  0
  188.0030  175.7160  143.7310 O   0  0  0  0  0  0  0  0  0  0  0  0
  188.3190  176.1460  142.4140 C   0  0  1  0  0  3  0  0  0  0  0  0
  189.5870  174.6710  141.0360 F   0  0  0  0  0  0  0  0  0  0  0  0
  188.2990  175.1120  141.2810 C   0  0  0  0  0  3  0  0  0  0  0  0
  187.8090  175.6860  140.1210 F   0  0  0  0  0  0  0  0  0  0  0  0
  188.8760  178.2970  141.6480 O   0  0  0  0  0  0  0  0  0  0  0  0
  187.9940  177.5870  142.1050 C   0  0  0  0  0  0  0  0  0  0  0  0
  185.8020  178.2090  141.1920 C   0  0  0  0  0  2  0  0  0  0  0  0
  186.6490  178.1940  142.4050 C   0  0  1  0  0  3  0  0  0  0  0  0
  185.6270  177.2460  142.1980 O   0  0  0  0  0  0  0  0  0  0  0  0
  189.5210  174.1880  144.9280 C   0  0  0  0  0  2  0  0  0  0  0  0
  190.9790  173.9350  144.5820 C   0  0  1  0  0  0  0  0  0  0  0  0
  191.4050  172.5370  144.3550 C   0  0  0  0  0  2  0  0  0  0  0  0
  191.1220  173.4150  143.2840 O   0  0  0  0  0  0  0  0  0  0  0  0
  192.4380  175.1450  146.2300 C   0  0  0  0  0  3  0  0  0  0  0  0
  193.9520  176.8680  145.4910 C   0  0  0  0  0  0  0  0  0  0  0  0
  193.5320  176.6770  144.2110 N   0  0  0  0  0  0  0  0  0  0  0  0
  194.9790  177.8990  145.7920 C   0  0  0  0  0  1  0  0  0  0  0  0
  192.0320  174.9490  144.9070 C   0  0  0  0  0  0  0  0  0  0  0  0
  192.5900  175.7440  143.9000 C   0  0  0  0  0  3  0  0  0  0  0  0
  193.4060  176.1060  146.5280 C   0  0  0  0  0  3  0  0  0  0  0  0
  1 20  1  1  0  0  0
  1  4  1  0  0  0  0
  3  4  1  0  0  0  0
  3  5  1  0  0  0  0
  4  6  1  0  0  0  0
  5  8  1  0  0  0  0
  5  2  2  0  0  0  0
  6  2  1  0  0  0  0
  7  8  2  0  0  0  0
  8  9  1  0  0  0  0
 10  1  1  0  0  0  0
 11 13  1  6  0  0  0
 11 10  1  0  0  0  0
 12 13  1  0  0  0  0
 14 13  1  0  0  0  0
 15 16  2  0  0  0  0
 16 11  1  0  0  0  0
 17 19  1  0  0  0  0
 17 18  1  0  0  0  0
 18 16  1  6  0  0  0
 19 18  1  0  0  0  0
 21 28  1  0  0  0  0
 21 20  1  1  0  0  0
 22 21  1  0  0  0  0
 23 22  1  0  0  0  0
 23 21  1  0  0  0  0
 24 30  1  0  0  0  0
 25 27  1  0  0  0  0
 25 30  2  0  0  0  0
 26 25  1  0  0  0  0
 28 24  2  0  0  0  0
 29 26  2  0  0  0  0
 29 28  1  0  0  0  0
M  END
>  <MODEL>
8

>  <REMARK>
 VINA RESULT:      -6.2      2.340      4.732
  Name = 
  10 active torsions:
  status: ('A' for Active; 'I' for Inactive)
    1  A    between atoms: O_3  and  C_23
    2  A    between atoms: O_3  and  C_26
    3  A    between atoms: C_8  and  C_23
    4  A    between atoms: C_10  and  C_19
    5  A    between atoms: C_10  and  C_22
    6  A    between atoms: N_13  and  C_26
    7  A    between atoms: C_14  and  C_15
    8  A    between atoms: C_16  and  C_29
    9  A    between atoms: C_19  and  C_26
   10  A    between atoms: C_23  and  C_29
                            x       y       z     vdW  Elec       q    Type
                         _______ _______ _______ _____ _____    ______ ____

>  <TORSDO>
F 10

$$$$
=
 OpenBabel11042413473D

 30 33  0  0  1  0  0  0  0  0999 V2000
  191.0950  175.7610  145.6920 C   0  0  2  0  0  3  0  0  0  0  0  0
  188.1210  175.6490  147.0880 N   0  0  0  0  0  0  0  0  0  0  0  0
  189.3970  177.2210  146.2260 O   0  0  0  0  0  0  0  0  0  0  0  0
  190.3450  176.3910  146.7820 N   0  0  0  0  0  0  0  0  0  0  0  0
  188.1260  176.7420  146.4210 C   0  0  0  0  0  0  0  0  0  0  0  0
  189.5140  175.3350  147.3960 C   0  0  0  0  0  2  0  0  0  0  0  0
  187.0210  178.4930  145.2920 O   0  0  0  0  0  0  0  0  0  0  0  0
  186.9200  177.4010  145.9120 C   0  0  0  0  0  0  0  0  0  0  0  0
  185.5720  176.7940  146.1140 C   0  0  0  0  0  1  0  0  0  0  0  0
  192.3090  175.1480  146.1080 O   0  0  0  0  0  0  0  0  0  0  0  0
  193.4710  175.7820  145.5910 C   0  0  1  0  0  3  0  0  0  0  0  0
  193.4050  177.1620  147.5330 F   0  0  0  0  0  0  0  0  0  0  0  0
  194.2190  176.7820  146.4820 C   0  0  0  0  0  3  0  0  0  0  0  0
  194.5460  177.9150  145.7550 F   0  0  0  0  0  0  0  0  0  0  0  0
  193.8620  173.8580  144.2960 O   0  0  0  0  0  0  0  0  0  0  0  0
  194.2400  174.9890  144.5620 C   0  0  0  0  0  0  0  0  0  0  0  0
  196.6930  174.9010  144.5120 C   0  0  0  0  0  2  0  0  0  0  0  0
  195.4900  175.5150  143.9070 C   0  0  1  0  0  3  0  0  0  0  0  0
  196.1900  174.4680  143.2750 O   0  0  0  0  0  0  0  0  0  0  0  0
  191.2640  176.6560  144.4630 C   0  0  0  0  0  2  0  0  0  0  0  0
  190.5640  176.0440  143.2630 C   0  0  1  0  0  0  0  0  0  0  0  0
  191.3900  175.3150  142.2760 C   0  0  0  0  0  2  0  0  0  0  0  0
  190.6500  174.6400  143.2710 O   0  0  0  0  0  0  0  0  0  0  0  0
  188.1210  175.6560  142.8280 C   0  0  0  0  0  3  0  0  0  0  0  0
  186.7300  177.4330  141.9850 C   0  0  0  0  0  0  0  0  0  0  0  0
  187.8070  178.2630  141.9780 N   0  0  0  0  0  0  0  0  0  0  0  0
  185.4050  177.9290  141.5280 C   0  0  0  0  0  1  0  0  0  0  0  0
  189.2140  176.5270  142.8320 C   0  0  0  0  0  0  0  0  0  0  0  0
  189.0370  177.8420  142.3860 C   0  0  0  0  0  3  0  0  0  0  0  0
  186.8690  176.1080  142.4070 C   0  0  0  0  0  3  0  0  0  0  0  0
  1 20  1  6  0  0  0
  1 10  1  0  0  0  0
  1  4  1  0  0  0  0
  2  6  1  0  0  0  0
  3  5  1  0  0  0  0
  3  4  1  0  0  0  0
  4  6  1  0  0  0  0
  5  2  2  0  0  0  0
  7  8  2  0  0  0  0
  8  9  1  0  0  0  0
  8  5  1  0  0  0  0
 11 16  1  1  0  0  0
 11 10  1  0  0  0  0
 11 13  1  0  0  0  0
 13 12  1  0  0  0  0
 14 13  1  0  0  0  0
 15 16  2  0  0  0  0
 18 17  1  0  0  0  0
 18 16  1  1  0  0  0
 19 18  1  0  0  0  0
 19 17  1  0  0  0  0
 21 23  1  0  0  0  0
 21 20  1  1  0  0  0
 22 21  1  0  0  0  0
 22 23  1  0  0  0  0
 24 28  1  0  0  0  0
 25 30  1  0  0  0  0
 26 25  2  0  0  0  0
 26 29  1  0  0  0  0
 27 25  1  0  0  0  0
 28 21  1  0  0  0  0
 29 28  2  0  0  0  0
 30 24  2  0  0  0  0
M  END
>  <MODEL>
9

>  <REMARK>
 VINA RESULT:      -6.1      3.191      6.142
  Name = 
  10 active torsions:
  status: ('A' for Active; 'I' for Inactive)
    1  A    between atoms: O_3  and  C_23
    2  A    between atoms: O_3  and  C_26
    3  A    between atoms: C_8  and  C_23
    4  A    between atoms: C_10  and  C_19
    5  A    between atoms: C_10  and  C_22
    6  A    between atoms: N_13  and  C_26
    7  A    between atoms: C_14  and  C_15
    8  A    between atoms: C_16  and  C_29
    9  A    between atoms: C_19  and  C_26
   10  A    between atoms: C_23  and  C_29
                            x       y       z     vdW  Elec       q    Type
                         _______ _______ _______ _____ _____    ______ ____

>  <TORSDO>
F 10

$$$$
