=
 OpenBabel11042414313D

 64 72  0  0  1  0  0  0  0  0999 V2000
  191.8600  170.2780  141.9650 C   0  0  0  0  0  2  0  0  0  0  0  0
  190.0250  171.9610  144.6200 C   0  0  0  0  0  2  0  0  0  0  0  0
  193.0090  176.4850  146.6090 N   0  0  0  0  0  0  0  0  0  0  0  0
  192.8060  175.3300  144.4120 C   0  0  0  0  0  0  0  0  0  0  0  0
  191.5650  168.9010  139.9170 C   0  0  0  0  0  2  0  0  0  0  0  0
  191.8890  174.4680  143.8350 C   0  0  0  0  0  0  0  0  0  0  0  0
  190.3460  171.2310  135.7330 C   0  0  0  0  0  2  0  0  0  0  0  0
  191.4020  171.3420  138.2640 C   0  0  2  0  0  3  0  0  0  0  0  0
  191.4990  169.9420  137.6160 C   0  0  2  0  0  3  0  0  0  0  0  0
  191.9820  171.3500  139.6920 C   0  0  1  0  0  3  0  0  0  0  0  0
  195.2890  176.2800  145.7800 N   0  0  0  0  0  0  0  0  0  0  0  0
  190.9120  174.2480  144.8240 C   0  0  0  0  0  0  0  0  0  0  0  0
  189.9670  171.8750  138.1920 C   0  0  0  0  0  2  0  0  0  0  0  0
  190.7660  169.8630  136.2680 C   0  0  0  0  0  2  0  0  0  0  0  0
  195.1980  175.8440  144.5560 C   0  0  0  0  0  0  0  0  0  0  0  0
  196.3910  175.3530  143.9320 N   0  0  0  0  0  2  0  0  0  0  0  0
  190.9320  168.8520  138.5310 C   0  0  0  0  0  2  0  0  0  0  0  0
  191.9780  172.7230  140.3440 C   0  0  0  0  0  0  0  0  0  0  0  0
  191.5640  171.6010  142.5870 C   0  0  1  0  0  3  0  0  0  0  0  0
  194.2680  176.8150  146.6460 C   0  0  0  0  0  3  0  0  0  0  0  0
  189.4670  171.9810  136.7430 C   0  0  1  0  0  3  0  0  0  0  0  0
  191.3150  170.2630  140.5480 C   0  0  2  0  0  3  0  0  0  0  0  0
  192.3910  175.5750  145.6950 C   0  0  0  0  0  0  0  0  0  0  0  0
  192.3800  173.7690  139.6190 C   0  0  0  0  0  2  0  0  0  0  0  0
  191.8120  172.8490  141.8230 C   0  0  0  0  0  0  0  0  0  0  0  0
  193.9440  176.0130  143.7510 C   0  0  0  0  0  2  0  0  0  0  0  0
  191.2370  174.9330  145.9430 N   0  0  0  0  0  0  0  0  0  0  0  0
  189.6700  173.4050  144.7160 C   0  0  0  0  0  2  0  0  0  0  0  0
  190.7910  171.6550  143.6230 C   0  0  0  0  0  2  0  0  0  0  0  0
  189.3800  173.4390  136.3410 C   0  0  0  0  0  1  0  0  0  0  0  0
  191.9420  174.0680  142.4010 C   0  0  0  0  0  3  0  0  0  0  0  0
  196.5960  173.0240  140.3920 C   0  0  0  0  0  0  0  0  0  0  0  0
  196.3570  173.1970  142.7990 C   0  0  0  0  0  3  0  0  0  0  0  0
  196.6620  172.2700  139.1840 N   0  0  0  0  0  1  0  0  0  0  0  0
  196.6460  175.1940  141.4740 C   0  0  0  0  0  3  0  0  0  0  0  0
  196.7030  174.4160  140.3170 C   0  0  0  0  0  3  0  0  0  0  0  0
  196.4150  172.3970  141.6470 C   0  0  0  0  0  0  0  0  0  0  0  0
  196.4860  174.5870  142.7240 C   0  0  0  0  0  0  0  0  0  0  0  0
  196.2810  170.9310  141.8080 C   0  0  0  0  0  0  0  0  0  0  0  0
  195.2100  170.4140  142.2250 O   0  0  0  0  0  1  0  0  0  0  0  0
  197.3450  170.0970  141.4830 O   0  0  0  0  0  0  0  0  0  0  0  0
  190.5050  174.9470  147.2030 C   0  0  0  0  0  2  0  0  0  0  0  0
  189.1940  175.6980  147.0310 C   0  0  0  0  0  2  0  0  0  0  0  0
  189.4070  177.1940  147.1750 C   0  0  0  0  0  2  0  0  0  0  0  0
  188.0770  177.9300  147.1800 C   0  0  0  0  0  2  0  0  0  0  0  0
  186.9300  176.9360  147.1310 C   0  0  0  0  0  2  0  0  0  0  0  0
  186.1340  177.1270  145.8500 C   0  0  0  0  0  2  0  0  0  0  0  0
  187.0320  177.5990  144.7150 C   0  0  1  0  0  3  0  0  0  0  0  0
  187.3460  176.4430  143.8090 C   0  0  0  0  0  3  0  0  0  0  0  0
  188.3220  176.4430  142.8870 C   0  0  0  0  0  0  0  0  0  0  0  0
  190.6790  177.4340  142.6450 C   0  0  0  0  0  2  0  0  0  0  0  0
  188.7560  178.5780  141.6770 O   0  0  0  0  0  1  0  0  0  0  0  0
  189.9970  178.2150  143.7640 C   0  0  0  0  0  2  0  0  0  0  0  0
  189.1820  177.6480  142.6230 C   0  0  0  0  0  0  0  0  0  0  0  0
  187.3150  174.4780  142.0260 O   0  0  0  0  0  1  0  0  0  0  0  0
  188.4850  175.2340  142.0190 C   0  0  0  0  0  2  0  0  0  0  0  0
  186.3720  178.5930  143.9890 O   0  0  0  0  0  0  0  0  0  0  0  0
  185.0120  178.2890  144.1010 C   0  0  0  0  0  2  0  0  0  0  0  0
  182.9900  178.3030  142.6200 C   0  0  0  0  0  3  0  0  0  0  0  0
  183.2140  178.2190  140.2110 C   0  0  0  0  0  3  0  0  0  0  0  0
  184.6070  178.1880  140.3400 C   0  0  0  0  0  3  0  0  0  0  0  0
  185.1920  178.2150  141.6090 C   0  0  0  0  0  3  0  0  0  0  0  0
  182.4060  178.2770  141.3510 C   0  0  0  0  0  3  0  0  0  0  0  0
  184.3840  178.2710  142.7510 C   0  0  0  0  0  0  0  0  0  0  0  0
  2 28  1  0  0  0  0
  3 20  2  0  0  0  0
  4 23  2  0  0  0  0
  6  4  1  0  0  0  0
  6 12  2  0  0  0  0
  7 14  1  0  0  0  0
  7 21  1  0  0  0  0
  8 13  1  1  0  0  0
  8 10  1  0  0  0  0
  9 14  1  6  0  0  0
  9  8  1  0  0  0  0
  9 17  1  0  0  0  0
 10 18  1  1  0  0  0
 10 22  1  0  0  0  0
 11 20  1  0  0  0  0
 12 27  1  0  0  0  0
 15 11  2  0  0  0  0
 16 15  1  0  0  0  0
 17  5  1  0  0  0  0
 18 25  1  0  0  0  0
 19  1  1  6  0  0  0
 19 29  1  0  0  0  0
 21 30  1  6  0  0  0
 21 13  1  0  0  0  0
 22  5  1  6  0  0  0
 22  1  1  0  0  0  0
 23 27  1  0  0  0  0
 23  3  1  0  0  0  0
 24 18  2  0  0  0  0
 25 31  2  0  0  0  0
 25 19  1  0  0  0  0
 26  4  1  0  0  0  0
 26 15  1  0  0  0  0
 27 42  1  0  0  0  0
 28 12  1  0  0  0  0
 29  2  1  0  0  0  0
 31  6  1  0  0  0  0
 32 37  1  0  0  0  0
 34 32  1  0  0  0  0
 35 38  2  0  0  0  0
 36 32  2  0  0  0  0
 36 35  1  0  0  0  0
 37 39  1  0  0  0  0
 37 33  2  0  0  0  0
 38 33  1  0  0  0  0
 38 16  1  0  0  0  0
 39 40  1  0  0  0  0
 41 39  2  0  0  0  0
 43 44  1  0  0  0  0
 43 42  1  0  0  0  0
 44 45  1  0  0  0  0
 46 45  1  0  0  0  0
 47 46  1  0  0  0  0
 48 49  1  6  0  0  0
 48 47  1  0  0  0  0
 50 49  2  0  0  0  0
 51 53  1  0  0  0  0
 52 54  1  0  0  0  0
 54 51  1  0  0  0  0
 54 50  1  0  0  0  0
 54 53  1  0  0  0  0
 56 55  1  0  0  0  0
 56 50  1  0  0  0  0
 57 58  1  0  0  0  0
 57 48  1  0  0  0  0
 59 64  1  0  0  0  0
 60 61  2  0  0  0  0
 60 63  1  0  0  0  0
 61 62  1  0  0  0  0
 62 64  2  0  0  0  0
 63 59  2  0  0  0  0
 64 58  1  0  0  0  0
M  END
>  <MODEL>
1

>  <REMARK>
 VINA RESULT:      -8.1      0.000      0.000
  Name = 
  15 active torsions:
  status: ('A' for Active; 'I' for Inactive)
    1  A    between atoms: C_4  and  C_20
    2  A    between atoms: C_4  and  C_25
    3  A    between atoms: C_4  and  O_33
    4  A    between atoms: C_10  and  C_25
    5  A    between atoms: C_10  and  C_50
    6  A    between atoms: C_14  and  C_38
    7  A    between atoms: C_14  and  C_53
    8  A    between atoms: N_32  and  C_60
    9  A    between atoms: O_33  and  C_51
   10  A    between atoms: C_34  and  C_51
   11  A    between atoms: C_36  and  C_43
   12  A    between atoms: C_36  and  C_62
   13  A    between atoms: C_38  and  C_50
   14  A    between atoms: C_39  and  C_57
   15  A    between atoms: C_53  and  N_56
                            x       y       z     vdW  Elec       q    Type
                         _______ _______ _______ _____ _____    ______ ____

>  <TORSDO>
F 15

$$$$
=
 OpenBabel11042414313D

 64 72  0  0  1  0  0  0  0  0999 V2000
  190.0400  173.4410  140.9330 C   0  0  0  0  0  2  0  0  0  0  0  0
  191.3480  176.1710  142.9530 C   0  0  0  0  0  2  0  0  0  0  0  0
  196.1940  174.5710  145.6500 N   0  0  0  0  0  0  0  0  0  0  0  0
  195.0940  173.9810  143.4950 C   0  0  0  0  0  0  0  0  0  0  0  0
  188.7020  172.9460  138.8970 C   0  0  0  0  0  2  0  0  0  0  0  0
  194.1250  174.5610  142.6940 C   0  0  0  0  0  0  0  0  0  0  0  0
  190.9620  173.2930  134.5160 C   0  0  0  0  0  2  0  0  0  0  0  0
  191.1440  173.0100  137.2400 C   0  0  2  0  0  3  0  0  0  0  0  0
  189.7960  172.5270  136.6580 C   0  0  2  0  0  3  0  0  0  0  0  0
  191.1910  172.8560  138.7730 C   0  0  1  0  0  3  0  0  0  0  0  0
  196.3550  172.1470  145.4920 N   0  0  0  0  0  0  0  0  0  0  0  0
  193.7330  175.7300  143.3730 C   0  0  0  0  0  0  0  0  0  0  0  0
  191.4630  174.4310  136.7650 C   0  0  0  0  0  2  0  0  0  0  0  0
  189.6530  172.8370  135.1610 C   0  0  0  0  0  2  0  0  0  0  0  0
  195.9500  171.8290  144.2960 C   0  0  0  0  0  0  0  0  0  0  0  0
  195.6600  170.4500  144.0340 N   0  0  0  0  0  2  0  0  0  0  0  0
  188.6050  173.1560  137.3900 C   0  0  0  0  0  2  0  0  0  0  0  0
  192.5270  173.2470  139.3840 C   0  0  0  0  0  0  0  0  0  0  0  0
  191.2840  174.0930  141.4330 C   0  0  1  0  0  3  0  0  0  0  0  0
  196.7050  173.4360  146.0330 C   0  0  0  0  0  3  0  0  0  0  0  0
  191.5400  174.5200  135.2330 C   0  0  1  0  0  3  0  0  0  0  0  0
  189.9910  173.5630  139.4190 C   0  0  2  0  0  3  0  0  0  0  0  0
  195.2340  174.7680  144.6080 C   0  0  0  0  0  0  0  0  0  0  0  0
  193.6440  172.8210  138.7900 C   0  0  0  0  0  2  0  0  0  0  0  0
  192.5800  173.8330  140.7560 C   0  0  0  0  0  0  0  0  0  0  0  0
  195.9580  172.8200  143.1710 C   0  0  0  0  0  2  0  0  0  0  0  0
  194.4210  175.8350  144.5320 N   0  0  0  0  0  0  0  0  0  0  0  0
  192.7200  176.7520  142.9320 C   0  0  0  0  0  2  0  0  0  0  0  0
  191.1900  175.1220  142.2120 C   0  0  0  0  0  2  0  0  0  0  0  0
  192.9830  174.7100  134.8080 C   0  0  0  0  0  1  0  0  0  0  0  0
  193.7850  174.0540  141.3360 C   0  0  0  0  0  3  0  0  0  0  0  0
  193.5090  168.9310  140.7080 C   0  0  0  0  0  0  0  0  0  0  0  0
  193.5590  169.9800  142.8930 C   0  0  0  0  0  3  0  0  0  0  0  0
  192.8160  168.4180  139.5720 N   0  0  0  0  0  1  0  0  0  0  0  0
  195.6270  169.3680  141.8060 C   0  0  0  0  0  3  0  0  0  0  0  0
  194.9070  168.8800  140.7150 C   0  0  0  0  0  3  0  0  0  0  0  0
  192.8180  169.4920  141.8060 C   0  0  0  0  0  0  0  0  0  0  0  0
  194.9550  169.9090  142.9080 C   0  0  0  0  0  0  0  0  0  0  0  0
  191.3410  169.5930  141.8680 C   0  0  0  0  0  0  0  0  0  0  0  0
  190.6040  168.7160  141.3410 O   0  0  0  0  0  0  0  0  0  0  0  0
  190.7450  170.6620  142.5270 O   0  0  0  0  0  1  0  0  0  0  0  0
  194.2860  176.8810  145.5370 C   0  0  0  0  0  2  0  0  0  0  0  0
  193.5120  176.3500  146.7340 C   0  0  0  0  0  2  0  0  0  0  0  0
  192.0230  176.5850  146.5600 C   0  0  0  0  0  2  0  0  0  0  0  0
  191.2770  175.2650  146.4610 C   0  0  0  0  0  2  0  0  0  0  0  0
  189.7860  175.4930  146.6290 C   0  0  0  0  0  2  0  0  0  0  0  0
  189.3670  176.7520  145.8880 C   0  0  0  0  0  2  0  0  0  0  0  0
  188.0220  176.5590  145.2000 C   0  0  1  0  0  3  0  0  0  0  0  0
  187.4250  177.8990  144.8800 C   0  0  0  0  0  3  0  0  0  0  0  0
  186.3560  178.4230  145.5010 C   0  0  0  0  0  0  0  0  0  0  0  0
  185.0400  178.5030  147.7060 C   0  0  0  0  0  2  0  0  0  0  0  0
  184.7870  176.6120  146.1880 O   0  0  0  0  0  1  0  0  0  0  0  0
  186.2180  177.5620  147.9430 C   0  0  0  0  0  2  0  0  0  0  0  0
  185.5990  177.6800  146.5670 C   0  0  0  0  0  0  0  0  0  0  0  0
  184.5670  179.6030  144.4900 O   0  0  0  0  0  1  0  0  0  0  0  0
  185.8400  179.7490  145.0400 C   0  0  0  0  0  2  0  0  0  0  0  0
  188.2100  175.8380  144.0180 O   0  0  0  0  0  0  0  0  0  0  0  0
  186.9240  175.5720  143.5410 C   0  0  0  0  0  2  0  0  0  0  0  0
  187.5770  176.1620  141.1940 C   0  0  0  0  0  3  0  0  0  0  0  0
  186.2560  177.7170  139.8910 C   0  0  0  0  0  3  0  0  0  0  0  0
  185.3690  177.8660  140.9640 C   0  0  0  0  0  3  0  0  0  0  0  0
  185.5870  177.1630  142.1520 C   0  0  0  0  0  3  0  0  0  0  0  0
  187.3590  176.8660  140.0060 C   0  0  0  0  0  3  0  0  0  0  0  0
  186.6910  176.3110  142.2690 C   0  0  0  0  0  0  0  0  0  0  0  0
  3 20  2  0  0  0  0
  4 23  2  0  0  0  0
  6 12  2  0  0  0  0
  6  4  1  0  0  0  0
  7 14  1  0  0  0  0
  7 21  1  0  0  0  0
  8 13  1  1  0  0  0
  8 10  1  0  0  0  0
  9 14  1  6  0  0  0
  9  8  1  0  0  0  0
  9 17  1  0  0  0  0
 10 18  1  1  0  0  0
 10 22  1  0  0  0  0
 11 20  1  0  0  0  0
 12 27  1  0  0  0  0
 15 11  2  0  0  0  0
 16 15  1  0  0  0  0
 17  5  1  0  0  0  0
 18 25  1  0  0  0  0
 19  1  1  6  0  0  0
 19 29  1  0  0  0  0
 21 30  1  1  0  0  0
 21 13  1  0  0  0  0
 22  5  1  6  0  0  0
 22  1  1  0  0  0  0
 23  3  1  0  0  0  0
 24 18  2  0  0  0  0
 25 31  2  0  0  0  0
 25 19  1  0  0  0  0
 26  4  1  0  0  0  0
 26 15  1  0  0  0  0
 27 23  1  0  0  0  0
 27 42  1  0  0  0  0
 28  2  1  0  0  0  0
 28 12  1  0  0  0  0
 29  2  1  0  0  0  0
 31  6  1  0  0  0  0
 32 36  2  0  0  0  0
 32 37  1  0  0  0  0
 33 38  1  0  0  0  0
 34 32  1  0  0  0  0
 35 38  2  0  0  0  0
 36 35  1  0  0  0  0
 37 39  1  0  0  0  0
 37 33  2  0  0  0  0
 38 16  1  0  0  0  0
 39 41  1  0  0  0  0
 40 39  2  0  0  0  0
 42 43  1  0  0  0  0
 44 43  1  0  0  0  0
 45 44  1  0  0  0  0
 45 46  1  0  0  0  0
 47 46  1  0  0  0  0
 48 49  1  6  0  0  0
 48 47  1  0  0  0  0
 49 50  2  0  0  0  0
 50 54  1  0  0  0  0
 51 53  1  0  0  0  0
 52 54  1  0  0  0  0
 54 51  1  0  0  0  0
 54 53  1  0  0  0  0
 55 56  1  0  0  0  0
 56 50  1  0  0  0  0
 57 48  1  0  0  0  0
 58 57  1  0  0  0  0
 59 64  1  0  0  0  0
 60 63  1  0  0  0  0
 60 61  2  0  0  0  0
 61 62  1  0  0  0  0
 62 64  2  0  0  0  0
 63 59  2  0  0  0  0
 64 58  1  0  0  0  0
M  END
>  <MODEL>
2

>  <REMARK>
 VINA RESULT:      -7.5      2.324      4.180
  Name = 
  15 active torsions:
  status: ('A' for Active; 'I' for Inactive)
    1  A    between atoms: C_4  and  C_20
    2  A    between atoms: C_4  and  C_25
    3  A    between atoms: C_4  and  O_33
    4  A    between atoms: C_10  and  C_25
    5  A    between atoms: C_10  and  C_50
    6  A    between atoms: C_14  and  C_38
    7  A    between atoms: C_14  and  C_53
    8  A    between atoms: N_32  and  C_60
    9  A    between atoms: O_33  and  C_51
   10  A    between atoms: C_34  and  C_51
   11  A    between atoms: C_36  and  C_43
   12  A    between atoms: C_36  and  C_62
   13  A    between atoms: C_38  and  C_50
   14  A    between atoms: C_39  and  C_57
   15  A    between atoms: C_53  and  N_56
                            x       y       z     vdW  Elec       q    Type
                         _______ _______ _______ _____ _____    ______ ____

>  <TORSDO>
F 15

$$$$
=
 OpenBabel11042414313D

 64 72  0  0  1  0  0  0  0  0999 V2000
  193.8250  175.1630  143.2400 C   0  0  0  0  0  2  0  0  0  0  0  0
  190.2120  175.5390  143.0200 C   0  0  0  0  0  2  0  0  0  0  0  0
  188.3290  174.0900  137.7590 N   0  0  0  0  0  0  0  0  0  0  0  0
  190.2140  173.3740  139.2200 C   0  0  0  0  0  0  0  0  0  0  0  0
  195.6750  174.6950  144.8330 C   0  0  0  0  0  2  0  0  0  0  0  0
  190.5010  173.4670  140.5720 C   0  0  0  0  0  0  0  0  0  0  0  0
  196.4770  169.9900  146.1130 C   0  0  0  0  0  2  0  0  0  0  0  0
  195.3980  171.7970  144.3500 C   0  0  2  0  0  3  0  0  0  0  0  0
  196.5850  172.3620  145.1630 C   0  0  2  0  0  3  0  0  0  0  0  0
  194.8080  172.8520  143.3950 C   0  0  1  0  0  3  0  0  0  0  0  0
  190.2690  173.9760  136.2920 N   0  0  0  0  0  0  0  0  0  0  0  0
  189.4200  174.1700  141.1340 C   0  0  0  0  0  0  0  0  0  0  0  0
  194.3530  171.1710  145.2790 C   0  0  0  0  0  2  0  0  0  0  0  0
  197.0720  171.3910  146.2500 C   0  0  0  0  0  2  0  0  0  0  0  0
  191.2260  173.4330  136.9890 C   0  0  0  0  0  0  0  0  0  0  0  0
  192.5590  173.5160  136.4700 N   0  0  0  0  0  2  0  0  0  0  0  0
  196.2290  173.6910  145.8370 C   0  0  0  0  0  2  0  0  0  0  0  0
  193.6860  172.3210  142.5180 C   0  0  0  0  0  0  0  0  0  0  0  0
  192.5810  174.6070  142.6340 C   0  0  1  0  0  3  0  0  0  0  0  0
  188.8560  174.0510  136.5690 C   0  0  0  0  0  3  0  0  0  0  0  0
  194.9430  170.0310  146.1230 C   0  0  1  0  0  3  0  0  0  0  0  0
  194.4320  174.1240  144.1680 C   0  0  2  0  0  3  0  0  0  0  0  0
  189.0270  174.0240  139.0050 C   0  0  0  0  0  0  0  0  0  0  0  0
  193.8470  171.1320  141.9340 C   0  0  0  0  0  2  0  0  0  0  0  0
  192.5760  173.2260  142.0910 C   0  0  0  0  0  0  0  0  0  0  0  0
  190.9410  172.5880  138.1940 C   0  0  0  0  0  2  0  0  0  0  0  0
  188.5360  174.4960  140.1640 N   0  0  0  0  0  0  0  0  0  0  0  0
  189.2100  174.5280  142.5810 C   0  0  0  0  0  2  0  0  0  0  0  0
  191.4460  175.1760  142.8840 C   0  0  0  0  0  2  0  0  0  0  0  0
  194.4070  168.7030  145.6280 C   0  0  0  0  0  1  0  0  0  0  0  0
  191.6570  172.7720  141.2050 C   0  0  0  0  0  3  0  0  0  0  0  0
  196.1280  172.7370  138.6290 C   0  0  0  0  0  0  0  0  0  0  0  0
  194.1500  174.0810  138.2270 C   0  0  0  0  0  3  0  0  0  0  0  0
  197.3280  172.4450  139.3390 N   0  0  0  0  0  1  0  0  0  0  0  0
  194.5790  172.1370  136.8620 C   0  0  0  0  0  3  0  0  0  0  0  0
  195.7460  171.8890  137.5850 C   0  0  0  0  0  3  0  0  0  0  0  0
  195.3210  173.8500  138.9650 C   0  0  0  0  0  0  0  0  0  0  0  0
  193.7810  173.2450  137.1700 C   0  0  0  0  0  0  0  0  0  0  0  0
  195.6500  174.7870  140.0640 C   0  0  0  0  0  0  0  0  0  0  0  0
  195.1290  175.9330  140.1240 O   0  0  0  0  0  0  0  0  0  0  0  0
  196.5400  174.4020  141.0600 O   0  0  0  0  0  1  0  0  0  0  0  0
  187.3020  175.2530  140.3240 C   0  0  0  0  0  2  0  0  0  0  0  0
  187.4960  176.6730  139.8130 C   0  0  0  0  0  2  0  0  0  0  0  0
  187.0230  177.6840  140.8410 C   0  0  0  0  0  2  0  0  0  0  0  0
  188.1590  178.0800  141.7700 C   0  0  0  0  0  2  0  0  0  0  0  0
  187.6130  178.4410  143.1400 C   0  0  0  0  0  2  0  0  0  0  0  0
  188.5230  177.8870  144.2240 C   0  0  0  0  0  2  0  0  0  0  0  0
  187.7150  177.4110  145.4240 C   0  0  1  0  0  3  0  0  0  0  0  0
  186.2800  177.8200  145.2560 C   0  0  0  0  0  3  0  0  0  0  0  0
  185.5050  178.2980  146.2430 C   0  0  0  0  0  0  0  0  0  0  0  0
  186.0110  179.8150  148.2530 C   0  0  0  0  0  2  0  0  0  0  0  0
  185.6580  177.4240  148.5720 O   0  0  0  0  0  1  0  0  0  0  0  0
  187.3180  179.1070  147.9100 C   0  0  0  0  0  2  0  0  0  0  0  0
  185.9910  178.4240  147.6600 C   0  0  0  0  0  0  0  0  0  0  0  0
  183.9760  179.2400  144.6960 O   0  0  0  0  0  1  0  0  0  0  0  0
  184.0750  178.6150  145.9380 C   0  0  0  0  0  2  0  0  0  0  0  0
  187.7970  176.0190  145.5100 O   0  0  0  0  0  0  0  0  0  0  0  0
  188.2370  175.7570  146.8110 C   0  0  0  0  0  2  0  0  0  0  0  0
  190.3230  174.4610  146.3110 C   0  0  0  0  0  3  0  0  0  0  0  0
  192.5040  175.3510  146.8720 C   0  0  0  0  0  3  0  0  0  0  0  0
  191.9020  176.5060  147.3850 C   0  0  0  0  0  3  0  0  0  0  0  0
  190.5100  176.6380  147.3600 C   0  0  0  0  0  3  0  0  0  0  0  0
  191.7150  174.3290  146.3350 C   0  0  0  0  0  3  0  0  0  0  0  0
  189.7200  175.6150  146.8250 C   0  0  0  0  0  0  0  0  0  0  0  0
  3 23  1  0  0  0  0
  4  6  1  0  0  0  0
  5 17  1  0  0  0  0
  6 12  2  0  0  0  0
  6 31  1  0  0  0  0
  7 21  1  0  0  0  0
  7 14  1  0  0  0  0
  8  9  1  0  0  0  0
  8 13  1  1  0  0  0
  9 17  1  1  0  0  0
  9 14  1  0  0  0  0
 10 18  1  1  0  0  0
 10 22  1  0  0  0  0
 10  8  1  0  0  0  0
 11 20  1  0  0  0  0
 11 15  2  0  0  0  0
 12 28  1  0  0  0  0
 13 21  1  0  0  0  0
 15 26  1  0  0  0  0
 16 15  1  0  0  0  0
 16 38  1  0  0  0  0
 19 29  1  1  0  0  0
 19  1  1  0  0  0  0
 20  3  2  0  0  0  0
 21 30  1  6  0  0  0
 22  1  1  6  0  0  0
 22  5  1  0  0  0  0
 23  4  2  0  0  0  0
 23 27  1  0  0  0  0
 24 18  2  0  0  0  0
 25 18  1  0  0  0  0
 25 19  1  0  0  0  0
 26  4  1  0  0  0  0
 27 42  1  0  0  0  0
 27 12  1  0  0  0  0
 28  2  1  0  0  0  0
 29  2  1  0  0  0  0
 31 25  2  0  0  0  0
 32 37  1  0  0  0  0
 32 34  1  0  0  0  0
 33 37  2  0  0  0  0
 35 38  2  0  0  0  0
 35 36  1  0  0  0  0
 36 32  2  0  0  0  0
 37 39  1  0  0  0  0
 38 33  1  0  0  0  0
 39 40  2  0  0  0  0
 39 41  1  0  0  0  0
 43 42  1  0  0  0  0
 43 44  1  0  0  0  0
 44 45  1  0  0  0  0
 45 46  1  0  0  0  0
 46 47  1  0  0  0  0
 48 47  1  6  0  0  0
 48 57  1  0  0  0  0
 49 48  1  0  0  0  0
 49 50  2  0  0  0  0
 50 54  1  0  0  0  0
 53 51  1  0  0  0  0
 54 53  1  0  0  0  0
 54 51  1  0  0  0  0
 54 52  1  0  0  0  0
 55 56  1  0  0  0  0
 56 50  1  0  0  0  0
 57 58  1  0  0  0  0
 58 64  1  0  0  0  0
 59 63  2  0  0  0  0
 59 64  1  0  0  0  0
 60 61  2  0  0  0  0
 62 61  1  0  0  0  0
 63 60  1  0  0  0  0
 64 62  2  0  0  0  0
M  END
>  <MODEL>
3

>  <REMARK>
 VINA RESULT:      -7.4      2.938      7.018
  Name = 
  15 active torsions:
  status: ('A' for Active; 'I' for Inactive)
    1  A    between atoms: C_4  and  C_20
    2  A    between atoms: C_4  and  C_25
    3  A    between atoms: C_4  and  O_33
    4  A    between atoms: C_10  and  C_25
    5  A    between atoms: C_10  and  C_50
    6  A    between atoms: C_14  and  C_38
    7  A    between atoms: C_14  and  C_53
    8  A    between atoms: N_32  and  C_60
    9  A    between atoms: O_33  and  C_51
   10  A    between atoms: C_34  and  C_51
   11  A    between atoms: C_36  and  C_43
   12  A    between atoms: C_36  and  C_62
   13  A    between atoms: C_38  and  C_50
   14  A    between atoms: C_39  and  C_57
   15  A    between atoms: C_53  and  N_56
                            x       y       z     vdW  Elec       q    Type
                         _______ _______ _______ _____ _____    ______ ____

>  <TORSDO>
F 15

$$$$
=
 OpenBabel11042414313D

 64 72  0  0  1  0  0  0  0  0999 V2000
  194.5730  174.1280  142.7170 C   0  0  0  0  0  2  0  0  0  0  0  0
  191.0790  175.0660  142.3150 C   0  0  0  0  0  2  0  0  0  0  0  0
  188.9910  173.0570  137.3220 N   0  0  0  0  0  0  0  0  0  0  0  0
  190.7210  172.3000  138.9470 C   0  0  0  0  0  0  0  0  0  0  0  0
  196.3100  173.6410  144.4280 C   0  0  0  0  0  2  0  0  0  0  0  0
  191.0150  172.5780  140.2710 C   0  0  0  0  0  0  0  0  0  0  0  0
  196.2840  169.1650  146.5240 C   0  0  0  0  0  2  0  0  0  0  0  0
  195.5380  170.7920  144.4420 C   0  0  2  0  0  3  0  0  0  0  0  0
  196.8020  171.2810  145.1850 C   0  0  2  0  0  3  0  0  0  0  0  0
  195.1420  171.7470  143.3000 C   0  0  1  0  0  3  0  0  0  0  0  0
  190.8880  172.3610  135.9620 N   0  0  0  0  0  0  0  0  0  0  0  0
  190.0690  173.5410  140.6680 C   0  0  0  0  0  0  0  0  0  0  0  0
  194.3980  170.5240  145.4290 C   0  0  0  0  0  2  0  0  0  0  0  0
  197.1110  170.4480  146.4380 C   0  0  0  0  0  2  0  0  0  0  0  0
  191.7340  171.7940  136.7740 C   0  0  0  0  0  0  0  0  0  0  0  0
  193.0630  171.5590  136.2930 N   0  0  0  0  0  2  0  0  0  0  0  0
  196.6790  172.7480  145.6080 C   0  0  0  0  0  2  0  0  0  0  0  0
  193.9480  171.2690  142.4900 C   0  0  0  0  0  0  0  0  0  0  0  0
  193.2540  173.6930  142.1750 C   0  0  1  0  0  3  0  0  0  0  0  0
  189.5080  172.7220  136.1750 C   0  0  0  0  0  3  0  0  0  0  0  0
  194.7800  169.4660  146.4750 C   0  0  1  0  0  3  0  0  0  0  0  0
  194.9880  173.1800  143.8290 C   0  0  2  0  0  3  0  0  0  0  0  0
  189.6650  173.0940  138.5840 C   0  0  0  0  0  0  0  0  0  0  0  0
  193.9040  169.9860  142.1260 C   0  0  0  0  0  2  0  0  0  0  0  0
  193.0130  172.2590  141.8780 C   0  0  0  0  0  0  0  0  0  0  0  0
  191.3040  171.2340  138.0960 C   0  0  0  0  0  2  0  0  0  0  0  0
  189.2580  173.8370  139.6270 N   0  0  0  0  0  0  0  0  0  0  0  0
  189.9200  174.1780  142.0240 C   0  0  0  0  0  2  0  0  0  0  0  0
  192.2330  174.4810  142.2850 C   0  0  0  0  0  2  0  0  0  0  0  0
  194.0250  168.1820  146.1990 C   0  0  0  0  0  1  0  0  0  0  0  0
  192.0310  171.8200  141.0530 C   0  0  0  0  0  3  0  0  0  0  0  0
  196.4580  170.6090  138.6540 C   0  0  0  0  0  0  0  0  0  0  0  0
  195.0090  172.2380  137.5940 C   0  0  0  0  0  3  0  0  0  0  0  0
  197.5880  170.2570  139.4500 N   0  0  0  0  0  1  0  0  0  0  0  0
  194.5390  169.8810  137.3630 C   0  0  0  0  0  3  0  0  0  0  0  0
  195.6540  169.5840  138.1470 C   0  0  0  0  0  3  0  0  0  0  0  0
  196.1350  171.9590  138.3820 C   0  0  0  0  0  0  0  0  0  0  0  0
  194.2180  171.2110  137.0700 C   0  0  0  0  0  0  0  0  0  0  0  0
  196.9300  173.1000  138.8930 C   0  0  0  0  0  0  0  0  0  0  0  0
  197.8270  173.6380  138.1890 O   0  0  0  0  0  0  0  0  0  0  0  0
  196.6830  173.6040  140.1640 O   0  0  0  0  0  1  0  0  0  0  0  0
  188.1730  174.8080  139.6130 C   0  0  0  0  0  2  0  0  0  0  0  0
  188.0740  175.4930  140.9680 C   0  0  0  0  0  2  0  0  0  0  0  0
  187.3330  176.8130  140.8520 C   0  0  0  0  0  2  0  0  0  0  0  0
  187.7070  177.7430  141.9940 C   0  0  0  0  0  2  0  0  0  0  0  0
  188.2380  176.9410  143.1690 C   0  0  0  0  0  2  0  0  0  0  0  0
  189.0380  177.8430  144.0940 C   0  0  0  0  0  2  0  0  0  0  0  0
  189.7460  177.0310  145.1690 C   0  0  1  0  0  3  0  0  0  0  0  0
  191.2310  177.2230  145.0460 C   0  0  0  0  0  3  0  0  0  0  0  0
  192.1500  176.3850  145.5530 C   0  0  0  0  0  0  0  0  0  0  0  0
  192.5040  173.8870  146.0340 C   0  0  0  0  0  2  0  0  0  0  0  0
  191.4950  175.3350  147.7160 O   0  0  0  0  0  1  0  0  0  0  0  0
  191.0300  174.0510  145.6750 C   0  0  0  0  0  2  0  0  0  0  0  0
  191.7780  175.1730  146.3610 C   0  0  0  0  0  0  0  0  0  0  0  0
  194.1520  177.0460  146.6350 O   0  0  0  0  0  1  0  0  0  0  0  0
  193.5970  176.7330  145.3960 C   0  0  0  0  0  2  0  0  0  0  0  0
  189.3240  177.4660  146.4280 O   0  0  0  0  0  0  0  0  0  0  0  0
  188.3440  176.5510  146.8230 C   0  0  0  0  0  2  0  0  0  0  0  0
  185.9590  176.7070  146.0670 C   0  0  0  0  0  3  0  0  0  0  0  0
  184.5150  178.4750  146.8720 C   0  0  0  0  0  3  0  0  0  0  0  0
  185.5630  178.9810  147.6480 C   0  0  0  0  0  3  0  0  0  0  0  0
  186.8100  178.3500  147.6330 C   0  0  0  0  0  3  0  0  0  0  0  0
  184.7120  177.3380  146.0820 C   0  0  0  0  0  3  0  0  0  0  0  0
  187.0100  177.2130  146.8420 C   0  0  0  0  0  0  0  0  0  0  0  0
  3 23  1  0  0  0  0
  4  6  1  0  0  0  0
  5 17  1  0  0  0  0
  6 12  2  0  0  0  0
  6 31  1  0  0  0  0
  8  9  1  0  0  0  0
  8 13  1  1  0  0  0
  9 17  1  1  0  0  0
  9 14  1  0  0  0  0
 10 18  1  1  0  0  0
 10 22  1  0  0  0  0
 10  8  1  0  0  0  0
 11 20  1  0  0  0  0
 11 15  2  0  0  0  0
 12 28  1  0  0  0  0
 13 21  1  0  0  0  0
 14  7  1  0  0  0  0
 15 26  1  0  0  0  0
 16 15  1  0  0  0  0
 16 38  1  0  0  0  0
 19 29  1  1  0  0  0
 19  1  1  0  0  0  0
 20  3  2  0  0  0  0
 21 30  1  6  0  0  0
 21  7  1  0  0  0  0
 22  1  1  6  0  0  0
 22  5  1  0  0  0  0
 23  4  2  0  0  0  0
 23 27  1  0  0  0  0
 24 18  2  0  0  0  0
 25 19  1  0  0  0  0
 25 18  1  0  0  0  0
 26  4  1  0  0  0  0
 27 12  1  0  0  0  0
 28  2  1  0  0  0  0
 29  2  1  0  0  0  0
 31 25  2  0  0  0  0
 32 34  1  0  0  0  0
 33 37  2  0  0  0  0
 35 36  1  0  0  0  0
 36 32  2  0  0  0  0
 37 32  1  0  0  0  0
 37 39  1  0  0  0  0
 38 35  2  0  0  0  0
 38 33  1  0  0  0  0
 39 41  1  0  0  0  0
 40 39  2  0  0  0  0
 42 27  1  0  0  0  0
 42 43  1  0  0  0  0
 44 43  1  0  0  0  0
 44 45  1  0  0  0  0
 45 46  1  0  0  0  0
 46 47  1  0  0  0  0
 48 47  1  6  0  0  0
 48 57  1  0  0  0  0
 49 48  1  0  0  0  0
 49 50  2  0  0  0  0
 50 54  1  0  0  0  0
 51 54  1  0  0  0  0
 53 51  1  0  0  0  0
 53 54  1  0  0  0  0
 54 52  1  0  0  0  0
 56 50  1  0  0  0  0
 56 55  1  0  0  0  0
 57 58  1  0  0  0  0
 58 64  1  0  0  0  0
 59 63  2  0  0  0  0
 59 64  1  0  0  0  0
 60 61  2  0  0  0  0
 62 61  1  0  0  0  0
 63 60  1  0  0  0  0
 64 62  2  0  0  0  0
M  END
>  <MODEL>
4

>  <REMARK>
 VINA RESULT:      -7.4      3.156      6.764
  Name = 
  15 active torsions:
  status: ('A' for Active; 'I' for Inactive)
    1  A    between atoms: C_4  and  C_20
    2  A    between atoms: C_4  and  C_25
    3  A    between atoms: C_4  and  O_33
    4  A    between atoms: C_10  and  C_25
    5  A    between atoms: C_10  and  C_50
    6  A    between atoms: C_14  and  C_38
    7  A    between atoms: C_14  and  C_53
    8  A    between atoms: N_32  and  C_60
    9  A    between atoms: O_33  and  C_51
   10  A    between atoms: C_34  and  C_51
   11  A    between atoms: C_36  and  C_43
   12  A    between atoms: C_36  and  C_62
   13  A    between atoms: C_38  and  C_50
   14  A    between atoms: C_39  and  C_57
   15  A    between atoms: C_53  and  N_56
                            x       y       z     vdW  Elec       q    Type
                         _______ _______ _______ _____ _____    ______ ____

>  <TORSDO>
F 15

$$$$
=
 OpenBabel11042414313D

 64 72  0  0  1  0  0  0  0  0999 V2000
  189.9420  171.4490  141.8240 C   0  0  0  0  0  2  0  0  0  0  0  0
  192.4340  169.7820  143.8880 C   0  0  0  0  0  2  0  0  0  0  0  0
  197.2710  168.8380  140.8810 N   0  0  0  0  0  0  0  0  0  0  0  0
  195.4820  170.5710  140.8520 C   0  0  0  0  0  0  0  0  0  0  0  0
  187.9930  172.9880  141.9250 C   0  0  0  0  0  2  0  0  0  0  0  0
  194.5060  170.9930  141.7400 C   0  0  0  0  0  0  0  0  0  0  0  0
  188.9010  177.8280  142.3390 C   0  0  0  0  0  2  0  0  0  0  0  0
  189.7830  175.3200  141.6560 C   0  0  2  0  0  3  0  0  0  0  0  0
  188.2480  175.4770  141.5750 C   0  0  2  0  0  3  0  0  0  0  0  0
  190.2300  173.8910  141.2910 C   0  0  1  0  0  3  0  0  0  0  0  0
  196.7490  169.1820  138.5270 N   0  0  0  0  0  0  0  0  0  0  0  0
  194.6410  170.1570  142.8640 C   0  0  0  0  0  0  0  0  0  0  0  0
  190.3050  175.7860  143.0190 C   0  0  0  0  0  2  0  0  0  0  0  0
  187.7640  176.8340  142.1090 C   0  0  0  0  0  2  0  0  0  0  0  0
  195.9480  170.2080  138.4740 C   0  0  0  0  0  0  0  0  0  0  0  0
  195.2510  170.4460  137.2450 N   0  0  0  0  0  2  0  0  0  0  0  0
  187.5220  174.3740  142.3530 C   0  0  0  0  0  2  0  0  0  0  0  0
  191.7380  173.7070  141.2820 C   0  0  0  0  0  0  0  0  0  0  0  0
  191.4020  171.3250  142.1030 C   0  0  1  0  0  3  0  0  0  0  0  0
  197.5600  168.7020  139.6190 C   0  0  0  0  0  3  0  0  0  0  0  0
  189.9580  177.2570  143.2940 C   0  0  1  0  0  3  0  0  0  0  0  0
  189.4910  172.8600  142.1570 C   0  0  2  0  0  3  0  0  0  0  0  0
  196.1350  169.5130  141.4290 C   0  0  0  0  0  0  0  0  0  0  0  0
  192.4870  174.6450  140.6990 C   0  0  0  0  0  2  0  0  0  0  0  0
  192.3340  172.3880  141.6500 C   0  0  0  0  0  0  0  0  0  0  0  0
  195.8860  171.2170  139.5800 C   0  0  0  0  0  2  0  0  0  0  0  0
  195.6380  169.2680  142.6530 N   0  0  0  0  0  0  0  0  0  0  0  0
  193.8420  170.1980  144.1390 C   0  0  0  0  0  2  0  0  0  0  0  0
  191.8050  170.4960  143.0120 C   0  0  0  0  0  2  0  0  0  0  0  0
  191.2140  178.1000  143.2080 C   0  0  0  0  0  1  0  0  0  0  0  0
  193.6690  172.2030  141.5110 C   0  0  0  0  0  3  0  0  0  0  0  0
  191.9120  173.0100  136.7140 C   0  0  0  0  0  0  0  0  0  0  0  0
  192.8530  170.8660  137.3460 C   0  0  0  0  0  3  0  0  0  0  0  0
  190.8120  173.8980  136.5320 N   0  0  0  0  0  1  0  0  0  0  0  0
  194.3060  172.6390  136.5870 C   0  0  0  0  0  3  0  0  0  0  0  0
  193.1990  173.4740  136.4250 C   0  0  0  0  0  3  0  0  0  0  0  0
  191.7280  171.6900  137.1870 C   0  0  0  0  0  0  0  0  0  0  0  0
  194.1370  171.3250  137.0360 C   0  0  0  0  0  0  0  0  0  0  0  0
  190.3990  171.1300  137.5250 C   0  0  0  0  0  0  0  0  0  0  0  0
  189.8820  171.3140  138.6600 O   0  0  0  0  0  1  0  0  0  0  0  0
  189.6930  170.3960  136.5780 O   0  0  0  0  0  0  0  0  0  0  0  0
  196.0720  168.2110  143.5560 C   0  0  0  0  0  2  0  0  0  0  0  0
  197.0910  168.7610  144.5440 C   0  0  0  0  0  2  0  0  0  0  0  0
  196.4780  168.9040  145.9250 C   0  0  0  0  0  2  0  0  0  0  0  0
  196.8080  170.2630  146.5220 C   0  0  0  0  0  2  0  0  0  0  0  0
  196.8820  171.3110  145.4260 C   0  0  0  0  0  2  0  0  0  0  0  0
  196.7630  172.7010  146.0290 C   0  0  0  0  0  2  0  0  0  0  0  0
  196.0150  173.6390  145.0910 C   0  0  1  0  0  3  0  0  0  0  0  0
  196.4620  173.3960  143.6770 C   0  0  0  0  0  3  0  0  0  0  0  0
  196.4680  174.3290  142.7110 C   0  0  0  0  0  0  0  0  0  0  0  0
  196.8030  176.8530  142.3720 C   0  0  0  0  0  2  0  0  0  0  0  0
  194.5930  175.9620  142.8840 O   0  0  0  0  0  1  0  0  0  0  0  0
  196.7360  176.6270  143.8790 C   0  0  0  0  0  2  0  0  0  0  0  0
  195.9660  175.7280  142.9370 C   0  0  0  0  0  0  0  0  0  0  0  0
  196.2150  174.6890  140.3820 O   0  0  0  0  0  1  0  0  0  0  0  0
  196.8910  173.9270  141.3330 C   0  0  0  0  0  2  0  0  0  0  0  0
  194.6430  173.3970  145.1950 O   0  0  0  0  0  0  0  0  0  0  0  0
  194.1040  174.5620  145.7460 C   0  0  0  0  0  2  0  0  0  0  0  0
  191.9030  175.2970  146.6930 C   0  0  0  0  0  3  0  0  0  0  0  0
  189.8510  174.1640  146.0890 C   0  0  0  0  0  3  0  0  0  0  0  0
  190.5710  173.2990  145.2570 C   0  0  0  0  0  3  0  0  0  0  0  0
  191.9580  173.4330  145.1440 C   0  0  0  0  0  3  0  0  0  0  0  0
  190.5170  175.1630  146.8060 C   0  0  0  0  0  3  0  0  0  0  0  0
  192.6260  174.4310  145.8630 C   0  0  0  0  0  0  0  0  0  0  0  0
  2 28  1  0  0  0  0
  3 23  1  0  0  0  0
  4 23  2  0  0  0  0
  4  6  1  0  0  0  0
  5 22  1  0  0  0  0
  5 17  1  0  0  0  0
  6 12  2  0  0  0  0
  7 21  1  0  0  0  0
  8 13  1  1  0  0  0
  9  8  1  0  0  0  0
  9 14  1  1  0  0  0
  9 17  1  0  0  0  0
 10 18  1  1  0  0  0
 10  8  1  0  0  0  0
 10 22  1  0  0  0  0
 11 20  1  0  0  0  0
 12 28  1  0  0  0  0
 13 21  1  0  0  0  0
 14  7  1  0  0  0  0
 15 11  2  0  0  0  0
 15 26  1  0  0  0  0
 16 15  1  0  0  0  0
 18 25  1  0  0  0  0
 19  1  1  1  0  0  0
 19 29  1  0  0  0  0
 20  3  2  0  0  0  0
 21 30  1  6  0  0  0
 22  1  1  6  0  0  0
 23 27  1  0  0  0  0
 24 18  2  0  0  0  0
 25 19  1  0  0  0  0
 26  4  1  0  0  0  0
 27 12  1  0  0  0  0
 27 42  1  0  0  0  0
 29  2  1  0  0  0  0
 31 25  2  0  0  0  0
 31  6  1  0  0  0  0
 32 37  1  0  0  0  0
 34 32  1  0  0  0  0
 35 38  2  0  0  0  0
 36 35  1  0  0  0  0
 36 32  2  0  0  0  0
 37 33  2  0  0  0  0
 37 39  1  0  0  0  0
 38 16  1  0  0  0  0
 38 33  1  0  0  0  0
 39 40  1  0  0  0  0
 41 39  2  0  0  0  0
 42 43  1  0  0  0  0
 43 44  1  0  0  0  0
 44 45  1  0  0  0  0
 46 47  1  0  0  0  0
 46 45  1  0  0  0  0
 48 49  1  6  0  0  0
 48 57  1  0  0  0  0
 48 47  1  0  0  0  0
 50 54  1  0  0  0  0
 50 49  2  0  0  0  0
 51 54  1  0  0  0  0
 51 53  1  0  0  0  0
 52 54  1  0  0  0  0
 54 53  1  0  0  0  0
 55 56  1  0  0  0  0
 56 50  1  0  0  0  0
 57 58  1  0  0  0  0
 58 64  1  0  0  0  0
 59 63  1  0  0  0  0
 60 63  2  0  0  0  0
 61 60  1  0  0  0  0
 62 61  2  0  0  0  0
 62 64  1  0  0  0  0
 64 59  2  0  0  0  0
M  END
>  <MODEL>
5

>  <REMARK>
 VINA RESULT:      -7.2      3.371      7.824
  Name = 
  15 active torsions:
  status: ('A' for Active; 'I' for Inactive)
    1  A    between atoms: C_4  and  C_20
    2  A    between atoms: C_4  and  C_25
    3  A    between atoms: C_4  and  O_33
    4  A    between atoms: C_10  and  C_25
    5  A    between atoms: C_10  and  C_50
    6  A    between atoms: C_14  and  C_38
    7  A    between atoms: C_14  and  C_53
    8  A    between atoms: N_32  and  C_60
    9  A    between atoms: O_33  and  C_51
   10  A    between atoms: C_34  and  C_51
   11  A    between atoms: C_36  and  C_43
   12  A    between atoms: C_36  and  C_62
   13  A    between atoms: C_38  and  C_50
   14  A    between atoms: C_39  and  C_57
   15  A    between atoms: C_53  and  N_56
                            x       y       z     vdW  Elec       q    Type
                         _______ _______ _______ _____ _____    ______ ____

>  <TORSDO>
F 15

$$$$
=
 OpenBabel11042414313D

 64 72  0  0  1  0  0  0  0  0999 V2000
  190.9630  171.4150  140.8960 C   0  0  0  0  0  2  0  0  0  0  0  0
  191.0700  174.2330  143.1960 C   0  0  0  0  0  2  0  0  0  0  0  0
  196.2080  174.5360  145.8110 N   0  0  0  0  0  0  0  0  0  0  0  0
  195.3990  173.7530  143.5890 C   0  0  0  0  0  0  0  0  0  0  0  0
  189.9010  170.6080  138.7980 C   0  0  0  0  0  2  0  0  0  0  0  0
  194.2580  173.9540  142.8310 C   0  0  0  0  0  0  0  0  0  0  0  0
  191.7060  172.2810  134.5130 C   0  0  0  0  0  2  0  0  0  0  0  0
  192.0560  171.8380  137.2000 C   0  0  2  0  0  3  0  0  0  0  0  0
  191.0150  170.8980  136.5490 C   0  0  2  0  0  3  0  0  0  0  0  0
  192.2000  171.5710  138.7100 C   0  0  1  0  0  3  0  0  0  0  0  0
  197.3550  172.4240  145.4190 N   0  0  0  0  0  0  0  0  0  0  0  0
  193.4330  174.7830  143.6140 C   0  0  0  0  0  0  0  0  0  0  0  0
  191.7450  173.3020  136.8710 C   0  0  0  0  0  2  0  0  0  0  0  0
  190.7210  171.2640  135.0870 C   0  0  0  0  0  2  0  0  0  0  0  0
  197.0890  172.0840  144.1910 C   0  0  0  0  0  0  0  0  0  0  0  0
  197.3910  170.7410  143.7910 N   0  0  0  0  0  2  0  0  0  0  0  0
  189.6890  170.9020  137.3170 C   0  0  0  0  0  2  0  0  0  0  0  0
  193.2680  172.4200  139.3810 C   0  0  0  0  0  0  0  0  0  0  0  0
  191.8360  172.4730  141.4800 C   0  0  1  0  0  3  0  0  0  0  0  0
  197.1520  173.6840  146.0900 C   0  0  0  0  0  3  0  0  0  0  0  0
  191.7420  173.5620  135.3570 C   0  0  1  0  0  3  0  0  0  0  0  0
  190.8310  171.6510  139.4010 C   0  0  2  0  0  3  0  0  0  0  0  0
  195.2270  174.4160  144.7760 C   0  0  0  0  0  0  0  0  0  0  0  0
  194.4460  172.5550  138.7680 C   0  0  0  0  0  2  0  0  0  0  0  0
  193.1060  172.8400  140.8050 C   0  0  0  0  0  0  0  0  0  0  0  0
  196.6580  173.0920  143.1690 C   0  0  0  0  0  2  0  0  0  0  0  0
  194.0440  175.0520  144.7890 N   0  0  0  0  0  0  0  0  0  0  0  0
  192.0770  175.3300  143.2560 C   0  0  0  0  0  2  0  0  0  0  0  0
  191.3430  173.2900  142.3540 C   0  0  0  0  0  2  0  0  0  0  0  0
  192.9650  174.3730  134.9780 C   0  0  0  0  0  1  0  0  0  0  0  0
  194.1250  173.4840  141.4240 C   0  0  0  0  0  3  0  0  0  0  0  0
  195.9900  168.8080  140.2830 C   0  0  0  0  0  0  0  0  0  0  0  0
  195.5900  169.7520  142.4800 C   0  0  0  0  0  3  0  0  0  0  0  0
  195.5500  168.1660  139.0900 N   0  0  0  0  0  1  0  0  0  0  0  0
  197.8180  169.7730  141.5510 C   0  0  0  0  0  3  0  0  0  0  0  0
  197.3420  169.1440  140.4000 C   0  0  0  0  0  3  0  0  0  0  0  0
  195.0930  169.1180  141.3320 C   0  0  0  0  0  0  0  0  0  0  0  0
  196.9460  170.0680  142.6050 C   0  0  0  0  0  0  0  0  0  0  0  0
  193.6460  168.8060  141.2780 C   0  0  0  0  0  0  0  0  0  0  0  0
  193.1220  168.3120  140.2430 O   0  0  0  0  0  0  0  0  0  0  0  0
  192.8430  169.0430  142.3880 O   0  0  0  0  0  1  0  0  0  0  0  0
  193.5120  175.8450  145.8900 C   0  0  0  0  0  2  0  0  0  0  0  0
  192.6730  174.9650  146.8030 C   0  0  0  0  0  2  0  0  0  0  0  0
  191.2120  175.3730  146.7500 C   0  0  0  0  0  2  0  0  0  0  0  0
  190.9610  176.5920  147.6230 C   0  0  0  0  0  2  0  0  0  0  0  0
  189.6220  177.2170  147.2760 C   0  0  0  0  0  2  0  0  0  0  0  0
  188.8450  176.2970  146.3490 C   0  0  0  0  0  2  0  0  0  0  0  0
  187.9130  177.0930  145.4460 C   0  0  1  0  0  3  0  0  0  0  0  0
  186.7850  177.6580  146.2620 C   0  0  0  0  0  3  0  0  0  0  0  0
  185.5850  178.0010  145.7660 C   0  0  0  0  0  0  0  0  0  0  0  0
  185.4770  179.1500  143.4710 C   0  0  0  0  0  2  0  0  0  0  0  0
  185.5520  176.7190  143.6290 O   0  0  0  0  0  1  0  0  0  0  0  0
  184.0630  178.6650  143.7760 C   0  0  0  0  0  2  0  0  0  0  0  0
  185.2610  177.9040  144.3010 C   0  0  0  0  0  0  0  0  0  0  0  0
  184.8990  178.3040  148.0140 O   0  0  0  0  0  1  0  0  0  0  0  0
  184.5750  178.6020  146.6920 C   0  0  0  0  0  2  0  0  0  0  0  0
  188.6270  178.1360  144.8530 O   0  0  0  0  0  0  0  0  0  0  0  0
  189.4720  177.5220  143.9240 C   0  0  0  0  0  2  0  0  0  0  0  0
  188.5240  175.8450  142.3200 C   0  0  0  0  0  3  0  0  0  0  0  0
  187.2880  176.5580  140.3640 C   0  0  0  0  0  3  0  0  0  0  0  0
  187.4710  177.8950  140.7340 C   0  0  0  0  0  3  0  0  0  0  0  0
  188.1800  178.2070  141.8970 C   0  0  0  0  0  3  0  0  0  0  0  0
  187.8150  175.5330  141.1570 C   0  0  0  0  0  3  0  0  0  0  0  0
  188.7080  177.1830  142.6910 C   0  0  0  0  0  0  0  0  0  0  0  0
  2 28  1  0  0  0  0
  3 20  2  0  0  0  0
  4 23  2  0  0  0  0
  6  4  1  0  0  0  0
  6 12  2  0  0  0  0
  7 14  1  0  0  0  0
  7 21  1  0  0  0  0
  8 13  1  1  0  0  0
  8 10  1  0  0  0  0
  9 14  1  6  0  0  0
  9  8  1  0  0  0  0
  9 17  1  0  0  0  0
 10 18  1  1  0  0  0
 10 22  1  0  0  0  0
 11 20  1  0  0  0  0
 12 27  1  0  0  0  0
 15 11  2  0  0  0  0
 16 15  1  0  0  0  0
 17  5  1  0  0  0  0
 18 25  1  0  0  0  0
 19  1  1  6  0  0  0
 19 29  1  0  0  0  0
 21 30  1  6  0  0  0
 21 13  1  0  0  0  0
 22  5  1  6  0  0  0
 22  1  1  0  0  0  0
 23 27  1  0  0  0  0
 23  3  1  0  0  0  0
 24 18  2  0  0  0  0
 25 31  2  0  0  0  0
 25 19  1  0  0  0  0
 26  4  1  0  0  0  0
 26 15  1  0  0  0  0
 27 42  1  0  0  0  0
 28 12  1  0  0  0  0
 29  2  1  0  0  0  0
 31  6  1  0  0  0  0
 32 36  2  0  0  0  0
 32 37  1  0  0  0  0
 33 38  1  0  0  0  0
 34 32  1  0  0  0  0
 35 38  2  0  0  0  0
 36 35  1  0  0  0  0
 37 33  2  0  0  0  0
 38 16  1  0  0  0  0
 39 37  1  0  0  0  0
 39 41  1  0  0  0  0
 40 39  2  0  0  0  0
 42 43  1  0  0  0  0
 44 43  1  0  0  0  0
 44 45  1  0  0  0  0
 46 45  1  0  0  0  0
 47 46  1  0  0  0  0
 48 49  1  1  0  0  0
 48 47  1  0  0  0  0
 50 49  2  0  0  0  0
 50 56  1  0  0  0  0
 51 53  1  0  0  0  0
 51 54  1  0  0  0  0
 52 54  1  0  0  0  0
 53 54  1  0  0  0  0
 54 50  1  0  0  0  0
 56 55  1  0  0  0  0
 57 48  1  0  0  0  0
 58 57  1  0  0  0  0
 59 64  1  0  0  0  0
 60 61  2  0  0  0  0
 60 63  1  0  0  0  0
 61 62  1  0  0  0  0
 62 64  2  0  0  0  0
 63 59  2  0  0  0  0
 64 58  1  0  0  0  0
M  END
>  <MODEL>
6

>  <REMARK>
 VINA RESULT:      -6.8      2.037      3.748
  Name = 
  15 active torsions:
  status: ('A' for Active; 'I' for Inactive)
    1  A    between atoms: C_4  and  C_20
    2  A    between atoms: C_4  and  C_25
    3  A    between atoms: C_4  and  O_33
    4  A    between atoms: C_10  and  C_25
    5  A    between atoms: C_10  and  C_50
    6  A    between atoms: C_14  and  C_38
    7  A    between atoms: C_14  and  C_53
    8  A    between atoms: N_32  and  C_60
    9  A    between atoms: O_33  and  C_51
   10  A    between atoms: C_34  and  C_51
   11  A    between atoms: C_36  and  C_43
   12  A    between atoms: C_36  and  C_62
   13  A    between atoms: C_38  and  C_50
   14  A    between atoms: C_39  and  C_57
   15  A    between atoms: C_53  and  N_56
                            x       y       z     vdW  Elec       q    Type
                         _______ _______ _______ _____ _____    ______ ____

>  <TORSDO>
F 15

$$$$
=
 OpenBabel11042414313D

 64 72  0  0  1  0  0  0  0  0999 V2000
  189.8350  175.5060  141.6360 C   0  0  0  0  0  2  0  0  0  0  0  0
  189.6930  171.9190  141.0370 C   0  0  0  0  0  2  0  0  0  0  0  0
  194.0560  169.2340  143.6970 N   0  0  0  0  0  0  0  0  0  0  0  0
  192.7030  171.2780  144.1430 C   0  0  0  0  0  0  0  0  0  0  0  0
  188.4220  177.5450  141.8060 C   0  0  0  0  0  2  0  0  0  0  0  0
  191.4790  171.7610  143.7120 C   0  0  0  0  0  0  0  0  0  0  0  0
  185.9890  178.3140  146.0380 C   0  0  0  0  0  2  0  0  0  0  0  0
  188.0350  177.0720  144.6940 C   0  0  2  0  0  3  0  0  0  0  0  0
  187.5690  178.3880  144.0300 C   0  0  2  0  0  3  0  0  0  0  0  0
  189.1650  176.3980  143.8920 C   0  0  1  0  0  3  0  0  0  0  0  0
  195.6660  170.9360  144.3640 N   0  0  0  0  0  0  0  0  0  0  0  0
  191.0050  170.8040  142.7960 C   0  0  0  0  0  0  0  0  0  0  0  0
  186.8440  176.1450  144.9560 C   0  0  0  0  0  2  0  0  0  0  0  0
  186.3250  178.9830  144.7060 C   0  0  0  0  0  2  0  0  0  0  0  0
  194.9710  171.9580  144.7750 C   0  0  0  0  0  0  0  0  0  0  0  0
  195.6570  173.2050  144.9460 N   0  0  0  0  0  2  0  0  0  0  0  0
  187.2550  178.1920  142.5430 C   0  0  0  0  0  2  0  0  0  0  0  0
  189.7100  175.1380  144.5460 C   0  0  0  0  0  0  0  0  0  0  0  0
  190.0980  174.1650  142.2310 C   0  0  1  0  0  3  0  0  0  0  0  0
  195.2440  169.5830  144.1000 C   0  0  0  0  0  3  0  0  0  0  0  0
  185.7970  176.8000  145.8690 C   0  0  1  0  0  3  0  0  0  0  0  0
  188.7380  176.1940  142.4310 C   0  0  2  0  0  3  0  0  0  0  0  0
  192.9400  170.1020  143.4800 C   0  0  0  0  0  0  0  0  0  0  0  0
  189.9530  175.1610  145.8580 C   0  0  0  0  0  2  0  0  0  0  0  0
  190.2280  174.0200  143.7030 C   0  0  0  0  0  0  0  0  0  0  0  0
  193.5520  171.8130  145.2360 C   0  0  0  0  0  2  0  0  0  0  0  0
  191.9070  169.8050  142.6730 N   0  0  0  0  0  0  0  0  0  0  0  0
  189.7010  170.8210  142.0430 C   0  0  0  0  0  2  0  0  0  0  0  0
  189.8770  173.1040  141.5240 C   0  0  0  0  0  2  0  0  0  0  0  0
  185.8280  176.1400  147.2330 C   0  0  0  0  0  1  0  0  0  0  0  0
  190.8280  172.9630  144.3010 C   0  0  0  0  0  3  0  0  0  0  0  0
  193.8340  177.0090  145.4040 C   0  0  0  0  0  0  0  0  0  0  0  0
  194.3190  175.0430  144.0700 C   0  0  0  0  0  3  0  0  0  0  0  0
  193.2290  178.2850  145.5920 N   0  0  0  0  0  1  0  0  0  0  0  0
  195.1780  175.2090  146.3200 C   0  0  0  0  0  3  0  0  0  0  0  0
  194.5670  176.4560  146.4590 C   0  0  0  0  0  3  0  0  0  0  0  0
  193.6990  176.2960  144.1900 C   0  0  0  0  0  0  0  0  0  0  0  0
  195.0690  174.5020  145.1170 C   0  0  0  0  0  0  0  0  0  0  0  0
  192.9310  176.8090  143.0320 C   0  0  0  0  0  0  0  0  0  0  0  0
  191.9740  177.6150  143.1880 O   0  0  0  0  0  1  0  0  0  0  0  0
  193.2700  176.4120  141.7430 O   0  0  0  0  0  0  0  0  0  0  0  0
  191.8110  168.6410  141.8020 C   0  0  0  0  0  2  0  0  0  0  0  0
  192.0880  169.0490  140.3630 C   0  0  0  0  0  2  0  0  0  0  0  0
  191.0000  168.5350  139.4380 C   0  0  0  0  0  2  0  0  0  0  0  0
  191.0340  169.2670  138.1070 C   0  0  0  0  0  2  0  0  0  0  0  0
  191.3580  170.7340  138.3260 C   0  0  0  0  0  2  0  0  0  0  0  0
  192.2150  171.2520  137.1820 C   0  0  0  0  0  2  0  0  0  0  0  0
  191.8490  172.6890  136.8350 C   0  0  1  0  0  3  0  0  0  0  0  0
  190.6780  173.1240  137.6680 C   0  0  0  0  0  3  0  0  0  0  0  0
  189.5870  173.7390  137.1840 C   0  0  0  0  0  0  0  0  0  0  0  0
  190.2200  175.3250  135.2650 C   0  0  0  0  0  2  0  0  0  0  0  0
  189.3650  173.0920  134.7870 O   0  0  0  0  0  1  0  0  0  0  0  0
  188.7000  175.3790  135.3830 C   0  0  0  0  0  2  0  0  0  0  0  0
  189.4480  174.1110  135.7330 C   0  0  0  0  0  0  0  0  0  0  0  0
  187.8170  173.0480  138.6000 O   0  0  0  0  0  1  0  0  0  0  0  0
  188.5190  174.1610  138.1440 C   0  0  0  0  0  2  0  0  0  0  0  0
  192.9420  173.5180  137.0980 O   0  0  0  0  0  0  0  0  0  0  0  0
  192.6320  174.1670  138.2970 C   0  0  0  0  0  2  0  0  0  0  0  0
  194.9200  174.5080  139.2590 C   0  0  0  0  0  3  0  0  0  0  0  0
  195.6320  173.2960  141.2310 C   0  0  0  0  0  3  0  0  0  0  0  0
  194.3870  172.6600  141.2910 C   0  0  0  0  0  3  0  0  0  0  0  0
  193.4090  172.9480  140.3350 C   0  0  0  0  0  3  0  0  0  0  0  0
  195.8990  174.2200  140.2150 C   0  0  0  0  0  3  0  0  0  0  0  0
  193.6740  173.8710  139.3180 C   0  0  0  0  0  0  0  0  0  0  0  0
  1 19  1  0  0  0  0
  2 29  1  0  0  0  0
  2 28  1  0  0  0  0
  3 20  2  0  0  0  0
  4 26  1  0  0  0  0
  5 22  1  0  0  0  0
  5 17  1  0  0  0  0
  6  4  1  0  0  0  0
  6 31  1  0  0  0  0
  8 13  1  6  0  0  0
  9 17  1  6  0  0  0
  9  8  1  0  0  0  0
  9 14  1  0  0  0  0
 10 18  1  1  0  0  0
 10  8  1  0  0  0  0
 11 15  2  0  0  0  0
 12  6  2  0  0  0  0
 13 21  1  0  0  0  0
 14  7  1  0  0  0  0
 15 16  1  0  0  0  0
 15 26  1  0  0  0  0
 16 38  1  0  0  0  0
 18 24  2  0  0  0  0
 19 29  1  1  0  0  0
 19 25  1  0  0  0  0
 20 11  1  0  0  0  0
 21  7  1  0  0  0  0
 21 30  1  1  0  0  0
 22  1  1  6  0  0  0
 22 10  1  0  0  0  0
 23  3  1  0  0  0  0
 23  4  2  0  0  0  0
 25 31  2  0  0  0  0
 25 18  1  0  0  0  0
 27 12  1  0  0  0  0
 27 23  1  0  0  0  0
 28 12  1  0  0  0  0
 32 34  1  0  0  0  0
 32 36  1  0  0  0  0
 33 37  1  0  0  0  0
 33 38  2  0  0  0  0
 35 36  2  0  0  0  0
 37 32  2  0  0  0  0
 38 35  1  0  0  0  0
 39 40  1  0  0  0  0
 39 37  1  0  0  0  0
 41 39  2  0  0  0  0
 42 27  1  0  0  0  0
 43 42  1  0  0  0  0
 44 43  1  0  0  0  0
 45 46  1  0  0  0  0
 45 44  1  0  0  0  0
 47 46  1  0  0  0  0
 48 57  1  0  0  0  0
 48 47  1  1  0  0  0
 48 49  1  0  0  0  0
 50 49  2  0  0  0  0
 50 56  1  0  0  0  0
 51 53  1  0  0  0  0
 51 54  1  0  0  0  0
 52 54  1  0  0  0  0
 53 54  1  0  0  0  0
 54 50  1  0  0  0  0
 56 55  1  0  0  0  0
 57 58  1  0  0  0  0
 58 64  1  0  0  0  0
 59 64  2  0  0  0  0
 59 63  1  0  0  0  0
 60 61  1  0  0  0  0
 62 61  2  0  0  0  0
 63 60  2  0  0  0  0
 64 62  1  0  0  0  0
M  END
>  <MODEL>
7

>  <REMARK>
 VINA RESULT:      -6.6      2.540      8.362
  Name = 
  15 active torsions:
  status: ('A' for Active; 'I' for Inactive)
    1  A    between atoms: C_4  and  C_20
    2  A    between atoms: C_4  and  C_25
    3  A    between atoms: C_4  and  O_33
    4  A    between atoms: C_10  and  C_25
    5  A    between atoms: C_10  and  C_50
    6  A    between atoms: C_14  and  C_38
    7  A    between atoms: C_14  and  C_53
    8  A    between atoms: N_32  and  C_60
    9  A    between atoms: O_33  and  C_51
   10  A    between atoms: C_34  and  C_51
   11  A    between atoms: C_36  and  C_43
   12  A    between atoms: C_36  and  C_62
   13  A    between atoms: C_38  and  C_50
   14  A    between atoms: C_39  and  C_57
   15  A    between atoms: C_53  and  N_56
                            x       y       z     vdW  Elec       q    Type
                         _______ _______ _______ _____ _____    ______ ____

>  <TORSDO>
F 15

$$$$
=
 OpenBabel11042414313D

 64 72  0  0  1  0  0  0  0  0999 V2000
  191.6300  171.1590  143.8720 C   0  0  0  0  0  2  0  0  0  0  0  0
  190.2810  171.5810  140.5180 C   0  0  0  0  0  2  0  0  0  0  0  0
  187.0700  176.3680  140.2000 N   0  0  0  0  0  0  0  0  0  0  0  0
  189.0620  175.6600  141.5170 C   0  0  0  0  0  0  0  0  0  0  0  0
  193.5400  170.1870  145.1320 C   0  0  0  0  0  2  0  0  0  0  0  0
  190.0210  174.6690  141.3950 C   0  0  0  0  0  0  0  0  0  0  0  0
  197.7730  172.7360  145.2250 C   0  0  0  0  0  2  0  0  0  0  0  0
  195.0560  172.7020  144.8320 C   0  0  2  0  0  3  0  0  0  0  0  0
  195.5610  171.5700  145.7560 C   0  0  2  0  0  3  0  0  0  0  0  0
  193.5320  172.6280  144.6200 C   0  0  1  0  0  3  0  0  0  0  0  0
  186.6270  177.1060  142.4780 N   0  0  0  0  0  0  0  0  0  0  0  0
  189.6640  173.9470  140.2400 C   0  0  0  0  0  0  0  0  0  0  0  0
  195.8490  172.7260  143.5210 C   0  0  0  0  0  2  0  0  0  0  0  0
  197.0930  171.5120  145.8370 C   0  0  0  0  0  2  0  0  0  0  0  0
  187.7260  176.9100  143.1480 C   0  0  0  0  0  0  0  0  0  0  0  0
  187.6570  176.9780  144.5780 N   0  0  0  0  0  2  0  0  0  0  0  0
  195.0560  170.1980  145.2990 C   0  0  0  0  0  2  0  0  0  0  0  0
  192.9770  173.7660  143.7780 C   0  0  0  0  0  0  0  0  0  0  0  0
  191.2510  172.1590  142.8330 C   0  0  1  0  0  3  0  0  0  0  0  0
  186.4010  177.0880  141.0540 C   0  0  0  0  0  3  0  0  0  0  0  0
  197.3520  172.9360  143.7630 C   0  0  1  0  0  3  0  0  0  0  0  0
  193.1290  171.2370  144.1100 C   0  0  2  0  0  3  0  0  0  0  0  0
  188.1690  175.4990  140.4910 C   0  0  0  0  0  0  0  0  0  0  0  0
  193.4020  175.0060  144.0330 C   0  0  0  0  0  2  0  0  0  0  0  0
  191.7880  173.5410  142.9040 C   0  0  0  0  0  0  0  0  0  0  0  0
  189.0570  176.8000  142.4660 C   0  0  0  0  0  2  0  0  0  0  0  0
  188.5370  174.4710  139.7070 N   0  0  0  0  0  0  0  0  0  0  0  0
  190.3840  172.7740  139.6320 C   0  0  0  0  0  2  0  0  0  0  0  0
  190.7500  171.7490  141.7120 C   0  0  0  0  0  2  0  0  0  0  0  0
  197.7480  174.3290  143.3170 C   0  0  0  0  0  1  0  0  0  0  0  0
  191.2280  174.5960  142.2640 C   0  0  0  0  0  3  0  0  0  0  0  0
  190.5350  175.7250  147.4320 C   0  0  0  0  0  0  0  0  0  0  0  0
  189.0850  177.4300  146.4990 C   0  0  0  0  0  3  0  0  0  0  0  0
  191.4970  175.2710  148.3810 N   0  0  0  0  0  1  0  0  0  0  0  0
  189.1380  175.2270  145.5130 C   0  0  0  0  0  3  0  0  0  0  0  0
  190.0780  174.8270  146.4630 C   0  0  0  0  0  3  0  0  0  0  0  0
  190.0320  177.0470  147.4610 C   0  0  0  0  0  0  0  0  0  0  0  0
  188.6460  176.5370  145.5170 C   0  0  0  0  0  0  0  0  0  0  0  0
  190.4570  178.0520  148.4630 C   0  0  0  0  0  0  0  0  0  0  0  0
  189.7180  179.0290  148.7620 O   0  0  0  0  0  0  0  0  0  0  0  0
  191.6840  177.9200  149.1010 O   0  0  0  0  0  1  0  0  0  0  0  0
  187.8230  173.9940  138.5310 C   0  0  0  0  0  2  0  0  0  0  0  0
  188.8160  173.5240  137.4790 C   0  0  0  0  0  2  0  0  0  0  0  0
  189.1160  174.6330  136.4870 C   0  0  0  0  0  2  0  0  0  0  0  0
  190.5480  174.5370  135.9880 C   0  0  0  0  0  2  0  0  0  0  0  0
  191.5060  174.4470  137.1620 C   0  0  0  0  0  2  0  0  0  0  0  0
  192.9400  174.4030  136.6600 C   0  0  0  0  0  2  0  0  0  0  0  0
  193.8250  173.6030  137.6060 C   0  0  1  0  0  3  0  0  0  0  0  0
  193.8360  174.2580  138.9580 C   0  0  0  0  0  3  0  0  0  0  0  0
  194.9120  174.8380  139.5130 C   0  0  0  0  0  0  0  0  0  0  0  0
  197.1460  173.6410  139.0920 C   0  0  0  0  0  2  0  0  0  0  0  0
  196.3680  175.3710  137.5620 O   0  0  0  0  0  1  0  0  0  0  0  0
  197.4920  174.9910  139.7110 C   0  0  0  0  0  2  0  0  0  0  0  0
  196.2600  174.8420  138.8460 C   0  0  0  0  0  0  0  0  0  0  0  0
  194.9230  176.7920  140.8530 O   0  0  0  0  0  1  0  0  0  0  0  0
  194.7870  175.4050  140.8920 C   0  0  0  0  0  2  0  0  0  0  0  0
  193.3200  172.3050  137.7210 O   0  0  0  0  0  0  0  0  0  0  0  0
  194.4220  171.5090  138.0430 C   0  0  0  0  0  2  0  0  0  0  0  0
  193.0210  169.7010  139.0670 C   0  0  0  0  0  3  0  0  0  0  0  0
  193.4400  168.9320  141.3240 C   0  0  0  0  0  3  0  0  0  0  0  0
  194.5010  169.8370  141.4360 C   0  0  0  0  0  3  0  0  0  0  0  0
  194.8220  170.6740  140.3640 C   0  0  0  0  0  3  0  0  0  0  0  0
  192.7000  168.8640  140.1390 C   0  0  0  0  0  3  0  0  0  0  0  0
  194.0820  170.6080  139.1780 C   0  0  0  0  0  0  0  0  0  0  0  0
  2 29  1  0  0  0  0
  3 23  1  0  0  0  0
  3 20  2  0  0  0  0
  4 26  1  0  0  0  0
  5 17  1  0  0  0  0
  6  4  1  0  0  0  0
  6 31  1  0  0  0  0
  7 14  1  0  0  0  0
  8 13  1  6  0  0  0
  8  9  1  0  0  0  0
  9 17  1  6  0  0  0
  9 14  1  0  0  0  0
 10 18  1  6  0  0  0
 10  8  1  0  0  0  0
 11 15  2  0  0  0  0
 12  6  2  0  0  0  0
 13 21  1  0  0  0  0
 15 16  1  0  0  0  0
 16 38  1  0  0  0  0
 18 24  2  0  0  0  0
 19 29  1  6  0  0  0
 19 25  1  0  0  0  0
 19  1  1  0  0  0  0
 20 11  1  0  0  0  0
 21 30  1  1  0  0  0
 21  7  1  0  0  0  0
 22  1  1  1  0  0  0
 22 10  1  0  0  0  0
 22  5  1  0  0  0  0
 23  4  2  0  0  0  0
 25 18  1  0  0  0  0
 26 15  1  0  0  0  0
 27 12  1  0  0  0  0
 27 23  1  0  0  0  0
 28 12  1  0  0  0  0
 28  2  1  0  0  0  0
 31 25  2  0  0  0  0
 32 37  1  0  0  0  0
 32 34  1  0  0  0  0
 33 37  2  0  0  0  0
 35 38  2  0  0  0  0
 35 36  1  0  0  0  0
 36 32  2  0  0  0  0
 37 39  1  0  0  0  0
 38 33  1  0  0  0  0
 39 40  2  0  0  0  0
 39 41  1  0  0  0  0
 42 27  1  0  0  0  0
 43 42  1  0  0  0  0
 44 43  1  0  0  0  0
 45 44  1  0  0  0  0
 45 46  1  0  0  0  0
 47 46  1  0  0  0  0
 48 47  1  6  0  0  0
 48 57  1  0  0  0  0
 48 49  1  0  0  0  0
 49 50  2  0  0  0  0
 50 56  1  0  0  0  0
 51 53  1  0  0  0  0
 52 54  1  0  0  0  0
 54 51  1  0  0  0  0
 54 50  1  0  0  0  0
 54 53  1  0  0  0  0
 55 56  1  0  0  0  0
 57 58  1  0  0  0  0
 58 64  1  0  0  0  0
 59 64  2  0  0  0  0
 59 63  1  0  0  0  0
 60 61  1  0  0  0  0
 62 61  2  0  0  0  0
 63 60  2  0  0  0  0
 64 62  1  0  0  0  0
M  END
>  <MODEL>
8

>  <REMARK>
 VINA RESULT:      -6.5      2.988      9.094
  Name = 
  15 active torsions:
  status: ('A' for Active; 'I' for Inactive)
    1  A    between atoms: C_4  and  C_20
    2  A    between atoms: C_4  and  C_25
    3  A    between atoms: C_4  and  O_33
    4  A    between atoms: C_10  and  C_25
    5  A    between atoms: C_10  and  C_50
    6  A    between atoms: C_14  and  C_38
    7  A    between atoms: C_14  and  C_53
    8  A    between atoms: N_32  and  C_60
    9  A    between atoms: O_33  and  C_51
   10  A    between atoms: C_34  and  C_51
   11  A    between atoms: C_36  and  C_43
   12  A    between atoms: C_36  and  C_62
   13  A    between atoms: C_38  and  C_50
   14  A    between atoms: C_39  and  C_57
   15  A    between atoms: C_53  and  N_56
                            x       y       z     vdW  Elec       q    Type
                         _______ _______ _______ _____ _____    ______ ____

>  <TORSDO>
F 15

$$$$
=
 OpenBabel11042414313D

 64 72  0  0  1  0  0  0  0  0999 V2000
  189.5620  175.7800  141.5190 C   0  0  0  0  0  2  0  0  0  0  0  0
  189.3090  172.2170  140.8210 C   0  0  0  0  0  2  0  0  0  0  0  0
  193.5880  169.3250  143.3990 N   0  0  0  0  0  0  0  0  0  0  0  0
  192.3000  171.3960  143.9040 C   0  0  0  0  0  0  0  0  0  0  0  0
  188.2120  177.8550  141.7480 C   0  0  0  0  0  2  0  0  0  0  0  0
  191.0910  171.9290  143.4880 C   0  0  0  0  0  0  0  0  0  0  0  0
  185.8070  178.5810  146.0030 C   0  0  0  0  0  2  0  0  0  0  0  0
  187.8130  177.3150  144.6220 C   0  0  2  0  0  3  0  0  0  0  0  0
  187.3880  178.6620  143.9960 C   0  0  2  0  0  3  0  0  0  0  0  0
  188.9220  176.6280  143.8000 C   0  0  1  0  0  3  0  0  0  0  0  0
  195.2500  170.9570  144.1110 N   0  0  0  0  0  0  0  0  0  0  0  0
  190.5860  171.0130  142.5460 C   0  0  0  0  0  0  0  0  0  0  0  0
  186.5940  176.4180  144.8600 C   0  0  0  0  0  2  0  0  0  0  0  0
  186.1640  179.2770  144.6900 C   0  0  0  0  0  2  0  0  0  0  0  0
  194.5880  171.9880  144.5510 C   0  0  0  0  0  0  0  0  0  0  0  0
  195.3120  173.2080  144.7560 N   0  0  0  0  0  2  0  0  0  0  0  0
  187.0670  178.5180  142.5050 C   0  0  0  0  0  2  0  0  0  0  0  0
  189.4270  175.3350  144.4180 C   0  0  0  0  0  0  0  0  0  0  0  0
  189.7840  174.4150  142.0760 C   0  0  1  0  0  3  0  0  0  0  0  0
  194.7870  169.6250  143.8100 C   0  0  0  0  0  3  0  0  0  0  0  0
  185.5680  177.0800  145.7930 C   0  0  1  0  0  3  0  0  0  0  0  0
  188.4870  176.4790  142.3350 C   0  0  2  0  0  3  0  0  0  0  0  0
  192.4990  170.2330  143.2080 C   0  0  0  0  0  0  0  0  0  0  0  0
  189.6710  175.3140  145.7300 C   0  0  0  0  0  2  0  0  0  0  0  0
  189.9100  174.2260  143.5430 C   0  0  0  0  0  0  0  0  0  0  0  0
  193.1650  171.8740  145.0090 C   0  0  0  0  0  2  0  0  0  0  0  0
  191.4570  169.9900  142.3950 N   0  0  0  0  0  0  0  0  0  0  0  0
  189.2830  171.0910  141.7960 C   0  0  0  0  0  2  0  0  0  0  0  0
  189.5290  173.3810  141.3400 C   0  0  0  0  0  2  0  0  0  0  0  0
  185.5800  176.3810  147.1380 C   0  0  0  0  0  1  0  0  0  0  0  0
  190.4780  173.1340  144.1120 C   0  0  0  0  0  3  0  0  0  0  0  0
  193.6080  177.0530  145.3220 C   0  0  0  0  0  0  0  0  0  0  0  0
  194.0390  175.1150  143.9290 C   0  0  0  0  0  3  0  0  0  0  0  0
  193.0420  178.3410  145.5460 N   0  0  0  0  0  1  0  0  0  0  0  0
  194.8880  175.1840  146.1880 C   0  0  0  0  0  3  0  0  0  0  0  0
  194.3160  176.4440  146.3630 C   0  0  0  0  0  3  0  0  0  0  0  0
  193.4590  176.3830  144.0850 C   0  0  0  0  0  0  0  0  0  0  0  0
  194.7650  174.5170  144.9640 C   0  0  0  0  0  0  0  0  0  0  0  0
  192.7150  176.9550  142.9390 C   0  0  0  0  0  0  0  0  0  0  0  0
  191.7680  177.7680  143.1150 O   0  0  0  0  0  1  0  0  0  0  0  0
  193.0670  176.6070  141.6400 O   0  0  0  0  0  0  0  0  0  0  0  0
  191.3240  168.8550  141.4910 C   0  0  0  0  0  2  0  0  0  0  0  0
  191.6840  169.2760  140.0750 C   0  0  0  0  0  2  0  0  0  0  0  0
  190.5860  168.8860  139.1020 C   0  0  0  0  0  2  0  0  0  0  0  0
  190.5550  169.8370  137.9160 C   0  0  0  0  0  2  0  0  0  0  0  0
  191.9210  170.4700  137.7170 C   0  0  0  0  0  2  0  0  0  0  0  0
  191.7660  171.8700  137.1460 C   0  0  0  0  0  2  0  0  0  0  0  0
  191.8820  172.9210  138.2410 C   0  0  1  0  0  3  0  0  0  0  0  0
  193.1560  173.6970  138.0590 C   0  0  0  0  0  3  0  0  0  0  0  0
  194.1420  173.7630  138.9680 C   0  0  0  0  0  0  0  0  0  0  0  0
  195.3460  172.8220  141.0330 C   0  0  0  0  0  2  0  0  0  0  0  0
  192.9940  173.4490  141.1580 O   0  0  0  0  0  1  0  0  0  0  0  0
  194.5320  171.6720  140.4490 C   0  0  0  0  0  2  0  0  0  0  0  0
  194.0450  173.0980  140.3130 C   0  0  0  0  0  0  0  0  0  0  0  0
  196.1860  173.9610  137.7860 O   0  0  0  0  0  1  0  0  0  0  0  0
  195.3330  174.6190  138.6690 C   0  0  0  0  0  2  0  0  0  0  0  0
  190.7920  173.7910  138.1620 O   0  0  0  0  0  0  0  0  0  0  0  0
  190.2360  173.5700  136.8990 C   0  0  0  0  0  2  0  0  0  0  0  0
  188.9400  175.1690  135.4690 C   0  0  0  0  0  3  0  0  0  0  0  0
  186.9250  176.2240  136.2980 C   0  0  0  0  0  3  0  0  0  0  0  0
  187.0660  175.5430  137.5130 C   0  0  0  0  0  3  0  0  0  0  0  0
  188.1450  174.6750  137.7050 C   0  0  0  0  0  3  0  0  0  0  0  0
  187.8620  176.0370  135.2770 C   0  0  0  0  0  3  0  0  0  0  0  0
  189.0840  174.4880  136.6840 C   0  0  0  0  0  0  0  0  0  0  0  0
  1 19  1  0  0  0  0
  2 29  1  0  0  0  0
  2 28  1  0  0  0  0
  3 20  2  0  0  0  0
  4 26  1  0  0  0  0
  5 22  1  0  0  0  0
  5 17  1  0  0  0  0
  6  4  1  0  0  0  0
  6 31  1  0  0  0  0
  8 13  1  6  0  0  0
  9 17  1  6  0  0  0
  9  8  1  0  0  0  0
  9 14  1  0  0  0  0
 10 18  1  1  0  0  0
 10  8  1  0  0  0  0
 11 15  2  0  0  0  0
 12  6  2  0  0  0  0
 13 21  1  0  0  0  0
 14  7  1  0  0  0  0
 15 16  1  0  0  0  0
 15 26  1  0  0  0  0
 16 38  1  0  0  0  0
 18 24  2  0  0  0  0
 19 29  1  1  0  0  0
 19 25  1  0  0  0  0
 20 11  1  0  0  0  0
 21  7  1  0  0  0  0
 21 30  1  1  0  0  0
 22  1  1  6  0  0  0
 22 10  1  0  0  0  0
 23  3  1  0  0  0  0
 23  4  2  0  0  0  0
 25 31  2  0  0  0  0
 25 18  1  0  0  0  0
 27 12  1  0  0  0  0
 27 23  1  0  0  0  0
 28 12  1  0  0  0  0
 32 34  1  0  0  0  0
 32 36  1  0  0  0  0
 33 37  1  0  0  0  0
 33 38  2  0  0  0  0
 35 36  2  0  0  0  0
 37 32  2  0  0  0  0
 38 35  1  0  0  0  0
 39 40  1  0  0  0  0
 39 37  1  0  0  0  0
 41 39  2  0  0  0  0
 42 27  1  0  0  0  0
 43 42  1  0  0  0  0
 44 43  1  0  0  0  0
 45 44  1  0  0  0  0
 46 45  1  0  0  0  0
 47 46  1  0  0  0  0
 48 47  1  6  0  0  0
 49 48  1  0  0  0  0
 49 50  2  0  0  0  0
 50 54  1  0  0  0  0
 53 51  1  0  0  0  0
 54 53  1  0  0  0  0
 54 51  1  0  0  0  0
 54 52  1  0  0  0  0
 55 56  1  0  0  0  0
 56 50  1  0  0  0  0
 57 48  1  0  0  0  0
 58 57  1  0  0  0  0
 59 64  1  0  0  0  0
 60 61  2  0  0  0  0
 61 62  1  0  0  0  0
 63 59  2  0  0  0  0
 63 60  1  0  0  0  0
 64 58  1  0  0  0  0
 64 62  2  0  0  0  0
M  END
>  <MODEL>
9

>  <REMARK>
 VINA RESULT:      -6.3      2.468      7.919
  Name = 
  15 active torsions:
  status: ('A' for Active; 'I' for Inactive)
    1  A    between atoms: C_4  and  C_20
    2  A    between atoms: C_4  and  C_25
    3  A    between atoms: C_4  and  O_33
    4  A    between atoms: C_10  and  C_25
    5  A    between atoms: C_10  and  C_50
    6  A    between atoms: C_14  and  C_38
    7  A    between atoms: C_14  and  C_53
    8  A    between atoms: N_32  and  C_60
    9  A    between atoms: O_33  and  C_51
   10  A    between atoms: C_34  and  C_51
   11  A    between atoms: C_36  and  C_43
   12  A    between atoms: C_36  and  C_62
   13  A    between atoms: C_38  and  C_50
   14  A    between atoms: C_39  and  C_57
   15  A    between atoms: C_53  and  N_56
                            x       y       z     vdW  Elec       q    Type
                         _______ _______ _______ _____ _____    ______ ____

>  <TORSDO>
F 15

$$$$
