=
 OpenBabel11042417153D

 31 34  0  0  1  0  0  0  0  0999 V2000
  187.1050  177.2810  145.2560 C   0  0  0  0  0  0  0  0  0  0  0  0
  188.6720  176.8910  147.0350 N   0  0  0  0  0  0  0  0  0  0  0  0
  184.7430  177.8000  146.0720 C   0  0  0  0  0  2  0  0  0  0  0  0
  187.5240  177.4570  146.5930 C   0  0  0  0  0  0  0  0  0  0  0  0
  185.5650  180.2120  144.8570 O   0  0  0  0  0  1  0  0  0  0  0  0
  185.4840  177.0170  141.9940 N   0  0  0  0  0  2  0  0  0  0  0  0
  189.4420  176.0960  146.2490 C   0  0  0  0  0  0  0  0  0  0  0  0
  186.8170  177.3020  142.3080 N   0  0  0  0  0  2  0  0  0  0  0  0
  189.0750  175.8720  144.9090 C   0  0  0  0  0  0  0  0  0  0  0  0
  189.5180  174.8240  142.7680 C   0  0  0  0  0  3  0  0  0  0  0  0
  184.4940  178.0450  142.1210 C   0  0  0  0  0  3  0  0  0  0  0  0
  188.4440  175.5060  142.1940 C   0  0  0  0  0  0  0  0  0  0  0  0
  187.6650  176.3740  142.9780 C   0  0  0  0  0  0  0  0  0  0  0  0
  184.5890  179.0160  143.0410 C   0  0  0  0  0  3  0  0  0  0  0  0
  186.6770  178.1860  147.5510 C   0  0  0  0  0  3  0  0  0  0  0  0
  185.7000  179.0780  144.0550 C   0  0  2  0  0  3  0  0  0  0  0  0
  185.3830  178.3890  147.2960 C   0  0  0  0  0  3  0  0  0  0  0  0
  189.8400  175.0180  144.1050 C   0  0  0  0  0  3  0  0  0  0  0  0
  187.9300  176.5200  144.3710 C   0  0  0  0  0  0  0  0  0  0  0  0
  185.7170  177.7820  144.8830 C   0  0  1  0  0  3  0  0  0  0  0  0
  190.4310  174.8820  148.0570 O   0  0  0  0  0  1  0  0  0  0  0  0
  190.6920  175.4900  146.8270 C   0  0  2  0  0  3  0  0  0  0  0  0
  191.8320  176.5060  146.9430 C   0  0  0  0  0  2  0  0  0  0  0  0
  192.8940  176.3550  145.8560 C   0  0  0  0  0  2  0  0  0  0  0  0
  194.9830  175.3370  146.0780 C   0  0  0  0  0  1  0  0  0  0  0  0
  194.2240  176.5270  146.4170 N   0  0  0  0  0  0  0  0  0  0  0  0
  194.8390  177.6300  145.7020 C   0  0  0  0  0  1  0  0  0  0  0  0
  188.1680  175.3660  140.7980 N   0  0  0  0  0  2  0  0  0  0  0  0
  188.6550  174.2820  140.0540 N   0  0  0  0  0  2  0  0  0  0  0  0
  188.1250  174.3900  138.8150 O   0  0  0  0  0  0  0  0  0  0  0  0
  189.0840  173.8250  137.9760 C   0  0  0  0  0  1  0  0  0  0  0  0
  1  4  1  0  0  0  0
  3 17  1  0  0  0  0
  4  2  2  0  0  0  0
  4 15  1  0  0  0  0
  6 11  1  0  0  0  0
  6  8  1  0  0  0  0
  7 22  1  0  0  0  0
  7  2  1  0  0  0  0
  8 13  1  0  0  0  0
  9  7  2  0  0  0  0
 10 18  2  0  0  0  0
 11 14  2  0  0  0  0
 12 10  1  0  0  0  0
 12 13  2  0  0  0  0
 13 19  1  0  0  0  0
 14 16  1  0  0  0  0
 16  5  1  1  0  0  0
 16 20  1  0  0  0  0
 17 15  2  0  0  0  0
 18  9  1  0  0  0  0
 19  9  1  0  0  0  0
 19  1  2  0  0  0  0
 20  1  1  0  0  0  0
 20  3  1  1  0  0  0
 22 23  1  0  0  0  0
 22 21  1  1  0  0  0
 24 26  1  0  0  0  0
 24 23  1  0  0  0  0
 25 26  1  0  0  0  0
 27 26  1  0  0  0  0
 28 12  1  0  0  0  0
 29 28  1  0  0  0  0
 30 29  1  0  0  0  0
 31 30  1  0  0  0  0
M  END
>  <MODEL>
1

>  <REMARK>
 VINA RESULT:      -7.5      0.000      0.000
  Name = 
  7 active torsions:
  status: ('A' for Active; 'I' for Inactive)
    1  A    between atoms: C_7  and  C_10
    2  A    between atoms: C_7  and  C_11
    3  A    between atoms: N_9  and  N_15
    4  A    between atoms: N_9  and  O_25
    5  A    between atoms: C_11  and  C_13
    6  A    between atoms: C_13  and  N_18
    7  A    between atoms: N_15  and  C_20
                            x       y       z     vdW  Elec       q    Type
                         _______ _______ _______ _____ _____    ______ ____

>  <TORSDO>
F 7

$$$$
=
 OpenBabel11042417153D

 31 34  0  0  1  0  0  0  0  0999 V2000
  187.0800  176.7510  144.8460 C   0  0  0  0  0  0  0  0  0  0  0  0
  189.0150  175.7640  145.8710 N   0  0  0  0  0  0  0  0  0  0  0  0
  185.0450  176.8420  146.3840 C   0  0  0  0  0  2  0  0  0  0  0  0
  187.8360  176.4180  145.9910 C   0  0  0  0  0  0  0  0  0  0  0  0
  185.7000  179.5610  145.9960 O   0  0  0  0  0  1  0  0  0  0  0  0
  184.6690  177.6970  142.2710 N   0  0  0  0  0  2  0  0  0  0  0  0
  189.5020  175.3540  144.6720 C   0  0  0  0  0  0  0  0  0  0  0  0
  186.0550  177.8850  142.3090 N   0  0  0  0  0  2  0  0  0  0  0  0
  188.7930  175.6460  143.4930 C   0  0  0  0  0  0  0  0  0  0  0  0
  188.6020  175.5080  141.0790 C   0  0  0  0  0  3  0  0  0  0  0  0
  183.8190  178.5670  143.0290 C   0  0  0  0  0  3  0  0  0  0  0  0
  187.4690  176.3220  141.1070 C   0  0  0  0  0  0  0  0  0  0  0  0
  186.9780  176.8000  142.3330 C   0  0  0  0  0  0  0  0  0  0  0  0
  184.2140  179.1170  144.1870 C   0  0  0  0  0  3  0  0  0  0  0  0
  187.3130  176.6980  147.3380 C   0  0  0  0  0  3  0  0  0  0  0  0
  185.5470  178.8230  144.8210 C   0  0  2  0  0  3  0  0  0  0  0  0
  186.0160  176.9410  147.5260 C   0  0  0  0  0  3  0  0  0  0  0  0
  189.2660  175.1880  142.2570 C   0  0  0  0  0  3  0  0  0  0  0  0
  187.5970  176.4120  143.5570 C   0  0  0  0  0  0  0  0  0  0  0  0
  185.6820  177.3110  145.0650 C   0  0  1  0  0  3  0  0  0  0  0  0
  190.6540  173.2910  145.0480 O   0  0  0  0  0  1  0  0  0  0  0  0
  190.8130  174.6140  144.6310 C   0  0  2  0  0  3  0  0  0  0  0  0
  191.9060  175.3220  145.4370 C   0  0  0  0  0  2  0  0  0  0  0  0
  192.4050  176.6090  144.7860 C   0  0  0  0  0  2  0  0  0  0  0  0
  194.0480  176.2820  146.4110 C   0  0  0  0  0  1  0  0  0  0  0  0
  193.8120  176.8180  145.0830 N   0  0  0  0  0  0  0  0  0  0  0  0
  194.5610  175.9840  144.1600 C   0  0  0  0  0  1  0  0  0  0  0  0
  186.8380  176.7160  139.8850 N   0  0  0  0  0  2  0  0  0  0  0  0
  187.1380  176.0920  138.6650 N   0  0  0  0  0  2  0  0  0  0  0  0
  186.1200  176.3780  137.8220 O   0  0  0  0  0  0  0  0  0  0  0  0
  186.5930  176.0020  136.5660 C   0  0  0  0  0  1  0  0  0  0  0  0
  1 20  1  0  0  0  0
  1  4  1  0  0  0  0
  2  4  2  0  0  0  0
  3 17  1  0  0  0  0
  4 15  1  0  0  0  0
  6  8  1  0  0  0  0
  6 11  1  0  0  0  0
  7  2  1  0  0  0  0
  8 13  1  0  0  0  0
  9 19  1  0  0  0  0
  9  7  2  0  0  0  0
 10 12  1  0  0  0  0
 10 18  2  0  0  0  0
 11 14  2  0  0  0  0
 12 13  2  0  0  0  0
 13 19  1  0  0  0  0
 14 16  1  0  0  0  0
 15 17  2  0  0  0  0
 16 20  1  0  0  0  0
 16  5  1  1  0  0  0
 18  9  1  0  0  0  0
 19  1  2  0  0  0  0
 20  3  1  1  0  0  0
 22  7  1  0  0  0  0
 22 21  1  1  0  0  0
 22 23  1  0  0  0  0
 24 26  1  0  0  0  0
 24 23  1  0  0  0  0
 26 25  1  0  0  0  0
 27 26  1  0  0  0  0
 28 12  1  0  0  0  0
 29 28  1  0  0  0  0
 30 29  1  0  0  0  0
 31 30  1  0  0  0  0
M  END
>  <MODEL>
2

>  <REMARK>
 VINA RESULT:      -7.3      1.645      1.813
  Name = 
  7 active torsions:
  status: ('A' for Active; 'I' for Inactive)
    1  A    between atoms: C_7  and  C_10
    2  A    between atoms: C_7  and  C_11
    3  A    between atoms: N_9  and  N_15
    4  A    between atoms: N_9  and  O_25
    5  A    between atoms: C_11  and  C_13
    6  A    between atoms: C_13  and  N_18
    7  A    between atoms: N_15  and  C_20
                            x       y       z     vdW  Elec       q    Type
                         _______ _______ _______ _____ _____    ______ ____

>  <TORSDO>
F 7

$$$$
=
 OpenBabel11042417153D

 31 34  0  0  1  0  0  0  0  0999 V2000
  186.8640  177.1320  144.1940 C   0  0  0  0  0  0  0  0  0  0  0  0
  186.8890  176.1510  142.0010 N   0  0  0  0  0  0  0  0  0  0  0  0
  185.8300  179.4650  144.2570 C   0  0  0  0  0  2  0  0  0  0  0  0
  186.3440  177.0190  142.8860 C   0  0  0  0  0  0  0  0  0  0  0  0
  184.0240  177.9020  145.7630 O   0  0  0  0  0  1  0  0  0  0  0  0
  187.9010  177.9430  147.6000 N   0  0  0  0  0  2  0  0  0  0  0  0
  187.9750  175.3940  142.2980 C   0  0  0  0  0  0  0  0  0  0  0  0
  187.7040  176.6950  147.0000 N   0  0  0  0  0  2  0  0  0  0  0  0
  188.5480  175.4660  143.5810 C   0  0  0  0  0  0  0  0  0  0  0  0
  190.2450  174.7450  145.1570 C   0  0  0  0  0  3  0  0  0  0  0  0
  186.7670  178.7040  148.0350 C   0  0  0  0  0  3  0  0  0  0  0  0
  189.6400  175.4890  146.1720 C   0  0  0  0  0  0  0  0  0  0  0  0
  188.4840  176.2390  145.8990 C   0  0  0  0  0  0  0  0  0  0  0  0
  185.5820  178.6360  147.4090 C   0  0  0  0  0  3  0  0  0  0  0  0
  185.2590  177.9060  142.4350 C   0  0  0  0  0  3  0  0  0  0  0  0
  185.3560  177.8120  146.1700 C   0  0  2  0  0  3  0  0  0  0  0  0
  184.9810  179.0300  143.0950 C   0  0  0  0  0  3  0  0  0  0  0  0
  189.6950  174.7210  143.8820 C   0  0  0  0  0  3  0  0  0  0  0  0
  187.9560  176.2920  144.5750 C   0  0  0  0  0  0  0  0  0  0  0  0
  186.3300  178.2580  145.0680 C   0  0  1  0  0  3  0  0  0  0  0  0
  188.2080  174.9190  139.9660 O   0  0  0  0  0  1  0  0  0  0  0  0
  188.5290  174.4690  141.2480 C   0  0  2  0  0  3  0  0  0  0  0  0
  188.0810  173.0190  141.4540 C   0  0  0  0  0  2  0  0  0  0  0  0
  189.2420  172.0450  141.6420 C   0  0  0  0  0  2  0  0  0  0  0  0
  191.5660  172.2170  141.7710 C   0  0  0  0  0  1  0  0  0  0  0  0
  190.4200  172.5130  140.9310 N   0  0  0  0  0  0  0  0  0  0  0  0
  190.5490  171.6850  139.7460 C   0  0  0  0  0  1  0  0  0  0  0  0
  190.1620  175.4440  147.5030 N   0  0  0  0  0  2  0  0  0  0  0  0
  191.5400  175.3920  147.7530 N   0  0  0  0  0  2  0  0  0  0  0  0
  192.0310  176.6250  147.4890 O   0  0  0  0  0  0  0  0  0  0  0  0
  193.2010  176.3860  146.7700 C   0  0  0  0  0  1  0  0  0  0  0  0
  1 19  1  0  0  0  0
  1 20  1  0  0  0  0
  2  7  2  0  0  0  0
  2  4  1  0  0  0  0
  4  1  2  0  0  0  0
  6 11  1  0  0  0  0
  7  9  1  0  0  0  0
  8  6  1  0  0  0  0
  9 18  2  0  0  0  0
  9 19  1  0  0  0  0
 10 12  2  0  0  0  0
 12 28  1  0  0  0  0
 13 12  1  0  0  0  0
 13  8  1  0  0  0  0
 14 11  2  0  0  0  0
 15  4  1  0  0  0  0
 15 17  2  0  0  0  0
 16  5  1  6  0  0  0
 16 14  1  0  0  0  0
 17  3  1  0  0  0  0
 18 10  1  0  0  0  0
 19 13  2  0  0  0  0
 20  3  1  6  0  0  0
 20 16  1  0  0  0  0
 22 21  1  6  0  0  0
 22 23  1  0  0  0  0
 22  7  1  0  0  0  0
 23 24  1  0  0  0  0
 26 24  1  0  0  0  0
 26 25  1  0  0  0  0
 27 26  1  0  0  0  0
 28 29  1  0  0  0  0
 30 29  1  0  0  0  0
 31 30  1  0  0  0  0
M  END
>  <MODEL>
3

>  <REMARK>
 VINA RESULT:      -7.2      1.744      5.701
  Name = 
  7 active torsions:
  status: ('A' for Active; 'I' for Inactive)
    1  A    between atoms: C_7  and  C_10
    2  A    between atoms: C_7  and  C_11
    3  A    between atoms: N_9  and  N_15
    4  A    between atoms: N_9  and  O_25
    5  A    between atoms: C_11  and  C_13
    6  A    between atoms: C_13  and  N_18
    7  A    between atoms: N_15  and  C_20
                            x       y       z     vdW  Elec       q    Type
                         _______ _______ _______ _____ _____    ______ ____

>  <TORSDO>
F 7

$$$$
=
 OpenBabel11042417153D

 31 34  0  0  1  0  0  0  0  0999 V2000
  186.0300  177.6780  144.6920 C   0  0  0  0  0  0  0  0  0  0  0  0
  183.9610  178.2840  143.6320 N   0  0  0  0  0  0  0  0  0  0  0  0
  186.4880  178.9660  146.8480 C   0  0  0  0  0  2  0  0  0  0  0  0
  184.7170  178.1940  144.7520 C   0  0  0  0  0  0  0  0  0  0  0  0
  186.1340  176.3070  147.7310 O   0  0  0  0  0  1  0  0  0  0  0  0
  189.4970  176.5960  145.0810 N   0  0  0  0  0  2  0  0  0  0  0  0
  184.4310  177.9390  142.4060 C   0  0  0  0  0  0  0  0  0  0  0  0
  188.4410  175.9820  144.3990 N   0  0  0  0  0  2  0  0  0  0  0  0
  185.7350  177.4260  142.2770 C   0  0  0  0  0  0  0  0  0  0  0  0
  187.5100  176.5590  140.8700 C   0  0  0  0  0  3  0  0  0  0  0  0
  189.5690  176.4920  146.5090 C   0  0  0  0  0  3  0  0  0  0  0  0
  188.2860  176.2800  141.9950 C   0  0  0  0  0  0  0  0  0  0  0  0
  187.7980  176.5820  143.2780 C   0  0  0  0  0  0  0  0  0  0  0  0
  188.4700  176.4010  147.2730 C   0  0  0  0  0  3  0  0  0  0  0  0
  184.1800  178.7250  146.0160 C   0  0  0  0  0  3  0  0  0  0  0  0
  187.0750  176.4650  146.7120 C   0  0  2  0  0  3  0  0  0  0  0  0
  184.9970  179.0480  147.0190 C   0  0  0  0  0  3  0  0  0  0  0  0
  186.2420  177.1090  141.0100 C   0  0  0  0  0  3  0  0  0  0  0  0
  186.5350  177.2250  143.4340 C   0  0  0  0  0  0  0  0  0  0  0  0
  186.8850  177.7850  145.9470 C   0  0  1  0  0  3  0  0  0  0  0  0
  184.0510  179.0130  140.3040 O   0  0  0  0  0  1  0  0  0  0  0  0
  183.5290  178.0890  141.2110 C   0  0  2  0  0  3  0  0  0  0  0  0
  182.0950  178.4500  141.6050 C   0  0  0  0  0  2  0  0  0  0  0  0
  181.0930  178.3000  140.4630 C   0  0  0  0  0  2  0  0  0  0  0  0
  179.6590  178.8640  142.2160 C   0  0  0  0  0  1  0  0  0  0  0  0
  179.8500  178.9820  140.7820 N   0  0  0  0  0  0  0  0  0  0  0  0
  180.0650  180.3910  140.5060 C   0  0  0  0  0  1  0  0  0  0  0  0
  189.5560  175.6370  141.8500 N   0  0  0  0  0  2  0  0  0  0  0  0
  189.6730  174.3480  141.3130 N   0  0  0  0  0  2  0  0  0  0  0  0
  188.8220  173.5580  142.0070 O   0  0  0  0  0  0  0  0  0  0  0  0
  189.6460  172.8130  142.8480 C   0  0  0  0  0  1  0  0  0  0  0  0
  1  4  1  0  0  0  0
  1 20  1  0  0  0  0
  2  4  2  0  0  0  0
  3 17  1  0  0  0  0
  4 15  1  0  0  0  0
  6 11  1  0  0  0  0
  7  2  1  0  0  0  0
  8  6  1  0  0  0  0
  9  7  2  0  0  0  0
  9 19  1  0  0  0  0
 10 18  2  0  0  0  0
 10 12  1  0  0  0  0
 11 14  2  0  0  0  0
 12 13  2  0  0  0  0
 13 19  1  0  0  0  0
 13  8  1  0  0  0  0
 15 17  2  0  0  0  0
 16 14  1  0  0  0  0
 16  5  1  1  0  0  0
 18  9  1  0  0  0  0
 19  1  2  0  0  0  0
 20 16  1  0  0  0  0
 20  3  1  1  0  0  0
 22 21  1  6  0  0  0
 22 23  1  0  0  0  0
 22  7  1  0  0  0  0
 24 26  1  0  0  0  0
 24 23  1  0  0  0  0
 26 25  1  0  0  0  0
 27 26  1  0  0  0  0
 28 12  1  0  0  0  0
 29 28  1  0  0  0  0
 29 30  1  0  0  0  0
 30 31  1  0  0  0  0
M  END
>  <MODEL>
4

>  <REMARK>
 VINA RESULT:      -7.0      2.714      7.277
  Name = 
  7 active torsions:
  status: ('A' for Active; 'I' for Inactive)
    1  A    between atoms: C_7  and  C_10
    2  A    between atoms: C_7  and  C_11
    3  A    between atoms: N_9  and  N_15
    4  A    between atoms: N_9  and  O_25
    5  A    between atoms: C_11  and  C_13
    6  A    between atoms: C_13  and  N_18
    7  A    between atoms: N_15  and  C_20
                            x       y       z     vdW  Elec       q    Type
                         _______ _______ _______ _____ _____    ______ ____

>  <TORSDO>
F 7

$$$$
=
 OpenBabel11042417153D

 31 34  0  0  1  0  0  0  0  0999 V2000
  187.4180  176.6140  143.6420 C   0  0  0  0  0  0  0  0  0  0  0  0
  187.7340  175.4610  141.5580 N   0  0  0  0  0  0  0  0  0  0  0  0
  186.5930  179.0140  143.3650 C   0  0  0  0  0  2  0  0  0  0  0  0
  187.1220  176.4350  142.2730 C   0  0  0  0  0  0  0  0  0  0  0  0
  184.4280  177.7140  144.6280 O   0  0  0  0  0  1  0  0  0  0  0  0
  187.9220  177.6180  147.1170 N   0  0  0  0  0  2  0  0  0  0  0  0
  188.6840  174.6520  142.0930 C   0  0  0  0  0  0  0  0  0  0  0  0
  187.7230  176.3430  146.5760 N   0  0  0  0  0  2  0  0  0  0  0  0
  189.0320  174.7850  143.4500 C   0  0  0  0  0  0  0  0  0  0  0  0
  190.3640  174.0710  145.3460 C   0  0  0  0  0  3  0  0  0  0  0  0
  186.8000  178.4930  147.2920 C   0  0  0  0  0  3  0  0  0  0  0  0
  189.6610  174.9360  146.1860 C   0  0  0  0  0  0  0  0  0  0  0  0
  188.6380  175.7440  145.6630 C   0  0  0  0  0  0  0  0  0  0  0  0
  185.7380  178.4610  146.4720 C   0  0  0  0  0  3  0  0  0  0  0  0
  186.2110  177.3590  141.5790 C   0  0  0  0  0  3  0  0  0  0  0  0
  185.6580  177.5600  145.2700 C   0  0  2  0  0  3  0  0  0  0  0  0
  185.9230  178.5510  142.1030 C   0  0  0  0  0  3  0  0  0  0  0  0
  190.0420  173.9840  143.9980 C   0  0  0  0  0  3  0  0  0  0  0  0
  188.3510  175.7300  144.2660 C   0  0  0  0  0  0  0  0  0  0  0  0
  186.8410  177.8430  144.3300 C   0  0  1  0  0  3  0  0  0  0  0  0
  190.5580  174.0520  140.7340 O   0  0  0  0  0  1  0  0  0  0  0  0
  189.3270  173.6070  141.2220 C   0  0  2  0  0  3  0  0  0  0  0  0
  188.4100  173.1550  140.0820 C   0  0  0  0  0  2  0  0  0  0  0  0
  189.1520  172.4570  138.9450 C   0  0  0  0  0  2  0  0  0  0  0  0
  188.0670  174.2840  137.9780 C   0  0  0  0  0  1  0  0  0  0  0  0
  188.9090  173.1380  137.6840 N   0  0  0  0  0  0  0  0  0  0  0  0
  190.1870  173.6650  137.2410 C   0  0  0  0  0  1  0  0  0  0  0  0
  189.9410  174.9610  147.5880 N   0  0  0  0  0  2  0  0  0  0  0  0
  191.1870  175.3690  148.0840 N   0  0  0  0  0  2  0  0  0  0  0  0
  191.3900  176.6300  147.6390 O   0  0  0  0  0  0  0  0  0  0  0  0
  191.4610  177.4010  148.7970 C   0  0  0  0  0  1  0  0  0  0  0  0
  1 19  1  0  0  0  0
  1 20  1  0  0  0  0
  2  7  2  0  0  0  0
  2  4  1  0  0  0  0
  4  1  2  0  0  0  0
  6 11  1  0  0  0  0
  7  9  1  0  0  0  0
  8  6  1  0  0  0  0
  9 18  2  0  0  0  0
  9 19  1  0  0  0  0
 10 12  2  0  0  0  0
 12 28  1  0  0  0  0
 13 12  1  0  0  0  0
 13  8  1  0  0  0  0
 14 11  2  0  0  0  0
 15 17  2  0  0  0  0
 15  4  1  0  0  0  0
 16  5  1  6  0  0  0
 16 14  1  0  0  0  0
 17  3  1  0  0  0  0
 18 10  1  0  0  0  0
 19 13  2  0  0  0  0
 20  3  1  6  0  0  0
 20 16  1  0  0  0  0
 22 21  1  6  0  0  0
 22  7  1  0  0  0  0
 23 22  1  0  0  0  0
 24 23  1  0  0  0  0
 26 25  1  0  0  0  0
 26 24  1  0  0  0  0
 27 26  1  0  0  0  0
 28 29  1  0  0  0  0
 30 29  1  0  0  0  0
 30 31  1  0  0  0  0
M  END
>  <MODEL>
5

>  <REMARK>
 VINA RESULT:      -7.0      2.092      6.301
  Name = 
  7 active torsions:
  status: ('A' for Active; 'I' for Inactive)
    1  A    between atoms: C_7  and  C_10
    2  A    between atoms: C_7  and  C_11
    3  A    between atoms: N_9  and  N_15
    4  A    between atoms: N_9  and  O_25
    5  A    between atoms: C_11  and  C_13
    6  A    between atoms: C_13  and  N_18
    7  A    between atoms: N_15  and  C_20
                            x       y       z     vdW  Elec       q    Type
                         _______ _______ _______ _____ _____    ______ ____

>  <TORSDO>
F 7

$$$$
=
 OpenBabel11042417153D

 31 34  0  0  1  0  0  0  0  0999 V2000
  189.2700  174.7810  143.4980 C   0  0  0  0  0  0  0  0  0  0  0  0
  187.2610  176.0860  143.3110 N   0  0  0  0  0  0  0  0  0  0  0  0
  189.0870  172.4690  142.4320 C   0  0  0  0  0  2  0  0  0  0  0  0
  188.0570  175.0940  142.8460 C   0  0  0  0  0  0  0  0  0  0  0  0
  190.9970  173.7870  140.8240 O   0  0  0  0  0  1  0  0  0  0  0  0
  192.3830  173.4570  144.8720 N   0  0  0  0  0  2  0  0  0  0  0  0
  187.5520  176.7860  144.4370 C   0  0  0  0  0  0  0  0  0  0  0  0
  192.0040  174.7830  144.6360 N   0  0  0  0  0  2  0  0  0  0  0  0
  188.7410  176.5170  145.1390 C   0  0  0  0  0  0  0  0  0  0  0  0
  190.2180  176.9840  147.0050 C   0  0  0  0  0  3  0  0  0  0  0  0
  192.8150  172.6410  143.7750 C   0  0  0  0  0  3  0  0  0  0  0  0
  191.1670  176.0970  146.4960 C   0  0  0  0  0  0  0  0  0  0  0  0
  190.9080  175.3990  145.3040 C   0  0  0  0  0  0  0  0  0  0  0  0
  192.3380  172.8070  142.5330 C   0  0  0  0  0  3  0  0  0  0  0  0
  187.5950  174.2900  141.7030 C   0  0  0  0  0  3  0  0  0  0  0  0
  191.2690  173.8110  142.1930 C   0  0  2  0  0  3  0  0  0  0  0  0
  188.1020  173.0780  141.4750 C   0  0  0  0  0  3  0  0  0  0  0  0
  189.0270  177.2050  146.3250 C   0  0  0  0  0  3  0  0  0  0  0  0
  189.6550  175.5500  144.6390 C   0  0  0  0  0  0  0  0  0  0  0  0
  190.0140  173.5360  143.0380 C   0  0  1  0  0  3  0  0  0  0  0  0
  185.4960  177.3050  145.5430 O   0  0  0  0  0  1  0  0  0  0  0  0
  186.6010  177.8600  144.8940 C   0  0  2  0  0  3  0  0  0  0  0  0
  186.1680  178.7800  143.7500 C   0  0  0  0  0  2  0  0  0  0  0  0
  184.6720  178.7190  143.4520 C   0  0  0  0  0  2  0  0  0  0  0  0
  183.1190  178.2900  141.7640 C   0  0  0  0  0  1  0  0  0  0  0  0
  184.4190  177.9020  142.2780 N   0  0  0  0  0  0  0  0  0  0  0  0
  185.3950  178.2950  141.2780 C   0  0  0  0  0  1  0  0  0  0  0  0
  192.4260  175.9350  147.1560 N   0  0  0  0  0  2  0  0  0  0  0  0
  193.5030  176.7980  146.9100 N   0  0  0  0  0  2  0  0  0  0  0  0
  194.5370  176.0260  146.5070 O   0  0  0  0  0  0  0  0  0  0  0  0
  194.9610  176.6070  145.3130 C   0  0  0  0  0  1  0  0  0  0  0  0
  1 19  1  0  0  0  0
  2  7  2  0  0  0  0
  4  2  1  0  0  0  0
  4  1  2  0  0  0  0
  7 22  1  0  0  0  0
  7  9  1  0  0  0  0
  8  6  1  0  0  0  0
  8 13  1  0  0  0  0
  9 18  1  0  0  0  0
 11  6  1  0  0  0  0
 12 10  1  0  0  0  0
 12 28  1  0  0  0  0
 13 12  2  0  0  0  0
 14 11  2  0  0  0  0
 15  4  1  0  0  0  0
 16  5  1  6  0  0  0
 16 14  1  0  0  0  0
 16 20  1  0  0  0  0
 17 15  2  0  0  0  0
 17  3  1  0  0  0  0
 18 10  2  0  0  0  0
 19  9  2  0  0  0  0
 19 13  1  0  0  0  0
 20  3  1  6  0  0  0
 20  1  1  0  0  0  0
 22 21  1  6  0  0  0
 23 22  1  0  0  0  0
 24 23  1  0  0  0  0
 25 26  1  0  0  0  0
 26 24  1  0  0  0  0
 27 26  1  0  0  0  0
 29 28  1  0  0  0  0
 30 29  1  0  0  0  0
 31 30  1  0  0  0  0
M  END
>  <MODEL>
6

>  <REMARK>
 VINA RESULT:      -6.8      2.136      7.475
  Name = 
  7 active torsions:
  status: ('A' for Active; 'I' for Inactive)
    1  A    between atoms: C_7  and  C_10
    2  A    between atoms: C_7  and  C_11
    3  A    between atoms: N_9  and  N_15
    4  A    between atoms: N_9  and  O_25
    5  A    between atoms: C_11  and  C_13
    6  A    between atoms: C_13  and  N_18
    7  A    between atoms: N_15  and  C_20
                            x       y       z     vdW  Elec       q    Type
                         _______ _______ _______ _____ _____    ______ ____

>  <TORSDO>
F 7

$$$$
=
 OpenBabel11042417153D

 31 34  0  0  1  0  0  0  0  0999 V2000
  189.3790  175.7150  145.0060 C   0  0  0  0  0  0  0  0  0  0  0  0
  191.4330  174.8340  144.1230 N   0  0  0  0  0  0  0  0  0  0  0  0
  188.9350  175.0370  147.4260 C   0  0  0  0  0  2  0  0  0  0  0  0
  190.6890  175.2200  145.1870 C   0  0  0  0  0  0  0  0  0  0  0  0
  189.3170  177.8300  147.5830 O   0  0  0  0  0  1  0  0  0  0  0  0
  185.9250  176.8930  145.1280 N   0  0  0  0  0  2  0  0  0  0  0  0
  190.9530  174.8530  142.8540 C   0  0  0  0  0  0  0  0  0  0  0  0
  186.9780  177.2980  144.3010 N   0  0  0  0  0  2  0  0  0  0  0  0
  189.6510  175.3260  142.6050 C   0  0  0  0  0  0  0  0  0  0  0  0
  187.8680  175.8140  141.0360 C   0  0  0  0  0  3  0  0  0  0  0  0
  185.8680  177.3660  146.4790 C   0  0  0  0  0  3  0  0  0  0  0  0
  187.1050  176.3840  142.0570 C   0  0  0  0  0  0  0  0  0  0  0  0
  187.6050  176.4220  143.3690 C   0  0  0  0  0  0  0  0  0  0  0  0
  186.9750  177.6430  147.1850 C   0  0  0  0  0  3  0  0  0  0  0  0
  191.2360  175.0320  146.5410 C   0  0  0  0  0  3  0  0  0  0  0  0
  188.3640  177.4220  146.6490 C   0  0  2  0  0  3  0  0  0  0  0  0
  190.4270  174.9890  147.6000 C   0  0  0  0  0  3  0  0  0  0  0  0
  189.1330  175.3070  141.3040 C   0  0  0  0  0  3  0  0  0  0  0  0
  188.8650  175.8300  143.6770 C   0  0  0  0  0  0  0  0  0  0  0  0
  188.5370  175.9460  146.2520 C   0  0  1  0  0  3  0  0  0  0  0  0
  192.1970  173.0480  141.8970 O   0  0  0  0  0  1  0  0  0  0  0  0
  191.8410  174.3880  141.7310 C   0  0  2  0  0  3  0  0  0  0  0  0
  193.0780  175.2730  141.5630 C   0  0  0  0  0  2  0  0  0  0  0  0
  194.3940  174.5040  141.6550 C   0  0  0  0  0  2  0  0  0  0  0  0
  195.7110  176.4060  141.3430 C   0  0  0  0  0  1  0  0  0  0  0  0
  195.4230  175.3270  142.2690 N   0  0  0  0  0  0  0  0  0  0  0  0
  194.8250  175.9360  143.4430 C   0  0  0  0  0  1  0  0  0  0  0  0
  185.8380  176.9780  141.7600 N   0  0  0  0  0  2  0  0  0  0  0  0
  185.7050  177.9870  140.7950 N   0  0  0  0  0  2  0  0  0  0  0  0
  184.3970  178.3330  140.7720 O   0  0  0  0  0  0  0  0  0  0  0  0
  183.9720  178.1710  142.0890 C   0  0  0  0  0  1  0  0  0  0  0  0
  1  4  1  0  0  0  0
  1 20  1  0  0  0  0
  2  4  2  0  0  0  0
  3 17  1  0  0  0  0
  4 15  1  0  0  0  0
  6 11  1  0  0  0  0
  7  2  1  0  0  0  0
  8  6  1  0  0  0  0
  9  7  2  0  0  0  0
  9 19  1  0  0  0  0
 10 18  2  0  0  0  0
 10 12  1  0  0  0  0
 11 14  2  0  0  0  0
 12 13  2  0  0  0  0
 13 19  1  0  0  0  0
 13  8  1  0  0  0  0
 15 17  2  0  0  0  0
 16 14  1  0  0  0  0
 16  5  1  1  0  0  0
 18  9  1  0  0  0  0
 19  1  2  0  0  0  0
 20 16  1  0  0  0  0
 20  3  1  1  0  0  0
 22 21  1  1  0  0  0
 22  7  1  0  0  0  0
 23 24  1  0  0  0  0
 23 22  1  0  0  0  0
 24 26  1  0  0  0  0
 25 26  1  0  0  0  0
 26 27  1  0  0  0  0
 28 12  1  0  0  0  0
 29 28  1  0  0  0  0
 30 29  1  0  0  0  0
 30 31  1  0  0  0  0
M  END
>  <MODEL>
7

>  <REMARK>
 VINA RESULT:      -6.7      2.540      4.423
  Name = 
  7 active torsions:
  status: ('A' for Active; 'I' for Inactive)
    1  A    between atoms: C_7  and  C_10
    2  A    between atoms: C_7  and  C_11
    3  A    between atoms: N_9  and  N_15
    4  A    between atoms: N_9  and  O_25
    5  A    between atoms: C_11  and  C_13
    6  A    between atoms: C_13  and  N_18
    7  A    between atoms: N_15  and  C_20
                            x       y       z     vdW  Elec       q    Type
                         _______ _______ _______ _____ _____    ______ ____

>  <TORSDO>
F 7

$$$$
=
 OpenBabel11042417153D

 31 34  0  0  1  0  0  0  0  0999 V2000
  187.1490  176.8340  144.7900 C   0  0  0  0  0  0  0  0  0  0  0  0
  189.2070  175.5980  144.6870 N   0  0  0  0  0  0  0  0  0  0  0  0
  185.8130  176.4130  146.9230 C   0  0  0  0  0  2  0  0  0  0  0  0
  188.2220  176.1680  145.4210 C   0  0  0  0  0  0  0  0  0  0  0  0
  186.5690  179.1240  147.1440 O   0  0  0  0  0  1  0  0  0  0  0  0
  184.0970  178.5100  143.6910 N   0  0  0  0  0  2  0  0  0  0  0  0
  189.1920  175.5910  143.3300 C   0  0  0  0  0  0  0  0  0  0  0  0
  185.4180  178.6930  143.2690 N   0  0  0  0  0  2  0  0  0  0  0  0
  188.1460  176.2300  142.6390 C   0  0  0  0  0  0  0  0  0  0  0  0
  187.1000  176.8530  140.5420 C   0  0  0  0  0  3  0  0  0  0  0  0
  183.6660  179.0870  144.9300 C   0  0  0  0  0  3  0  0  0  0  0  0
  186.1420  177.6030  141.2250 C   0  0  0  0  0  0  0  0  0  0  0  0
  186.1700  177.6670  142.6290 C   0  0  0  0  0  0  0  0  0  0  0  0
  184.5010  179.2510  145.9680 C   0  0  0  0  0  3  0  0  0  0  0  0
  188.2430  176.0040  146.8840 C   0  0  0  0  0  3  0  0  0  0  0  0
  185.9330  178.7900  145.9470 C   0  0  2  0  0  3  0  0  0  0  0  0
  187.1290  176.1600  147.6010 C   0  0  0  0  0  3  0  0  0  0  0  0
  188.1000  176.1890  141.2400 C   0  0  0  0  0  3  0  0  0  0  0  0
  187.1380  176.9220  143.3640 C   0  0  0  0  0  0  0  0  0  0  0  0
  185.9870  177.2790  145.6650 C   0  0  1  0  0  3  0  0  0  0  0  0
  189.8740  173.7590  141.9530 O   0  0  0  0  0  1  0  0  0  0  0  0
  190.3180  174.9180  142.5910 C   0  0  2  0  0  3  0  0  0  0  0  0
  191.5170  174.6270  143.4980 C   0  0  0  0  0  2  0  0  0  0  0  0
  192.7660  175.4240  143.1280 C   0  0  0  0  0  2  0  0  0  0  0  0
  194.8830  176.1080  143.8360 C   0  0  0  0  0  1  0  0  0  0  0  0
  193.5830  175.6650  144.3060 N   0  0  0  0  0  0  0  0  0  0  0  0
  192.9880  176.7900  145.0040 C   0  0  0  0  0  1  0  0  0  0  0  0
  185.1640  178.3530  140.4980 N   0  0  0  0  0  2  0  0  0  0  0  0
  183.9270  177.7990  140.1400 N   0  0  0  0  0  2  0  0  0  0  0  0
  182.9800  178.6960  140.4990 O   0  0  0  0  0  0  0  0  0  0  0  0
  181.9310  177.9180  140.9860 C   0  0  0  0  0  1  0  0  0  0  0  0
  1  4  1  0  0  0  0
  1 20  1  0  0  0  0
  2  4  2  0  0  0  0
  3 17  1  0  0  0  0
  4 15  1  0  0  0  0
  6 11  1  0  0  0  0
  7  2  1  0  0  0  0
  8  6  1  0  0  0  0
  9  7  2  0  0  0  0
  9 19  1  0  0  0  0
 10 12  1  0  0  0  0
 10 18  2  0  0  0  0
 11 14  2  0  0  0  0
 12 13  2  0  0  0  0
 13  8  1  0  0  0  0
 13 19  1  0  0  0  0
 15 17  2  0  0  0  0
 16 14  1  0  0  0  0
 16  5  1  1  0  0  0
 18  9  1  0  0  0  0
 19  1  2  0  0  0  0
 20 16  1  0  0  0  0
 20  3  1  1  0  0  0
 22 21  1  1  0  0  0
 22  7  1  0  0  0  0
 22 23  1  0  0  0  0
 24 23  1  0  0  0  0
 24 26  1  0  0  0  0
 25 26  1  0  0  0  0
 26 27  1  0  0  0  0
 28 12  1  0  0  0  0
 29 28  1  0  0  0  0
 29 30  1  0  0  0  0
 30 31  1  0  0  0  0
M  END
>  <MODEL>
8

>  <REMARK>
 VINA RESULT:      -6.6      2.451      3.622
  Name = 
  7 active torsions:
  status: ('A' for Active; 'I' for Inactive)
    1  A    between atoms: C_7  and  C_10
    2  A    between atoms: C_7  and  C_11
    3  A    between atoms: N_9  and  N_15
    4  A    between atoms: N_9  and  O_25
    5  A    between atoms: C_11  and  C_13
    6  A    between atoms: C_13  and  N_18
    7  A    between atoms: N_15  and  C_20
                            x       y       z     vdW  Elec       q    Type
                         _______ _______ _______ _____ _____    ______ ____

>  <TORSDO>
F 7

$$$$
=
 OpenBabel11042417153D

 31 34  0  0  1  0  0  0  0  0999 V2000
  186.8120  177.3650  145.1380 C   0  0  0  0  0  0  0  0  0  0  0  0
  188.3270  176.9600  146.9580 N   0  0  0  0  0  0  0  0  0  0  0  0
  184.4240  177.8640  145.8900 C   0  0  0  0  0  2  0  0  0  0  0  0
  187.1900  177.5270  146.4890 C   0  0  0  0  0  0  0  0  0  0  0  0
  185.2700  180.2940  144.7290 O   0  0  0  0  0  1  0  0  0  0  0  0
  185.2880  177.1330  141.8270 N   0  0  0  0  0  2  0  0  0  0  0  0
  189.1230  176.1780  146.1850 C   0  0  0  0  0  0  0  0  0  0  0  0
  186.6100  177.4200  142.1840 N   0  0  0  0  0  2  0  0  0  0  0  0
  188.7970  175.9680  144.8330 C   0  0  0  0  0  0  0  0  0  0  0  0
  189.3080  174.9470  142.6930 C   0  0  0  0  0  3  0  0  0  0  0  0
  184.2900  178.1550  141.9370 C   0  0  0  0  0  3  0  0  0  0  0  0
  188.2480  175.6320  142.0970 C   0  0  0  0  0  0  0  0  0  0  0  0
  187.4420  176.4880  142.8670 C   0  0  0  0  0  0  0  0  0  0  0  0
  184.3540  179.1160  142.8710 C   0  0  0  0  0  3  0  0  0  0  0  0
  186.3120  178.2400  147.4300 C   0  0  0  0  0  3  0  0  0  0  0  0
  185.4340  179.1700  143.9180 C   0  0  2  0  0  3  0  0  0  0  0  0
  185.0260  178.4410  147.1400 C   0  0  0  0  0  3  0  0  0  0  0  0
  189.5890  175.1270  144.0420 C   0  0  0  0  0  3  0  0  0  0  0  0
  187.6650  176.6180  144.2690 C   0  0  0  0  0  0  0  0  0  0  0  0
  185.4330  177.8650  144.7300 C   0  0  1  0  0  3  0  0  0  0  0  0
  190.0310  174.7300  147.8590 O   0  0  0  0  0  1  0  0  0  0  0  0
  190.3590  175.5700  146.7930 C   0  0  2  0  0  3  0  0  0  0  0  0
  191.3800  176.6290  147.2160 C   0  0  0  0  0  2  0  0  0  0  0  0
  191.6340  176.6630  148.7220 C   0  0  0  0  0  2  0  0  0  0  0  0
  190.3490  178.6090  148.8070 C   0  0  0  0  0  1  0  0  0  0  0  0
  191.6170  178.0320  149.2100 N   0  0  0  0  0  0  0  0  0  0  0  0
  191.5970  177.9570  150.6600 C   0  0  0  0  0  1  0  0  0  0  0  0
  188.0130  175.5070  140.6910 N   0  0  0  0  0  2  0  0  0  0  0  0
  188.3220  174.3310  139.9930 N   0  0  0  0  0  2  0  0  0  0  0  0
  188.0400  174.5660  138.6910 O   0  0  0  0  0  0  0  0  0  0  0  0
  188.4300  173.4000  138.0350 C   0  0  0  0  0  1  0  0  0  0  0  0
  1  4  1  0  0  0  0
  3 17  1  0  0  0  0
  4  2  2  0  0  0  0
  4 15  1  0  0  0  0
  6 11  1  0  0  0  0
  6  8  1  0  0  0  0
  7 22  1  0  0  0  0
  7  2  1  0  0  0  0
  8 13  1  0  0  0  0
  9  7  2  0  0  0  0
 10 18  2  0  0  0  0
 11 14  2  0  0  0  0
 12 10  1  0  0  0  0
 12 13  2  0  0  0  0
 13 19  1  0  0  0  0
 14 16  1  0  0  0  0
 16  5  1  1  0  0  0
 16 20  1  0  0  0  0
 17 15  2  0  0  0  0
 18  9  1  0  0  0  0
 19  9  1  0  0  0  0
 19  1  2  0  0  0  0
 20  1  1  0  0  0  0
 20  3  1  1  0  0  0
 22 23  1  0  0  0  0
 22 21  1  1  0  0  0
 23 24  1  0  0  0  0
 24 26  1  0  0  0  0
 25 26  1  0  0  0  0
 26 27  1  0  0  0  0
 28 12  1  0  0  0  0
 29 28  1  0  0  0  0
 30 29  1  0  0  0  0
 31 30  1  0  0  0  0
M  END
>  <MODEL>
9

>  <REMARK>
 VINA RESULT:      -6.5      1.342      1.841
  Name = 
  7 active torsions:
  status: ('A' for Active; 'I' for Inactive)
    1  A    between atoms: C_7  and  C_10
    2  A    between atoms: C_7  and  C_11
    3  A    between atoms: N_9  and  N_15
    4  A    between atoms: N_9  and  O_25
    5  A    between atoms: C_11  and  C_13
    6  A    between atoms: C_13  and  N_18
    7  A    between atoms: N_15  and  C_20
                            x       y       z     vdW  Elec       q    Type
                         _______ _______ _______ _____ _____    ______ ____

>  <TORSDO>
F 7

$$$$
