=
 OpenBabel11042417353D

 68 78  0  0  1  0  0  0  0  0999 V2000
  188.9350  173.4140  140.3940 C   0  0  0  0  0  3  0  0  0  0  0  0
  193.0380  172.4980  136.6870 C   0  0  0  0  0  2  0  0  0  0  0  0
  195.6180  170.1920  137.9210 C   0  0  0  0  0  3  0  0  0  0  0  0
  190.5900  172.9370  136.7610 C   0  0  2  0  0  3  0  0  0  0  0  0
  191.3170  174.4890  135.0030 F   0  0  0  0  0  0  0  0  0  0  0  0
  193.8900  168.9350  142.8620 C   0  0  0  0  0  0  0  0  0  0  0  0
  194.1420  171.7710  135.9420 C   0  0  0  0  0  2  0  0  0  0  0  0
  194.5070  169.3690  141.6110 C   0  0  0  0  0  3  0  0  0  0  0  0
  191.0600  169.8840  141.2360 C   0  0  0  0  0  0  0  0  0  0  0  0
  187.9290  174.0020  137.8580 N   0  0  0  0  0  0  0  0  0  0  0  0
  195.9850  169.2770  144.0740 C   0  0  1  0  0  3  0  0  0  0  0  0
  196.2470  170.0050  145.4070 C   0  0  2  0  0  3  0  0  0  0  0  0
  189.5290  176.2680  135.4900 F   0  0  0  0  0  0  0  0  0  0  0  0
  190.3240  171.0420  140.9380 C   0  0  0  0  0  0  0  0  0  0  0  0
  195.9950  173.3830  135.9980 N   0  0  0  0  0  0  0  0  0  0  0  0
  196.7960  171.4970  143.1040 C   0  0  0  0  0  2  0  0  0  0  0  0
  190.7070  171.8270  143.1600 N   0  0  0  0  0  2  0  0  0  0  0  0
  195.4690  172.2180  136.4640 C   0  0  0  0  0  0  0  0  0  0  0  0
  189.7800  171.2610  139.6640 C   0  0  0  0  0  3  0  0  0  0  0  0
  190.1590  172.0210  141.9370 C   0  0  0  0  0  0  0  0  0  0  0  0
  189.3050  172.1400  136.8660 C   0  0  1  0  0  3  0  0  0  0  0  0
  188.3310  175.0550  137.1960 C   0  0  0  0  0  0  0  0  0  0  0  0
  197.6130  170.6880  145.4000 C   0  0  0  0  0  2  0  0  0  0  0  0
  188.4550  172.6450  138.0220 C   0  0  1  0  0  3  0  0  0  0  0  0
  196.1740  169.0230  146.5680 C   0  0  0  0  0  1  0  0  0  0  0  0
  196.2480  170.4350  140.2700 C   0  0  0  0  0  2  0  0  0  0  0  0
  194.5530  168.9680  143.9710 N   0  0  0  0  0  0  0  0  0  0  0  0
  197.8240  173.2420  137.5230 C   0  0  0  0  0  3  0  0  0  0  0  0
  196.5910  169.9970  142.8200 C   0  0  1  0  0  0  0  0  0  0  0  0
  195.7060  169.7170  139.1270 N   0  0  0  0  0  0  0  0  0  0  0  0
  189.4690  175.1280  136.2290 C   0  0  0  0  0  0  0  0  0  0  0  0
  191.2640  168.9990  140.3540 O   0  0  0  0  0  0  0  0  0  0  0  0
  190.4190  174.2130  135.9890 C   0  0  0  0  0  0  0  0  0  0  0  0
  197.1560  173.9000  136.4830 C   0  0  0  0  0  0  0  0  0  0  0  0
  191.6860  172.0500  136.1760 C   0  0  0  0  0  2  0  0  0  0  0  0
  189.0960  172.4550  139.3780 C   0  0  0  0  0  0  0  0  0  0  0  0
  196.1270  171.5100  137.4860 C   0  0  0  0  0  0  0  0  0  0  0  0
  191.3950  170.7200  143.4460 N   0  0  0  0  0  0  0  0  0  0  0  0
  197.3100  172.0420  138.0120 C   0  0  0  0  0  3  0  0  0  0  0  0
  197.6880  171.7790  144.3240 C   0  0  0  0  0  2  0  0  0  0  0  0
  189.4680  173.1990  141.6640 C   0  0  0  0  0  3  0  0  0  0  0  0
  197.9410  169.3460  142.5360 C   0  0  0  0  0  1  0  0  0  0  0  0
  191.5880  169.7360  142.5270 C   0  0  0  0  0  0  0  0  0  0  0  0
  192.4460  168.5640  142.8830 C   0  0  0  0  0  2  0  0  0  0  0  0
  195.7500  169.8490  141.5650 C   0  0  0  0  0  0  0  0  0  0  0  0
  197.6560  175.2040  135.9360 C   0  0  2  0  0  3  0  0  0  0  0  0
  196.6790  176.3420  136.1780 C   0  0  0  0  0  1  0  0  0  0  0  0
  197.9410  175.0820  134.5130 N   0  0  0  0  0  1  0  0  0  0  0  0
  189.3250  171.2660  134.8360 C   0  0  0  0  0  1  0  0  0  0  0  0
  188.5840  172.1080  135.6660 O   0  0  0  0  0  0  0  0  0  0  0  0
  187.6150  176.2500  137.3640 O   0  0  0  0  0  0  0  0  0  0  0  0
  186.2370  176.2830  137.7250 C   0  0  0  0  0  2  0  0  0  0  0  0
  186.9640  177.3500  141.2760 C   0  0  0  0  0  0  0  0  0  0  0  0
  185.5740  177.6850  141.7490 C   0  0  0  0  0  2  0  0  0  0  0  0
  186.0690  176.9760  139.0340 C   0  0  0  0  0  0  0  0  0  0  0  0
  187.1720  176.9630  140.0140 C   0  0  0  0  0  3  0  0  0  0  0  0
  184.9050  177.5630  139.3350 C   0  0  0  0  0  3  0  0  0  0  0  0
  184.7450  178.3200  140.6280 C   0  0  0  0  0  2  0  0  0  0  0  0
  189.1930  176.6800  142.8920 C   0  0  1  0  0  3  0  0  0  0  0  0
  188.0900  177.8290  144.6160 C   0  0  0  0  0  2  0  0  0  0  0  0
  188.6850  175.6870  143.9270 C   0  0  2  0  0  3  0  0  0  0  0  0
  187.9380  176.4200  144.9460 N   0  0  1  0  0  0  0  0  0  0  0  0
  188.6580  176.1870  146.1740 C   0  0  1  0  0  3  0  0  0  0  0  0
  189.7780  175.0080  144.5010 O   0  0  0  0  0  0  0  0  0  0  0  0
  187.7640  175.8350  147.1850 O   0  0  0  0  0  1  0  0  0  0  0  0
  189.5710  175.0360  145.8840 C   0  0  0  0  0  2  0  0  0  0  0  0
  188.0420  177.3370  142.2060 N   0  0  0  0  0  0  0  0  0  0  0  0
  188.8470  177.9470  143.3070 C   0  0  2  0  0  3  0  0  0  0  0  0
  1 41  1  0  0  0  0
  3 30  2  0  0  0  0
  4 35  1  6  0  0  0
  4 21  1  0  0  0  0
  5 33  1  0  0  0  0
  6 44  1  0  0  0  0
  6 27  2  0  0  0  0
  7 18  1  0  0  0  0
  7  2  1  0  0  0  0
  8  6  1  0  0  0  0
  9 43  1  0  0  0  0
 11 27  1  6  0  0  0
 11 12  1  0  0  0  0
 12 25  1  1  0  0  0
 13 31  1  0  0  0  0
 14  9  1  0  0  0  0
 14 20  1  0  0  0  0
 15 18  2  0  0  0  0
 15 34  1  0  0  0  0
 16 40  1  0  0  0  0
 17 38  1  0  0  0  0
 18 37  1  0  0  0  0
 19 14  2  0  0  0  0
 20 17  1  0  0  0  0
 21 50  1  6  0  0  0
 21 24  1  0  0  0  0
 22 51  1  0  0  0  0
 22 10  2  0  0  0  0
 23 12  1  0  0  0  0
 24 10  1  6  0  0  0
 24 36  1  0  0  0  0
 26 45  1  0  0  0  0
 28 39  1  0  0  0  0
 29 42  1  6  0  0  0
 29 16  1  0  0  0  0
 29 11  1  0  0  0  0
 30 26  1  0  0  0  0
 31 22  1  0  0  0  0
 32  9  2  0  0  0  0
 33 31  2  0  0  0  0
 33  4  1  0  0  0  0
 34 28  2  0  0  0  0
 35  2  1  0  0  0  0
 36 19  1  0  0  0  0
 36  1  2  0  0  0  0
 37  3  1  0  0  0  0
 37 39  2  0  0  0  0
 40 23  1  0  0  0  0
 41 20  2  0  0  0  0
 43 44  1  0  0  0  0
 43 38  2  0  0  0  0
 45  8  2  0  0  0  0
 45 29  1  0  0  0  0
 46 47  1  6  0  0  0
 46 34  1  0  0  0  0
 48 46  1  0  0  0  0
 49 50  1  0  0  0  0
 51 52  1  0  0  0  0
 52 55  1  0  0  0  0
 53 54  1  0  0  0  0
 53 67  1  0  0  0  0
 55 57  2  0  0  0  0
 55 56  1  0  0  0  0
 56 53  2  0  0  0  0
 57 58  1  0  0  0  0
 58 54  1  0  0  0  0
 59 67  1  6  0  0  0
 59 68  1  0  0  0  0
 59 61  1  0  0  0  0
 61 64  1  1  0  0  0
 61 62  1  0  0  0  0
 62 60  1  6  0  0  0
 62 63  1  0  0  0  0
 63 65  1  1  0  0  0
 64 66  1  0  0  0  0
 66 63  1  0  0  0  0
 67 68  1  0  0  0  0
 68 60  1  1  0  0  0
M  END
>  <MODEL>
1

>  <REMARK>
 VINA RESULT:      -6.7      0.000      0.000
  Name = 
  6 active torsions:
  status: ('A' for Active; 'I' for Inactive)
    1  A    between atoms: C_10  and  N_57
    2  A    between atoms: C_17  and  C_25
    3  A    between atoms: C_17  and  O_30
    4  A    between atoms: C_20  and  C_54
    5  A    between atoms: O_24  and  C_35
    6  A    between atoms: O_30  and  C_36
                            x       y       z     vdW  Elec       q    Type
                         _______ _______ _______ _____ _____    ______ ____

>  <TORSDO>
F 6

$$$$
=
 OpenBabel11042417353D

 68 78  0  0  1  0  0  0  0  0999 V2000
  191.2850  175.8560  142.4370 C   0  0  0  0  0  3  0  0  0  0  0  0
  195.3650  173.2910  145.2980 C   0  0  0  0  0  2  0  0  0  0  0  0
  197.9410  171.8100  143.1370 C   0  0  0  0  0  3  0  0  0  0  0  0
  193.8340  175.2440  145.4850 C   0  0  2  0  0  3  0  0  0  0  0  0
  193.6160  174.2310  147.7110 F   0  0  0  0  0  0  0  0  0  0  0  0
  196.2340  173.0160  138.1760 C   0  0  0  0  0  0  0  0  0  0  0  0
  196.7480  172.7670  145.6380 C   0  0  0  0  0  2  0  0  0  0  0  0
  196.6590  172.5020  139.4760 C   0  0  0  0  0  3  0  0  0  0  0  0
  194.7690  175.3810  140.1300 C   0  0  0  0  0  0  0  0  0  0  0  0
  191.3150  176.9300  145.0120 N   0  0  0  0  0  0  0  0  0  0  0  0
  196.4860  170.8070  137.1620 C   0  0  1  0  0  3  0  0  0  0  0  0
  195.5210  170.0240  136.2510 C   0  0  2  0  0  3  0  0  0  0  0  0
  191.1740  174.9430  148.0670 F   0  0  0  0  0  0  0  0  0  0  0  0
  193.6170  175.5760  140.9070 C   0  0  0  0  0  0  0  0  0  0  0  0
  196.3190  170.4170  146.2110 N   0  0  0  0  0  0  0  0  0  0  0  0
  195.4750  169.2900  138.9520 C   0  0  0  0  0  2  0  0  0  0  0  0
  192.3230  174.5030  139.2110 N   0  0  0  0  0  2  0  0  0  0  0  0
  196.8180  171.3100  145.3150 C   0  0  0  0  0  0  0  0  0  0  0  0
  193.6740  176.1820  142.1700 C   0  0  0  0  0  3  0  0  0  0  0  0
  192.3780  175.1160  140.4170 C   0  0  0  0  0  0  0  0  0  0  0  0
  193.8220  176.7070  145.0910 C   0  0  1  0  0  3  0  0  0  0  0  0
  190.9200  176.2310  146.0430 C   0  0  0  0  0  0  0  0  0  0  0  0
  195.6240  168.5210  136.5060 C   0  0  0  0  0  2  0  0  0  0  0  0
  192.5780  177.0330  144.2780 C   0  0  1  0  0  3  0  0  0  0  0  0
  195.8220  170.3130  134.7880 C   0  0  0  0  0  1  0  0  0  0  0  0
  197.1450  170.7350  141.0910 C   0  0  0  0  0  2  0  0  0  0  0  0
  196.0960  172.2230  137.1660 N   0  0  0  0  0  0  0  0  0  0  0  0
  196.7090  168.5980  144.7180 C   0  0  0  0  0  3  0  0  0  0  0  0
  196.6790  170.1780  138.5840 C   0  0  1  0  0  0  0  0  0  0  0  0
  197.8990  171.7290  141.8420 N   0  0  0  0  0  0  0  0  0  0  0  0
  191.7690  175.3650  146.9200 C   0  0  0  0  0  0  0  0  0  0  0  0
  195.9070  175.7440  140.5530 O   0  0  0  0  0  0  0  0  0  0  0  0
  193.0350  174.9710  146.7260 C   0  0  0  0  0  0  0  0  0  0  0  0
  196.2690  169.0820  145.9560 C   0  0  0  0  0  0  0  0  0  0  0  0
  195.2800  174.7690  145.6110 C   0  0  0  0  0  2  0  0  0  0  0  0
  192.5120  176.3130  142.9510 C   0  0  0  0  0  0  0  0  0  0  0  0
  197.3000  170.8610  144.0720 C   0  0  0  0  0  0  0  0  0  0  0  0
  193.4170  174.3310  138.4670 N   0  0  0  0  0  0  0  0  0  0  0  0
  197.2330  169.4910  143.7850 C   0  0  0  0  0  3  0  0  0  0  0  0
  195.2040  168.1660  137.9380 C   0  0  0  0  0  2  0  0  0  0  0  0
  191.2210  175.2580  141.1790 C   0  0  0  0  0  3  0  0  0  0  0  0
  197.9410  169.3220  138.5310 C   0  0  0  0  0  1  0  0  0  0  0  0
  194.6410  174.7540  138.8820 C   0  0  0  0  0  0  0  0  0  0  0  0
  195.8410  174.4480  138.0430 C   0  0  0  0  0  2  0  0  0  0  0  0
  196.8810  171.2040  139.6840 C   0  0  0  0  0  0  0  0  0  0  0  0
  195.6780  168.1660  146.9860 C   0  0  2  0  0  3  0  0  0  0  0  0
  194.1850  168.3890  147.1650 C   0  0  0  0  0  1  0  0  0  0  0  0
  196.3650  168.3230  148.2610 N   0  0  0  0  0  1  0  0  0  0  0  0
  195.1300  178.2900  145.9100 C   0  0  0  0  0  1  0  0  0  0  0  0
  193.9670  177.5680  146.1860 O   0  0  0  0  0  0  0  0  0  0  0  0
  189.5690  176.3090  146.4130 O   0  0  0  0  0  0  0  0  0  0  0  0
  188.6820  177.3000  145.9020 C   0  0  0  0  0  2  0  0  0  0  0  0
  187.8590  175.0080  143.0140 C   0  0  0  0  0  0  0  0  0  0  0  0
  187.3290  176.0050  142.0180 C   0  0  0  0  0  2  0  0  0  0  0  0
  188.0150  176.8000  144.6660 C   0  0  0  0  0  0  0  0  0  0  0  0
  188.2310  175.4050  144.2340 C   0  0  0  0  0  3  0  0  0  0  0  0
  187.2660  177.6270  143.9290 C   0  0  0  0  0  3  0  0  0  0  0  0
  186.5370  177.1160  142.7140 C   0  0  0  0  0  2  0  0  0  0  0  0
  188.8780  172.4040  142.5540 C   0  0  1  0  0  3  0  0  0  0  0  0
  187.9780  172.6030  140.3950 C   0  0  0  0  0  2  0  0  0  0  0  0
  190.0030  172.5600  141.5420 C   0  0  2  0  0  3  0  0  0  0  0  0
  189.4150  172.7590  140.2190 N   0  0  1  0  0  0  0  0  0  0  0  0
  189.8750  171.6390  139.4350 C   0  0  1  0  0  3  0  0  0  0  0  0
  190.8130  171.4070  141.5590 O   0  0  0  0  0  0  0  0  0  0  0  0
  190.3480  172.0890  138.2040 O   0  0  0  0  0  1  0  0  0  0  0  0
  191.0010  171.0430  140.2220 C   0  0  0  0  0  2  0  0  0  0  0  0
  188.0690  173.6560  142.6160 N   0  0  0  0  0  0  0  0  0  0  0  0
  187.6810  172.4210  141.8710 C   0  0  2  0  0  3  0  0  0  0  0  0
  1 36  1  0  0  0  0
  2 35  1  0  0  0  0
  2  7  1  0  0  0  0
  3 37  1  0  0  0  0
  4 35  1  1  0  0  0
  4 33  1  0  0  0  0
  6  8  1  0  0  0  0
  8 45  2  0  0  0  0
  9 32  2  0  0  0  0
  9 14  1  0  0  0  0
 10 22  2  0  0  0  0
 11 27  1  1  0  0  0
 11 29  1  0  0  0  0
 12 25  1  6  0  0  0
 12 23  1  0  0  0  0
 12 11  1  0  0  0  0
 14 19  1  0  0  0  0
 17 20  1  0  0  0  0
 18  7  1  0  0  0  0
 18 15  2  0  0  0  0
 19 36  2  0  0  0  0
 20 14  2  0  0  0  0
 20 41  1  0  0  0  0
 21  4  1  0  0  0  0
 21 50  1  1  0  0  0
 22 51  1  0  0  0  0
 22 31  1  0  0  0  0
 23 40  1  0  0  0  0
 24 36  1  6  0  0  0
 24 10  1  0  0  0  0
 24 21  1  0  0  0  0
 26 30  1  0  0  0  0
 27  6  2  0  0  0  0
 28 34  2  0  0  0  0
 29 42  1  6  0  0  0
 29 16  1  0  0  0  0
 29 45  1  0  0  0  0
 30  3  2  0  0  0  0
 31 13  1  0  0  0  0
 33 31  2  0  0  0  0
 33  5  1  0  0  0  0
 34 15  1  0  0  0  0
 34 46  1  0  0  0  0
 37 18  1  0  0  0  0
 38 43  2  0  0  0  0
 38 17  1  0  0  0  0
 39 37  2  0  0  0  0
 39 28  1  0  0  0  0
 40 16  1  0  0  0  0
 41  1  2  0  0  0  0
 43  9  1  0  0  0  0
 44  6  1  0  0  0  0
 44 43  1  0  0  0  0
 45 26  1  0  0  0  0
 46 47  1  1  0  0  0
 46 48  1  0  0  0  0
 49 50  1  0  0  0  0
 52 51  1  0  0  0  0
 53 56  2  0  0  0  0
 54 58  1  0  0  0  0
 54 53  1  0  0  0  0
 55 52  1  0  0  0  0
 56 55  1  0  0  0  0
 57 55  2  0  0  0  0
 58 57  1  0  0  0  0
 59 67  1  1  0  0  0
 61 64  1  6  0  0  0
 61 59  1  0  0  0  0
 62 60  1  1  0  0  0
 62 61  1  0  0  0  0
 63 65  1  6  0  0  0
 63 62  1  0  0  0  0
 63 66  1  0  0  0  0
 66 64  1  0  0  0  0
 67 53  1  0  0  0  0
 68 60  1  6  0  0  0
 68 59  1  0  0  0  0
 68 67  1  0  0  0  0
M  END
>  <MODEL>
2

>  <REMARK>
 VINA RESULT:      -6.2      3.603      8.166
  Name = 
  6 active torsions:
  status: ('A' for Active; 'I' for Inactive)
    1  A    between atoms: C_10  and  N_57
    2  A    between atoms: C_17  and  C_25
    3  A    between atoms: C_17  and  O_30
    4  A    between atoms: C_20  and  C_54
    5  A    between atoms: O_24  and  C_35
    6  A    between atoms: O_30  and  C_36
                            x       y       z     vdW  Elec       q    Type
                         _______ _______ _______ _____ _____    ______ ____

>  <TORSDO>
F 6

$$$$
=
 OpenBabel11042417353D

 68 78  0  0  1  0  0  0  0  0999 V2000
  188.3830  173.4210  141.9590 C   0  0  0  0  0  3  0  0  0  0  0  0
  193.3970  175.8790  142.4350 C   0  0  0  0  0  2  0  0  0  0  0  0
  195.6060  175.2340  139.5710 C   0  0  0  0  0  3  0  0  0  0  0  0
  191.0140  176.2630  143.0380 C   0  0  2  0  0  3  0  0  0  0  0  0
  192.1510  176.8220  145.1410 F   0  0  0  0  0  0  0  0  0  0  0  0
  192.5990  172.1220  136.3690 C   0  0  0  0  0  0  0  0  0  0  0  0
  194.6930  176.5530  142.0240 C   0  0  0  0  0  2  0  0  0  0  0  0
  193.5290  172.8080  137.2640 C   0  0  0  0  0  3  0  0  0  0  0  0
  190.3120  173.8010  138.2410 C   0  0  0  0  0  0  0  0  0  0  0  0
  188.1150  175.5490  143.7450 N   0  0  0  0  0  0  0  0  0  0  0  0
  194.2520  170.3830  135.9010 C   0  0  1  0  0  3  0  0  0  0  0  0
  194.0990  168.8500  135.9050 C   0  0  2  0  0  3  0  0  0  0  0  0
  190.2340  176.0540  146.6690 F   0  0  0  0  0  0  0  0  0  0  0  0
  189.6470  173.7050  139.4740 C   0  0  0  0  0  0  0  0  0  0  0  0
  196.3950  175.2560  143.2320 N   0  0  0  0  0  0  0  0  0  0  0  0
  195.2220  169.9430  138.2240 C   0  0  0  0  0  2  0  0  0  0  0  0
  189.3580  171.3630  139.1080 N   0  0  0  0  0  2  0  0  0  0  0  0
  195.8010  175.5510  142.0440 C   0  0  0  0  0  0  0  0  0  0  0  0
  189.4790  174.8200  140.3080 C   0  0  0  0  0  3  0  0  0  0  0  0
  189.1710  172.4480  139.8970 C   0  0  0  0  0  0  0  0  0  0  0  0
  189.7820  176.8900  142.4170 C   0  0  1  0  0  3  0  0  0  0  0  0
  188.6480  175.5050  144.9370 C   0  0  0  0  0  0  0  0  0  0  0  0
  195.3850  168.1710  136.3730 C   0  0  0  0  0  2  0  0  0  0  0  0
  188.6220  175.9070  142.4180 C   0  0  1  0  0  3  0  0  0  0  0  0
  193.7380  168.3510  134.5140 C   0  0  0  0  0  1  0  0  0  0  0  0
  195.5370  172.9730  138.6440 C   0  0  0  0  0  2  0  0  0  0  0  0
  192.9200  170.9960  135.8220 N   0  0  0  0  0  0  0  0  0  0  0  0
  197.7220  173.5510  142.2220 C   0  0  0  0  0  3  0  0  0  0  0  0
  195.1610  170.9400  137.0510 C   0  0  1  0  0  0  0  0  0  0  0  0
  195.3680  174.4180  138.5900 N   0  0  0  0  0  0  0  0  0  0  0  0
  190.0100  175.9830  145.3300 C   0  0  0  0  0  0  0  0  0  0  0  0
  190.7890  174.9040  137.8440 O   0  0  0  0  0  0  0  0  0  0  0  0
  191.0220  176.3610  144.5360 C   0  0  0  0  0  0  0  0  0  0  0  0
  197.3510  174.2960  143.3480 C   0  0  0  0  0  0  0  0  0  0  0  0
  192.2630  176.8790  142.4120 C   0  0  0  0  0  2  0  0  0  0  0  0
  188.8600  174.6830  141.5630 C   0  0  0  0  0  0  0  0  0  0  0  0
  196.1690  174.8470  140.8830 C   0  0  0  0  0  0  0  0  0  0  0  0
  189.9780  171.4580  137.9300 N   0  0  0  0  0  0  0  0  0  0  0  0
  197.1350  173.8390  140.9910 C   0  0  0  0  0  3  0  0  0  0  0  0
  195.7220  168.5460  137.8220 C   0  0  0  0  0  2  0  0  0  0  0  0
  188.5430  172.3100  141.1320 C   0  0  0  0  0  3  0  0  0  0  0  0
  196.5600  171.1250  136.4700 C   0  0  0  0  0  1  0  0  0  0  0  0
  190.4580  172.6420  137.4640 C   0  0  0  0  0  0  0  0  0  0  0  0
  191.2230  172.6630  136.1790 C   0  0  0  0  0  2  0  0  0  0  0  0
  194.7150  172.2900  137.5830 C   0  0  0  0  0  0  0  0  0  0  0  0
  197.9370  174.0130  144.6990 C   0  0  2  0  0  3  0  0  0  0  0  0
  197.8300  172.5450  145.0770 C   0  0  0  0  0  1  0  0  0  0  0  0
  197.2980  174.8400  145.7140 N   0  0  0  0  0  1  0  0  0  0  0  0
  189.3610  179.0090  141.9490 C   0  0  0  0  0  1  0  0  0  0  0  0
  189.4310  178.1090  143.0130 O   0  0  0  0  0  0  0  0  0  0  0  0
  187.8710  174.9940  145.9870 O   0  0  0  0  0  0  0  0  0  0  0  0
  187.7670  175.6330  147.2560 C   0  0  0  0  0  2  0  0  0  0  0  0
  185.3720  178.3030  146.0680 C   0  0  0  0  0  0  0  0  0  0  0  0
  184.8580  178.8130  147.3880 C   0  0  0  0  0  2  0  0  0  0  0  0
  186.6040  176.5660  147.2640 C   0  0  0  0  0  0  0  0  0  0  0  0
  186.2360  177.2840  146.0290 C   0  0  0  0  0  3  0  0  0  0  0  0
  185.9310  176.7860  148.3990 C   0  0  0  0  0  3  0  0  0  0  0  0
  184.7170  177.6770  148.4050 C   0  0  0  0  0  2  0  0  0  0  0  0
  184.0880  179.2970  143.7460 C   0  0  1  0  0  3  0  0  0  0  0  0
  186.1800  179.1030  142.6970 C   0  0  0  0  0  2  0  0  0  0  0  0
  184.0590  178.1470  142.7510 C   0  0  2  0  0  3  0  0  0  0  0  0
  185.3910  177.9990  142.1700 N   0  0  1  0  0  0  0  0  0  0  0  0
  185.2100  178.2370  140.7590 C   0  0  1  0  0  3  0  0  0  0  0  0
  183.1050  178.4180  141.7490 O   0  0  0  0  0  0  0  0  0  0  0  0
  185.8620  177.2450  140.0270 O   0  0  0  0  0  1  0  0  0  0  0  0
  183.7330  178.1450  140.5290 C   0  0  0  0  0  2  0  0  0  0  0  0
  185.0230  178.9810  144.8650 N   0  0  0  0  0  0  0  0  0  0  0  0
  185.3430  179.8670  143.7050 C   0  0  2  0  0  3  0  0  0  0  0  0
  3 37  1  0  0  0  0
  4 35  1  6  0  0  0
  4 33  1  0  0  0  0
  6  8  1  0  0  0  0
  7 18  1  0  0  0  0
  7  2  1  0  0  0  0
  8 45  2  0  0  0  0
  9 14  1  0  0  0  0
 10 22  2  0  0  0  0
 11 27  1  1  0  0  0
 11 12  1  0  0  0  0
 11 29  1  0  0  0  0
 12 25  1  6  0  0  0
 12 23  1  0  0  0  0
 14 20  2  0  0  0  0
 14 19  1  0  0  0  0
 15 34  1  0  0  0  0
 17 20  1  0  0  0  0
 18 15  2  0  0  0  0
 19 36  2  0  0  0  0
 20 41  1  0  0  0  0
 21 24  1  0  0  0  0
 21 50  1  1  0  0  0
 21  4  1  0  0  0  0
 22 31  1  0  0  0  0
 22 51  1  0  0  0  0
 23 40  1  0  0  0  0
 24 36  1  1  0  0  0
 24 10  1  0  0  0  0
 27  6  2  0  0  0  0
 28 34  2  0  0  0  0
 29 42  1  6  0  0  0
 29 45  1  0  0  0  0
 29 16  1  0  0  0  0
 30 26  1  0  0  0  0
 30  3  2  0  0  0  0
 31 13  1  0  0  0  0
 32  9  2  0  0  0  0
 33  5  1  0  0  0  0
 33 31  2  0  0  0  0
 34 46  1  0  0  0  0
 35  2  1  0  0  0  0
 36  1  1  0  0  0  0
 37 39  2  0  0  0  0
 37 18  1  0  0  0  0
 38 17  1  0  0  0  0
 39 28  1  0  0  0  0
 40 16  1  0  0  0  0
 41  1  2  0  0  0  0
 43 38  2  0  0  0  0
 43  9  1  0  0  0  0
 44  6  1  0  0  0  0
 44 43  1  0  0  0  0
 45 26  1  0  0  0  0
 46 47  1  1  0  0  0
 46 48  1  0  0  0  0
 49 50  1  0  0  0  0
 51 52  1  0  0  0  0
 52 55  1  0  0  0  0
 53 54  1  0  0  0  0
 54 58  1  0  0  0  0
 55 57  2  0  0  0  0
 56 53  2  0  0  0  0
 56 55  1  0  0  0  0
 57 58  1  0  0  0  0
 59 67  1  1  0  0  0
 61 64  1  6  0  0  0
 61 59  1  0  0  0  0
 62 60  1  1  0  0  0
 62 61  1  0  0  0  0
 63 65  1  6  0  0  0
 63 62  1  0  0  0  0
 66 63  1  0  0  0  0
 66 64  1  0  0  0  0
 67 53  1  0  0  0  0
 68 60  1  6  0  0  0
 68 59  1  0  0  0  0
 68 67  1  0  0  0  0
M  END
>  <MODEL>
3

>  <REMARK>
 VINA RESULT:      -5.0      3.398      7.087
  Name = 
  6 active torsions:
  status: ('A' for Active; 'I' for Inactive)
    1  A    between atoms: C_10  and  N_57
    2  A    between atoms: C_17  and  C_25
    3  A    between atoms: C_17  and  O_30
    4  A    between atoms: C_20  and  C_54
    5  A    between atoms: O_24  and  C_35
    6  A    between atoms: O_30  and  C_36
                            x       y       z     vdW  Elec       q    Type
                         _______ _______ _______ _____ _____    ______ ____

>  <TORSDO>
F 6

$$$$
=
 OpenBabel11042417353D

 68 78  0  0  1  0  0  0  0  0999 V2000
  190.8640  171.6560  141.5740 C   0  0  0  0  0  3  0  0  0  0  0  0
  187.9820  175.0880  138.2090 C   0  0  0  0  0  2  0  0  0  0  0  0
  187.0290  178.2440  139.8300 C   0  0  0  0  0  3  0  0  0  0  0  0
  189.8040  173.3960  138.1080 C   0  0  2  0  0  3  0  0  0  0  0  0
  188.3910  172.7120  136.2210 F   0  0  0  0  0  0  0  0  0  0  0  0
  189.0590  177.7470  144.7910 C   0  0  0  0  0  0  0  0  0  0  0  0
  187.4600  176.3800  137.6090 C   0  0  0  0  0  2  0  0  0  0  0  0
  188.3310  177.8720  143.5300 C   0  0  0  0  0  3  0  0  0  0  0  0
  190.9630  175.6360  142.9250 C   0  0  0  0  0  0  0  0  0  0  0  0
  191.4450  170.9410  138.9390 N   0  0  0  0  0  0  0  0  0  0  0  0
  187.0860  178.4370  146.0580 C   0  0  1  0  0  3  0  0  0  0  0  0
  186.4460  177.8040  147.3090 C   0  0  2  0  0  3  0  0  0  0  0  0
  188.9260  170.2070  136.4080 F   0  0  0  0  0  0  0  0  0  0  0  0
  190.9640  174.3130  142.4590 C   0  0  0  0  0  0  0  0  0  0  0  0
  185.0290  176.0260  137.5710 N   0  0  0  0  0  0  0  0  0  0  0  0
  185.2260  177.1420  144.8780 C   0  0  0  0  0  2  0  0  0  0  0  0
  190.1710  173.5870  144.5900 N   0  0  0  0  0  2  0  0  0  0  0  0
  186.0910  176.6560  138.1420 C   0  0  0  0  0  0  0  0  0  0  0  0
  191.3290  173.9960  141.1420 C   0  0  0  0  0  3  0  0  0  0  0  0
  190.5530  173.2820  143.3280 C   0  0  0  0  0  0  0  0  0  0  0  0
  191.3130  173.3570  138.2410 C   0  0  1  0  0  3  0  0  0  0  0  0
  190.5530  170.3620  138.1810 C   0  0  0  0  0  0  0  0  0  0  0  0
  184.9270  177.9690  147.2910 C   0  0  0  0  0  2  0  0  0  0  0  0
  191.7330  172.3350  139.2860 C   0  0  1  0  0  3  0  0  0  0  0  0
  187.0120  178.4390  148.5710 C   0  0  0  0  0  1  0  0  0  0  0  0
  186.3180  178.0870  142.1640 C   0  0  0  0  0  2  0  0  0  0  0  0
  188.4600  177.9370  145.9200 N   0  0  0  0  0  0  0  0  0  0  0  0
  183.5340  176.9370  139.1910 C   0  0  0  0  0  3  0  0  0  0  0  0
  186.2140  178.3190  144.7610 C   0  0  1  0  0  0  0  0  0  0  0  0
  187.1860  178.5370  141.0850 N   0  0  0  0  0  0  0  0  0  0  0  0
  189.5760  171.0330  137.2700 C   0  0  0  0  0  0  0  0  0  0  0  0
  191.2870  176.5940  142.1630 O   0  0  0  0  0  0  0  0  0  0  0  0
  189.2750  172.3370  137.1850 C   0  0  0  0  0  0  0  0  0  0  0  0
  183.7630  176.1590  138.0500 C   0  0  0  0  0  0  0  0  0  0  0  0
  189.3720  174.7990  137.6860 C   0  0  0  0  0  2  0  0  0  0  0  0
  191.2670  172.6690  140.6850 C   0  0  0  0  0  0  0  0  0  0  0  0
  185.8990  177.4730  139.2700 C   0  0  0  0  0  0  0  0  0  0  0  0
  190.1840  174.8440  145.0380 N   0  0  0  0  0  0  0  0  0  0  0  0
  184.6040  177.6000  139.7900 C   0  0  0  0  0  3  0  0  0  0  0  0
  184.2980  177.2350  146.1010 C   0  0  0  0  0  2  0  0  0  0  0  0
  190.5050  171.9630  142.8850 C   0  0  0  0  0  3  0  0  0  0  0  0
  185.4340  179.6230  144.6220 C   0  0  0  0  0  1  0  0  0  0  0  0
  190.5710  175.8830  144.2500 C   0  0  0  0  0  0  0  0  0  0  0  0
  190.4740  177.2770  144.7820 C   0  0  0  0  0  2  0  0  0  0  0  0
  187.0270  178.1460  143.4910 C   0  0  0  0  0  0  0  0  0  0  0  0
  182.6510  175.4080  137.3810 C   0  0  2  0  0  3  0  0  0  0  0  0
  182.7290  175.4920  135.8650 C   0  0  0  0  0  1  0  0  0  0  0  0
  181.3580  175.8940  137.8440 N   0  0  0  0  0  1  0  0  0  0  0  0
  192.8710  174.2010  136.9200 C   0  0  0  0  0  1  0  0  0  0  0  0
  191.9620  173.1460  137.0180 O   0  0  0  0  0  0  0  0  0  0  0  0
  190.5080  168.9590  138.1730 O   0  0  0  0  0  0  0  0  0  0  0  0
  191.2340  168.1660  137.2390 C   0  0  0  0  0  2  0  0  0  0  0  0
  194.3760  168.4660  139.3170 C   0  0  0  0  0  0  0  0  0  0  0  0
  195.3620  168.8860  138.2590 C   0  0  0  0  0  2  0  0  0  0  0  0
  192.6870  168.1850  137.5750 C   0  0  0  0  0  0  0  0  0  0  0  0
  193.1090  168.1960  138.9890 C   0  0  0  0  0  3  0  0  0  0  0  0
  193.5980  168.2410  136.5980 C   0  0  0  0  0  3  0  0  0  0  0  0
  195.0680  168.1970  136.9230 C   0  0  0  0  0  2  0  0  0  0  0  0
  194.5260  168.1930  142.1330 C   0  0  1  0  0  3  0  0  0  0  0  0
  195.5850  170.2890  142.1230 C   0  0  0  0  0  2  0  0  0  0  0  0
  193.5910  169.2430  142.7130 C   0  0  2  0  0  3  0  0  0  0  0  0
  194.2430  170.5470  142.6240 N   0  0  1  0  0  0  0  0  0  0  0  0
  194.3730  170.9920  143.9900 C   0  0  1  0  0  3  0  0  0  0  0  0
  193.2980  168.9220  144.0530 O   0  0  0  0  0  0  0  0  0  0  0  0
  193.9480  172.3160  144.0970 O   0  0  0  0  0  1  0  0  0  0  0  0
  193.4640  170.1040  144.7820 C   0  0  0  0  0  2  0  0  0  0  0  0
  194.7670  168.4670  140.6860 N   0  0  0  0  0  0  0  0  0  0  0  0
  195.7090  168.8130  141.7930 C   0  0  2  0  0  3  0  0  0  0  0  0
  1 41  1  0  0  0  0
  3 30  2  0  0  0  0
  4 35  1  6  0  0  0
  4 21  1  0  0  0  0
  5 33  1  0  0  0  0
  6 27  2  0  0  0  0
  7 18  1  0  0  0  0
  7  2  1  0  0  0  0
  8  6  1  0  0  0  0
  9 43  1  0  0  0  0
 11 27  1  6  0  0  0
 11 12  1  0  0  0  0
 12 25  1  1  0  0  0
 13 31  1  0  0  0  0
 14  9  1  0  0  0  0
 14 20  1  0  0  0  0
 15 34  2  0  0  0  0
 15 18  1  0  0  0  0
 16 40  1  0  0  0  0
 17 38  1  0  0  0  0
 18 37  2  0  0  0  0
 19 14  2  0  0  0  0
 20 17  1  0  0  0  0
 21 50  1  6  0  0  0
 21 24  1  0  0  0  0
 22 10  2  0  0  0  0
 23 12  1  0  0  0  0
 24 10  1  6  0  0  0
 24 36  1  0  0  0  0
 26 45  1  0  0  0  0
 28 39  2  0  0  0  0
 29 42  1  6  0  0  0
 29 16  1  0  0  0  0
 29 11  1  0  0  0  0
 30 26  1  0  0  0  0
 31 22  1  0  0  0  0
 32  9  2  0  0  0  0
 33 31  2  0  0  0  0
 33  4  1  0  0  0  0
 34 28  1  0  0  0  0
 35  2  1  0  0  0  0
 36 19  1  0  0  0  0
 36  1  2  0  0  0  0
 37 39  1  0  0  0  0
 37  3  1  0  0  0  0
 40 23  1  0  0  0  0
 41 20  2  0  0  0  0
 43 44  1  0  0  0  0
 43 38  2  0  0  0  0
 44  6  1  0  0  0  0
 45  8  2  0  0  0  0
 45 29  1  0  0  0  0
 46 47  1  6  0  0  0
 46 48  1  0  0  0  0
 46 34  1  0  0  0  0
 49 50  1  0  0  0  0
 51 22  1  0  0  0  0
 52 55  1  0  0  0  0
 52 51  1  0  0  0  0
 53 67  1  0  0  0  0
 54 53  1  0  0  0  0
 55 56  1  0  0  0  0
 56 53  2  0  0  0  0
 57 58  1  0  0  0  0
 57 55  2  0  0  0  0
 58 54  1  0  0  0  0
 59 67  1  6  0  0  0
 59 61  1  0  0  0  0
 61 64  1  1  0  0  0
 62 60  1  1  0  0  0
 62 61  1  0  0  0  0
 62 63  1  0  0  0  0
 63 65  1  6  0  0  0
 63 66  1  0  0  0  0
 64 66  1  0  0  0  0
 67 68  1  0  0  0  0
 68 60  1  1  0  0  0
 68 59  1  0  0  0  0
M  END
>  <MODEL>
4

>  <REMARK>
 VINA RESULT:      -4.0      2.859      9.957
  Name = 
  6 active torsions:
  status: ('A' for Active; 'I' for Inactive)
    1  A    between atoms: C_10  and  N_57
    2  A    between atoms: C_17  and  C_25
    3  A    between atoms: C_17  and  O_30
    4  A    between atoms: C_20  and  C_54
    5  A    between atoms: O_24  and  C_35
    6  A    between atoms: O_30  and  C_36
                            x       y       z     vdW  Elec       q    Type
                         _______ _______ _______ _____ _____    ______ ____

>  <TORSDO>
F 6

$$$$
=
 OpenBabel11042417353D

 68 78  0  0  1  0  0  0  0  0999 V2000
  190.6890  171.7180  141.8670 C   0  0  0  0  0  3  0  0  0  0  0  0
  187.8800  175.1290  138.4200 C   0  0  0  0  0  2  0  0  0  0  0  0
  186.9480  178.3220  139.9820 C   0  0  0  0  0  3  0  0  0  0  0  0
  189.6830  173.4150  138.3640 C   0  0  2  0  0  3  0  0  0  0  0  0
  188.2800  172.7180  136.4740 F   0  0  0  0  0  0  0  0  0  0  0  0
  188.9230  177.8790  144.9690 C   0  0  0  0  0  0  0  0  0  0  0  0
  187.3780  176.4180  137.7950 C   0  0  0  0  0  2  0  0  0  0  0  0
  188.2100  177.9940  143.7000 C   0  0  0  0  0  3  0  0  0  0  0  0
  190.8210  175.7180  143.1570 C   0  0  0  0  0  0  0  0  0  0  0  0
  191.2880  170.9550  139.2500 N   0  0  0  0  0  0  0  0  0  0  0  0
  186.9460  178.6120  146.2060 C   0  0  1  0  0  3  0  0  0  0  0  0
  186.2870  178.0070  147.4600 C   0  0  2  0  0  3  0  0  0  0  0  0
  188.7850  170.2090  136.7060 F   0  0  0  0  0  0  0  0  0  0  0  0
  190.8110  174.3870  142.7110 C   0  0  0  0  0  0  0  0  0  0  0  0
  184.9450  176.0910  137.7380 N   0  0  0  0  0  0  0  0  0  0  0  0
  185.0830  177.3200  145.0280 C   0  0  0  0  0  2  0  0  0  0  0  0
  189.9890  173.7040  144.8460 N   0  0  0  0  0  2  0  0  0  0  0  0
  186.0080  176.7180  138.3090 C   0  0  0  0  0  0  0  0  0  0  0  0
  191.1860  174.0460  141.4030 C   0  0  0  0  0  3  0  0  0  0  0  0
  190.3800  173.3760  143.5920 C   0  0  0  0  0  0  0  0  0  0  0  0
  191.1900  173.3610  138.5120 C   0  0  1  0  0  3  0  0  0  0  0  0
  190.3960  170.3740  138.4920 C   0  0  0  0  0  0  0  0  0  0  0  0
  184.7700  178.1890  147.4250 C   0  0  0  0  0  2  0  0  0  0  0  0
  191.5870  172.3510  139.5780 C   0  0  1  0  0  3  0  0  0  0  0  0
  186.8480  178.6550  148.7170 C   0  0  0  0  0  1  0  0  0  0  0  0
  186.2120  178.2090  142.3100 C   0  0  0  0  0  2  0  0  0  0  0  0
  188.3150  178.0950  146.0890 N   0  0  0  0  0  0  0  0  0  0  0  0
  183.4440  177.0440  139.3290 C   0  0  0  0  0  3  0  0  0  0  0  0
  186.0860  178.4830  144.9020 C   0  0  1  0  0  0  0  0  0  0  0  0
  187.0960  178.6330  141.2340 N   0  0  0  0  0  0  0  0  0  0  0  0
  189.4350  171.0420  137.5610 C   0  0  0  0  0  0  0  0  0  0  0  0
  191.1630  176.6600  142.3830 O   0  0  0  0  0  0  0  0  0  0  0  0
  189.1510  172.3470  137.4530 C   0  0  0  0  0  0  0  0  0  0  0  0
  183.6750  176.2450  138.2020 C   0  0  0  0  0  0  0  0  0  0  0  0
  189.2710  174.8150  137.9160 C   0  0  0  0  0  2  0  0  0  0  0  0
  191.1120  172.7120  140.9670 C   0  0  0  0  0  0  0  0  0  0  0  0
  185.8140  177.5540  139.4230 C   0  0  0  0  0  0  0  0  0  0  0  0
  190.0120  174.9690  145.2730 N   0  0  0  0  0  0  0  0  0  0  0  0
  184.5160  177.7040  139.9270 C   0  0  0  0  0  3  0  0  0  0  0  0
  184.1440  177.4430  146.2400 C   0  0  0  0  0  2  0  0  0  0  0  0
  190.3210  172.0500  143.1700 C   0  0  0  0  0  3  0  0  0  0  0  0
  185.3220  179.7940  144.7350 C   0  0  0  0  0  1  0  0  0  0  0  0
  190.4190  175.9900  144.4730 C   0  0  0  0  0  0  0  0  0  0  0  0
  190.3330  177.3940  144.9820 C   0  0  0  0  0  2  0  0  0  0  0  0
  186.9090  178.2810  143.6440 C   0  0  0  0  0  0  0  0  0  0  0  0
  182.5610  175.4970  137.5340 C   0  0  2  0  0  3  0  0  0  0  0  0
  182.6700  175.5340  136.0190 C   0  0  0  0  0  1  0  0  0  0  0  0
  181.2700  176.0220  137.9570 N   0  0  0  0  0  1  0  0  0  0  0  0
  192.9580  173.9690  137.3340 C   0  0  0  0  0  1  0  0  0  0  0  0
  191.8490  173.1230  137.2990 O   0  0  0  0  0  0  0  0  0  0  0  0
  190.3340  168.9720  138.5060 O   0  0  0  0  0  0  0  0  0  0  0  0
  190.7910  168.1660  137.4240 C   0  0  0  0  0  2  0  0  0  0  0  0
  194.0360  170.0080  136.8310 C   0  0  0  0  0  0  0  0  0  0  0  0
  193.6960  170.7600  135.5720 C   0  0  0  0  0  2  0  0  0  0  0  0
  191.8800  168.8690  136.6880 C   0  0  0  0  0  0  0  0  0  0  0  0
  193.1520  169.1670  137.3760 C   0  0  0  0  0  3  0  0  0  0  0  0
  191.6840  169.2700  135.4270 C   0  0  0  0  0  3  0  0  0  0  0  0
  192.7990  169.9240  134.6530 C   0  0  0  0  0  2  0  0  0  0  0  0
  196.0770  170.4890  138.7380 C   0  0  1  0  0  3  0  0  0  0  0  0
  196.8550  172.1370  137.2570 C   0  0  0  0  0  2  0  0  0  0  0  0
  195.8020  171.8690  139.3160 C   0  0  2  0  0  3  0  0  0  0  0  0
  196.2250  172.8740  138.3430 N   0  0  1  0  0  0  0  0  0  0  0  0
  197.2610  173.6240  139.0100 C   0  0  1  0  0  3  0  0  0  0  0  0
  196.5080  172.0190  140.5270 O   0  0  0  0  0  0  0  0  0  0  0  0
  197.0350  174.9900  138.8420 O   0  0  0  0  0  1  0  0  0  0  0  0
  197.1380  173.2660  140.4580 C   0  0  0  0  0  2  0  0  0  0  0  0
  195.2610  170.2790  137.5060 N   0  0  0  0  0  0  0  0  0  0  0  0
  196.7080  170.6510  137.5230 C   0  0  2  0  0  3  0  0  0  0  0  0
  1 41  1  0  0  0  0
  3 30  2  0  0  0  0
  4 35  1  6  0  0  0
  4 21  1  0  0  0  0
  5 33  1  0  0  0  0
  6 44  1  0  0  0  0
  6 27  2  0  0  0  0
  7 18  1  0  0  0  0
  7  2  1  0  0  0  0
  8  6  1  0  0  0  0
  9 43  1  0  0  0  0
 11 27  1  6  0  0  0
 11 12  1  0  0  0  0
 12 25  1  1  0  0  0
 13 31  1  0  0  0  0
 14  9  1  0  0  0  0
 14 20  1  0  0  0  0
 15 34  2  0  0  0  0
 15 18  1  0  0  0  0
 16 40  1  0  0  0  0
 17 38  1  0  0  0  0
 18 37  2  0  0  0  0
 19 14  2  0  0  0  0
 20 17  1  0  0  0  0
 21 50  1  6  0  0  0
 21 24  1  0  0  0  0
 22 51  1  0  0  0  0
 22 10  2  0  0  0  0
 23 12  1  0  0  0  0
 24 10  1  6  0  0  0
 24 36  1  0  0  0  0
 26 45  1  0  0  0  0
 28 39  2  0  0  0  0
 29 42  1  6  0  0  0
 29 16  1  0  0  0  0
 29 11  1  0  0  0  0
 30 26  1  0  0  0  0
 31 22  1  0  0  0  0
 32  9  2  0  0  0  0
 33 31  2  0  0  0  0
 33  4  1  0  0  0  0
 34 28  1  0  0  0  0
 35  2  1  0  0  0  0
 36 19  1  0  0  0  0
 36  1  2  0  0  0  0
 37 39  1  0  0  0  0
 37  3  1  0  0  0  0
 40 23  1  0  0  0  0
 41 20  2  0  0  0  0
 43 44  1  0  0  0  0
 43 38  2  0  0  0  0
 45  8  2  0  0  0  0
 45 29  1  0  0  0  0
 46 47  1  6  0  0  0
 46 48  1  0  0  0  0
 46 34  1  0  0  0  0
 50 49  1  0  0  0  0
 52 51  1  0  0  0  0
 53 56  2  0  0  0  0
 53 67  1  0  0  0  0
 54 53  1  0  0  0  0
 55 56  1  0  0  0  0
 55 52  1  0  0  0  0
 57 55  2  0  0  0  0
 58 57  1  0  0  0  0
 58 54  1  0  0  0  0
 59 67  1  6  0  0  0
 59 61  1  0  0  0  0
 61 64  1  1  0  0  0
 62 60  1  6  0  0  0
 62 63  1  0  0  0  0
 62 61  1  0  0  0  0
 63 65  1  1  0  0  0
 63 66  1  0  0  0  0
 66 64  1  0  0  0  0
 67 68  1  0  0  0  0
 68 60  1  6  0  0  0
 68 59  1  0  0  0  0
M  END
>  <MODEL>
5

>  <REMARK>
 VINA RESULT:      -3.8      3.016     10.196
  Name = 
  6 active torsions:
  status: ('A' for Active; 'I' for Inactive)
    1  A    between atoms: C_10  and  N_57
    2  A    between atoms: C_17  and  C_25
    3  A    between atoms: C_17  and  O_30
    4  A    between atoms: C_20  and  C_54
    5  A    between atoms: O_24  and  C_35
    6  A    between atoms: O_30  and  C_36
                            x       y       z     vdW  Elec       q    Type
                         _______ _______ _______ _____ _____    ______ ____

>  <TORSDO>
F 6

$$$$
