=
 OpenBabel11042415103D

 27 29  0  0  1  0  0  0  0  0999 V2000
  187.0890  176.5590  143.5290 N   0  0  0  0  0  0  0  0  0  0  0  0
  187.1720  177.4090  142.4850 C   0  0  0  0  0  0  0  0  0  0  0  0
  188.4000  178.0690  142.4520 C   0  0  0  0  0  3  0  0  0  0  0  0
  188.5900  175.9230  145.3970 C   0  0  1  0  0  3  0  0  0  0  0  0
  190.3650  177.7950  144.0780 C   0  0  0  0  0  0  0  0  0  0  0  0
  190.5500  175.4230  146.9270 N   0  0  0  0  0  2  0  0  0  0  0  0
  188.2340  176.6540  144.1760 N   0  0  0  0  0  0  0  0  0  0  0  0
  189.0280  177.5380  143.5640 C   0  0  0  0  0  0  0  0  0  0  0  0
  190.8030  177.0330  145.2080 N   0  0  0  0  0  0  0  0  0  0  0  0
  191.1580  178.6390  143.5060 N   0  0  0  0  0  2  0  0  0  0  0  0
  190.0360  176.1660  145.8200 C   0  0  0  0  0  0  0  0  0  0  0  0
  186.1330  177.5790  141.5690 O   0  0  0  0  0  0  0  0  0  0  0  0
  186.3560  177.5600  140.1670 C   0  0  0  0  0  1  0  0  0  0  0  0
  187.6170  176.2520  146.5280 C   0  0  0  0  0  2  0  0  0  0  0  0
  187.6930  177.7220  146.9400 C   0  0  0  0  0  2  0  0  0  0  0  0
  185.2720  177.3620  147.2900 N   0  0  0  0  0  0  0  0  0  0  0  0
  185.9400  179.0930  145.7890 C   0  0  0  0  0  3  0  0  0  0  0  0
  184.0690  179.0170  144.1680 C   0  0  0  0  0  1  0  0  0  0  0  0
  186.3150  178.3710  147.0470 C   0  0  2  0  0  3  0  0  0  0  0  0
  184.8020  178.5850  145.3860 C   0  0  0  0  0  0  0  0  0  0  0  0
  184.3580  177.5600  146.2450 N   0  0  0  0  0  0  0  0  0  0  0  0
  191.9110  175.5840  147.4150 C   0  0  0  0  0  2  0  0  0  0  0  0
  192.8860  174.8640  146.4960 C   0  0  0  0  0  2  0  0  0  0  0  0
  194.2030  176.9320  146.5120 C   0  0  0  0  0  2  0  0  0  0  0  0
  194.1820  175.6040  146.3900 C   0  0  0  0  0  0  0  0  0  0  0  0
  195.3860  174.8850  145.8780 C   0  0  0  0  0  2  0  0  0  0  0  0
  195.0080  173.4980  145.3920 C   0  0  0  0  0  1  0  0  0  0  0  0
  1  7  1  0  0  0  0
  2  1  2  0  0  0  0
  3  2  1  0  0  0  0
  3  8  2  0  0  0  0
  4 11  1  0  0  0  0
  4 14  1  1  0  0  0
  5  9  1  0  0  0  0
  6 22  1  0  0  0  0
  7  4  1  0  0  0  0
  8  5  1  0  0  0  0
  8  7  1  0  0  0  0
  9 11  2  0  0  0  0
 10  5  2  0  0  0  0
 11  6  1  0  0  0  0
 12  2  1  0  0  0  0
 13 12  1  0  0  0  0
 14 15  1  0  0  0  0
 17 19  1  0  0  0  0
 18 20  1  0  0  0  0
 19 15  1  6  0  0  0
 19 16  1  0  0  0  0
 20 17  2  0  0  0  0
 20 21  1  0  0  0  0
 21 16  2  0  0  0  0
 23 22  1  0  0  0  0
 25 23  1  0  0  0  0
 25 24  2  0  0  0  0
 26 25  1  0  0  0  0
 27 26  1  0  0  0  0
M  END
>  <MODEL>
1

>  <REMARK>
 VINA RESULT:      -6.8      0.000      0.000
  Name = 
  8 active torsions:
  status: ('A' for Active; 'I' for Inactive)
    1  A    between atoms: C_3  and  O_10
    2  A    between atoms: C_6  and  C_23
    3  A    between atoms: N_8  and  C_24
    4  A    between atoms: C_9  and  C_25
    5  A    between atoms: C_14  and  C_24
    6  A    between atoms: C_14  and  C_25
    7  A    between atoms: C_17  and  C_18
    8  A    between atoms: C_18  and  C_23
                            x       y       z     vdW  Elec       q    Type
                         _______ _______ _______ _____ _____    ______ ____

>  <TORSDO>
F 8

$$$$
=
 OpenBabel11042415103D

 27 29  0  0  1  0  0  0  0  0999 V2000
  186.2220  178.2460  141.5260 N   0  0  0  0  0  0  0  0  0  0  0  0
  184.8770  178.2660  141.6160 C   0  0  0  0  0  0  0  0  0  0  0  0
  184.4410  178.0040  142.9150 C   0  0  0  0  0  3  0  0  0  0  0  0
  188.0800  177.8340  143.1150 C   0  0  1  0  0  3  0  0  0  0  0  0
  185.8860  177.5510  144.9850 C   0  0  0  0  0  0  0  0  0  0  0  0
  189.5950  177.6110  145.1380 N   0  0  0  0  0  2  0  0  0  0  0  0
  186.6710  177.9750  142.7370 N   0  0  0  0  0  0  0  0  0  0  0  0
  185.6420  177.8270  143.5780 C   0  0  0  0  0  0  0  0  0  0  0  0
  187.2460  177.5040  145.4300 N   0  0  0  0  0  0  0  0  0  0  0  0
  184.9150  177.4070  145.8250 N   0  0  0  0  0  2  0  0  0  0  0  0
  188.2640  177.6440  144.6180 C   0  0  0  0  0  0  0  0  0  0  0  0
  184.0530  178.5220  140.5190 O   0  0  0  0  0  0  0  0  0  0  0  0
  182.6660  178.2180  140.5330 C   0  0  0  0  0  1  0  0  0  0  0  0
  188.7410  176.7040  142.3270 C   0  0  0  0  0  2  0  0  0  0  0  0
  188.1270  175.3430  142.6540 C   0  0  0  0  0  2  0  0  0  0  0  0
  188.0380  172.9430  142.0640 N   0  0  0  0  0  0  0  0  0  0  0  0
  189.9920  174.1730  141.4570 C   0  0  0  0  0  3  0  0  0  0  0  0
  191.7090  172.3980  141.6540 C   0  0  0  0  0  1  0  0  0  0  0  0
  188.5070  174.2700  141.6350 C   0  0  2  0  0  3  0  0  0  0  0  0
  190.3220  172.9320  141.7140 C   0  0  0  0  0  0  0  0  0  0  0  0
  189.2000  172.1580  142.0710 N   0  0  0  0  0  0  0  0  0  0  0  0
  189.8790  177.4290  146.5530 C   0  0  0  0  0  2  0  0  0  0  0  0
  190.6960  176.1640  146.7650 C   0  0  0  0  0  2  0  0  0  0  0  0
  188.9710  174.5280  147.3640 C   0  0  0  0  0  2  0  0  0  0  0  0
  189.8850  174.9390  146.4840 C   0  0  0  0  0  0  0  0  0  0  0  0
  190.2940  174.0410  145.3630 C   0  0  0  0  0  2  0  0  0  0  0  0
  191.6470  174.4580  144.8170 C   0  0  0  0  0  1  0  0  0  0  0  0
  1  2  2  0  0  0  0
  1  7  1  0  0  0  0
  2  3  1  0  0  0  0
  3  8  2  0  0  0  0
  4 14  1  6  0  0  0
  4 11  1  0  0  0  0
  5  9  1  0  0  0  0
  5 10  2  0  0  0  0
  6 22  1  0  0  0  0
  7  4  1  0  0  0  0
  7  8  1  0  0  0  0
  8  5  1  0  0  0  0
 11  6  1  0  0  0  0
 11  9  2  0  0  0  0
 12 13  1  0  0  0  0
 12  2  1  0  0  0  0
 14 15  1  0  0  0  0
 16 21  2  0  0  0  0
 17 19  1  0  0  0  0
 17 20  2  0  0  0  0
 18 20  1  0  0  0  0
 19 16  1  0  0  0  0
 19 15  1  1  0  0  0
 20 21  1  0  0  0  0
 22 23  1  0  0  0  0
 25 23  1  0  0  0  0
 25 24  2  0  0  0  0
 26 25  1  0  0  0  0
 27 26  1  0  0  0  0
M  END
>  <MODEL>
2

>  <REMARK>
 VINA RESULT:      -6.8      2.737      5.245
  Name = 
  8 active torsions:
  status: ('A' for Active; 'I' for Inactive)
    1  A    between atoms: C_3  and  O_10
    2  A    between atoms: C_6  and  C_23
    3  A    between atoms: N_8  and  C_24
    4  A    between atoms: C_9  and  C_25
    5  A    between atoms: C_14  and  C_24
    6  A    between atoms: C_14  and  C_25
    7  A    between atoms: C_17  and  C_18
    8  A    between atoms: C_18  and  C_23
                            x       y       z     vdW  Elec       q    Type
                         _______ _______ _______ _____ _____    ______ ____

>  <TORSDO>
F 8

$$$$
=
 OpenBabel11042415103D

 27 29  0  0  1  0  0  0  0  0999 V2000
  185.2780  178.0380  140.8230 N   0  0  0  0  0  0  0  0  0  0  0  0
  184.0160  178.1810  141.2780 C   0  0  0  0  0  0  0  0  0  0  0  0
  183.9690  178.2090  142.6720 C   0  0  0  0  0  3  0  0  0  0  0  0
  187.5070  177.7920  141.8810 C   0  0  1  0  0  3  0  0  0  0  0  0
  185.9410  178.0480  144.3050 C   0  0  0  0  0  0  0  0  0  0  0  0
  189.5360  177.8410  143.4030 N   0  0  0  0  0  2  0  0  0  0  0  0
  186.0510  177.9700  141.8900 N   0  0  0  0  0  0  0  0  0  0  0  0
  185.3070  178.0680  142.9950 C   0  0  0  0  0  0  0  0  0  0  0  0
  187.3700  177.9800  144.3530 N   0  0  0  0  0  0  0  0  0  0  0  0
  185.2500  178.1460  145.3920 N   0  0  0  0  0  2  0  0  0  0  0  0
  188.1120  177.8800  143.2790 C   0  0  0  0  0  0  0  0  0  0  0  0
  182.9170  178.2870  140.4250 O   0  0  0  0  0  0  0  0  0  0  0  0
  181.5830  178.2670  140.9130 C   0  0  0  0  0  1  0  0  0  0  0  0
  187.8880  176.4820  141.1910 C   0  0  0  0  0  2  0  0  0  0  0  0
  187.5700  175.2650  142.0590 C   0  0  0  0  0  2  0  0  0  0  0  0
  187.9160  172.8200  141.9100 N   0  0  0  0  0  0  0  0  0  0  0  0
  189.6200  174.1300  142.9480 C   0  0  0  0  0  3  0  0  0  0  0  0
  190.4570  172.5140  144.6270 C   0  0  0  0  0  1  0  0  0  0  0  0
  188.5790  174.1330  141.8700 C   0  0  2  0  0  3  0  0  0  0  0  0
  189.5820  172.9460  143.5060 C   0  0  0  0  0  0  0  0  0  0  0  0
  188.5950  172.1280  142.9230 N   0  0  0  0  0  0  0  0  0  0  0  0
  190.2130  177.9120  144.6880 C   0  0  0  0  0  2  0  0  0  0  0  0
  190.9260  176.6010  144.9780 C   0  0  0  0  0  2  0  0  0  0  0  0
  191.6250  175.6460  147.1250 C   0  0  0  0  0  2  0  0  0  0  0  0
  190.6370  176.1180  146.3640 C   0  0  0  0  0  0  0  0  0  0  0  0
  189.2170  175.9140  146.7790 C   0  0  0  0  0  2  0  0  0  0  0  0
  189.0390  174.5400  147.3980 C   0  0  0  0  0  1  0  0  0  0  0  0
  1  2  2  0  0  0  0
  1  7  1  0  0  0  0
  2  3  1  0  0  0  0
  3  8  2  0  0  0  0
  4 14  1  1  0  0  0
  4  7  1  0  0  0  0
  4 11  1  0  0  0  0
  5  9  1  0  0  0  0
  5 10  2  0  0  0  0
  6 22  1  0  0  0  0
  7  8  1  0  0  0  0
  8  5  1  0  0  0  0
 11  6  1  0  0  0  0
 11  9  2  0  0  0  0
 12 13  1  0  0  0  0
 12  2  1  0  0  0  0
 14 15  1  0  0  0  0
 16 21  2  0  0  0  0
 17 20  2  0  0  0  0
 19 16  1  0  0  0  0
 19 15  1  1  0  0  0
 19 17  1  0  0  0  0
 20 18  1  0  0  0  0
 21 20  1  0  0  0  0
 22 23  1  0  0  0  0
 23 25  1  0  0  0  0
 25 26  1  0  0  0  0
 25 24  2  0  0  0  0
 26 27  1  0  0  0  0
M  END
>  <MODEL>
3

>  <REMARK>
 VINA RESULT:      -6.8      2.604      5.327
  Name = 
  8 active torsions:
  status: ('A' for Active; 'I' for Inactive)
    1  A    between atoms: C_3  and  O_10
    2  A    between atoms: C_6  and  C_23
    3  A    between atoms: N_8  and  C_24
    4  A    between atoms: C_9  and  C_25
    5  A    between atoms: C_14  and  C_24
    6  A    between atoms: C_14  and  C_25
    7  A    between atoms: C_17  and  C_18
    8  A    between atoms: C_18  and  C_23
                            x       y       z     vdW  Elec       q    Type
                         _______ _______ _______ _____ _____    ______ ____

>  <TORSDO>
F 8

$$$$
=
 OpenBabel11042415103D

 27 29  0  0  1  0  0  0  0  0999 V2000
  183.2720  178.1850  142.4020 N   0  0  0  0  0  0  0  0  0  0  0  0
  182.8580  178.3200  141.1250 C   0  0  0  0  0  0  0  0  0  0  0  0
  183.9150  178.2070  140.2230 C   0  0  0  0  0  3  0  0  0  0  0  0
  185.4600  177.8060  143.5040 C   0  0  1  0  0  3  0  0  0  0  0  0
  186.3850  177.7680  140.7590 C   0  0  0  0  0  0  0  0  0  0  0  0
  187.8340  177.1580  144.1220 N   0  0  0  0  0  2  0  0  0  0  0  0
  184.5760  177.9870  142.3490 N   0  0  0  0  0  0  0  0  0  0  0  0
  184.9830  177.9960  141.0760 C   0  0  0  0  0  0  0  0  0  0  0  0
  187.2760  177.4830  141.8420 N   0  0  0  0  0  0  0  0  0  0  0  0
  186.8100  177.7650  139.5390 N   0  0  0  0  0  2  0  0  0  0  0  0
  186.8930  177.4750  143.0940 C   0  0  0  0  0  0  0  0  0  0  0  0
  181.5220  178.5460  140.7880 O   0  0  0  0  0  0  0  0  0  0  0  0
  180.5770  179.0160  141.7370 C   0  0  0  0  0  1  0  0  0  0  0  0
  185.4130  179.0290  144.4200 C   0  0  0  0  0  2  0  0  0  0  0  0
  184.2710  178.9420  145.4320 C   0  0  0  0  0  2  0  0  0  0  0  0
  185.8000  179.3260  147.3380 N   0  0  0  0  0  0  0  0  0  0  0  0
  185.3040  177.0690  146.7380 C   0  0  0  0  0  3  0  0  0  0  0  0
  187.4440  175.9750  147.3350 C   0  0  0  0  0  1  0  0  0  0  0  0
  184.7400  178.4560  146.8020 C   0  0  2  0  0  3  0  0  0  0  0  0
  186.5220  177.1340  147.2160 C   0  0  0  0  0  0  0  0  0  0  0  0
  186.8630  178.4480  147.5940 N   0  0  0  0  0  0  0  0  0  0  0  0
  189.2240  176.8340  143.8390 C   0  0  0  0  0  2  0  0  0  0  0  0
  190.0950  177.1710  145.0380 C   0  0  0  0  0  2  0  0  0  0  0  0
  190.3750  174.7420  145.2230 C   0  0  0  0  0  2  0  0  0  0  0  0
  190.8090  175.9600  145.5500 C   0  0  0  0  0  0  0  0  0  0  0  0
  191.8220  176.1210  146.6350 C   0  0  0  0  0  2  0  0  0  0  0  0
  191.1650  176.6450  147.8990 C   0  0  0  0  0  1  0  0  0  0  0  0
  2  1  2  0  0  0  0
  3  8  2  0  0  0  0
  3  2  1  0  0  0  0
  4 14  1  6  0  0  0
  5  8  1  0  0  0  0
  5  9  1  0  0  0  0
  7  1  1  0  0  0  0
  7  4  1  0  0  0  0
  8  7  1  0  0  0  0
  9 11  2  0  0  0  0
 10  5  2  0  0  0  0
 11  4  1  0  0  0  0
 11  6  1  0  0  0  0
 12  2  1  0  0  0  0
 12 13  1  0  0  0  0
 14 15  1  0  0  0  0
 16 21  2  0  0  0  0
 17 19  1  0  0  0  0
 17 20  2  0  0  0  0
 19 15  1  6  0  0  0
 19 16  1  0  0  0  0
 20 18  1  0  0  0  0
 20 21  1  0  0  0  0
 22  6  1  0  0  0  0
 22 23  1  0  0  0  0
 23 25  1  0  0  0  0
 24 25  2  0  0  0  0
 25 26  1  0  0  0  0
 26 27  1  0  0  0  0
M  END
>  <MODEL>
4

>  <REMARK>
 VINA RESULT:      -6.7      2.313      4.371
  Name = 
  8 active torsions:
  status: ('A' for Active; 'I' for Inactive)
    1  A    between atoms: C_3  and  O_10
    2  A    between atoms: C_6  and  C_23
    3  A    between atoms: N_8  and  C_24
    4  A    between atoms: C_9  and  C_25
    5  A    between atoms: C_14  and  C_24
    6  A    between atoms: C_14  and  C_25
    7  A    between atoms: C_17  and  C_18
    8  A    between atoms: C_18  and  C_23
                            x       y       z     vdW  Elec       q    Type
                         _______ _______ _______ _____ _____    ______ ____

>  <TORSDO>
F 8

$$$$
=
 OpenBabel11042415103D

 27 29  0  0  1  0  0  0  0  0999 V2000
  191.4620  176.5780  143.2200 N   0  0  0  0  0  0  0  0  0  0  0  0
  191.9390  175.4620  142.6330 C   0  0  0  0  0  0  0  0  0  0  0  0
  190.9110  174.6380  142.1750 C   0  0  0  0  0  3  0  0  0  0  0  0
  189.2020  177.4850  143.6880 C   0  0  1  0  0  3  0  0  0  0  0  0
  188.3860  175.0610  142.3260 C   0  0  0  0  0  0  0  0  0  0  0  0
  186.7390  178.0940  143.6940 N   0  0  0  0  0  2  0  0  0  0  0  0
  190.1470  176.4980  143.1550 N   0  0  0  0  0  0  0  0  0  0  0  0
  189.7930  175.3630  142.5440 C   0  0  0  0  0  0  0  0  0  0  0  0
  187.4230  176.0390  142.7350 N   0  0  0  0  0  0  0  0  0  0  0  0
  188.0110  173.9760  141.7350 N   0  0  0  0  0  2  0  0  0  0  0  0
  187.7540  177.1530  143.3380 C   0  0  0  0  0  0  0  0  0  0  0  0
  193.3050  175.1990  142.5160 O   0  0  0  0  0  0  0  0  0  0  0  0
  193.8670  174.6560  141.3310 C   0  0  0  0  0  1  0  0  0  0  0  0
  189.3860  177.6510  145.1960 C   0  0  0  0  0  2  0  0  0  0  0  0
  188.8140  176.4670  145.9760 C   0  0  0  0  0  2  0  0  0  0  0  0
  190.7290  176.9240  147.4720 N   0  0  0  0  0  0  0  0  0  0  0  0
  190.6650  174.8200  146.3460 C   0  0  0  0  0  3  0  0  0  0  0  0
  193.0880  174.4130  146.0360 C   0  0  0  0  0  1  0  0  0  0  0  0
  189.8160  175.8840  146.9710 C   0  0  2  0  0  3  0  0  0  0  0  0
  191.9120  175.1880  146.5090 C   0  0  0  0  0  0  0  0  0  0  0  0
  192.0060  176.4240  147.1770 N   0  0  0  0  0  0  0  0  0  0  0  0
  185.3300  177.8720  143.4120 C   0  0  0  0  0  2  0  0  0  0  0  0
  184.4810  178.3320  144.5860 C   0  0  0  0  0  2  0  0  0  0  0  0
  185.0660  176.7900  146.4000 C   0  0  0  0  0  2  0  0  0  0  0  0
  185.1430  178.0200  145.8910 C   0  0  0  0  0  0  0  0  0  0  0  0
  185.6410  179.1440  146.7380 C   0  0  0  0  0  2  0  0  0  0  0  0
  186.4550  178.6100  147.9020 C   0  0  0  0  0  1  0  0  0  0  0  0
  2  1  2  0  0  0  0
  3  8  2  0  0  0  0
  3  2  1  0  0  0  0
  4 14  1  1  0  0  0
  5  8  1  0  0  0  0
  5  9  1  0  0  0  0
  7  1  1  0  0  0  0
  7  4  1  0  0  0  0
  8  7  1  0  0  0  0
  9 11  2  0  0  0  0
 10  5  2  0  0  0  0
 11  4  1  0  0  0  0
 11  6  1  0  0  0  0
 12  2  1  0  0  0  0
 13 12  1  0  0  0  0
 14 15  1  0  0  0  0
 17 20  2  0  0  0  0
 17 19  1  0  0  0  0
 18 20  1  0  0  0  0
 19 15  1  6  0  0  0
 19 16  1  0  0  0  0
 20 21  1  0  0  0  0
 21 16  2  0  0  0  0
 22  6  1  0  0  0  0
 22 23  1  0  0  0  0
 23 25  1  0  0  0  0
 25 24  2  0  0  0  0
 25 26  1  0  0  0  0
 26 27  1  0  0  0  0
M  END
>  <MODEL>
5

>  <REMARK>
 VINA RESULT:      -6.7      2.465      6.635
  Name = 
  8 active torsions:
  status: ('A' for Active; 'I' for Inactive)
    1  A    between atoms: C_3  and  O_10
    2  A    between atoms: C_6  and  C_23
    3  A    between atoms: N_8  and  C_24
    4  A    between atoms: C_9  and  C_25
    5  A    between atoms: C_14  and  C_24
    6  A    between atoms: C_14  and  C_25
    7  A    between atoms: C_17  and  C_18
    8  A    between atoms: C_18  and  C_23
                            x       y       z     vdW  Elec       q    Type
                         _______ _______ _______ _____ _____    ______ ____

>  <TORSDO>
F 8

$$$$
=
 OpenBabel11042415103D

 27 29  0  0  1  0  0  0  0  0999 V2000
  187.6510  178.2920  145.1950 N   0  0  0  0  0  0  0  0  0  0  0  0
  186.8310  177.8240  146.1580 C   0  0  0  0  0  0  0  0  0  0  0  0
  187.3000  176.6270  146.7000 C   0  0  0  0  0  3  0  0  0  0  0  0
  189.7650  177.5140  144.1610 C   0  0  1  0  0  3  0  0  0  0  0  0
  189.4430  175.3640  146.0760 C   0  0  0  0  0  0  0  0  0  0  0  0
  192.0080  176.4560  143.6240 N   0  0  0  0  0  2  0  0  0  0  0  0
  188.6410  177.4260  145.0980 N   0  0  0  0  0  0  0  0  0  0  0  0
  188.4600  176.4330  145.9740 C   0  0  0  0  0  0  0  0  0  0  0  0
  190.6130  175.4530  145.2560 N   0  0  0  0  0  0  0  0  0  0  0  0
  189.3010  174.3920  146.9150 N   0  0  0  0  0  2  0  0  0  0  0  0
  190.8020  176.4180  144.3910 C   0  0  0  0  0  0  0  0  0  0  0  0
  185.6630  178.4860  146.5390 O   0  0  0  0  0  0  0  0  0  0  0  0
  184.4350  177.7980  146.7240 C   0  0  0  0  0  1  0  0  0  0  0  0
  189.2670  177.5130  142.7160 C   0  0  0  0  0  2  0  0  0  0  0  0
  188.6390  176.1740  142.3280 C   0  0  0  0  0  2  0  0  0  0  0  0
  187.2680  177.5350  140.7830 N   0  0  0  0  0  0  0  0  0  0  0  0
  186.1750  176.5050  142.6390 C   0  0  0  0  0  3  0  0  0  0  0  0
  184.4130  178.1840  143.1000 C   0  0  0  0  0  1  0  0  0  0  0  0
  187.2830  176.3410  141.6450 C   0  0  2  0  0  3  0  0  0  0  0  0
  185.5760  177.6350  142.3550 C   0  0  0  0  0  0  0  0  0  0  0  0
  186.1790  178.2810  141.2580 N   0  0  0  0  0  0  0  0  0  0  0  0
  193.0560  175.4570  143.7620 C   0  0  0  0  0  2  0  0  0  0  0  0
  194.3470  176.1130  144.2230 C   0  0  0  0  0  2  0  0  0  0  0  0
  194.1730  176.8380  146.5590 C   0  0  0  0  0  2  0  0  0  0  0  0
  194.5680  175.9080  145.6890 C   0  0  0  0  0  0  0  0  0  0  0  0
  195.4680  174.8050  146.1390 C   0  0  0  0  0  2  0  0  0  0  0  0
  196.4260  174.4170  145.0280 C   0  0  0  0  0  1  0  0  0  0  0  0
  1  2  2  0  0  0  0
  2 12  1  0  0  0  0
  2  3  1  0  0  0  0
  4 14  1  6  0  0  0
  4 11  1  0  0  0  0
  4  7  1  0  0  0  0
  5 10  2  0  0  0  0
  6 22  1  0  0  0  0
  6 11  1  0  0  0  0
  7  1  1  0  0  0  0
  7  8  1  0  0  0  0
  8  5  1  0  0  0  0
  8  3  2  0  0  0  0
  9  5  1  0  0  0  0
 11  9  2  0  0  0  0
 12 13  1  0  0  0  0
 15 14  1  0  0  0  0
 16 21  2  0  0  0  0
 16 19  1  0  0  0  0
 19 15  1  1  0  0  0
 19 17  1  0  0  0  0
 20 17  2  0  0  0  0
 20 18  1  0  0  0  0
 21 20  1  0  0  0  0
 22 23  1  0  0  0  0
 23 25  1  0  0  0  0
 25 26  1  0  0  0  0
 25 24  2  0  0  0  0
 27 26  1  0  0  0  0
M  END
>  <MODEL>
6

>  <REMARK>
 VINA RESULT:      -6.6      1.951      3.852
  Name = 
  8 active torsions:
  status: ('A' for Active; 'I' for Inactive)
    1  A    between atoms: C_3  and  O_10
    2  A    between atoms: C_6  and  C_23
    3  A    between atoms: N_8  and  C_24
    4  A    between atoms: C_9  and  C_25
    5  A    between atoms: C_14  and  C_24
    6  A    between atoms: C_14  and  C_25
    7  A    between atoms: C_17  and  C_18
    8  A    between atoms: C_18  and  C_23
                            x       y       z     vdW  Elec       q    Type
                         _______ _______ _______ _____ _____    ______ ____

>  <TORSDO>
F 8

$$$$
=
 OpenBabel11042415103D

 27 29  0  0  1  0  0  0  0  0999 V2000
  188.3380  174.8050  140.6040 N   0  0  0  0  0  0  0  0  0  0  0  0
  189.1320  173.7580  140.2980 C   0  0  0  0  0  0  0  0  0  0  0  0
  189.8770  173.3350  141.3990 C   0  0  0  0  0  3  0  0  0  0  0  0
  187.9190  176.1520  142.6420 C   0  0  1  0  0  3  0  0  0  0  0  0
  189.8390  174.3010  143.7750 C   0  0  0  0  0  0  0  0  0  0  0  0
  187.6510  177.0370  145.0050 N   0  0  0  0  0  2  0  0  0  0  0  0
  188.5530  175.0730  141.8770 N   0  0  0  0  0  0  0  0  0  0  0  0
  189.4570  174.2230  142.3730 C   0  0  0  0  0  0  0  0  0  0  0  0
  189.1760  175.2700  144.5930 N   0  0  0  0  0  0  0  0  0  0  0  0
  190.7050  173.4910  144.2860 N   0  0  0  0  0  2  0  0  0  0  0  0
  188.2910  176.1130  144.1220 C   0  0  0  0  0  0  0  0  0  0  0  0
  189.1730  173.1920  139.0230 O   0  0  0  0  0  0  0  0  0  0  0  0
  189.1050  173.9850  137.8470 C   0  0  0  0  0  1  0  0  0  0  0  0
  188.2400  177.5130  142.0250 C   0  0  0  0  0  2  0  0  0  0  0  0
  186.9840  178.3620  141.8280 C   0  0  0  0  0  2  0  0  0  0  0  0
  185.3390  177.7720  140.0780 N   0  0  0  0  0  0  0  0  0  0  0  0
  184.5880  177.8360  142.3430 C   0  0  0  0  0  3  0  0  0  0  0  0
  182.2490  178.5780  142.0120 C   0  0  0  0  0  1  0  0  0  0  0  0
  185.7610  177.5210  141.4650 C   0  0  2  0  0  3  0  0  0  0  0  0
  183.6060  178.1840  141.5500 C   0  0  0  0  0  0  0  0  0  0  0  0
  183.9950  178.1560  140.1960 N   0  0  0  0  0  0  0  0  0  0  0  0
  187.9380  177.0860  146.4300 C   0  0  0  0  0  2  0  0  0  0  0  0
  186.6670  176.8490  147.2290 C   0  0  0  0  0  2  0  0  0  0  0  0
  186.1570  179.1800  147.7940 C   0  0  0  0  0  2  0  0  0  0  0  0
  185.7740  178.0490  147.2000 C   0  0  0  0  0  0  0  0  0  0  0  0
  184.3590  177.8890  146.7520 C   0  0  0  0  0  2  0  0  0  0  0  0
  184.0380  178.8780  145.6460 C   0  0  0  0  0  1  0  0  0  0  0  0
  1  7  1  0  0  0  0
  2  1  2  0  0  0  0
  2  3  1  0  0  0  0
  3  8  2  0  0  0  0
  4 14  1  6  0  0  0
  4 11  1  0  0  0  0
  5 10  2  0  0  0  0
  5  9  1  0  0  0  0
  6 22  1  0  0  0  0
  7  8  1  0  0  0  0
  7  4  1  0  0  0  0
  8  5  1  0  0  0  0
 11  9  2  0  0  0  0
 11  6  1  0  0  0  0
 12  2  1  0  0  0  0
 13 12  1  0  0  0  0
 15 14  1  0  0  0  0
 16 21  2  0  0  0  0
 16 19  1  0  0  0  0
 19 15  1  1  0  0  0
 19 17  1  0  0  0  0
 20 18  1  0  0  0  0
 20 17  2  0  0  0  0
 21 20  1  0  0  0  0
 22 23  1  0  0  0  0
 25 23  1  0  0  0  0
 25 24  2  0  0  0  0
 26 25  1  0  0  0  0
 27 26  1  0  0  0  0
M  END
>  <MODEL>
7

>  <REMARK>
 VINA RESULT:      -6.4      3.244      5.834
  Name = 
  8 active torsions:
  status: ('A' for Active; 'I' for Inactive)
    1  A    between atoms: C_3  and  O_10
    2  A    between atoms: C_6  and  C_23
    3  A    between atoms: N_8  and  C_24
    4  A    between atoms: C_9  and  C_25
    5  A    between atoms: C_14  and  C_24
    6  A    between atoms: C_14  and  C_25
    7  A    between atoms: C_17  and  C_18
    8  A    between atoms: C_18  and  C_23
                            x       y       z     vdW  Elec       q    Type
                         _______ _______ _______ _____ _____    ______ ____

>  <TORSDO>
F 8

$$$$
=
 OpenBabel11042415103D

 27 29  0  0  1  0  0  0  0  0999 V2000
  187.4090  178.2780  145.4600 N   0  0  0  0  0  0  0  0  0  0  0  0
  186.5480  177.9360  146.4390 C   0  0  0  0  0  0  0  0  0  0  0  0
  186.9660  176.7930  147.1200 C   0  0  0  0  0  3  0  0  0  0  0  0
  189.5330  177.3430  144.5860 C   0  0  1  0  0  3  0  0  0  0  0  0
  189.0920  175.4190  146.7060 C   0  0  0  0  0  0  0  0  0  0  0  0
  191.7610  176.1800  144.2400 N   0  0  0  0  0  2  0  0  0  0  0  0
  188.3780  177.3830  145.4880 N   0  0  0  0  0  0  0  0  0  0  0  0
  188.1430  176.4930  146.4580 C   0  0  0  0  0  0  0  0  0  0  0  0
  190.2890  175.3920  145.9210 N   0  0  0  0  0  0  0  0  0  0  0  0
  188.8970  174.5460  147.6380 N   0  0  0  0  0  2  0  0  0  0  0  0
  190.5310  176.2530  144.9660 C   0  0  0  0  0  0  0  0  0  0  0  0
  185.3870  178.6630  146.7080 O   0  0  0  0  0  0  0  0  0  0  0  0
  184.0930  178.1050  146.5310 C   0  0  0  0  0  1  0  0  0  0  0  0
  189.0790  177.2000  143.1330 C   0  0  0  0  0  2  0  0  0  0  0  0
  188.4050  175.8530  142.8740 C   0  0  0  0  0  2  0  0  0  0  0  0
  187.2550  176.9810  140.9980 N   0  0  0  0  0  0  0  0  0  0  0  0
  185.9720  176.4510  142.9400 C   0  0  0  0  0  3  0  0  0  0  0  0
  184.3620  178.3320  142.9330 C   0  0  0  0  0  1  0  0  0  0  0  0
  187.1090  175.9920  142.0780 C   0  0  2  0  0  3  0  0  0  0  0  0
  185.5020  177.5450  142.3950 C   0  0  0  0  0  0  0  0  0  0  0  0
  186.2220  177.8990  141.2370 N   0  0  0  0  0  0  0  0  0  0  0  0
  192.7760  175.1770  144.5180 C   0  0  0  0  0  2  0  0  0  0  0  0
  193.0110  174.3130  143.2900 C   0  0  0  0  0  2  0  0  0  0  0  0
  191.1040  173.3850  142.0580 C   0  0  0  0  0  2  0  0  0  0  0  0
  191.9160  173.3090  143.1140 C   0  0  0  0  0  0  0  0  0  0  0  0
  191.5710  172.4060  144.2520 C   0  0  0  0  0  2  0  0  0  0  0  0
  190.0650  172.3040  144.4100 C   0  0  0  0  0  1  0  0  0  0  0  0
  1  7  1  0  0  0  0
  1  2  2  0  0  0  0
  2 12  1  0  0  0  0
  2  3  1  0  0  0  0
  4 14  1  6  0  0  0
  4 11  1  0  0  0  0
  4  7  1  0  0  0  0
  5 10  2  0  0  0  0
  6 22  1  0  0  0  0
  6 11  1  0  0  0  0
  7  8  1  0  0  0  0
  8  5  1  0  0  0  0
  8  3  2  0  0  0  0
  9  5  1  0  0  0  0
 11  9  2  0  0  0  0
 13 12  1  0  0  0  0
 15 14  1  0  0  0  0
 16 21  2  0  0  0  0
 16 19  1  0  0  0  0
 19 15  1  1  0  0  0
 19 17  1  0  0  0  0
 20 18  1  0  0  0  0
 20 17  2  0  0  0  0
 21 20  1  0  0  0  0
 23 22  1  0  0  0  0
 24 25  2  0  0  0  0
 25 23  1  0  0  0  0
 25 26  1  0  0  0  0
 26 27  1  0  0  0  0
M  END
>  <MODEL>
8

>  <REMARK>
 VINA RESULT:      -6.4      2.430      4.324
  Name = 
  8 active torsions:
  status: ('A' for Active; 'I' for Inactive)
    1  A    between atoms: C_3  and  O_10
    2  A    between atoms: C_6  and  C_23
    3  A    between atoms: N_8  and  C_24
    4  A    between atoms: C_9  and  C_25
    5  A    between atoms: C_14  and  C_24
    6  A    between atoms: C_14  and  C_25
    7  A    between atoms: C_17  and  C_18
    8  A    between atoms: C_18  and  C_23
                            x       y       z     vdW  Elec       q    Type
                         _______ _______ _______ _____ _____    ______ ____

>  <TORSDO>
F 8

$$$$
=
 OpenBabel11042415103D

 27 29  0  0  1  0  0  0  0  0999 V2000
  186.8590  178.1880  142.7320 N   0  0  0  0  0  0  0  0  0  0  0  0
  185.5240  178.2160  142.9180 C   0  0  0  0  0  0  0  0  0  0  0  0
  185.1730  177.8110  144.2060 C   0  0  0  0  0  3  0  0  0  0  0  0
  188.8120  177.5680  144.1270 C   0  0  1  0  0  3  0  0  0  0  0  0
  186.7460  177.0990  146.1020 C   0  0  0  0  0  0  0  0  0  0  0  0
  190.4570  177.0880  145.9980 N   0  0  0  0  0  2  0  0  0  0  0  0
  187.3830  177.7720  143.8680 N   0  0  0  0  0  0  0  0  0  0  0  0
  186.4120  177.5410  144.7570 C   0  0  0  0  0  0  0  0  0  0  0  0
  188.1320  176.9810  146.4410 N   0  0  0  0  0  0  0  0  0  0  0  0
  185.8310  176.8710  146.9860 N   0  0  0  0  0  2  0  0  0  0  0  0
  189.0940  177.2010  145.5810 C   0  0  0  0  0  0  0  0  0  0  0  0
  184.6330  178.6100  141.9190 O   0  0  0  0  0  0  0  0  0  0  0  0
  184.8240  178.2540  140.5580 C   0  0  0  0  0  1  0  0  0  0  0  0
  189.3930  176.5280  143.1690 C   0  0  0  0  0  2  0  0  0  0  0  0
  188.7530  175.1530  143.3600 C   0  0  0  0  0  2  0  0  0  0  0  0
  188.6490  172.8500  142.4660 N   0  0  0  0  0  0  0  0  0  0  0  0
  190.7510  173.6440  143.2710 C   0  0  0  0  0  3  0  0  0  0  0  0
  191.7190  171.5340  144.1330 C   0  0  0  0  0  1  0  0  0  0  0  0
  189.4830  174.0560  142.5870 C   0  0  2  0  0  3  0  0  0  0  0  0
  190.6670  172.3530  143.4760 C   0  0  0  0  0  0  0  0  0  0  0  0
  189.4440  171.8310  143.0110 N   0  0  0  0  0  0  0  0  0  0  0  0
  190.8330  176.7380  147.3590 C   0  0  0  0  0  2  0  0  0  0  0  0
  191.5460  175.3950  147.3760 C   0  0  0  0  0  2  0  0  0  0  0  0
  193.2610  174.4060  145.9290 C   0  0  0  0  0  2  0  0  0  0  0  0
  192.8440  175.4580  146.6350 C   0  0  0  0  0  0  0  0  0  0  0  0
  193.7830  176.5850  146.9140 C   0  0  0  0  0  2  0  0  0  0  0  0
  194.4290  177.0670  145.6280 C   0  0  0  0  0  1  0  0  0  0  0  0
  1  2  2  0  0  0  0
  1  7  1  0  0  0  0
  2  3  1  0  0  0  0
  3  8  2  0  0  0  0
  4 14  1  6  0  0  0
  4 11  1  0  0  0  0
  5  9  1  0  0  0  0
  5 10  2  0  0  0  0
  6 22  1  0  0  0  0
  7  4  1  0  0  0  0
  7  8  1  0  0  0  0
  8  5  1  0  0  0  0
 11  6  1  0  0  0  0
 11  9  2  0  0  0  0
 12  2  1  0  0  0  0
 13 12  1  0  0  0  0
 14 15  1  0  0  0  0
 16 19  1  0  0  0  0
 16 21  2  0  0  0  0
 17 20  2  0  0  0  0
 19 17  1  0  0  0  0
 19 15  1  1  0  0  0
 20 18  1  0  0  0  0
 21 20  1  0  0  0  0
 22 23  1  0  0  0  0
 24 25  2  0  0  0  0
 25 26  1  0  0  0  0
 25 23  1  0  0  0  0
 27 26  1  0  0  0  0
M  END
>  <MODEL>
9

>  <REMARK>
 VINA RESULT:      -6.3      2.342      4.753
  Name = 
  8 active torsions:
  status: ('A' for Active; 'I' for Inactive)
    1  A    between atoms: C_3  and  O_10
    2  A    between atoms: C_6  and  C_23
    3  A    between atoms: N_8  and  C_24
    4  A    between atoms: C_9  and  C_25
    5  A    between atoms: C_14  and  C_24
    6  A    between atoms: C_14  and  C_25
    7  A    between atoms: C_17  and  C_18
    8  A    between atoms: C_18  and  C_23
                            x       y       z     vdW  Elec       q    Type
                         _______ _______ _______ _____ _____    ______ ____

>  <TORSDO>
F 8

$$$$
