=
 OpenBabel11042418113D

 25 26  0  0  1  0  0  0  0  0999 V2000
  188.3460  177.8520  144.5130 C   0  0  0  0  0  0  0  0  0  0  0  0
  190.4970  177.4410  143.8630 C   0  0  0  0  0  0  0  0  0  0  0  0
  189.6950  177.6250  145.1130 C   0  0  2  0  0  3  0  0  0  0  0  0
  189.7880  177.5200  142.7850 N   0  0  0  0  0  0  0  0  0  0  0  0
  188.4490  177.7790  143.1860 C   0  0  0  0  0  0  0  0  0  0  0  0
  189.4040  174.4060  146.5990 C   0  0  0  0  0  3  0  0  0  0  0  0
  189.7090  176.3800  145.9500 C   0  0  0  0  0  0  0  0  0  0  0  0
  190.0760  175.0490  147.5740 N   0  0  0  0  0  0  0  0  0  0  0  0
  190.2690  176.2910  147.1690 N   0  0  0  0  0  0  0  0  0  0  0  0
  189.1550  175.2210  145.5540 N   0  0  0  0  0  2  0  0  0  0  0  0
  187.1370  178.1320  145.3100 C   0  0  0  0  0  3  0  0  0  0  0  0
  186.1820  177.2700  145.4390 N   0  0  0  0  0  0  0  0  0  0  0  0
  184.1480  178.6090  145.5270 C   0  0  0  0  0  1  0  0  0  0  0  0
  185.0030  177.5710  146.2330 C   0  0  0  0  0  3  0  0  0  0  0  0
  185.4310  178.1140  147.5790 C   0  0  0  0  0  1  0  0  0  0  0  0
  187.3330  177.3220  141.0610 C   0  0  0  0  0  3  0  0  0  0  0  0
  187.3460  177.9510  142.2330 C   0  0  0  0  0  3  0  0  0  0  0  0
  186.4240  176.9580  138.7820 C   0  0  0  0  0  1  0  0  0  0  0  0
  185.0190  178.1520  140.4740 C   0  0  0  0  0  1  0  0  0  0  0  0
  186.2630  177.4810  140.1250 N   0  0  0  0  0  0  0  0  0  0  0  0
  191.9640  177.1770  143.8400 C   0  0  0  0  0  2  0  0  0  0  0  0
  192.2690  175.9800  142.9580 C   0  0  0  0  0  2  0  0  0  0  0  0
  192.1970  174.7290  143.7610 C   0  0  0  0  0  0  0  0  0  0  0  0
  192.8200  174.6660  145.0370 N   0  0  0  0  0  1  0  0  0  0  0  0
  191.5570  173.7370  143.3240 O   0  0  0  0  0  0  0  0  0  0  0  0
  1  3  1  0  0  0  0
  1 11  1  0  0  0  0
  2  3  1  0  0  0  0
  3  7  1  1  0  0  0
  4  5  1  0  0  0  0
  4  2  2  0  0  0  0
  5  1  2  0  0  0  0
  6  8  2  0  0  0  0
  7  9  2  0  0  0  0
  9  8  1  0  0  0  0
 10  7  1  0  0  0  0
 10  6  1  0  0  0  0
 11 12  2  0  0  0  0
 12 14  1  0  0  0  0
 13 14  1  0  0  0  0
 14 15  1  0  0  0  0
 16 17  2  0  0  0  0
 17  5  1  0  0  0  0
 18 20  1  0  0  0  0
 20 19  1  0  0  0  0
 20 16  1  0  0  0  0
 21  2  1  0  0  0  0
 22 23  1  0  0  0  0
 22 21  1  0  0  0  0
 23 24  1  0  0  0  0
 25 23  2  0  0  0  0
M  END
>  <MODEL>
1

>  <REMARK>
 VINA RESULT:      -5.8      0.000      0.000
  Name = 
  8 active torsions:
  status: ('A' for Active; 'I' for Inactive)
    1  A    between atoms: C_2  and  C_5
    2  A    between atoms: C_3  and  N_23
    3  A    between atoms: C_4  and  C_21
    4  A    between atoms: C_6  and  C_11
    5  A    between atoms: C_7  and  C_24
    6  A    between atoms: C_8  and  C_9
    7  A    between atoms: C_8  and  C_21
    8  A    between atoms: C_18  and  N_25
                            x       y       z     vdW  Elec       q    Type
                         _______ _______ _______ _____ _____    ______ ____

>  <TORSDO>
F 8

$$$$
=
 OpenBabel11042418113D

 25 26  0  0  1  0  0  0  0  0999 V2000
  187.5650  177.1000  143.5670 C   0  0  0  0  0  0  0  0  0  0  0  0
  188.5360  176.5340  145.5550 C   0  0  0  0  0  0  0  0  0  0  0  0
  187.7200  177.6350  144.9540 C   0  0  2  0  0  3  0  0  0  0  0  0
  188.7860  175.5730  144.7290 N   0  0  0  0  0  0  0  0  0  0  0  0
  188.1850  175.9230  143.4890 C   0  0  0  0  0  0  0  0  0  0  0  0
  184.6750  178.5570  146.5440 C   0  0  0  0  0  3  0  0  0  0  0  0
  186.3900  177.7530  145.6360 C   0  0  0  0  0  0  0  0  0  0  0  0
  184.5420  177.2160  146.5530 N   0  0  0  0  0  0  0  0  0  0  0  0
  185.6190  176.7080  145.9830 N   0  0  0  0  0  0  0  0  0  0  0  0
  185.8360  178.9320  145.9690 N   0  0  0  0  0  2  0  0  0  0  0  0
  186.8520  177.8170  142.4940 C   0  0  0  0  0  3  0  0  0  0  0  0
  185.5990  177.6150  142.2450 N   0  0  0  0  0  0  0  0  0  0  0  0
  183.4170  178.1580  141.3060 C   0  0  0  0  0  1  0  0  0  0  0  0
  184.9200  178.3370  141.1830 C   0  0  0  0  0  3  0  0  0  0  0  0
  185.3750  177.8010  139.8420 C   0  0  0  0  0  1  0  0  0  0  0  0
  189.4330  174.7920  141.7190 C   0  0  0  0  0  3  0  0  0  0  0  0
  188.2670  175.0780  142.2920 C   0  0  0  0  0  3  0  0  0  0  0  0
  190.6440  173.0570  140.4240 C   0  0  0  0  0  1  0  0  0  0  0  0
  188.5320  174.0180  139.4880 C   0  0  0  0  0  1  0  0  0  0  0  0
  189.5250  173.9690  140.5520 N   0  0  0  0  0  0  0  0  0  0  0  0
  189.0120  176.5210  146.9690 C   0  0  0  0  0  2  0  0  0  0  0  0
  189.8820  175.3030  147.2190 C   0  0  0  0  0  2  0  0  0  0  0  0
  191.2590  175.7310  147.5820 C   0  0  0  0  0  0  0  0  0  0  0  0
  192.3830  175.0810  147.0040 N   0  0  0  0  0  1  0  0  0  0  0  0
  191.4310  176.6910  148.3790 O   0  0  0  0  0  0  0  0  0  0  0  0
  1  3  1  0  0  0  0
  2 21  1  0  0  0  0
  3  2  1  0  0  0  0
  3  7  1  1  0  0  0
  4  2  2  0  0  0  0
  5  1  2  0  0  0  0
  5  4  1  0  0  0  0
  6  8  2  0  0  0  0
  7 10  1  0  0  0  0
  7  9  2  0  0  0  0
  9  8  1  0  0  0  0
 10  6  1  0  0  0  0
 11  1  1  0  0  0  0
 12 11  2  0  0  0  0
 14 13  1  0  0  0  0
 14 12  1  0  0  0  0
 15 14  1  0  0  0  0
 16 17  2  0  0  0  0
 17  5  1  0  0  0  0
 18 20  1  0  0  0  0
 19 20  1  0  0  0  0
 20 16  1  0  0  0  0
 21 22  1  0  0  0  0
 22 23  1  0  0  0  0
 23 25  2  0  0  0  0
 24 23  1  0  0  0  0
M  END
>  <MODEL>
2

>  <REMARK>
 VINA RESULT:      -5.7      2.374      4.446
  Name = 
  8 active torsions:
  status: ('A' for Active; 'I' for Inactive)
    1  A    between atoms: C_2  and  C_5
    2  A    between atoms: C_3  and  N_23
    3  A    between atoms: C_4  and  C_21
    4  A    between atoms: C_6  and  C_11
    5  A    between atoms: C_7  and  C_24
    6  A    between atoms: C_8  and  C_9
    7  A    between atoms: C_8  and  C_21
    8  A    between atoms: C_18  and  N_25
                            x       y       z     vdW  Elec       q    Type
                         _______ _______ _______ _____ _____    ______ ____

>  <TORSDO>
F 8

$$$$
=
 OpenBabel11042418113D

 25 26  0  0  1  0  0  0  0  0999 V2000
  187.6040  176.4970  144.3830 C   0  0  0  0  0  0  0  0  0  0  0  0
  188.2630  175.1340  142.6720 C   0  0  0  0  0  0  0  0  0  0  0  0
  187.0300  175.8070  143.1890 C   0  0  2  0  0  3  0  0  0  0  0  0
  189.3150  175.3820  143.3790 N   0  0  0  0  0  0  0  0  0  0  0  0
  188.9080  176.2290  144.4470 C   0  0  0  0  0  0  0  0  0  0  0  0
  185.2300  178.1320  141.1860 C   0  0  0  0  0  3  0  0  0  0  0  0
  186.5020  176.7990  142.1960 C   0  0  0  0  0  0  0  0  0  0  0  0
  186.4050  178.1210  140.5260 N   0  0  0  0  0  2  0  0  0  0  0  0
  187.2070  177.2840  141.1590 N   0  0  0  0  0  0  0  0  0  0  0  0
  185.2570  177.3040  142.2510 N   0  0  0  0  0  0  0  0  0  0  0  0
  186.8030  177.3090  145.3170 C   0  0  0  0  0  3  0  0  0  0  0  0
  185.6560  176.9140  145.7640 N   0  0  0  0  0  0  0  0  0  0  0  0
  184.0490  178.7390  145.9180 C   0  0  0  0  0  1  0  0  0  0  0  0
  184.8890  177.7340  146.6860 C   0  0  0  0  0  3  0  0  0  0  0  0
  185.8360  178.4780  147.6030 C   0  0  0  0  0  1  0  0  0  0  0  0
  190.8690  175.9910  145.8860 C   0  0  0  0  0  3  0  0  0  0  0  0
  189.8310  176.7180  145.4780 C   0  0  0  0  0  3  0  0  0  0  0  0
  193.1970  176.4410  146.6140 C   0  0  0  0  0  1  0  0  0  0  0  0
  191.3150  176.9490  148.1820 C   0  0  0  0  0  1  0  0  0  0  0  0
  191.7740  176.4580  146.8910 N   0  0  0  0  0  0  0  0  0  0  0  0
  188.2980  174.2700  141.4570 C   0  0  0  0  0  2  0  0  0  0  0  0
  187.9040  172.8480  141.8130 C   0  0  0  0  0  2  0  0  0  0  0  0
  189.0790  172.1200  142.3630 C   0  0  0  0  0  0  0  0  0  0  0  0
  190.1630  171.7710  141.5110 N   0  0  0  0  0  1  0  0  0  0  0  0
  189.1290  171.8400  143.5900 O   0  0  0  0  0  0  0  0  0  0  0  0
  1  5  2  0  0  0  0
  1 11  1  0  0  0  0
  2  3  1  0  0  0  0
  2  4  2  0  0  0  0
  3  7  1  6  0  0  0
  3  1  1  0  0  0  0
  4  5  1  0  0  0  0
  5 17  1  0  0  0  0
  6 10  2  0  0  0  0
  7 10  1  0  0  0  0
  8  9  1  0  0  0  0
  8  6  1  0  0  0  0
  9  7  2  0  0  0  0
 11 12  2  0  0  0  0
 12 14  1  0  0  0  0
 13 14  1  0  0  0  0
 14 15  1  0  0  0  0
 16 20  1  0  0  0  0
 17 16  2  0  0  0  0
 18 20  1  0  0  0  0
 20 19  1  0  0  0  0
 21 22  1  0  0  0  0
 21  2  1  0  0  0  0
 22 23  1  0  0  0  0
 23 25  2  0  0  0  0
 24 23  1  0  0  0  0
M  END
>  <MODEL>
3

>  <REMARK>
 VINA RESULT:      -5.6      2.407      5.400
  Name = 
  8 active torsions:
  status: ('A' for Active; 'I' for Inactive)
    1  A    between atoms: C_2  and  C_5
    2  A    between atoms: C_3  and  N_23
    3  A    between atoms: C_4  and  C_21
    4  A    between atoms: C_6  and  C_11
    5  A    between atoms: C_7  and  C_24
    6  A    between atoms: C_8  and  C_9
    7  A    between atoms: C_8  and  C_21
    8  A    between atoms: C_18  and  N_25
                            x       y       z     vdW  Elec       q    Type
                         _______ _______ _______ _____ _____    ______ ____

>  <TORSDO>
F 8

$$$$
=
 OpenBabel11042418113D

 25 26  0  0  1  0  0  0  0  0999 V2000
  187.9930  176.8450  143.5100 C   0  0  0  0  0  0  0  0  0  0  0  0
  188.6740  176.2890  145.6190 C   0  0  0  0  0  0  0  0  0  0  0  0
  188.0500  177.4340  144.8820 C   0  0  2  0  0  3  0  0  0  0  0  0
  188.9100  175.2650  144.8670 N   0  0  0  0  0  0  0  0  0  0  0  0
  188.4890  175.6090  143.5520 C   0  0  0  0  0  0  0  0  0  0  0  0
  184.7330  177.4700  146.1650 C   0  0  0  0  0  3  0  0  0  0  0  0
  186.6740  177.7220  145.4020 C   0  0  0  0  0  0  0  0  0  0  0  0
  184.9390  178.7940  146.0230 N   0  0  0  0  0  0  0  0  0  0  0  0
  186.1580  178.9550  145.5430 N   0  0  0  0  0  0  0  0  0  0  0  0
  185.8140  176.7600  145.7810 N   0  0  0  0  0  2  0  0  0  0  0  0
  187.4830  177.5720  142.3340 C   0  0  0  0  0  3  0  0  0  0  0  0
  186.2830  177.4000  141.8840 N   0  0  0  0  0  0  0  0  0  0  0  0
  184.2880  178.2020  140.7380 C   0  0  0  0  0  1  0  0  0  0  0  0
  185.8050  178.1320  140.7240 C   0  0  0  0  0  3  0  0  0  0  0  0
  186.2560  177.4250  139.4640 C   0  0  0  0  0  1  0  0  0  0  0  0
  189.7370  174.6110  141.7040 C   0  0  0  0  0  3  0  0  0  0  0  0
  188.6120  174.6980  142.4080 C   0  0  0  0  0  3  0  0  0  0  0  0
  188.6720  173.1500  140.0060 C   0  0  0  0  0  1  0  0  0  0  0  0
  191.1620  173.3870  140.0130 C   0  0  0  0  0  1  0  0  0  0  0  0
  189.8680  173.7270  140.5860 N   0  0  0  0  0  0  0  0  0  0  0  0
  188.9870  176.3030  147.0760 C   0  0  0  0  0  2  0  0  0  0  0  0
  190.2150  175.4550  147.3580 C   0  0  0  0  0  2  0  0  0  0  0  0
  191.4030  176.3310  147.5410 C   0  0  0  0  0  0  0  0  0  0  0  0
  192.4450  176.3290  146.5730 N   0  0  0  0  0  1  0  0  0  0  0  0
  191.4720  177.0970  148.5380 O   0  0  0  0  0  0  0  0  0  0  0  0
  1  5  2  0  0  0  0
  1  3  1  0  0  0  0
  2 21  1  0  0  0  0
  3  7  1  1  0  0  0
  3  2  1  0  0  0  0
  4  2  2  0  0  0  0
  5  4  1  0  0  0  0
  7  9  2  0  0  0  0
  7 10  1  0  0  0  0
  8  6  2  0  0  0  0
  9  8  1  0  0  0  0
 10  6  1  0  0  0  0
 11  1  1  0  0  0  0
 12 11  2  0  0  0  0
 14 13  1  0  0  0  0
 14 12  1  0  0  0  0
 15 14  1  0  0  0  0
 16 17  2  0  0  0  0
 17  5  1  0  0  0  0
 18 20  1  0  0  0  0
 19 20  1  0  0  0  0
 20 16  1  0  0  0  0
 21 22  1  0  0  0  0
 22 23  1  0  0  0  0
 23 25  2  0  0  0  0
 24 23  1  0  0  0  0
M  END
>  <MODEL>
4

>  <REMARK>
 VINA RESULT:      -5.4      2.455      4.634
  Name = 
  8 active torsions:
  status: ('A' for Active; 'I' for Inactive)
    1  A    between atoms: C_2  and  C_5
    2  A    between atoms: C_3  and  N_23
    3  A    between atoms: C_4  and  C_21
    4  A    between atoms: C_6  and  C_11
    5  A    between atoms: C_7  and  C_24
    6  A    between atoms: C_8  and  C_9
    7  A    between atoms: C_8  and  C_21
    8  A    between atoms: C_18  and  N_25
                            x       y       z     vdW  Elec       q    Type
                         _______ _______ _______ _____ _____    ______ ____

>  <TORSDO>
F 8

$$$$
=
 OpenBabel11042418113D

 25 26  0  0  1  0  0  0  0  0999 V2000
  188.0070  176.6280  144.1910 C   0  0  0  0  0  0  0  0  0  0  0  0
  188.3160  174.8890  142.7430 C   0  0  0  0  0  0  0  0  0  0  0  0
  187.2430  175.8370  143.1800 C   0  0  2  0  0  3  0  0  0  0  0  0
  189.4460  175.0860  143.3370 N   0  0  0  0  0  0  0  0  0  0  0  0
  189.2570  176.1670  144.2420 C   0  0  0  0  0  0  0  0  0  0  0  0
  186.7940  177.8320  140.2700 C   0  0  0  0  0  3  0  0  0  0  0  0
  186.7960  176.7060  142.0440 C   0  0  0  0  0  0  0  0  0  0  0  0
  185.5550  177.9090  140.7950 N   0  0  0  0  0  2  0  0  0  0  0  0
  185.5530  177.2030  141.9100 N   0  0  0  0  0  0  0  0  0  0  0  0
  187.6060  177.0760  141.0360 N   0  0  0  0  0  0  0  0  0  0  0  0
  187.4140  177.7160  144.9910 C   0  0  0  0  0  3  0  0  0  0  0  0
  186.1740  177.7050  145.3570 N   0  0  0  0  0  0  0  0  0  0  0  0
  186.1920  178.7630  147.5520 C   0  0  0  0  0  1  0  0  0  0  0  0
  185.6160  178.7890  146.1470 C   0  0  0  0  0  3  0  0  0  0  0  0
  184.1130  178.6310  146.2250 C   0  0  0  0  0  1  0  0  0  0  0  0
  190.7750  175.9690  146.1460 C   0  0  0  0  0  3  0  0  0  0  0  0
  190.3210  176.6770  145.1150 C   0  0  0  0  0  3  0  0  0  0  0  0
  191.4570  176.9560  148.3170 C   0  0  0  0  0  1  0  0  0  0  0  0
  193.2120  176.4650  146.6020 C   0  0  0  0  0  1  0  0  0  0  0  0
  191.8120  176.4560  147.0040 N   0  0  0  0  0  0  0  0  0  0  0  0
  188.1250  173.8260  141.7150 C   0  0  0  0  0  2  0  0  0  0  0  0
  189.1600  173.9680  140.6140 C   0  0  0  0  0  2  0  0  0  0  0  0
  188.5280  173.7170  139.2910 C   0  0  0  0  0  0  0  0  0  0  0  0
  188.4340  172.3900  138.7870 N   0  0  0  0  0  1  0  0  0  0  0  0
  188.0480  174.6750  138.6300 O   0  0  0  0  0  0  0  0  0  0  0  0
  1  5  2  0  0  0  0
  1 11  1  0  0  0  0
  2  3  1  0  0  0  0
  2  4  2  0  0  0  0
  3  7  1  6  0  0  0
  3  1  1  0  0  0  0
  4  5  1  0  0  0  0
  5 17  1  0  0  0  0
  6  8  1  0  0  0  0
  6 10  2  0  0  0  0
  8  9  1  0  0  0  0
  9  7  2  0  0  0  0
 10  7  1  0  0  0  0
 11 12  2  0  0  0  0
 12 14  1  0  0  0  0
 14 15  1  0  0  0  0
 14 13  1  0  0  0  0
 16 20  1  0  0  0  0
 17 16  2  0  0  0  0
 19 20  1  0  0  0  0
 20 18  1  0  0  0  0
 21  2  1  0  0  0  0
 22 21  1  0  0  0  0
 23 22  1  0  0  0  0
 24 23  1  0  0  0  0
 25 23  2  0  0  0  0
M  END
>  <MODEL>
5

>  <REMARK>
 VINA RESULT:      -5.4      2.627      5.764
  Name = 
  8 active torsions:
  status: ('A' for Active; 'I' for Inactive)
    1  A    between atoms: C_2  and  C_5
    2  A    between atoms: C_3  and  N_23
    3  A    between atoms: C_4  and  C_21
    4  A    between atoms: C_6  and  C_11
    5  A    between atoms: C_7  and  C_24
    6  A    between atoms: C_8  and  C_9
    7  A    between atoms: C_8  and  C_21
    8  A    between atoms: C_18  and  N_25
                            x       y       z     vdW  Elec       q    Type
                         _______ _______ _______ _____ _____    ______ ____

>  <TORSDO>
F 8

$$$$
=
 OpenBabel11042418113D

 25 26  0  0  1  0  0  0  0  0999 V2000
  188.4920  175.4650  143.8170 C   0  0  0  0  0  0  0  0  0  0  0  0
  187.8280  176.6820  145.6320 C   0  0  0  0  0  0  0  0  0  0  0  0
  188.7160  175.5260  145.2930 C   0  0  2  0  0  3  0  0  0  0  0  0
  187.2380  177.1930  144.6030 N   0  0  0  0  0  0  0  0  0  0  0  0
  187.6470  176.4360  143.4710 C   0  0  0  0  0  0  0  0  0  0  0  0
  192.0570  175.7900  146.4840 C   0  0  0  0  0  3  0  0  0  0  0  0
  190.1480  175.8360  145.6070 C   0  0  0  0  0  0  0  0  0  0  0  0
  192.0740  176.7490  145.5370 N   0  0  0  0  0  2  0  0  0  0  0  0
  190.8750  176.7810  144.9850 N   0  0  0  0  0  0  0  0  0  0  0  0
  190.8510  175.1910  146.5550 N   0  0  0  0  0  0  0  0  0  0  0  0
  189.1140  174.4550  142.9400 C   0  0  0  0  0  3  0  0  0  0  0  0
  190.0840  174.7450  142.1360 N   0  0  0  0  0  0  0  0  0  0  0  0
  190.1160  172.3620  141.6290 C   0  0  0  0  0  1  0  0  0  0  0  0
  190.6800  173.7290  141.2850 C   0  0  0  0  0  3  0  0  0  0  0  0
  192.1790  173.7150  141.4950 C   0  0  0  0  0  1  0  0  0  0  0  0
  186.0940  177.4570  141.8850 C   0  0  0  0  0  3  0  0  0  0  0  0
  187.1710  176.7090  142.1100 C   0  0  0  0  0  3  0  0  0  0  0  0
  186.4450  177.3520  139.4310 C   0  0  0  0  0  1  0  0  0  0  0  0
  184.3380  178.3730  140.3140 C   0  0  0  0  0  1  0  0  0  0  0  0
  185.6200  177.7290  140.5620 N   0  0  0  0  0  0  0  0  0  0  0  0
  187.6400  177.2160  147.0120 C   0  0  0  0  0  2  0  0  0  0  0  0
  186.2240  176.9480  147.4890 C   0  0  0  0  0  2  0  0  0  0  0  0
  185.3870  178.1630  147.2950 C   0  0  0  0  0  0  0  0  0  0  0  0
  185.9070  179.4450  147.6220 N   0  0  0  0  0  1  0  0  0  0  0  0
  184.2290  178.0590  146.8120 O   0  0  0  0  0  0  0  0  0  0  0  0
  1  3  1  0  0  0  0
  2 21  1  0  0  0  0
  3  7  1  6  0  0  0
  3  2  1  0  0  0  0
  4  2  2  0  0  0  0
  5  1  2  0  0  0  0
  5  4  1  0  0  0  0
  6 10  2  0  0  0  0
  7 10  1  0  0  0  0
  8  6  1  0  0  0  0
  9  8  1  0  0  0  0
  9  7  2  0  0  0  0
 11  1  1  0  0  0  0
 12 11  2  0  0  0  0
 14 15  1  0  0  0  0
 14 13  1  0  0  0  0
 14 12  1  0  0  0  0
 16 17  2  0  0  0  0
 17  5  1  0  0  0  0
 18 20  1  0  0  0  0
 19 20  1  0  0  0  0
 20 16  1  0  0  0  0
 21 22  1  0  0  0  0
 23 22  1  0  0  0  0
 23 24  1  0  0  0  0
 25 23  2  0  0  0  0
M  END
>  <MODEL>
6

>  <REMARK>
 VINA RESULT:      -5.2      2.741      5.323
  Name = 
  8 active torsions:
  status: ('A' for Active; 'I' for Inactive)
    1  A    between atoms: C_2  and  C_5
    2  A    between atoms: C_3  and  N_23
    3  A    between atoms: C_4  and  C_21
    4  A    between atoms: C_6  and  C_11
    5  A    between atoms: C_7  and  C_24
    6  A    between atoms: C_8  and  C_9
    7  A    between atoms: C_8  and  C_21
    8  A    between atoms: C_18  and  N_25
                            x       y       z     vdW  Elec       q    Type
                         _______ _______ _______ _____ _____    ______ ____

>  <TORSDO>
F 8

$$$$
=
 OpenBabel11042418113D

 25 26  0  0  1  0  0  0  0  0999 V2000
  189.3880  175.6680  144.6960 C   0  0  0  0  0  0  0  0  0  0  0  0
  191.0110  175.6460  146.3040 C   0  0  0  0  0  0  0  0  0  0  0  0
  190.6690  174.9690  145.0130 C   0  0  2  0  0  3  0  0  0  0  0  0
  190.1490  176.5420  146.6540 N   0  0  0  0  0  0  0  0  0  0  0  0
  189.1360  176.5570  145.6570 C   0  0  0  0  0  0  0  0  0  0  0  0
  192.9460  176.2520  142.6000 C   0  0  0  0  0  3  0  0  0  0  0  0
  191.7070  175.2480  143.9670 C   0  0  0  0  0  0  0  0  0  0  0  0
  193.2560  174.9420  142.5350 N   0  0  0  0  0  2  0  0  0  0  0  0
  192.4780  174.3080  143.3930 N   0  0  0  0  0  0  0  0  0  0  0  0
  191.9680  176.4810  143.4990 N   0  0  0  0  0  0  0  0  0  0  0  0
  188.5660  175.3640  143.5110 C   0  0  0  0  0  3  0  0  0  0  0  0
  188.3890  176.2190  142.5570 N   0  0  0  0  0  0  0  0  0  0  0  0
  188.3210  174.9290  140.4910 C   0  0  0  0  0  1  0  0  0  0  0  0
  187.5750  175.8910  141.3990 C   0  0  0  0  0  3  0  0  0  0  0  0
  187.2640  177.1570  140.6300 C   0  0  0  0  0  1  0  0  0  0  0  0
  186.8190  177.0490  146.2570 C   0  0  0  0  0  3  0  0  0  0  0  0
  187.9670  177.4440  145.7150 C   0  0  0  0  0  3  0  0  0  0  0  0
  185.4540  178.6960  147.5140 C   0  0  0  0  0  1  0  0  0  0  0  0
  184.7210  178.0070  145.2230 C   0  0  0  0  0  1  0  0  0  0  0  0
  185.6740  177.9040  146.3190 N   0  0  0  0  0  0  0  0  0  0  0  0
  192.2260  175.3410  147.1130 C   0  0  0  0  0  2  0  0  0  0  0  0
  193.1080  176.5710  147.2190 C   0  0  0  0  0  2  0  0  0  0  0  0
  194.2820  176.4310  146.3160 C   0  0  0  0  0  0  0  0  0  0  0  0
  194.7740  177.5600  145.6070 N   0  0  0  0  0  1  0  0  0  0  0  0
  194.8600  175.3180  146.2040 O   0  0  0  0  0  0  0  0  0  0  0  0
  1  3  1  0  0  0  0
  1  5  2  0  0  0  0
  2  4  2  0  0  0  0
  2 21  1  0  0  0  0
  3  7  1  6  0  0  0
  3  2  1  0  0  0  0
  5 17  1  0  0  0  0
  5  4  1  0  0  0  0
  6 10  2  0  0  0  0
  8  6  1  0  0  0  0
  8  9  1  0  0  0  0
  9  7  2  0  0  0  0
 10  7  1  0  0  0  0
 11  1  1  0  0  0  0
 12 11  2  0  0  0  0
 13 14  1  0  0  0  0
 14 12  1  0  0  0  0
 15 14  1  0  0  0  0
 16 20  1  0  0  0  0
 17 16  2  0  0  0  0
 19 20  1  0  0  0  0
 20 18  1  0  0  0  0
 21 22  1  0  0  0  0
 23 22  1  0  0  0  0
 24 23  1  0  0  0  0
 25 23  2  0  0  0  0
M  END
>  <MODEL>
7

>  <REMARK>
 VINA RESULT:      -5.1      2.186      4.870
  Name = 
  8 active torsions:
  status: ('A' for Active; 'I' for Inactive)
    1  A    between atoms: C_2  and  C_5
    2  A    between atoms: C_3  and  N_23
    3  A    between atoms: C_4  and  C_21
    4  A    between atoms: C_6  and  C_11
    5  A    between atoms: C_7  and  C_24
    6  A    between atoms: C_8  and  C_9
    7  A    between atoms: C_8  and  C_21
    8  A    between atoms: C_18  and  N_25
                            x       y       z     vdW  Elec       q    Type
                         _______ _______ _______ _____ _____    ______ ____

>  <TORSDO>
F 8

$$$$
=
 OpenBabel11042418113D

 25 26  0  0  1  0  0  0  0  0999 V2000
  188.2370  176.5940  143.8390 C   0  0  0  0  0  0  0  0  0  0  0  0
  189.7750  176.1690  145.4740 C   0  0  0  0  0  0  0  0  0  0  0  0
  188.7430  177.1910  145.1110 C   0  0  2  0  0  3  0  0  0  0  0  0
  189.8470  175.1940  144.6290 N   0  0  0  0  0  0  0  0  0  0  0  0
  188.8920  175.4570  143.6080 C   0  0  0  0  0  0  0  0  0  0  0  0
  186.1030  177.9530  147.3700 C   0  0  0  0  0  3  0  0  0  0  0  0
  187.6590  177.2520  146.1450 C   0  0  0  0  0  0  0  0  0  0  0  0
  186.3230  176.6650  147.6990 N   0  0  0  0  0  0  0  0  0  0  0  0
  187.3010  176.2220  146.9310 N   0  0  0  0  0  0  0  0  0  0  0  0
  186.9330  178.3580  146.3870 N   0  0  0  0  0  2  0  0  0  0  0  0
  187.1970  177.2210  143.0030 C   0  0  0  0  0  3  0  0  0  0  0  0
  185.9460  176.9150  143.1150 N   0  0  0  0  0  0  0  0  0  0  0  0
  185.6060  178.2840  141.1280 C   0  0  0  0  0  1  0  0  0  0  0  0
  184.9410  177.5510  142.2800 C   0  0  0  0  0  3  0  0  0  0  0  0
  184.1530  178.5410  143.1090 C   0  0  0  0  0  1  0  0  0  0  0  0
  189.6670  174.3200  141.5890 C   0  0  0  0  0  3  0  0  0  0  0  0
  188.6890  174.5720  142.4550 C   0  0  0  0  0  3  0  0  0  0  0  0
  190.1310  172.1650  140.4520 C   0  0  0  0  0  1  0  0  0  0  0  0
  188.6570  173.8410  139.3220 C   0  0  0  0  0  1  0  0  0  0  0  0
  189.4800  173.4600  140.4610 N   0  0  0  0  0  0  0  0  0  0  0  0
  190.6350  176.2420  146.6900 C   0  0  0  0  0  2  0  0  0  0  0  0
  191.9260  175.4760  146.4670 C   0  0  0  0  0  2  0  0  0  0  0  0
  193.0150  176.4180  146.0940 C   0  0  0  0  0  0  0  0  0  0  0  0
  193.0100  177.0410  144.8160 N   0  0  0  0  0  1  0  0  0  0  0  0
  193.9240  176.6880  146.9220 O   0  0  0  0  0  0  0  0  0  0  0  0
  1  3  1  0  0  0  0
  2 21  1  0  0  0  0
  3  2  1  0  0  0  0
  3  7  1  1  0  0  0
  4  2  2  0  0  0  0
  5  1  2  0  0  0  0
  5  4  1  0  0  0  0
  6  8  2  0  0  0  0
  7 10  1  0  0  0  0
  7  9  2  0  0  0  0
  9  8  1  0  0  0  0
 10  6  1  0  0  0  0
 11 12  2  0  0  0  0
 11  1  1  0  0  0  0
 13 14  1  0  0  0  0
 14 15  1  0  0  0  0
 14 12  1  0  0  0  0
 16 17  2  0  0  0  0
 17  5  1  0  0  0  0
 18 20  1  0  0  0  0
 19 20  1  0  0  0  0
 20 16  1  0  0  0  0
 22 21  1  0  0  0  0
 23 22  1  0  0  0  0
 23 25  2  0  0  0  0
 24 23  1  0  0  0  0
M  END
>  <MODEL>
8

>  <REMARK>
 VINA RESULT:      -5.1      2.610      3.774
  Name = 
  8 active torsions:
  status: ('A' for Active; 'I' for Inactive)
    1  A    between atoms: C_2  and  C_5
    2  A    between atoms: C_3  and  N_23
    3  A    between atoms: C_4  and  C_21
    4  A    between atoms: C_6  and  C_11
    5  A    between atoms: C_7  and  C_24
    6  A    between atoms: C_8  and  C_9
    7  A    between atoms: C_8  and  C_21
    8  A    between atoms: C_18  and  N_25
                            x       y       z     vdW  Elec       q    Type
                         _______ _______ _______ _____ _____    ______ ____

>  <TORSDO>
F 8

$$$$
=
 OpenBabel11042418113D

 25 26  0  0  1  0  0  0  0  0999 V2000
  193.8640  175.7880  144.9120 C   0  0  0  0  0  0  0  0  0  0  0  0
  192.2480  175.9700  146.5170 C   0  0  0  0  0  0  0  0  0  0  0  0
  192.7990  176.7380  145.3560 C   0  0  2  0  0  3  0  0  0  0  0  0
  192.8320  174.8330  146.7010 N   0  0  0  0  0  0  0  0  0  0  0  0
  193.8410  174.7170  145.7050 C   0  0  0  0  0  0  0  0  0  0  0  0
  190.4470  177.8060  142.9110 C   0  0  0  0  0  3  0  0  0  0  0  0
  191.7620  176.9200  144.2890 C   0  0  0  0  0  0  0  0  0  0  0  0
  190.2940  176.4710  142.8100 N   0  0  0  0  0  2  0  0  0  0  0  0
  191.1190  175.9110  143.6750 N   0  0  0  0  0  0  0  0  0  0  0  0
  191.3710  178.1250  143.8400 N   0  0  0  0  0  0  0  0  0  0  0  0
  194.7770  176.0570  143.7860 C   0  0  0  0  0  3  0  0  0  0  0  0
  195.9700  176.5240  143.9640 N   0  0  0  0  0  0  0  0  0  0  0  0
  196.0670  176.7180  141.5370 C   0  0  0  0  0  1  0  0  0  0  0  0
  196.8500  176.7780  142.8360 C   0  0  0  0  0  3  0  0  0  0  0  0
  197.9410  175.7290  142.8060 C   0  0  0  0  0  1  0  0  0  0  0  0
  194.2590  172.3200  145.4870 C   0  0  0  0  0  3  0  0  0  0  0  0
  194.7340  173.5570  145.6010 C   0  0  0  0  0  3  0  0  0  0  0  0
  194.5410  169.8930  145.0580 C   0  0  0  0  0  1  0  0  0  0  0  0
  196.5570  171.2740  145.5970 C   0  0  0  0  0  1  0  0  0  0  0  0
  195.1200  171.1810  145.3850 N   0  0  0  0  0  0  0  0  0  0  0  0
  191.1280  176.4460  147.3780 C   0  0  0  0  0  2  0  0  0  0  0  0
  189.8670  175.6530  147.0860 C   0  0  0  0  0  2  0  0  0  0  0  0
  188.7830  176.5710  146.6460 C   0  0  0  0  0  0  0  0  0  0  0  0
  187.4400  176.1080  146.5810 N   0  0  0  0  0  1  0  0  0  0  0  0
  189.0490  177.7680  146.3600 O   0  0  0  0  0  0  0  0  0  0  0  0
  1  3  1  0  0  0  0
  1  5  2  0  0  0  0
  2  4  2  0  0  0  0
  2 21  1  0  0  0  0
  3  7  1  6  0  0  0
  3  2  1  0  0  0  0
  5  4  1  0  0  0  0
  6 10  2  0  0  0  0
  8  6  1  0  0  0  0
  8  9  1  0  0  0  0
  9  7  2  0  0  0  0
 10  7  1  0  0  0  0
 11 12  2  0  0  0  0
 11  1  1  0  0  0  0
 13 14  1  0  0  0  0
 14 12  1  0  0  0  0
 15 14  1  0  0  0  0
 16 17  2  0  0  0  0
 17  5  1  0  0  0  0
 18 20  1  0  0  0  0
 20 16  1  0  0  0  0
 20 19  1  0  0  0  0
 22 21  1  0  0  0  0
 23 22  1  0  0  0  0
 24 23  1  0  0  0  0
 25 23  2  0  0  0  0
M  END
>  <MODEL>
9

>  <REMARK>
 VINA RESULT:      -5.0      3.339      8.234
  Name = 
  8 active torsions:
  status: ('A' for Active; 'I' for Inactive)
    1  A    between atoms: C_2  and  C_5
    2  A    between atoms: C_3  and  N_23
    3  A    between atoms: C_4  and  C_21
    4  A    between atoms: C_6  and  C_11
    5  A    between atoms: C_7  and  C_24
    6  A    between atoms: C_8  and  C_9
    7  A    between atoms: C_8  and  C_21
    8  A    between atoms: C_18  and  N_25
                            x       y       z     vdW  Elec       q    Type
                         _______ _______ _______ _____ _____    ______ ____

>  <TORSDO>
F 8

$$$$
