=
 OpenBabel11042415223D

 47 50  0  0  1  0  0  0  0  0999 V2000
  192.4550  173.8960  145.2470 C   0  0  0  0  0  3  0  0  0  0  0  0
  192.4060  176.2360  143.5780 C   0  0  2  0  0  3  0  0  0  0  0  0
  192.6550  173.7480  143.9390 C   0  0  0  0  0  0  0  0  0  0  0  0
  192.8340  174.9100  143.1000 N   0  0  0  0  0  0  0  0  0  0  0  0
  192.7300  172.3710  143.3740 C   0  0  0  0  0  1  0  0  0  0  0  0
  192.4250  175.2410  145.8530 C   0  0  0  0  0  0  0  0  0  0  0  0
  192.4600  176.3310  145.0820 C   0  0  0  0  0  3  0  0  0  0  0  0
  190.0970  175.5280  142.9400 C   0  0  0  0  0  3  0  0  0  0  0  0
  188.7940  175.8110  142.5210 C   0  0  0  0  0  3  0  0  0  0  0  0
  188.4060  177.1290  142.2300 C   0  0  0  0  0  0  0  0  0  0  0  0
  189.3490  178.1630  142.3660 C   0  0  0  0  0  3  0  0  0  0  0  0
  191.0330  176.5590  143.0740 C   0  0  0  0  0  0  0  0  0  0  0  0
  190.6510  177.8800  142.7900 C   0  0  0  0  0  3  0  0  0  0  0  0
  186.0210  177.7410  142.7070 C   0  0  0  0  0  3  0  0  0  0  0  0
  183.7140  178.3590  143.1340 C   0  0  0  0  0  3  0  0  0  0  0  0
  182.4290  178.6260  142.6440 C   0  0  0  0  0  3  0  0  0  0  0  0
  182.1590  178.5590  141.2700 C   0  0  0  0  0  0  0  0  0  0  0  0
  187.0250  177.4130  141.7870 C   0  0  0  0  0  0  0  0  0  0  0  0
  184.7400  178.0250  142.2440 C   0  0  0  0  0  0  0  0  0  0  0  0
  184.4800  177.9720  140.8590 C   0  0  0  0  0  0  0  0  0  0  0  0
  183.1920  178.2340  140.3760 C   0  0  0  0  0  3  0  0  0  0  0  0
  185.4880  177.6540  140.0010 N   0  0  0  0  0  0  0  0  0  0  0  0
  186.7190  177.3910  140.4530 N   0  0  0  0  0  0  0  0  0  0  0  0
  180.8240  178.8100  140.8100 N   0  0  0  0  0  2  0  0  0  0  0  0
  180.3340  180.1300  140.4360 C   0  0  0  0  0  2  0  0  0  0  0  0
  178.9290  180.0210  139.8760 C   0  0  0  0  0  1  0  0  0  0  0  0
  194.2400  176.0200  141.4260 C   0  0  0  0  0  1  0  0  0  0  0  0
  193.4550  174.7670  141.7770 C   0  0  2  0  0  3  0  0  0  0  0  0
  192.4890  174.5260  140.7970 O   0  0  0  0  0  0  0  0  0  0  0  0
  193.1850  173.9940  139.7120 C   0  0  0  0  0  2  0  0  0  0  0  0
  192.3340  172.9280  139.0500 C   0  0  0  0  0  2  0  0  0  0  0  0
  191.1400  173.5600  138.3670 C   0  0  0  0  0  2  0  0  0  0  0  0
  189.8840  172.7540  138.6650 C   0  0  2  0  0  3  0  0  0  0  0  0
  189.3080  173.1620  140.0200 C   0  0  0  0  0  1  0  0  0  0  0  0
  190.1970  171.3660  138.6760 O   0  0  0  0  0  0  0  0  0  0  0  0
  189.8500  169.2650  137.7630 O   0  0  0  0  0  0  0  0  0  0  0  0
  189.8970  170.5190  137.6070 C   0  0  0  0  0  0  0  0  0  0  0  0
  189.6100  171.0930  136.2620 C   0  0  0  0  0  1  0  0  0  0  0  0
  192.4750  175.3950  147.3400 C   0  0  0  0  0  2  0  0  0  0  0  0
  191.2020  176.0490  147.8650 C   0  0  0  0  0  2  0  0  0  0  0  0
  189.9780  175.2470  147.4530 C   0  0  0  0  0  2  0  0  0  0  0  0
  189.0530  176.1080  146.6120 C   0  0  0  0  0  2  0  0  0  0  0  0
  187.7170  175.7800  146.8770 O   0  0  0  0  0  0  0  0  0  0  0  0
  187.8420  177.7260  145.7090 O   0  0  0  0  0  1  0  0  0  0  0  0
  186.9730  176.7770  146.2440 C   0  0  2  0  0  3  0  0  0  0  0  0
  186.0640  177.4450  147.2610 C   0  0  0  0  0  2  0  0  0  0  0  0
  186.6600  178.6100  147.7510 O   0  0  0  0  0  1  0  0  0  0  0  0
  1  6  1  0  0  0  0
  2 12  1  1  0  0  0
  2  7  1  0  0  0  0
  3  1  2  0  0  0  0
  4  2  1  0  0  0  0
  4  3  1  0  0  0  0
  5  3  1  0  0  0  0
  6 39  1  0  0  0  0
  7  6  2  0  0  0  0
  8 12  1  0  0  0  0
  9  8  2  0  0  0  0
 10 11  2  0  0  0  0
 10  9  1  0  0  0  0
 11 13  1  0  0  0  0
 13 12  2  0  0  0  0
 16 15  1  0  0  0  0
 17 16  2  0  0  0  0
 18 10  1  0  0  0  0
 18 14  2  0  0  0  0
 19 14  1  0  0  0  0
 19 15  2  0  0  0  0
 20 19  1  0  0  0  0
 21 20  2  0  0  0  0
 21 17  1  0  0  0  0
 22 23  2  0  0  0  0
 22 20  1  0  0  0  0
 23 18  1  0  0  0  0
 24 17  1  0  0  0  0
 25 24  1  0  0  0  0
 26 25  1  0  0  0  0
 28 27  1  6  0  0  0
 28  4  1  0  0  0  0
 29 28  1  0  0  0  0
 30 29  1  0  0  0  0
 31 30  1  0  0  0  0
 32 33  1  0  0  0  0
 32 31  1  0  0  0  0
 33 35  1  0  0  0  0
 33 34  1  1  0  0  0
 37 36  2  0  0  0  0
 37 35  1  0  0  0  0
 38 37  1  0  0  0  0
 39 40  1  0  0  0  0
 41 40  1  0  0  0  0
 42 43  1  0  0  0  0
 42 41  1  0  0  0  0
 45 44  1  1  0  0  0
 45 43  1  0  0  0  0
 45 46  1  0  0  0  0
 46 47  1  0  0  0  0
M  END
>  <MODEL>
1

>  <REMARK>
 VINA RESULT:      -6.3      0.000      0.000
  Name = 
  19 active torsions:
  status: ('A' for Active; 'I' for Inactive)
    1  A    between atoms: C_1  and  C_8
    2  A    between atoms: C_1  and  C_39
    3  A    between atoms: C_4  and  C_30
    4  A    between atoms: O_5  and  C_35
    5  A    between atoms: O_5  and  C_41
    6  A    between atoms: C_6  and  N_47
    7  A    between atoms: C_8  and  O_25
    8  A    between atoms: C_9  and  O_21
    9  A    between atoms: C_9  and  C_24
   10  A    between atoms: C_11  and  C_32
   11  A    between atoms: C_15  and  C_18
   12  A    between atoms: C_17  and  N_47
   13  A    between atoms: O_21  and  C_30
   14  A    between atoms: C_22  and  C_24
   15  A    between atoms: C_22  and  C_31
   16  A    between atoms: O_25  and  C_34
   17  A    between atoms: N_28  and  C_41
   18  A    between atoms: C_31  and  C_38
   19  A    between atoms: C_35  and  C_39
                            x       y       z     vdW  Elec       q    Type
                         _______ _______ _______ _____ _____    ______ ____

>  <TORSDO>
F 19

$$$$
=
 OpenBabel11042415223D

 47 50  0  0  1  0  0  0  0  0999 V2000
  191.5510  173.5110  145.1000 C   0  0  0  0  0  3  0  0  0  0  0  0
  191.4780  175.7080  143.2470 C   0  0  2  0  0  3  0  0  0  0  0  0
  191.5630  173.2430  143.7960 C   0  0  0  0  0  0  0  0  0  0  0  0
  191.7260  174.3130  142.8400 N   0  0  0  0  0  0  0  0  0  0  0  0
  191.4470  171.8250  143.3520 C   0  0  0  0  0  1  0  0  0  0  0  0
  191.7140  174.8950  145.5820 C   0  0  0  0  0  0  0  0  0  0  0  0
  191.7380  175.9140  144.7190 C   0  0  0  0  0  3  0  0  0  0  0  0
  189.8240  177.4590  142.5860 C   0  0  0  0  0  3  0  0  0  0  0  0
  188.5420  177.8590  142.2020 C   0  0  0  0  0  3  0  0  0  0  0  0
  187.4960  176.9250  142.1170 C   0  0  0  0  0  0  0  0  0  0  0  0
  187.7580  175.5790  142.4260 C   0  0  0  0  0  3  0  0  0  0  0  0
  190.0820  176.1190  142.8920 C   0  0  0  0  0  0  0  0  0  0  0  0
  189.0430  175.1780  142.8060 C   0  0  0  0  0  3  0  0  0  0  0  0
  185.2050  177.7900  142.6580 C   0  0  0  0  0  3  0  0  0  0  0  0
  182.9910  178.6520  143.1490 C   0  0  0  0  0  3  0  0  0  0  0  0
  181.7310  179.0620  142.6940 C   0  0  0  0  0  3  0  0  0  0  0  0
  181.4210  179.0370  141.3260 C   0  0  0  0  0  0  0  0  0  0  0  0
  186.1440  177.3620  141.7110 C   0  0  0  0  0  0  0  0  0  0  0  0
  183.9510  178.2160  142.2300 C   0  0  0  0  0  0  0  0  0  0  0  0
  183.6530  178.2030  140.8520 C   0  0  0  0  0  0  0  0  0  0  0  0
  182.3900  178.6080  140.4040 C   0  0  0  0  0  3  0  0  0  0  0  0
  184.5980  177.7850  139.9670 N   0  0  0  0  0  0  0  0  0  0  0  0
  185.8040  177.3840  140.3850 N   0  0  0  0  0  0  0  0  0  0  0  0
  180.1110  179.4360  140.9020 N   0  0  0  0  0  2  0  0  0  0  0  0
  179.8450  180.6420  140.1290 C   0  0  0  0  0  2  0  0  0  0  0  0
  178.6740  180.4090  139.1930 C   0  0  0  0  0  1  0  0  0  0  0  0
  193.2780  174.9410  141.0480 C   0  0  0  0  0  1  0  0  0  0  0  0
  192.1530  174.0100  141.4690 C   0  0  2  0  0  3  0  0  0  0  0  0
  191.0840  174.1300  140.5770 O   0  0  0  0  0  0  0  0  0  0  0  0
  191.0060  172.9000  139.9230 C   0  0  0  0  0  2  0  0  0  0  0  0
  189.5480  172.5190  139.7540 C   0  0  0  0  0  2  0  0  0  0  0  0
  188.7260  173.7390  139.3950 C   0  0  0  0  0  2  0  0  0  0  0  0
  188.8620  174.0370  137.9080 C   0  0  2  0  0  3  0  0  0  0  0  0
  187.7170  174.9390  137.4470 C   0  0  0  0  0  1  0  0  0  0  0  0
  188.8370  172.8190  137.1720 O   0  0  0  0  0  0  0  0  0  0  0  0
  190.9430  172.9640  136.2170 O   0  0  0  0  0  0  0  0  0  0  0  0
  189.7550  172.5350  136.1580 C   0  0  0  0  0  0  0  0  0  0  0  0
  189.3420  171.7010  134.9950 C   0  0  0  0  0  1  0  0  0  0  0  0
  191.9730  175.1590  147.0320 C   0  0  0  0  0  2  0  0  0  0  0  0
  190.7000  175.6080  147.7410 C   0  0  0  0  0  2  0  0  0  0  0  0
  189.5210  174.7430  147.3250 C   0  0  0  0  0  2  0  0  0  0  0  0
  188.2710  175.5950  147.2020 C   0  0  0  0  0  2  0  0  0  0  0  0
  188.2700  176.2730  145.9750 O   0  0  0  0  0  0  0  0  0  0  0  0
  187.6440  177.9910  147.3240 O   0  0  0  0  0  1  0  0  0  0  0  0
  187.3530  177.3110  146.1440 C   0  0  2  0  0  3  0  0  0  0  0  0
  185.9510  176.7330  146.2280 C   0  0  0  0  0  2  0  0  0  0  0  0
  185.0010  177.7340  146.0150 O   0  0  0  0  0  1  0  0  0  0  0  0
  1  6  1  0  0  0  0
  2 12  1  1  0  0  0
  2  7  1  0  0  0  0
  3  1  2  0  0  0  0
  4  2  1  0  0  0  0
  4  3  1  0  0  0  0
  5  3  1  0  0  0  0
  6 39  1  0  0  0  0
  7  6  2  0  0  0  0
  8 12  1  0  0  0  0
  9  8  2  0  0  0  0
 10  9  1  0  0  0  0
 10 11  2  0  0  0  0
 11 13  1  0  0  0  0
 13 12  2  0  0  0  0
 16 15  1  0  0  0  0
 17 16  2  0  0  0  0
 18 10  1  0  0  0  0
 18 14  2  0  0  0  0
 19 14  1  0  0  0  0
 19 15  2  0  0  0  0
 20 19  1  0  0  0  0
 21 20  2  0  0  0  0
 21 17  1  0  0  0  0
 22 23  2  0  0  0  0
 22 20  1  0  0  0  0
 23 18  1  0  0  0  0
 24 17  1  0  0  0  0
 25 24  1  0  0  0  0
 26 25  1  0  0  0  0
 28 27  1  6  0  0  0
 28  4  1  0  0  0  0
 29 28  1  0  0  0  0
 30 29  1  0  0  0  0
 31 30  1  0  0  0  0
 32 31  1  0  0  0  0
 33 34  1  6  0  0  0
 33 32  1  0  0  0  0
 35 33  1  0  0  0  0
 37 36  2  0  0  0  0
 37 35  1  0  0  0  0
 38 37  1  0  0  0  0
 39 40  1  0  0  0  0
 41 40  1  0  0  0  0
 42 41  1  0  0  0  0
 43 45  1  0  0  0  0
 43 42  1  0  0  0  0
 45 46  1  0  0  0  0
 45 44  1  1  0  0  0
 47 46  1  0  0  0  0
M  END
>  <MODEL>
2

>  <REMARK>
 VINA RESULT:      -6.1      1.283      1.716
  Name = 
  19 active torsions:
  status: ('A' for Active; 'I' for Inactive)
    1  A    between atoms: C_1  and  C_8
    2  A    between atoms: C_1  and  C_39
    3  A    between atoms: C_4  and  C_30
    4  A    between atoms: O_5  and  C_35
    5  A    between atoms: O_5  and  C_41
    6  A    between atoms: C_6  and  N_47
    7  A    between atoms: C_8  and  O_25
    8  A    between atoms: C_9  and  O_21
    9  A    between atoms: C_9  and  C_24
   10  A    between atoms: C_11  and  C_32
   11  A    between atoms: C_15  and  C_18
   12  A    between atoms: C_17  and  N_47
   13  A    between atoms: O_21  and  C_30
   14  A    between atoms: C_22  and  C_24
   15  A    between atoms: C_22  and  C_31
   16  A    between atoms: O_25  and  C_34
   17  A    between atoms: N_28  and  C_41
   18  A    between atoms: C_31  and  C_38
   19  A    between atoms: C_35  and  C_39
                            x       y       z     vdW  Elec       q    Type
                         _______ _______ _______ _____ _____    ______ ____

>  <TORSDO>
F 19

$$$$
=
 OpenBabel11042415223D

 47 50  0  0  1  0  0  0  0  0999 V2000
  192.5470  173.8730  145.3250 C   0  0  0  0  0  3  0  0  0  0  0  0
  192.3540  176.2160  143.6700 C   0  0  2  0  0  3  0  0  0  0  0  0
  192.6970  173.7360  144.0080 C   0  0  0  0  0  0  0  0  0  0  0  0
  192.8040  174.9060  143.1680 N   0  0  0  0  0  0  0  0  0  0  0  0
  192.7920  172.3640  143.4340 C   0  0  0  0  0  1  0  0  0  0  0  0
  192.5000  175.2130  145.9370 C   0  0  0  0  0  0  0  0  0  0  0  0
  192.4680  176.3070  145.1710 C   0  0  0  0  0  3  0  0  0  0  0  0
  190.6160  177.7880  142.8040 C   0  0  0  0  0  3  0  0  0  0  0  0
  189.3290  178.0630  142.3370 C   0  0  0  0  0  3  0  0  0  0  0  0
  188.3550  177.0520  142.2830 C   0  0  0  0  0  0  0  0  0  0  0  0
  188.6940  175.7560  142.7090 C   0  0  0  0  0  3  0  0  0  0  0  0
  190.9510  176.4970  143.2260 C   0  0  0  0  0  0  0  0  0  0  0  0
  189.9850  175.4800  143.1720 C   0  0  0  0  0  3  0  0  0  0  0  0
  185.9730  177.7370  142.6660 C   0  0  0  0  0  3  0  0  0  0  0  0
  183.6710  178.4240  143.0030 C   0  0  0  0  0  3  0  0  0  0  0  0
  182.4080  178.7090  142.4650 C   0  0  0  0  0  3  0  0  0  0  0  0
  182.1800  178.6100  141.0850 C   0  0  0  0  0  0  0  0  0  0  0  0
  186.9960  177.3580  141.7880 C   0  0  0  0  0  0  0  0  0  0  0  0
  184.7140  178.0390  142.1550 C   0  0  0  0  0  0  0  0  0  0  0  0
  184.4970  177.9530  140.7650 C   0  0  0  0  0  0  0  0  0  0  0  0
  183.2320  178.2330  140.2330 C   0  0  0  0  0  3  0  0  0  0  0  0
  185.5220  177.5860  139.9490 N   0  0  0  0  0  0  0  0  0  0  0  0
  186.7320  177.3050  140.4470 N   0  0  0  0  0  0  0  0  0  0  0  0
  180.8670  178.8810  140.5760 N   0  0  0  0  0  2  0  0  0  0  0  0
  179.8020  177.8880  140.5200 C   0  0  0  0  0  2  0  0  0  0  0  0
  178.7810  178.2840  139.4710 C   0  0  0  0  0  1  0  0  0  0  0  0
  194.1060  176.0650  141.4440 C   0  0  0  0  0  1  0  0  0  0  0  0
  193.3730  174.7880  141.8200 C   0  0  2  0  0  3  0  0  0  0  0  0
  192.3740  174.5230  140.8790 O   0  0  0  0  0  0  0  0  0  0  0  0
  193.0320  174.4430  139.6510 C   0  0  0  0  0  2  0  0  0  0  0  0
  192.3420  173.4060  138.7860 C   0  0  0  0  0  2  0  0  0  0  0  0
  192.9090  172.0300  139.0660 C   0  0  0  0  0  2  0  0  0  0  0  0
  191.7790  171.0540  139.3600 C   0  0  2  0  0  3  0  0  0  0  0  0
  191.2420  170.4630  138.0560 C   0  0  0  0  0  1  0  0  0  0  0  0
  190.7300  171.7280  140.0460 O   0  0  0  0  0  0  0  0  0  0  0  0
  190.6000  170.1840  141.7690 O   0  0  0  0  0  0  0  0  0  0  0  0
  190.2280  171.2850  141.2730 C   0  0  0  0  0  0  0  0  0  0  0  0
  189.2500  172.1240  142.0210 C   0  0  0  0  0  1  0  0  0  0  0  0
  192.6070  175.3640  147.4220 C   0  0  0  0  0  2  0  0  0  0  0  0
  191.3240  175.9430  148.0070 C   0  0  0  0  0  2  0  0  0  0  0  0
  190.1060  175.2440  147.4240 C   0  0  0  0  0  2  0  0  0  0  0  0
  189.1080  176.2730  146.9240 C   0  0  0  0  0  2  0  0  0  0  0  0
  188.0020  175.6310  146.3500 O   0  0  0  0  0  0  0  0  0  0  0  0
  187.8250  177.7810  145.6350 O   0  0  0  0  0  1  0  0  0  0  0  0
  187.1090  176.6610  146.0510 C   0  0  2  0  0  3  0  0  0  0  0  0
  186.3110  177.0080  147.2970 C   0  0  0  0  0  2  0  0  0  0  0  0
  185.1000  177.6070  146.9430 O   0  0  0  0  0  1  0  0  0  0  0  0
  1  6  1  0  0  0  0
  2 12  1  1  0  0  0
  2  7  1  0  0  0  0
  3  1  2  0  0  0  0
  4  2  1  0  0  0  0
  4  3  1  0  0  0  0
  5  3  1  0  0  0  0
  6 39  1  0  0  0  0
  7  6  2  0  0  0  0
  8 12  1  0  0  0  0
  9  8  2  0  0  0  0
 10  9  1  0  0  0  0
 10 11  2  0  0  0  0
 11 13  1  0  0  0  0
 13 12  2  0  0  0  0
 16 15  1  0  0  0  0
 17 16  2  0  0  0  0
 18 10  1  0  0  0  0
 18 14  2  0  0  0  0
 19 14  1  0  0  0  0
 19 15  2  0  0  0  0
 20 19  1  0  0  0  0
 21 20  2  0  0  0  0
 21 17  1  0  0  0  0
 22 23  2  0  0  0  0
 22 20  1  0  0  0  0
 23 18  1  0  0  0  0
 24 17  1  0  0  0  0
 25 24  1  0  0  0  0
 26 25  1  0  0  0  0
 28 27  1  6  0  0  0
 28  4  1  0  0  0  0
 29 28  1  0  0  0  0
 30 29  1  0  0  0  0
 31 32  1  0  0  0  0
 31 30  1  0  0  0  0
 32 33  1  0  0  0  0
 33 34  1  6  0  0  0
 33 35  1  0  0  0  0
 35 37  1  0  0  0  0
 37 36  2  0  0  0  0
 37 38  1  0  0  0  0
 39 40  1  0  0  0  0
 41 40  1  0  0  0  0
 42 41  1  0  0  0  0
 43 42  1  0  0  0  0
 45 44  1  1  0  0  0
 45 43  1  0  0  0  0
 45 46  1  0  0  0  0
 47 46  1  0  0  0  0
M  END
>  <MODEL>
3

>  <REMARK>
 VINA RESULT:      -6.1      1.036      1.688
  Name = 
  19 active torsions:
  status: ('A' for Active; 'I' for Inactive)
    1  A    between atoms: C_1  and  C_8
    2  A    between atoms: C_1  and  C_39
    3  A    between atoms: C_4  and  C_30
    4  A    between atoms: O_5  and  C_35
    5  A    between atoms: O_5  and  C_41
    6  A    between atoms: C_6  and  N_47
    7  A    between atoms: C_8  and  O_25
    8  A    between atoms: C_9  and  O_21
    9  A    between atoms: C_9  and  C_24
   10  A    between atoms: C_11  and  C_32
   11  A    between atoms: C_15  and  C_18
   12  A    between atoms: C_17  and  N_47
   13  A    between atoms: O_21  and  C_30
   14  A    between atoms: C_22  and  C_24
   15  A    between atoms: C_22  and  C_31
   16  A    between atoms: O_25  and  C_34
   17  A    between atoms: N_28  and  C_41
   18  A    between atoms: C_31  and  C_38
   19  A    between atoms: C_35  and  C_39
                            x       y       z     vdW  Elec       q    Type
                         _______ _______ _______ _____ _____    ______ ____

>  <TORSDO>
F 19

$$$$
=
 OpenBabel11042415223D

 47 50  0  0  1  0  0  0  0  0999 V2000
  187.4670  176.1570  146.6370 C   0  0  0  0  0  3  0  0  0  0  0  0
  189.6650  176.8390  144.9140 C   0  0  2  0  0  3  0  0  0  0  0  0
  188.6400  175.5580  146.8350 C   0  0  0  0  0  0  0  0  0  0  0  0
  189.8120  176.0120  146.1260 N   0  0  0  0  0  0  0  0  0  0  0  0
  188.7210  174.4450  147.8250 C   0  0  0  0  0  1  0  0  0  0  0  0
  187.3550  177.2930  145.7050 C   0  0  0  0  0  0  0  0  0  0  0  0
  188.3940  177.6490  144.9430 C   0  0  0  0  0  3  0  0  0  0  0  0
  190.9480  175.8150  143.0310 C   0  0  0  0  0  3  0  0  0  0  0  0
  191.0400  174.9830  141.9130 C   0  0  0  0  0  3  0  0  0  0  0  0
  189.9070  174.3080  141.4290 C   0  0  0  0  0  0  0  0  0  0  0  0
  188.6770  174.4820  142.0870 C   0  0  0  0  0  3  0  0  0  0  0  0
  189.7230  175.9850  143.6850 C   0  0  0  0  0  0  0  0  0  0  0  0
  188.5870  175.3100  143.2100 C   0  0  0  0  0  3  0  0  0  0  0  0
  191.1920  173.3890  139.4810 C   0  0  0  0  0  3  0  0  0  0  0  0
  192.4200  172.4610  137.6060 C   0  0  0  0  0  3  0  0  0  0  0  0
  192.4600  171.6020  136.4990 C   0  0  0  0  0  3  0  0  0  0  0  0
  191.3490  170.8130  136.1660 C   0  0  0  0  0  0  0  0  0  0  0  0
  190.0170  173.4320  140.2430 C   0  0  0  0  0  0  0  0  0  0  0  0
  191.2610  172.5320  138.3860 C   0  0  0  0  0  0  0  0  0  0  0  0
  190.1470  171.7310  138.0670 C   0  0  0  0  0  0  0  0  0  0  0  0
  190.1900  170.8780  136.9570 C   0  0  0  0  0  3  0  0  0  0  0  0
  189.0290  171.8020  138.8390 N   0  0  0  0  0  0  0  0  0  0  0  0
  188.9710  172.6210  139.8950 N   0  0  0  0  0  0  0  0  0  0  0  0
  191.4180  169.9680  135.0090 N   0  0  0  0  0  2  0  0  0  0  0  0
  191.6610  168.5330  135.0720 C   0  0  0  0  0  2  0  0  0  0  0  0
  192.5960  168.2160  136.2230 C   0  0  0  0  0  1  0  0  0  0  0  0
  192.1210  176.8010  146.3680 C   0  0  0  0  0  1  0  0  0  0  0  0
  191.1490  175.6610  146.6220 C   0  0  2  0  0  3  0  0  0  0  0  0
  191.6180  174.4970  146.0080 O   0  0  0  0  0  0  0  0  0  0  0  0
  193.0080  174.6070  146.0150 C   0  0  0  0  0  2  0  0  0  0  0  0
  193.5900  173.6030  145.0390 C   0  0  0  0  0  2  0  0  0  0  0  0
  192.5250  172.6210  144.6000 C   0  0  0  0  0  2  0  0  0  0  0  0
  192.9480  171.9420  143.3050 C   0  0  2  0  0  3  0  0  0  0  0  0
  191.7360  171.3050  142.6260 C   0  0  0  0  0  1  0  0  0  0  0  0
  193.9200  170.9420  143.5840 O   0  0  0  0  0  0  0  0  0  0  0  0
  196.1970  171.2400  143.8990 O   0  0  0  0  0  0  0  0  0  0  0  0
  195.2330  171.0160  143.1120 C   0  0  0  0  0  0  0  0  0  0  0  0
  195.5130  170.8140  141.6620 C   0  0  0  0  0  1  0  0  0  0  0  0
  186.1160  178.1320  145.6890 C   0  0  0  0  0  2  0  0  0  0  0  0
  186.1580  179.1480  144.5520 C   0  0  0  0  0  2  0  0  0  0  0  0
  184.7560  179.4490  144.0490 C   0  0  0  0  0  2  0  0  0  0  0  0
  184.2660  178.3130  143.1680 C   0  0  0  0  0  2  0  0  0  0  0  0
  185.3360  177.7710  142.4440 O   0  0  0  0  0  0  0  0  0  0  0  0
  183.9560  178.0480  140.6600 O   0  0  0  0  0  1  0  0  0  0  0  0
  185.2220  178.3270  141.1700 C   0  0  2  0  0  3  0  0  0  0  0  0
  186.2760  177.7170  140.2620 C   0  0  0  0  0  2  0  0  0  0  0  0
  187.5280  177.7590  140.8790 O   0  0  0  0  0  1  0  0  0  0  0  0
  1  3  2  0  0  0  0
  2 12  1  6  0  0  0
  2  7  1  0  0  0  0
  2  4  1  0  0  0  0
  3  5  1  0  0  0  0
  4 28  1  0  0  0  0
  4  3  1  0  0  0  0
  6  1  1  0  0  0  0
  7  6  2  0  0  0  0
  8 12  1  0  0  0  0
  9  8  2  0  0  0  0
 10  9  1  0  0  0  0
 10 11  2  0  0  0  0
 11 13  1  0  0  0  0
 13 12  2  0  0  0  0
 14 18  1  0  0  0  0
 15 19  1  0  0  0  0
 16 15  2  0  0  0  0
 17 16  1  0  0  0  0
 17 21  2  0  0  0  0
 18 10  1  0  0  0  0
 19 14  2  0  0  0  0
 20 19  1  0  0  0  0
 20 22  2  0  0  0  0
 21 20  1  0  0  0  0
 22 23  1  0  0  0  0
 23 18  2  0  0  0  0
 24 25  1  0  0  0  0
 24 17  1  0  0  0  0
 25 26  1  0  0  0  0
 28 27  1  6  0  0  0
 29 30  1  0  0  0  0
 29 28  1  0  0  0  0
 31 30  1  0  0  0  0
 32 31  1  0  0  0  0
 33 34  1  1  0  0  0
 33 35  1  0  0  0  0
 33 32  1  0  0  0  0
 37 35  1  0  0  0  0
 37 36  2  0  0  0  0
 38 37  1  0  0  0  0
 39  6  1  0  0  0  0
 40 39  1  0  0  0  0
 41 40  1  0  0  0  0
 42 41  1  0  0  0  0
 43 42  1  0  0  0  0
 45 44  1  6  0  0  0
 45 43  1  0  0  0  0
 46 47  1  0  0  0  0
 46 45  1  0  0  0  0
M  END
>  <MODEL>
4

>  <REMARK>
 VINA RESULT:      -5.9      3.353      7.865
  Name = 
  19 active torsions:
  status: ('A' for Active; 'I' for Inactive)
    1  A    between atoms: C_1  and  C_8
    2  A    between atoms: C_1  and  C_39
    3  A    between atoms: C_4  and  C_30
    4  A    between atoms: O_5  and  C_35
    5  A    between atoms: O_5  and  C_41
    6  A    between atoms: C_6  and  N_47
    7  A    between atoms: C_8  and  O_25
    8  A    between atoms: C_9  and  O_21
    9  A    between atoms: C_9  and  C_24
   10  A    between atoms: C_11  and  C_32
   11  A    between atoms: C_15  and  C_18
   12  A    between atoms: C_17  and  N_47
   13  A    between atoms: O_21  and  C_30
   14  A    between atoms: C_22  and  C_24
   15  A    between atoms: C_22  and  C_31
   16  A    between atoms: O_25  and  C_34
   17  A    between atoms: N_28  and  C_41
   18  A    between atoms: C_31  and  C_38
   19  A    between atoms: C_35  and  C_39
                            x       y       z     vdW  Elec       q    Type
                         _______ _______ _______ _____ _____    ______ ____

>  <TORSDO>
F 19

$$$$
=
 OpenBabel11042415223D

 47 50  0  0  1  0  0  0  0  0999 V2000
  190.5250  174.6630  145.1450 C   0  0  0  0  0  3  0  0  0  0  0  0
  190.2220  176.3180  142.8140 C   0  0  2  0  0  3  0  0  0  0  0  0
  190.3550  174.0720  143.9640 C   0  0  0  0  0  0  0  0  0  0  0  0
  190.3970  174.8560  142.7520 N   0  0  0  0  0  0  0  0  0  0  0  0
  190.1640  172.5940  143.9200 C   0  0  0  0  0  1  0  0  0  0  0  0
  190.7670  176.1150  145.2280 C   0  0  0  0  0  0  0  0  0  0  0  0
  190.6830  176.8790  144.1350 C   0  0  0  0  0  3  0  0  0  0  0  0
  188.5160  177.7210  141.6460 C   0  0  0  0  0  3  0  0  0  0  0  0
  187.1930  178.0520  141.3430 C   0  0  0  0  0  3  0  0  0  0  0  0
  186.1270  177.3550  141.9360 C   0  0  0  0  0  0  0  0  0  0  0  0
  186.4100  176.3190  142.8430 C   0  0  0  0  0  3  0  0  0  0  0  0
  188.7950  176.6880  142.5480 C   0  0  0  0  0  0  0  0  0  0  0  0
  187.7350  175.9850  143.1420 C   0  0  0  0  0  3  0  0  0  0  0  0
  183.8650  178.2230  142.5840 C   0  0  0  0  0  3  0  0  0  0  0  0
  181.6760  179.0850  143.1740 C   0  0  0  0  0  3  0  0  0  0  0  0
  180.3690  179.4170  142.7920 C   0  0  0  0  0  3  0  0  0  0  0  0
  179.9440  179.2380  141.4670 C   0  0  0  0  0  0  0  0  0  0  0  0
  184.7320  177.7170  141.6070 C   0  0  0  0  0  0  0  0  0  0  0  0
  182.5670  178.5730  142.2260 C   0  0  0  0  0  0  0  0  0  0  0  0
  182.1520  178.4070  140.8880 C   0  0  0  0  0  0  0  0  0  0  0  0
  180.8430  178.7340  140.5130 C   0  0  0  0  0  3  0  0  0  0  0  0
  183.0310  177.9170  139.9720 N   0  0  0  0  0  0  0  0  0  0  0  0
  184.2800  177.5900  140.3220 N   0  0  0  0  0  0  0  0  0  0  0  0
  178.5910  179.5610  141.1210 N   0  0  0  0  0  2  0  0  0  0  0  0
  178.2260  180.4050  139.9900 C   0  0  0  0  0  2  0  0  0  0  0  0
  178.9550  181.7320  140.0780 C   0  0  0  0  0  1  0  0  0  0  0  0
  189.4480  173.3050  141.1060 C   0  0  0  0  0  1  0  0  0  0  0  0
  190.6280  174.1940  141.4610 C   0  0  2  0  0  3  0  0  0  0  0  0
  191.7990  173.4330  141.4950 O   0  0  0  0  0  0  0  0  0  0  0  0
  192.8010  174.2700  141.0040 C   0  0  0  0  0  2  0  0  0  0  0  0
  194.0350  174.1300  141.8740 C   0  0  0  0  0  2  0  0  0  0  0  0
  193.8040  174.7840  143.2200 C   0  0  0  0  0  2  0  0  0  0  0  0
  194.6710  174.1150  144.2780 C   0  0  2  0  0  3  0  0  0  0  0  0
  193.8590  173.0660  145.0360 C   0  0  0  0  0  1  0  0  0  0  0  0
  195.1570  175.0940  145.1880 O   0  0  0  0  0  0  0  0  0  0  0  0
  196.0910  176.7700  143.8880 O   0  0  0  0  0  0  0  0  0  0  0  0
  195.3200  176.4360  144.8330 C   0  0  0  0  0  0  0  0  0  0  0  0
  194.5670  177.4950  145.5620 C   0  0  0  0  0  1  0  0  0  0  0  0
  191.2250  176.7270  146.5140 C   0  0  0  0  0  2  0  0  0  0  0  0
  190.1270  176.6660  147.5700 C   0  0  0  0  0  2  0  0  0  0  0  0
  189.0100  177.6430  147.2390 C   0  0  0  0  0  2  0  0  0  0  0  0
  187.7470  176.8820  146.8770 C   0  0  0  0  0  2  0  0  0  0  0  0
  186.7830  177.7630  146.3700 O   0  0  0  0  0  0  0  0  0  0  0  0
  184.9310  176.4460  146.3990 O   0  0  0  0  0  1  0  0  0  0  0  0
  185.6160  177.4560  147.0710 C   0  0  2  0  0  3  0  0  0  0  0  0
  184.7380  178.6940  147.1460 C   0  0  0  0  0  2  0  0  0  0  0  0
  183.7740  178.6650  146.1350 O   0  0  0  0  0  1  0  0  0  0  0  0
  1  6  1  0  0  0  0
  2 12  1  1  0  0  0
  2  7  1  0  0  0  0
  3  1  2  0  0  0  0
  4  2  1  0  0  0  0
  4  3  1  0  0  0  0
  5  3  1  0  0  0  0
  6 39  1  0  0  0  0
  7  6  2  0  0  0  0
  8 12  1  0  0  0  0
  9  8  2  0  0  0  0
  9 10  1  0  0  0  0
 10 11  2  0  0  0  0
 11 13  1  0  0  0  0
 12 13  2  0  0  0  0
 16 15  1  0  0  0  0
 17 16  2  0  0  0  0
 18 10  1  0  0  0  0
 18 14  2  0  0  0  0
 19 14  1  0  0  0  0
 19 15  2  0  0  0  0
 20 19  1  0  0  0  0
 21 20  2  0  0  0  0
 21 17  1  0  0  0  0
 22 23  2  0  0  0  0
 22 20  1  0  0  0  0
 23 18  1  0  0  0  0
 24 17  1  0  0  0  0
 25 26  1  0  0  0  0
 25 24  1  0  0  0  0
 28 27  1  1  0  0  0
 28 29  1  0  0  0  0
 28  4  1  0  0  0  0
 30 29  1  0  0  0  0
 30 31  1  0  0  0  0
 31 32  1  0  0  0  0
 32 33  1  0  0  0  0
 33 34  1  1  0  0  0
 33 35  1  0  0  0  0
 36 37  2  0  0  0  0
 37 35  1  0  0  0  0
 37 38  1  0  0  0  0
 39 40  1  0  0  0  0
 41 40  1  0  0  0  0
 42 41  1  0  0  0  0
 43 42  1  0  0  0  0
 43 45  1  0  0  0  0
 45 44  1  6  0  0  0
 45 46  1  0  0  0  0
 47 46  1  0  0  0  0
M  END
>  <MODEL>
5

>  <REMARK>
 VINA RESULT:      -5.9      2.090      4.317
  Name = 
  19 active torsions:
  status: ('A' for Active; 'I' for Inactive)
    1  A    between atoms: C_1  and  C_8
    2  A    between atoms: C_1  and  C_39
    3  A    between atoms: C_4  and  C_30
    4  A    between atoms: O_5  and  C_35
    5  A    between atoms: O_5  and  C_41
    6  A    between atoms: C_6  and  N_47
    7  A    between atoms: C_8  and  O_25
    8  A    between atoms: C_9  and  O_21
    9  A    between atoms: C_9  and  C_24
   10  A    between atoms: C_11  and  C_32
   11  A    between atoms: C_15  and  C_18
   12  A    between atoms: C_17  and  N_47
   13  A    between atoms: O_21  and  C_30
   14  A    between atoms: C_22  and  C_24
   15  A    between atoms: C_22  and  C_31
   16  A    between atoms: O_25  and  C_34
   17  A    between atoms: N_28  and  C_41
   18  A    between atoms: C_31  and  C_38
   19  A    between atoms: C_35  and  C_39
                            x       y       z     vdW  Elec       q    Type
                         _______ _______ _______ _____ _____    ______ ____

>  <TORSDO>
F 19

$$$$
=
 OpenBabel11042415223D

 47 50  0  0  1  0  0  0  0  0999 V2000
  195.1190  170.1490  144.9610 C   0  0  0  0  0  3  0  0  0  0  0  0
  194.5040  171.2110  142.3610 C   0  0  2  0  0  3  0  0  0  0  0  0
  194.1800  169.5460  144.2330 C   0  0  0  0  0  0  0  0  0  0  0  0
  193.9810  169.9240  142.8540 N   0  0  0  0  0  0  0  0  0  0  0  0
  193.3760  168.4550  144.8560 C   0  0  0  0  0  1  0  0  0  0  0  0
  195.9690  171.1960  144.3660 C   0  0  0  0  0  0  0  0  0  0  0  0
  195.7200  171.6520  143.1360 C   0  0  0  0  0  3  0  0  0  0  0  0
  192.4720  172.2130  143.4140 C   0  0  0  0  0  3  0  0  0  0  0  0
  191.4970  173.2100  143.5050 C   0  0  0  0  0  3  0  0  0  0  0  0
  191.4730  174.2730  142.5870 C   0  0  0  0  0  0  0  0  0  0  0  0
  192.4440  174.3190  141.5710 C   0  0  0  0  0  3  0  0  0  0  0  0
  193.4380  172.2620  142.4030 C   0  0  0  0  0  0  0  0  0  0  0  0
  193.4220  173.3240  141.4840 C   0  0  0  0  0  3  0  0  0  0  0  0
  189.0730  174.9930  142.6990 C   0  0  0  0  0  3  0  0  0  0  0  0
  186.7620  175.7170  142.8380 C   0  0  0  0  0  3  0  0  0  0  0  0
  185.8310  176.7590  142.9520 C   0  0  0  0  0  3  0  0  0  0  0  0
  186.2570  178.0910  143.0520 C   0  0  0  0  0  0  0  0  0  0  0  0
  190.4350  175.3200  142.6940 C   0  0  0  0  0  0  0  0  0  0  0  0
  188.1290  176.0080  142.8260 C   0  0  0  0  0  0  0  0  0  0  0  0
  188.5660  177.3440  142.9430 C   0  0  0  0  0  0  0  0  0  0  0  0
  187.6320  178.3810  143.0500 C   0  0  0  0  0  3  0  0  0  0  0  0
  189.9000  177.6140  142.9390 N   0  0  0  0  0  0  0  0  0  0  0  0
  190.8010  176.6320  142.8250 N   0  0  0  0  0  0  0  0  0  0  0  0
  185.2740  179.1310  143.1370 N   0  0  0  0  0  2  0  0  0  0  0  0
  184.1190  179.0790  144.0240 C   0  0  0  0  0  2  0  0  0  0  0  0
  184.5790  179.0140  145.4680 C   0  0  0  0  0  1  0  0  0  0  0  0
  193.8650  169.1030  140.5460 C   0  0  0  0  0  1  0  0  0  0  0  0
  193.2710  169.0180  141.9420 C   0  0  2  0  0  3  0  0  0  0  0  0
  191.9090  169.3280  141.8950 O   0  0  0  0  0  0  0  0  0  0  0  0
  191.6250  169.5470  140.5460 C   0  0  0  0  0  2  0  0  0  0  0  0
  190.6760  170.7230  140.4250 C   0  0  0  0  0  2  0  0  0  0  0  0
  191.0980  171.6210  139.2810 C   0  0  0  0  0  2  0  0  0  0  0  0
  190.1220  172.7810  139.1460 C   0  0  2  0  0  3  0  0  0  0  0  0
  188.9280  172.5750  140.0770 C   0  0  0  0  0  1  0  0  0  0  0  0
  189.6690  172.8710  137.8000 O   0  0  0  0  0  0  0  0  0  0  0  0
  189.0680  174.6000  136.3790 O   0  0  0  0  0  0  0  0  0  0  0  0
  189.9780  173.9550  136.9730 C   0  0  0  0  0  0  0  0  0  0  0  0
  191.3970  174.3730  136.7960 C   0  0  0  0  0  1  0  0  0  0  0  0
  197.1880  171.6740  145.0900 C   0  0  0  0  0  2  0  0  0  0  0  0
  196.8170  172.6530  146.1980 C   0  0  0  0  0  2  0  0  0  0  0  0
  196.7950  174.0780  145.6700 C   0  0  0  0  0  2  0  0  0  0  0  0
  195.4140  174.6800  145.8610 C   0  0  0  0  0  2  0  0  0  0  0  0
  194.7140  174.6750  144.6480 O   0  0  0  0  0  0  0  0  0  0  0  0
  195.3480  176.8140  144.2140 O   0  0  0  0  0  1  0  0  0  0  0  0
  194.2630  175.9870  144.4920 C   0  0  2  0  0  3  0  0  0  0  0  0
  193.5990  176.4440  145.7790 C   0  0  0  0  0  2  0  0  0  0  0  0
  192.2500  176.0800  145.7830 O   0  0  0  0  0  1  0  0  0  0  0  0
  2 12  1  1  0  0  0
  2  4  1  0  0  0  0
  2  7  1  0  0  0  0
  3  5  1  0  0  0  0
  3  1  2  0  0  0  0
  4  3  1  0  0  0  0
  6  1  1  0  0  0  0
  6 39  1  0  0  0  0
  7  6  2  0  0  0  0
  8  9  1  0  0  0  0
 10 18  1  0  0  0  0
 10  9  2  0  0  0  0
 11 10  1  0  0  0  0
 12  8  2  0  0  0  0
 13 11  2  0  0  0  0
 13 12  1  0  0  0  0
 14 19  1  0  0  0  0
 15 16  1  0  0  0  0
 16 17  2  0  0  0  0
 17 24  1  0  0  0  0
 18 14  2  0  0  0  0
 18 23  1  0  0  0  0
 19 15  2  0  0  0  0
 19 20  1  0  0  0  0
 20 21  2  0  0  0  0
 21 17  1  0  0  0  0
 22 20  1  0  0  0  0
 23 22  2  0  0  0  0
 24 25  1  0  0  0  0
 25 26  1  0  0  0  0
 28 27  1  6  0  0  0
 28  4  1  0  0  0  0
 29 28  1  0  0  0  0
 30 29  1  0  0  0  0
 31 30  1  0  0  0  0
 32 31  1  0  0  0  0
 33 32  1  0  0  0  0
 33 34  1  1  0  0  0
 35 33  1  0  0  0  0
 36 37  2  0  0  0  0
 37 35  1  0  0  0  0
 38 37  1  0  0  0  0
 39 40  1  0  0  0  0
 41 42  1  0  0  0  0
 41 40  1  0  0  0  0
 43 42  1  0  0  0  0
 45 44  1  1  0  0  0
 45 43  1  0  0  0  0
 45 46  1  0  0  0  0
 46 47  1  0  0  0  0
M  END
>  <MODEL>
6

>  <REMARK>
 VINA RESULT:      -5.8      2.996      5.249
  Name = 
  19 active torsions:
  status: ('A' for Active; 'I' for Inactive)
    1  A    between atoms: C_1  and  C_8
    2  A    between atoms: C_1  and  C_39
    3  A    between atoms: C_4  and  C_30
    4  A    between atoms: O_5  and  C_35
    5  A    between atoms: O_5  and  C_41
    6  A    between atoms: C_6  and  N_47
    7  A    between atoms: C_8  and  O_25
    8  A    between atoms: C_9  and  O_21
    9  A    between atoms: C_9  and  C_24
   10  A    between atoms: C_11  and  C_32
   11  A    between atoms: C_15  and  C_18
   12  A    between atoms: C_17  and  N_47
   13  A    between atoms: O_21  and  C_30
   14  A    between atoms: C_22  and  C_24
   15  A    between atoms: C_22  and  C_31
   16  A    between atoms: O_25  and  C_34
   17  A    between atoms: N_28  and  C_41
   18  A    between atoms: C_31  and  C_38
   19  A    between atoms: C_35  and  C_39
                            x       y       z     vdW  Elec       q    Type
                         _______ _______ _______ _____ _____    ______ ____

>  <TORSDO>
F 19

$$$$
=
 OpenBabel11042415223D

 47 50  0  0  1  0  0  0  0  0999 V2000
  194.8050  172.3310  141.4630 C   0  0  0  0  0  3  0  0  0  0  0  0
  193.1710  172.9020  143.7580 C   0  0  2  0  0  3  0  0  0  0  0  0
  195.0320  173.4540  142.1410 C   0  0  0  0  0  0  0  0  0  0  0  0
  194.3720  173.6810  143.4050 N   0  0  0  0  0  0  0  0  0  0  0  0
  196.0040  174.4430  141.5920 C   0  0  0  0  0  1  0  0  0  0  0  0
  193.8900  171.3060  141.9970 C   0  0  0  0  0  0  0  0  0  0  0  0
  193.1710  171.5470  143.0970 C   0  0  0  0  0  3  0  0  0  0  0  0
  191.9420  174.5180  142.3010 C   0  0  0  0  0  3  0  0  0  0  0  0
  190.7820  175.2000  141.9250 C   0  0  0  0  0  3  0  0  0  0  0  0
  189.5900  175.0390  142.6510 C   0  0  0  0  0  0  0  0  0  0  0  0
  189.5800  174.1810  143.7640 C   0  0  0  0  0  3  0  0  0  0  0  0
  191.9290  173.6640  143.4100 C   0  0  0  0  0  0  0  0  0  0  0  0
  190.7400  173.4940  144.1370 C   0  0  0  0  0  3  0  0  0  0  0  0
  187.4370  176.2060  143.1900 C   0  0  0  0  0  3  0  0  0  0  0  0
  185.3640  177.3650  143.6830 C   0  0  0  0  0  3  0  0  0  0  0  0
  184.2340  178.0590  143.2280 C   0  0  0  0  0  3  0  0  0  0  0  0
  184.0460  178.2990  141.8590 C   0  0  0  0  0  0  0  0  0  0  0  0
  188.3710  175.7680  142.2420 C   0  0  0  0  0  0  0  0  0  0  0  0
  186.3140  176.9100  142.7640 C   0  0  0  0  0  0  0  0  0  0  0  0
  186.1400  177.1620  141.3880 C   0  0  0  0  0  0  0  0  0  0  0  0
  185.0070  177.8500  140.9380 C   0  0  0  0  0  3  0  0  0  0  0  0
  187.0770  176.7220  140.5040 N   0  0  0  0  0  0  0  0  0  0  0  0
  188.1580  176.0530  140.9210 N   0  0  0  0  0  0  0  0  0  0  0  0
  182.8630  178.9860  141.4300 N   0  0  0  0  0  2  0  0  0  0  0  0
  181.5960  178.3200  141.1590 C   0  0  0  0  0  2  0  0  0  0  0  0
  180.5020  178.9190  142.0220 C   0  0  0  0  0  1  0  0  0  0  0  0
  195.4960  173.9900  145.5620 C   0  0  0  0  0  1  0  0  0  0  0  0
  194.9070  174.6770  144.3410 C   0  0  2  0  0  3  0  0  0  0  0  0
  193.9100  175.5730  144.7390 O   0  0  0  0  0  0  0  0  0  0  0  0
  193.9510  175.5790  146.1330 C   0  0  0  0  0  2  0  0  0  0  0  0
  192.5600  175.3030  146.6710 C   0  0  0  0  0  2  0  0  0  0  0  0
  191.7900  176.5980  146.8200 C   0  0  0  0  0  2  0  0  0  0  0  0
  190.6350  176.6320  145.8290 C   0  0  2  0  0  3  0  0  0  0  0  0
  190.8820  177.7080  144.7720 C   0  0  0  0  0  1  0  0  0  0  0  0
  189.4210  176.9080  146.5180 O   0  0  0  0  0  0  0  0  0  0  0  0
  187.2790  176.0340  146.6410 O   0  0  0  0  0  0  0  0  0  0  0  0
  188.5140  175.9070  146.8740 C   0  0  0  0  0  0  0  0  0  0  0  0
  189.0040  174.6590  147.5250 C   0  0  0  0  0  1  0  0  0  0  0  0
  193.8460  169.9440  141.3790 C   0  0  0  0  0  2  0  0  0  0  0  0
  193.0460  169.9580  140.0820 C   0  0  0  0  0  2  0  0  0  0  0  0
  191.5540  169.9290  140.3710 C   0  0  0  0  0  2  0  0  0  0  0  0
  190.7900  170.5580  139.2190 C   0  0  0  0  0  2  0  0  0  0  0  0
  190.0770  171.6770  139.6680 O   0  0  0  0  0  0  0  0  0  0  0  0
  190.9780  173.5790  138.8110 O   0  0  0  0  0  1  0  0  0  0  0  0
  190.0660  172.5520  138.5810 C   0  0  2  0  0  3  0  0  0  0  0  0
  188.6740  173.1400  138.4270 C   0  0  0  0  0  2  0  0  0  0  0  0
  187.8400  172.6820  139.4500 O   0  0  0  0  0  1  0  0  0  0  0  0
  1  6  1  0  0  0  0
  1  3  2  0  0  0  0
  2 12  1  6  0  0  0
  3  4  1  0  0  0  0
  4  2  1  0  0  0  0
  4 28  1  0  0  0  0
  5  3  1  0  0  0  0
  6  7  2  0  0  0  0
  7  2  1  0  0  0  0
  8 12  1  0  0  0  0
  9  8  2  0  0  0  0
  9 10  1  0  0  0  0
 10 11  2  0  0  0  0
 11 13  1  0  0  0  0
 12 13  2  0  0  0  0
 16 15  1  0  0  0  0
 17 16  2  0  0  0  0
 18 10  1  0  0  0  0
 18 14  2  0  0  0  0
 19 14  1  0  0  0  0
 19 15  2  0  0  0  0
 20 19  1  0  0  0  0
 21 20  2  0  0  0  0
 21 17  1  0  0  0  0
 22 23  2  0  0  0  0
 22 20  1  0  0  0  0
 23 18  1  0  0  0  0
 24 17  1  0  0  0  0
 25 24  1  0  0  0  0
 25 26  1  0  0  0  0
 28 29  1  0  0  0  0
 28 27  1  1  0  0  0
 29 30  1  0  0  0  0
 30 31  1  0  0  0  0
 31 32  1  0  0  0  0
 33 34  1  6  0  0  0
 33 35  1  0  0  0  0
 33 32  1  0  0  0  0
 35 37  1  0  0  0  0
 36 37  2  0  0  0  0
 37 38  1  0  0  0  0
 39  6  1  0  0  0  0
 40 41  1  0  0  0  0
 40 39  1  0  0  0  0
 42 43  1  0  0  0  0
 42 41  1  0  0  0  0
 45 44  1  1  0  0  0
 45 43  1  0  0  0  0
 46 45  1  0  0  0  0
 46 47  1  0  0  0  0
M  END
>  <MODEL>
7

>  <REMARK>
 VINA RESULT:      -5.8      1.870      6.294
  Name = 
  19 active torsions:
  status: ('A' for Active; 'I' for Inactive)
    1  A    between atoms: C_1  and  C_8
    2  A    between atoms: C_1  and  C_39
    3  A    between atoms: C_4  and  C_30
    4  A    between atoms: O_5  and  C_35
    5  A    between atoms: O_5  and  C_41
    6  A    between atoms: C_6  and  N_47
    7  A    between atoms: C_8  and  O_25
    8  A    between atoms: C_9  and  O_21
    9  A    between atoms: C_9  and  C_24
   10  A    between atoms: C_11  and  C_32
   11  A    between atoms: C_15  and  C_18
   12  A    between atoms: C_17  and  N_47
   13  A    between atoms: O_21  and  C_30
   14  A    between atoms: C_22  and  C_24
   15  A    between atoms: C_22  and  C_31
   16  A    between atoms: O_25  and  C_34
   17  A    between atoms: N_28  and  C_41
   18  A    between atoms: C_31  and  C_38
   19  A    between atoms: C_35  and  C_39
                            x       y       z     vdW  Elec       q    Type
                         _______ _______ _______ _____ _____    ______ ____

>  <TORSDO>
F 19

$$$$
=
 OpenBabel11042415223D

 47 50  0  0  1  0  0  0  0  0999 V2000
  195.7570  171.9710  140.1840 C   0  0  0  0  0  3  0  0  0  0  0  0
  194.1960  170.7620  142.2730 C   0  0  2  0  0  3  0  0  0  0  0  0
  196.1960  172.0600  141.4370 C   0  0  0  0  0  0  0  0  0  0  0  0
  195.5510  171.3020  142.4840 N   0  0  0  0  0  0  0  0  0  0  0  0
  197.3820  172.9170  141.7260 C   0  0  0  0  0  1  0  0  0  0  0  0
  194.6190  171.0950  139.8490 C   0  0  0  0  0  0  0  0  0  0  0  0
  193.9270  170.4860  140.8150 C   0  0  0  0  0  3  0  0  0  0  0  0
  192.4080  171.2790  143.9390 C   0  0  0  0  0  3  0  0  0  0  0  0
  191.4760  172.1450  144.5160 C   0  0  0  0  0  3  0  0  0  0  0  0
  191.2860  173.4380  144.0000 C   0  0  0  0  0  0  0  0  0  0  0  0
  192.0480  173.8490  142.8920 C   0  0  0  0  0  3  0  0  0  0  0  0
  193.1650  171.6900  142.8370 C   0  0  0  0  0  0  0  0  0  0  0  0
  192.9840  172.9830  142.3180 C   0  0  0  0  0  3  0  0  0  0  0  0
  189.7050  175.3810  143.8850 C   0  0  0  0  0  3  0  0  0  0  0  0
  188.1460  177.2380  143.7970 C   0  0  0  0  0  3  0  0  0  0  0  0
  187.2070  178.0540  144.4440 C   0  0  0  0  0  3  0  0  0  0  0  0
  186.8780  177.8380  145.7900 C   0  0  0  0  0  0  0  0  0  0  0  0
  190.2960  174.3440  144.6190 C   0  0  0  0  0  0  0  0  0  0  0  0
  188.7590  176.1960  144.5010 C   0  0  0  0  0  0  0  0  0  0  0  0
  188.4200  175.9620  145.8490 C   0  0  0  0  0  0  0  0  0  0  0  0
  187.4860  176.7840  146.4920 C   0  0  0  0  0  3  0  0  0  0  0  0
  189.0160  174.9390  146.5200 N   0  0  0  0  0  0  0  0  0  0  0  0
  189.9190  174.1540  145.9200 N   0  0  0  0  0  0  0  0  0  0  0  0
  185.9350  178.7120  146.4240 N   0  0  0  0  0  2  0  0  0  0  0  0
  184.5290  178.3790  146.6180 C   0  0  0  0  0  2  0  0  0  0  0  0
  183.6890  179.0350  145.5400 C   0  0  0  0  0  1  0  0  0  0  0  0
  196.0850  169.6130  144.1790 C   0  0  0  0  0  1  0  0  0  0  0  0
  196.2530  171.0610  143.7510 C   0  0  2  0  0  3  0  0  0  0  0  0
  195.7730  171.9080  144.7540 O   0  0  0  0  0  0  0  0  0  0  0  0
  196.9090  172.4640  145.3450 C   0  0  0  0  0  2  0  0  0  0  0  0
  196.6630  173.9380  145.6010 C   0  0  0  0  0  2  0  0  0  0  0  0
  195.2030  174.2710  145.3840 C   0  0  0  0  0  2  0  0  0  0  0  0
  195.0620  175.2600  144.2350 C   0  0  2  0  0  3  0  0  0  0  0  0
  196.3960  175.9580  143.9760 C   0  0  0  0  0  1  0  0  0  0  0  0
  194.0690  176.2280  144.5550 O   0  0  0  0  0  0  0  0  0  0  0  0
  194.6580  177.5390  146.3730 O   0  0  0  0  0  0  0  0  0  0  0  0
  193.8690  176.6970  145.8560 C   0  0  0  0  0  0  0  0  0  0  0  0
  192.7030  176.2150  146.6480 C   0  0  0  0  0  1  0  0  0  0  0  0
  194.3040  170.7870  138.4190 C   0  0  0  0  0  2  0  0  0  0  0  0
  192.9140  171.2880  138.0460 C   0  0  0  0  0  2  0  0  0  0  0  0
  192.9300  172.7900  137.8080 C   0  0  0  0  0  2  0  0  0  0  0  0
  191.9950  173.4800  138.7850 C   0  0  0  0  0  2  0  0  0  0  0  0
  191.0900  172.5540  139.3200 O   0  0  0  0  0  0  0  0  0  0  0  0
  189.4790  173.6190  140.5190 O   0  0  0  0  0  1  0  0  0  0  0  0
  189.8480  173.1880  139.2470 C   0  0  2  0  0  3  0  0  0  0  0  0
  188.8140  172.2030  138.7300 C   0  0  0  0  0  2  0  0  0  0  0  0
  189.4000  170.9520  138.5220 O   0  0  0  0  0  1  0  0  0  0  0  0
  1  3  2  0  0  0  0
  2  4  1  0  0  0  0
  2 12  1  6  0  0  0
  3  5  1  0  0  0  0
  3  4  1  0  0  0  0
  4 28  1  0  0  0  0
  6  1  1  0  0  0  0
  6  7  2  0  0  0  0
  7  2  1  0  0  0  0
  8  9  1  0  0  0  0
 10  9  2  0  0  0  0
 10 18  1  0  0  0  0
 11 10  1  0  0  0  0
 12  8  2  0  0  0  0
 13 12  1  0  0  0  0
 13 11  2  0  0  0  0
 14 19  2  0  0  0  0
 14 18  1  0  0  0  0
 15 16  2  0  0  0  0
 15 19  1  0  0  0  0
 16 17  1  0  0  0  0
 17 24  1  0  0  0  0
 17 21  2  0  0  0  0
 18 23  2  0  0  0  0
 19 20  1  0  0  0  0
 20 21  1  0  0  0  0
 20 22  2  0  0  0  0
 23 22  1  0  0  0  0
 24 25  1  0  0  0  0
 26 25  1  0  0  0  0
 28 27  1  1  0  0  0
 28 29  1  0  0  0  0
 29 30  1  0  0  0  0
 30 31  1  0  0  0  0
 32 31  1  0  0  0  0
 33 34  1  1  0  0  0
 33 35  1  0  0  0  0
 33 32  1  0  0  0  0
 35 37  1  0  0  0  0
 37 36  2  0  0  0  0
 37 38  1  0  0  0  0
 39  6  1  0  0  0  0
 40 39  1  0  0  0  0
 41 40  1  0  0  0  0
 41 42  1  0  0  0  0
 42 43  1  0  0  0  0
 45 43  1  0  0  0  0
 45 44  1  1  0  0  0
 46 45  1  0  0  0  0
 47 46  1  0  0  0  0
M  END
>  <MODEL>
8

>  <REMARK>
 VINA RESULT:      -5.8      3.596      7.663
  Name = 
  19 active torsions:
  status: ('A' for Active; 'I' for Inactive)
    1  A    between atoms: C_1  and  C_8
    2  A    between atoms: C_1  and  C_39
    3  A    between atoms: C_4  and  C_30
    4  A    between atoms: O_5  and  C_35
    5  A    between atoms: O_5  and  C_41
    6  A    between atoms: C_6  and  N_47
    7  A    between atoms: C_8  and  O_25
    8  A    between atoms: C_9  and  O_21
    9  A    between atoms: C_9  and  C_24
   10  A    between atoms: C_11  and  C_32
   11  A    between atoms: C_15  and  C_18
   12  A    between atoms: C_17  and  N_47
   13  A    between atoms: O_21  and  C_30
   14  A    between atoms: C_22  and  C_24
   15  A    between atoms: C_22  and  C_31
   16  A    between atoms: O_25  and  C_34
   17  A    between atoms: N_28  and  C_41
   18  A    between atoms: C_31  and  C_38
   19  A    between atoms: C_35  and  C_39
                            x       y       z     vdW  Elec       q    Type
                         _______ _______ _______ _____ _____    ______ ____

>  <TORSDO>
F 19

$$$$
=
 OpenBabel11042415223D

 47 50  0  0  1  0  0  0  0  0999 V2000
  187.6110  176.0460  146.5140 C   0  0  0  0  0  3  0  0  0  0  0  0
  189.7260  176.8580  144.7440 C   0  0  2  0  0  3  0  0  0  0  0  0
  188.8430  175.5960  146.7460 C   0  0  0  0  0  0  0  0  0  0  0  0
  189.9600  176.1330  146.0060 N   0  0  0  0  0  0  0  0  0  0  0  0
  189.0440  174.5650  147.8050 C   0  0  0  0  0  1  0  0  0  0  0  0
  187.3770  177.1010  145.5100 C   0  0  0  0  0  0  0  0  0  0  0  0
  188.3720  177.5210  144.7250 C   0  0  0  0  0  3  0  0  0  0  0  0
  191.1570  175.4470  143.2600 C   0  0  0  0  0  3  0  0  0  0  0  0
  191.3240  174.5490  142.2030 C   0  0  0  0  0  3  0  0  0  0  0  0
  190.2220  174.1280  141.4410 C   0  0  0  0  0  0  0  0  0  0  0  0
  188.9450  174.6250  141.7560 C   0  0  0  0  0  3  0  0  0  0  0  0
  189.8850  175.9390  143.5720 C   0  0  0  0  0  0  0  0  0  0  0  0
  188.7780  175.5200  142.8180 C   0  0  0  0  0  3  0  0  0  0  0  0
  190.5140  173.6260  139.0010 C   0  0  0  0  0  3  0  0  0  0  0  0
  190.8260  173.1120  136.6510 C   0  0  0  0  0  3  0  0  0  0  0  0
  191.0170  172.1580  135.6420 C   0  0  0  0  0  3  0  0  0  0  0  0
  191.0970  170.7930  135.9540 C   0  0  0  0  0  0  0  0  0  0  0  0
  190.4130  173.1780  140.3250 C   0  0  0  0  0  0  0  0  0  0  0  0
  190.7170  172.6990  137.9830 C   0  0  0  0  0  0  0  0  0  0  0  0
  190.8140  171.3300  138.3060 C   0  0  0  0  0  0  0  0  0  0  0  0
  190.9980  170.3810  137.2930 C   0  0  0  0  0  3  0  0  0  0  0  0
  190.7160  170.9420  139.6060 N   0  0  0  0  0  0  0  0  0  0  0  0
  190.5280  171.8390  140.5810 N   0  0  0  0  0  0  0  0  0  0  0  0
  191.2620  169.8460  134.8910 N   0  0  0  0  0  2  0  0  0  0  0  0
  192.3920  168.9310  134.7930 C   0  0  0  0  0  2  0  0  0  0  0  0
  193.6660  169.7090  134.5240 C   0  0  0  0  0  1  0  0  0  0  0  0
  191.4490  176.5900  147.9000 C   0  0  0  0  0  1  0  0  0  0  0  0
  191.3250  175.9660  146.5200 C   0  0  2  0  0  3  0  0  0  0  0  0
  192.2570  176.5470  145.6550 O   0  0  0  0  0  0  0  0  0  0  0  0
  193.3820  176.8040  146.4390 C   0  0  0  0  0  2  0  0  0  0  0  0
  194.6290  176.5190  145.6260 C   0  0  0  0  0  2  0  0  0  0  0  0
  194.9360  175.0360  145.6380 C   0  0  0  0  0  2  0  0  0  0  0  0
  195.9200  174.7000  144.5270 C   0  0  2  0  0  3  0  0  0  0  0  0
  197.2850  174.3560  145.1220 C   0  0  0  0  0  1  0  0  0  0  0  0
  196.0480  175.8120  143.6490 O   0  0  0  0  0  0  0  0  0  0  0  0
  195.6130  176.8130  141.6040 O   0  0  0  0  0  0  0  0  0  0  0  0
  195.6350  175.7680  142.3140 C   0  0  0  0  0  0  0  0  0  0  0  0
  195.2270  174.4700  141.7060 C   0  0  0  0  0  1  0  0  0  0  0  0
  186.0510  177.7920  145.4440 C   0  0  0  0  0  2  0  0  0  0  0  0
  186.1710  179.1350  144.7320 C   0  0  0  0  0  2  0  0  0  0  0  0
  184.9440  179.3990  143.8750 C   0  0  0  0  0  2  0  0  0  0  0  0
  184.9140  178.4360  142.7010 C   0  0  0  0  0  2  0  0  0  0  0  0
  186.1440  178.4580  142.0300 O   0  0  0  0  0  0  0  0  0  0  0  0
  184.4590  177.9990  140.5760 O   0  0  0  0  0  1  0  0  0  0  0  0
  185.8170  178.2880  140.6840 C   0  0  2  0  0  3  0  0  0  0  0  0
  186.6230  177.1320  140.1160 C   0  0  0  0  0  2  0  0  0  0  0  0
  186.3710  176.9930  138.7490 O   0  0  0  0  0  1  0  0  0  0  0  0
  1  3  2  0  0  0  0
  2 12  1  6  0  0  0
  2  4  1  0  0  0  0
  3  5  1  0  0  0  0
  4 28  1  0  0  0  0
  4  3  1  0  0  0  0
  6  1  1  0  0  0  0
  7  2  1  0  0  0  0
  7  6  2  0  0  0  0
  8 12  1  0  0  0  0
  9  8  2  0  0  0  0
 10 11  2  0  0  0  0
 10  9  1  0  0  0  0
 11 13  1  0  0  0  0
 13 12  2  0  0  0  0
 14 18  1  0  0  0  0
 15 19  1  0  0  0  0
 16 17  1  0  0  0  0
 16 15  2  0  0  0  0
 17 21  2  0  0  0  0
 18 23  2  0  0  0  0
 18 10  1  0  0  0  0
 19 20  1  0  0  0  0
 19 14  2  0  0  0  0
 20 22  2  0  0  0  0
 21 20  1  0  0  0  0
 22 23  1  0  0  0  0
 24 17  1  0  0  0  0
 25 24  1  0  0  0  0
 26 25  1  0  0  0  0
 28 27  1  1  0  0  0
 29 30  1  0  0  0  0
 29 28  1  0  0  0  0
 31 32  1  0  0  0  0
 31 30  1  0  0  0  0
 33 34  1  1  0  0  0
 33 32  1  0  0  0  0
 35 33  1  0  0  0  0
 36 37  2  0  0  0  0
 37 35  1  0  0  0  0
 38 37  1  0  0  0  0
 39  6  1  0  0  0  0
 40 39  1  0  0  0  0
 41 40  1  0  0  0  0
 42 41  1  0  0  0  0
 43 42  1  0  0  0  0
 45 44  1  1  0  0  0
 45 43  1  0  0  0  0
 46 45  1  0  0  0  0
 47 46  1  0  0  0  0
M  END
>  <MODEL>
9

>  <REMARK>
 VINA RESULT:      -5.7      3.660      8.349
  Name = 
  19 active torsions:
  status: ('A' for Active; 'I' for Inactive)
    1  A    between atoms: C_1  and  C_8
    2  A    between atoms: C_1  and  C_39
    3  A    between atoms: C_4  and  C_30
    4  A    between atoms: O_5  and  C_35
    5  A    between atoms: O_5  and  C_41
    6  A    between atoms: C_6  and  N_47
    7  A    between atoms: C_8  and  O_25
    8  A    between atoms: C_9  and  O_21
    9  A    between atoms: C_9  and  C_24
   10  A    between atoms: C_11  and  C_32
   11  A    between atoms: C_15  and  C_18
   12  A    between atoms: C_17  and  N_47
   13  A    between atoms: O_21  and  C_30
   14  A    between atoms: C_22  and  C_24
   15  A    between atoms: C_22  and  C_31
   16  A    between atoms: O_25  and  C_34
   17  A    between atoms: N_28  and  C_41
   18  A    between atoms: C_31  and  C_38
   19  A    between atoms: C_35  and  C_39
                            x       y       z     vdW  Elec       q    Type
                         _______ _______ _______ _____ _____    ______ ____

>  <TORSDO>
F 19

$$$$
