=
 OpenBabel11042418503D

 60 65  0  0  1  0  0  0  0  0999 V2000
  189.7770  176.9860  142.6430 C   0  0  1  0  0  3  0  0  0  0  0  0
  187.7950  178.4020  142.2290 C   0  0  0  0  0  0  0  0  0  0  0  0
  185.5660  178.1900  141.3360 C   0  0  0  0  0  1  0  0  0  0  0  0
  189.0760  178.1870  142.0710 C   0  0  0  0  0  3  0  0  0  0  0  0
  186.5200  178.6250  142.3860 C   0  0  0  0  0  0  0  0  0  0  0  0
  186.0230  179.4360  143.5380 C   0  0  0  0  0  2  0  0  0  0  0  0
  186.0580  178.6640  144.8170 C   0  0  0  0  0  0  0  0  0  0  0  0
  186.9440  177.5930  144.9950 C   0  0  0  0  0  3  0  0  0  0  0  0
  186.9210  176.8440  146.1780 C   0  0  0  0  0  0  0  0  0  0  0  0
  186.0340  177.2050  147.2100 C   0  0  0  0  0  0  0  0  0  0  0  0
  185.1690  179.0030  145.8410 C   0  0  0  0  0  3  0  0  0  0  0  0
  186.0380  176.5510  148.3960 F   0  0  0  0  0  0  0  0  0  0  0  0
  185.1600  178.2800  147.0350 C   0  0  0  0  0  3  0  0  0  0  0  0
  187.8270  175.7420  146.3140 N   0  0  0  0  0  2  0  0  0  0  0  0
  191.3570  174.8960  147.2670 C   0  0  0  0  0  3  0  0  0  0  0  0
  190.7810  177.0700  148.1580 C   0  0  0  0  0  0  0  0  0  0  0  0
  189.4940  176.9510  147.6260 C   0  0  0  0  0  3  0  0  0  0  0  0
  191.7120  176.0440  147.9800 C   0  0  0  0  0  3  0  0  0  0  0  0
  189.1290  175.8030  146.9160 C   0  0  0  0  0  0  0  0  0  0  0  0
  191.1480  178.2510  148.8530 N   0  0  0  0  0  1  0  0  0  0  0  0
  190.0720  174.7790  146.7300 C   0  0  0  0  0  3  0  0  0  0  0  0
  190.7490  177.3810  143.7600 C   0  0  2  0  0  3  0  0  0  0  0  0
  190.8430  178.7730  143.8790 O   0  0  0  0  0  1  0  0  0  0  0  0
  196.0790  174.5950  141.6430 C   0  0  0  0  0  0  0  0  0  0  0  0
  192.5050  176.5150  142.2760 N   0  0  0  0  0  0  0  0  0  0  0  0
  194.1280  175.9900  144.5310 C   0  0  0  0  0  0  0  0  0  0  0  0
  194.7400  176.0630  143.1530 C   0  0  1  0  0  3  0  0  0  0  0  0
  195.5950  174.6740  139.2370 F   0  0  0  0  0  0  0  0  0  0  0  0
  194.1170  175.7260  140.6890 C   0  0  0  0  0  3  0  0  0  0  0  0
  195.8070  175.0300  142.8860 C   0  0  0  0  0  3  0  0  0  0  0  0
  195.2480  175.0340  140.4970 C   0  0  0  0  0  0  0  0  0  0  0  0
  192.8810  176.4250  144.7140 C   0  0  0  0  0  3  0  0  0  0  0  0
  193.7150  176.1090  142.0430 C   0  0  0  0  0  0  0  0  0  0  0  0
  192.0700  176.7890  143.5850 N   0  0  0  0  0  0  0  0  0  0  0  0
  197.1290  173.7020  141.3900 O   0  0  0  0  0  0  0  0  0  0  0  0
  197.0290  171.9980  141.6390 P   0  0  0  0  0  0  0  0  0  0  0  0
  197.4920  171.1960  140.2250 O   0  0  0  0  0  0  0  0  0  0  0  0
  195.4320  171.5860  142.0230 O   0  0  0  0  0  1  0  0  0  0  0  0
  197.9410  171.5910  142.7730 O   0  0  0  0  0  1  0  0  0  0  0  0
  194.9500  175.6620  145.7380 C   0  0  0  0  0  2  0  0  0  0  0  0
  194.7020  171.8680  145.6470 C   0  0  0  0  0  3  0  0  0  0  0  0
  194.3370  173.2180  145.6220 C   0  0  0  0  0  3  0  0  0  0  0  0
  195.3070  174.2120  145.8080 C   0  0  0  0  0  0  0  0  0  0  0  0
  196.0420  171.5070  145.8460 C   0  0  0  0  0  3  0  0  0  0  0  0
  196.6500  173.8460  145.9880 C   0  0  0  0  0  3  0  0  0  0  0  0
  197.0150  172.4950  146.0120 C   0  0  0  0  0  3  0  0  0  0  0  0
  188.8780  175.9870  143.0590 O   0  0  0  0  0  0  0  0  0  0  0  0
  188.9830  174.9890  142.0840 C   0  0  2  0  0  3  0  0  0  0  0  0
  187.7700  174.8790  141.4030 O   0  0  0  0  0  1  0  0  0  0  0  0
  189.2920  173.6590  142.7560 C   0  0  0  0  0  2  0  0  0  0  0  0
  190.6320  173.2110  142.4060 N   0  0  0  0  0  0  0  0  0  0  0  0
  191.6340  172.1870  139.0120 C   0  0  0  0  0  0  0  0  0  0  0  0
  190.6580  170.8560  139.3180 S   0  0  0  0  0  0  0  0  0  0  0  0
  190.8410  172.5000  141.1720 C   0  0  0  0  0  0  0  0  0  0  0  0
  190.2110  171.2850  140.8830 C   0  0  0  0  0  3  0  0  0  0  0  0
  191.6380  173.0080  140.1270 C   0  0  0  0  0  3  0  0  0  0  0  0
  192.3200  172.4760  137.7210 C   0  0  0  0  0  2  0  0  0  0  0  0
  193.5580  173.0470  137.9590 F   0  0  0  0  0  0  0  0  0  0  0  0
  191.6100  173.1010  143.4880 C   0  0  0  0  0  2  0  0  0  0  0  0
  191.4080  171.9100  144.1960 O   0  0  0  0  0  1  0  0  0  0  0  0
  1  4  1  1  0  0  0
  1 47  1  0  0  0  0
  1 22  1  0  0  0  0
  2  5  2  0  0  0  0
  3  5  1  0  0  0  0
  4  2  2  0  0  0  0
  5  6  1  0  0  0  0
  6  7  1  0  0  0  0
  7  8  2  0  0  0  0
  7 11  1  0  0  0  0
  8  9  1  0  0  0  0
  9 14  1  0  0  0  0
  9 10  2  0  0  0  0
 10 12  1  0  0  0  0
 11 13  2  0  0  0  0
 13 10  1  0  0  0  0
 14 19  1  0  0  0  0
 15 18  1  0  0  0  0
 16 20  1  0  0  0  0
 17 16  1  0  0  0  0
 18 16  2  0  0  0  0
 19 17  2  0  0  0  0
 21 19  1  0  0  0  0
 21 15  2  0  0  0  0
 22 23  1  6  0  0  0
 24 30  2  0  0  0  0
 25 34  1  0  0  0  0
 26 32  2  0  0  0  0
 26 40  1  0  0  0  0
 27 30  1  6  0  0  0
 27 26  1  0  0  0  0
 28 31  1  0  0  0  0
 29 33  1  0  0  0  0
 31 29  2  0  0  0  0
 31 24  1  0  0  0  0
 33 25  2  0  0  0  0
 33 27  1  0  0  0  0
 34 22  1  0  0  0  0
 34 32  1  0  0  0  0
 35 36  1  0  0  0  0
 35 24  1  0  0  0  0
 36 38  1  0  0  0  0
 36 39  1  0  0  0  0
 37 36  2  0  0  0  0
 40 43  1  0  0  0  0
 41 44  1  0  0  0  0
 42 41  2  0  0  0  0
 42 43  1  0  0  0  0
 43 45  2  0  0  0  0
 44 46  2  0  0  0  0
 45 46  1  0  0  0  0
 48 49  1  1  0  0  0
 48 50  1  0  0  0  0
 48 47  1  0  0  0  0
 51 50  1  0  0  0  0
 51 59  1  0  0  0  0
 52 53  1  0  0  0  0
 52 56  2  0  0  0  0
 53 55  1  0  0  0  0
 54 51  1  0  0  0  0
 55 54  2  0  0  0  0
 56 54  1  0  0  0  0
 57 58  1  0  0  0  0
 57 52  1  0  0  0  0
 59 60  1  0  0  0  0
M  END
>  <MODEL>
1

>  <REMARK>
 VINA RESULT:      -7.6      0.000      0.000
  Name = 
  18 active torsions:
  status: ('A' for Active; 'I' for Inactive)
    1  A    between atoms: C_2  and  O_38
    2  A    between atoms: C_6  and  C_9
    3  A    between atoms: C_10  and  C_55
    4  A    between atoms: C_12  and  C_47
    5  A    between atoms: C_13  and  C_44
    6  A    between atoms: C_13  and  O_54
    7  A    between atoms: C_14  and  C_29
    8  A    between atoms: P_15  and  O_38
    9  A    between atoms: C_17  and  C_55
   10  A    between atoms: C_17  and  N_60
   11  A    between atoms: C_23  and  C_29
   12  A    between atoms: N_24  and  C_26
   13  A    between atoms: N_24  and  C_34
   14  A    between atoms: N_24  and  C_44
   15  A    between atoms: C_28  and  N_59
   16  A    between atoms: C_31  and  C_47
   17  A    between atoms: C_36  and  N_59
   18  A    between atoms: O_54  and  C_55
                            x       y       z     vdW  Elec       q    Type
                         _______ _______ _______ _____ _____    ______ ____

>  <TORSDO>
F 18

$$$$
=
 OpenBabel11042418503D

 60 65  0  0  1  0  0  0  0  0999 V2000
  193.0020  171.9770  143.4900 C   0  0  1  0  0  3  0  0  0  0  0  0
  194.6490  172.3770  145.2890 C   0  0  0  0  0  0  0  0  0  0  0  0
  196.7770  171.5180  146.0250 C   0  0  0  0  0  1  0  0  0  0  0  0
  193.4170  172.1220  144.9290 C   0  0  0  0  0  3  0  0  0  0  0  0
  195.8740  172.6350  145.6540 C   0  0  0  0  0  0  0  0  0  0  0  0
  196.3340  174.0430  145.8420 C   0  0  0  0  0  2  0  0  0  0  0  0
  195.2720  175.0290  145.4760 C   0  0  0  0  0  0  0  0  0  0  0  0
  194.2980  175.4240  146.4020 C   0  0  0  0  0  3  0  0  0  0  0  0
  193.2760  176.3030  146.0230 C   0  0  0  0  0  0  0  0  0  0  0  0
  193.2590  176.8250  144.7160 C   0  0  0  0  0  0  0  0  0  0  0  0
  195.2370  175.5380  144.1750 C   0  0  0  0  0  3  0  0  0  0  0  0
  192.3300  177.7350  144.3390 F   0  0  0  0  0  0  0  0  0  0  0  0
  194.2380  176.4380  143.7980 C   0  0  0  0  0  3  0  0  0  0  0  0
  192.2850  176.6670  146.9930 N   0  0  0  0  0  2  0  0  0  0  0  0
  189.1400  174.6330  147.2420 C   0  0  0  0  0  3  0  0  0  0  0  0
  188.5750  176.9400  146.7810 C   0  0  0  0  0  0  0  0  0  0  0  0
  189.9320  177.2700  146.7470 C   0  0  0  0  0  3  0  0  0  0  0  0
  188.1780  175.6230  147.0270 C   0  0  0  0  0  3  0  0  0  0  0  0
  190.9020  176.2840  146.9560 C   0  0  0  0  0  0  0  0  0  0  0  0
  187.5990  177.9530  146.5940 N   0  0  0  0  0  1  0  0  0  0  0  0
  190.4980  174.9640  147.2140 C   0  0  0  0  0  3  0  0  0  0  0  0
  191.5520  171.4940  143.3690 C   0  0  2  0  0  3  0  0  0  0  0  0
  191.4820  170.2730  142.6880 O   0  0  0  0  0  1  0  0  0  0  0  0
  188.0280  176.5780  141.8260 C   0  0  0  0  0  0  0  0  0  0  0  0
  190.6310  173.7700  143.3090 N   0  0  0  0  0  0  0  0  0  0  0  0
  189.1510  173.0930  140.9980 C   0  0  0  0  0  0  0  0  0  0  0  0
  189.3890  174.5410  141.3520 C   0  0  1  0  0  3  0  0  0  0  0  0
  188.8200  178.1090  143.5740 F   0  0  0  0  0  0  0  0  0  0  0  0
  189.8460  176.0330  143.3860 C   0  0  0  0  0  3  0  0  0  0  0  0
  188.2040  175.4440  141.1230 C   0  0  0  0  0  3  0  0  0  0  0  0
  188.9420  176.9150  142.9420 C   0  0  0  0  0  0  0  0  0  0  0  0
  189.8500  172.1450  141.6240 C   0  0  0  0  0  3  0  0  0  0  0  0
  189.9810  174.7320  142.7290 C   0  0  0  0  0  0  0  0  0  0  0  0
  190.6850  172.4840  142.7430 N   0  0  0  0  0  0  0  0  0  0  0  0
  186.9730  177.4580  141.5500 O   0  0  0  0  0  0  0  0  0  0  0  0
  185.6480  177.7420  142.6170 P   0  0  0  0  0  0  0  0  0  0  0  0
  184.2140  177.8050  141.7250 O   0  0  0  0  0  0  0  0  0  0  0  0
  185.8820  179.2170  143.4130 O   0  0  0  0  0  1  0  0  0  0  0  0
  185.5600  176.6280  143.6340 O   0  0  0  0  0  1  0  0  0  0  0  0
  188.3290  172.7000  139.8110 C   0  0  0  0  0  2  0  0  0  0  0  0
  188.9540  174.5390  136.5410 C   0  0  0  0  0  3  0  0  0  0  0  0
  188.3360  174.1150  137.7220 C   0  0  0  0  0  3  0  0  0  0  0  0
  188.9450  173.1370  138.5200 C   0  0  0  0  0  0  0  0  0  0  0  0
  190.1900  173.9970  136.1610 C   0  0  0  0  0  3  0  0  0  0  0  0
  190.1910  172.6110  138.1440 C   0  0  0  0  0  3  0  0  0  0  0  0
  190.8090  173.0370  136.9640 C   0  0  0  0  0  3  0  0  0  0  0  0
  193.2280  173.1490  142.7460 O   0  0  0  0  0  0  0  0  0  0  0  0
  194.0220  172.7360  141.6700 C   0  0  2  0  0  3  0  0  0  0  0  0
  195.3610  173.0070  141.9550 O   0  0  0  0  0  1  0  0  0  0  0  0
  193.6190  173.5060  140.4210 C   0  0  0  0  0  2  0  0  0  0  0  0
  194.3710  173.0340  139.2670 N   0  0  0  0  0  0  0  0  0  0  0  0
  195.8270  175.4060  136.8530 C   0  0  0  0  0  0  0  0  0  0  0  0
  197.2140  175.2230  137.7810 S   0  0  0  0  0  0  0  0  0  0  0  0
  195.2290  173.9480  138.5590 C   0  0  0  0  0  0  0  0  0  0  0  0
  196.5640  174.1630  138.9150 C   0  0  0  0  0  3  0  0  0  0  0  0
  194.8120  174.6420  137.4060 C   0  0  0  0  0  3  0  0  0  0  0  0
  195.7270  176.2010  135.5970 C   0  0  0  0  0  2  0  0  0  0  0  0
  196.9790  176.6560  135.2230 F   0  0  0  0  0  0  0  0  0  0  0  0
  193.9040  171.8120  138.6130 C   0  0  0  0  0  2  0  0  0  0  0  0
  194.9870  170.9610  138.3610 O   0  0  0  0  0  1  0  0  0  0  0  0
  1  4  1  1  0  0  0
  2  5  2  0  0  0  0
  4  2  2  0  0  0  0
  5  6  1  0  0  0  0
  5  3  1  0  0  0  0
  7  6  1  0  0  0  0
  7  8  1  0  0  0  0
  9  8  2  0  0  0  0
  9 14  1  0  0  0  0
 10  9  1  0  0  0  0
 11  7  2  0  0  0  0
 12 10  1  0  0  0  0
 13 11  1  0  0  0  0
 13 10  2  0  0  0  0
 16 18  1  0  0  0  0
 17 16  2  0  0  0  0
 17 19  1  0  0  0  0
 18 15  2  0  0  0  0
 19 14  1  0  0  0  0
 19 21  2  0  0  0  0
 20 16  1  0  0  0  0
 21 15  1  0  0  0  0
 22 23  1  6  0  0  0
 22  1  1  0  0  0  0
 24 31  1  0  0  0  0
 26 27  1  0  0  0  0
 26 32  2  0  0  0  0
 27 30  1  1  0  0  0
 27 33  1  0  0  0  0
 30 24  2  0  0  0  0
 31 29  2  0  0  0  0
 31 28  1  0  0  0  0
 32 34  1  0  0  0  0
 33 25  2  0  0  0  0
 33 29  1  0  0  0  0
 34 25  1  0  0  0  0
 34 22  1  0  0  0  0
 35 24  1  0  0  0  0
 35 36  1  0  0  0  0
 36 38  1  0  0  0  0
 36 39  1  0  0  0  0
 37 36  2  0  0  0  0
 40 26  1  0  0  0  0
 41 42  1  0  0  0  0
 42 43  2  0  0  0  0
 43 40  1  0  0  0  0
 44 41  2  0  0  0  0
 44 46  1  0  0  0  0
 45 43  1  0  0  0  0
 46 45  2  0  0  0  0
 47  1  1  0  0  0  0
 48 49  1  1  0  0  0
 48 47  1  0  0  0  0
 50 48  1  0  0  0  0
 51 50  1  0  0  0  0
 52 56  2  0  0  0  0
 52 53  1  0  0  0  0
 53 55  1  0  0  0  0
 54 55  2  0  0  0  0
 54 51  1  0  0  0  0
 56 54  1  0  0  0  0
 57 52  1  0  0  0  0
 58 57  1  0  0  0  0
 59 51  1  0  0  0  0
 60 59  1  0  0  0  0
M  END
>  <MODEL>
2

>  <REMARK>
 VINA RESULT:      -7.4      3.234      8.081
  Name = 
  18 active torsions:
  status: ('A' for Active; 'I' for Inactive)
    1  A    between atoms: C_2  and  O_38
    2  A    between atoms: C_6  and  C_9
    3  A    between atoms: C_10  and  C_55
    4  A    between atoms: C_12  and  C_47
    5  A    between atoms: C_13  and  C_44
    6  A    between atoms: C_13  and  O_54
    7  A    between atoms: C_14  and  C_29
    8  A    between atoms: P_15  and  O_38
    9  A    between atoms: C_17  and  C_55
   10  A    between atoms: C_17  and  N_60
   11  A    between atoms: C_23  and  C_29
   12  A    between atoms: N_24  and  C_26
   13  A    between atoms: N_24  and  C_34
   14  A    between atoms: N_24  and  C_44
   15  A    between atoms: C_28  and  N_59
   16  A    between atoms: C_31  and  C_47
   17  A    between atoms: C_36  and  N_59
   18  A    between atoms: O_54  and  C_55
                            x       y       z     vdW  Elec       q    Type
                         _______ _______ _______ _____ _____    ______ ____

>  <TORSDO>
F 18

$$$$
=
 OpenBabel11042418503D

 60 65  0  0  1  0  0  0  0  0999 V2000
  193.0870  171.9410  143.4960 C   0  0  1  0  0  3  0  0  0  0  0  0
  194.7220  172.3700  145.2980 C   0  0  0  0  0  0  0  0  0  0  0  0
  196.8460  171.5240  146.0620 C   0  0  0  0  0  1  0  0  0  0  0  0
  193.4920  172.1090  144.9350 C   0  0  0  0  0  3  0  0  0  0  0  0
  195.9440  172.6340  145.6680 C   0  0  0  0  0  0  0  0  0  0  0  0
  196.4030  174.0460  145.8350 C   0  0  0  0  0  2  0  0  0  0  0  0
  195.3360  175.0250  145.4660 C   0  0  0  0  0  0  0  0  0  0  0  0
  194.3550  175.4140  146.3880 C   0  0  0  0  0  3  0  0  0  0  0  0
  193.3290  176.2850  146.0050 C   0  0  0  0  0  0  0  0  0  0  0  0
  193.3150  176.8090  144.6980 C   0  0  0  0  0  0  0  0  0  0  0  0
  195.3040  175.5360  144.1650 C   0  0  0  0  0  3  0  0  0  0  0  0
  192.3820  177.7130  144.3170 F   0  0  0  0  0  0  0  0  0  0  0  0
  194.3010  176.4290  143.7840 C   0  0  0  0  0  3  0  0  0  0  0  0
  192.3320  176.6430  146.9700 N   0  0  0  0  0  2  0  0  0  0  0  0
  189.2030  174.5720  147.0800 C   0  0  0  0  0  3  0  0  0  0  0  0
  188.6160  176.9090  146.8610 C   0  0  0  0  0  0  0  0  0  0  0  0
  189.9710  177.2500  146.8320 C   0  0  0  0  0  3  0  0  0  0  0  0
  188.2320  175.5710  146.9840 C   0  0  0  0  0  3  0  0  0  0  0  0
  190.9500  176.2560  146.9230 C   0  0  0  0  0  0  0  0  0  0  0  0
  187.6320  177.9290  146.7940 N   0  0  0  0  0  1  0  0  0  0  0  0
  190.5580  174.9140  147.0580 C   0  0  0  0  0  3  0  0  0  0  0  0
  191.6330  171.4690  143.3730 C   0  0  2  0  0  3  0  0  0  0  0  0
  191.5540  170.2460  142.6970 O   0  0  0  0  0  1  0  0  0  0  0  0
  188.0850  176.5390  141.8350 C   0  0  0  0  0  0  0  0  0  0  0  0
  190.6720  173.7300  143.3450 N   0  0  0  0  0  0  0  0  0  0  0  0
  189.3120  173.1030  140.9470 C   0  0  0  0  0  0  0  0  0  0  0  0
  189.5060  174.5430  141.3580 C   0  0  1  0  0  3  0  0  0  0  0  0
  188.7670  178.0250  143.6660 F   0  0  0  0  0  0  0  0  0  0  0  0
  189.8400  175.9740  143.4590 C   0  0  0  0  0  3  0  0  0  0  0  0
  188.3150  175.4320  141.1040 C   0  0  0  0  0  3  0  0  0  0  0  0
  188.9410  176.8550  143.0020 C   0  0  0  0  0  0  0  0  0  0  0  0
  190.0000  172.1480  141.5730 C   0  0  0  0  0  3  0  0  0  0  0  0
  190.0310  174.6980  142.7670 C   0  0  0  0  0  0  0  0  0  0  0  0
  190.7760  172.4650  142.7400 N   0  0  0  0  0  0  0  0  0  0  0  0
  187.0270  177.4090  141.5390 O   0  0  0  0  0  0  0  0  0  0  0  0
  185.7030  177.7150  142.6010 P   0  0  0  0  0  0  0  0  0  0  0  0
  184.2740  177.8070  141.7040 O   0  0  0  0  0  0  0  0  0  0  0  0
  185.9620  179.1840  143.4020 O   0  0  0  0  0  1  0  0  0  0  0  0
  185.5910  176.6010  143.6160 O   0  0  0  0  0  1  0  0  0  0  0  0
  188.5520  172.7360  139.7110 C   0  0  0  0  0  2  0  0  0  0  0  0
  191.2400  173.5320  137.1410 C   0  0  0  0  0  3  0  0  0  0  0  0
  190.4010  173.6440  138.2550 C   0  0  0  0  0  3  0  0  0  0  0  0
  189.4290  172.6650  138.5020 C   0  0  0  0  0  0  0  0  0  0  0  0
  191.1200  172.4340  136.2780 C   0  0  0  0  0  3  0  0  0  0  0  0
  189.3250  171.5570  137.6450 C   0  0  0  0  0  3  0  0  0  0  0  0
  190.1660  171.4460  136.5330 C   0  0  0  0  0  3  0  0  0  0  0  0
  193.3300  173.0960  142.7310 O   0  0  0  0  0  0  0  0  0  0  0  0
  194.1560  172.6610  141.6890 C   0  0  2  0  0  3  0  0  0  0  0  0
  195.4740  173.0300  141.9610 O   0  0  0  0  0  1  0  0  0  0  0  0
  193.7190  173.3220  140.3900 C   0  0  0  0  0  2  0  0  0  0  0  0
  194.3340  172.6580  139.2490 N   0  0  0  0  0  0  0  0  0  0  0  0
  192.3490  169.5940  138.7540 C   0  0  0  0  0  0  0  0  0  0  0  0
  193.3430  169.3800  137.4180 S   0  0  0  0  0  0  0  0  0  0  0  0
  193.7540  171.4440  138.7390 C   0  0  0  0  0  0  0  0  0  0  0  0
  194.2430  170.7900  137.6040 C   0  0  0  0  0  3  0  0  0  0  0  0
  192.6940  170.7780  139.3850 C   0  0  0  0  0  3  0  0  0  0  0  0
  191.3180  168.6280  139.2260 C   0  0  0  0  0  2  0  0  0  0  0  0
  190.3320  169.2940  139.9320 F   0  0  0  0  0  0  0  0  0  0  0  0
  195.7290  172.9840  138.9530 C   0  0  0  0  0  2  0  0  0  0  0  0
  195.8730  174.3670  138.7880 O   0  0  0  0  0  1  0  0  0  0  0  0
  1  4  1  1  0  0  0
  2  5  2  0  0  0  0
  4  2  2  0  0  0  0
  5  6  1  0  0  0  0
  5  3  1  0  0  0  0
  7  6  1  0  0  0  0
  7  8  1  0  0  0  0
  9  8  2  0  0  0  0
  9 14  1  0  0  0  0
 10  9  1  0  0  0  0
 11  7  2  0  0  0  0
 12 10  1  0  0  0  0
 13 11  1  0  0  0  0
 13 10  2  0  0  0  0
 16 18  1  0  0  0  0
 17 16  2  0  0  0  0
 17 19  1  0  0  0  0
 18 15  2  0  0  0  0
 19 14  1  0  0  0  0
 19 21  2  0  0  0  0
 20 16  1  0  0  0  0
 21 15  1  0  0  0  0
 22 23  1  6  0  0  0
 22  1  1  0  0  0  0
 24 31  1  0  0  0  0
 26 27  1  0  0  0  0
 26 32  2  0  0  0  0
 27 30  1  1  0  0  0
 27 33  1  0  0  0  0
 30 24  2  0  0  0  0
 31 29  2  0  0  0  0
 31 28  1  0  0  0  0
 32 34  1  0  0  0  0
 33 25  2  0  0  0  0
 33 29  1  0  0  0  0
 34 25  1  0  0  0  0
 34 22  1  0  0  0  0
 35 24  1  0  0  0  0
 35 36  1  0  0  0  0
 36 38  1  0  0  0  0
 36 39  1  0  0  0  0
 37 36  2  0  0  0  0
 40 26  1  0  0  0  0
 41 42  1  0  0  0  0
 42 43  2  0  0  0  0
 43 40  1  0  0  0  0
 44 46  1  0  0  0  0
 44 41  2  0  0  0  0
 45 43  1  0  0  0  0
 46 45  2  0  0  0  0
 47  1  1  0  0  0  0
 48 49  1  1  0  0  0
 48 47  1  0  0  0  0
 50 48  1  0  0  0  0
 51 50  1  0  0  0  0
 52 57  1  0  0  0  0
 52 56  2  0  0  0  0
 53 55  1  0  0  0  0
 53 52  1  0  0  0  0
 54 51  1  0  0  0  0
 54 56  1  0  0  0  0
 55 54  2  0  0  0  0
 57 58  1  0  0  0  0
 59 51  1  0  0  0  0
 60 59  1  0  0  0  0
M  END
>  <MODEL>
3

>  <REMARK>
 VINA RESULT:      -7.3      3.010      7.904
  Name = 
  18 active torsions:
  status: ('A' for Active; 'I' for Inactive)
    1  A    between atoms: C_2  and  O_38
    2  A    between atoms: C_6  and  C_9
    3  A    between atoms: C_10  and  C_55
    4  A    between atoms: C_12  and  C_47
    5  A    between atoms: C_13  and  C_44
    6  A    between atoms: C_13  and  O_54
    7  A    between atoms: C_14  and  C_29
    8  A    between atoms: P_15  and  O_38
    9  A    between atoms: C_17  and  C_55
   10  A    between atoms: C_17  and  N_60
   11  A    between atoms: C_23  and  C_29
   12  A    between atoms: N_24  and  C_26
   13  A    between atoms: N_24  and  C_34
   14  A    between atoms: N_24  and  C_44
   15  A    between atoms: C_28  and  N_59
   16  A    between atoms: C_31  and  C_47
   17  A    between atoms: C_36  and  N_59
   18  A    between atoms: O_54  and  C_55
                            x       y       z     vdW  Elec       q    Type
                         _______ _______ _______ _____ _____    ______ ____

>  <TORSDO>
F 18

$$$$
=
 OpenBabel11042418503D

 60 65  0  0  1  0  0  0  0  0999 V2000
  188.6210  176.1520  141.7910 C   0  0  1  0  0  3  0  0  0  0  0  0
  186.8920  177.9140  141.8940 C   0  0  0  0  0  0  0  0  0  0  0  0
  184.4890  178.1020  141.8770 C   0  0  0  0  0  1  0  0  0  0  0  0
  187.9680  177.4260  141.3310 C   0  0  0  0  0  3  0  0  0  0  0  0
  185.8220  178.4070  142.4530 C   0  0  0  0  0  0  0  0  0  0  0  0
  185.9290  179.3880  143.5750 C   0  0  0  0  0  2  0  0  0  0  0  0
  185.9710  178.7080  144.9050 C   0  0  0  0  0  0  0  0  0  0  0  0
  186.8520  177.6470  145.1510 C   0  0  0  0  0  3  0  0  0  0  0  0
  186.8350  176.9830  146.3830 C   0  0  0  0  0  0  0  0  0  0  0  0
  185.9580  177.4210  147.3950 C   0  0  0  0  0  0  0  0  0  0  0  0
  185.0920  179.1240  145.9080 C   0  0  0  0  0  3  0  0  0  0  0  0
  185.9680  176.8520  148.6230 F   0  0  0  0  0  0  0  0  0  0  0  0
  185.0890  178.4870  147.1500 C   0  0  0  0  0  3  0  0  0  0  0  0
  187.7350  175.8880  146.5900 N   0  0  0  0  0  2  0  0  0  0  0  0
  191.1650  177.1260  147.4810 C   0  0  0  0  0  3  0  0  0  0  0  0
  191.3430  174.9730  146.3910 C   0  0  0  0  0  0  0  0  0  0  0  0
  189.9550  174.9340  146.2340 C   0  0  0  0  0  3  0  0  0  0  0  0
  191.9480  176.0680  147.0130 C   0  0  0  0  0  3  0  0  0  0  0  0
  189.1630  175.9910  146.6950 C   0  0  0  0  0  0  0  0  0  0  0  0
  192.1330  173.8830  145.9440 N   0  0  0  0  0  1  0  0  0  0  0  0
  189.7760  177.0850  147.3290 C   0  0  0  0  0  3  0  0  0  0  0  0
  189.6720  176.4190  142.8750 C   0  0  2  0  0  3  0  0  0  0  0  0
  190.1190  177.7450  142.8300 O   0  0  0  0  0  1  0  0  0  0  0  0
  193.5980  171.3960  142.9420 C   0  0  0  0  0  0  0  0  0  0  0  0
  190.5220  174.1140  142.8550 N   0  0  0  0  0  0  0  0  0  0  0  0
  193.1550  175.1060  142.5740 C   0  0  0  0  0  0  0  0  0  0  0  0
  192.8430  173.6670  142.2370 C   0  0  1  0  0  3  0  0  0  0  0  0
  191.9100  169.6210  143.1030 F   0  0  0  0  0  0  0  0  0  0  0  0
  191.1790  171.8100  142.8320 C   0  0  0  0  0  3  0  0  0  0  0  0
  193.8960  172.6800  142.6730 C   0  0  0  0  0  3  0  0  0  0  0  0
  192.1890  170.9370  142.9340 C   0  0  0  0  0  0  0  0  0  0  0  0
  192.1510  175.9650  142.7530 C   0  0  0  0  0  3  0  0  0  0  0  0
  191.4600  173.2370  142.6670 C   0  0  0  0  0  0  0  0  0  0  0  0
  190.7950  175.4930  142.8030 N   0  0  0  0  0  0  0  0  0  0  0  0
  194.5920  170.4620  143.2610 O   0  0  0  0  0  0  0  0  0  0  0  0
  194.9630  169.9560  144.8680 P   0  0  0  0  0  0  0  0  0  0  0  0
  194.6680  171.2290  145.9390 O   0  0  0  0  0  1  0  0  0  0  0  0
  196.5960  169.5180  144.9500 O   0  0  0  0  0  0  0  0  0  0  0  0
  194.1040  168.7710  145.2440 O   0  0  0  0  0  1  0  0  0  0  0  0
  194.5470  175.6480  142.4870 C   0  0  0  0  0  2  0  0  0  0  0  0
  195.8270  174.6600  145.9290 C   0  0  0  0  0  3  0  0  0  0  0  0
  195.0070  175.1800  144.9220 C   0  0  0  0  0  3  0  0  0  0  0  0
  195.4260  175.1420  143.5860 C   0  0  0  0  0  0  0  0  0  0  0  0
  197.0640  174.0880  145.6010 C   0  0  0  0  0  3  0  0  0  0  0  0
  196.6580  174.5520  143.2600 C   0  0  0  0  0  3  0  0  0  0  0  0
  197.4770  174.0310  144.2670 C   0  0  0  0  0  3  0  0  0  0  0  0
  187.6850  175.1840  142.1940 O   0  0  0  0  0  0  0  0  0  0  0  0
  187.6230  174.2850  141.1230 C   0  0  2  0  0  3  0  0  0  0  0  0
  187.6920  172.9800  141.6110 O   0  0  0  0  0  1  0  0  0  0  0  0
  188.8030  174.5260  140.1940 C   0  0  0  0  0  2  0  0  0  0  0  0
  188.9290  173.4360  139.2370 N   0  0  0  0  0  0  0  0  0  0  0  0
  192.4070  172.2580  138.9300 C   0  0  0  0  0  0  0  0  0  0  0  0
  191.7270  170.7430  139.1740 S   0  0  0  0  0  0  0  0  0  0  0  0
  190.1360  172.6500  139.2150 C   0  0  0  0  0  0  0  0  0  0  0  0
  190.1340  171.2590  139.3500 C   0  0  0  0  0  3  0  0  0  0  0  0
  191.4050  173.2140  138.9800 C   0  0  0  0  0  3  0  0  0  0  0  0
  193.8420  172.5220  138.6310 C   0  0  0  0  0  2  0  0  0  0  0  0
  193.9600  173.1980  137.4290 F   0  0  0  0  0  0  0  0  0  0  0  0
  188.0490  173.4590  138.0700 C   0  0  0  0  0  2  0  0  0  0  0  0
  188.3420  174.5710  137.2720 O   0  0  0  0  0  1  0  0  0  0  0  0
  1  4  1  1  0  0  0
  1 47  1  0  0  0  0
  1 22  1  0  0  0  0
  2  5  2  0  0  0  0
  3  5  1  0  0  0  0
  4  2  2  0  0  0  0
  5  6  1  0  0  0  0
  6  7  1  0  0  0  0
  7  8  2  0  0  0  0
  7 11  1  0  0  0  0
  8  9  1  0  0  0  0
  9 14  1  0  0  0  0
  9 10  2  0  0  0  0
 10 12  1  0  0  0  0
 11 13  2  0  0  0  0
 13 10  1  0  0  0  0
 14 19  1  0  0  0  0
 16 18  1  0  0  0  0
 17 16  2  0  0  0  0
 17 19  1  0  0  0  0
 18 15  2  0  0  0  0
 19 21  2  0  0  0  0
 20 16  1  0  0  0  0
 21 15  1  0  0  0  0
 22 23  1  6  0  0  0
 24 35  1  0  0  0  0
 26 32  2  0  0  0  0
 27 26  1  0  0  0  0
 27 33  1  0  0  0  0
 27 30  1  1  0  0  0
 29 31  2  0  0  0  0
 30 24  2  0  0  0  0
 31 24  1  0  0  0  0
 31 28  1  0  0  0  0
 32 34  1  0  0  0  0
 33 29  1  0  0  0  0
 33 25  2  0  0  0  0
 34 25  1  0  0  0  0
 34 22  1  0  0  0  0
 35 36  1  0  0  0  0
 36 38  2  0  0  0  0
 36 39  1  0  0  0  0
 36 37  1  0  0  0  0
 40 26  1  0  0  0  0
 40 43  1  0  0  0  0
 42 41  2  0  0  0  0
 43 42  1  0  0  0  0
 44 41  1  0  0  0  0
 45 43  2  0  0  0  0
 45 46  1  0  0  0  0
 46 44  2  0  0  0  0
 48 49  1  1  0  0  0
 48 47  1  0  0  0  0
 50 48  1  0  0  0  0
 51 50  1  0  0  0  0
 52 56  2  0  0  0  0
 52 53  1  0  0  0  0
 53 55  1  0  0  0  0
 54 51  1  0  0  0  0
 54 55  2  0  0  0  0
 56 54  1  0  0  0  0
 57 52  1  0  0  0  0
 58 57  1  0  0  0  0
 59 51  1  0  0  0  0
 60 59  1  0  0  0  0
M  END
>  <MODEL>
4

>  <REMARK>
 VINA RESULT:      -7.1      2.018      3.120
  Name = 
  18 active torsions:
  status: ('A' for Active; 'I' for Inactive)
    1  A    between atoms: C_2  and  O_38
    2  A    between atoms: C_6  and  C_9
    3  A    between atoms: C_10  and  C_55
    4  A    between atoms: C_12  and  C_47
    5  A    between atoms: C_13  and  C_44
    6  A    between atoms: C_13  and  O_54
    7  A    between atoms: C_14  and  C_29
    8  A    between atoms: P_15  and  O_38
    9  A    between atoms: C_17  and  C_55
   10  A    between atoms: C_17  and  N_60
   11  A    between atoms: C_23  and  C_29
   12  A    between atoms: N_24  and  C_26
   13  A    between atoms: N_24  and  C_34
   14  A    between atoms: N_24  and  C_44
   15  A    between atoms: C_28  and  N_59
   16  A    between atoms: C_31  and  C_47
   17  A    between atoms: C_36  and  N_59
   18  A    between atoms: O_54  and  C_55
                            x       y       z     vdW  Elec       q    Type
                         _______ _______ _______ _____ _____    ______ ____

>  <TORSDO>
F 18

$$$$
=
 OpenBabel11042418503D

 60 65  0  0  1  0  0  0  0  0999 V2000
  194.2590  171.4950  142.4040 C   0  0  1  0  0  3  0  0  0  0  0  0
  195.2920  171.9360  144.6040 C   0  0  0  0  0  0  0  0  0  0  0  0
  196.7690  170.8480  146.1670 C   0  0  0  0  0  1  0  0  0  0  0  0
  194.2170  171.8620  143.8610 C   0  0  0  0  0  3  0  0  0  0  0  0
  196.3590  172.0160  145.3500 C   0  0  0  0  0  0  0  0  0  0  0  0
  197.0900  173.3100  145.5000 C   0  0  0  0  0  2  0  0  0  0  0  0
  196.1800  174.4840  145.3420 C   0  0  0  0  0  0  0  0  0  0  0  0
  195.1200  174.7070  146.2300 C   0  0  0  0  0  3  0  0  0  0  0  0
  194.2420  175.7790  146.0300 C   0  0  0  0  0  0  0  0  0  0  0  0
  194.4600  176.6630  144.9570 C   0  0  0  0  0  0  0  0  0  0  0  0
  196.3790  175.3570  144.2690 C   0  0  0  0  0  3  0  0  0  0  0  0
  193.6770  177.7530  144.7790 F   0  0  0  0  0  0  0  0  0  0  0  0
  195.5250  176.4460  144.0800 C   0  0  0  0  0  3  0  0  0  0  0  0
  193.1560  175.9610  146.9470 N   0  0  0  0  0  2  0  0  0  0  0  0
  189.4030  175.9690  146.9010 C   0  0  0  0  0  3  0  0  0  0  0  0
  190.2210  174.1000  145.6000 C   0  0  0  0  0  0  0  0  0  0  0  0
  191.5370  174.4590  145.9060 C   0  0  0  0  0  3  0  0  0  0  0  0
  189.1540  174.8540  146.0970 C   0  0  0  0  0  3  0  0  0  0  0  0
  191.7940  175.5710  146.7140 C   0  0  0  0  0  0  0  0  0  0  0  0
  189.9730  172.9860  144.7570 N   0  0  0  0  0  1  0  0  0  0  0  0
  190.7180  176.3310  147.2020 C   0  0  0  0  0  3  0  0  0  0  0  0
  194.0730  172.7250  141.5080 C   0  0  2  0  0  3  0  0  0  0  0  0
  194.9970  173.7270  141.8280 O   0  0  0  0  0  1  0  0  0  0  0  0
  188.6920  175.9650  142.6070 C   0  0  0  0  0  0  0  0  0  0  0  0
  192.5010  174.4980  142.1590 N   0  0  0  0  0  0  0  0  0  0  0  0
  190.3840  173.0200  141.0080 C   0  0  0  0  0  0  0  0  0  0  0  0
  190.2180  174.4930  141.2900 C   0  0  1  0  0  3  0  0  0  0  0  0
  189.6690  177.9100  143.7430 F   0  0  0  0  0  0  0  0  0  0  0  0
  191.1110  176.3240  142.8460 C   0  0  0  0  0  3  0  0  0  0  0  0
  188.8650  174.8780  141.8330 C   0  0  0  0  0  3  0  0  0  0  0  0
  189.8610  176.7590  143.0530 C   0  0  0  0  0  0  0  0  0  0  0  0
  191.6020  172.4790  141.0600 C   0  0  0  0  0  3  0  0  0  0  0  0
  191.3400  175.0750  142.1190 C   0  0  0  0  0  0  0  0  0  0  0  0
  192.7120  173.2470  141.5530 N   0  0  0  0  0  0  0  0  0  0  0  0
  187.4210  176.3680  143.0360 O   0  0  0  0  0  0  0  0  0  0  0  0
  186.4300  177.4980  142.1890 P   0  0  0  0  0  0  0  0  0  0  0  0
  184.8420  177.3880  142.7580 O   0  0  0  0  0  1  0  0  0  0  0  0
  186.4620  177.1350  140.5360 O   0  0  0  0  0  0  0  0  0  0  0  0
  186.9480  178.9010  142.4070 O   0  0  0  0  0  1  0  0  0  0  0  0
  189.2660  172.1970  140.4480 C   0  0  0  0  0  2  0  0  0  0  0  0
  189.8590  170.2960  137.2080 C   0  0  0  0  0  3  0  0  0  0  0  0
  189.7260  170.5750  138.5730 C   0  0  0  0  0  3  0  0  0  0  0  0
  189.4590  171.8830  138.9990 C   0  0  0  0  0  0  0  0  0  0  0  0
  189.7120  171.3220  136.2640 C   0  0  0  0  0  3  0  0  0  0  0  0
  189.2940  172.9030  138.0490 C   0  0  0  0  0  3  0  0  0  0  0  0
  189.4250  172.6230  136.6840 C   0  0  0  0  0  3  0  0  0  0  0  0
  195.4160  170.7700  142.0650 O   0  0  0  0  0  0  0  0  0  0  0  0
  195.2230  170.4020  140.7290 C   0  0  2  0  0  3  0  0  0  0  0  0
  194.5800  169.1650  140.6790 O   0  0  0  0  0  1  0  0  0  0  0  0
  196.5740  170.2820  140.0390 C   0  0  0  0  0  2  0  0  0  0  0  0
  196.5350  170.9180  138.7290 N   0  0  0  0  0  0  0  0  0  0  0  0
  197.0790  174.5400  139.1280 C   0  0  0  0  0  0  0  0  0  0  0  0
  195.6940  174.6710  138.1890 S   0  0  0  0  0  0  0  0  0  0  0  0
  196.4670  172.3540  138.6420 C   0  0  0  0  0  0  0  0  0  0  0  0
  195.4420  173.0220  137.9650 C   0  0  0  0  0  3  0  0  0  0  0  0
  197.3850  173.2000  139.2940 C   0  0  0  0  0  3  0  0  0  0  0  0
  197.8140  175.6800  139.7460 C   0  0  0  0  0  2  0  0  0  0  0  0
  197.0020  176.3270  140.6610 F   0  0  0  0  0  0  0  0  0  0  0  0
  196.1240  170.0950  137.5920 C   0  0  0  0  0  2  0  0  0  0  0  0
  197.2370  169.4400  137.0500 O   0  0  0  0  0  1  0  0  0  0  0  0
  1  4  1  1  0  0  0
  2  5  2  0  0  0  0
  4  2  2  0  0  0  0
  5  6  1  0  0  0  0
  5  3  1  0  0  0  0
  7  6  1  0  0  0  0
  7  8  1  0  0  0  0
  9  8  2  0  0  0  0
  9 14  1  0  0  0  0
 10  9  1  0  0  0  0
 11  7  2  0  0  0  0
 12 10  1  0  0  0  0
 13 11  1  0  0  0  0
 13 10  2  0  0  0  0
 15 21  1  0  0  0  0
 16 17  2  0  0  0  0
 16 18  1  0  0  0  0
 17 19  1  0  0  0  0
 18 15  2  0  0  0  0
 19 14  1  0  0  0  0
 19 21  2  0  0  0  0
 20 16  1  0  0  0  0
 22 34  1  0  0  0  0
 22 23  1  1  0  0  0
 22  1  1  0  0  0  0
 24 35  1  0  0  0  0
 24 31  1  0  0  0  0
 26 32  2  0  0  0  0
 26 27  1  0  0  0  0
 27 30  1  1  0  0  0
 27 33  1  0  0  0  0
 29 31  2  0  0  0  0
 30 24  2  0  0  0  0
 31 28  1  0  0  0  0
 32 34  1  0  0  0  0
 33 25  2  0  0  0  0
 33 29  1  0  0  0  0
 34 25  1  0  0  0  0
 36 39  1  0  0  0  0
 36 37  1  0  0  0  0
 36 35  1  0  0  0  0
 38 36  2  0  0  0  0
 40 26  1  0  0  0  0
 41 42  1  0  0  0  0
 42 43  2  0  0  0  0
 43 40  1  0  0  0  0
 44 46  1  0  0  0  0
 44 41  2  0  0  0  0
 45 43  1  0  0  0  0
 46 45  2  0  0  0  0
 47  1  1  0  0  0  0
 48 49  1  1  0  0  0
 48 47  1  0  0  0  0
 50 48  1  0  0  0  0
 51 50  1  0  0  0  0
 52 56  2  0  0  0  0
 52 57  1  0  0  0  0
 53 52  1  0  0  0  0
 54 51  1  0  0  0  0
 54 56  1  0  0  0  0
 55 53  1  0  0  0  0
 55 54  2  0  0  0  0
 57 58  1  0  0  0  0
 59 51  1  0  0  0  0
 60 59  1  0  0  0  0
M  END
>  <MODEL>
5

>  <REMARK>
 VINA RESULT:      -7.0      3.230      8.351
  Name = 
  18 active torsions:
  status: ('A' for Active; 'I' for Inactive)
    1  A    between atoms: C_2  and  O_38
    2  A    between atoms: C_6  and  C_9
    3  A    between atoms: C_10  and  C_55
    4  A    between atoms: C_12  and  C_47
    5  A    between atoms: C_13  and  C_44
    6  A    between atoms: C_13  and  O_54
    7  A    between atoms: C_14  and  C_29
    8  A    between atoms: P_15  and  O_38
    9  A    between atoms: C_17  and  C_55
   10  A    between atoms: C_17  and  N_60
   11  A    between atoms: C_23  and  C_29
   12  A    between atoms: N_24  and  C_26
   13  A    between atoms: N_24  and  C_34
   14  A    between atoms: N_24  and  C_44
   15  A    between atoms: C_28  and  N_59
   16  A    between atoms: C_31  and  C_47
   17  A    between atoms: C_36  and  N_59
   18  A    between atoms: O_54  and  C_55
                            x       y       z     vdW  Elec       q    Type
                         _______ _______ _______ _____ _____    ______ ____

>  <TORSDO>
F 18

$$$$
=
 OpenBabel11042418503D

 60 65  0  0  1  0  0  0  0  0999 V2000
  189.0300  175.9820  142.1660 C   0  0  1  0  0  3  0  0  0  0  0  0
  187.3000  177.7300  141.9310 C   0  0  0  0  0  0  0  0  0  0  0  0
  184.9080  177.8950  141.6850 C   0  0  0  0  0  1  0  0  0  0  0  0
  188.4210  177.1950  141.5190 C   0  0  0  0  0  3  0  0  0  0  0  0
  186.1860  178.2710  142.3390 C   0  0  0  0  0  0  0  0  0  0  0  0
  186.1950  179.3650  143.3560 C   0  0  0  0  0  2  0  0  0  0  0  0
  186.1550  178.8280  144.7500 C   0  0  0  0  0  0  0  0  0  0  0  0
  186.8310  177.6500  145.0950 C   0  0  0  0  0  3  0  0  0  0  0  0
  186.7330  177.1300  146.3910 C   0  0  0  0  0  0  0  0  0  0  0  0
  185.9880  177.8260  147.3620 C   0  0  0  0  0  0  0  0  0  0  0  0
  185.4030  179.5020  145.7160 C   0  0  0  0  0  3  0  0  0  0  0  0
  185.9340  177.3930  148.6440 F   0  0  0  0  0  0  0  0  0  0  0  0
  185.3240  179.0060  147.0190 C   0  0  0  0  0  3  0  0  0  0  0  0
  187.4210  175.9120  146.6990 N   0  0  0  0  0  2  0  0  0  0  0  0
  190.9610  174.6700  146.5780 C   0  0  0  0  0  3  0  0  0  0  0  0
  190.8740  176.7390  147.8290 C   0  0  0  0  0  0  0  0  0  0  0  0
  189.4900  176.7950  147.6490 C   0  0  0  0  0  3  0  0  0  0  0  0
  191.6100  175.6780  147.2950 C   0  0  0  0  0  3  0  0  0  0  0  0
  188.8310  175.7870  146.9360 C   0  0  0  0  0  0  0  0  0  0  0  0
  191.5340  177.7810  148.5310 N   0  0  0  0  0  1  0  0  0  0  0  0
  189.5770  174.7290  146.3920 C   0  0  0  0  0  3  0  0  0  0  0  0
  190.0500  176.3710  143.2420 C   0  0  2  0  0  3  0  0  0  0  0  0
  190.3480  177.7380  143.1850 O   0  0  0  0  0  1  0  0  0  0  0  0
  194.5690  171.8840  143.5540 C   0  0  0  0  0  0  0  0  0  0  0  0
  191.1800  174.2000  143.4480 N   0  0  0  0  0  0  0  0  0  0  0  0
  193.6230  175.4200  142.7190 C   0  0  0  0  0  0  0  0  0  0  0  0
  193.4640  173.9210  142.6280 C   0  0  1  0  0  3  0  0  0  0  0  0
  193.1450  169.9800  144.1640 F   0  0  0  0  0  0  0  0  0  0  0  0
  192.1190  172.0070  143.6740 C   0  0  0  0  0  3  0  0  0  0  0  0
  194.6730  173.1360  143.0710 C   0  0  0  0  0  3  0  0  0  0  0  0
  193.2360  171.2770  143.7780 C   0  0  0  0  0  0  0  0  0  0  0  0
  192.5420  176.1810  142.8920 C   0  0  0  0  0  3  0  0  0  0  0  0
  192.1970  173.4130  143.2770 C   0  0  0  0  0  0  0  0  0  0  0  0
  191.2690  175.5750  143.1690 N   0  0  0  0  0  0  0  0  0  0  0  0
  195.7010  171.1260  143.8810 O   0  0  0  0  0  0  0  0  0  0  0  0
  196.3530  171.0020  145.4740 P   0  0  0  0  0  0  0  0  0  0  0  0
  195.2710  170.1560  146.4580 O   0  0  0  0  0  1  0  0  0  0  0  0
  196.5870  172.5570  146.1000 O   0  0  0  0  0  1  0  0  0  0  0  0
  197.6750  170.2720  145.4320 O   0  0  0  0  0  0  0  0  0  0  0  0
  194.9190  176.0930  142.3900 C   0  0  0  0  0  2  0  0  0  0  0  0
  197.2630  175.1450  139.5490 C   0  0  0  0  0  3  0  0  0  0  0  0
  196.8070  175.5470  140.8090 C   0  0  0  0  0  3  0  0  0  0  0  0
  195.4350  175.7100  141.0400 C   0  0  0  0  0  0  0  0  0  0  0  0
  196.3470  174.8900  138.5200 C   0  0  0  0  0  3  0  0  0  0  0  0
  194.5200  175.4350  140.0110 C   0  0  0  0  0  3  0  0  0  0  0  0
  194.9770  175.0310  138.7520 C   0  0  0  0  0  3  0  0  0  0  0  0
  188.0590  175.0930  142.6620 O   0  0  0  0  0  0  0  0  0  0  0  0
  188.0280  174.0500  141.7290 C   0  0  2  0  0  3  0  0  0  0  0  0
  188.2020  172.8330  142.3900 O   0  0  0  0  0  1  0  0  0  0  0  0
  189.1600  174.2330  140.7290 C   0  0  0  0  0  2  0  0  0  0  0  0
  189.1980  173.1190  139.7930 N   0  0  0  0  0  0  0  0  0  0  0  0
  191.7280  170.4860  140.2850 C   0  0  0  0  0  0  0  0  0  0  0  0
  192.6690  171.4520  139.2850 S   0  0  0  0  0  0  0  0  0  0  0  0
  190.3720  172.2870  139.7300 C   0  0  0  0  0  0  0  0  0  0  0  0
  191.5200  172.6520  139.0190 C   0  0  0  0  0  3  0  0  0  0  0  0
  190.4840  171.0750  140.4390 C   0  0  0  0  0  3  0  0  0  0  0  0
  192.1840  169.2370  140.9580 C   0  0  0  0  0  2  0  0  0  0  0  0
  191.3480  168.9370  142.0190 F   0  0  0  0  0  0  0  0  0  0  0  0
  188.2620  173.1510  138.6690 C   0  0  0  0  0  2  0  0  0  0  0  0
  188.0600  174.4720  138.2530 O   0  0  0  0  0  1  0  0  0  0  0  0
  1  4  1  1  0  0  0
  1 47  1  0  0  0  0
  1 22  1  0  0  0  0
  2  5  2  0  0  0  0
  3  5  1  0  0  0  0
  4  2  2  0  0  0  0
  5  6  1  0  0  0  0
  6  7  1  0  0  0  0
  7  8  2  0  0  0  0
  7 11  1  0  0  0  0
  8  9  1  0  0  0  0
  9 14  1  0  0  0  0
  9 10  2  0  0  0  0
 10 12  1  0  0  0  0
 11 13  2  0  0  0  0
 13 10  1  0  0  0  0
 14 19  1  0  0  0  0
 15 18  1  0  0  0  0
 16 20  1  0  0  0  0
 17 16  1  0  0  0  0
 18 16  2  0  0  0  0
 19 17  2  0  0  0  0
 21 15  2  0  0  0  0
 21 19  1  0  0  0  0
 22 23  1  6  0  0  0
 24 31  1  0  0  0  0
 24 35  1  0  0  0  0
 26 32  2  0  0  0  0
 27 26  1  0  0  0  0
 27 30  1  1  0  0  0
 27 33  1  0  0  0  0
 29 31  2  0  0  0  0
 30 24  2  0  0  0  0
 31 28  1  0  0  0  0
 32 34  1  0  0  0  0
 33 25  2  0  0  0  0
 33 29  1  0  0  0  0
 34 22  1  0  0  0  0
 34 25  1  0  0  0  0
 35 36  1  0  0  0  0
 36 38  1  0  0  0  0
 36 37  1  0  0  0  0
 39 36  2  0  0  0  0
 40 26  1  0  0  0  0
 41 42  1  0  0  0  0
 42 43  2  0  0  0  0
 43 40  1  0  0  0  0
 44 46  1  0  0  0  0
 44 41  2  0  0  0  0
 45 43  1  0  0  0  0
 46 45  2  0  0  0  0
 48 49  1  1  0  0  0
 48 47  1  0  0  0  0
 50 48  1  0  0  0  0
 51 50  1  0  0  0  0
 52 56  2  0  0  0  0
 52 57  1  0  0  0  0
 53 52  1  0  0  0  0
 54 51  1  0  0  0  0
 54 56  1  0  0  0  0
 55 53  1  0  0  0  0
 55 54  2  0  0  0  0
 57 58  1  0  0  0  0
 59 51  1  0  0  0  0
 60 59  1  0  0  0  0
M  END
>  <MODEL>
6

>  <REMARK>
 VINA RESULT:      -6.9      2.161      3.580
  Name = 
  18 active torsions:
  status: ('A' for Active; 'I' for Inactive)
    1  A    between atoms: C_2  and  O_38
    2  A    between atoms: C_6  and  C_9
    3  A    between atoms: C_10  and  C_55
    4  A    between atoms: C_12  and  C_47
    5  A    between atoms: C_13  and  C_44
    6  A    between atoms: C_13  and  O_54
    7  A    between atoms: C_14  and  C_29
    8  A    between atoms: P_15  and  O_38
    9  A    between atoms: C_17  and  C_55
   10  A    between atoms: C_17  and  N_60
   11  A    between atoms: C_23  and  C_29
   12  A    between atoms: N_24  and  C_26
   13  A    between atoms: N_24  and  C_34
   14  A    between atoms: N_24  and  C_44
   15  A    between atoms: C_28  and  N_59
   16  A    between atoms: C_31  and  C_47
   17  A    between atoms: C_36  and  N_59
   18  A    between atoms: O_54  and  C_55
                            x       y       z     vdW  Elec       q    Type
                         _______ _______ _______ _____ _____    ______ ____

>  <TORSDO>
F 18

$$$$
=
 OpenBabel11042418503D

 60 65  0  0  1  0  0  0  0  0999 V2000
  190.5440  172.4130  138.5550 C   0  0  1  0  0  3  0  0  0  0  0  0
  189.0930  172.4860  140.5530 C   0  0  0  0  0  0  0  0  0  0  0  0
  189.2930  172.3160  142.9500 C   0  0  0  0  0  1  0  0  0  0  0  0
  189.3660  171.9740  139.3800 C   0  0  0  0  0  3  0  0  0  0  0  0
  188.8120  172.9950  141.7210 C   0  0  0  0  0  0  0  0  0  0  0  0
  187.8960  174.1680  141.8420 C   0  0  0  0  0  2  0  0  0  0  0  0
  188.5170  175.2790  142.6250 C   0  0  0  0  0  0  0  0  0  0  0  0
  187.9900  175.6830  143.8580 C   0  0  0  0  0  3  0  0  0  0  0  0
  188.5500  176.7650  144.5480 C   0  0  0  0  0  0  0  0  0  0  0  0
  189.6800  177.4160  144.0180 C   0  0  0  0  0  0  0  0  0  0  0  0
  189.6290  175.9430  142.0980 C   0  0  0  0  0  3  0  0  0  0  0  0
  190.2920  178.4160  144.6950 F   0  0  0  0  0  0  0  0  0  0  0  0
  190.2110  177.0040  142.7940 C   0  0  0  0  0  3  0  0  0  0  0  0
  187.9680  177.1630  145.7960 N   0  0  0  0  0  2  0  0  0  0  0  0
  184.7800  178.3210  147.4050 C   0  0  0  0  0  3  0  0  0  0  0  0
  184.6210  178.5980  145.0070 C   0  0  0  0  0  0  0  0  0  0  0  0
  185.9000  178.0570  144.8550 C   0  0  0  0  0  3  0  0  0  0  0  0
  184.0600  178.7290  146.2800 C   0  0  0  0  0  3  0  0  0  0  0  0
  186.6260  177.6410  145.9760 C   0  0  0  0  0  0  0  0  0  0  0  0
  183.9040  179.0420  143.8650 N   0  0  0  0  0  1  0  0  0  0  0  0
  186.0630  177.7850  147.2540 C   0  0  0  0  0  3  0  0  0  0  0  0
  191.7080  171.4210  138.6650 C   0  0  2  0  0  3  0  0  0  0  0  0
  191.2510  170.1400  138.9960 O   0  0  0  0  0  1  0  0  0  0  0  0
  196.4400  171.9440  142.9070 C   0  0  0  0  0  0  0  0  0  0  0  0
  193.6780  170.9210  140.0460 N   0  0  0  0  0  0  0  0  0  0  0  0
  193.7370  173.6140  140.9060 C   0  0  0  0  0  0  0  0  0  0  0  0
  194.9570  172.7370  141.0630 C   0  0  1  0  0  3  0  0  0  0  0  0
  197.2790  169.6390  142.7960 F   0  0  0  0  0  0  0  0  0  0  0  0
  195.6010  170.2690  141.3170 C   0  0  0  0  0  3  0  0  0  0  0  0
  195.7010  172.9270  142.3610 C   0  0  0  0  0  3  0  0  0  0  0  0
  196.4490  170.5910  142.3020 C   0  0  0  0  0  0  0  0  0  0  0  0
  192.7320  173.1990  140.1350 C   0  0  0  0  0  3  0  0  0  0  0  0
  194.6860  171.2770  140.7810 C   0  0  0  0  0  0  0  0  0  0  0  0
  192.7300  171.8620  139.6080 N   0  0  0  0  0  0  0  0  0  0  0  0
  197.2000  172.1520  144.0650 O   0  0  0  0  0  0  0  0  0  0  0  0
  196.5760  172.0130  145.6670 P   0  0  0  0  0  0  0  0  0  0  0  0
  197.0070  170.5100  146.3090 O   0  0  0  0  0  1  0  0  0  0  0  0
  194.8890  172.1420  145.6190 O   0  0  0  0  0  0  0  0  0  0  0  0
  197.1410  173.1130  146.5350 O   0  0  0  0  0  1  0  0  0  0  0  0
  193.7180  175.0270  141.3980 C   0  0  0  0  0  2  0  0  0  0  0  0
  191.9660  174.2560  144.6840 C   0  0  0  0  0  3  0  0  0  0  0  0
  192.3790  174.1580  143.3510 C   0  0  0  0  0  3  0  0  0  0  0  0
  193.2240  175.1340  142.8050 C   0  0  0  0  0  0  0  0  0  0  0  0
  192.4060  175.3230  145.4800 C   0  0  0  0  0  3  0  0  0  0  0  0
  193.6770  176.1900  143.6110 C   0  0  0  0  0  3  0  0  0  0  0  0
  193.2640  176.2860  144.9450 C   0  0  0  0  0  3  0  0  0  0  0  0
  190.1970  172.6680  137.2160 O   0  0  0  0  0  0  0  0  0  0  0  0
  190.7340  173.9310  136.9470 C   0  0  2  0  0  3  0  0  0  0  0  0
  189.7190  174.7780  136.4990 O   0  0  0  0  0  1  0  0  0  0  0  0
  191.7900  173.8100  135.8580 C   0  0  0  0  0  2  0  0  0  0  0  0
  193.0700  174.3170  136.3300 N   0  0  0  0  0  0  0  0  0  0  0  0
  196.1550  172.7310  137.5710 C   0  0  0  0  0  0  0  0  0  0  0  0
  195.5440  171.3640  136.8130 S   0  0  0  0  0  0  0  0  0  0  0  0
  194.1130  173.3900  136.6820 C   0  0  0  0  0  0  0  0  0  0  0  0
  194.1120  172.0560  136.2630 C   0  0  0  0  0  3  0  0  0  0  0  0
  195.2540  173.7720  137.4150 C   0  0  0  0  0  3  0  0  0  0  0  0
  197.4850  172.8290  138.2350 C   0  0  0  0  0  2  0  0  0  0  0  0
  197.6530  171.7760  139.1180 F   0  0  0  0  0  0  0  0  0  0  0  0
  193.1030  175.6860  136.8450 C   0  0  0  0  0  2  0  0  0  0  0  0
  192.7130  176.5830  135.8430 O   0  0  0  0  0  1  0  0  0  0  0  0
  1 22  1  0  0  0  0
  1  4  1  1  0  0  0
  2  5  2  0  0  0  0
  4  2  2  0  0  0  0
  5  6  1  0  0  0  0
  5  3  1  0  0  0  0
  6  7  1  0  0  0  0
  7  8  1  0  0  0  0
  8  9  2  0  0  0  0
  9 14  1  0  0  0  0
 10  9  1  0  0  0  0
 10 12  1  0  0  0  0
 11  7  2  0  0  0  0
 11 13  1  0  0  0  0
 13 10  2  0  0  0  0
 14 19  1  0  0  0  0
 16 18  1  0  0  0  0
 17 16  2  0  0  0  0
 17 19  1  0  0  0  0
 18 15  2  0  0  0  0
 19 21  2  0  0  0  0
 20 16  1  0  0  0  0
 21 15  1  0  0  0  0
 22 23  1  1  0  0  0
 22 34  1  0  0  0  0
 24 35  1  0  0  0  0
 25 33  2  0  0  0  0
 26 27  1  0  0  0  0
 26 40  1  0  0  0  0
 27 30  1  1  0  0  0
 29 31  2  0  0  0  0
 30 24  2  0  0  0  0
 31 28  1  0  0  0  0
 31 24  1  0  0  0  0
 32 26  2  0  0  0  0
 33 27  1  0  0  0  0
 33 29  1  0  0  0  0
 34 25  1  0  0  0  0
 34 32  1  0  0  0  0
 35 36  1  0  0  0  0
 36 37  1  0  0  0  0
 36 39  1  0  0  0  0
 38 36  2  0  0  0  0
 40 43  1  0  0  0  0
 41 44  1  0  0  0  0
 42 41  2  0  0  0  0
 43 42  1  0  0  0  0
 43 45  2  0  0  0  0
 45 46  1  0  0  0  0
 46 44  2  0  0  0  0
 47  1  1  0  0  0  0
 48 49  1  6  0  0  0
 48 47  1  0  0  0  0
 50 51  1  0  0  0  0
 50 48  1  0  0  0  0
 51 54  1  0  0  0  0
 51 59  1  0  0  0  0
 52 57  1  0  0  0  0
 53 52  1  0  0  0  0
 54 56  1  0  0  0  0
 55 54  2  0  0  0  0
 55 53  1  0  0  0  0
 56 52  2  0  0  0  0
 57 58  1  0  0  0  0
 60 59  1  0  0  0  0
M  END
>  <MODEL>
7

>  <REMARK>
 VINA RESULT:      -6.8      3.209      5.702
  Name = 
  18 active torsions:
  status: ('A' for Active; 'I' for Inactive)
    1  A    between atoms: C_2  and  O_38
    2  A    between atoms: C_6  and  C_9
    3  A    between atoms: C_10  and  C_55
    4  A    between atoms: C_12  and  C_47
    5  A    between atoms: C_13  and  C_44
    6  A    between atoms: C_13  and  O_54
    7  A    between atoms: C_14  and  C_29
    8  A    between atoms: P_15  and  O_38
    9  A    between atoms: C_17  and  C_55
   10  A    between atoms: C_17  and  N_60
   11  A    between atoms: C_23  and  C_29
   12  A    between atoms: N_24  and  C_26
   13  A    between atoms: N_24  and  C_34
   14  A    between atoms: N_24  and  C_44
   15  A    between atoms: C_28  and  N_59
   16  A    between atoms: C_31  and  C_47
   17  A    between atoms: C_36  and  N_59
   18  A    between atoms: O_54  and  C_55
                            x       y       z     vdW  Elec       q    Type
                         _______ _______ _______ _____ _____    ______ ____

>  <TORSDO>
F 18

$$$$
=
 OpenBabel11042418503D

 60 65  0  0  1  0  0  0  0  0999 V2000
  194.1620  171.5930  142.4200 C   0  0  1  0  0  3  0  0  0  0  0  0
  195.0810  172.0480  144.6670 C   0  0  0  0  0  0  0  0  0  0  0  0
  196.4970  170.9790  146.3000 C   0  0  0  0  0  1  0  0  0  0  0  0
  194.0440  171.9580  143.8730 C   0  0  0  0  0  3  0  0  0  0  0  0
  196.1090  172.1420  145.4630 C   0  0  0  0  0  0  0  0  0  0  0  0
  196.8150  173.4460  145.6490 C   0  0  0  0  0  2  0  0  0  0  0  0
  195.9000  174.6080  145.4330 C   0  0  0  0  0  0  0  0  0  0  0  0
  194.8270  174.8580  146.2980 C   0  0  0  0  0  3  0  0  0  0  0  0
  193.9450  175.9160  146.0450 C   0  0  0  0  0  0  0  0  0  0  0  0
  194.1720  176.7590  144.9400 C   0  0  0  0  0  0  0  0  0  0  0  0
  196.1070  175.4390  144.3290 C   0  0  0  0  0  3  0  0  0  0  0  0
  193.3850  177.8360  144.7100 F   0  0  0  0  0  0  0  0  0  0  0  0
  195.2500  176.5150  144.0870 C   0  0  0  0  0  3  0  0  0  0  0  0
  192.8460  176.1270  146.9400 N   0  0  0  0  0  2  0  0  0  0  0  0
  189.6990  174.3530  145.9210 C   0  0  0  0  0  3  0  0  0  0  0  0
  189.1490  176.5550  146.7570 C   0  0  0  0  0  0  0  0  0  0  0  0
  190.5050  176.8210  146.9620 C   0  0  0  0  0  3  0  0  0  0  0  0
  188.7450  175.3230  146.2360 C   0  0  0  0  0  3  0  0  0  0  0  0
  191.4670  175.8560  146.6450 C   0  0  0  0  0  0  0  0  0  0  0  0
  188.1800  177.5310  147.1080 N   0  0  0  0  0  1  0  0  0  0  0  0
  191.0560  174.6150  146.1320 C   0  0  0  0  0  3  0  0  0  0  0  0
  193.9590  172.8140  141.5150 C   0  0  2  0  0  3  0  0  0  0  0  0
  194.8790  173.8250  141.8170 O   0  0  0  0  0  1  0  0  0  0  0  0
  188.5620  176.0150  142.6500 C   0  0  0  0  0  0  0  0  0  0  0  0
  192.3780  174.5740  142.1780 N   0  0  0  0  0  0  0  0  0  0  0  0
  190.2650  173.0850  141.0340 C   0  0  0  0  0  0  0  0  0  0  0  0
  190.0910  174.5570  141.3210 C   0  0  1  0  0  3  0  0  0  0  0  0
  189.5320  177.9630  143.7870 F   0  0  0  0  0  0  0  0  0  0  0  0
  190.9800  176.3890  142.8780 C   0  0  0  0  0  3  0  0  0  0  0  0
  188.7380  174.9320  141.8710 C   0  0  0  0  0  3  0  0  0  0  0  0
  189.7290  176.8150  143.0920 C   0  0  0  0  0  0  0  0  0  0  0  0
  191.4870  172.5530  141.0780 C   0  0  0  0  0  3  0  0  0  0  0  0
  191.2130  175.1440  142.1460 C   0  0  0  0  0  0  0  0  0  0  0  0
  192.5940  173.3260  141.5680 N   0  0  0  0  0  0  0  0  0  0  0  0
  187.2910  176.4090  143.0860 O   0  0  0  0  0  0  0  0  0  0  0  0
  186.3060  177.5660  142.2700 P   0  0  0  0  0  0  0  0  0  0  0  0
  184.7500  177.5440  142.9300 O   0  0  0  0  0  1  0  0  0  0  0  0
  186.2260  177.1670  140.6260 O   0  0  0  0  0  0  0  0  0  0  0  0
  186.9000  178.9470  142.4240 O   0  0  0  0  0  1  0  0  0  0  0  0
  189.1500  172.2570  140.4770 C   0  0  0  0  0  2  0  0  0  0  0  0
  189.0450  173.0170  136.7520 C   0  0  0  0  0  3  0  0  0  0  0  0
  188.9120  173.1670  138.1360 C   0  0  0  0  0  3  0  0  0  0  0  0
  189.2380  172.1060  138.9910 C   0  0  0  0  0  0  0  0  0  0  0  0
  189.5180  171.8100  136.2190 C   0  0  0  0  0  3  0  0  0  0  0  0
  189.7290  170.9060  138.4540 C   0  0  0  0  0  3  0  0  0  0  0  0
  189.8640  170.7570  137.0690 C   0  0  0  0  0  3  0  0  0  0  0  0
  195.3630  170.9200  142.1300 O   0  0  0  0  0  0  0  0  0  0  0  0
  194.9650  169.6260  141.7750 C   0  0  2  0  0  3  0  0  0  0  0  0
  195.3680  168.7310  142.7670 O   0  0  0  0  0  1  0  0  0  0  0  0
  195.6280  169.2370  140.4620 C   0  0  0  0  0  2  0  0  0  0  0  0
  194.7300  169.4860  139.3440 N   0  0  0  0  0  0  0  0  0  0  0  0
  193.6710  172.5950  137.6760 C   0  0  0  0  0  0  0  0  0  0  0  0
  195.2910  173.0130  137.8190 S   0  0  0  0  0  0  0  0  0  0  0  0
  194.6660  170.8030  138.7670 C   0  0  0  0  0  0  0  0  0  0  0  0
  195.7940  171.6160  138.6110 C   0  0  0  0  0  3  0  0  0  0  0  0
  193.4770  171.3470  138.2440 C   0  0  0  0  0  3  0  0  0  0  0  0
  192.6300  173.4020  136.9800 C   0  0  0  0  0  2  0  0  0  0  0  0
  192.0670  174.3100  137.8590 F   0  0  0  0  0  0  0  0  0  0  0  0
  193.6280  168.5440  139.1420 C   0  0  0  0  0  2  0  0  0  0  0  0
  192.5070  168.9580  139.8710 O   0  0  0  0  0  1  0  0  0  0  0  0
  1  4  1  1  0  0  0
  2  5  2  0  0  0  0
  4  2  2  0  0  0  0
  5  6  1  0  0  0  0
  5  3  1  0  0  0  0
  7  6  1  0  0  0  0
  7  8  1  0  0  0  0
  9  8  2  0  0  0  0
  9 14  1  0  0  0  0
 10  9  1  0  0  0  0
 11  7  2  0  0  0  0
 12 10  1  0  0  0  0
 13 11  1  0  0  0  0
 13 10  2  0  0  0  0
 15 21  2  0  0  0  0
 15 18  1  0  0  0  0
 16 17  1  0  0  0  0
 16 20  1  0  0  0  0
 18 16  2  0  0  0  0
 19 14  1  0  0  0  0
 19 17  2  0  0  0  0
 21 19  1  0  0  0  0
 22 34  1  0  0  0  0
 22 23  1  1  0  0  0
 22  1  1  0  0  0  0
 24 35  1  0  0  0  0
 24 31  1  0  0  0  0
 26 32  2  0  0  0  0
 26 27  1  0  0  0  0
 27 30  1  1  0  0  0
 27 33  1  0  0  0  0
 29 31  2  0  0  0  0
 30 24  2  0  0  0  0
 31 28  1  0  0  0  0
 32 34  1  0  0  0  0
 33 25  2  0  0  0  0
 33 29  1  0  0  0  0
 34 25  1  0  0  0  0
 36 39  1  0  0  0  0
 36 37  1  0  0  0  0
 36 35  1  0  0  0  0
 38 36  2  0  0  0  0
 40 26  1  0  0  0  0
 41 42  1  0  0  0  0
 42 43  2  0  0  0  0
 43 40  1  0  0  0  0
 44 41  2  0  0  0  0
 44 46  1  0  0  0  0
 45 43  1  0  0  0  0
 46 45  2  0  0  0  0
 47  1  1  0  0  0  0
 48 47  1  0  0  0  0
 48 49  1  1  0  0  0
 50 48  1  0  0  0  0
 51 50  1  0  0  0  0
 52 53  1  0  0  0  0
 52 56  2  0  0  0  0
 53 55  1  0  0  0  0
 54 51  1  0  0  0  0
 55 54  2  0  0  0  0
 56 54  1  0  0  0  0
 57 52  1  0  0  0  0
 57 58  1  0  0  0  0
 59 51  1  0  0  0  0
 59 60  1  0  0  0  0
M  END
>  <MODEL>
8

>  <REMARK>
 VINA RESULT:      -6.7      3.150      8.016
  Name = 
  18 active torsions:
  status: ('A' for Active; 'I' for Inactive)
    1  A    between atoms: C_2  and  O_38
    2  A    between atoms: C_6  and  C_9
    3  A    between atoms: C_10  and  C_55
    4  A    between atoms: C_12  and  C_47
    5  A    between atoms: C_13  and  C_44
    6  A    between atoms: C_13  and  O_54
    7  A    between atoms: C_14  and  C_29
    8  A    between atoms: P_15  and  O_38
    9  A    between atoms: C_17  and  C_55
   10  A    between atoms: C_17  and  N_60
   11  A    between atoms: C_23  and  C_29
   12  A    between atoms: N_24  and  C_26
   13  A    between atoms: N_24  and  C_34
   14  A    between atoms: N_24  and  C_44
   15  A    between atoms: C_28  and  N_59
   16  A    between atoms: C_31  and  C_47
   17  A    between atoms: C_36  and  N_59
   18  A    between atoms: O_54  and  C_55
                            x       y       z     vdW  Elec       q    Type
                         _______ _______ _______ _____ _____    ______ ____

>  <TORSDO>
F 18

$$$$
=
 OpenBabel11042418503D

 60 65  0  0  1  0  0  0  0  0999 V2000
  191.4290  173.0330  140.6990 C   0  0  1  0  0  3  0  0  0  0  0  0
  190.6930  170.7050  141.0780 C   0  0  0  0  0  0  0  0  0  0  0  0
  190.4350  168.6570  139.8320 C   0  0  0  0  0  1  0  0  0  0  0  0
  190.4510  171.9880  141.1610 C   0  0  0  0  0  3  0  0  0  0  0  0
  190.9300  169.4250  141.0020 C   0  0  0  0  0  0  0  0  0  0  0  0
  191.5660  168.6970  142.1400 C   0  0  0  0  0  2  0  0  0  0  0  0
  192.9880  169.1100  142.3390 C   0  0  0  0  0  0  0  0  0  0  0  0
  193.4630  169.4980  143.5980 C   0  0  0  0  0  3  0  0  0  0  0  0
  194.7830  169.9400  143.7520 C   0  0  0  0  0  0  0  0  0  0  0  0
  195.6470  169.9460  142.6410 C   0  0  0  0  0  0  0  0  0  0  0  0
  193.8480  169.1370  141.2370 C   0  0  0  0  0  3  0  0  0  0  0  0
  196.9490  170.2940  142.7690 F   0  0  0  0  0  0  0  0  0  0  0  0
  195.1740  169.5470  141.3880 C   0  0  0  0  0  3  0  0  0  0  0  0
  195.2260  170.3490  145.0530 N   0  0  0  0  0  2  0  0  0  0  0  0
  197.1260  173.4360  146.0270 C   0  0  0  0  0  3  0  0  0  0  0  0
  194.7840  173.9810  145.7620 C   0  0  0  0  0  0  0  0  0  0  0  0
  194.5040  172.6460  145.4590 C   0  0  0  0  0  3  0  0  0  0  0  0
  196.0940  174.3760  146.0460 C   0  0  0  0  0  3  0  0  0  0  0  0
  195.5310  171.6970  145.4430 C   0  0  0  0  0  0  0  0  0  0  0  0
  193.7390  174.9400  145.7490 N   0  0  0  0  0  1  0  0  0  0  0  0
  196.8470  172.1010  145.7190 C   0  0  0  0  0  3  0  0  0  0  0  0
  192.2050  173.6350  141.8770 C   0  0  2  0  0  3  0  0  0  0  0  0
  192.8240  172.6360  142.6370 O   0  0  0  0  0  1  0  0  0  0  0  0
  188.4150  176.1410  146.3500 C   0  0  0  0  0  0  0  0  0  0  0  0
  190.9910  173.9920  143.9830 N   0  0  0  0  0  0  0  0  0  0  0  0
  190.2150  176.5570  143.0820 C   0  0  0  0  0  0  0  0  0  0  0  0
  190.1420  176.2110  144.5500 C   0  0  1  0  0  3  0  0  0  0  0  0
  188.5340  174.3160  147.9870 F   0  0  0  0  0  0  0  0  0  0  0  0
  189.8770  174.1830  146.0950 C   0  0  0  0  0  3  0  0  0  0  0  0
  188.9210  176.7420  145.2570 C   0  0  0  0  0  3  0  0  0  0  0  0
  188.9800  174.8570  146.8270 C   0  0  0  0  0  0  0  0  0  0  0  0
  190.8820  175.7510  142.2550 C   0  0  0  0  0  3  0  0  0  0  0  0
  190.3580  174.7420  144.8310 C   0  0  0  0  0  0  0  0  0  0  0  0
  191.3690  174.4820  142.7200 N   0  0  0  0  0  0  0  0  0  0  0  0
  187.3350  176.6870  147.0560 O   0  0  0  0  0  0  0  0  0  0  0  0
  185.9300  177.3520  146.3080 P   0  0  0  0  0  0  0  0  0  0  0  0
  185.6170  176.5250  144.8680 O   0  0  0  0  0  0  0  0  0  0  0  0
  186.2030  178.9880  145.9700 O   0  0  0  0  0  1  0  0  0  0  0  0
  184.7440  177.2200  147.2340 O   0  0  0  0  0  1  0  0  0  0  0  0
  189.7630  177.8870  142.5660 C   0  0  0  0  0  2  0  0  0  0  0  0
  186.5870  176.9280  140.7070 C   0  0  0  0  0  3  0  0  0  0  0  0
  187.9280  176.9630  141.1030 C   0  0  0  0  0  3  0  0  0  0  0  0
  188.3450  177.8630  142.0920 C   0  0  0  0  0  0  0  0  0  0  0  0
  185.6550  177.7830  141.3100 C   0  0  0  0  0  3  0  0  0  0  0  0
  187.4040  178.7050  142.7060 C   0  0  0  0  0  3  0  0  0  0  0  0
  186.0630  178.6680  142.3110 C   0  0  0  0  0  3  0  0  0  0  0  0
  192.2890  172.5570  139.6930 O   0  0  0  0  0  0  0  0  0  0  0  0
  192.7040  173.7060  139.0120 C   0  0  2  0  0  3  0  0  0  0  0  0
  191.6610  174.1690  138.2090 O   0  0  0  0  0  1  0  0  0  0  0  0
  193.8930  173.3650  138.1250 C   0  0  0  0  0  2  0  0  0  0  0  0
  195.0690  174.1170  138.5380 N   0  0  0  0  0  0  0  0  0  0  0  0
  195.6530  175.2850  141.9830 C   0  0  0  0  0  0  0  0  0  0  0  0
  196.2620  173.7380  142.2140 S   0  0  0  0  0  0  0  0  0  0  0  0
  195.3900  174.2170  139.9380 C   0  0  0  0  0  0  0  0  0  0  0  0
  195.9770  173.1700  140.6550 C   0  0  0  0  0  3  0  0  0  0  0  0
  195.2070  175.4020  140.6770 C   0  0  0  0  0  3  0  0  0  0  0  0
  195.6630  176.3770  142.9970 C   0  0  0  0  0  2  0  0  0  0  0  0
  196.9000  176.9950  143.0160 F   0  0  0  0  0  0  0  0  0  0  0  0
  195.6120  175.0910  137.5910 C   0  0  0  0  0  2  0  0  0  0  0  0
  196.9430  175.3820  137.9160 O   0  0  0  0  0  1  0  0  0  0  0  0
  1  4  1  1  0  0  0
  1 22  1  0  0  0  0
  2  4  2  0  0  0  0
  3  5  1  0  0  0  0
  5  2  2  0  0  0  0
  5  6  1  0  0  0  0
  6  7  1  0  0  0  0
  7  8  1  0  0  0  0
  8  9  2  0  0  0  0
  9 14  1  0  0  0  0
 10 12  1  0  0  0  0
 10  9  1  0  0  0  0
 11 13  1  0  0  0  0
 11  7  2  0  0  0  0
 13 10  2  0  0  0  0
 14 19  1  0  0  0  0
 15 18  1  0  0  0  0
 16 18  2  0  0  0  0
 17 16  1  0  0  0  0
 19 17  2  0  0  0  0
 19 21  1  0  0  0  0
 20 16  1  0  0  0  0
 21 15  2  0  0  0  0
 22 23  1  1  0  0  0
 22 34  1  0  0  0  0
 24 31  1  0  0  0  0
 24 35  1  0  0  0  0
 25 33  2  0  0  0  0
 26 27  1  0  0  0  0
 27 33  1  0  0  0  0
 27 30  1  6  0  0  0
 29 31  2  0  0  0  0
 30 24  2  0  0  0  0
 31 28  1  0  0  0  0
 32 34  1  0  0  0  0
 32 26  2  0  0  0  0
 33 29  1  0  0  0  0
 34 25  1  0  0  0  0
 36 35  1  0  0  0  0
 36 39  1  0  0  0  0
 37 36  2  0  0  0  0
 38 36  1  0  0  0  0
 40 26  1  0  0  0  0
 41 42  2  0  0  0  0
 41 44  1  0  0  0  0
 42 43  1  0  0  0  0
 43 40  1  0  0  0  0
 43 45  2  0  0  0  0
 44 46  2  0  0  0  0
 46 45  1  0  0  0  0
 47  1  1  0  0  0  0
 48 49  1  6  0  0  0
 48 47  1  0  0  0  0
 50 51  1  0  0  0  0
 50 48  1  0  0  0  0
 51 54  1  0  0  0  0
 52 53  1  0  0  0  0
 52 57  1  0  0  0  0
 54 55  2  0  0  0  0
 54 56  1  0  0  0  0
 55 53  1  0  0  0  0
 56 52  2  0  0  0  0
 57 58  1  0  0  0  0
 59 60  1  0  0  0  0
 59 51  1  0  0  0  0
M  END
>  <MODEL>
9

>  <REMARK>
 VINA RESULT:      -6.7      3.379      8.917
  Name = 
  18 active torsions:
  status: ('A' for Active; 'I' for Inactive)
    1  A    between atoms: C_2  and  O_38
    2  A    between atoms: C_6  and  C_9
    3  A    between atoms: C_10  and  C_55
    4  A    between atoms: C_12  and  C_47
    5  A    between atoms: C_13  and  C_44
    6  A    between atoms: C_13  and  O_54
    7  A    between atoms: C_14  and  C_29
    8  A    between atoms: P_15  and  O_38
    9  A    between atoms: C_17  and  C_55
   10  A    between atoms: C_17  and  N_60
   11  A    between atoms: C_23  and  C_29
   12  A    between atoms: N_24  and  C_26
   13  A    between atoms: N_24  and  C_34
   14  A    between atoms: N_24  and  C_44
   15  A    between atoms: C_28  and  N_59
   16  A    between atoms: C_31  and  C_47
   17  A    between atoms: C_36  and  N_59
   18  A    between atoms: O_54  and  C_55
                            x       y       z     vdW  Elec       q    Type
                         _______ _______ _______ _____ _____    ______ ____

>  <TORSDO>
F 18

$$$$
