=
 OpenBabel11042413443D

 30 34  0  0  1  0  0  0  0  0999 V2000
  187.5910  177.6020  144.5430 C   0  0  0  0  0  0  0  0  0  0  0  0
  188.2420  174.5590  142.4670 N   0  0  0  0  0  0  0  0  0  0  0  0
  191.1170  177.7750  144.1240 N   0  0  0  0  0  0  0  0  0  0  0  0
  186.1670  176.5230  142.8310 C   0  0  0  0  0  3  0  0  0  0  0  0
  185.1840  177.3820  143.1390 C   0  0  0  0  0  3  0  0  0  0  0  0
  187.2800  176.3000  143.8260 C   0  0  1  0  0  3  0  0  0  0  0  0
  188.9010  177.9690  144.8460 O   0  0  0  0  0  0  0  0  0  0  0  0
  191.9650  176.8630  143.3760 C   0  0  2  0  0  3  0  0  0  0  0  0
  189.8420  175.8370  143.8660 C   0  0  2  0  0  3  0  0  0  0  0  0
  185.2300  178.0990  144.4660 C   0  0  2  0  0  3  0  0  0  0  0  0
  188.4800  175.5770  143.2520 C   0  0  0  0  0  0  0  0  0  0  0  0
  189.9670  177.2390  144.3340 C   0  0  0  0  0  0  0  0  0  0  0  0
  184.4060  179.3680  144.4040 C   0  0  0  0  0  1  0  0  0  0  0  0
  191.0280  175.7470  142.9100 C   0  0  0  0  0  2  0  0  0  0  0  0
  186.6170  178.4180  144.8240 N   0  0  0  0  0  0  0  0  0  0  0  0
  190.7610  171.4660  141.1210 C   0  0  0  0  0  0  0  0  0  0  0  0
  190.2320  171.3850  142.4100 C   0  0  0  0  0  3  0  0  0  0  0  0
  191.5070  170.5490  140.6910 O   0  0  0  0  0  0  0  0  0  0  0  0
  189.6650  173.5410  140.7600 C   0  0  0  0  0  3  0  0  0  0  0  0
  190.4640  172.5290  140.3270 N   0  0  0  0  0  0  0  0  0  0  0  0
  189.1430  173.5210  142.0570 C   0  0  2  0  0  3  0  0  0  0  0  0
  189.4100  172.4140  142.8730 C   0  0  0  0  0  3  0  0  0  0  0  0
  195.1420  175.2930  145.8290 C   0  0  0  0  0  3  0  0  0  0  0  0
  195.3160  175.4120  144.4490 C   0  0  0  0  0  3  0  0  0  0  0  0
  193.0780  176.3250  144.2340 C   0  0  0  0  0  0  0  0  0  0  0  0
  194.2880  175.9250  143.6410 C   0  0  0  0  0  0  0  0  0  0  0  0
  192.9090  176.1980  145.6230 C   0  0  0  0  0  3  0  0  0  0  0  0
  193.9380  175.6850  146.4170 C   0  0  0  0  0  3  0  0  0  0  0  0
  194.4510  176.0460  142.2550 O   0  0  0  0  0  0  0  0  0  0  0  0
  195.6610  176.4950  141.6580 C   0  0  0  0  0  1  0  0  0  0  0  0
  1 15  2  0  0  0  0
  1  7  1  0  0  0  0
  2 11  2  0  0  0  0
  3 12  2  0  0  0  0
  4  5  2  0  0  0  0
  5 10  1  0  0  0  0
  6  4  1  6  0  0  0
  6  1  1  0  0  0  0
  8  3  1  0  0  0  0
  8 25  1  1  0  0  0
  9 14  1  6  0  0  0
  9 12  1  0  0  0  0
 10 13  1  6  0  0  0
 10 15  1  0  0  0  0
 11  6  1  0  0  0  0
 11  9  1  0  0  0  0
 12  7  1  0  0  0  0
 14  8  1  0  0  0  0
 16 17  1  0  0  0  0
 17 22  2  0  0  0  0
 18 16  2  0  0  0  0
 19 21  1  0  0  0  0
 20 19  2  0  0  0  0
 20 16  1  0  0  0  0
 21  2  1  6  0  0  0
 21 22  1  0  0  0  0
 23 28  1  0  0  0  0
 24 23  2  0  0  0  0
 25 27  1  0  0  0  0
 26 25  2  0  0  0  0
 26 24  1  0  0  0  0
 27 28  2  0  0  0  0
 29 26  1  0  0  0  0
 30 29  1  0  0  0  0
M  END
>  <MODEL>
1

>  <REMARK>
 VINA RESULT:      -7.9      0.000      0.000
  Name = 
  3 active torsions:
  status: ('A' for Active; 'I' for Inactive)
    1  A    between atoms: N_3  and  C_24
    2  A    between atoms: C_15  and  C_17
    3  A    between atoms: C_16  and  O_20
                            x       y       z     vdW  Elec       q    Type
                         _______ _______ _______ _____ _____    ______ ____

>  <TORSDO>
F 3

$$$$
=
 OpenBabel11042413443D

 30 34  0  0  1  0  0  0  0  0999 V2000
  188.5650  174.3840  140.9160 C   0  0  0  0  0  0  0  0  0  0  0  0
  190.7540  174.8840  143.9080 N   0  0  0  0  0  0  0  0  0  0  0  0
  187.0840  177.2540  142.4010 N   0  0  0  0  0  0  0  0  0  0  0  0
  190.9780  173.9150  141.2050 C   0  0  0  0  0  3  0  0  0  0  0  0
  190.9920  173.3510  139.9880 C   0  0  0  0  0  3  0  0  0  0  0  0
  189.6590  174.0710  141.9220 C   0  0  1  0  0  3  0  0  0  0  0  0
  187.5580  175.3030  141.2010 O   0  0  0  0  0  0  0  0  0  0  0  0
  187.5130  177.9500  143.6010 C   0  0  2  0  0  3  0  0  0  0  0  0
  188.4570  175.7350  143.5230 C   0  0  2  0  0  3  0  0  0  0  0  0
  189.6880  172.9000  139.3770 C   0  0  2  0  0  3  0  0  0  0  0  0
  189.7180  174.9960  143.1190 C   0  0  0  0  0  0  0  0  0  0  0  0
  187.6350  176.0930  142.3410 C   0  0  0  0  0  0  0  0  0  0  0  0
  189.8160  172.8190  137.8710 C   0  0  0  0  0  1  0  0  0  0  0  0
  188.6670  177.1100  144.1520 C   0  0  0  0  0  2  0  0  0  0  0  0
  188.6090  173.8250  139.7410 N   0  0  0  0  0  0  0  0  0  0  0  0
  191.4060  176.2720  147.8290 C   0  0  0  0  0  0  0  0  0  0  0  0
  190.4510  175.2760  147.6210 C   0  0  0  0  0  3  0  0  0  0  0  0
  191.6280  176.6970  148.9920 O   0  0  0  0  0  0  0  0  0  0  0  0
  191.8850  176.3490  145.5040 C   0  0  0  0  0  3  0  0  0  0  0  0
  192.1020  176.7800  146.7760 N   0  0  0  0  0  0  0  0  0  0  0  0
  190.9140  175.3780  145.2440 C   0  0  2  0  0  3  0  0  0  0  0  0
  190.2140  174.8200  146.3230 C   0  0  0  0  0  3  0  0  0  0  0  0
  184.3050  178.3080  146.4570 C   0  0  0  0  0  3  0  0  0  0  0  0
  184.0970  178.6570  145.1220 C   0  0  0  0  0  3  0  0  0  0  0  0
  186.3910  178.0650  144.5960 C   0  0  0  0  0  0  0  0  0  0  0  0
  185.1350  178.5410  144.1820 C   0  0  0  0  0  0  0  0  0  0  0  0
  186.5940  177.7200  145.9430 C   0  0  0  0  0  3  0  0  0  0  0  0
  185.5550  177.8400  146.8680 C   0  0  0  0  0  3  0  0  0  0  0  0
  184.9370  178.8910  142.8410 O   0  0  0  0  0  0  0  0  0  0  0  0
  183.9230  178.3070  142.0330 C   0  0  0  0  0  1  0  0  0  0  0  0
  1  7  1  0  0  0  0
  1  6  1  0  0  0  0
  3  8  1  0  0  0  0
  5  4  2  0  0  0  0
  6  4  1  6  0  0  0
  6 11  1  0  0  0  0
  7 12  1  0  0  0  0
  8 14  1  0  0  0  0
  8 25  1  1  0  0  0
  9 14  1  6  0  0  0
 10 13  1  6  0  0  0
 10 15  1  0  0  0  0
 10  5  1  0  0  0  0
 11  9  1  0  0  0  0
 11  2  2  0  0  0  0
 12  3  2  0  0  0  0
 12  9  1  0  0  0  0
 15  1  2  0  0  0  0
 16 18  2  0  0  0  0
 17 16  1  0  0  0  0
 19 20  2  0  0  0  0
 20 16  1  0  0  0  0
 21  2  1  1  0  0  0
 21 19  1  0  0  0  0
 21 22  1  0  0  0  0
 22 17  2  0  0  0  0
 23 28  1  0  0  0  0
 24 23  2  0  0  0  0
 25 27  1  0  0  0  0
 26 25  2  0  0  0  0
 26 24  1  0  0  0  0
 27 28  2  0  0  0  0
 29 26  1  0  0  0  0
 30 29  1  0  0  0  0
M  END
>  <MODEL>
2

>  <REMARK>
 VINA RESULT:      -7.9      2.883      7.246
  Name = 
  3 active torsions:
  status: ('A' for Active; 'I' for Inactive)
    1  A    between atoms: N_3  and  C_24
    2  A    between atoms: C_15  and  C_17
    3  A    between atoms: C_16  and  O_20
                            x       y       z     vdW  Elec       q    Type
                         _______ _______ _______ _____ _____    ______ ____

>  <TORSDO>
F 3

$$$$
=
 OpenBabel11042413443D

 30 34  0  0  1  0  0  0  0  0999 V2000
  188.9170  173.4040  140.8430 C   0  0  0  0  0  0  0  0  0  0  0  0
  191.8410  174.5350  142.8860 N   0  0  0  0  0  0  0  0  0  0  0  0
  187.5630  176.2400  142.5040 N   0  0  0  0  0  0  0  0  0  0  0  0
  191.3390  173.2670  140.3490 C   0  0  0  0  0  3  0  0  0  0  0  0
  191.0510  172.5600  139.2450 C   0  0  0  0  0  3  0  0  0  0  0  0
  190.3090  173.3530  141.4490 C   0  0  1  0  0  3  0  0  0  0  0  0
  187.9240  174.2250  141.3740 O   0  0  0  0  0  0  0  0  0  0  0  0
  188.2390  177.1280  143.4340 C   0  0  2  0  0  3  0  0  0  0  0  0
  189.4390  175.0500  143.2220 C   0  0  2  0  0  3  0  0  0  0  0  0
  189.7060  171.8830  139.1420 C   0  0  2  0  0  3  0  0  0  0  0  0
  190.6030  174.4220  142.4810 C   0  0  0  0  0  0  0  0  0  0  0  0
  188.2380  175.1550  142.3570 C   0  0  0  0  0  0  0  0  0  0  0  0
  189.3580  171.6290  137.6910 C   0  0  0  0  0  1  0  0  0  0  0  0
  189.6230  176.5080  143.6340 C   0  0  0  0  0  2  0  0  0  0  0  0
  188.6700  172.7110  139.7700 N   0  0  0  0  0  0  0  0  0  0  0  0
  193.4850  176.4950  146.2290 C   0  0  0  0  0  0  0  0  0  0  0  0
  192.8150  175.2870  146.4240 C   0  0  0  0  0  3  0  0  0  0  0  0
  193.9950  177.0960  147.2090 O   0  0  0  0  0  0  0  0  0  0  0  0
  193.0500  176.4030  143.8960 C   0  0  0  0  0  3  0  0  0  0  0  0
  193.5930  177.0210  144.9790 N   0  0  0  0  0  0  0  0  0  0  0  0
  192.3400  175.2090  144.0480 C   0  0  2  0  0  3  0  0  0  0  0  0
  192.2510  174.6370  145.3250 C   0  0  0  0  0  3  0  0  0  0  0  0
  186.1090  177.4480  147.1670 C   0  0  0  0  0  3  0  0  0  0  0  0
  185.7510  178.2540  146.0840 C   0  0  0  0  0  3  0  0  0  0  0  0
  187.4890  177.2310  144.7330 C   0  0  0  0  0  0  0  0  0  0  0  0
  186.4370  178.1550  144.8620 C   0  0  0  0  0  0  0  0  0  0  0  0
  187.8460  176.4280  145.8290 C   0  0  0  0  0  3  0  0  0  0  0  0
  187.1580  176.5350  147.0390 C   0  0  0  0  0  3  0  0  0  0  0  0
  186.0870  178.9600  143.7710 O   0  0  0  0  0  0  0  0  0  0  0  0
  184.9040  178.7550  143.0100 C   0  0  0  0  0  1  0  0  0  0  0  0
  1  7  1  0  0  0  0
  1  6  1  0  0  0  0
  3  8  1  0  0  0  0
  5  4  2  0  0  0  0
  6  4  1  6  0  0  0
  6 11  1  0  0  0  0
  7 12  1  0  0  0  0
  8 14  1  0  0  0  0
  8 25  1  1  0  0  0
  9 14  1  6  0  0  0
 10 13  1  6  0  0  0
 10  5  1  0  0  0  0
 10 15  1  0  0  0  0
 11  2  2  0  0  0  0
 11  9  1  0  0  0  0
 12  3  2  0  0  0  0
 12  9  1  0  0  0  0
 15  1  2  0  0  0  0
 16 17  1  0  0  0  0
 16 18  2  0  0  0  0
 19 21  1  0  0  0  0
 19 20  2  0  0  0  0
 20 16  1  0  0  0  0
 21  2  1  6  0  0  0
 21 22  1  0  0  0  0
 22 17  2  0  0  0  0
 24 23  2  0  0  0  0
 25 26  2  0  0  0  0
 25 27  1  0  0  0  0
 26 24  1  0  0  0  0
 27 28  2  0  0  0  0
 28 23  1  0  0  0  0
 29 26  1  0  0  0  0
 30 29  1  0  0  0  0
M  END
>  <MODEL>
3

>  <REMARK>
 VINA RESULT:      -7.7      2.286      6.875
  Name = 
  3 active torsions:
  status: ('A' for Active; 'I' for Inactive)
    1  A    between atoms: N_3  and  C_24
    2  A    between atoms: C_15  and  C_17
    3  A    between atoms: C_16  and  O_20
                            x       y       z     vdW  Elec       q    Type
                         _______ _______ _______ _____ _____    ______ ____

>  <TORSDO>
F 3

$$$$
=
 OpenBabel11042413443D

 30 34  0  0  1  0  0  0  0  0999 V2000
  188.6260  177.1140  146.5260 C   0  0  0  0  0  0  0  0  0  0  0  0
  188.3830  175.0960  143.3860 N   0  0  0  0  0  0  0  0  0  0  0  0
  192.0540  176.7370  145.6630 N   0  0  0  0  0  0  0  0  0  0  0  0
  186.8760  177.1190  144.7760 C   0  0  0  0  0  3  0  0  0  0  0  0
  186.1530  177.9590  145.5320 C   0  0  0  0  0  3  0  0  0  0  0  0
  187.9620  176.3000  145.4300 C   0  0  1  0  0  3  0  0  0  0  0  0
  190.0020  177.0610  146.7380 O   0  0  0  0  0  0  0  0  0  0  0  0
  192.6050  176.0520  144.5060 C   0  0  2  0  0  3  0  0  0  0  0  0
  190.3310  175.3600  144.8970 C   0  0  2  0  0  3  0  0  0  0  0  0
  186.4570  178.0590  147.0070 C   0  0  2  0  0  3  0  0  0  0  0  0
  188.9110  175.6440  144.4490 C   0  0  0  0  0  0  0  0  0  0  0  0
  190.8230  176.4010  145.8320 C   0  0  0  0  0  0  0  0  0  0  0  0
  185.9650  179.3830  147.5530 C   0  0  0  0  0  1  0  0  0  0  0  0
  191.3970  175.4270  143.8060 C   0  0  0  0  0  2  0  0  0  0  0  0
  187.8990  177.9250  147.2400 N   0  0  0  0  0  0  0  0  0  0  0  0
  189.9670  172.3470  140.6180 C   0  0  0  0  0  0  0  0  0  0  0  0
  189.6840  171.9070  141.9120 C   0  0  0  0  0  3  0  0  0  0  0  0
  190.4300  171.5430  139.7690 O   0  0  0  0  0  0  0  0  0  0  0  0
  189.2400  174.5400  141.1650 C   0  0  0  0  0  3  0  0  0  0  0  0
  189.7350  173.6420  140.2730 N   0  0  0  0  0  0  0  0  0  0  0  0
  188.9750  174.1540  142.4820 C   0  0  2  0  0  3  0  0  0  0  0  0
  189.1750  172.8140  142.8430 C   0  0  0  0  0  3  0  0  0  0  0  0
  195.4740  173.0470  145.6520 C   0  0  0  0  0  3  0  0  0  0  0  0
  195.9060  174.3180  145.2680 C   0  0  0  0  0  3  0  0  0  0  0  0
  193.6050  175.0060  144.9170 C   0  0  0  0  0  0  0  0  0  0  0  0
  194.9790  175.3060  144.8960 C   0  0  0  0  0  0  0  0  0  0  0  0
  193.1790  173.7230  145.3000 C   0  0  0  0  0  3  0  0  0  0  0  0
  194.1100  172.7490  145.6680 C   0  0  0  0  0  3  0  0  0  0  0  0
  195.4010  176.5820  144.5060 O   0  0  0  0  0  0  0  0  0  0  0  0
  196.4060  176.7940  143.5230 C   0  0  0  0  0  1  0  0  0  0  0  0
  1  7  1  0  0  0  0
  1 15  2  0  0  0  0
  2 11  2  0  0  0  0
  3 12  2  0  0  0  0
  4  5  2  0  0  0  0
  5 10  1  0  0  0  0
  6  4  1  6  0  0  0
  6  1  1  0  0  0  0
  8 25  1  1  0  0  0
  8  3  1  0  0  0  0
  9 14  1  6  0  0  0
  9 12  1  0  0  0  0
 10 15  1  0  0  0  0
 10 13  1  6  0  0  0
 11  9  1  0  0  0  0
 11  6  1  0  0  0  0
 12  7  1  0  0  0  0
 14  8  1  0  0  0  0
 16 17  1  0  0  0  0
 17 22  2  0  0  0  0
 18 16  2  0  0  0  0
 19 21  1  0  0  0  0
 20 16  1  0  0  0  0
 20 19  2  0  0  0  0
 21 22  1  0  0  0  0
 21  2  1  6  0  0  0
 23 28  1  0  0  0  0
 24 23  2  0  0  0  0
 25 27  1  0  0  0  0
 26 25  2  0  0  0  0
 26 24  1  0  0  0  0
 27 28  2  0  0  0  0
 29 26  1  0  0  0  0
 30 29  1  0  0  0  0
M  END
>  <MODEL>
4

>  <REMARK>
 VINA RESULT:      -7.6      1.818      1.974
  Name = 
  3 active torsions:
  status: ('A' for Active; 'I' for Inactive)
    1  A    between atoms: N_3  and  C_24
    2  A    between atoms: C_15  and  C_17
    3  A    between atoms: C_16  and  O_20
                            x       y       z     vdW  Elec       q    Type
                         _______ _______ _______ _____ _____    ______ ____

>  <TORSDO>
F 3

$$$$
=
 OpenBabel11042413443D

 30 34  0  0  1  0  0  0  0  0999 V2000
  192.6420  176.0780  145.9140 C   0  0  0  0  0  0  0  0  0  0  0  0
  190.5750  176.2300  142.7990 N   0  0  0  0  0  0  0  0  0  0  0  0
  189.3490  176.0950  147.2530 N   0  0  0  0  0  0  0  0  0  0  0  0
  193.0890  175.1290  143.6720 C   0  0  0  0  0  3  0  0  0  0  0  0
  194.3070  174.7580  144.0960 C   0  0  0  0  0  3  0  0  0  0  0  0
  192.3490  176.2050  144.4290 C   0  0  1  0  0  3  0  0  0  0  0  0
  191.6490  176.2820  146.8690 O   0  0  0  0  0  0  0  0  0  0  0  0
  188.0960  176.1230  146.5190 C   0  0  2  0  0  3  0  0  0  0  0  0
  189.9170  176.8350  145.1130 C   0  0  2  0  0  3  0  0  0  0  0  0
  194.8890  175.4260  145.3180 C   0  0  2  0  0  3  0  0  0  0  0  0
  190.8830  176.3110  144.0670 C   0  0  0  0  0  0  0  0  0  0  0  0
  190.3230  176.4240  146.4790 C   0  0  0  0  0  0  0  0  0  0  0  0
  195.9460  174.5410  145.9430 C   0  0  0  0  0  1  0  0  0  0  0  0
  188.5020  176.2660  145.0520 C   0  0  0  0  0  2  0  0  0  0  0  0
  193.8320  175.7110  146.2940 N   0  0  0  0  0  0  0  0  0  0  0  0
  187.0560  177.2750  140.7370 C   0  0  0  0  0  0  0  0  0  0  0  0
  187.8230  178.2910  141.3120 C   0  0  0  0  0  2  0  0  0  0  0  0
  186.0070  177.5620  140.1060 O   0  0  0  0  0  0  0  0  0  0  0  0
  188.5730  175.6300  141.5320 C   0  0  0  0  0  3  0  0  0  0  0  0
  187.4470  175.9780  140.8530 N   0  0  0  0  0  0  0  0  0  0  0  0
  189.3520  176.6100  142.1540 C   0  0  0  0  0  0  0  0  0  0  0  0
  188.9820  177.9540  142.0130 C   0  0  0  0  0  3  0  0  0  0  0  0
  185.6250  179.4250  147.7720 C   0  0  0  0  0  3  0  0  0  0  0  0
  185.1930  178.5740  146.7540 C   0  0  0  0  0  3  0  0  0  0  0  0
  187.2290  177.2690  146.9650 C   0  0  0  0  0  0  0  0  0  0  0  0
  185.9890  177.4920  146.3400 C   0  0  0  0  0  0  0  0  0  0  0  0
  187.6580  178.1340  147.9850 C   0  0  0  0  0  3  0  0  0  0  0  0
  186.8590  179.2060  148.3880 C   0  0  0  0  0  3  0  0  0  0  0  0
  185.5660  176.6340  145.3180 O   0  0  0  0  0  0  0  0  0  0  0  0
  185.3500  177.0730  143.9830 C   0  0  0  0  0  1  0  0  0  0  0  0
  1 15  2  0  0  0  0
  1  7  1  0  0  0  0
  2 11  2  0  0  0  0
  4  5  2  0  0  0  0
  5 10  1  0  0  0  0
  6  4  1  6  0  0  0
  6  1  1  0  0  0  0
  8 25  1  1  0  0  0
  8  3  1  0  0  0  0
  9 14  1  6  0  0  0
  9 12  1  0  0  0  0
 10 13  1  1  0  0  0
 10 15  1  0  0  0  0
 11  6  1  0  0  0  0
 11  9  1  0  0  0  0
 12  7  1  0  0  0  0
 12  3  2  0  0  0  0
 14  8  1  0  0  0  0
 16 20  1  0  0  0  0
 16 17  1  0  0  0  0
 17 22  1  0  0  0  0
 18 16  2  0  0  0  0
 19 21  1  0  0  0  0
 20 19  2  0  0  0  0
 21  2  1  0  0  0  0
 22 21  2  0  0  0  0
 23 28  1  0  0  0  0
 24 23  2  0  0  0  0
 25 27  1  0  0  0  0
 26 24  1  0  0  0  0
 26 25  2  0  0  0  0
 27 28  2  0  0  0  0
 29 26  1  0  0  0  0
 30 29  1  0  0  0  0
M  END
>  <MODEL>
5

>  <REMARK>
 VINA RESULT:      -7.5      3.006      7.104
  Name = 
  3 active torsions:
  status: ('A' for Active; 'I' for Inactive)
    1  A    between atoms: N_3  and  C_24
    2  A    between atoms: C_15  and  C_17
    3  A    between atoms: C_16  and  O_20
                            x       y       z     vdW  Elec       q    Type
                         _______ _______ _______ _____ _____    ______ ____

>  <TORSDO>
F 3

$$$$
=
 OpenBabel11042413443D

 30 34  0  0  1  0  0  0  0  0999 V2000
  186.5880  177.1340  141.2710 C   0  0  0  0  0  0  0  0  0  0  0  0
  187.7940  176.7410  144.7910 N   0  0  0  0  0  0  0  0  0  0  0  0
  188.9090  174.4640  140.9270 N   0  0  0  0  0  0  0  0  0  0  0  0
  185.3850  177.4950  143.4040 C   0  0  0  0  0  3  0  0  0  0  0  0
  184.3380  177.9660  142.7090 C   0  0  0  0  0  3  0  0  0  0  0  0
  186.7430  177.4620  142.7460 C   0  0  1  0  0  3  0  0  0  0  0  0
  187.4850  176.2930  140.6160 O   0  0  0  0  0  0  0  0  0  0  0  0
  189.6970  173.8360  141.9740 C   0  0  2  0  0  3  0  0  0  0  0  0
  188.8870  175.9870  142.6970 C   0  0  2  0  0  3  0  0  0  0  0  0
  184.5570  178.4390  141.2920 C   0  0  2  0  0  3  0  0  0  0  0  0
  187.7630  176.6260  143.4890 C   0  0  0  0  0  0  0  0  0  0  0  0
  188.4370  175.5870  141.3410 C   0  0  0  0  0  0  0  0  0  0  0  0
  183.2530  178.4010  140.5220 C   0  0  0  0  0  1  0  0  0  0  0  0
  189.4010  174.6530  143.2330 C   0  0  0  0  0  2  0  0  0  0  0  0
  185.5590  177.6020  140.6250 N   0  0  0  0  0  0  0  0  0  0  0  0
  190.7140  175.5940  147.5980 C   0  0  0  0  0  0  0  0  0  0  0  0
  190.9640  176.7020  146.7860 C   0  0  0  0  0  3  0  0  0  0  0  0
  191.5660  175.2380  148.4520 O   0  0  0  0  0  0  0  0  0  0  0  0
  188.6080  175.2580  146.5550 C   0  0  0  0  0  3  0  0  0  0  0  0
  189.5490  174.9050  147.4710 N   0  0  0  0  0  0  0  0  0  0  0  0
  188.8300  176.3390  145.6960 C   0  0  2  0  0  3  0  0  0  0  0  0
  190.0100  177.0810  145.8400 C   0  0  0  0  0  3  0  0  0  0  0  0
  193.9040  173.8710  141.0350 C   0  0  0  0  0  3  0  0  0  0  0  0
  193.0800  172.8670  140.5230 C   0  0  0  0  0  3  0  0  0  0  0  0
  191.1630  173.8550  141.6380 C   0  0  0  0  0  0  0  0  0  0  0  0
  191.7070  172.8480  140.8210 C   0  0  0  0  0  0  0  0  0  0  0  0
  192.0000  174.8590  142.1520 C   0  0  0  0  0  3  0  0  0  0  0  0
  193.3640  174.8680  141.8500 C   0  0  0  0  0  3  0  0  0  0  0  0
  190.8720  171.8440  140.3150 O   0  0  0  0  0  0  0  0  0  0  0  0
  190.9460  170.4910  140.7470 C   0  0  0  0  0  1  0  0  0  0  0  0
  1  6  1  0  0  0  0
  3 12  2  0  0  0  0
  3  8  1  0  0  0  0
  5  4  2  0  0  0  0
  6  4  1  1  0  0  0
  6 11  1  0  0  0  0
  7  1  1  0  0  0  0
  7 12  1  0  0  0  0
  8 25  1  6  0  0  0
  8 14  1  0  0  0  0
  9 14  1  1  0  0  0
  9 11  1  0  0  0  0
 10 13  1  6  0  0  0
 10  5  1  0  0  0  0
 11  2  2  0  0  0  0
 12  9  1  0  0  0  0
 15  1  2  0  0  0  0
 15 10  1  0  0  0  0
 16 18  2  0  0  0  0
 17 16  1  0  0  0  0
 19 20  2  0  0  0  0
 20 16  1  0  0  0  0
 21  2  1  1  0  0  0
 21 22  1  0  0  0  0
 21 19  1  0  0  0  0
 22 17  2  0  0  0  0
 23 28  1  0  0  0  0
 24 26  1  0  0  0  0
 24 23  2  0  0  0  0
 25 27  1  0  0  0  0
 26 25  2  0  0  0  0
 28 27  2  0  0  0  0
 29 30  1  0  0  0  0
 29 26  1  0  0  0  0
M  END
>  <MODEL>
6

>  <REMARK>
 VINA RESULT:      -7.3      2.532      4.909
  Name = 
  3 active torsions:
  status: ('A' for Active; 'I' for Inactive)
    1  A    between atoms: N_3  and  C_24
    2  A    between atoms: C_15  and  C_17
    3  A    between atoms: C_16  and  O_20
                            x       y       z     vdW  Elec       q    Type
                         _______ _______ _______ _____ _____    ______ ____

>  <TORSDO>
F 3

$$$$
=
 OpenBabel11042413443D

 30 34  0  0  1  0  0  0  0  0999 V2000
  186.6840  177.1430  142.9910 C   0  0  0  0  0  0  0  0  0  0  0  0
  189.7230  177.2130  145.1710 N   0  0  0  0  0  0  0  0  0  0  0  0
  188.1100  173.9580  142.3150 N   0  0  0  0  0  0  0  0  0  0  0  0
  187.0340  178.2460  145.1790 C   0  0  0  0  0  3  0  0  0  0  0  0
  185.8220  178.8090  145.0640 C   0  0  0  0  0  3  0  0  0  0  0  0
  187.7180  177.7260  143.9370 C   0  0  1  0  0  3  0  0  0  0  0  0
  186.9380  175.9810  142.2650 O   0  0  0  0  0  0  0  0  0  0  0  0
  189.3150  173.3870  142.8930 C   0  0  2  0  0  3  0  0  0  0  0  0
  189.2770  175.7760  143.2000 C   0  0  2  0  0  3  0  0  0  0  0  0
  185.1850  178.8980  143.6990 C   0  0  2  0  0  3  0  0  0  0  0  0
  188.9090  176.8350  144.2210 C   0  0  0  0  0  0  0  0  0  0  0  0
  188.0730  175.2260  142.5310 C   0  0  0  0  0  0  0  0  0  0  0  0
  183.6820  179.0320  143.8310 C   0  0  0  0  0  1  0  0  0  0  0  0
  189.9000  174.5010  143.7630 C   0  0  0  0  0  2  0  0  0  0  0  0
  185.5150  177.7100  142.9050 N   0  0  0  0  0  0  0  0  0  0  0  0
  193.6410  175.9860  146.1030 C   0  0  0  0  0  0  0  0  0  0  0  0
  193.4370  176.7680  144.9650 C   0  0  0  0  0  3  0  0  0  0  0  0
  194.8030  175.6160  146.4100 O   0  0  0  0  0  0  0  0  0  0  0  0
  191.3150  176.0090  146.5810 C   0  0  0  0  0  3  0  0  0  0  0  0
  192.5860  175.6310  146.8840 N   0  0  0  0  0  0  0  0  0  0  0  0
  191.0580  176.7620  145.4320 C   0  0  2  0  0  3  0  0  0  0  0  0
  192.1400  177.1660  144.6370 C   0  0  0  0  0  3  0  0  0  0  0  0
  192.1060  172.1810  139.8390 C   0  0  0  0  0  3  0  0  0  0  0  0
  192.2270  171.6790  141.1360 C   0  0  0  0  0  3  0  0  0  0  0  0
  190.2820  172.9580  141.8240 C   0  0  0  0  0  0  0  0  0  0  0  0
  191.3200  172.0630  142.1380 C   0  0  0  0  0  0  0  0  0  0  0  0
  190.1710  173.4620  140.5170 C   0  0  0  0  0  3  0  0  0  0  0  0
  191.0780  173.0730  139.5290 C   0  0  0  0  0  3  0  0  0  0  0  0
  191.4340  171.5680  143.4430 O   0  0  0  0  0  0  0  0  0  0  0  0
  192.5550  171.8380  144.2740 C   0  0  0  0  0  1  0  0  0  0  0  0
  1  6  1  0  0  0  0
  3 12  2  0  0  0  0
  3  8  1  0  0  0  0
  5  4  2  0  0  0  0
  6 11  1  0  0  0  0
  6  4  1  1  0  0  0
  7 12  1  0  0  0  0
  7  1  1  0  0  0  0
  8 25  1  6  0  0  0
  8 14  1  0  0  0  0
  9 14  1  1  0  0  0
  9 11  1  0  0  0  0
 10 13  1  1  0  0  0
 10  5  1  0  0  0  0
 11  2  2  0  0  0  0
 12  9  1  0  0  0  0
 15  1  2  0  0  0  0
 15 10  1  0  0  0  0
 16 18  2  0  0  0  0
 16 20  1  0  0  0  0
 17 16  1  0  0  0  0
 19 20  2  0  0  0  0
 21  2  1  1  0  0  0
 21 19  1  0  0  0  0
 22 17  2  0  0  0  0
 22 21  1  0  0  0  0
 23 24  1  0  0  0  0
 24 26  2  0  0  0  0
 25 26  1  0  0  0  0
 26 29  1  0  0  0  0
 27 25  2  0  0  0  0
 28 23  2  0  0  0  0
 28 27  1  0  0  0  0
 29 30  1  0  0  0  0
M  END
>  <MODEL>
7

>  <REMARK>
 VINA RESULT:      -7.3      1.926      5.044
  Name = 
  3 active torsions:
  status: ('A' for Active; 'I' for Inactive)
    1  A    between atoms: N_3  and  C_24
    2  A    between atoms: C_15  and  C_17
    3  A    between atoms: C_16  and  O_20
                            x       y       z     vdW  Elec       q    Type
                         _______ _______ _______ _____ _____    ______ ____

>  <TORSDO>
F 3

$$$$
=
 OpenBabel11042413443D

 30 34  0  0  1  0  0  0  0  0999 V2000
  186.5360  176.9850  143.7820 C   0  0  0  0  0  0  0  0  0  0  0  0
  190.0000  176.4470  145.0890 N   0  0  0  0  0  0  0  0  0  0  0  0
  187.4830  174.0170  142.0700 N   0  0  0  0  0  0  0  0  0  0  0  0
  187.4890  177.5200  146.0030 C   0  0  0  0  0  3  0  0  0  0  0  0
  186.3370  178.1280  146.3260 C   0  0  0  0  0  3  0  0  0  0  0  0
  187.8110  177.2960  144.5460 C   0  0  1  0  0  3  0  0  0  0  0  0
  186.5100  176.0250  142.7730 O   0  0  0  0  0  0  0  0  0  0  0  0
  188.7370  173.2920  142.1830 C   0  0  2  0  0  3  0  0  0  0  0  0
  188.9780  175.5380  143.0210 C   0  0  2  0  0  3  0  0  0  0  0  0
  185.4040  178.5590  145.2210 C   0  0  2  0  0  3  0  0  0  0  0  0
  188.9540  176.3310  144.3130 C   0  0  0  0  0  0  0  0  0  0  0  0
  187.6070  175.1970  142.5680 C   0  0  0  0  0  0  0  0  0  0  0  0
  183.9930  178.6980  145.7530 C   0  0  0  0  0  1  0  0  0  0  0  0
  189.6050  174.1490  143.1070 C   0  0  0  0  0  2  0  0  0  0  0  0
  185.4330  177.5880  144.1220 N   0  0  0  0  0  0  0  0  0  0  0  0
  193.9030  174.9140  144.7120 C   0  0  0  0  0  0  0  0  0  0  0  0
  193.5360  176.0110  143.9310 C   0  0  0  0  0  3  0  0  0  0  0  0
  195.0660  174.4430  144.6260 O   0  0  0  0  0  0  0  0  0  0  0  0
  191.7380  174.8360  145.6860 C   0  0  0  0  0  3  0  0  0  0  0  0
  193.0060  174.3580  145.5700 N   0  0  0  0  0  0  0  0  0  0  0  0
  191.3160  175.9100  144.8980 C   0  0  2  0  0  3  0  0  0  0  0  0
  192.2390  176.5170  144.0350 C   0  0  0  0  0  3  0  0  0  0  0  0
  190.6100  172.7800  138.3350 C   0  0  0  0  0  3  0  0  0  0  0  0
  191.0180  172.0050  139.4220 C   0  0  0  0  0  3  0  0  0  0  0  0
  189.3830  173.1070  140.8370 C   0  0  0  0  0  0  0  0  0  0  0  0
  190.4120  172.1610  140.6800 C   0  0  0  0  0  0  0  0  0  0  0  0
  188.9810  173.8850  139.7390 C   0  0  0  0  0  3  0  0  0  0  0  0
  189.5910  173.7210  138.4940 C   0  0  0  0  0  3  0  0  0  0  0  0
  190.8160  171.3910  141.7770 O   0  0  0  0  0  0  0  0  0  0  0  0
  190.7650  169.9700  141.7810 C   0  0  0  0  0  1  0  0  0  0  0  0
  1 15  2  0  0  0  0
  1  6  1  0  0  0  0
  3  8  1  0  0  0  0
  3 12  2  0  0  0  0
  4  5  2  0  0  0  0
  6  4  1  1  0  0  0
  7  1  1  0  0  0  0
  8 25  1  6  0  0  0
  8 14  1  0  0  0  0
  9 14  1  1  0  0  0
  9 11  1  0  0  0  0
 10 13  1  1  0  0  0
 10  5  1  0  0  0  0
 11  6  1  0  0  0  0
 11  2  2  0  0  0  0
 12  7  1  0  0  0  0
 12  9  1  0  0  0  0
 15 10  1  0  0  0  0
 16 20  1  0  0  0  0
 17 22  2  0  0  0  0
 17 16  1  0  0  0  0
 18 16  2  0  0  0  0
 20 19  2  0  0  0  0
 21  2  1  1  0  0  0
 21 19  1  0  0  0  0
 22 21  1  0  0  0  0
 23 28  2  0  0  0  0
 23 24  1  0  0  0  0
 24 26  2  0  0  0  0
 26 25  1  0  0  0  0
 26 29  1  0  0  0  0
 27 25  2  0  0  0  0
 28 27  1  0  0  0  0
 29 30  1  0  0  0  0
M  END
>  <MODEL>
8

>  <REMARK>
 VINA RESULT:      -7.3      1.794      5.222
  Name = 
  3 active torsions:
  status: ('A' for Active; 'I' for Inactive)
    1  A    between atoms: N_3  and  C_24
    2  A    between atoms: C_15  and  C_17
    3  A    between atoms: C_16  and  O_20
                            x       y       z     vdW  Elec       q    Type
                         _______ _______ _______ _____ _____    ______ ____

>  <TORSDO>
F 3

$$$$
=
 OpenBabel11042413443D

 30 34  0  0  1  0  0  0  0  0999 V2000
  188.6100  174.1250  139.9170 C   0  0  0  0  0  0  0  0  0  0  0  0
  190.4340  174.1960  143.1830 N   0  0  0  0  0  0  0  0  0  0  0  0
  187.5120  177.2240  141.2710 N   0  0  0  0  0  0  0  0  0  0  0  0
  190.8300  173.2040  140.5080 C   0  0  0  0  0  3  0  0  0  0  0  0
  190.9000  172.6490  139.2880 C   0  0  0  0  0  3  0  0  0  0  0  0
  189.4800  173.6090  141.0490 C   0  0  1  0  0  3  0  0  0  0  0  0
  187.7650  175.2200  140.0920 O   0  0  0  0  0  0  0  0  0  0  0  0
  187.9010  177.8240  142.5350 C   0  0  2  0  0  3  0  0  0  0  0  0
  188.4110  175.4700  142.5230 C   0  0  2  0  0  3  0  0  0  0  0  0
  189.6270  172.4560  138.5010 C   0  0  2  0  0  3  0  0  0  0  0  0
  189.5520  174.5050  142.2680 C   0  0  0  0  0  0  0  0  0  0  0  0
  187.8370  175.9780  141.2530 C   0  0  0  0  0  0  0  0  0  0  0  0
  189.9380  172.3530  137.0220 C   0  0  0  0  0  1  0  0  0  0  0  0
  188.7910  176.7790  143.2100 C   0  0  0  0  0  2  0  0  0  0  0  0
  188.7040  173.5690  138.7440 N   0  0  0  0  0  0  0  0  0  0  0  0
  190.8210  175.4600  147.1800 C   0  0  0  0  0  0  0  0  0  0  0  0
  189.8600  174.4950  146.8730 C   0  0  0  0  0  3  0  0  0  0  0  0
  190.9640  175.8470  148.3680 O   0  0  0  0  0  0  0  0  0  0  0  0
  191.4760  175.5870  144.9010 C   0  0  0  0  0  3  0  0  0  0  0  0
  191.6060  175.9770  146.1970 N   0  0  0  0  0  0  0  0  0  0  0  0
  190.5040  174.6490  144.5410 C   0  0  2  0  0  3  0  0  0  0  0  0
  189.7110  174.0810  145.5480 C   0  0  0  0  0  3  0  0  0  0  0  0
  184.4480  178.7250  144.9510 C   0  0  0  0  0  3  0  0  0  0  0  0
  185.6760  178.4570  145.5570 C   0  0  0  0  0  3  0  0  0  0  0  0
  186.6980  178.1490  143.3770 C   0  0  0  0  0  0  0  0  0  0  0  0
  186.8090  178.1650  144.7790 C   0  0  0  0  0  0  0  0  0  0  0  0
  185.4570  178.4160  142.7750 C   0  0  0  0  0  3  0  0  0  0  0  0
  184.3370  178.7040  143.5590 C   0  0  0  0  0  3  0  0  0  0  0  0
  188.0450  177.8930  145.3770 O   0  0  0  0  0  0  0  0  0  0  0  0
  188.2020  177.7270  146.7800 C   0  0  0  0  0  1  0  0  0  0  0  0
  1  7  1  0  0  0  0
  1  6  1  0  0  0  0
  3  8  1  0  0  0  0
  5  4  2  0  0  0  0
  6  4  1  6  0  0  0
  6 11  1  0  0  0  0
  7 12  1  0  0  0  0
  8 14  1  0  0  0  0
  8 25  1  1  0  0  0
  9 14  1  1  0  0  0
 10 13  1  6  0  0  0
 10 15  1  0  0  0  0
 10  5  1  0  0  0  0
 11  9  1  0  0  0  0
 11  2  2  0  0  0  0
 12  3  2  0  0  0  0
 12  9  1  0  0  0  0
 15  1  2  0  0  0  0
 16 18  2  0  0  0  0
 17 16  1  0  0  0  0
 19 20  2  0  0  0  0
 20 16  1  0  0  0  0
 21  2  1  1  0  0  0
 21 19  1  0  0  0  0
 21 22  1  0  0  0  0
 22 17  2  0  0  0  0
 23 24  1  0  0  0  0
 25 26  1  0  0  0  0
 26 29  1  0  0  0  0
 26 24  2  0  0  0  0
 27 25  2  0  0  0  0
 27 28  1  0  0  0  0
 28 23  2  0  0  0  0
 29 30  1  0  0  0  0
M  END
>  <MODEL>
9

>  <REMARK>
 VINA RESULT:      -7.1      2.859      6.995
  Name = 
  3 active torsions:
  status: ('A' for Active; 'I' for Inactive)
    1  A    between atoms: N_3  and  C_24
    2  A    between atoms: C_15  and  C_17
    3  A    between atoms: C_16  and  O_20
                            x       y       z     vdW  Elec       q    Type
                         _______ _______ _______ _____ _____    ______ ____

>  <TORSDO>
F 3

$$$$
