=
 OpenBabel11042416063D

 34 35  0  0  1  0  0  0  0  0999 V2000
  194.9690  175.7600  144.3490 C   0  0  0  0  0  0  0  0  0  0  0  0
  192.4280  173.0680  142.4190 C   0  0  0  0  0  2  0  0  0  0  0  0
  191.8930  170.9220  143.5450 C   0  0  0  0  0  3  0  0  0  0  0  0
  193.2320  170.3480  143.2100 C   0  0  0  0  0  1  0  0  0  0  0  0
  193.0920  176.3200  146.8430 O   0  0  0  0  0  0  0  0  0  0  0  0
  189.9900  172.7980  145.0710 C   0  0  0  0  0  2  0  0  0  0  0  0
  191.9740  173.9060  145.7640 O   0  0  0  0  0  0  0  0  0  0  0  0
  188.0190  176.2750  146.8600 C   0  0  0  0  0  0  0  0  0  0  0  0
  195.5870  175.0040  145.0800 O   0  0  0  0  0  0  0  0  0  0  0  0
  189.8100  177.6610  146.0030 C   0  0  0  0  0  3  0  0  0  0  0  0
  195.4430  173.1640  142.7800 O   0  0  0  0  0  1  0  0  0  0  0  0
  188.5590  177.5410  146.6080 C   0  0  0  0  0  3  0  0  0  0  0  0
  191.5210  172.1610  143.1930 C   0  0  0  0  0  0  0  0  0  0  0  0
  194.3210  176.9810  144.9200 C   0  0  0  0  0  2  0  0  0  0  0  0
  188.7450  175.1350  146.5120 C   0  0  0  0  0  3  0  0  0  0  0  0
  190.1550  172.6550  143.5600 C   0  0  0  0  0  2  0  0  0  0  0  0
  190.0120  175.2370  145.9200 C   0  0  0  0  0  0  0  0  0  0  0  0
  193.0440  176.6450  145.6260 C   0  0  0  0  0  0  0  0  0  0  0  0
  190.7310  173.9910  145.5870 C   0  0  0  0  0  0  0  0  0  0  0  0
  193.2900  173.7250  143.3010 O   0  0  0  0  0  0  0  0  0  0  0  0
  190.5490  176.5230  145.6570 C   0  0  0  0  0  0  0  0  0  0  0  0
  194.8740  175.4900  142.8740 C   0  0  0  0  0  2  0  0  0  0  0  0
  194.4090  174.0720  142.5420 C   0  0  1  0  0  3  0  0  0  0  0  0
  191.7800  176.6970  144.9380 N   0  0  0  0  0  0  0  0  0  0  0  0
  191.7180  177.2570  143.5900 C   0  0  0  0  0  2  0  0  0  0  0  0
  189.9790  178.3300  142.3250 O   0  0  0  0  0  1  0  0  0  0  0  0
  190.3040  177.1690  143.0310 C   0  0  1  0  0  3  0  0  0  0  0  0
  190.1340  175.9360  142.1450 C   0  0  0  0  0  2  0  0  0  0  0  0
  188.7010  175.5660  141.9400 C   0  0  0  0  0  0  0  0  0  0  0  0
  187.7780  175.6690  143.0180 N   0  0  0  0  0  1  0  0  0  0  0  0
  188.3030  175.1870  140.8090 O   0  0  0  0  0  0  0  0  0  0  0  0
  186.7360  176.1290  147.4730 N   0  0  0  0  0  2  0  0  0  0  0  0
  185.7840  177.1590  147.4700 N   0  0  0  0  0  2  0  0  0  0  0  0
  184.9130  176.8940  146.4670 O   0  0  0  0  0  1  0  0  0  0  0  0
  1 14  1  0  0  0  0
  1  9  2  0  0  0  0
  2 13  1  0  0  0  0
  2 20  1  0  0  0  0
  4  3  1  0  0  0  0
  6 19  1  0  0  0  0
  8 32  1  0  0  0  0
 10 12  2  0  0  0  0
 12  8  1  0  0  0  0
 13  3  2  0  0  0  0
 13 16  1  0  0  0  0
 14 18  1  0  0  0  0
 15  8  2  0  0  0  0
 16  6  1  0  0  0  0
 17 15  1  0  0  0  0
 18  5  2  0  0  0  0
 19  7  2  0  0  0  0
 19 17  1  0  0  0  0
 21 17  2  0  0  0  0
 21 10  1  0  0  0  0
 22  1  1  0  0  0  0
 23 11  1  1  0  0  0
 23 22  1  0  0  0  0
 23 20  1  0  0  0  0
 24 18  1  0  0  0  0
 24 21  1  0  0  0  0
 25 24  1  0  0  0  0
 27 26  1  6  0  0  0
 27 25  1  0  0  0  0
 28 27  1  0  0  0  0
 29 28  1  0  0  0  0
 29 30  1  0  0  0  0
 31 29  2  0  0  0  0
 33 32  1  0  0  0  0
 34 33  1  0  0  0  0
M  END
>  <MODEL>
1

>  <REMARK>
 VINA RESULT:      -6.3      0.000      0.000
  Name = 
  6 active torsions:
  status: ('A' for Active; 'I' for Inactive)
    1  A    between atoms: C_8  and  N_11
    2  A    between atoms: C_9  and  C_23
    3  A    between atoms: C_9  and  N_34
    4  A    between atoms: C_10  and  C_15
    5  A    between atoms: N_11  and  N_21
    6  A    between atoms: C_15  and  C_23
                            x       y       z     vdW  Elec       q    Type
                         _______ _______ _______ _____ _____    ______ ____

>  <TORSDO>
F 6

$$$$
=
 OpenBabel11042416063D

 34 35  0  0  1  0  0  0  0  0999 V2000
  188.3610  173.4110  141.3460 C   0  0  0  0  0  0  0  0  0  0  0  0
  189.2450  176.6280  143.8550 C   0  0  0  0  0  2  0  0  0  0  0  0
  188.7150  176.4320  146.2710 C   0  0  0  0  0  3  0  0  0  0  0  0
  187.2560  176.6480  146.0260 C   0  0  0  0  0  1  0  0  0  0  0  0
  190.3420  171.3340  142.6930 O   0  0  0  0  0  0  0  0  0  0  0  0
  191.3250  174.8050  146.1790 C   0  0  0  0  0  2  0  0  0  0  0  0
  190.1350  173.3740  144.7020 O   0  0  0  0  0  0  0  0  0  0  0  0
  194.7700  172.4110  144.9240 C   0  0  0  0  0  0  0  0  0  0  0  0
  187.4750  172.8640  141.9820 O   0  0  0  0  0  0  0  0  0  0  0  0
  193.8420  172.3490  142.6880 C   0  0  0  0  0  3  0  0  0  0  0  0
  186.6570  175.6240  142.6210 O   0  0  0  0  0  1  0  0  0  0  0  0
  194.8970  172.1000  143.5650 C   0  0  0  0  0  3  0  0  0  0  0  0
  189.6260  176.4170  145.2880 C   0  0  0  0  0  0  0  0  0  0  0  0
  189.5310  172.6130  140.8630 C   0  0  0  0  0  2  0  0  0  0  0  0
  193.5770  172.9590  145.3960 C   0  0  0  0  0  3  0  0  0  0  0  0
  191.0710  176.2030  145.6240 C   0  0  0  0  0  2  0  0  0  0  0  0
  192.4990  173.1990  144.5310 C   0  0  0  0  0  0  0  0  0  0  0  0
  190.5080  172.3500  141.9670 C   0  0  0  0  0  0  0  0  0  0  0  0
  191.2610  173.7720  145.0980 C   0  0  0  0  0  0  0  0  0  0  0  0
  188.8290  175.4140  143.3020 O   0  0  0  0  0  0  0  0  0  0  0  0
  192.6380  172.8930  143.1540 C   0  0  0  0  0  0  0  0  0  0  0  0
  188.2760  174.8750  141.0190 C   0  0  0  0  0  2  0  0  0  0  0  0
  187.9930  175.7560  142.2370 C   0  0  1  0  0  3  0  0  0  0  0  0
  191.6230  173.2320  142.1960 N   0  0  0  0  0  0  0  0  0  0  0  0
  191.9100  174.2930  141.2330 C   0  0  0  0  0  2  0  0  0  0  0  0
  193.9230  175.0150  140.1360 O   0  0  0  0  0  1  0  0  0  0  0  0
  193.3410  174.7910  141.3860 C   0  0  1  0  0  3  0  0  0  0  0  0
  193.3990  176.0570  142.2400 C   0  0  0  0  0  2  0  0  0  0  0  0
  194.5100  176.0280  143.2390 C   0  0  0  0  0  0  0  0  0  0  0  0
  195.8250  175.6680  142.8320 N   0  0  0  0  0  1  0  0  0  0  0  0
  194.2900  176.3470  144.4360 O   0  0  0  0  0  0  0  0  0  0  0  0
  195.8410  172.1710  145.8390 N   0  0  0  0  0  2  0  0  0  0  0  0
  197.0820  172.8160  145.7250 N   0  0  0  0  0  2  0  0  0  0  0  0
  196.8440  174.1480  145.7830 O   0  0  0  0  0  1  0  0  0  0  0  0
  1  9  2  0  0  0  0
  2 13  1  0  0  0  0
  4  3  1  0  0  0  0
  7 19  2  0  0  0  0
  8 15  1  0  0  0  0
  8 32  1  0  0  0  0
 10 21  2  0  0  0  0
 10 12  1  0  0  0  0
 12  8  2  0  0  0  0
 13 16  1  0  0  0  0
 13  3  2  0  0  0  0
 14  1  1  0  0  0  0
 14 18  1  0  0  0  0
 16  6  1  0  0  0  0
 17 19  1  0  0  0  0
 17 15  2  0  0  0  0
 18 24  1  0  0  0  0
 18  5  2  0  0  0  0
 19  6  1  0  0  0  0
 20  2  1  0  0  0  0
 21 17  1  0  0  0  0
 22  1  1  0  0  0  0
 22 23  1  0  0  0  0
 23 11  1  1  0  0  0
 23 20  1  0  0  0  0
 24 21  1  0  0  0  0
 25 27  1  0  0  0  0
 25 24  1  0  0  0  0
 27 26  1  6  0  0  0
 27 28  1  0  0  0  0
 28 29  1  0  0  0  0
 29 31  2  0  0  0  0
 30 29  1  0  0  0  0
 33 34  1  0  0  0  0
 33 32  1  0  0  0  0
M  END
>  <MODEL>
2

>  <REMARK>
 VINA RESULT:      -6.1      2.981      6.868
  Name = 
  6 active torsions:
  status: ('A' for Active; 'I' for Inactive)
    1  A    between atoms: C_8  and  N_11
    2  A    between atoms: C_9  and  C_23
    3  A    between atoms: C_9  and  N_34
    4  A    between atoms: C_10  and  C_15
    5  A    between atoms: N_11  and  N_21
    6  A    between atoms: C_15  and  C_23
                            x       y       z     vdW  Elec       q    Type
                         _______ _______ _______ _____ _____    ______ ____

>  <TORSDO>
F 6

$$$$
=
 OpenBabel11042416063D

 34 35  0  0  1  0  0  0  0  0999 V2000
  189.1400  177.3220  143.3470 C   0  0  0  0  0  0  0  0  0  0  0  0
  188.2940  173.6080  141.6390 C   0  0  0  0  0  2  0  0  0  0  0  0
  189.2610  173.0720  139.4170 C   0  0  0  0  0  3  0  0  0  0  0  0
  188.2740  173.9470  138.7140 C   0  0  0  0  0  1  0  0  0  0  0  0
  192.2680  176.8930  143.6380 O   0  0  0  0  0  0  0  0  0  0  0  0
  191.7180  172.5460  141.1940 C   0  0  0  0  0  2  0  0  0  0  0  0
  191.5420  174.8470  141.7600 O   0  0  0  0  0  0  0  0  0  0  0  0
  194.6360  172.4810  144.4590 C   0  0  0  0  0  0  0  0  0  0  0  0
  189.3990  177.9760  142.3500 O   0  0  0  0  0  0  0  0  0  0  0  0
  193.2260  174.0270  145.6760 C   0  0  0  0  0  3  0  0  0  0  0  0
  187.2210  176.4050  141.1330 O   0  0  0  0  0  1  0  0  0  0  0  0
  194.3220  173.1670  145.6370 C   0  0  0  0  0  3  0  0  0  0  0  0
  189.2800  172.9170  140.7480 C   0  0  0  0  0  0  0  0  0  0  0  0
  190.0950  177.3140  144.4990 C   0  0  0  0  0  2  0  0  0  0  0  0
  193.8520  172.6730  143.3210 C   0  0  0  0  0  3  0  0  0  0  0  0
  190.2990  172.0120  141.3720 C   0  0  0  0  0  2  0  0  0  0  0  0
  192.7560  173.5490  143.3370 C   0  0  0  0  0  0  0  0  0  0  0  0
  191.2650  176.4180  144.2340 C   0  0  0  0  0  0  0  0  0  0  0  0
  191.9750  173.7140  142.0940 C   0  0  0  0  0  0  0  0  0  0  0  0
  188.7480  174.8990  141.9210 O   0  0  0  0  0  0  0  0  0  0  0  0
  192.4370  174.2320  144.5370 C   0  0  0  0  0  0  0  0  0  0  0  0
  187.8580  176.5450  143.4400 C   0  0  0  0  0  2  0  0  0  0  0  0
  187.6060  175.6380  142.2350 C   0  0  1  0  0  3  0  0  0  0  0  0
  191.2560  175.0410  144.6570 N   0  0  0  0  0  0  0  0  0  0  0  0
  190.1730  174.5580  145.5110 C   0  0  0  0  0  2  0  0  0  0  0  0
  188.5850  175.3930  147.1110 O   0  0  0  0  0  1  0  0  0  0  0  0
  189.8900  175.5450  146.6350 C   0  0  1  0  0  3  0  0  0  0  0  0
  190.8980  175.3910  147.7740 C   0  0  0  0  0  2  0  0  0  0  0  0
  191.7190  176.6210  147.9880 C   0  0  0  0  0  0  0  0  0  0  0  0
  191.3490  177.5610  148.9890 N   0  0  0  0  0  1  0  0  0  0  0  0
  192.7540  176.8150  147.2990 O   0  0  0  0  0  0  0  0  0  0  0  0
  195.7510  171.5890  144.3990 N   0  0  0  0  0  2  0  0  0  0  0  0
  196.7270  171.5420  145.4060 N   0  0  0  0  0  2  0  0  0  0  0  0
  196.5140  170.4060  146.1130 O   0  0  0  0  0  1  0  0  0  0  0  0
  1 22  1  0  0  0  0
  1 14  1  0  0  0  0
  2 20  1  0  0  0  0
  3 13  2  0  0  0  0
  4  3  1  0  0  0  0
  5 18  2  0  0  0  0
  6 16  1  0  0  0  0
  6 19  1  0  0  0  0
  7 19  2  0  0  0  0
  8 12  1  0  0  0  0
  9  1  2  0  0  0  0
 12 10  2  0  0  0  0
 13 16  1  0  0  0  0
 13  2  1  0  0  0  0
 15 17  1  0  0  0  0
 15  8  2  0  0  0  0
 17 21  2  0  0  0  0
 18 14  1  0  0  0  0
 18 24  1  0  0  0  0
 19 17  1  0  0  0  0
 20 23  1  0  0  0  0
 21 24  1  0  0  0  0
 21 10  1  0  0  0  0
 23 11  1  6  0  0  0
 23 22  1  0  0  0  0
 24 25  1  0  0  0  0
 25 27  1  0  0  0  0
 27 26  1  1  0  0  0
 27 28  1  0  0  0  0
 28 29  1  0  0  0  0
 29 30  1  0  0  0  0
 31 29  2  0  0  0  0
 32  8  1  0  0  0  0
 32 33  1  0  0  0  0
 33 34  1  0  0  0  0
M  END
>  <MODEL>
3

>  <REMARK>
 VINA RESULT:      -6.0      2.813      6.458
  Name = 
  6 active torsions:
  status: ('A' for Active; 'I' for Inactive)
    1  A    between atoms: C_8  and  N_11
    2  A    between atoms: C_9  and  C_23
    3  A    between atoms: C_9  and  N_34
    4  A    between atoms: C_10  and  C_15
    5  A    between atoms: N_11  and  N_21
    6  A    between atoms: C_15  and  C_23
                            x       y       z     vdW  Elec       q    Type
                         _______ _______ _______ _____ _____    ______ ____

>  <TORSDO>
F 6

$$$$
=
 OpenBabel11042416063D

 34 35  0  0  1  0  0  0  0  0999 V2000
  194.5070  174.3270  145.6650 C   0  0  0  0  0  0  0  0  0  0  0  0
  195.6430  175.9080  141.9720 C   0  0  0  0  0  2  0  0  0  0  0  0
  196.4640  174.3590  140.2160 C   0  0  0  0  0  3  0  0  0  0  0  0
  197.7910  174.2100  140.8890 C   0  0  0  0  0  1  0  0  0  0  0  0
  192.0900  172.5770  144.5920 O   0  0  0  0  0  0  0  0  0  0  0  0
  193.4340  173.8960  139.9420 C   0  0  0  0  0  2  0  0  0  0  0  0
  193.5580  173.1320  142.1890 O   0  0  0  0  0  0  0  0  0  0  0  0
  189.1160  173.6660  140.6280 C   0  0  0  0  0  0  0  0  0  0  0  0
  195.1520  173.2910  145.6760 O   0  0  0  0  0  0  0  0  0  0  0  0
  189.4870  174.4700  142.8810 C   0  0  0  0  0  3  0  0  0  0  0  0
  197.2260  174.9360  144.3760 O   0  0  0  0  0  1  0  0  0  0  0  0
  188.6140  174.1460  141.8420 C   0  0  0  0  0  3  0  0  0  0  0  0
  195.4800  175.1250  140.7060 C   0  0  0  0  0  0  0  0  0  0  0  0
  193.0370  174.2890  145.9390 C   0  0  0  0  0  2  0  0  0  0  0  0
  190.4920  173.5010  140.4680 C   0  0  0  0  0  3  0  0  0  0  0  0
  194.1830  175.2260  139.9620 C   0  0  0  0  0  2  0  0  0  0  0  0
  191.3820  173.8040  141.5080 C   0  0  0  0  0  0  0  0  0  0  0  0
  192.2680  173.8150  144.7450 C   0  0  0  0  0  0  0  0  0  0  0  0
  192.8260  173.5960  141.2760 C   0  0  0  0  0  0  0  0  0  0  0  0
  195.3590  175.0860  143.0660 O   0  0  0  0  0  0  0  0  0  0  0  0
  190.8690  174.3010  142.7320 C   0  0  0  0  0  0  0  0  0  0  0  0
  195.1800  175.6450  145.4030 C   0  0  0  0  0  2  0  0  0  0  0  0
  196.0470  175.6470  144.1440 C   0  0  1  0  0  3  0  0  0  0  0  0
  191.7320  174.7500  143.7890 N   0  0  0  0  0  0  0  0  0  0  0  0
  191.7810  176.1820  144.0780 C   0  0  0  0  0  2  0  0  0  0  0  0
  190.7990  176.7850  146.1870 O   0  0  0  0  0  1  0  0  0  0  0  0
  190.5310  176.6250  144.8250 C   0  0  1  0  0  3  0  0  0  0  0  0
  189.9620  177.9160  144.2360 C   0  0  0  0  0  2  0  0  0  0  0  0
  188.4840  177.8490  144.0230 C   0  0  0  0  0  0  0  0  0  0  0  0
  187.9580  177.7320  142.7060 N   0  0  0  0  0  1  0  0  0  0  0  0
  187.7040  177.8710  145.0090 O   0  0  0  0  0  0  0  0  0  0  0  0
  188.2400  173.3350  139.5470 N   0  0  0  0  0  2  0  0  0  0  0  0
  188.4230  173.8450  138.2530 N   0  0  0  0  0  2  0  0  0  0  0  0
  187.6060  174.9180  138.1290 O   0  0  0  0  0  1  0  0  0  0  0  0
  1  9  2  0  0  0  0
  1 14  1  0  0  0  0
  2 20  1  0  0  0  0
  3 13  2  0  0  0  0
  3  4  1  0  0  0  0
  5 18  2  0  0  0  0
  6 16  1  0  0  0  0
  6 19  1  0  0  0  0
  8 12  1  0  0  0  0
 12 10  2  0  0  0  0
 13  2  1  0  0  0  0
 15  8  2  0  0  0  0
 15 17  1  0  0  0  0
 16 13  1  0  0  0  0
 17 21  2  0  0  0  0
 18 14  1  0  0  0  0
 19 17  1  0  0  0  0
 19  7  2  0  0  0  0
 20 23  1  0  0  0  0
 21 10  1  0  0  0  0
 21 24  1  0  0  0  0
 22  1  1  0  0  0  0
 23 11  1  1  0  0  0
 23 22  1  0  0  0  0
 24 25  1  0  0  0  0
 24 18  1  0  0  0  0
 25 27  1  0  0  0  0
 27 26  1  1  0  0  0
 28 27  1  0  0  0  0
 29 28  1  0  0  0  0
 29 31  2  0  0  0  0
 30 29  1  0  0  0  0
 32  8  1  0  0  0  0
 33 32  1  0  0  0  0
 34 33  1  0  0  0  0
M  END
>  <MODEL>
4

>  <REMARK>
 VINA RESULT:      -5.8      2.503      4.961
  Name = 
  6 active torsions:
  status: ('A' for Active; 'I' for Inactive)
    1  A    between atoms: C_8  and  N_11
    2  A    between atoms: C_9  and  C_23
    3  A    between atoms: C_9  and  N_34
    4  A    between atoms: C_10  and  C_15
    5  A    between atoms: N_11  and  N_21
    6  A    between atoms: C_15  and  C_23
                            x       y       z     vdW  Elec       q    Type
                         _______ _______ _______ _____ _____    ______ ____

>  <TORSDO>
F 6

$$$$
=
 OpenBabel11042416063D

 34 35  0  0  1  0  0  0  0  0999 V2000
  191.7420  175.5050  146.3720 C   0  0  0  0  0  0  0  0  0  0  0  0
  194.6620  176.2410  143.4820 C   0  0  0  0  0  2  0  0  0  0  0  0
  196.1660  174.3840  142.8090 C   0  0  0  0  0  3  0  0  0  0  0  0
  196.9650  174.5010  144.0670 C   0  0  0  0  0  1  0  0  0  0  0  0
  190.0950  173.3710  144.7020 O   0  0  0  0  0  0  0  0  0  0  0  0
  193.6620  173.6400  141.1830 C   0  0  0  0  0  2  0  0  0  0  0  0
  192.5990  173.4460  143.3000 O   0  0  0  0  0  0  0  0  0  0  0  0
  189.5760  173.2520  139.6560 C   0  0  0  0  0  0  0  0  0  0  0  0
  192.2360  174.5540  146.9560 O   0  0  0  0  0  0  0  0  0  0  0  0
  188.8110  174.5960  141.5190 C   0  0  0  0  0  3  0  0  0  0  0  0
  194.7700  175.9930  146.5080 O   0  0  0  0  0  1  0  0  0  0  0  0
  188.5610  173.9690  140.2990 C   0  0  0  0  0  3  0  0  0  0  0  0
  195.1130  175.1680  142.5380 C   0  0  0  0  0  0  0  0  0  0  0  0
  190.3330  175.4220  145.8770 C   0  0  0  0  0  2  0  0  0  0  0  0
  190.8350  173.1590  140.2500 C   0  0  0  0  0  3  0  0  0  0  0  0
  194.3720  174.9890  141.2480 C   0  0  0  0  0  2  0  0  0  0  0  0
  191.0990  173.7680  141.4850 C   0  0  0  0  0  0  0  0  0  0  0  0
  190.2410  174.6200  144.6150 C   0  0  0  0  0  0  0  0  0  0  0  0
  192.4500  173.6210  142.0620 C   0  0  0  0  0  0  0  0  0  0  0  0
  193.8230  175.6840  144.4510 O   0  0  0  0  0  0  0  0  0  0  0  0
  190.0700  174.5030  142.1250 C   0  0  0  0  0  0  0  0  0  0  0  0
  192.5270  176.7690  146.1680 C   0  0  0  0  0  2  0  0  0  0  0  0
  193.9080  176.5370  145.5530 C   0  0  1  0  0  3  0  0  0  0  0  0
  190.3110  175.2550  143.3250 N   0  0  0  0  0  0  0  0  0  0  0  0
  190.2870  176.7140  143.2400 C   0  0  0  0  0  2  0  0  0  0  0  0
  188.5820  177.9150  144.4350 O   0  0  0  0  0  1  0  0  0  0  0  0
  188.8560  177.2330  143.2460 C   0  0  1  0  0  3  0  0  0  0  0  0
  188.5870  178.1310  142.0390 C   0  0  0  0  0  2  0  0  0  0  0  0
  187.1830  178.0200  141.5390 C   0  0  0  0  0  0  0  0  0  0  0  0
  186.1240  178.6610  142.2400 N   0  0  0  0  0  1  0  0  0  0  0  0
  186.9390  177.3790  140.4840 O   0  0  0  0  0  0  0  0  0  0  0  0
  189.3430  172.6070  138.4010 N   0  0  0  0  0  2  0  0  0  0  0  0
  188.9380  173.3150  137.2600 N   0  0  0  0  0  2  0  0  0  0  0  0
  189.9420  174.1670  136.9430 O   0  0  0  0  0  1  0  0  0  0  0  0
  1  9  2  0  0  0  0
  2 20  1  0  0  0  0
  3  4  1  0  0  0  0
  6 16  1  0  0  0  0
  6 19  1  0  0  0  0
  8 15  2  0  0  0  0
  8 12  1  0  0  0  0
 10 21  1  0  0  0  0
 12 10  2  0  0  0  0
 13  3  2  0  0  0  0
 13  2  1  0  0  0  0
 14  1  1  0  0  0  0
 15 17  1  0  0  0  0
 16 13  1  0  0  0  0
 17 19  1  0  0  0  0
 17 21  2  0  0  0  0
 18  5  2  0  0  0  0
 18 14  1  0  0  0  0
 19  7  2  0  0  0  0
 20 23  1  0  0  0  0
 21 24  1  0  0  0  0
 22  1  1  0  0  0  0
 23 22  1  0  0  0  0
 23 11  1  1  0  0  0
 24 18  1  0  0  0  0
 25 27  1  0  0  0  0
 25 24  1  0  0  0  0
 27 26  1  1  0  0  0
 28 27  1  0  0  0  0
 29 28  1  0  0  0  0
 29 30  1  0  0  0  0
 31 29  2  0  0  0  0
 32  8  1  0  0  0  0
 33 32  1  0  0  0  0
 34 33  1  0  0  0  0
M  END
>  <MODEL>
5

>  <REMARK>
 VINA RESULT:      -5.8      2.461      5.333
  Name = 
  6 active torsions:
  status: ('A' for Active; 'I' for Inactive)
    1  A    between atoms: C_8  and  N_11
    2  A    between atoms: C_9  and  C_23
    3  A    between atoms: C_9  and  N_34
    4  A    between atoms: C_10  and  C_15
    5  A    between atoms: N_11  and  N_21
    6  A    between atoms: C_15  and  C_23
                            x       y       z     vdW  Elec       q    Type
                         _______ _______ _______ _____ _____    ______ ____

>  <TORSDO>
F 6

$$$$
=
 OpenBabel11042416063D

 34 35  0  0  1  0  0  0  0  0999 V2000
  188.4590  177.5220  142.6530 C   0  0  0  0  0  0  0  0  0  0  0  0
  189.2750  173.6100  141.4480 C   0  0  0  0  0  2  0  0  0  0  0  0
  190.8770  173.2470  139.5880 C   0  0  0  0  0  3  0  0  0  0  0  0
  189.8700  173.6620  138.5650 C   0  0  0  0  0  1  0  0  0  0  0  0
  191.3900  178.2270  143.6370 O   0  0  0  0  0  0  0  0  0  0  0  0
  192.8570  173.7600  141.8870 C   0  0  0  0  0  2  0  0  0  0  0  0
  191.8310  175.8990  142.0150 O   0  0  0  0  0  0  0  0  0  0  0  0
  194.7490  174.9940  145.6380 C   0  0  0  0  0  0  0  0  0  0  0  0
  188.7360  178.1350  141.6340 O   0  0  0  0  0  0  0  0  0  0  0  0
  192.6700  176.0600  146.2720 C   0  0  0  0  0  3  0  0  0  0  0  0
  187.5340  175.8080  140.2800 O   0  0  0  0  0  1  0  0  0  0  0  0
  193.9560  175.6310  146.5990 C   0  0  0  0  0  3  0  0  0  0  0  0
  190.6160  173.2260  140.9020 C   0  0  0  0  0  0  0  0  0  0  0  0
  189.0530  177.9460  143.9590 C   0  0  0  0  0  2  0  0  0  0  0  0
  194.2500  174.8030  144.3490 C   0  0  0  0  0  3  0  0  0  0  0  0
  191.6820  172.7870  141.8600 C   0  0  0  0  0  2  0  0  0  0  0  0
  192.9660  175.2440  143.9980 C   0  0  0  0  0  0  0  0  0  0  0  0
  190.4740  177.4890  144.0890 C   0  0  0  0  0  0  0  0  0  0  0  0
  192.5030  175.0190  142.6140 C   0  0  0  0  0  0  0  0  0  0  0  0
  189.2150  174.9980  141.5990 O   0  0  0  0  0  0  0  0  0  0  0  0
  192.1620  175.8780  144.9790 C   0  0  0  0  0  0  0  0  0  0  0  0
  187.5060  176.3620  142.6120 C   0  0  0  0  0  2  0  0  0  0  0  0
  187.8580  175.3220  141.5480 C   0  0  1  0  0  3  0  0  0  0  0  0
  190.7960  176.2370  144.7220 N   0  0  0  0  0  0  0  0  0  0  0  0
  189.7450  175.4870  145.4070 C   0  0  0  0  0  2  0  0  0  0  0  0
  189.7790  177.3830  146.8850 O   0  0  0  0  0  1  0  0  0  0  0  0
  189.5480  176.0060  146.8250 C   0  0  1  0  0  3  0  0  0  0  0  0
  188.1500  175.6730  147.3480 C   0  0  0  0  0  2  0  0  0  0  0  0
  187.1160  176.6480  146.8860 C   0  0  0  0  0  0  0  0  0  0  0  0
  186.8810  177.8410  147.6230 N   0  0  0  0  0  1  0  0  0  0  0  0
  186.4680  176.4250  145.8310 O   0  0  0  0  0  0  0  0  0  0  0  0
  196.0680  174.5400  145.9530 N   0  0  0  0  0  2  0  0  0  0  0  0
  196.6890  173.4970  145.2490 N   0  0  0  0  0  2  0  0  0  0  0  0
  196.9260  172.5030  146.1380 O   0  0  0  0  0  1  0  0  0  0  0  0
  1 14  1  0  0  0  0
  2 20  1  0  0  0  0
  3 13  2  0  0  0  0
  4  3  1  0  0  0  0
  5 18  2  0  0  0  0
  6 19  1  0  0  0  0
  7 19  2  0  0  0  0
  8 32  1  0  0  0  0
  8 12  1  0  0  0  0
  9  1  2  0  0  0  0
 10 12  2  0  0  0  0
 13  2  1  0  0  0  0
 13 16  1  0  0  0  0
 14 18  1  0  0  0  0
 15  8  2  0  0  0  0
 16  6  1  0  0  0  0
 17 15  1  0  0  0  0
 17 21  2  0  0  0  0
 18 24  1  0  0  0  0
 19 17  1  0  0  0  0
 21 10  1  0  0  0  0
 22  1  1  0  0  0  0
 23 11  1  6  0  0  0
 23 20  1  0  0  0  0
 23 22  1  0  0  0  0
 24 21  1  0  0  0  0
 24 25  1  0  0  0  0
 25 27  1  0  0  0  0
 27 26  1  6  0  0  0
 27 28  1  0  0  0  0
 29 28  1  0  0  0  0
 29 30  1  0  0  0  0
 31 29  2  0  0  0  0
 33 32  1  0  0  0  0
 33 34  1  0  0  0  0
M  END
>  <MODEL>
6

>  <REMARK>
 VINA RESULT:      -5.7      2.261      5.971
  Name = 
  6 active torsions:
  status: ('A' for Active; 'I' for Inactive)
    1  A    between atoms: C_8  and  N_11
    2  A    between atoms: C_9  and  C_23
    3  A    between atoms: C_9  and  N_34
    4  A    between atoms: C_10  and  C_15
    5  A    between atoms: N_11  and  N_21
    6  A    between atoms: C_15  and  C_23
                            x       y       z     vdW  Elec       q    Type
                         _______ _______ _______ _____ _____    ______ ____

>  <TORSDO>
F 6

$$$$
=
 OpenBabel11042416063D

 34 35  0  0  1  0  0  0  0  0999 V2000
  189.2270  177.9370  142.9090 C   0  0  0  0  0  0  0  0  0  0  0  0
  188.8460  173.7810  142.9860 C   0  0  0  0  0  2  0  0  0  0  0  0
  189.5830  172.4820  141.0040 C   0  0  0  0  0  3  0  0  0  0  0  0
  188.3660  172.8700  140.2270 C   0  0  0  0  0  1  0  0  0  0  0  0
  192.3900  178.0170  142.7150 O   0  0  0  0  0  0  0  0  0  0  0  0
  192.3130  173.0170  142.3180 C   0  0  0  0  0  2  0  0  0  0  0  0
  191.7990  175.3100  141.9660 O   0  0  0  0  0  0  0  0  0  0  0  0
  195.6120  174.6370  144.6990 C   0  0  0  0  0  0  0  0  0  0  0  0
  189.2230  178.1430  141.7060 O   0  0  0  0  0  0  0  0  0  0  0  0
  194.1230  176.3820  145.4730 C   0  0  0  0  0  3  0  0  0  0  0  0
  187.2230  175.9770  141.6570 O   0  0  0  0  0  1  0  0  0  0  0  0
  195.3430  175.7110  145.5540 C   0  0  0  0  0  3  0  0  0  0  0  0
  189.8110  172.8960  142.2580 C   0  0  0  0  0  0  0  0  0  0  0  0
  190.3150  178.5140  143.7590 C   0  0  0  0  0  2  0  0  0  0  0  0
  194.6580  174.2520  143.7560 C   0  0  0  0  0  3  0  0  0  0  0  0
  191.0540  172.4510  142.9680 C   0  0  0  0  0  2  0  0  0  0  0  0
  193.4340  174.9270  143.6480 C   0  0  0  0  0  0  0  0  0  0  0  0
  191.5820  177.7250  143.6360 C   0  0  0  0  0  0  0  0  0  0  0  0
  192.4740  174.4740  142.6220 C   0  0  0  0  0  0  0  0  0  0  0  0
  189.0920  175.1140  142.6470 O   0  0  0  0  0  0  0  0  0  0  0  0
  193.1620  176.0070  144.5260 C   0  0  0  0  0  0  0  0  0  0  0  0
  188.1320  177.1310  143.5500 C   0  0  0  0  0  2  0  0  0  0  0  0
  187.8880  175.7840  142.8690 C   0  0  1  0  0  3  0  0  0  0  0  0
  191.8820  176.6560  144.5540 N   0  0  0  0  0  0  0  0  0  0  0  0
  191.0310  176.4540  145.7250 C   0  0  0  0  0  2  0  0  0  0  0  0
  191.6270  174.9460  147.4990 O   0  0  0  0  0  1  0  0  0  0  0  0
  191.1040  175.0110  146.2050 C   0  0  1  0  0  3  0  0  0  0  0  0
  189.7330  174.3380  146.1450 C   0  0  0  0  0  2  0  0  0  0  0  0
  188.7690  174.9040  147.1370 C   0  0  0  0  0  0  0  0  0  0  0  0
  188.0690  176.1070  146.8440 N   0  0  0  0  0  1  0  0  0  0  0  0
  188.5570  174.3030  148.2220 O   0  0  0  0  0  0  0  0  0  0  0  0
  196.8530  173.9300  144.7700 N   0  0  0  0  0  2  0  0  0  0  0  0
  197.0250  172.6610  144.1980 N   0  0  0  0  0  2  0  0  0  0  0  0
  197.8710  172.8070  143.1510 O   0  0  0  0  0  1  0  0  0  0  0  0
  1 22  1  0  0  0  0
  1 14  1  0  0  0  0
  3 13  2  0  0  0  0
  4  3  1  0  0  0  0
  5 18  2  0  0  0  0
  6 19  1  0  0  0  0
  6 16  1  0  0  0  0
  7 19  2  0  0  0  0
  8 32  1  0  0  0  0
  8 12  1  0  0  0  0
  9  1  2  0  0  0  0
 10 12  2  0  0  0  0
 13 16  1  0  0  0  0
 13  2  1  0  0  0  0
 15  8  2  0  0  0  0
 17 15  1  0  0  0  0
 17 21  2  0  0  0  0
 18 14  1  0  0  0  0
 18 24  1  0  0  0  0
 19 17  1  0  0  0  0
 20 23  1  0  0  0  0
 20  2  1  0  0  0  0
 21 24  1  0  0  0  0
 21 10  1  0  0  0  0
 23 11  1  6  0  0  0
 23 22  1  0  0  0  0
 24 25  1  0  0  0  0
 25 27  1  0  0  0  0
 27 26  1  1  0  0  0
 28 27  1  0  0  0  0
 28 29  1  0  0  0  0
 29 31  2  0  0  0  0
 30 29  1  0  0  0  0
 33 32  1  0  0  0  0
 34 33  1  0  0  0  0
M  END
>  <MODEL>
7

>  <REMARK>
 VINA RESULT:      -5.7      2.284      6.195
  Name = 
  6 active torsions:
  status: ('A' for Active; 'I' for Inactive)
    1  A    between atoms: C_8  and  N_11
    2  A    between atoms: C_9  and  C_23
    3  A    between atoms: C_9  and  N_34
    4  A    between atoms: C_10  and  C_15
    5  A    between atoms: N_11  and  N_21
    6  A    between atoms: C_15  and  C_23
                            x       y       z     vdW  Elec       q    Type
                         _______ _______ _______ _____ _____    ______ ____

>  <TORSDO>
F 6

$$$$
=
 OpenBabel11042416063D

 34 35  0  0  1  0  0  0  0  0999 V2000
  195.4470  176.0000  144.3530 C   0  0  0  0  0  0  0  0  0  0  0  0
  192.1190  174.7220  146.5250 C   0  0  0  0  0  2  0  0  0  0  0  0
  190.0560  176.1000  146.4620 C   0  0  0  0  0  3  0  0  0  0  0  0
  190.6380  177.1140  147.3930 C   0  0  0  0  0  1  0  0  0  0  0  0
  194.1230  175.7810  141.4810 O   0  0  0  0  0  0  0  0  0  0  0  0
  189.7970  174.6540  143.7580 C   0  0  0  0  0  2  0  0  0  0  0  0
  191.8350  175.7490  143.2140 O   0  0  0  0  0  0  0  0  0  0  0  0
  190.5690  172.4540  140.0520 C   0  0  0  0  0  0  0  0  0  0  0  0
  195.2240  177.1980  144.2820 O   0  0  0  0  0  0  0  0  0  0  0  0
  192.9260  172.4510  140.6090 C   0  0  0  0  0  3  0  0  0  0  0  0
  194.2170  176.8590  147.0320 O   0  0  0  0  0  1  0  0  0  0  0  0
  191.8730  172.0070  139.8100 C   0  0  0  0  0  3  0  0  0  0  0  0
  190.7250  175.0120  146.0580 C   0  0  0  0  0  0  0  0  0  0  0  0
  195.7590  175.2260  143.1120 C   0  0  0  0  0  2  0  0  0  0  0  0
  190.3320  173.3550  141.0910 C   0  0  0  0  0  3  0  0  0  0  0  0
  190.0630  174.0390  145.1300 C   0  0  0  0  0  2  0  0  0  0  0  0
  191.3810  173.8260  141.8930 C   0  0  0  0  0  0  0  0  0  0  0  0
  194.5200  174.9330  142.3230 C   0  0  0  0  0  0  0  0  0  0  0  0
  191.0620  174.7860  142.9690 C   0  0  0  0  0  0  0  0  0  0  0  0
  193.0310  175.4110  145.7210 O   0  0  0  0  0  0  0  0  0  0  0  0
  192.6980  173.3610  141.6500 C   0  0  0  0  0  0  0  0  0  0  0  0
  195.4380  175.2990  145.6820 C   0  0  0  0  0  2  0  0  0  0  0  0
  194.1760  175.5670  146.5040 C   0  0  1  0  0  3  0  0  0  0  0  0
  193.7930  173.7030  142.5130 N   0  0  0  0  0  0  0  0  0  0  0  0
  194.3680  172.6520  143.3500 C   0  0  0  0  0  2  0  0  0  0  0  0
  192.6420  171.1110  144.0030 O   0  0  0  0  0  1  0  0  0  0  0  0
  193.3820  172.2180  144.4260 C   0  0  1  0  0  3  0  0  0  0  0  0
  194.0970  171.9130  145.7420 C   0  0  0  0  0  2  0  0  0  0  0  0
  195.3770  171.1680  145.5430 C   0  0  0  0  0  0  0  0  0  0  0  0
  196.6230  171.8270  145.7370 N   0  0  0  0  0  1  0  0  0  0  0  0
  195.3540  169.9500  145.2290 O   0  0  0  0  0  0  0  0  0  0  0  0
  189.4750  172.0060  139.2490 N   0  0  0  0  0  2  0  0  0  0  0  0
  188.2230  172.6400  139.2690 N   0  0  0  0  0  2  0  0  0  0  0  0
  188.1860  173.4810  138.2070 O   0  0  0  0  0  1  0  0  0  0  0  0
  1 22  1  0  0  0  0
  3  4  1  0  0  0  0
  5 18  2  0  0  0  0
  6 16  1  0  0  0  0
  8 15  1  0  0  0  0
  9  1  2  0  0  0  0
 10 21  2  0  0  0  0
 12  8  2  0  0  0  0
 12 10  1  0  0  0  0
 13  3  2  0  0  0  0
 13  2  1  0  0  0  0
 14  1  1  0  0  0  0
 15 17  2  0  0  0  0
 16 13  1  0  0  0  0
 17 19  1  0  0  0  0
 18 24  1  0  0  0  0
 18 14  1  0  0  0  0
 19  7  2  0  0  0  0
 19  6  1  0  0  0  0
 20 23  1  0  0  0  0
 20  2  1  0  0  0  0
 21 17  1  0  0  0  0
 21 24  1  0  0  0  0
 22 23  1  0  0  0  0
 23 11  1  6  0  0  0
 24 25  1  0  0  0  0
 25 27  1  0  0  0  0
 27 26  1  6  0  0  0
 27 28  1  0  0  0  0
 29 30  1  0  0  0  0
 29 28  1  0  0  0  0
 31 29  2  0  0  0  0
 32 33  1  0  0  0  0
 32  8  1  0  0  0  0
 34 33  1  0  0  0  0
M  END
>  <MODEL>
8

>  <REMARK>
 VINA RESULT:      -5.7      3.385      6.298
  Name = 
  6 active torsions:
  status: ('A' for Active; 'I' for Inactive)
    1  A    between atoms: C_8  and  N_11
    2  A    between atoms: C_9  and  C_23
    3  A    between atoms: C_9  and  N_34
    4  A    between atoms: C_10  and  C_15
    5  A    between atoms: N_11  and  N_21
    6  A    between atoms: C_15  and  C_23
                            x       y       z     vdW  Elec       q    Type
                         _______ _______ _______ _____ _____    ______ ____

>  <TORSDO>
F 6

$$$$
=
 OpenBabel11042416063D

 34 35  0  0  1  0  0  0  0  0999 V2000
  195.9750  175.0600  144.5540 C   0  0  0  0  0  0  0  0  0  0  0  0
  193.7810  171.9550  142.8300 C   0  0  0  0  0  2  0  0  0  0  0  0
  192.7510  170.2570  144.3170 C   0  0  0  0  0  3  0  0  0  0  0  0
  194.0650  169.5860  144.5550 C   0  0  0  0  0  1  0  0  0  0  0  0
  193.5690  176.3760  146.1450 O   0  0  0  0  0  0  0  0  0  0  0  0
  190.7100  172.5370  144.6400 C   0  0  0  0  0  2  0  0  0  0  0  0
  192.5400  173.7690  145.5250 O   0  0  0  0  0  0  0  0  0  0  0  0
  188.6970  176.4250  144.7290 C   0  0  0  0  0  0  0  0  0  0  0  0
  196.2970  174.5480  145.6150 O   0  0  0  0  0  0  0  0  0  0  0  0
  190.7820  177.4580  144.0610 C   0  0  0  0  0  3  0  0  0  0  0  0
  196.5840  172.1040  143.9900 O   0  0  0  0  0  1  0  0  0  0  0  0
  189.4090  177.5470  144.2930 C   0  0  0  0  0  3  0  0  0  0  0  0
  192.6140  171.3380  143.5370 C   0  0  0  0  0  0  0  0  0  0  0  0
  195.3250  176.4070  144.5460 C   0  0  0  0  0  2  0  0  0  0  0  0
  189.3700  175.2210  144.9420 C   0  0  0  0  0  3  0  0  0  0  0  0
  191.2560  171.9430  143.3450 C   0  0  0  0  0  2  0  0  0  0  0  0
  190.7520  175.1190  144.7310 C   0  0  0  0  0  0  0  0  0  0  0  0
  193.8790  176.3210  144.9250 C   0  0  0  0  0  0  0  0  0  0  0  0
  191.4040  173.8180  144.9850 C   0  0  0  0  0  0  0  0  0  0  0  0
  194.4390  172.8330  143.6960 O   0  0  0  0  0  0  0  0  0  0  0  0
  191.4670  176.2560  144.2770 C   0  0  0  0  0  0  0  0  0  0  0  0
  196.2500  174.3600  143.2530 C   0  0  0  0  0  2  0  0  0  0  0  0
  195.7490  172.9160  143.2210 C   0  0  1  0  0  3  0  0  0  0  0  0
  192.8560  176.1840  143.9200 N   0  0  0  0  0  0  0  0  0  0  0  0
  193.2130  176.3140  142.5090 C   0  0  0  0  0  2  0  0  0  0  0  0
  191.6010  174.9020  141.4200 O   0  0  0  0  0  1  0  0  0  0  0  0
  192.9520  175.0120  141.7640 C   0  0  1  0  0  3  0  0  0  0  0  0
  193.8320  174.8990  140.5200 C   0  0  0  0  0  2  0  0  0  0  0  0
  193.2440  174.0070  139.4760 C   0  0  0  0  0  0  0  0  0  0  0  0
  192.8720  174.5390  138.2100 N   0  0  0  0  0  1  0  0  0  0  0  0
  193.0990  172.7780  139.7060 O   0  0  0  0  0  0  0  0  0  0  0  0
  187.2880  176.4920  144.9670 N   0  0  0  0  0  2  0  0  0  0  0  0
  186.7560  176.7940  146.2300 N   0  0  0  0  0  2  0  0  0  0  0  0
  185.4270  176.9930  146.0630 O   0  0  0  0  0  1  0  0  0  0  0  0
  1  9  2  0  0  0  0
  2 13  1  0  0  0  0
  2 20  1  0  0  0  0
  3  4  1  0  0  0  0
  6 19  1  0  0  0  0
  8 15  1  0  0  0  0
  8 32  1  0  0  0  0
 10 21  2  0  0  0  0
 10 12  1  0  0  0  0
 12  8  2  0  0  0  0
 13  3  2  0  0  0  0
 14  1  1  0  0  0  0
 14 18  1  0  0  0  0
 16 13  1  0  0  0  0
 16  6  1  0  0  0  0
 17 15  2  0  0  0  0
 17 19  1  0  0  0  0
 18  5  2  0  0  0  0
 19  7  2  0  0  0  0
 21 17  1  0  0  0  0
 22  1  1  0  0  0  0
 23 22  1  0  0  0  0
 23 20  1  0  0  0  0
 23 11  1  1  0  0  0
 24 21  1  0  0  0  0
 24 18  1  0  0  0  0
 25 24  1  0  0  0  0
 27 26  1  6  0  0  0
 27 25  1  0  0  0  0
 28 27  1  0  0  0  0
 29 31  2  0  0  0  0
 29 28  1  0  0  0  0
 30 29  1  0  0  0  0
 32 33  1  0  0  0  0
 34 33  1  0  0  0  0
M  END
>  <MODEL>
9

>  <REMARK>
 VINA RESULT:      -5.6      2.062      2.592
  Name = 
  6 active torsions:
  status: ('A' for Active; 'I' for Inactive)
    1  A    between atoms: C_8  and  N_11
    2  A    between atoms: C_9  and  C_23
    3  A    between atoms: C_9  and  N_34
    4  A    between atoms: C_10  and  C_15
    5  A    between atoms: N_11  and  N_21
    6  A    between atoms: C_15  and  C_23
                            x       y       z     vdW  Elec       q    Type
                         _______ _______ _______ _____ _____    ______ ____

>  <TORSDO>
F 6

$$$$
