=
 OpenBabel11042413513D

 25 26  0  0  1  0  0  0  0  0999 V2000
  189.0790  177.1470  145.2670 C   0  0  0  0  0  3  0  0  0  0  0  0
  189.0640  175.2810  147.3550 C   0  0  0  0  0  3  0  0  0  0  0  0
  187.8770  176.8160  145.8990 C   0  0  0  0  0  0  0  0  0  0  0  0
  191.5420  177.8560  143.9070 C   0  0  0  0  0  1  0  0  0  0  0  0
  192.6540  175.3000  146.5020 C   0  0  0  0  0  3  0  0  0  0  0  0
  192.6910  176.2280  145.4570 C   0  0  0  0  0  0  0  0  0  0  0  0
  190.2660  175.6010  146.7200 C   0  0  0  0  0  0  0  0  0  0  0  0
  191.5050  176.8610  145.0290 C   0  0  0  0  0  0  0  0  0  0  0  0
  191.4490  174.9880  147.1300 C   0  0  0  0  0  3  0  0  0  0  0  0
  190.2840  176.5450  145.6640 C   0  0  0  0  0  0  0  0  0  0  0  0
  187.8730  175.8870  146.9480 C   0  0  0  0  0  3  0  0  0  0  0  0
  194.9830  176.7450  144.3460 N   0  0  0  0  0  0  0  0  0  0  0  0
  193.9630  176.5150  144.8410 C   0  0  0  0  0  0  0  0  0  0  0  0
  186.6110  177.4730  145.4500 C   0  0  2  0  0  3  0  0  0  0  0  0
  185.4750  176.8620  146.1220 N   0  0  0  0  0  2  0  0  0  0  0  0
  184.6210  177.9380  146.6000 C   0  0  0  0  0  2  0  0  0  0  0  0
  185.4620  178.9910  147.2930 C   0  0  0  0  0  1  0  0  0  0  0  0
  186.4530  177.3610  144.0370 O   0  0  0  0  0  0  0  0  0  0  0  0
  185.7500  179.5180  143.7180 O   0  0  0  0  0  0  0  0  0  0  0  0
  186.1960  178.4560  143.2070 C   0  0  0  0  0  0  0  0  0  0  0  0
  185.3790  177.7620  141.0860 O   0  0  0  0  0  1  0  0  0  0  0  0
  186.4460  178.3910  141.7290 C   0  0  2  0  0  3  0  0  0  0  0  0
  188.8250  178.2560  141.6380 O   0  0  0  0  0  0  0  0  0  0  0  0
  187.7260  177.6810  141.4270 C   0  0  0  0  0  0  0  0  0  0  0  0
  187.7130  176.3530  140.9100 N   0  0  0  0  0  1  0  0  0  0  0  0
  1 10  2  0  0  0  0
  1  3  1  0  0  0  0
  3 11  2  0  0  0  0
  4  8  1  0  0  0  0
  5  9  2  0  0  0  0
  6  5  1  0  0  0  0
  7  9  1  0  0  0  0
  7  2  2  0  0  0  0
  8  6  2  0  0  0  0
  8 10  1  0  0  0  0
 10  7  1  0  0  0  0
 11  2  1  0  0  0  0
 12 13  3  0  0  0  0
 13  6  1  0  0  0  0
 14 18  1  6  0  0  0
 14  3  1  0  0  0  0
 14 15  1  0  0  0  0
 15 16  1  0  0  0  0
 16 17  1  0  0  0  0
 20 19  2  0  0  0  0
 20 18  1  0  0  0  0
 22 21  1  6  0  0  0
 22 20  1  0  0  0  0
 24 23  2  0  0  0  0
 24 22  1  0  0  0  0
 25 24  1  0  0  0  0
M  END
>  <MODEL>
1

>  <REMARK>
 VINA RESULT:      -6.7      0.000      0.000
  Name = 
  8 active torsions:
  status: ('A' for Active; 'I' for Inactive)
    1  A    between atoms: C_3  and  C_5
    2  A    between atoms: N_4  and  C_5
    3  A    between atoms: N_4  and  C_15
    4  A    between atoms: C_5  and  O_10
    5  A    between atoms: O_10  and  C_19
    6  A    between atoms: C_11  and  C_12
    7  A    between atoms: C_11  and  C_19
    8  A    between atoms: C_16  and  C_22
                            x       y       z     vdW  Elec       q    Type
                         _______ _______ _______ _____ _____    ______ ____

>  <TORSDO>
F 8

$$$$
=
 OpenBabel11042413513D

 25 26  0  0  1  0  0  0  0  0999 V2000
  189.5240  177.0720  145.1690 C   0  0  0  0  0  3  0  0  0  0  0  0
  189.5040  175.1810  147.2330 C   0  0  0  0  0  3  0  0  0  0  0  0
  188.3210  176.7390  145.7990 C   0  0  0  0  0  0  0  0  0  0  0  0
  191.9870  177.7860  143.8130 C   0  0  0  0  0  1  0  0  0  0  0  0
  193.0920  175.1930  146.3740 C   0  0  0  0  0  3  0  0  0  0  0  0
  193.1320  176.1340  145.3400 C   0  0  0  0  0  0  0  0  0  0  0  0
  190.7060  175.5030  146.6000 C   0  0  0  0  0  0  0  0  0  0  0  0
  191.9480  176.7780  144.9220 C   0  0  0  0  0  0  0  0  0  0  0  0
  191.8870  174.8790  147.0010 C   0  0  0  0  0  3  0  0  0  0  0  0
  190.7270  176.4600  145.5560 C   0  0  0  0  0  0  0  0  0  0  0  0
  188.3150  175.7980  146.8360 C   0  0  0  0  0  3  0  0  0  0  0  0
  195.4250  176.6540  144.2330 N   0  0  0  0  0  0  0  0  0  0  0  0
  194.4040  176.4220  144.7260 C   0  0  0  0  0  0  0  0  0  0  0  0
  187.0580  177.4080  145.3600 C   0  0  2  0  0  3  0  0  0  0  0  0
  186.2460  177.7360  146.5220 N   0  0  0  0  0  2  0  0  0  0  0  0
  184.8770  177.3580  146.2180 C   0  0  0  0  0  2  0  0  0  0  0  0
  183.9970  178.5910  146.1930 C   0  0  0  0  0  1  0  0  0  0  0  0
  186.3180  176.5680  144.4770 O   0  0  0  0  0  0  0  0  0  0  0  0
  187.0360  175.3650  142.6640 O   0  0  0  0  0  0  0  0  0  0  0  0
  186.5990  176.4580  143.1110 C   0  0  0  0  0  0  0  0  0  0  0  0
  187.5640  178.3410  142.0270 O   0  0  0  0  0  1  0  0  0  0  0  0
  186.3840  177.6120  142.1750 C   0  0  2  0  0  3  0  0  0  0  0  0
  185.5580  179.5830  143.2320 O   0  0  0  0  0  0  0  0  0  0  0  0
  185.2810  178.5000  142.6550 C   0  0  0  0  0  0  0  0  0  0  0  0
  183.9180  178.1330  142.4580 N   0  0  0  0  0  1  0  0  0  0  0  0
  1 10  2  0  0  0  0
  1  3  1  0  0  0  0
  3 11  2  0  0  0  0
  4  8  1  0  0  0  0
  5  9  2  0  0  0  0
  6  5  1  0  0  0  0
  7  9  1  0  0  0  0
  7  2  2  0  0  0  0
  8  6  2  0  0  0  0
  8 10  1  0  0  0  0
 10  7  1  0  0  0  0
 11  2  1  0  0  0  0
 12 13  3  0  0  0  0
 13  6  1  0  0  0  0
 14 18  1  6  0  0  0
 14  3  1  0  0  0  0
 14 15  1  0  0  0  0
 16 15  1  0  0  0  0
 17 16  1  0  0  0  0
 19 20  2  0  0  0  0
 20 18  1  0  0  0  0
 22 21  1  1  0  0  0
 22 24  1  0  0  0  0
 22 20  1  0  0  0  0
 24 23  2  0  0  0  0
 25 24  1  0  0  0  0
M  END
>  <MODEL>
2

>  <REMARK>
 VINA RESULT:      -6.6      1.292      1.828
  Name = 
  8 active torsions:
  status: ('A' for Active; 'I' for Inactive)
    1  A    between atoms: C_3  and  C_5
    2  A    between atoms: N_4  and  C_5
    3  A    between atoms: N_4  and  C_15
    4  A    between atoms: C_5  and  O_10
    5  A    between atoms: O_10  and  C_19
    6  A    between atoms: C_11  and  C_12
    7  A    between atoms: C_11  and  C_19
    8  A    between atoms: C_16  and  C_22
                            x       y       z     vdW  Elec       q    Type
                         _______ _______ _______ _____ _____    ______ ____

>  <TORSDO>
F 8

$$$$
=
 OpenBabel11042413513D

 25 26  0  0  1  0  0  0  0  0999 V2000
  187.5980  177.0530  144.4640 C   0  0  0  0  0  3  0  0  0  0  0  0
  186.3300  178.2860  146.6340 C   0  0  0  0  0  3  0  0  0  0  0  0
  188.2270  177.0880  145.7120 C   0  0  0  0  0  0  0  0  0  0  0  0
  186.3490  176.9680  141.8470 C   0  0  0  0  0  1  0  0  0  0  0  0
  183.8150  178.8350  143.9900 C   0  0  0  0  0  3  0  0  0  0  0  0
  184.4250  178.2270  142.8890 C   0  0  0  0  0  0  0  0  0  0  0  0
  185.7030  178.2620  145.3860 C   0  0  0  0  0  0  0  0  0  0  0  0
  185.6920  177.6210  143.0260 C   0  0  0  0  0  0  0  0  0  0  0  0
  184.4500  178.8530  145.2320 C   0  0  0  0  0  3  0  0  0  0  0  0
  186.3350  177.6390  144.2830 C   0  0  0  0  0  0  0  0  0  0  0  0
  187.5870  177.6990  146.7980 C   0  0  0  0  0  3  0  0  0  0  0  0
  183.1670  178.2440  140.6150 N   0  0  0  0  0  0  0  0  0  0  0  0
  183.7270  178.2370  141.6280 C   0  0  0  0  0  0  0  0  0  0  0  0
  189.5730  176.4570  145.8690 C   0  0  2  0  0  3  0  0  0  0  0  0
  189.7190  175.9390  147.2210 N   0  0  0  0  0  2  0  0  0  0  0  0
  189.2550  174.5620  147.2120 C   0  0  0  0  0  2  0  0  0  0  0  0
  189.6710  173.8880  145.9200 C   0  0  0  0  0  1  0  0  0  0  0  0
  190.6110  177.3970  145.5990 O   0  0  0  0  0  0  0  0  0  0  0  0
  191.0660  178.1710  143.4910 O   0  0  0  0  0  0  0  0  0  0  0  0
  191.3700  177.3820  144.4250 C   0  0  0  0  0  0  0  0  0  0  0  0
  192.1020  175.2110  143.7900 O   0  0  0  0  0  1  0  0  0  0  0  0
  192.5360  176.4510  144.2610 C   0  0  2  0  0  3  0  0  0  0  0  0
  194.0940  177.1740  145.9140 O   0  0  0  0  0  0  0  0  0  0  0  0
  193.2820  176.2870  145.5460 C   0  0  0  0  0  0  0  0  0  0  0  0
  193.0750  175.1370  146.3610 N   0  0  0  0  0  1  0  0  0  0  0  0
  1  3  1  0  0  0  0
  2 11  1  0  0  0  0
  3 14  1  0  0  0  0
  3 11  2  0  0  0  0
  4  8  1  0  0  0  0
  5  9  2  0  0  0  0
  6  8  2  0  0  0  0
  6  5  1  0  0  0  0
  7  2  2  0  0  0  0
  8 10  1  0  0  0  0
  9  7  1  0  0  0  0
 10  1  2  0  0  0  0
 10  7  1  0  0  0  0
 12 13  3  0  0  0  0
 13  6  1  0  0  0  0
 14 18  1  1  0  0  0
 14 15  1  0  0  0  0
 16 15  1  0  0  0  0
 17 16  1  0  0  0  0
 19 20  2  0  0  0  0
 20 18  1  0  0  0  0
 22 21  1  1  0  0  0
 22 20  1  0  0  0  0
 22 24  1  0  0  0  0
 24 23  2  0  0  0  0
 24 25  1  0  0  0  0
M  END
>  <MODEL>
3

>  <REMARK>
 VINA RESULT:      -6.4      2.783      6.666
  Name = 
  8 active torsions:
  status: ('A' for Active; 'I' for Inactive)
    1  A    between atoms: C_3  and  C_5
    2  A    between atoms: N_4  and  C_5
    3  A    between atoms: N_4  and  C_15
    4  A    between atoms: C_5  and  O_10
    5  A    between atoms: O_10  and  C_19
    6  A    between atoms: C_11  and  C_12
    7  A    between atoms: C_11  and  C_19
    8  A    between atoms: C_16  and  C_22
                            x       y       z     vdW  Elec       q    Type
                         _______ _______ _______ _____ _____    ______ ____

>  <TORSDO>
F 8

$$$$
=
 OpenBabel11042413513D

 25 26  0  0  1  0  0  0  0  0999 V2000
  188.9340  175.5540  144.5100 C   0  0  0  0  0  3  0  0  0  0  0  0
  188.5500  175.2300  147.2640 C   0  0  0  0  0  3  0  0  0  0  0  0
  189.6100  174.5390  145.1950 C   0  0  0  0  0  0  0  0  0  0  0  0
  187.5730  177.6540  143.0430 C   0  0  0  0  0  1  0  0  0  0  0  0
  186.3540  178.1240  146.6200 C   0  0  0  0  0  3  0  0  0  0  0  0
  186.5260  178.3090  145.2450 C   0  0  0  0  0  0  0  0  0  0  0  0
  187.8800  176.2510  146.5870 C   0  0  0  0  0  0  0  0  0  0  0  0
  187.3850  177.4570  144.5180 C   0  0  0  0  0  0  0  0  0  0  0  0
  187.0260  177.1010  147.2870 C   0  0  0  0  0  3  0  0  0  0  0  0
  188.0660  176.4220  145.1930 C   0  0  0  0  0  0  0  0  0  0  0  0
  189.4100  174.3750  146.5720 C   0  0  0  0  0  3  0  0  0  0  0  0
  185.2320  180.2430  144.0870 N   0  0  0  0  0  0  0  0  0  0  0  0
  185.8080  179.3820  144.6030 C   0  0  0  0  0  0  0  0  0  0  0  0
  190.5280  173.6350  144.4380 C   0  0  2  0  0  3  0  0  0  0  0  0
  189.9730  172.2910  144.3990 N   0  0  0  0  0  2  0  0  0  0  0  0
  189.8970  171.8910  143.0040 C   0  0  0  0  0  2  0  0  0  0  0  0
  188.5880  172.3660  142.4040 C   0  0  0  0  0  1  0  0  0  0  0  0
  191.8210  173.6050  145.0380 O   0  0  0  0  0  0  0  0  0  0  0  0
  193.0270  175.2340  143.9700 O   0  0  0  0  0  0  0  0  0  0  0  0
  192.6800  174.7080  145.0600 C   0  0  0  0  0  0  0  0  0  0  0  0
  192.3190  176.2600  146.8240 O   0  0  0  0  0  1  0  0  0  0  0  0
  193.1890  175.2760  146.3540 C   0  0  2  0  0  3  0  0  0  0  0  0
  194.7430  177.0780  146.2160 O   0  0  0  0  0  0  0  0  0  0  0  0
  194.5670  175.8330  146.1950 C   0  0  0  0  0  0  0  0  0  0  0  0
  195.6840  174.9650  146.0270 N   0  0  0  0  0  1  0  0  0  0  0  0
  1 10  2  0  0  0  0
  1  3  1  0  0  0  0
  3 11  2  0  0  0  0
  4  8  1  0  0  0  0
  5  9  2  0  0  0  0
  6  5  1  0  0  0  0
  7  2  2  0  0  0  0
  7  9  1  0  0  0  0
  8 10  1  0  0  0  0
  8  6  2  0  0  0  0
 10  7  1  0  0  0  0
 11  2  1  0  0  0  0
 12 13  3  0  0  0  0
 13  6  1  0  0  0  0
 14 15  1  1  0  0  0
 14 18  1  0  0  0  0
 14  3  1  0  0  0  0
 16 15  1  0  0  0  0
 17 16  1  0  0  0  0
 18 20  1  0  0  0  0
 19 20  2  0  0  0  0
 20 22  1  0  0  0  0
 22 21  1  6  0  0  0
 24 23  2  0  0  0  0
 24 22  1  0  0  0  0
 25 24  1  0  0  0  0
M  END
>  <MODEL>
4

>  <REMARK>
 VINA RESULT:      -6.3      3.604      6.769
  Name = 
  8 active torsions:
  status: ('A' for Active; 'I' for Inactive)
    1  A    between atoms: C_3  and  C_5
    2  A    between atoms: N_4  and  C_5
    3  A    between atoms: N_4  and  C_15
    4  A    between atoms: C_5  and  O_10
    5  A    between atoms: O_10  and  C_19
    6  A    between atoms: C_11  and  C_12
    7  A    between atoms: C_11  and  C_19
    8  A    between atoms: C_16  and  C_22
                            x       y       z     vdW  Elec       q    Type
                         _______ _______ _______ _____ _____    ______ ____

>  <TORSDO>
F 8

$$$$
=
 OpenBabel11042413513D

 25 26  0  0  1  0  0  0  0  0999 V2000
  187.5420  177.2730  144.3320 C   0  0  0  0  0  3  0  0  0  0  0  0
  186.1770  178.3700  146.5170 C   0  0  0  0  0  3  0  0  0  0  0  0
  188.1600  177.3310  145.5850 C   0  0  0  0  0  0  0  0  0  0  0  0
  186.3150  177.1470  141.7060 C   0  0  0  0  0  1  0  0  0  0  0  0
  183.6410  178.7840  143.8680 C   0  0  0  0  0  3  0  0  0  0  0  0
  184.2990  178.2420  142.7600 C   0  0  0  0  0  0  0  0  0  0  0  0
  185.5580  178.3240  145.2650 C   0  0  0  0  0  0  0  0  0  0  0  0
  185.6060  177.7280  142.8940 C   0  0  0  0  0  0  0  0  0  0  0  0
  184.2660  178.8240  145.1140 C   0  0  0  0  0  3  0  0  0  0  0  0
  186.2400  177.7690  144.1540 C   0  0  0  0  0  0  0  0  0  0  0  0
  187.4720  177.8740  146.6780 C   0  0  0  0  0  3  0  0  0  0  0  0
  183.0510  178.2100  140.4800 N   0  0  0  0  0  0  0  0  0  0  0  0
  183.6070  178.2240  141.4950 C   0  0  0  0  0  0  0  0  0  0  0  0
  189.5480  176.7970  145.7380 C   0  0  2  0  0  3  0  0  0  0  0  0
  189.9470  176.8600  147.1360 N   0  0  0  0  0  2  0  0  0  0  0  0
  190.3690  175.5260  147.5290 C   0  0  0  0  0  2  0  0  0  0  0  0
  189.3020  174.5180  147.1520 C   0  0  0  0  0  1  0  0  0  0  0  0
  190.4690  177.5370  144.9400 O   0  0  0  0  0  0  0  0  0  0  0  0
  191.6370  177.7080  142.9760 O   0  0  0  0  0  0  0  0  0  0  0  0
  191.2120  176.9670  143.9020 C   0  0  0  0  0  0  0  0  0  0  0  0
  192.8790  175.2870  143.6740 O   0  0  0  0  0  1  0  0  0  0  0  0
  191.5140  175.4970  143.8740 C   0  0  2  0  0  3  0  0  0  0  0  0
  191.2240  174.6200  141.6760 O   0  0  0  0  0  0  0  0  0  0  0  0
  190.7210  174.8010  142.8140 C   0  0  0  0  0  0  0  0  0  0  0  0
  189.4020  174.3360  143.0860 N   0  0  0  0  0  1  0  0  0  0  0  0
  1  3  1  0  0  0  0
  2 11  1  0  0  0  0
  3 14  1  0  0  0  0
  3 11  2  0  0  0  0
  4  8  1  0  0  0  0
  5  9  2  0  0  0  0
  6  8  2  0  0  0  0
  6  5  1  0  0  0  0
  7  2  2  0  0  0  0
  8 10  1  0  0  0  0
  9  7  1  0  0  0  0
 10  1  2  0  0  0  0
 10  7  1  0  0  0  0
 12 13  3  0  0  0  0
 13  6  1  0  0  0  0
 14 18  1  6  0  0  0
 14 15  1  0  0  0  0
 15 16  1  0  0  0  0
 17 16  1  0  0  0  0
 19 20  2  0  0  0  0
 20 18  1  0  0  0  0
 22 21  1  6  0  0  0
 22 20  1  0  0  0  0
 23 24  2  0  0  0  0
 24 25  1  0  0  0  0
 24 22  1  0  0  0  0
M  END
>  <MODEL>
5

>  <REMARK>
 VINA RESULT:      -6.2      2.841      6.418
  Name = 
  8 active torsions:
  status: ('A' for Active; 'I' for Inactive)
    1  A    between atoms: C_3  and  C_5
    2  A    between atoms: N_4  and  C_5
    3  A    between atoms: N_4  and  C_15
    4  A    between atoms: C_5  and  O_10
    5  A    between atoms: O_10  and  C_19
    6  A    between atoms: C_11  and  C_12
    7  A    between atoms: C_11  and  C_19
    8  A    between atoms: C_16  and  C_22
                            x       y       z     vdW  Elec       q    Type
                         _______ _______ _______ _____ _____    ______ ____

>  <TORSDO>
F 8

$$$$
=
 OpenBabel11042413513D

 25 26  0  0  1  0  0  0  0  0999 V2000
  187.5920  176.7330  144.8830 C   0  0  0  0  0  3  0  0  0  0  0  0
  186.5170  178.1930  147.0160 C   0  0  0  0  0  3  0  0  0  0  0  0
  188.2530  176.7590  146.1140 C   0  0  0  0  0  0  0  0  0  0  0  0
  186.2730  176.6600  142.3000 C   0  0  0  0  0  1  0  0  0  0  0  0
  184.0050  178.8820  144.4020 C   0  0  0  0  0  3  0  0  0  0  0  0
  184.5190  178.1620  143.3200 C   0  0  0  0  0  0  0  0  0  0  0  0
  185.8580  178.1780  145.7850 C   0  0  0  0  0  0  0  0  0  0  0  0
  185.7190  177.4330  143.4590 C   0  0  0  0  0  0  0  0  0  0  0  0
  184.6700  178.8900  145.6280 C   0  0  0  0  0  3  0  0  0  0  0  0
  186.3930  177.4410  144.7000 C   0  0  0  0  0  0  0  0  0  0  0  0
  187.7090  177.4850  147.1820 C   0  0  0  0  0  3  0  0  0  0  0  0
  183.2100  178.2080  141.0750 N   0  0  0  0  0  0  0  0  0  0  0  0
  183.7930  178.1870  142.0750 C   0  0  0  0  0  0  0  0  0  0  0  0
  189.5290  175.9970  146.2740 C   0  0  2  0  0  3  0  0  0  0  0  0
  190.5840  176.8930  146.7250 N   0  0  0  0  0  2  0  0  0  0  0  0
  191.0660  176.3910  148.0010 C   0  0  0  0  0  2  0  0  0  0  0  0
  191.5020  177.5490  148.8760 C   0  0  0  0  0  1  0  0  0  0  0  0
  189.9120  175.3820  145.0450 O   0  0  0  0  0  0  0  0  0  0  0  0
  192.0240  174.5250  145.2750 O   0  0  0  0  0  0  0  0  0  0  0  0
  191.2410  175.2700  144.6270 C   0  0  0  0  0  0  0  0  0  0  0  0
  193.0610  176.4320  143.6340 O   0  0  0  0  0  1  0  0  0  0  0  0
  191.7470  176.0130  143.4250 C   0  0  2  0  0  3  0  0  0  0  0  0
  189.9010  177.0410  142.3200 O   0  0  0  0  0  0  0  0  0  0  0  0
  190.8730  177.1830  143.1050 C   0  0  0  0  0  0  0  0  0  0  0  0
  191.1290  178.4580  143.6890 N   0  0  0  0  0  1  0  0  0  0  0  0
  1  3  1  0  0  0  0
  2 11  1  0  0  0  0
  3 14  1  0  0  0  0
  3 11  2  0  0  0  0
  4  8  1  0  0  0  0
  5  9  2  0  0  0  0
  6  8  2  0  0  0  0
  6  5  1  0  0  0  0
  7  2  2  0  0  0  0
  8 10  1  0  0  0  0
  9  7  1  0  0  0  0
 10  1  2  0  0  0  0
 10  7  1  0  0  0  0
 12 13  3  0  0  0  0
 13  6  1  0  0  0  0
 14 18  1  6  0  0  0
 14 15  1  0  0  0  0
 15 16  1  0  0  0  0
 16 17  1  0  0  0  0
 20 18  1  0  0  0  0
 20 19  2  0  0  0  0
 22 21  1  1  0  0  0
 22 20  1  0  0  0  0
 23 24  2  0  0  0  0
 24 22  1  0  0  0  0
 24 25  1  0  0  0  0
M  END
>  <MODEL>
6

>  <REMARK>
 VINA RESULT:      -6.1      2.831      6.381
  Name = 
  8 active torsions:
  status: ('A' for Active; 'I' for Inactive)
    1  A    between atoms: C_3  and  C_5
    2  A    between atoms: N_4  and  C_5
    3  A    between atoms: N_4  and  C_15
    4  A    between atoms: C_5  and  O_10
    5  A    between atoms: O_10  and  C_19
    6  A    between atoms: C_11  and  C_12
    7  A    between atoms: C_11  and  C_19
    8  A    between atoms: C_16  and  C_22
                            x       y       z     vdW  Elec       q    Type
                         _______ _______ _______ _____ _____    ______ ____

>  <TORSDO>
F 8

$$$$
=
 OpenBabel11042413513D

 25 26  0  0  1  0  0  0  0  0999 V2000
  187.7920  176.8170  144.4350 C   0  0  0  0  0  3  0  0  0  0  0  0
  186.4590  177.9130  146.6400 C   0  0  0  0  0  3  0  0  0  0  0  0
  188.3700  176.7460  145.7060 C   0  0  0  0  0  0  0  0  0  0  0  0
  186.6490  176.9530  141.7720 C   0  0  0  0  0  1  0  0  0  0  0  0
  184.0650  178.7100  143.9480 C   0  0  0  0  0  3  0  0  0  0  0  0
  184.7070  178.1720  142.8290 C   0  0  0  0  0  0  0  0  0  0  0  0
  185.8830  177.9950  145.3700 C   0  0  0  0  0  0  0  0  0  0  0  0
  185.9560  177.5310  142.9700 C   0  0  0  0  0  0  0  0  0  0  0  0
  184.6480  178.6230  145.2120 C   0  0  0  0  0  3  0  0  0  0  0  0
  186.5480  177.4420  144.2490 C   0  0  0  0  0  0  0  0  0  0  0  0
  187.6980  177.2890  146.8080 C   0  0  0  0  0  3  0  0  0  0  0  0
  183.5440  178.3860  140.5160 N   0  0  0  0  0  0  0  0  0  0  0  0
  184.0610  178.2900  141.5460 C   0  0  0  0  0  0  0  0  0  0  0  0
  189.6970  176.0760  145.8680 C   0  0  2  0  0  3  0  0  0  0  0  0
  190.6700  177.0300  146.3770 N   0  0  0  0  0  2  0  0  0  0  0  0
  191.7410  176.2700  146.9990 C   0  0  0  0  0  2  0  0  0  0  0  0
  191.1600  175.2860  147.9950 C   0  0  0  0  0  1  0  0  0  0  0  0
  190.1510  175.5400  144.6270 O   0  0  0  0  0  0  0  0  0  0  0  0
  189.7340  173.3580  145.1880 O   0  0  0  0  0  0  0  0  0  0  0  0
  190.0320  174.1880  144.2890 C   0  0  0  0  0  0  0  0  0  0  0  0
  189.9230  174.7250  141.9750 O   0  0  0  0  0  1  0  0  0  0  0  0
  190.2470  173.7140  142.8810 C   0  0  2  0  0  3  0  0  0  0  0  0
  188.2090  172.5800  142.3850 O   0  0  0  0  0  0  0  0  0  0  0  0
  189.4450  172.4850  142.5960 C   0  0  0  0  0  0  0  0  0  0  0  0
  190.0710  171.2050  142.5540 N   0  0  0  0  0  1  0  0  0  0  0  0
  1  3  1  0  0  0  0
  2 11  1  0  0  0  0
  3 14  1  0  0  0  0
  3 11  2  0  0  0  0
  4  8  1  0  0  0  0
  5  9  2  0  0  0  0
  6  8  2  0  0  0  0
  6  5  1  0  0  0  0
  7  2  2  0  0  0  0
  8 10  1  0  0  0  0
  9  7  1  0  0  0  0
 10  1  2  0  0  0  0
 10  7  1  0  0  0  0
 12 13  3  0  0  0  0
 13  6  1  0  0  0  0
 14 18  1  6  0  0  0
 14 15  1  0  0  0  0
 15 16  1  0  0  0  0
 16 17  1  0  0  0  0
 20 18  1  0  0  0  0
 20 19  2  0  0  0  0
 22 21  1  6  0  0  0
 22 20  1  0  0  0  0
 23 24  2  0  0  0  0
 24 22  1  0  0  0  0
 25 24  1  0  0  0  0
M  END
>  <MODEL>
7

>  <REMARK>
 VINA RESULT:      -6.1      3.138      6.422
  Name = 
  8 active torsions:
  status: ('A' for Active; 'I' for Inactive)
    1  A    between atoms: C_3  and  C_5
    2  A    between atoms: N_4  and  C_5
    3  A    between atoms: N_4  and  C_15
    4  A    between atoms: C_5  and  O_10
    5  A    between atoms: O_10  and  C_19
    6  A    between atoms: C_11  and  C_12
    7  A    between atoms: C_11  and  C_19
    8  A    between atoms: C_16  and  C_22
                            x       y       z     vdW  Elec       q    Type
                         _______ _______ _______ _____ _____    ______ ____

>  <TORSDO>
F 8

$$$$
=
 OpenBabel11042413513D

 25 26  0  0  1  0  0  0  0  0999 V2000
  188.9330  176.3070  144.5340 C   0  0  0  0  0  3  0  0  0  0  0  0
  188.5170  175.7370  147.2430 C   0  0  0  0  0  3  0  0  0  0  0  0
  189.9200  175.6410  145.2670 C   0  0  0  0  0  0  0  0  0  0  0  0
  186.9290  177.7040  142.9690 C   0  0  0  0  0  1  0  0  0  0  0  0
  185.3610  177.4700  146.4320 C   0  0  0  0  0  3  0  0  0  0  0  0
  185.5420  177.7680  145.0780 C   0  0  0  0  0  0  0  0  0  0  0  0
  187.5320  176.4110  146.5170 C   0  0  0  0  0  0  0  0  0  0  0  0
  186.7310  177.3850  144.4210 C   0  0  0  0  0  0  0  0  0  0  0  0
  186.3500  176.7950  147.1480 C   0  0  0  0  0  3  0  0  0  0  0  0
  187.7330  176.7020  145.1460 C   0  0  0  0  0  0  0  0  0  0  0  0
  189.7060  175.3510  146.6210 C   0  0  0  0  0  3  0  0  0  0  0  0
  183.6450  179.0290  143.8290 N   0  0  0  0  0  0  0  0  0  0  0  0
  184.4900  178.4670  144.3850 C   0  0  0  0  0  0  0  0  0  0  0  0
  191.1880  175.2370  144.5850 C   0  0  2  0  0  3  0  0  0  0  0  0
  190.9140  174.1790  143.6240 N   0  0  0  0  0  2  0  0  0  0  0  0
  191.1580  172.9110  144.2900 C   0  0  0  0  0  2  0  0  0  0  0  0
  189.8470  172.1840  144.5080 C   0  0  0  0  0  1  0  0  0  0  0  0
  192.1540  174.7880  145.5330 O   0  0  0  0  0  0  0  0  0  0  0  0
  193.3640  176.4300  146.5760 O   0  0  0  0  0  0  0  0  0  0  0  0
  193.3570  175.4580  145.7750 C   0  0  0  0  0  0  0  0  0  0  0  0
  195.6670  174.9640  146.0370 O   0  0  0  0  0  1  0  0  0  0  0  0
  194.6330  175.0390  145.1040 C   0  0  2  0  0  3  0  0  0  0  0  0
  195.9330  176.8030  144.1630 O   0  0  0  0  0  0  0  0  0  0  0  0
  194.9970  175.9780  144.0000 C   0  0  0  0  0  0  0  0  0  0  0  0
  194.2970  175.9420  142.7590 N   0  0  0  0  0  1  0  0  0  0  0  0
  1 10  2  0  0  0  0
  1  3  1  0  0  0  0
  3 11  2  0  0  0  0
  4  8  1  0  0  0  0
  5  9  2  0  0  0  0
  6  5  1  0  0  0  0
  7  9  1  0  0  0  0
  7  2  2  0  0  0  0
  8  6  2  0  0  0  0
  8 10  1  0  0  0  0
 10  7  1  0  0  0  0
 11  2  1  0  0  0  0
 12 13  3  0  0  0  0
 13  6  1  0  0  0  0
 14 15  1  6  0  0  0
 14  3  1  0  0  0  0
 14 18  1  0  0  0  0
 15 16  1  0  0  0  0
 16 17  1  0  0  0  0
 18 20  1  0  0  0  0
 20 19  2  0  0  0  0
 22 20  1  0  0  0  0
 22 21  1  1  0  0  0
 24 23  2  0  0  0  0
 24 22  1  0  0  0  0
 25 24  1  0  0  0  0
M  END
>  <MODEL>
8

>  <REMARK>
 VINA RESULT:      -6.0      3.557      7.035
  Name = 
  8 active torsions:
  status: ('A' for Active; 'I' for Inactive)
    1  A    between atoms: C_3  and  C_5
    2  A    between atoms: N_4  and  C_5
    3  A    between atoms: N_4  and  C_15
    4  A    between atoms: C_5  and  O_10
    5  A    between atoms: O_10  and  C_19
    6  A    between atoms: C_11  and  C_12
    7  A    between atoms: C_11  and  C_19
    8  A    between atoms: C_16  and  C_22
                            x       y       z     vdW  Elec       q    Type
                         _______ _______ _______ _____ _____    ______ ____

>  <TORSDO>
F 8

$$$$
=
 OpenBabel11042413513D

 25 26  0  0  1  0  0  0  0  0999 V2000
  189.1000  175.8580  144.5780 C   0  0  0  0  0  3  0  0  0  0  0  0
  188.5630  175.2630  147.2610 C   0  0  0  0  0  3  0  0  0  0  0  0
  189.8340  174.8650  145.2330 C   0  0  0  0  0  0  0  0  0  0  0  0
  187.6210  177.9220  143.1750 C   0  0  0  0  0  1  0  0  0  0  0  0
  186.1120  177.9570  146.6710 C   0  0  0  0  0  3  0  0  0  0  0  0
  186.3580  178.2750  145.3320 C   0  0  0  0  0  0  0  0  0  0  0  0
  187.8340  176.2630  146.6130 C   0  0  0  0  0  0  0  0  0  0  0  0
  187.3540  177.5830  144.6110 C   0  0  0  0  0  0  0  0  0  0  0  0
  186.8450  176.9570  147.3080 C   0  0  0  0  0  3  0  0  0  0  0  0
  188.0970  176.5700  145.2560 C   0  0  0  0  0  0  0  0  0  0  0  0
  189.5590  174.5650  146.5740 C   0  0  0  0  0  3  0  0  0  0  0  0
  184.9430  180.1560  144.2290 N   0  0  0  0  0  0  0  0  0  0  0  0
  185.5720  179.3180  144.7210 C   0  0  0  0  0  0  0  0  0  0  0  0
  190.8970  174.1290  144.4830 C   0  0  2  0  0  3  0  0  0  0  0  0
  192.1350  174.1410  145.2470 N   0  0  0  0  0  2  0  0  0  0  0  0
  192.7820  175.4200  145.0090 C   0  0  0  0  0  2  0  0  0  0  0  0
  193.2590  176.0070  146.3230 C   0  0  0  0  0  1  0  0  0  0  0  0
  191.1150  174.7160  143.2020 O   0  0  0  0  0  0  0  0  0  0  0  0
  191.9160  174.1790  141.1240 O   0  0  0  0  0  0  0  0  0  0  0  0
  191.0370  173.9940  142.0070 C   0  0  0  0  0  0  0  0  0  0  0  0
  190.3700  171.9990  140.9000 O   0  0  0  0  0  1  0  0  0  0  0  0
  189.9340  173.0060  141.7620 C   0  0  2  0  0  3  0  0  0  0  0  0
  187.8280  174.1010  141.9830 O   0  0  0  0  0  0  0  0  0  0  0  0
  188.7200  173.6770  141.2050 C   0  0  0  0  0  0  0  0  0  0  0  0
  188.5690  173.8470  139.7980 N   0  0  0  0  0  1  0  0  0  0  0  0
  1  3  2  0  0  0  0
  1 10  1  0  0  0  0
  3 11  1  0  0  0  0
  4  8  1  0  0  0  0
  5  9  1  0  0  0  0
  6  5  2  0  0  0  0
  7  2  1  0  0  0  0
  7  9  2  0  0  0  0
  8 10  2  0  0  0  0
  8  6  1  0  0  0  0
 10  7  1  0  0  0  0
 11  2  2  0  0  0  0
 12 13  3  0  0  0  0
 13  6  1  0  0  0  0
 14 18  1  6  0  0  0
 14  3  1  0  0  0  0
 14 15  1  0  0  0  0
 16 15  1  0  0  0  0
 16 17  1  0  0  0  0
 19 20  2  0  0  0  0
 20 18  1  0  0  0  0
 22 21  1  6  0  0  0
 22 20  1  0  0  0  0
 24 22  1  0  0  0  0
 24 23  2  0  0  0  0
 25 24  1  0  0  0  0
M  END
>  <MODEL>
9

>  <REMARK>
 VINA RESULT:      -6.0      3.062      5.967
  Name = 
  8 active torsions:
  status: ('A' for Active; 'I' for Inactive)
    1  A    between atoms: C_3  and  C_5
    2  A    between atoms: N_4  and  C_5
    3  A    between atoms: N_4  and  C_15
    4  A    between atoms: C_5  and  O_10
    5  A    between atoms: O_10  and  C_19
    6  A    between atoms: C_11  and  C_12
    7  A    between atoms: C_11  and  C_19
    8  A    between atoms: C_16  and  C_22
                            x       y       z     vdW  Elec       q    Type
                         _______ _______ _______ _____ _____    ______ ____

>  <TORSDO>
F 8

$$$$
