=
 OpenBabel11042419503D

 50 57  0  0  1  0  0  0  0  0999 V2000
  190.5560  177.7600  144.4060 C   0  0  0  0  0  2  0  0  0  0  0  0
  189.8120  176.7310  146.5680 C   0  0  0  0  0  0  0  0  0  0  0  0
  193.0000  174.0630  145.3930 C   0  0  0  0  0  0  0  0  0  0  0  0
  194.0880  174.4980  144.8250 N   0  0  0  0  0  0  0  0  0  0  0  0
  188.5860  174.7110  147.6000 C   0  0  0  0  0  1  0  0  0  0  0  0
  191.9920  175.0150  145.9060 C   0  0  0  0  0  0  0  0  0  0  0  0
  193.2240  176.8450  144.7670 C   0  0  2  0  0  3  0  0  0  0  0  0
  188.8700  177.4920  146.9180 O   0  0  0  0  0  0  0  0  0  0  0  0
  194.4510  175.9150  144.7690 C   0  0  2  0  0  3  0  0  0  0  0  0
  192.1250  176.3310  145.6540 C   0  0  0  0  0  0  0  0  0  0  0  0
  189.7660  175.2960  146.9050 C   0  0  0  0  0  0  0  0  0  0  0  0
  190.7860  174.5000  146.5800 C   0  0  0  0  0  3  0  0  0  0  0  0
  191.7980  178.1480  143.5790 C   0  0  0  0  0  2  0  0  0  0  0  0
  192.6990  177.0590  143.4760 O   0  0  0  0  0  0  0  0  0  0  0  0
  190.9800  177.3010  145.8080 C   0  0  1  0  0  3  0  0  0  0  0  0
  196.3340  177.0210  143.7830 O   0  0  0  0  0  0  0  0  0  0  0  0
  195.3840  176.2040  143.6350 C   0  0  0  0  0  0  0  0  0  0  0  0
  195.2430  175.4760  142.4110 N   0  0  0  0  0  2  0  0  0  0  0  0
  193.8700  174.4240  138.5750 C   0  0  1  0  0  3  0  0  0  0  0  0
  197.9410  174.8360  139.1800 C   0  0  0  0  0  2  0  0  0  0  0  0
  194.1860  174.7720  140.0330 C   0  0  0  0  0  2  0  0  0  0  0  0
  195.9940  174.2000  137.8060 C   0  0  0  0  0  2  0  0  0  0  0  0
  196.2320  175.5360  141.4160 N   0  0  0  0  0  0  0  0  0  0  0  0
  196.6150  174.7230  139.0740 C   0  0  0  0  0  0  0  0  0  0  0  0
  194.8090  173.4880  138.0910 O   0  0  0  0  0  0  0  0  0  0  0  0
  195.6640  175.1870  140.1460 C   0  0  1  0  0  0  0  0  0  0  0  0
  195.8220  176.5590  140.4810 N   0  0  0  0  0  2  0  0  0  0  0  0
  191.8050  174.3760  137.3780 O   0  0  0  0  0  1  0  0  0  0  0  0
  192.4670  173.8530  138.4880 C   0  0  0  0  0  2  0  0  0  0  0  0
  192.7450  172.6890  145.4780 O   0  0  0  0  0  0  0  0  0  0  0  0
  192.5230  171.8690  144.3330 C   0  0  0  0  0  2  0  0  0  0  0  0
  191.2920  172.3340  143.5710 C   0  0  0  0  0  2  0  0  0  0  0  0
  191.7020  173.1770  142.3780 C   0  0  0  0  0  2  0  0  0  0  0  0
  190.8810  174.4510  142.3560 C   0  0  0  0  0  2  0  0  0  0  0  0
  186.3400  178.7560  143.4120 N   0  0  0  0  0  0  0  0  0  0  0  0
  188.5610  174.9230  143.1270 C   0  0  0  0  0  2  0  0  0  0  0  0
  185.5510  178.8640  145.6270 N   0  0  0  0  0  0  0  0  0  0  0  0
  185.8500  179.4800  144.4530 C   0  0  0  0  0  3  0  0  0  0  0  0
  185.7380  177.5270  145.7770 C   0  0  0  0  0  0  0  0  0  0  0  0
  187.6360  174.9870  140.8960 C   0  0  1  0  0  3  0  0  0  0  0  0
  185.4180  176.9000  147.0130 N   0  0  0  0  0  1  0  0  0  0  0  0
  186.5440  177.4170  143.5190 C   0  0  0  0  0  0  0  0  0  0  0  0
  189.0030  174.4860  140.8050 N   0  0  0  0  0  0  0  0  0  0  0  0
  186.2420  176.7710  144.7210 C   0  0  0  0  0  3  0  0  0  0  0  0
  187.3000  175.2490  142.3640 C   0  0  2  0  0  3  0  0  0  0  0  0
  187.2280  177.2530  141.1400 N   0  0  0  0  0  0  0  0  0  0  0  0
  188.9500  173.2510  140.0380 C   0  0  0  0  0  1  0  0  0  0  0  0
  189.4090  174.1280  142.1590 C   0  0  1  0  0  3  0  0  0  0  0  0
  187.5550  176.3520  140.2800 C   0  0  0  0  0  3  0  0  0  0  0  0
  187.0520  176.6820  142.3990 N   0  0  0  0  0  0  0  0  0  0  0  0
  2 11  1  0  0  0  0
  2  8  2  0  0  0  0
  3 30  1  0  0  0  0
  3  6  1  0  0  0  0
  4  3  2  0  0  0  0
  6 12  1  0  0  0  0
  7 14  1  6  0  0  0
  7  9  1  0  0  0  0
  7 10  1  0  0  0  0
  9 17  1  6  0  0  0
  9  4  1  0  0  0  0
 10 15  1  0  0  0  0
 10  6  2  0  0  0  0
 11  5  1  0  0  0  0
 12 11  2  0  0  0  0
 13  1  1  0  0  0  0
 14 13  1  0  0  0  0
 15  1  1  6  0  0  0
 15  2  1  0  0  0  0
 17 16  2  0  0  0  0
 18 17  1  0  0  0  0
 19 29  1  1  0  0  0
 19 21  1  0  0  0  0
 22 25  1  0  0  0  0
 22 24  1  0  0  0  0
 23 18  1  0  0  0  0
 24 20  2  0  0  0  0
 24 26  1  0  0  0  0
 25 19  1  0  0  0  0
 26 21  1  6  0  0  0
 26 27  1  0  0  0  0
 26 23  1  0  0  0  0
 27 23  1  0  0  0  0
 28 29  1  0  0  0  0
 31 30  1  0  0  0  0
 32 31  1  0  0  0  0
 33 32  1  0  0  0  0
 34 33  1  0  0  0  0
 35 42  2  0  0  0  0
 35 38  1  0  0  0  0
 37 39  1  0  0  0  0
 38 37  2  0  0  0  0
 39 41  1  0  0  0  0
 40 49  1  6  0  0  0
 40 45  1  0  0  0  0
 42 44  1  0  0  0  0
 43 40  1  0  0  0  0
 43 48  1  0  0  0  0
 44 39  2  0  0  0  0
 45 50  1  0  0  0  0
 45 36  1  1  0  0  0
 46 50  1  0  0  0  0
 47 43  1  0  0  0  0
 48 34  1  6  0  0  0
 48 36  1  0  0  0  0
 49 46  2  0  0  0  0
 50 42  1  0  0  0  0
M  END
>  <MODEL>
1

>  <REMARK>
 VINA RESULT:      -7.7      0.000      0.000
  Name = 
  9 active torsions:
  status: ('A' for Active; 'I' for Inactive)
    1  A    between atoms: C_1  and  C_28
    2  A    between atoms: C_6  and  C_37
    3  A    between atoms: C_6  and  C_49
    4  A    between atoms: C_11  and  O_13
    5  A    between atoms: O_13  and  C_37
    6  A    between atoms: N_18  and  N_33
    7  A    between atoms: C_27  and  C_32
    8  A    between atoms: C_42  and  C_44
    9  A    between atoms: C_42  and  C_49
                            x       y       z     vdW  Elec       q    Type
                         _______ _______ _______ _____ _____    ______ ____

>  <TORSDO>
F 9

$$$$
=
 OpenBabel11042419503D

 50 57  0  0  1  0  0  0  0  0999 V2000
  190.8470  173.1590  145.2900 C   0  0  0  0  0  2  0  0  0  0  0  0
  193.1050  172.3720  144.5350 C   0  0  0  0  0  0  0  0  0  0  0  0
  190.9560  172.5490  140.7910 C   0  0  0  0  0  0  0  0  0  0  0  0
  190.0990  173.4940  140.5330 N   0  0  0  0  0  0  0  0  0  0  0  0
  194.4050  170.3410  143.6210 C   0  0  0  0  0  1  0  0  0  0  0  0
  191.7730  172.5960  142.0230 C   0  0  0  0  0  0  0  0  0  0  0  0
  190.3650  174.4800  142.8180 C   0  0  2  0  0  3  0  0  0  0  0  0
  193.7420  172.3020  145.6200 O   0  0  0  0  0  0  0  0  0  0  0  0
  189.9730  174.7060  141.3460 C   0  0  2  0  0  3  0  0  0  0  0  0
  191.5280  173.5370  142.9540 C   0  0  0  0  0  0  0  0  0  0  0  0
  193.4030  171.4280  143.4410 C   0  0  0  0  0  0  0  0  0  0  0  0
  192.7650  171.5340  142.2750 C   0  0  0  0  0  3  0  0  0  0  0  0
  189.6960  174.1280  144.9550 C   0  0  0  0  0  2  0  0  0  0  0  0
  189.2980  173.9960  143.6020 O   0  0  0  0  0  0  0  0  0  0  0  0
  192.0440  173.4270  144.3670 C   0  0  1  0  0  3  0  0  0  0  0  0
  187.6370  174.6370  140.8230 O   0  0  0  0  0  0  0  0  0  0  0  0
  188.6190  175.3280  141.2090 C   0  0  0  0  0  0  0  0  0  0  0  0
  188.4310  176.6890  141.6090 N   0  0  0  0  0  2  0  0  0  0  0  0
  187.3270  177.6210  145.5600 C   0  0  1  0  0  3  0  0  0  0  0  0
  184.4280  177.7330  142.6130 C   0  0  0  0  0  2  0  0  0  0  0  0
  187.9000  177.2190  144.1980 C   0  0  0  0  0  2  0  0  0  0  0  0
  185.1450  177.8240  144.9720 C   0  0  0  0  0  2  0  0  0  0  0  0
  187.1440  177.2370  141.7260 N   0  0  0  0  0  0  0  0  0  0  0  0
  185.4240  177.6710  143.5000 C   0  0  0  0  0  0  0  0  0  0  0  0
  186.0480  177.0490  145.7310 O   0  0  0  0  0  0  0  0  0  0  0  0
  186.8710  177.5430  143.1000 C   0  0  1  0  0  0  0  0  0  0  0  0
  187.3070  178.5810  142.2330 N   0  0  0  0  0  2  0  0  0  0  0  0
  187.8150  175.9360  147.1810 O   0  0  0  0  0  1  0  0  0  0  0  0
  188.2630  177.1480  146.6580 C   0  0  0  0  0  2  0  0  0  0  0  0
  191.0780  171.4490  139.9340 O   0  0  0  0  0  0  0  0  0  0  0  0
  191.5820  171.5540  138.6050 C   0  0  0  0  0  2  0  0  0  0  0  0
  193.0980  171.4410  138.5950 C   0  0  0  0  0  2  0  0  0  0  0  0
  193.7250  172.8110  138.4190 C   0  0  0  0  0  2  0  0  0  0  0  0
  194.7510  173.0400  139.5110 C   0  0  0  0  0  2  0  0  0  0  0  0
  195.2710  175.7080  145.2450 N   0  0  0  0  0  0  0  0  0  0  0  0
  194.3700  175.0350  140.9510 C   0  0  0  0  0  2  0  0  0  0  0  0
  193.2460  176.4240  146.2090 N   0  0  0  0  0  0  0  0  0  0  0  0
  194.4960  175.9090  146.3450 C   0  0  0  0  0  3  0  0  0  0  0  0
  192.7530  176.7380  144.9830 C   0  0  0  0  0  0  0  0  0  0  0  0
  196.6340  175.8520  140.7360 C   0  0  1  0  0  3  0  0  0  0  0  0
  191.4430  177.2780  144.8610 N   0  0  0  0  0  1  0  0  0  0  0  0
  194.8170  176.0070  144.0000 C   0  0  0  0  0  0  0  0  0  0  0  0
  196.4530  174.7600  139.7840 N   0  0  0  0  0  0  0  0  0  0  0  0
  193.5320  176.5350  143.8460 C   0  0  0  0  0  3  0  0  0  0  0  0
  195.3180  176.0830  141.4810 C   0  0  2  0  0  3  0  0  0  0  0  0
  196.9970  175.4080  142.9790 N   0  0  0  0  0  0  0  0  0  0  0  0
  196.8960  175.2530  138.4890 C   0  0  0  0  0  1  0  0  0  0  0  0
  195.0180  174.5260  139.6820 C   0  0  1  0  0  3  0  0  0  0  0  0
  197.5710  175.4230  141.8260 C   0  0  0  0  0  3  0  0  0  0  0  0
  195.6630  175.7920  142.8630 N   0  0  0  0  0  0  0  0  0  0  0  0
  2  8  2  0  0  0  0
  3  6  1  0  0  0  0
  4  3  2  0  0  0  0
  4  9  1  0  0  0  0
  6 12  1  0  0  0  0
  6 10  2  0  0  0  0
  7 10  1  6  0  0  0
  7 14  1  0  0  0  0
  9 17  1  1  0  0  0
  9  7  1  0  0  0  0
 10 15  1  0  0  0  0
 11  5  1  0  0  0  0
 11  2  1  0  0  0  0
 12 11  2  0  0  0  0
 13  1  1  0  0  0  0
 14 13  1  0  0  0  0
 15  2  1  0  0  0  0
 15  1  1  1  0  0  0
 16 17  2  0  0  0  0
 17 18  1  0  0  0  0
 18 23  1  0  0  0  0
 19 25  1  0  0  0  0
 19 29  1  1  0  0  0
 20 24  2  0  0  0  0
 21 19  1  0  0  0  0
 22 25  1  0  0  0  0
 23 27  1  0  0  0  0
 23 26  1  0  0  0  0
 24 22  1  0  0  0  0
 26 24  1  0  0  0  0
 26 21  1  1  0  0  0
 27 26  1  0  0  0  0
 29 28  1  0  0  0  0
 30  3  1  0  0  0  0
 31 30  1  0  0  0  0
 32 31  1  0  0  0  0
 33 32  1  0  0  0  0
 33 34  1  0  0  0  0
 35 38  1  0  0  0  0
 37 38  2  0  0  0  0
 39 37  1  0  0  0  0
 40 45  1  0  0  0  0
 40 49  1  1  0  0  0
 41 39  1  0  0  0  0
 42 35  2  0  0  0  0
 43 40  1  0  0  0  0
 44 42  1  0  0  0  0
 44 39  2  0  0  0  0
 45 36  1  6  0  0  0
 45 50  1  0  0  0  0
 47 43  1  0  0  0  0
 48 34  1  1  0  0  0
 48 43  1  0  0  0  0
 48 36  1  0  0  0  0
 49 46  2  0  0  0  0
 50 46  1  0  0  0  0
 50 42  1  0  0  0  0
M  END
>  <MODEL>
2

>  <REMARK>
 VINA RESULT:      -7.6      2.179      8.010
  Name = 
  9 active torsions:
  status: ('A' for Active; 'I' for Inactive)
    1  A    between atoms: C_1  and  C_28
    2  A    between atoms: C_6  and  C_37
    3  A    between atoms: C_6  and  C_49
    4  A    between atoms: C_11  and  O_13
    5  A    between atoms: O_13  and  C_37
    6  A    between atoms: N_18  and  N_33
    7  A    between atoms: C_27  and  C_32
    8  A    between atoms: C_42  and  C_44
    9  A    between atoms: C_42  and  C_49
                            x       y       z     vdW  Elec       q    Type
                         _______ _______ _______ _____ _____    ______ ____

>  <TORSDO>
F 9

$$$$
=
 OpenBabel11042419503D

 50 57  0  0  1  0  0  0  0  0999 V2000
  189.9000  174.9980  146.0800 C   0  0  0  0  0  2  0  0  0  0  0  0
  192.1830  174.1690  145.4540 C   0  0  0  0  0  0  0  0  0  0  0  0
  190.1660  174.1110  141.6340 C   0  0  0  0  0  0  0  0  0  0  0  0
  189.3190  175.0370  141.2890 N   0  0  0  0  0  0  0  0  0  0  0  0
  193.5120  172.0880  144.7140 C   0  0  0  0  0  1  0  0  0  0  0  0
  190.9400  174.2350  142.8880 C   0  0  0  0  0  0  0  0  0  0  0  0
  189.5060  176.1620  143.5160 C   0  0  2  0  0  3  0  0  0  0  0  0
  192.7810  174.1670  146.5630 O   0  0  0  0  0  0  0  0  0  0  0  0
  189.1660  176.2960  142.0200 C   0  0  2  0  0  3  0  0  0  0  0  0
  190.6630  175.2320  143.7510 C   0  0  0  0  0  0  0  0  0  0  0  0
  192.5180  173.1600  144.4320 C   0  0  0  0  0  0  0  0  0  0  0  0
  191.9220  173.1920  143.2400 C   0  0  0  0  0  3  0  0  0  0  0  0
  188.7620  175.9430  145.6460 C   0  0  0  0  0  2  0  0  0  0  0  0
  188.4120  175.7260  144.2910 O   0  0  0  0  0  0  0  0  0  0  0  0
  191.1300  175.2100  145.1840 C   0  0  1  0  0  3  0  0  0  0  0  0
  187.0270  176.4140  140.9470 O   0  0  0  0  0  0  0  0  0  0  0  0
  187.8180  176.9070  141.7970 C   0  0  0  0  0  0  0  0  0  0  0  0
  187.3990  177.9970  142.6240 N   0  0  0  0  0  2  0  0  0  0  0  0
  185.8080  178.6820  146.4580 C   0  0  1  0  0  3  0  0  0  0  0  0
  183.2400  178.6900  143.2160 C   0  0  0  0  0  2  0  0  0  0  0  0
  186.5530  178.3800  145.1550 C   0  0  0  0  0  2  0  0  0  0  0  0
  183.6910  178.7410  145.6410 C   0  0  0  0  0  2  0  0  0  0  0  0
  186.0660  178.4400  142.6170 N   0  0  0  0  0  0  0  0  0  0  0  0
  184.1380  178.6680  144.2040 C   0  0  0  0  0  0  0  0  0  0  0  0
  184.5680  178.0070  146.4690 O   0  0  0  0  0  0  0  0  0  0  0  0
  185.6240  178.6690  143.9620 C   0  0  1  0  0  0  0  0  0  0  0  0
  186.0660  179.7710  143.1810 N   0  0  0  0  0  2  0  0  0  0  0  0
  186.3130  176.9410  148.0130 O   0  0  0  0  0  1  0  0  0  0  0  0
  186.6560  178.2380  147.6370 C   0  0  0  0  0  2  0  0  0  0  0  0
  190.3170  172.9600  140.8520 O   0  0  0  0  0  0  0  0  0  0  0  0
  190.9790  172.9620  139.5890 C   0  0  0  0  0  2  0  0  0  0  0  0
  192.2020  172.0600  139.6230 C   0  0  0  0  0  2  0  0  0  0  0  0
  193.4680  172.8940  139.6680 C   0  0  0  0  0  2  0  0  0  0  0  0
  193.4190  173.9430  138.5750 C   0  0  0  0  0  2  0  0  0  0  0  0
  196.7400  174.1440  143.9780 N   0  0  0  0  0  0  0  0  0  0  0  0
  194.4900  175.3330  140.3410 C   0  0  0  0  0  2  0  0  0  0  0  0
  195.6920  175.2660  145.7630 N   0  0  0  0  0  0  0  0  0  0  0  0
  196.5020  174.2730  145.3110 C   0  0  0  0  0  3  0  0  0  0  0  0
  195.1070  176.1340  144.8960 C   0  0  0  0  0  0  0  0  0  0  0  0
  196.7030  175.1770  139.3810 C   0  0  1  0  0  3  0  0  0  0  0  0
  194.2630  177.1670  145.3880 N   0  0  0  0  0  1  0  0  0  0  0  0
  196.1750  174.9880  143.0770 C   0  0  0  0  0  0  0  0  0  0  0  0
  195.7510  174.6290  138.4200 N   0  0  0  0  0  0  0  0  0  0  0  0
  195.3370  176.0130  143.5280 C   0  0  0  0  0  3  0  0  0  0  0  0
  195.9380  175.6680  140.6100 C   0  0  2  0  0  3  0  0  0  0  0  0
  197.3930  173.9210  141.1980 N   0  0  0  0  0  0  0  0  0  0  0  0
  196.0070  175.2900  137.1490 C   0  0  0  0  0  1  0  0  0  0  0  0
  194.4250  175.0470  138.8560 C   0  0  1  0  0  3  0  0  0  0  0  0
  197.5590  174.0750  139.9310 C   0  0  0  0  0  3  0  0  0  0  0  0
  196.4540  174.8290  141.6810 N   0  0  0  0  0  0  0  0  0  0  0  0
  2  8  2  0  0  0  0
  3  6  1  0  0  0  0
  4  3  2  0  0  0  0
  4  9  1  0  0  0  0
  6 12  1  0  0  0  0
  6 10  2  0  0  0  0
  7 10  1  6  0  0  0
  7 14  1  0  0  0  0
  9 17  1  1  0  0  0
  9  7  1  0  0  0  0
 10 15  1  0  0  0  0
 11  5  1  0  0  0  0
 11  2  1  0  0  0  0
 12 11  2  0  0  0  0
 13  1  1  0  0  0  0
 14 13  1  0  0  0  0
 15  2  1  0  0  0  0
 15  1  1  1  0  0  0
 16 17  2  0  0  0  0
 17 18  1  0  0  0  0
 19 25  1  0  0  0  0
 19 29  1  1  0  0  0
 20 24  2  0  0  0  0
 21 19  1  0  0  0  0
 22 25  1  0  0  0  0
 23 18  1  0  0  0  0
 23 27  1  0  0  0  0
 23 26  1  0  0  0  0
 24 22  1  0  0  0  0
 26 24  1  0  0  0  0
 26 21  1  1  0  0  0
 27 26  1  0  0  0  0
 29 28  1  0  0  0  0
 30  3  1  0  0  0  0
 31 32  1  0  0  0  0
 31 30  1  0  0  0  0
 32 33  1  0  0  0  0
 34 33  1  0  0  0  0
 35 38  1  0  0  0  0
 38 37  2  0  0  0  0
 39 41  1  0  0  0  0
 39 37  1  0  0  0  0
 40 49  1  1  0  0  0
 40 45  1  0  0  0  0
 42 44  1  0  0  0  0
 42 35  2  0  0  0  0
 43 48  1  0  0  0  0
 43 40  1  0  0  0  0
 44 39  2  0  0  0  0
 45 36  1  6  0  0  0
 45 50  1  0  0  0  0
 46 50  1  0  0  0  0
 47 43  1  0  0  0  0
 48 34  1  1  0  0  0
 48 36  1  0  0  0  0
 49 46  2  0  0  0  0
 50 42  1  0  0  0  0
M  END
>  <MODEL>
3

>  <REMARK>
 VINA RESULT:      -7.5      2.103      8.701
  Name = 
  9 active torsions:
  status: ('A' for Active; 'I' for Inactive)
    1  A    between atoms: C_1  and  C_28
    2  A    between atoms: C_6  and  C_37
    3  A    between atoms: C_6  and  C_49
    4  A    between atoms: C_11  and  O_13
    5  A    between atoms: O_13  and  C_37
    6  A    between atoms: N_18  and  N_33
    7  A    between atoms: C_27  and  C_32
    8  A    between atoms: C_42  and  C_44
    9  A    between atoms: C_42  and  C_49
                            x       y       z     vdW  Elec       q    Type
                         _______ _______ _______ _____ _____    ______ ____

>  <TORSDO>
F 9

$$$$
=
 OpenBabel11042419503D

 50 57  0  0  1  0  0  0  0  0999 V2000
  194.6380  175.6920  146.1950 C   0  0  0  0  0  2  0  0  0  0  0  0
  195.3860  174.2740  144.2660 C   0  0  0  0  0  0  0  0  0  0  0  0
  191.1310  173.5280  144.2880 C   0  0  0  0  0  0  0  0  0  0  0  0
  190.2680  174.4660  144.5520 N   0  0  0  0  0  0  0  0  0  0  0  0
  195.7450  171.8440  143.4840 C   0  0  0  0  0  1  0  0  0  0  0  0
  192.5680  173.8490  144.1540 C   0  0  0  0  0  0  0  0  0  0  0  0
  192.0840  176.1230  145.0230 C   0  0  2  0  0  3  0  0  0  0  0  0
  196.6310  174.4710  144.2560 O   0  0  0  0  0  0  0  0  0  0  0  0
  190.6210  175.8860  144.6040 C   0  0  2  0  0  3  0  0  0  0  0  0
  193.0090  175.0860  144.4520 C   0  0  0  0  0  0  0  0  0  0  0  0
  194.8400  172.9670  143.8540 C   0  0  0  0  0  0  0  0  0  0  0  0
  193.5220  172.7750  143.8160 C   0  0  0  0  0  3  0  0  0  0  0  0
  193.5510  176.6810  146.6590 C   0  0  0  0  0  2  0  0  0  0  0  0
  192.2560  176.1590  146.4220 O   0  0  0  0  0  0  0  0  0  0  0  0
  194.4660  175.3840  144.7010 C   0  0  1  0  0  3  0  0  0  0  0  0
  189.9820  177.7950  145.9040 O   0  0  0  0  0  0  0  0  0  0  0  0
  189.6570  176.6660  145.4430 C   0  0  0  0  0  0  0  0  0  0  0  0
  188.3330  176.1610  145.6400 N   0  0  0  0  0  2  0  0  0  0  0  0
  185.9300  178.1500  142.8160 C   0  0  1  0  0  3  0  0  0  0  0  0
  185.6050  179.2180  146.7980 C   0  0  0  0  0  2  0  0  0  0  0  0
  186.9020  177.3510  143.6890 C   0  0  0  0  0  2  0  0  0  0  0  0
  185.0990  179.5410  144.4050 C   0  0  0  0  0  2  0  0  0  0  0  0
  187.3300  176.9630  146.2090 N   0  0  0  0  0  0  0  0  0  0  0  0
  185.7750  178.8120  145.5370 C   0  0  0  0  0  0  0  0  0  0  0  0
  185.8960  179.4950  143.2410 O   0  0  0  0  0  0  0  0  0  0  0  0
  186.5520  177.5750  145.1720 C   0  0  1  0  0  0  0  0  0  0  0  0
  186.0640  176.3990  145.8010 N   0  0  0  0  0  2  0  0  0  0  0  0
  187.7600  177.9430  141.2960 O   0  0  0  0  0  1  0  0  0  0  0  0
  186.3740  178.0690  141.3660 C   0  0  0  0  0  2  0  0  0  0  0  0
  190.7170  172.1940  144.1800 O   0  0  0  0  0  0  0  0  0  0  0  0
  189.9450  171.7080  143.0850 C   0  0  0  0  0  2  0  0  0  0  0  0
  190.7730  170.7760  142.2160 C   0  0  0  0  0  2  0  0  0  0  0  0
  190.5860  171.1200  140.7510 C   0  0  0  0  0  2  0  0  0  0  0  0
  189.8060  172.4150  140.6340 C   0  0  0  0  0  2  0  0  0  0  0  0
  196.0610  172.9490  139.7090 N   0  0  0  0  0  0  0  0  0  0  0  0
  191.7200  173.8470  139.9390 C   0  0  0  0  0  2  0  0  0  0  0  0
  197.1220  174.6410  140.9560 N   0  0  0  0  0  0  0  0  0  0  0  0
  197.1500  173.4110  140.3800 C   0  0  0  0  0  3  0  0  0  0  0  0
  196.0120  175.4200  140.8750 C   0  0  0  0  0  0  0  0  0  0  0  0
  191.8030  172.9670  137.6900 C   0  0  1  0  0  3  0  0  0  0  0  0
  196.0020  176.7060  141.4830 N   0  0  0  0  0  1  0  0  0  0  0  0
  194.9310  173.6940  139.6050 C   0  0  0  0  0  0  0  0  0  0  0  0
  190.5860  172.4720  138.3270 N   0  0  0  0  0  0  0  0  0  0  0  0
  194.8870  174.9620  140.1940 C   0  0  0  0  0  3  0  0  0  0  0  0
  192.5420  173.8750  138.6740 C   0  0  2  0  0  3  0  0  0  0  0  0
  193.8510  171.9940  138.1560 N   0  0  0  0  0  0  0  0  0  0  0  0
  189.4860  172.7700  137.4220 C   0  0  0  0  0  1  0  0  0  0  0  0
  190.3810  173.2790  139.5240 C   0  0  1  0  0  3  0  0  0  0  0  0
  192.7640  171.8330  137.4860 C   0  0  0  0  0  3  0  0  0  0  0  0
  193.8040  173.1830  138.8820 N   0  0  0  0  0  0  0  0  0  0  0  0
  1 13  1  0  0  0  0
  2 15  1  0  0  0  0
  3  4  2  0  0  0  0
  4  9  1  0  0  0  0
  5 11  1  0  0  0  0
  6  3  1  0  0  0  0
  6 10  2  0  0  0  0
  7 10  1  1  0  0  0
  7 14  1  0  0  0  0
  8  2  2  0  0  0  0
  9  7  1  0  0  0  0
  9 17  1  1  0  0  0
 10 15  1  0  0  0  0
 11  2  1  0  0  0  0
 12 11  2  0  0  0  0
 12  6  1  0  0  0  0
 14 13  1  0  0  0  0
 15  1  1  1  0  0  0
 17 18  1  0  0  0  0
 17 16  2  0  0  0  0
 18 23  1  0  0  0  0
 19 29  1  6  0  0  0
 19 25  1  0  0  0  0
 19 21  1  0  0  0  0
 22 24  1  0  0  0  0
 24 20  2  0  0  0  0
 25 22  1  0  0  0  0
 26 21  1  6  0  0  0
 26 24  1  0  0  0  0
 26 27  1  0  0  0  0
 26 23  1  0  0  0  0
 27 23  1  0  0  0  0
 28 29  1  0  0  0  0
 30  3  1  0  0  0  0
 31 30  1  0  0  0  0
 32 31  1  0  0  0  0
 33 32  1  0  0  0  0
 34 33  1  0  0  0  0
 35 38  1  0  0  0  0
 38 37  2  0  0  0  0
 39 37  1  0  0  0  0
 39 41  1  0  0  0  0
 40 49  1  1  0  0  0
 40 43  1  0  0  0  0
 40 45  1  0  0  0  0
 42 35  2  0  0  0  0
 42 44  1  0  0  0  0
 43 48  1  0  0  0  0
 44 39  2  0  0  0  0
 45 50  1  0  0  0  0
 45 36  1  1  0  0  0
 46 50  1  0  0  0  0
 47 43  1  0  0  0  0
 48 36  1  0  0  0  0
 48 34  1  1  0  0  0
 49 46  2  0  0  0  0
 50 42  1  0  0  0  0
M  END
>  <MODEL>
4

>  <REMARK>
 VINA RESULT:      -7.5      2.489      7.997
  Name = 
  9 active torsions:
  status: ('A' for Active; 'I' for Inactive)
    1  A    between atoms: C_1  and  C_28
    2  A    between atoms: C_6  and  C_37
    3  A    between atoms: C_6  and  C_49
    4  A    between atoms: C_11  and  O_13
    5  A    between atoms: O_13  and  C_37
    6  A    between atoms: N_18  and  N_33
    7  A    between atoms: C_27  and  C_32
    8  A    between atoms: C_42  and  C_44
    9  A    between atoms: C_42  and  C_49
                            x       y       z     vdW  Elec       q    Type
                         _______ _______ _______ _____ _____    ______ ____

>  <TORSDO>
F 9

$$$$
=
 OpenBabel11042419503D

 50 57  0  0  1  0  0  0  0  0999 V2000
  193.4040  173.4860  145.7700 C   0  0  0  0  0  2  0  0  0  0  0  0
  194.0900  172.5610  143.5420 C   0  0  0  0  0  0  0  0  0  0  0  0
  189.9820  173.6660  142.7900 C   0  0  0  0  0  0  0  0  0  0  0  0
  189.4550  174.7440  143.2960 N   0  0  0  0  0  0  0  0  0  0  0  0
  193.7860  170.5730  141.9290 C   0  0  0  0  0  1  0  0  0  0  0  0
  191.4260  173.3910  142.9550 C   0  0  0  0  0  0  0  0  0  0  0  0
  191.5420  175.2700  144.5720 C   0  0  2  0  0  3  0  0  0  0  0  0
  195.2860  172.2210  143.7500 O   0  0  0  0  0  0  0  0  0  0  0  0
  190.2450  175.7990  143.9320 C   0  0  2  0  0  3  0  0  0  0  0  0
  192.1700  174.1780  143.7550 C   0  0  0  0  0  0  0  0  0  0  0  0
  193.2560  171.7940  142.5980 C   0  0  0  0  0  0  0  0  0  0  0  0
  192.0080  172.1830  142.3400 C   0  0  0  0  0  3  0  0  0  0  0  0
  192.6400  174.6380  146.4520 C   0  0  0  0  0  2  0  0  0  0  0  0
  191.3510  174.7970  145.8870 O   0  0  0  0  0  0  0  0  0  0  0  0
  193.5260  173.7560  144.2630 C   0  0  1  0  0  3  0  0  0  0  0  0
  189.8340  177.7290  145.2920 O   0  0  0  0  0  0  0  0  0  0  0  0
  189.4260  176.6040  144.8910 C   0  0  0  0  0  0  0  0  0  0  0  0
  188.1330  176.1280  145.2760 N   0  0  0  0  0  2  0  0  0  0  0  0
  185.4010  178.1570  142.8010 C   0  0  1  0  0  3  0  0  0  0  0  0
  185.6580  179.2490  146.7820 C   0  0  0  0  0  2  0  0  0  0  0  0
  186.4680  177.3400  143.5360 C   0  0  0  0  0  2  0  0  0  0  0  0
  184.8300  179.5720  144.4810 C   0  0  0  0  0  2  0  0  0  0  0  0
  187.2360  176.9540  145.9740 N   0  0  0  0  0  0  0  0  0  0  0  0
  185.6410  178.8340  145.5130 C   0  0  0  0  0  0  0  0  0  0  0  0
  185.4550  179.5040  143.2180 O   0  0  0  0  0  0  0  0  0  0  0  0
  186.3330  177.5790  145.0510 C   0  0  1  0  0  0  0  0  0  0  0  0
  185.9130  176.4160  145.7510 N   0  0  0  0  0  2  0  0  0  0  0  0
  184.5770  178.6460  140.6140 O   0  0  0  0  0  1  0  0  0  0  0  0
  185.6370  178.0610  141.3050 C   0  0  0  0  0  2  0  0  0  0  0  0
  189.1800  172.7270  142.1300 O   0  0  0  0  0  0  0  0  0  0  0  0
  188.6960  172.9170  140.8030 C   0  0  0  0  0  2  0  0  0  0  0  0
  189.6290  172.2690  139.7930 C   0  0  0  0  0  2  0  0  0  0  0  0
  190.3770  173.3320  139.0120 C   0  0  0  0  0  2  0  0  0  0  0  0
  191.8410  172.9500  138.9150 C   0  0  0  0  0  2  0  0  0  0  0  0
  197.4460  173.9410  141.7180 N   0  0  0  0  0  0  0  0  0  0  0  0
  193.4850  174.5850  139.8220 C   0  0  0  0  0  2  0  0  0  0  0  0
  197.3560  175.0870  143.7730 N   0  0  0  0  0  0  0  0  0  0  0  0
  197.9310  174.1520  142.9710 C   0  0  0  0  0  3  0  0  0  0  0  0
  196.2940  175.8140  143.3400 C   0  0  0  0  0  0  0  0  0  0  0  0
  194.8580  174.5880  137.8340 C   0  0  1  0  0  3  0  0  0  0  0  0
  195.7060  176.7880  144.1930 N   0  0  0  0  0  1  0  0  0  0  0  0
  196.3850  174.6440  141.2460 C   0  0  0  0  0  0  0  0  0  0  0  0
  193.6260  173.8650  137.5330 N   0  0  0  0  0  0  0  0  0  0  0  0
  195.7820  175.6070  142.0600 C   0  0  0  0  0  3  0  0  0  0  0  0
  194.7970  175.0930  139.2760 C   0  0  2  0  0  3  0  0  0  0  0  0
  196.5620  173.5640  139.0200 N   0  0  0  0  0  0  0  0  0  0  0  0
  193.0840  174.4450  136.3140 C   0  0  0  0  0  1  0  0  0  0  0  0
  192.6860  174.1740  138.6040 C   0  0  1  0  0  3  0  0  0  0  0  0
  196.0130  173.6320  137.8570 C   0  0  0  0  0  3  0  0  0  0  0  0
  195.9060  174.4040  139.9170 N   0  0  0  0  0  0  0  0  0  0  0  0
  1 13  1  0  0  0  0
  2  8  2  0  0  0  0
  2 15  1  0  0  0  0
  3  6  1  0  0  0  0
  3  4  2  0  0  0  0
  4  9  1  0  0  0  0
  5 11  1  0  0  0  0
  6 10  2  0  0  0  0
  7 10  1  6  0  0  0
  7 14  1  0  0  0  0
  9  7  1  0  0  0  0
  9 17  1  1  0  0  0
 10 15  1  0  0  0  0
 11  2  1  0  0  0  0
 12 11  2  0  0  0  0
 12  6  1  0  0  0  0
 14 13  1  0  0  0  0
 15  1  1  1  0  0  0
 17 18  1  0  0  0  0
 17 16  2  0  0  0  0
 18 23  1  0  0  0  0
 19 29  1  6  0  0  0
 19 25  1  0  0  0  0
 19 21  1  0  0  0  0
 22 24  1  0  0  0  0
 24 20  2  0  0  0  0
 25 22  1  0  0  0  0
 26 21  1  6  0  0  0
 26 24  1  0  0  0  0
 26 27  1  0  0  0  0
 26 23  1  0  0  0  0
 27 23  1  0  0  0  0
 28 29  1  0  0  0  0
 30  3  1  0  0  0  0
 31 30  1  0  0  0  0
 32 31  1  0  0  0  0
 33 32  1  0  0  0  0
 34 33  1  0  0  0  0
 35 38  1  0  0  0  0
 38 37  2  0  0  0  0
 39 37  1  0  0  0  0
 39 41  1  0  0  0  0
 40 49  1  1  0  0  0
 40 45  1  0  0  0  0
 42 35  2  0  0  0  0
 42 44  1  0  0  0  0
 43 40  1  0  0  0  0
 43 48  1  0  0  0  0
 44 39  2  0  0  0  0
 45 36  1  1  0  0  0
 45 50  1  0  0  0  0
 46 50  1  0  0  0  0
 47 43  1  0  0  0  0
 48 34  1  1  0  0  0
 48 36  1  0  0  0  0
 49 46  2  0  0  0  0
 50 42  1  0  0  0  0
M  END
>  <MODEL>
5

>  <REMARK>
 VINA RESULT:      -7.3      2.402      8.447
  Name = 
  9 active torsions:
  status: ('A' for Active; 'I' for Inactive)
    1  A    between atoms: C_1  and  C_28
    2  A    between atoms: C_6  and  C_37
    3  A    between atoms: C_6  and  C_49
    4  A    between atoms: C_11  and  O_13
    5  A    between atoms: O_13  and  C_37
    6  A    between atoms: N_18  and  N_33
    7  A    between atoms: C_27  and  C_32
    8  A    between atoms: C_42  and  C_44
    9  A    between atoms: C_42  and  C_49
                            x       y       z     vdW  Elec       q    Type
                         _______ _______ _______ _____ _____    ______ ____

>  <TORSDO>
F 9

$$$$
=
 OpenBabel11042419503D

 50 57  0  0  1  0  0  0  0  0999 V2000
  184.7060  177.9930  144.0670 C   0  0  0  0  0  2  0  0  0  0  0  0
  186.0090  178.9180  146.0000 C   0  0  0  0  0  0  0  0  0  0  0  0
  188.6910  175.8670  144.5300 C   0  0  0  0  0  0  0  0  0  0  0  0
  188.8380  175.6340  143.2580 N   0  0  0  0  0  0  0  0  0  0  0  0
  186.8360  178.4060  148.3880 C   0  0  0  0  0  1  0  0  0  0  0  0
  187.8710  177.0080  144.9920 C   0  0  0  0  0  0  0  0  0  0  0  0
  187.0800  177.3110  142.6590 C   0  0  2  0  0  3  0  0  0  0  0  0
  185.2310  179.8010  146.4500 O   0  0  0  0  0  0  0  0  0  0  0  0
  188.3290  176.5280  142.2160 C   0  0  2  0  0  3  0  0  0  0  0  0
  187.1520  177.7190  144.1030 C   0  0  0  0  0  0  0  0  0  0  0  0
  186.8930  178.1750  146.9180 C   0  0  0  0  0  0  0  0  0  0  0  0
  187.7510  177.2750  146.4380 C   0  0  0  0  0  3  0  0  0  0  0  0
  184.8230  177.5240  142.6030 C   0  0  0  0  0  2  0  0  0  0  0  0
  185.8820  176.5960  142.4520 O   0  0  0  0  0  0  0  0  0  0  0  0
  186.0260  178.6310  144.5230 C   0  0  1  0  0  3  0  0  0  0  0  0
  187.4930  176.3630  139.9770 O   0  0  0  0  0  0  0  0  0  0  0  0
  188.1180  175.8070  140.9210 C   0  0  0  0  0  0  0  0  0  0  0  0
  188.7120  174.5190  140.7330 N   0  0  0  0  0  2  0  0  0  0  0  0
  190.4920  170.7070  140.7020 C   0  0  1  0  0  3  0  0  0  0  0  0
  189.6830  172.5450  137.0870 C   0  0  0  0  0  2  0  0  0  0  0  0
  189.8820  172.0970  140.9070 C   0  0  0  0  0  2  0  0  0  0  0  0
  190.6830  170.7420  138.4410 C   0  0  0  0  0  2  0  0  0  0  0  0
  188.7460  173.9170  139.4650 N   0  0  0  0  0  0  0  0  0  0  0  0
  189.9100  172.0270  138.2960 C   0  0  0  0  0  0  0  0  0  0  0  0
  191.4240  170.7430  139.6430 O   0  0  0  0  0  0  0  0  0  0  0  0
  189.3450  172.6170  139.5610 C   0  0  1  0  0  0  0  0  0  0  0  0
  187.9290  172.7280  139.5450 N   0  0  0  0  0  2  0  0  0  0  0  0
  191.0300  171.2410  142.9660 O   0  0  0  0  0  1  0  0  0  0  0  0
  191.1730  170.2630  141.9850 C   0  0  0  0  0  2  0  0  0  0  0  0
  189.2640  175.0110  145.4790 O   0  0  0  0  0  0  0  0  0  0  0  0
  190.5810  174.4810  145.3500 C   0  0  0  0  0  2  0  0  0  0  0  0
  191.6180  175.5870  145.4700 C   0  0  0  0  0  2  0  0  0  0  0  0
  192.8580  175.0680  146.1740 C   0  0  0  0  0  2  0  0  0  0  0  0
  193.9600  176.1050  146.0800 C   0  0  0  0  0  2  0  0  0  0  0  0
  194.0990  170.0850  144.0770 N   0  0  0  0  0  0  0  0  0  0  0  0
  195.2810  174.0190  145.7610 C   0  0  0  0  0  2  0  0  0  0  0  0
  194.6990  168.4950  145.7070 N   0  0  0  0  0  0  0  0  0  0  0  0
  193.9810  168.8370  144.6040 C   0  0  0  0  0  3  0  0  0  0  0  0
  195.5340  169.3900  146.2960 C   0  0  0  0  0  0  0  0  0  0  0  0
  195.7490  174.4520  143.4300 C   0  0  1  0  0  3  0  0  0  0  0  0
  196.2780  169.0140  147.4480 N   0  0  0  0  0  1  0  0  0  0  0  0
  194.9200  171.0110  144.6350 C   0  0  0  0  0  0  0  0  0  0  0  0
  195.1510  175.6530  144.0040 N   0  0  0  0  0  0  0  0  0  0  0  0
  195.6630  170.6740  145.7710 C   0  0  0  0  0  3  0  0  0  0  0  0
  195.8800  173.3920  144.5250 C   0  0  2  0  0  3  0  0  0  0  0  0
  194.4250  172.6470  142.8380 N   0  0  0  0  0  0  0  0  0  0  0  0
  196.0270  176.7640  143.6650 C   0  0  0  0  0  1  0  0  0  0  0  0
  195.2030  175.4980  145.4520 C   0  0  1  0  0  3  0  0  0  0  0  0
  194.7920  173.8230  142.4620 C   0  0  0  0  0  3  0  0  0  0  0  0
  195.0290  172.3140  144.0480 N   0  0  0  0  0  0  0  0  0  0  0  0
  2  8  2  0  0  0  0
  2 11  1  0  0  0  0
  3  6  1  0  0  0  0
  3 30  1  0  0  0  0
  4  3  2  0  0  0  0
  6 12  1  0  0  0  0
  7 14  1  1  0  0  0
  7 10  1  0  0  0  0
  9 17  1  6  0  0  0
  9  7  1  0  0  0  0
  9  4  1  0  0  0  0
 10 15  1  0  0  0  0
 10  6  2  0  0  0  0
 11  5  1  0  0  0  0
 12 11  2  0  0  0  0
 13  1  1  0  0  0  0
 14 13  1  0  0  0  0
 15  1  1  1  0  0  0
 15  2  1  0  0  0  0
 16 17  2  0  0  0  0
 18 17  1  0  0  0  0
 19 21  1  0  0  0  0
 19 29  1  1  0  0  0
 20 24  2  0  0  0  0
 22 25  1  0  0  0  0
 23 27  1  0  0  0  0
 23 26  1  0  0  0  0
 23 18  1  0  0  0  0
 24 22  1  0  0  0  0
 24 26  1  0  0  0  0
 25 19  1  0  0  0  0
 26 21  1  1  0  0  0
 27 26  1  0  0  0  0
 29 28  1  0  0  0  0
 31 32  1  0  0  0  0
 31 30  1  0  0  0  0
 32 33  1  0  0  0  0
 34 33  1  0  0  0  0
 35 38  2  0  0  0  0
 35 42  1  0  0  0  0
 37 39  2  0  0  0  0
 38 37  1  0  0  0  0
 39 41  1  0  0  0  0
 40 49  1  6  0  0  0
 40 43  1  0  0  0  0
 40 45  1  0  0  0  0
 42 44  2  0  0  0  0
 43 48  1  0  0  0  0
 44 39  1  0  0  0  0
 45 36  1  1  0  0  0
 46 50  1  0  0  0  0
 47 43  1  0  0  0  0
 48 36  1  0  0  0  0
 48 34  1  1  0  0  0
 49 46  2  0  0  0  0
 50 45  1  0  0  0  0
 50 42  1  0  0  0  0
M  END
>  <MODEL>
6

>  <REMARK>
 VINA RESULT:      -7.3      2.988      7.650
  Name = 
  9 active torsions:
  status: ('A' for Active; 'I' for Inactive)
    1  A    between atoms: C_1  and  C_28
    2  A    between atoms: C_6  and  C_37
    3  A    between atoms: C_6  and  C_49
    4  A    between atoms: C_11  and  O_13
    5  A    between atoms: O_13  and  C_37
    6  A    between atoms: N_18  and  N_33
    7  A    between atoms: C_27  and  C_32
    8  A    between atoms: C_42  and  C_44
    9  A    between atoms: C_42  and  C_49
                            x       y       z     vdW  Elec       q    Type
                         _______ _______ _______ _____ _____    ______ ____

>  <TORSDO>
F 9

$$$$
=
 OpenBabel11042419503D

 50 57  0  0  1  0  0  0  0  0999 V2000
  193.0300  175.2600  141.2730 C   0  0  0  0  0  2  0  0  0  0  0  0
  192.2530  176.3750  143.3810 C   0  0  0  0  0  0  0  0  0  0  0  0
  188.5070  175.1000  141.6470 C   0  0  0  0  0  0  0  0  0  0  0  0
  188.3880  173.9620  141.0250 N   0  0  0  0  0  0  0  0  0  0  0  0
  191.0420  178.4520  144.3140 C   0  0  0  0  0  1  0  0  0  0  0  0
  189.7640  175.4420  142.3460 C   0  0  0  0  0  0  0  0  0  0  0  0
  190.8260  173.4640  141.2870 C   0  0  2  0  0  3  0  0  0  0  0  0
  193.3360  176.7660  143.8930 O   0  0  0  0  0  0  0  0  0  0  0  0
  189.4040  172.9100  141.0790 C   0  0  2  0  0  3  0  0  0  0  0  0
  190.8410  174.6440  142.2170 C   0  0  0  0  0  0  0  0  0  0  0  0
  191.0180  177.1600  143.5740 C   0  0  0  0  0  0  0  0  0  0  0  0
  189.8620  176.7210  143.0750 C   0  0  0  0  0  3  0  0  0  0  0  0
  192.8250  174.0230  140.3770 C   0  0  0  0  0  2  0  0  0  0  0  0
  191.4540  173.8330  140.0800 O   0  0  0  0  0  0  0  0  0  0  0  0
  192.2320  175.1040  142.5760 C   0  0  1  0  0  3  0  0  0  0  0  0
  188.5230  172.2480  138.9520 O   0  0  0  0  0  0  0  0  0  0  0  0
  189.3190  171.9960  139.8970 C   0  0  0  0  0  0  0  0  0  0  0  0
  190.2160  170.8850  139.8060 N   0  0  0  0  0  2  0  0  0  0  0  0
  194.1960  170.2260  138.6080 C   0  0  1  0  0  3  0  0  0  0  0  0
  191.1520  169.3140  135.9610 C   0  0  0  0  0  2  0  0  0  0  0  0
  192.8230  170.5640  139.1980 C   0  0  0  0  0  2  0  0  0  0  0  0
  193.5350  169.6040  136.5290 C   0  0  0  0  0  2  0  0  0  0  0  0
  190.3390  170.1490  138.6170 N   0  0  0  0  0  0  0  0  0  0  0  0
  192.0700  169.6370  136.8750 C   0  0  0  0  0  0  0  0  0  0  0  0
  194.2370  170.5950  137.2470 O   0  0  0  0  0  0  0  0  0  0  0  0
  191.7250  169.9550  138.3060 C   0  0  1  0  0  0  0  0  0  0  0  0
  191.0090  168.9150  138.9570 N   0  0  0  0  0  2  0  0  0  0  0  0
  196.1370  171.6130  138.5050 O   0  0  0  0  0  1  0  0  0  0  0  0
  195.2710  170.9650  139.3850 C   0  0  0  0  0  2  0  0  0  0  0  0
  187.4670  176.0370  141.6160 O   0  0  0  0  0  0  0  0  0  0  0  0
  187.4440  177.1390  140.7120 C   0  0  0  0  0  2  0  0  0  0  0  0
  186.6280  178.2870  141.2860 C   0  0  0  0  0  2  0  0  0  0  0  0
  186.9010  178.4330  142.7710 C   0  0  0  0  0  2  0  0  0  0  0  0
  185.6220  178.8260  143.4820 C   0  0  0  0  0  2  0  0  0  0  0  0
  190.2560  176.6500  147.2300 N   0  0  0  0  0  0  0  0  0  0  0  0
  186.5210  176.9510  144.8500 C   0  0  0  0  0  2  0  0  0  0  0  0
  191.3320  174.6980  146.4700 N   0  0  0  0  0  0  0  0  0  0  0  0
  191.3800  175.8920  147.1180 C   0  0  0  0  0  3  0  0  0  0  0  0
  190.1710  174.2500  145.9250 C   0  0  0  0  0  0  0  0  0  0  0  0
  185.7060  177.8430  146.9430 C   0  0  1  0  0  3  0  0  0  0  0  0
  190.1400  172.9980  145.2520 N   0  0  0  0  0  1  0  0  0  0  0  0
  189.0750  176.2410  146.6980 C   0  0  0  0  0  0  0  0  0  0  0  0
  185.1260  178.6280  145.8580 N   0  0  0  0  0  0  0  0  0  0  0  0
  189.0120  175.0160  146.0270 C   0  0  0  0  0  3  0  0  0  0  0  0
  186.5790  176.7400  146.3430 C   0  0  2  0  0  3  0  0  0  0  0  0
  187.8870  178.2110  147.6250 N   0  0  0  0  0  0  0  0  0  0  0  0
  183.6890  178.6660  146.0860 C   0  0  0  0  0  1  0  0  0  0  0  0
  185.3410  177.8720  144.6310 C   0  0  1  0  0  3  0  0  0  0  0  0
  186.6900  178.6800  147.7040 C   0  0  0  0  0  3  0  0  0  0  0  0
  187.9080  177.0590  146.8420 N   0  0  0  0  0  0  0  0  0  0  0  0
  2 11  1  0  0  0  0
  2  8  2  0  0  0  0
  3  6  1  0  0  0  0
  4  9  1  0  0  0  0
  4  3  2  0  0  0  0
  6 12  1  0  0  0  0
  7 14  1  6  0  0  0
  7 10  1  0  0  0  0
  9 17  1  6  0  0  0
  9  7  1  0  0  0  0
 10  6  2  0  0  0  0
 10 15  1  0  0  0  0
 11  5  1  0  0  0  0
 12 11  2  0  0  0  0
 13  1  1  0  0  0  0
 14 13  1  0  0  0  0
 15  1  1  6  0  0  0
 15  2  1  0  0  0  0
 16 17  2  0  0  0  0
 18 17  1  0  0  0  0
 19 21  1  0  0  0  0
 19 29  1  1  0  0  0
 20 24  2  0  0  0  0
 22 24  1  0  0  0  0
 22 25  1  0  0  0  0
 23 27  1  0  0  0  0
 23 18  1  0  0  0  0
 24 26  1  0  0  0  0
 25 19  1  0  0  0  0
 26 23  1  0  0  0  0
 26 27  1  0  0  0  0
 26 21  1  1  0  0  0
 28 29  1  0  0  0  0
 30  3  1  0  0  0  0
 31 32  1  0  0  0  0
 31 30  1  0  0  0  0
 32 33  1  0  0  0  0
 33 34  1  0  0  0  0
 37 38  2  0  0  0  0
 38 35  1  0  0  0  0
 39 44  2  0  0  0  0
 39 37  1  0  0  0  0
 40 49  1  1  0  0  0
 41 39  1  0  0  0  0
 42 50  1  0  0  0  0
 42 35  2  0  0  0  0
 43 47  1  0  0  0  0
 43 40  1  0  0  0  0
 44 42  1  0  0  0  0
 45 36  1  6  0  0  0
 45 50  1  0  0  0  0
 45 40  1  0  0  0  0
 46 49  2  0  0  0  0
 48 34  1  6  0  0  0
 48 36  1  0  0  0  0
 48 43  1  0  0  0  0
 50 46  1  0  0  0  0
M  END
>  <MODEL>
7

>  <REMARK>
 VINA RESULT:      -7.3      2.875      6.320
  Name = 
  9 active torsions:
  status: ('A' for Active; 'I' for Inactive)
    1  A    between atoms: C_1  and  C_28
    2  A    between atoms: C_6  and  C_37
    3  A    between atoms: C_6  and  C_49
    4  A    between atoms: C_11  and  O_13
    5  A    between atoms: O_13  and  C_37
    6  A    between atoms: N_18  and  N_33
    7  A    between atoms: C_27  and  C_32
    8  A    between atoms: C_42  and  C_44
    9  A    between atoms: C_42  and  C_49
                            x       y       z     vdW  Elec       q    Type
                         _______ _______ _______ _____ _____    ______ ____

>  <TORSDO>
F 9

$$$$
=
 OpenBabel11042419503D

 50 57  0  0  1  0  0  0  0  0999 V2000
  192.5240  172.4670  140.5680 C   0  0  0  0  0  2  0  0  0  0  0  0
  193.2770  170.9500  142.4180 C   0  0  0  0  0  0  0  0  0  0  0  0
  190.8030  173.7680  144.5640 C   0  0  0  0  0  0  0  0  0  0  0  0
  189.7020  174.2420  144.0580 N   0  0  0  0  0  0  0  0  0  0  0  0
  194.7950  170.7950  144.4960 C   0  0  0  0  0  1  0  0  0  0  0  0
  191.5520  172.7030  143.8610 C   0  0  0  0  0  0  0  0  0  0  0  0
  190.0750  173.0410  141.8950 C   0  0  2  0  0  3  0  0  0  0  0  0
  194.0140  170.1290  141.8080 O   0  0  0  0  0  0  0  0  0  0  0  0
  189.0660  173.6870  142.8610 C   0  0  2  0  0  3  0  0  0  0  0  0
  191.1780  172.3260  142.6240 C   0  0  0  0  0  0  0  0  0  0  0  0
  193.5840  171.3250  143.8110 C   0  0  0  0  0  0  0  0  0  0  0  0
  192.7770  172.1550  144.4730 C   0  0  0  0  0  3  0  0  0  0  0  0
  191.3030  173.2140  139.9960 C   0  0  0  0  0  2  0  0  0  0  0  0
  190.6530  173.9680  141.0030 O   0  0  0  0  0  0  0  0  0  0  0  0
  192.0860  171.5410  141.7120 C   0  0  1  0  0  3  0  0  0  0  0  0
  187.6320  174.4140  141.0850 O   0  0  0  0  0  0  0  0  0  0  0  0
  188.1920  174.6930  142.1800 C   0  0  0  0  0  0  0  0  0  0  0  0
  187.9240  175.9400  142.8290 N   0  0  0  0  0  2  0  0  0  0  0  0
  185.9420  178.1000  145.8480 C   0  0  1  0  0  3  0  0  0  0  0  0
  184.3980  178.1810  142.0120 C   0  0  0  0  0  2  0  0  0  0  0  0
  186.7690  177.2320  144.8940 C   0  0  0  0  0  2  0  0  0  0  0  0
  184.2770  178.6890  144.4230 C   0  0  0  0  0  2  0  0  0  0  0  0
  186.9290  176.8060  142.3500 N   0  0  0  0  0  0  0  0  0  0  0  0
  184.9630  178.0980  143.2190 C   0  0  0  0  0  0  0  0  0  0  0  0
  184.5670  177.9330  145.5780 O   0  0  0  0  0  0  0  0  0  0  0  0
  186.3310  177.5130  143.4450 C   0  0  1  0  0  0  0  0  0  0  0  0
  187.3480  178.1490  142.6830 N   0  0  0  0  0  2  0  0  0  0  0  0
  186.9300  176.4890  147.3070 O   0  0  0  0  0  1  0  0  0  0  0  0
  186.2480  177.7040  147.2810 C   0  0  0  0  0  2  0  0  0  0  0  0
  191.3230  174.2950  145.7520 O   0  0  0  0  0  0  0  0  0  0  0  0
  191.0420  175.6190  146.2000 C   0  0  0  0  0  2  0  0  0  0  0  0
  192.3190  176.4380  146.2890 C   0  0  0  0  0  2  0  0  0  0  0  0
  192.6690  177.0130  144.9290 C   0  0  0  0  0  2  0  0  0  0  0  0
  194.1560  176.8520  144.6820 C   0  0  0  0  0  2  0  0  0  0  0  0
  197.5580  175.4490  139.5130 N   0  0  0  0  0  0  0  0  0  0  0  0
  194.5730  175.2840  142.7940 C   0  0  0  0  0  2  0  0  0  0  0  0
  196.3200  175.2260  137.5220 N   0  0  0  0  0  0  0  0  0  0  0  0
  197.4610  175.5930  138.1640 C   0  0  0  0  0  3  0  0  0  0  0  0
  195.2670  174.7190  138.2140 C   0  0  0  0  0  0  0  0  0  0  0  0
  196.4050  174.1540  143.8950 C   0  0  1  0  0  3  0  0  0  0  0  0
  194.0820  174.3400  137.5260 N   0  0  0  0  0  1  0  0  0  0  0  0
  196.5290  174.9480  140.2430 C   0  0  0  0  0  0  0  0  0  0  0  0
  195.7580  175.0270  144.8690 N   0  0  0  0  0  0  0  0  0  0  0  0
  195.3480  174.5690  139.5970 C   0  0  0  0  0  3  0  0  0  0  0  0
  195.6610  174.2620  142.5630 C   0  0  2  0  0  3  0  0  0  0  0  0
  197.8710  175.0250  142.3280 N   0  0  0  0  0  0  0  0  0  0  0  0
  195.4710  174.2120  146.0400 C   0  0  0  0  0  1  0  0  0  0  0  0
  194.4750  175.4170  144.2980 C   0  0  1  0  0  3  0  0  0  0  0  0
  197.7690  174.6850  143.5660 C   0  0  0  0  0  3  0  0  0  0  0  0
  196.6680  174.8000  141.6620 N   0  0  0  0  0  0  0  0  0  0  0  0
  2 11  1  0  0  0  0
  3 30  1  0  0  0  0
  4  3  2  0  0  0  0
  6 12  1  0  0  0  0
  6  3  1  0  0  0  0
  7 14  1  1  0  0  0
  7 10  1  0  0  0  0
  7  9  1  0  0  0  0
  8  2  2  0  0  0  0
  9 17  1  6  0  0  0
  9  4  1  0  0  0  0
 10  6  2  0  0  0  0
 11 12  2  0  0  0  0
 11  5  1  0  0  0  0
 13  1  1  0  0  0  0
 13 14  1  0  0  0  0
 15  1  1  6  0  0  0
 15  2  1  0  0  0  0
 15 10  1  0  0  0  0
 16 17  2  0  0  0  0
 17 18  1  0  0  0  0
 19 29  1  1  0  0  0
 20 24  2  0  0  0  0
 21 19  1  0  0  0  0
 22 25  1  0  0  0  0
 23 27  1  0  0  0  0
 23 18  1  0  0  0  0
 23 26  1  0  0  0  0
 24 26  1  0  0  0  0
 24 22  1  0  0  0  0
 25 19  1  0  0  0  0
 26 21  1  1  0  0  0
 27 26  1  0  0  0  0
 29 28  1  0  0  0  0
 30 31  1  0  0  0  0
 31 32  1  0  0  0  0
 33 32  1  0  0  0  0
 34 33  1  0  0  0  0
 35 42  1  0  0  0  0
 36 48  1  0  0  0  0
 37 38  1  0  0  0  0
 37 39  2  0  0  0  0
 38 35  2  0  0  0  0
 39 44  1  0  0  0  0
 40 49  1  6  0  0  0
 40 43  1  0  0  0  0
 41 39  1  0  0  0  0
 42 50  1  0  0  0  0
 43 47  1  0  0  0  0
 44 42  2  0  0  0  0
 45 36  1  1  0  0  0
 45 40  1  0  0  0  0
 46 49  2  0  0  0  0
 48 34  1  6  0  0  0
 48 43  1  0  0  0  0
 50 46  1  0  0  0  0
 50 45  1  0  0  0  0
M  END
>  <MODEL>
8

>  <REMARK>
 VINA RESULT:      -7.2      2.175      9.116
  Name = 
  9 active torsions:
  status: ('A' for Active; 'I' for Inactive)
    1  A    between atoms: C_1  and  C_28
    2  A    between atoms: C_6  and  C_37
    3  A    between atoms: C_6  and  C_49
    4  A    between atoms: C_11  and  O_13
    5  A    between atoms: O_13  and  C_37
    6  A    between atoms: N_18  and  N_33
    7  A    between atoms: C_27  and  C_32
    8  A    between atoms: C_42  and  C_44
    9  A    between atoms: C_42  and  C_49
                            x       y       z     vdW  Elec       q    Type
                         _______ _______ _______ _____ _____    ______ ____

>  <TORSDO>
F 9

$$$$
=
 OpenBabel11042419503D

 50 57  0  0  1  0  0  0  0  0999 V2000
  189.7650  172.7370  137.6490 C   0  0  0  0  0  2  0  0  0  0  0  0
  190.7250  170.4860  138.1970 C   0  0  0  0  0  0  0  0  0  0  0  0
  190.8920  172.4550  142.0390 C   0  0  0  0  0  0  0  0  0  0  0  0
  189.9480  173.2560  142.4440 N   0  0  0  0  0  0  0  0  0  0  0  0
  192.8980  169.2420  138.8110 C   0  0  0  0  0  1  0  0  0  0  0  0
  190.7370  171.6930  140.7820 C   0  0  0  0  0  0  0  0  0  0  0  0
  188.7190  173.0470  140.2750 C   0  0  2  0  0  3  0  0  0  0  0  0
  190.6960  169.9030  137.0810 O   0  0  0  0  0  0  0  0  0  0  0  0
  188.6480  173.3620  141.7800 C   0  0  2  0  0  3  0  0  0  0  0  0
  189.6860  171.9360  139.9760 C   0  0  0  0  0  0  0  0  0  0  0  0
  191.8000  170.1840  139.1610 C   0  0  0  0  0  0  0  0  0  0  0  0
  191.8030  170.7630  140.3620 C   0  0  0  0  0  3  0  0  0  0  0  0
  188.7950  173.8270  138.1470 C   0  0  0  0  0  2  0  0  0  0  0  0
  189.0660  174.1690  139.4950 O   0  0  0  0  0  0  0  0  0  0  0  0
  189.6540  171.4890  138.5360 C   0  0  1  0  0  3  0  0  0  0  0  0
  186.7330  174.7790  142.0390 O   0  0  0  0  0  0  0  0  0  0  0  0
  187.9910  174.6780  142.0540 C   0  0  0  0  0  0  0  0  0  0  0  0
  188.7990  175.7990  142.4240 N   0  0  0  0  0  2  0  0  0  0  0  0
  188.7230  176.0240  146.6250 C   0  0  1  0  0  3  0  0  0  0  0  0
  186.5670  178.8060  144.4520 C   0  0  0  0  0  2  0  0  0  0  0  0
  188.8370  175.7670  145.1200 C   0  0  0  0  0  2  0  0  0  0  0  0
  187.2280  177.7300  146.5720 C   0  0  0  0  0  2  0  0  0  0  0  0
  188.2180  176.9770  142.9210 N   0  0  0  0  0  0  0  0  0  0  0  0
  187.2890  177.8690  145.0730 C   0  0  0  0  0  0  0  0  0  0  0  0
  187.3970  176.3820  146.9520 O   0  0  0  0  0  0  0  0  0  0  0  0
  188.2620  176.9720  144.3550 C   0  0  1  0  0  0  0  0  0  0  0  0
  189.2570  177.6860  143.6340 N   0  0  0  0  0  2  0  0  0  0  0  0
  189.3110  173.7140  146.4940 O   0  0  0  0  0  1  0  0  0  0  0  0
  189.1290  174.7720  147.3820 C   0  0  0  0  0  2  0  0  0  0  0  0
  192.0870  172.3460  142.7600 O   0  0  0  0  0  0  0  0  0  0  0  0
  192.1260  172.1670  144.1730 C   0  0  0  0  0  2  0  0  0  0  0  0
  193.5600  172.0150  144.6550 C   0  0  0  0  0  2  0  0  0  0  0  0
  193.8530  173.0170  145.7560 C   0  0  0  0  0  2  0  0  0  0  0  0
  195.2950  173.4730  145.6510 C   0  0  0  0  0  2  0  0  0  0  0  0
  193.8920  175.0340  139.6630 N   0  0  0  0  0  0  0  0  0  0  0  0
  195.7400  174.9510  143.6980 C   0  0  0  0  0  2  0  0  0  0  0  0
  195.6870  174.9150  138.1440 N   0  0  0  0  0  0  0  0  0  0  0  0
  194.3610  174.7820  138.4110 C   0  0  0  0  0  3  0  0  0  0  0  0
  196.5570  175.2940  139.1160 C   0  0  0  0  0  0  0  0  0  0  0  0
  193.8890  176.4330  144.1630 C   0  0  1  0  0  3  0  0  0  0  0  0
  197.9400  175.4290  138.8170 N   0  0  0  0  0  1  0  0  0  0  0  0
  194.7260  175.4140  140.6640 C   0  0  0  0  0  0  0  0  0  0  0  0
  194.0530  175.5390  145.3050 N   0  0  0  0  0  0  0  0  0  0  0  0
  196.0930  175.5530  140.4040 C   0  0  0  0  0  3  0  0  0  0  0  0
  194.9660  176.1140  143.1250 C   0  0  2  0  0  3  0  0  0  0  0  0
  192.8310  175.7010  142.2390 N   0  0  0  0  0  0  0  0  0  0  0  0
  194.1140  176.3780  146.4920 C   0  0  0  0  0  1  0  0  0  0  0  0
  195.3600  174.9100  145.1620 C   0  0  1  0  0  3  0  0  0  0  0  0
  192.6150  176.1060  143.4420 C   0  0  0  0  0  3  0  0  0  0  0  0
  194.1970  175.6820  141.9690 N   0  0  0  0  0  0  0  0  0  0  0  0
  1 13  1  0  0  0  0
  2 15  1  0  0  0  0
  2 11  1  0  0  0  0
  3  4  2  0  0  0  0
  3 30  1  0  0  0  0
  5 11  1  0  0  0  0
  6  3  1  0  0  0  0
  7 14  1  6  0  0  0
  7  9  1  0  0  0  0
  8  2  2  0  0  0  0
  9 17  1  6  0  0  0
  9  4  1  0  0  0  0
 10  7  1  0  0  0  0
 10  6  2  0  0  0  0
 11 12  2  0  0  0  0
 12  6  1  0  0  0  0
 13 14  1  0  0  0  0
 15  1  1  6  0  0  0
 15 10  1  0  0  0  0
 16 17  2  0  0  0  0
 17 18  1  0  0  0  0
 18 23  1  0  0  0  0
 19 25  1  0  0  0  0
 19 29  1  1  0  0  0
 20 24  2  0  0  0  0
 21 19  1  0  0  0  0
 22 25  1  0  0  0  0
 23 27  1  0  0  0  0
 23 26  1  0  0  0  0
 24 22  1  0  0  0  0
 26 24  1  0  0  0  0
 26 21  1  1  0  0  0
 27 26  1  0  0  0  0
 28 29  1  0  0  0  0
 30 31  1  0  0  0  0
 31 32  1  0  0  0  0
 32 33  1  0  0  0  0
 34 33  1  0  0  0  0
 35 42  1  0  0  0  0
 36 48  1  0  0  0  0
 37 38  1  0  0  0  0
 37 39  2  0  0  0  0
 38 35  2  0  0  0  0
 39 44  1  0  0  0  0
 40 49  1  6  0  0  0
 40 43  1  0  0  0  0
 41 39  1  0  0  0  0
 42 50  1  0  0  0  0
 43 47  1  0  0  0  0
 44 42  2  0  0  0  0
 45 36  1  1  0  0  0
 45 40  1  0  0  0  0
 46 49  2  0  0  0  0
 48 43  1  0  0  0  0
 48 34  1  6  0  0  0
 50 46  1  0  0  0  0
 50 45  1  0  0  0  0
M  END
>  <MODEL>
9

>  <REMARK>
 VINA RESULT:      -7.2      2.328      8.805
  Name = 
  9 active torsions:
  status: ('A' for Active; 'I' for Inactive)
    1  A    between atoms: C_1  and  C_28
    2  A    between atoms: C_6  and  C_37
    3  A    between atoms: C_6  and  C_49
    4  A    between atoms: C_11  and  O_13
    5  A    between atoms: O_13  and  C_37
    6  A    between atoms: N_18  and  N_33
    7  A    between atoms: C_27  and  C_32
    8  A    between atoms: C_42  and  C_44
    9  A    between atoms: C_42  and  C_49
                            x       y       z     vdW  Elec       q    Type
                         _______ _______ _______ _____ _____    ______ ____

>  <TORSDO>
F 9

$$$$
