=
 OpenBabel11042416023D

 43 50  0  0  1  0  0  0  0  0999 V2000
  195.4450  173.9270  141.0920 C   0  0  0  0  0  3  0  0  0  0  0  0
  188.6590  174.8160  142.2310 C   0  0  1  0  0  3  0  0  0  0  0  0
  187.9060  174.9790  140.9270 C   0  0  0  0  0  2  0  0  0  0  0  0
  192.5670  177.2320  143.2260 C   0  0  0  0  0  3  0  0  0  0  0  0
  193.0350  174.1040  141.4980 N   0  0  0  0  0  0  0  0  0  0  0  0
  188.5420  173.9790  139.9680 C   0  0  0  0  0  2  0  0  0  0  0  0
  191.1610  177.2960  143.3730 C   0  0  0  0  0  2  0  0  0  0  0  0
  189.9410  174.2270  141.8520 N   0  0  0  0  0  0  0  0  0  0  0  0
  188.9660  176.1200  142.8410 N   0  0  0  0  0  0  0  0  0  0  0  0
  196.7610  175.7980  141.9600 C   0  0  0  0  0  3  0  0  0  0  0  0
  189.9390  173.7020  140.5090 C   0  0  1  0  0  3  0  0  0  0  0  0
  190.3840  176.2180  142.9030 C   0  0  0  0  0  0  0  0  0  0  0  0
  194.3080  174.5530  141.5970 C   0  0  0  0  0  0  0  0  0  0  0  0
  193.1100  176.0980  142.6030 C   0  0  0  0  0  0  0  0  0  0  0  0
  190.9440  175.1230  142.3070 C   0  0  0  0  0  0  0  0  0  0  0  0
  194.3920  175.7640  142.2590 C   0  0  0  0  0  0  0  0  0  0  0  0
  195.6030  176.4180  142.4620 C   0  0  0  0  0  3  0  0  0  0  0  0
  192.3220  175.0660  142.1270 C   0  0  0  0  0  0  0  0  0  0  0  0
  196.6820  174.5630  141.2820 C   0  0  0  0  0  3  0  0  0  0  0  0
  188.0650  176.8270  143.6920 C   0  0  0  0  0  0  0  0  0  0  0  0
  186.3220  178.2250  145.3760 C   0  0  0  0  0  0  0  0  0  0  0  0
  187.0860  177.1630  145.8840 C   0  0  0  0  0  3  0  0  0  0  0  0
  187.9560  176.4670  145.0440 C   0  0  0  0  0  3  0  0  0  0  0  0
  187.3070  177.8920  143.1890 C   0  0  0  0  0  3  0  0  0  0  0  0
  186.4390  178.5890  144.0300 C   0  0  0  0  0  3  0  0  0  0  0  0
  185.4130  178.9870  146.2770 C   0  0  0  0  0  2  0  0  0  0  0  0
  184.0410  178.5240  146.1150 N   0  0  0  0  0  1  0  0  0  0  0  0
  190.2270  172.2120  140.5450 C   0  0  0  0  0  2  0  0  0  0  0  0
  189.9100  171.6150  141.9070 C   0  0  0  0  0  2  0  0  0  0  0  0
  192.1380  170.8260  141.5190 O   0  0  0  0  0  1  0  0  0  0  0  0
  191.1180  170.8770  142.4740 C   0  0  1  0  0  3  0  0  0  0  0  0
  191.6370  171.5600  143.7320 C   0  0  0  0  0  2  0  0  0  0  0  0
  193.0590  171.3040  143.9150 N   0  0  0  0  0  2  0  0  0  0  0  0
  191.4500  175.2380  147.6110 O   0  0  0  0  0  1  0  0  0  0  0  0
  194.3500  174.9010  145.5960 C   0  0  1  0  0  3  0  0  0  0  0  0
  193.2480  176.6120  146.8200 C   0  0  0  0  0  2  0  0  0  0  0  0
  194.9390  172.7430  144.5520 C   0  0  0  0  0  2  0  0  0  0  0  0
  193.1140  174.2990  146.1910 C   0  0  2  0  0  3  0  0  0  0  0  0
  194.6370  176.0790  146.4880 C   0  0  0  0  0  2  0  0  0  0  0  0
  193.5570  172.1890  144.9580 C   0  0  1  0  0  3  0  0  0  0  0  0
  195.4290  173.8360  145.5200 C   0  0  0  0  0  2  0  0  0  0  0  0
  192.5290  173.3130  145.1960 C   0  0  0  0  0  2  0  0  0  0  0  0
  192.2490  175.5010  146.4960 C   0  0  1  0  0  3  0  0  0  0  0  0
  1 19  2  0  0  0  0
  1 13  1  0  0  0  0
  2  3  1  6  0  0  0
  2  9  1  0  0  0  0
  4  7  1  0  0  0  0
  5 13  1  0  0  0  0
  5 18  2  0  0  0  0
  6 11  1  0  0  0  0
  6  3  1  0  0  0  0
  8  2  1  0  0  0  0
  8 15  1  0  0  0  0
  9 12  1  0  0  0  0
  9 20  1  0  0  0  0
 10 17  2  0  0  0  0
 11 28  1  1  0  0  0
 11  8  1  0  0  0  0
 12  7  1  0  0  0  0
 13 16  2  0  0  0  0
 14  4  2  0  0  0  0
 15 12  2  0  0  0  0
 16 17  1  0  0  0  0
 16 14  1  0  0  0  0
 18 15  1  0  0  0  0
 18 14  1  0  0  0  0
 19 10  1  0  0  0  0
 20 23  1  0  0  0  0
 21 22  1  0  0  0  0
 21 26  1  0  0  0  0
 23 22  2  0  0  0  0
 24 20  2  0  0  0  0
 24 25  1  0  0  0  0
 25 21  2  0  0  0  0
 27 26  1  0  0  0  0
 28 29  1  0  0  0  0
 29 31  1  0  0  0  0
 31 30  1  6  0  0  0
 31 32  1  0  0  0  0
 32 33  1  0  0  0  0
 35 41  1  1  0  0  0
 35 38  1  0  0  0  0
 35 39  1  0  0  0  0
 37 40  1  0  0  0  0
 37 41  1  0  0  0  0
 38 42  1  6  0  0  0
 38 43  1  0  0  0  0
 39 36  1  0  0  0  0
 40 33  1  6  0  0  0
 40 42  1  0  0  0  0
 43 36  1  0  0  0  0
 43 34  1  1  0  0  0
M  END
>  <MODEL>
1

>  <REMARK>
 VINA RESULT:      -7.9      0.000      0.000
  Name = 
  8 active torsions:
  status: ('A' for Active; 'I' for Inactive)
    1  A    between atoms: C_3  and  C_12
    2  A    between atoms: C_5  and  N_26
    3  A    between atoms: C_9  and  C_10
    4  A    between atoms: C_9  and  C_39
    5  A    between atoms: C_10  and  C_24
    6  A    between atoms: N_18  and  C_19
    7  A    between atoms: N_18  and  C_39
    8  A    between atoms: C_24  and  C_28
                            x       y       z     vdW  Elec       q    Type
                         _______ _______ _______ _____ _____    ______ ____

>  <TORSDO>
F 8

$$$$
=
 OpenBabel11042416023D

 43 50  0  0  1  0  0  0  0  0999 V2000
  192.0820  170.6840  136.8320 C   0  0  0  0  0  3  0  0  0  0  0  0
  190.0410  174.3500  142.3580 C   0  0  1  0  0  3  0  0  0  0  0  0
  189.7440  173.4420  143.5330 C   0  0  0  0  0  2  0  0  0  0  0  0
  188.3410  173.5640  138.0460 C   0  0  0  0  0  3  0  0  0  0  0  0
  191.4940  171.9960  138.8160 N   0  0  0  0  0  0  0  0  0  0  0  0
  190.8340  172.3760  143.5030 C   0  0  0  0  0  2  0  0  0  0  0  0
  188.0360  174.2500  139.2460 C   0  0  0  0  0  2  0  0  0  0  0  0
  190.8410  173.5350  141.4470 N   0  0  0  0  0  0  0  0  0  0  0  0
  188.8140  174.7040  141.6270 N   0  0  0  0  0  0  0  0  0  0  0  0
  190.4710  170.8400  134.9970 C   0  0  0  0  0  3  0  0  0  0  0  0
  191.3500  172.3380  142.0690 C   0  0  1  0  0  3  0  0  0  0  0  0
  188.9620  174.1950  140.3070 C   0  0  0  0  0  0  0  0  0  0  0  0
  191.2720  171.5560  137.5560 C   0  0  0  0  0  0  0  0  0  0  0  0
  189.5490  172.8520  137.9860 C   0  0  0  0  0  0  0  0  0  0  0  0
  190.1340  173.4980  140.2160 C   0  0  0  0  0  0  0  0  0  0  0  0
  190.0970  172.0510  137.0200 C   0  0  0  0  0  0  0  0  0  0  0  0
  189.6630  171.7180  135.7430 C   0  0  0  0  0  3  0  0  0  0  0  0
  190.4270  172.7920  139.0540 C   0  0  0  0  0  0  0  0  0  0  0  0
  191.6700  170.3290  135.5380 C   0  0  0  0  0  3  0  0  0  0  0  0
  187.9670  175.7960  141.9870 C   0  0  0  0  0  0  0  0  0  0  0  0
  186.3160  177.9320  142.7220 C   0  0  0  0  0  0  0  0  0  0  0  0
  185.9980  176.6270  143.1290 C   0  0  0  0  0  3  0  0  0  0  0  0
  186.8220  175.5620  142.7640 C   0  0  0  0  0  3  0  0  0  0  0  0
  188.2870  177.0990  141.5880 C   0  0  0  0  0  3  0  0  0  0  0  0
  187.4640  178.1640  141.9560 C   0  0  0  0  0  3  0  0  0  0  0  0
  185.4530  179.0740  143.1340 C   0  0  0  0  0  2  0  0  0  0  0  0
  185.8180  179.5210  144.4720 N   0  0  0  0  0  1  0  0  0  0  0  0
  192.8690  172.3540  142.0340 C   0  0  0  0  0  2  0  0  0  0  0  0
  193.4530  172.8110  143.3610 C   0  0  0  0  0  2  0  0  0  0  0  0
  194.3200  174.4620  141.8570 O   0  0  0  0  0  1  0  0  0  0  0  0
  194.4320  173.9620  143.1580 C   0  0  1  0  0  3  0  0  0  0  0  0
  194.1730  175.0840  144.1550 C   0  0  0  0  0  2  0  0  0  0  0  0
  193.6080  176.2510  143.4920 N   0  0  0  0  0  2  0  0  0  0  0  0
  190.4920  175.2030  148.0650 O   0  0  0  0  0  1  0  0  0  0  0  0
  189.7650  176.8510  145.0090 C   0  0  1  0  0  3  0  0  0  0  0  0
  188.5640  175.8920  146.8190 C   0  0  0  0  0  2  0  0  0  0  0  0
  191.5690  177.6120  143.5060 C   0  0  0  0  0  2  0  0  0  0  0  0
  190.7720  176.2840  145.9630 C   0  0  2  0  0  3  0  0  0  0  0  0
  188.5520  177.0840  145.8690 C   0  0  0  0  0  2  0  0  0  0  0  0
  192.5880  176.8250  144.3570 C   0  0  1  0  0  3  0  0  0  0  0  0
  190.3590  178.0760  144.3370 C   0  0  0  0  0  2  0  0  0  0  0  0
  191.9190  175.6930  145.1620 C   0  0  0  0  0  2  0  0  0  0  0  0
  189.9690  175.2920  146.7740 C   0  0  1  0  0  3  0  0  0  0  0  0
  1 13  1  0  0  0  0
  2  3  1  1  0  0  0
  4  7  1  0  0  0  0
  5 18  2  0  0  0  0
  6  3  1  0  0  0  0
  7 12  1  0  0  0  0
  8 11  1  0  0  0  0
  8  2  1  0  0  0  0
  9 20  1  0  0  0  0
  9  2  1  0  0  0  0
 10 19  1  0  0  0  0
 10 17  2  0  0  0  0
 11 28  1  1  0  0  0
 11  6  1  0  0  0  0
 12  9  1  0  0  0  0
 13  5  1  0  0  0  0
 14  4  2  0  0  0  0
 14 18  1  0  0  0  0
 15 12  2  0  0  0  0
 15  8  1  0  0  0  0
 16 13  2  0  0  0  0
 16 14  1  0  0  0  0
 17 16  1  0  0  0  0
 18 15  1  0  0  0  0
 19  1  2  0  0  0  0
 20 23  1  0  0  0  0
 21 22  1  0  0  0  0
 21 26  1  0  0  0  0
 23 22  2  0  0  0  0
 24 25  1  0  0  0  0
 24 20  2  0  0  0  0
 25 21  2  0  0  0  0
 26 27  1  0  0  0  0
 28 29  1  0  0  0  0
 31 30  1  6  0  0  0
 31 29  1  0  0  0  0
 31 32  1  0  0  0  0
 33 32  1  0  0  0  0
 35 41  1  1  0  0  0
 35 39  1  0  0  0  0
 35 38  1  0  0  0  0
 37 41  1  0  0  0  0
 37 40  1  0  0  0  0
 38 42  1  6  0  0  0
 38 43  1  0  0  0  0
 39 36  1  0  0  0  0
 40 33  1  6  0  0  0
 40 42  1  0  0  0  0
 43 36  1  0  0  0  0
 43 34  1  1  0  0  0
M  END
>  <MODEL>
2

>  <REMARK>
 VINA RESULT:      -7.5      2.455      4.912
  Name = 
  8 active torsions:
  status: ('A' for Active; 'I' for Inactive)
    1  A    between atoms: C_3  and  C_12
    2  A    between atoms: C_5  and  N_26
    3  A    between atoms: C_9  and  C_10
    4  A    between atoms: C_9  and  C_39
    5  A    between atoms: C_10  and  C_24
    6  A    between atoms: N_18  and  C_19
    7  A    between atoms: N_18  and  C_39
    8  A    between atoms: C_24  and  C_28
                            x       y       z     vdW  Elec       q    Type
                         _______ _______ _______ _____ _____    ______ ____

>  <TORSDO>
F 8

$$$$
=
 OpenBabel11042416023D

 43 50  0  0  1  0  0  0  0  0999 V2000
  194.7330  171.2370  144.6220 C   0  0  0  0  0  3  0  0  0  0  0  0
  190.6670  176.7170  145.8790 C   0  0  1  0  0  3  0  0  0  0  0  0
  190.5940  177.0100  147.3630 C   0  0  0  0  0  2  0  0  0  0  0  0
  190.0300  172.4090  144.1060 C   0  0  0  0  0  3  0  0  0  0  0  0
  193.4070  173.2530  145.0440 N   0  0  0  0  0  0  0  0  0  0  0  0
  192.0090  176.7910  147.8860 C   0  0  0  0  0  2  0  0  0  0  0  0
  189.3170  173.5870  144.4290 C   0  0  0  0  0  2  0  0  0  0  0  0
  191.8420  175.8620  145.7240 N   0  0  0  0  0  0  0  0  0  0  0  0
  189.5140  175.9210  145.4300 N   0  0  0  0  0  0  0  0  0  0  0  0
  193.4630  169.3580  143.7050 C   0  0  0  0  0  3  0  0  0  0  0  0
  192.6910  175.8620  146.8880 C   0  0  1  0  0  3  0  0  0  0  0  0
  190.0320  174.6920  144.9350 C   0  0  0  0  0  0  0  0  0  0  0  0
  193.5530  171.9770  144.6190 C   0  0  0  0  0  0  0  0  0  0  0  0
  191.4160  172.4020  144.3230 C   0  0  0  0  0  0  0  0  0  0  0  0
  191.3840  174.6560  145.1290 C   0  0  0  0  0  0  0  0  0  0  0  0
  192.3640  171.4250  144.1780 C   0  0  0  0  0  0  0  0  0  0  0  0
  192.2790  170.1180  143.7110 C   0  0  0  0  0  3  0  0  0  0  0  0
  192.0900  173.4910  144.8460 C   0  0  0  0  0  0  0  0  0  0  0  0
  194.6790  169.9140  144.1550 C   0  0  0  0  0  3  0  0  0  0  0  0
  188.2630  176.4900  145.0430 C   0  0  0  0  0  0  0  0  0  0  0  0
  185.8160  177.6290  144.3040 C   0  0  0  0  0  0  0  0  0  0  0  0
  185.9440  176.9820  145.5430 C   0  0  0  0  0  3  0  0  0  0  0  0
  187.1650  176.4160  145.9110 C   0  0  0  0  0  3  0  0  0  0  0  0
  188.1370  177.1430  143.8090 C   0  0  0  0  0  3  0  0  0  0  0  0
  186.9160  177.7110  143.4430 C   0  0  0  0  0  3  0  0  0  0  0  0
  184.5220  178.2580  143.9210 C   0  0  0  0  0  2  0  0  0  0  0  0
  184.3190  178.1530  142.4820 N   0  0  0  0  0  1  0  0  0  0  0  0
  194.0680  176.3800  146.5130 C   0  0  0  0  0  2  0  0  0  0  0  0
  194.1230  176.8180  145.0580 C   0  0  0  0  0  2  0  0  0  0  0  0
  195.9680  175.2910  145.0960 O   0  0  0  0  0  1  0  0  0  0  0  0
  195.4290  176.3800  144.4050 C   0  0  1  0  0  3  0  0  0  0  0  0
  195.2110  175.9960  142.9470 C   0  0  0  0  0  2  0  0  0  0  0  0
  193.8010  176.0830  142.5910 N   0  0  0  0  0  2  0  0  0  0  0  0
  189.6490  173.7910  139.5530 O   0  0  0  0  0  1  0  0  0  0  0  0
  192.6250  172.4380  140.9290 C   0  0  1  0  0  3  0  0  0  0  0  0
  190.5650  171.6350  140.0630 C   0  0  0  0  0  2  0  0  0  0  0  0
  194.4620  173.8990  141.6920 C   0  0  0  0  0  2  0  0  0  0  0  0
  191.8040  173.6330  140.5510 C   0  0  2  0  0  3  0  0  0  0  0  0
  192.0590  171.3330  140.0780 C   0  0  0  0  0  2  0  0  0  0  0  0
  193.5330  175.1220  141.5310 C   0  0  1  0  0  3  0  0  0  0  0  0
  194.0940  172.7630  140.7210 C   0  0  0  0  0  2  0  0  0  0  0  0
  192.0440  174.7280  141.5750 C   0  0  0  0  0  2  0  0  0  0  0  0
  190.3940  173.0890  140.5020 C   0  0  1  0  0  3  0  0  0  0  0  0
  2  3  1  1  0  0  0
  3  6  1  0  0  0  0
  4 14  2  0  0  0  0
  4  7  1  0  0  0  0
  7 12  1  0  0  0  0
  8  2  1  0  0  0  0
  8 11  1  0  0  0  0
  9  2  1  0  0  0  0
 10 17  2  0  0  0  0
 10 19  1  0  0  0  0
 11 28  1  6  0  0  0
 11  6  1  0  0  0  0
 12 15  2  0  0  0  0
 12  9  1  0  0  0  0
 13  1  1  0  0  0  0
 13  5  1  0  0  0  0
 14 18  1  0  0  0  0
 15  8  1  0  0  0  0
 16 14  1  0  0  0  0
 16 13  2  0  0  0  0
 17 16  1  0  0  0  0
 18  5  2  0  0  0  0
 18 15  1  0  0  0  0
 19  1  2  0  0  0  0
 20  9  1  0  0  0  0
 20 23  1  0  0  0  0
 21 22  1  0  0  0  0
 22 23  2  0  0  0  0
 24 20  2  0  0  0  0
 25 24  1  0  0  0  0
 25 21  2  0  0  0  0
 26 21  1  0  0  0  0
 27 26  1  0  0  0  0
 29 28  1  0  0  0  0
 31 29  1  0  0  0  0
 31 30  1  1  0  0  0
 32 31  1  0  0  0  0
 33 32  1  0  0  0  0
 35 39  1  6  0  0  0
 36 39  1  0  0  0  0
 36 43  1  0  0  0  0
 38 35  1  0  0  0  0
 38 42  1  1  0  0  0
 40 42  1  0  0  0  0
 40 37  1  0  0  0  0
 40 33  1  1  0  0  0
 41 35  1  0  0  0  0
 41 37  1  0  0  0  0
 43 34  1  6  0  0  0
 43 38  1  0  0  0  0
M  END
>  <MODEL>
3

>  <REMARK>
 VINA RESULT:      -7.5      2.087      5.411
  Name = 
  8 active torsions:
  status: ('A' for Active; 'I' for Inactive)
    1  A    between atoms: C_3  and  C_12
    2  A    between atoms: C_5  and  N_26
    3  A    between atoms: C_9  and  C_10
    4  A    between atoms: C_9  and  C_39
    5  A    between atoms: C_10  and  C_24
    6  A    between atoms: N_18  and  C_19
    7  A    between atoms: N_18  and  C_39
    8  A    between atoms: C_24  and  C_28
                            x       y       z     vdW  Elec       q    Type
                         _______ _______ _______ _____ _____    ______ ____

>  <TORSDO>
F 8

$$$$
=
 OpenBabel11042416023D

 43 50  0  0  1  0  0  0  0  0999 V2000
  195.2970  173.9500  141.5680 C   0  0  0  0  0  3  0  0  0  0  0  0
  188.4410  175.0090  141.7020 C   0  0  1  0  0  3  0  0  0  0  0  0
  187.8840  175.1410  140.3000 C   0  0  0  0  0  2  0  0  0  0  0  0
  192.2270  177.3820  143.1650 C   0  0  0  0  0  3  0  0  0  0  0  0
  192.8590  174.1870  141.6210 N   0  0  0  0  0  0  0  0  0  0  0  0
  188.6250  174.0950  139.4730 C   0  0  0  0  0  2  0  0  0  0  0  0
  190.8160  177.4790  143.1080 C   0  0  0  0  0  3  0  0  0  0  0  0
  189.7500  174.3820  141.5280 N   0  0  0  0  0  0  0  0  0  0  0  0
  188.6910  176.3270  142.3070 N   0  0  0  0  0  0  0  0  0  0  0  0
  196.5220  175.8230  142.5550 C   0  0  0  0  0  3  0  0  0  0  0  0
  189.9260  173.8110  140.2160 C   0  0  1  0  0  3  0  0  0  0  0  0
  190.0880  176.4000  142.5670 C   0  0  0  0  0  0  0  0  0  0  0  0
  194.1150  174.6150  141.8860 C   0  0  0  0  0  0  0  0  0  0  0  0
  192.8250  176.2170  142.6620 C   0  0  0  0  0  0  0  0  0  0  0  0
  190.7000  175.2740  142.0920 C   0  0  0  0  0  0  0  0  0  0  0  0
  194.1350  175.8470  142.5140 C   0  0  0  0  0  0  0  0  0  0  0  0
  195.3190  176.4830  142.8660 C   0  0  0  0  0  3  0  0  0  0  0  0
  192.0880  175.1840  142.1110 C   0  0  0  0  0  0  0  0  0  0  0  0
  196.5100  174.5670  141.9120 C   0  0  0  0  0  2  0  0  0  0  0  0
  187.6950  177.0800  143.0000 C   0  0  0  0  0  0  0  0  0  0  0  0
  185.7220  178.5450  144.3370 C   0  0  0  0  0  0  0  0  0  0  0  0
  186.1190  178.9200  143.0440 C   0  0  0  0  0  3  0  0  0  0  0  0
  187.1020  178.1880  142.3770 C   0  0  0  0  0  3  0  0  0  0  0  0
  187.2920  176.7020  144.2870 C   0  0  0  0  0  3  0  0  0  0  0  0
  186.3070  177.4330  144.9520 C   0  0  0  0  0  3  0  0  0  0  0  0
  184.6530  179.3090  145.0390 C   0  0  0  0  0  2  0  0  0  0  0  0
  184.0620  178.4920  146.0920 N   0  0  0  0  0  1  0  0  0  0  0  0
  190.1690  172.3170  140.3400 C   0  0  0  0  0  2  0  0  0  0  0  0
  189.5530  171.7550  141.6100 C   0  0  0  0  0  2  0  0  0  0  0  0
  190.7580  169.7170  141.2490 O   0  0  0  0  0  1  0  0  0  0  0  0
  190.4420  170.6750  142.2160 C   0  0  1  0  0  3  0  0  0  0  0  0
  191.7260  171.2720  142.7750 C   0  0  0  0  0  2  0  0  0  0  0  0
  191.6330  171.4520  144.2180 N   0  0  0  0  0  2  0  0  0  0  0  0
  193.8380  176.3000  146.0510 O   0  0  0  0  0  1  0  0  0  0  0  0
  190.6720  174.7800  146.5490 C   0  0  1  0  0  3  0  0  0  0  0  0
  191.9740  176.4980  147.5450 C   0  0  0  0  0  2  0  0  0  0  0  0
  189.8940  172.9390  145.1000 C   0  0  0  0  0  2  0  0  0  0  0  0
  191.9680  174.8480  145.8010 C   0  0  2  0  0  3  0  0  0  0  0  0
  190.5410  176.1490  147.1600 C   0  0  0  0  0  2  0  0  0  0  0  0
  191.3090  172.8450  144.4890 C   0  0  1  0  0  3  0  0  0  0  0  0
  189.5710  174.3620  145.5900 C   0  0  0  0  0  2  0  0  0  0  0  0
  192.3830  173.4380  145.4210 C   0  0  0  0  0  2  0  0  0  0  0  0
  192.8920  175.5590  146.7630 C   0  0  1  0  0  3  0  0  0  0  0  0
  1 13  2  0  0  0  0
  1 19  1  0  0  0  0
  2  3  1  6  0  0  0
  2  9  1  0  0  0  0
  5 13  1  0  0  0  0
  5 18  2  0  0  0  0
  6 11  1  0  0  0  0
  6  3  1  0  0  0  0
  7  4  2  0  0  0  0
  8  2  1  0  0  0  0
  8 15  1  0  0  0  0
  9 12  1  0  0  0  0
  9 20  1  0  0  0  0
 10 17  2  0  0  0  0
 11 28  1  1  0  0  0
 11  8  1  0  0  0  0
 12  7  1  0  0  0  0
 13 16  1  0  0  0  0
 14  4  1  0  0  0  0
 15 18  1  0  0  0  0
 15 12  2  0  0  0  0
 16 14  2  0  0  0  0
 16 17  1  0  0  0  0
 18 14  1  0  0  0  0
 19 10  1  0  0  0  0
 20 24  1  0  0  0  0
 21 25  1  0  0  0  0
 21 26  1  0  0  0  0
 22 21  2  0  0  0  0
 23 20  2  0  0  0  0
 23 22  1  0  0  0  0
 24 25  2  0  0  0  0
 26 27  1  0  0  0  0
 28 29  1  0  0  0  0
 29 31  1  0  0  0  0
 31 30  1  6  0  0  0
 31 32  1  0  0  0  0
 32 33  1  0  0  0  0
 35 41  1  6  0  0  0
 35 39  1  0  0  0  0
 37 41  1  0  0  0  0
 38 42  1  1  0  0  0
 38 35  1  0  0  0  0
 38 43  1  0  0  0  0
 39 36  1  0  0  0  0
 40 33  1  1  0  0  0
 40 37  1  0  0  0  0
 40 42  1  0  0  0  0
 43 34  1  6  0  0  0
 43 36  1  0  0  0  0
M  END
>  <MODEL>
4

>  <REMARK>
 VINA RESULT:      -7.4      1.179      1.900
  Name = 
  8 active torsions:
  status: ('A' for Active; 'I' for Inactive)
    1  A    between atoms: C_3  and  C_12
    2  A    between atoms: C_5  and  N_26
    3  A    between atoms: C_9  and  C_10
    4  A    between atoms: C_9  and  C_39
    5  A    between atoms: C_10  and  C_24
    6  A    between atoms: N_18  and  C_19
    7  A    between atoms: N_18  and  C_39
    8  A    between atoms: C_24  and  C_28
                            x       y       z     vdW  Elec       q    Type
                         _______ _______ _______ _____ _____    ______ ____

>  <TORSDO>
F 8

$$$$
=
 OpenBabel11042416023D

 43 50  0  0  1  0  0  0  0  0999 V2000
  184.9730  177.5750  142.5320 C   0  0  0  0  0  3  0  0  0  0  0  0
  190.7000  173.6670  142.7800 C   0  0  1  0  0  3  0  0  0  0  0  0
  190.3680  172.2390  143.1580 C   0  0  0  0  0  2  0  0  0  0  0  0
  189.0680  177.3730  145.1680 C   0  0  0  0  0  3  0  0  0  0  0  0
  186.9820  176.1740  142.4840 N   0  0  0  0  0  0  0  0  0  0  0  0
  189.0790  171.9150  142.4090 C   0  0  0  0  0  2  0  0  0  0  0  0
  190.1710  176.4890  145.1200 C   0  0  0  0  0  3  0  0  0  0  0  0
  189.4290  174.2480  142.3540 N   0  0  0  0  0  0  0  0  0  0  0  0
  191.1390  174.4450  143.9500 N   0  0  0  0  0  0  0  0  0  0  0  0
  184.9810  179.3050  144.2620 C   0  0  0  0  0  3  0  0  0  0  0  0
  188.4140  173.2530  142.1110 C   0  0  1  0  0  3  0  0  0  0  0  0
  190.2000  175.5010  144.1150 C   0  0  0  0  0  0  0  0  0  0  0  0
  186.2350  177.1890  142.9770 C   0  0  0  0  0  0  0  0  0  0  0  0
  188.0510  177.2050  144.2160 C   0  0  0  0  0  0  0  0  0  0  0  0
  189.1970  175.3670  143.1970 C   0  0  0  0  0  0  0  0  0  0  0  0
  186.8500  177.8360  144.0330 C   0  0  0  0  0  0  0  0  0  0  0  0
  186.2550  178.9000  144.7000 C   0  0  0  0  0  3  0  0  0  0  0  0
  188.0920  176.2090  143.2560 C   0  0  0  0  0  0  0  0  0  0  0  0
  184.3470  178.6480  143.1860 C   0  0  0  0  0  2  0  0  0  0  0  0
  192.4880  174.4760  144.4170 C   0  0  0  0  0  0  0  0  0  0  0  0
  195.1380  174.5170  145.3130 C   0  0  0  0  0  0  0  0  0  0  0  0
  194.3270  173.4020  145.5740 C   0  0  0  0  0  3  0  0  0  0  0  0
  193.0050  173.3820  145.1260 C   0  0  0  0  0  3  0  0  0  0  0  0
  193.3020  175.5850  144.1500 C   0  0  0  0  0  3  0  0  0  0  0  0
  194.6240  175.6030  144.5960 C   0  0  0  0  0  3  0  0  0  0  0  0
  196.5570  174.5280  145.7660 C   0  0  0  0  0  2  0  0  0  0  0  0
  196.9810  173.1800  146.1230 N   0  0  0  0  0  1  0  0  0  0  0  0
  187.9640  173.3290  140.6630 C   0  0  0  0  0  2  0  0  0  0  0  0
  188.9790  174.0610  139.8000 C   0  0  0  0  0  2  0  0  0  0  0  0
  189.6630  173.7390  137.5270 O   0  0  0  0  0  1  0  0  0  0  0  0
  189.6080  173.1200  138.7790 C   0  0  1  0  0  3  0  0  0  0  0  0
  191.0130  172.7110  139.2030 C   0  0  0  0  0  2  0  0  0  0  0  0
  191.9630  173.7880  138.9660 N   0  0  0  0  0  2  0  0  0  0  0  0
  195.9840  176.9940  141.2630 O   0  0  0  0  0  1  0  0  0  0  0  0
  195.4850  173.4830  141.1880 C   0  0  1  0  0  3  0  0  0  0  0  0
  197.2560  174.9980  141.6450 C   0  0  0  0  0  2  0  0  0  0  0  0
  193.2960  172.5150  140.5830 C   0  0  0  0  0  2  0  0  0  0  0  0
  194.9530  174.8680  140.9790 C   0  0  2  0  0  3  0  0  0  0  0  0
  196.6450  173.6860  142.1240 C   0  0  0  0  0  2  0  0  0  0  0  0
  192.8200  173.9140  140.1360 C   0  0  1  0  0  3  0  0  0  0  0  0
  194.3610  172.5950  141.6920 C   0  0  0  0  0  2  0  0  0  0  0  0
  193.9990  174.8470  139.7970 C   0  0  0  0  0  2  0  0  0  0  0  0
  196.2010  175.6990  140.7880 C   0  0  1  0  0  3  0  0  0  0  0  0
  1 13  2  0  0  0  0
  1 19  1  0  0  0  0
  2  3  1  1  0  0  0
  2  9  1  0  0  0  0
  5 13  1  0  0  0  0
  5 18  2  0  0  0  0
  6  3  1  0  0  0  0
  7  4  2  0  0  0  0
  8  2  1  0  0  0  0
  8 15  1  0  0  0  0
  9 12  1  0  0  0  0
  9 20  1  0  0  0  0
 10 17  2  0  0  0  0
 11 28  1  6  0  0  0
 11  8  1  0  0  0  0
 11  6  1  0  0  0  0
 12  7  1  0  0  0  0
 13 16  1  0  0  0  0
 14  4  1  0  0  0  0
 15 18  1  0  0  0  0
 15 12  2  0  0  0  0
 16 14  2  0  0  0  0
 16 17  1  0  0  0  0
 18 14  1  0  0  0  0
 19 10  1  0  0  0  0
 20 23  1  0  0  0  0
 21 22  1  0  0  0  0
 21 26  1  0  0  0  0
 23 22  2  0  0  0  0
 24 20  2  0  0  0  0
 24 25  1  0  0  0  0
 25 21  2  0  0  0  0
 26 27  1  0  0  0  0
 29 28  1  0  0  0  0
 31 30  1  6  0  0  0
 31 32  1  0  0  0  0
 31 29  1  0  0  0  0
 33 32  1  0  0  0  0
 35 41  1  1  0  0  0
 35 39  1  0  0  0  0
 36 39  1  0  0  0  0
 37 41  1  0  0  0  0
 38 42  1  6  0  0  0
 38 35  1  0  0  0  0
 40 33  1  6  0  0  0
 40 37  1  0  0  0  0
 42 40  1  0  0  0  0
 43 38  1  0  0  0  0
 43 34  1  1  0  0  0
 43 36  1  0  0  0  0
M  END
>  <MODEL>
5

>  <REMARK>
 VINA RESULT:      -6.9      2.303      6.812
  Name = 
  8 active torsions:
  status: ('A' for Active; 'I' for Inactive)
    1  A    between atoms: C_3  and  C_12
    2  A    between atoms: C_5  and  N_26
    3  A    between atoms: C_9  and  C_10
    4  A    between atoms: C_9  and  C_39
    5  A    between atoms: C_10  and  C_24
    6  A    between atoms: N_18  and  C_19
    7  A    between atoms: N_18  and  C_39
    8  A    between atoms: C_24  and  C_28
                            x       y       z     vdW  Elec       q    Type
                         _______ _______ _______ _____ _____    ______ ____

>  <TORSDO>
F 8

$$$$
=
 OpenBabel11042416023D

 43 50  0  0  1  0  0  0  0  0999 V2000
  186.7350  178.2680  147.5050 C   0  0  0  0  0  3  0  0  0  0  0  0
  190.9680  174.9760  143.1020 C   0  0  1  0  0  3  0  0  0  0  0  0
  192.0170  175.9180  142.5500 C   0  0  0  0  0  2  0  0  0  0  0  0
  186.3890  176.0410  143.1830 C   0  0  0  0  0  3  0  0  0  0  0  0
  188.3060  177.0670  146.0590 N   0  0  0  0  0  0  0  0  0  0  0  0
  192.4350  176.7900  143.7300 C   0  0  0  0  0  2  0  0  0  0  0  0
  187.3630  175.4130  142.3710 C   0  0  0  0  0  3  0  0  0  0  0  0
  190.4450  175.6510  144.2880 N   0  0  0  0  0  0  0  0  0  0  0  0
  189.8350  174.8310  142.1740 N   0  0  0  0  0  0  0  0  0  0  0  0
  184.4480  178.3840  146.6460 C   0  0  0  0  0  3  0  0  0  0  0  0
  191.2770  176.7460  144.7200 C   0  0  1  0  0  3  0  0  0  0  0  0
  188.6830  175.3120  142.8570 C   0  0  0  0  0  0  0  0  0  0  0  0
  187.0760  177.5400  146.3670 C   0  0  0  0  0  0  0  0  0  0  0  0
  186.7990  176.5450  144.4270 C   0  0  0  0  0  0  0  0  0  0  0  0
  189.0490  175.8060  144.0770 C   0  0  0  0  0  0  0  0  0  0  0  0
  186.1350  177.2470  145.3980 C   0  0  0  0  0  0  0  0  0  0  0  0
  184.8090  177.6500  145.5020 C   0  0  0  0  0  3  0  0  0  0  0  0
  188.1070  176.4560  144.8680 C   0  0  0  0  0  0  0  0  0  0  0  0
  185.4030  178.6890  147.6390 C   0  0  0  0  0  2  0  0  0  0  0  0
  189.8090  173.8930  141.0980 C   0  0  0  0  0  0  0  0  0  0  0  0
  189.7460  172.0350  139.0070 C   0  0  0  0  0  0  0  0  0  0  0  0
  190.6420  171.8620  140.0730 C   0  0  0  0  0  3  0  0  0  0  0  0
  190.6720  172.7880  141.1160 C   0  0  0  0  0  3  0  0  0  0  0  0
  188.9090  174.0610  140.0370 C   0  0  0  0  0  3  0  0  0  0  0  0
  188.8780  173.1320  138.9960 C   0  0  0  0  0  3  0  0  0  0  0  0
  189.6930  171.0320  137.9070 C   0  0  0  0  0  2  0  0  0  0  0  0
  189.9760  169.7010  138.4270 N   0  0  0  0  0  1  0  0  0  0  0  0
  191.7740  176.4800  146.1300 C   0  0  0  0  0  2  0  0  0  0  0  0
  193.2850  176.6160  146.2250 C   0  0  0  0  0  2  0  0  0  0  0  0
  193.0230  174.2350  146.2610 O   0  0  0  0  0  1  0  0  0  0  0  0
  193.9380  175.2660  146.4970 C   0  0  1  0  0  3  0  0  0  0  0  0
  195.1650  175.0630  145.6180 C   0  0  0  0  0  2  0  0  0  0  0  0
  195.4230  173.6460  145.4020 N   0  0  0  0  0  2  0  0  0  0  0  0
  196.8150  176.1590  140.5570 O   0  0  0  0  0  1  0  0  0  0  0  0
  194.3180  173.7770  141.3780 C   0  0  1  0  0  3  0  0  0  0  0  0
  194.7920  175.2910  139.6100 C   0  0  0  0  0  2  0  0  0  0  0  0
  194.4150  172.4950  143.4860 C   0  0  0  0  0  2  0  0  0  0  0  0
  195.5700  174.5140  141.7450 C   0  0  2  0  0  3  0  0  0  0  0  0
  194.2680  173.8840  139.8780 C   0  0  0  0  0  2  0  0  0  0  0  0
  195.5570  173.4140  143.9710 C   0  0  1  0  0  3  0  0  0  0  0  0
  194.3880  172.3730  141.9510 C   0  0  0  0  0  2  0  0  0  0  0  0
  195.5600  174.7710  143.2410 C   0  0  0  0  0  2  0  0  0  0  0  0
  195.5190  175.7490  140.8750 C   0  0  1  0  0  3  0  0  0  0  0  0
  1 19  1  0  0  0  0
  2  3  1  6  0  0  0
  2  8  1  0  0  0  0
  3  6  1  0  0  0  0
  4 14  1  0  0  0  0
  5 13  1  0  0  0  0
  6 11  1  0  0  0  0
  7 12  1  0  0  0  0
  7  4  2  0  0  0  0
  8 11  1  0  0  0  0
  9 12  1  0  0  0  0
  9  2  1  0  0  0  0
 10 19  1  0  0  0  0
 11 28  1  1  0  0  0
 12 15  2  0  0  0  0
 13  1  2  0  0  0  0
 14 18  1  0  0  0  0
 14 16  2  0  0  0  0
 15  8  1  0  0  0  0
 15 18  1  0  0  0  0
 16 17  1  0  0  0  0
 16 13  1  0  0  0  0
 17 10  2  0  0  0  0
 18  5  2  0  0  0  0
 20 23  1  0  0  0  0
 20  9  1  0  0  0  0
 21 22  1  0  0  0  0
 22 23  2  0  0  0  0
 24 20  2  0  0  0  0
 25 21  2  0  0  0  0
 25 24  1  0  0  0  0
 26 27  1  0  0  0  0
 26 21  1  0  0  0  0
 28 29  1  0  0  0  0
 29 31  1  0  0  0  0
 31 30  1  6  0  0  0
 32 31  1  0  0  0  0
 33 32  1  0  0  0  0
 35 39  1  6  0  0  0
 35 38  1  0  0  0  0
 35 41  1  0  0  0  0
 36 39  1  0  0  0  0
 36 43  1  0  0  0  0
 37 40  1  0  0  0  0
 38 42  1  1  0  0  0
 40 33  1  1  0  0  0
 41 37  1  0  0  0  0
 42 40  1  0  0  0  0
 43 34  1  6  0  0  0
 43 38  1  0  0  0  0
M  END
>  <MODEL>
6

>  <REMARK>
 VINA RESULT:      -6.9      2.072      7.245
  Name = 
  8 active torsions:
  status: ('A' for Active; 'I' for Inactive)
    1  A    between atoms: C_3  and  C_12
    2  A    between atoms: C_5  and  N_26
    3  A    between atoms: C_9  and  C_10
    4  A    between atoms: C_9  and  C_39
    5  A    between atoms: C_10  and  C_24
    6  A    between atoms: N_18  and  C_19
    7  A    between atoms: N_18  and  C_39
    8  A    between atoms: C_24  and  C_28
                            x       y       z     vdW  Elec       q    Type
                         _______ _______ _______ _____ _____    ______ ____

>  <TORSDO>
F 8

$$$$
=
 OpenBabel11042416023D

 43 50  0  0  1  0  0  0  0  0999 V2000
  193.5060  170.8890  144.5290 C   0  0  0  0  0  3  0  0  0  0  0  0
  189.3820  176.4630  144.7660 C   0  0  1  0  0  3  0  0  0  0  0  0
  188.6760  176.5600  146.1020 C   0  0  0  0  0  2  0  0  0  0  0  0
  189.5130  172.4980  142.2440 C   0  0  0  0  0  3  0  0  0  0  0  0
  192.1600  172.9320  144.6530 N   0  0  0  0  0  0  0  0  0  0  0  0
  189.7200  176.1590  147.1390 C   0  0  0  0  0  2  0  0  0  0  0  0
  188.7480  173.6760  142.4110 C   0  0  0  0  0  3  0  0  0  0  0  0
  190.4950  175.5450  144.9960 N   0  0  0  0  0  0  0  0  0  0  0  0
  188.5260  175.8310  143.7500 N   0  0  0  0  0  0  0  0  0  0  0  0
  192.7320  169.2600  142.8770 C   0  0  0  0  0  3  0  0  0  0  0  0
  190.7530  175.3200  146.3960 C   0  0  1  0  0  3  0  0  0  0  0  0
  189.1890  174.6410  143.3390 C   0  0  0  0  0  0  0  0  0  0  0  0
  192.4560  171.7160  144.1380 C   0  0  2  0  0  3  0  0  0  0  0  0
  190.6670  172.3490  143.0280 C   0  0  0  0  0  0  0  0  0  0  0  0
  190.3230  174.4700  144.0830 C   0  0  0  0  0  0  0  0  0  0  0  0
  191.5690  171.3260  143.1520 C   0  0  0  0  0  0  0  0  0  0  0  0
  191.6750  170.1050  142.4960 C   0  0  0  0  0  3  0  0  0  0  0  0
  191.0630  173.3000  143.9520 C   0  0  0  0  0  0  0  0  0  0  0  0
  193.6400  169.6490  143.8850 C   0  0  0  0  0  3  0  0  0  0  0  0
  187.5770  176.5470  142.9590 C   0  0  0  0  0  0  0  0  0  0  0  0
  185.7180  177.9270  141.3890 C   0  0  0  0  0  0  0  0  0  0  0  0
  187.0580  177.8460  140.9810 C   0  0  0  0  0  3  0  0  0  0  0  0
  187.9840  177.1560  141.7640 C   0  0  0  0  0  3  0  0  0  0  0  0
  186.2370  176.6220  143.3610 C   0  0  0  0  0  3  0  0  0  0  0  0
  185.3110  177.3090  142.5760 C   0  0  0  0  0  3  0  0  0  0  0  0
  184.7220  178.6390  140.5400 C   0  0  0  0  0  2  0  0  0  0  0  0
  183.3690  178.2840  140.9490 N   0  0  0  0  0  1  0  0  0  0  0  0
  192.1650  175.7700  146.7310 C   0  0  0  0  0  2  0  0  0  0  0  0
  192.8270  176.4560  145.5470 C   0  0  0  0  0  2  0  0  0  0  0  0
  194.7040  175.1870  146.3270 O   0  0  0  0  0  1  0  0  0  0  0  0
  194.3450  176.3470  145.6330 C   0  0  1  0  0  3  0  0  0  0  0  0
  194.9730  176.3200  144.2450 C   0  0  0  0  0  2  0  0  0  0  0  0
  193.9500  176.3710  143.2100 N   0  0  0  0  0  2  0  0  0  0  0  0
  191.9870  173.8280  138.5830 O   0  0  0  0  0  1  0  0  0  0  0  0
  194.1040  172.7140  141.2020 C   0  0  1  0  0  3  0  0  0  0  0  0
  192.7930  171.7530  139.4710 C   0  0  0  0  0  2  0  0  0  0  0  0
  195.1950  174.3130  142.7340 C   0  0  0  0  0  2  0  0  0  0  0  0
  193.4270  173.8380  140.4780 C   0  0  2  0  0  3  0  0  0  0  0  0
  194.1300  171.6020  140.1880 C   0  0  0  0  0  2  0  0  0  0  0  0
  194.3180  175.4420  142.1510 C   0  0  1  0  0  3  0  0  0  0  0  0
  195.4530  173.1950  141.7070 C   0  0  0  0  0  2  0  0  0  0  0  0
  193.0360  174.8990  141.4910 C   0  0  0  0  0  2  0  0  0  0  0  0
  192.2740  173.1590  139.7740 C   0  0  1  0  0  3  0  0  0  0  0  0
  2  8  1  0  0  0  0
  2  3  1  1  0  0  0
  3  6  1  0  0  0  0
  4  7  2  0  0  0  0
  4 14  1  0  0  0  0
  7 12  1  0  0  0  0
  8 11  1  0  0  0  0
  9  2  1  0  0  0  0
 10 19  1  0  0  0  0
 11 28  1  1  0  0  0
 11  6  1  0  0  0  0
 12  9  1  0  0  0  0
 12 15  2  0  0  0  0
 13  1  1  1  0  0  0
 13  5  1  0  0  0  0
 14 16  2  0  0  0  0
 14 18  1  0  0  0  0
 15  8  1  0  0  0  0
 16 13  1  0  0  0  0
 17 10  2  0  0  0  0
 17 16  1  0  0  0  0
 18 15  1  0  0  0  0
 18  5  2  0  0  0  0
 19  1  2  0  0  0  0
 20 24  1  0  0  0  0
 20  9  1  0  0  0  0
 21 25  1  0  0  0  0
 22 21  2  0  0  0  0
 22 23  1  0  0  0  0
 23 20  2  0  0  0  0
 25 24  2  0  0  0  0
 26 27  1  0  0  0  0
 26 21  1  0  0  0  0
 29 31  1  0  0  0  0
 29 28  1  0  0  0  0
 31 30  1  6  0  0  0
 32 31  1  0  0  0  0
 33 32  1  0  0  0  0
 35 39  1  6  0  0  0
 35 41  1  0  0  0  0
 36 43  1  0  0  0  0
 36 39  1  0  0  0  0
 38 35  1  0  0  0  0
 38 42  1  1  0  0  0
 40 37  1  0  0  0  0
 40 33  1  1  0  0  0
 41 37  1  0  0  0  0
 42 40  1  0  0  0  0
 43 34  1  6  0  0  0
 43 38  1  0  0  0  0
M  END
>  <MODEL>
7

>  <REMARK>
 VINA RESULT:      -6.8      2.148      5.376
  Name = 
  8 active torsions:
  status: ('A' for Active; 'I' for Inactive)
    1  A    between atoms: C_3  and  C_12
    2  A    between atoms: C_5  and  N_26
    3  A    between atoms: C_9  and  C_10
    4  A    between atoms: C_9  and  C_39
    5  A    between atoms: C_10  and  C_24
    6  A    between atoms: N_18  and  C_19
    7  A    between atoms: N_18  and  C_39
    8  A    between atoms: C_24  and  C_28
                            x       y       z     vdW  Elec       q    Type
                         _______ _______ _______ _____ _____    ______ ____

>  <TORSDO>
F 8

$$$$
=
 OpenBabel11042416023D

 43 50  0  0  1  0  0  0  0  0999 V2000
  195.4500  174.1050  141.6020 C   0  0  0  0  0  3  0  0  0  0  0  0
  188.6790  174.8930  142.8920 C   0  0  1  0  0  3  0  0  0  0  0  0
  187.9180  175.2180  141.6240 C   0  0  0  0  0  2  0  0  0  0  0  0
  192.6110  177.1460  144.1430 C   0  0  0  0  0  3  0  0  0  0  0  0
  193.0450  174.2470  142.0450 N   0  0  0  0  0  0  0  0  0  0  0  0
  188.5400  174.3360  140.5460 C   0  0  0  0  0  2  0  0  0  0  0  0
  191.2070  177.2010  144.3070 C   0  0  0  0  0  2  0  0  0  0  0  0
  189.9540  174.3450  142.4350 N   0  0  0  0  0  0  0  0  0  0  0  0
  189.0000  176.1110  143.6530 N   0  0  0  0  0  0  0  0  0  0  0  0
  196.7860  175.8480  142.6800 C   0  0  0  0  0  3  0  0  0  0  0  0
  189.9390  173.9880  141.0390 C   0  0  1  0  0  3  0  0  0  0  0  0
  190.4190  176.1920  143.7160 C   0  0  0  0  0  0  0  0  0  0  0  0
  194.3210  174.6720  142.1880 C   0  0  0  0  0  0  0  0  0  0  0  0
  193.1420  176.0920  143.3830 C   0  0  0  0  0  0  0  0  0  0  0  0
  190.9670  175.1740  142.9870 C   0  0  0  0  0  0  0  0  0  0  0  0
  194.4190  175.7940  142.9910 C   0  0  0  0  0  0  0  0  0  0  0  0
  195.6360  176.4100  143.2620 C   0  0  0  0  0  3  0  0  0  0  0  0
  192.3430  175.1300  142.7910 C   0  0  0  0  0  0  0  0  0  0  0  0
  196.6930  174.7050  141.8590 C   0  0  0  0  0  3  0  0  0  0  0  0
  188.1090  176.7150  144.5910 C   0  0  0  0  0  0  0  0  0  0  0  0
  186.3400  177.8890  146.4130 C   0  0  0  0  0  0  0  0  0  0  0  0
  186.4910  178.4360  145.1300 C   0  0  0  0  0  3  0  0  0  0  0  0
  187.3720  177.8500  144.2210 C   0  0  0  0  0  3  0  0  0  0  0  0
  187.9520  176.1660  145.8700 C   0  0  0  0  0  3  0  0  0  0  0  0
  187.0680  176.7510  146.7770 C   0  0  0  0  0  3  0  0  0  0  0  0
  185.3780  178.4980  147.3750 C   0  0  0  0  0  2  0  0  0  0  0  0
  185.9190  179.7430  147.9050 N   0  0  0  0  0  1  0  0  0  0  0  0
  190.2160  172.5020  140.8920 C   0  0  0  0  0  2  0  0  0  0  0  0
  190.3530  171.8230  142.2450 C   0  0  0  0  0  2  0  0  0  0  0  0
  190.8700  170.0070  140.7710 O   0  0  0  0  0  1  0  0  0  0  0  0
  190.9610  170.4330  142.1000 C   0  0  1  0  0  3  0  0  0  0  0  0
  192.4210  170.4240  142.5340 C   0  0  0  0  0  2  0  0  0  0  0  0
  192.6680  169.3700  143.5080 N   0  0  0  0  0  2  0  0  0  0  0  0
  193.9960  174.1520  146.1700 O   0  0  0  0  0  1  0  0  0  0  0  0
  195.9350  171.3450  145.1980 C   0  0  1  0  0  3  0  0  0  0  0  0
  196.3070  173.5930  145.8660 C   0  0  0  0  0  2  0  0  0  0  0  0
  194.8690  169.2070  144.5760 C   0  0  0  0  0  2  0  0  0  0  0  0
  194.5930  171.9720  145.4260 C   0  0  2  0  0  3  0  0  0  0  0  0
  196.8650  172.1840  146.0320 C   0  0  0  0  0  2  0  0  0  0  0  0
  193.4950  169.9120  144.5760 C   0  0  1  0  0  3  0  0  0  0  0  0
  195.8570  169.8710  145.5530 C   0  0  0  0  0  2  0  0  0  0  0  0
  193.6260  171.4360  144.3850 C   0  0  0  0  0  2  0  0  0  0  0  0
  194.8780  173.4540  145.3430 C   0  0  1  0  0  3  0  0  0  0  0  0
  1 19  2  0  0  0  0
  1 13  1  0  0  0  0
  2  3  1  6  0  0  0
  2  9  1  0  0  0  0
  4  7  1  0  0  0  0
  5 13  1  0  0  0  0
  5 18  2  0  0  0  0
  6 11  1  0  0  0  0
  6  3  1  0  0  0  0
  8  2  1  0  0  0  0
  8 15  1  0  0  0  0
  9 12  1  0  0  0  0
  9 20  1  0  0  0  0
 10 17  2  0  0  0  0
 11 28  1  1  0  0  0
 11  8  1  0  0  0  0
 12  7  1  0  0  0  0
 13 16  2  0  0  0  0
 14  4  2  0  0  0  0
 15 12  2  0  0  0  0
 16 17  1  0  0  0  0
 16 14  1  0  0  0  0
 18 15  1  0  0  0  0
 18 14  1  0  0  0  0
 19 10  1  0  0  0  0
 20 24  1  0  0  0  0
 21 25  1  0  0  0  0
 21 26  1  0  0  0  0
 22 21  2  0  0  0  0
 23 20  2  0  0  0  0
 23 22  1  0  0  0  0
 24 25  2  0  0  0  0
 26 27  1  0  0  0  0
 28 29  1  0  0  0  0
 31 30  1  6  0  0  0
 31 29  1  0  0  0  0
 31 32  1  0  0  0  0
 32 33  1  0  0  0  0
 35 38  1  0  0  0  0
 35 41  1  1  0  0  0
 35 39  1  0  0  0  0
 36 39  1  0  0  0  0
 37 41  1  0  0  0  0
 38 42  1  6  0  0  0
 40 33  1  6  0  0  0
 40 37  1  0  0  0  0
 42 40  1  0  0  0  0
 43 38  1  0  0  0  0
 43 36  1  0  0  0  0
 43 34  1  1  0  0  0
M  END
>  <MODEL>
8

>  <REMARK>
 VINA RESULT:      -6.6      1.400      2.072
  Name = 
  8 active torsions:
  status: ('A' for Active; 'I' for Inactive)
    1  A    between atoms: C_3  and  C_12
    2  A    between atoms: C_5  and  N_26
    3  A    between atoms: C_9  and  C_10
    4  A    between atoms: C_9  and  C_39
    5  A    between atoms: C_10  and  C_24
    6  A    between atoms: N_18  and  C_19
    7  A    between atoms: N_18  and  C_39
    8  A    between atoms: C_24  and  C_28
                            x       y       z     vdW  Elec       q    Type
                         _______ _______ _______ _____ _____    ______ ____

>  <TORSDO>
F 8

$$$$
=
 OpenBabel11042416023D

 43 50  0  0  1  0  0  0  0  0999 V2000
  189.3250  174.6960  146.1490 C   0  0  0  0  0  3  0  0  0  0  0  0
  191.9030  173.5810  139.8050 C   0  0  1  0  0  3  0  0  0  0  0  0
  191.7700  172.1250  139.4120 C   0  0  0  0  0  2  0  0  0  0  0  0
  193.6650  174.9480  143.9430 C   0  0  0  0  0  3  0  0  0  0  0  0
  190.1130  174.3390  143.8570 N   0  0  0  0  0  0  0  0  0  0  0  0
  190.4000  171.6940  139.9240 C   0  0  0  0  0  2  0  0  0  0  0  0
  194.0580  174.6680  142.6140 C   0  0  0  0  0  3  0  0  0  0  0  0
  190.9730  173.7560  140.9180 N   0  0  0  0  0  0  0  0  0  0  0  0
  193.2430  173.8760  140.3350 N   0  0  0  0  0  0  0  0  0  0  0  0
  191.0690  175.3600  147.7310 C   0  0  0  0  0  3  0  0  0  0  0  0
  190.0420  172.6620  141.0450 C   0  0  1  0  0  3  0  0  0  0  0  0
  193.0670  174.3080  141.6780 C   0  0  0  0  0  0  0  0  0  0  0  0
  190.3010  174.6690  145.1560 C   0  0  0  0  0  0  0  0  0  0  0  0
  192.3030  174.8370  144.2610 C   0  0  0  0  0  0  0  0  0  0  0  0
  191.7460  174.2150  142.0170 C   0  0  0  0  0  0  0  0  0  0  0  0
  191.6200  174.9730  145.4400 C   0  0  0  0  0  0  0  0  0  0  0  0
  192.0430  175.3260  146.7160 C   0  0  0  0  0  3  0  0  0  0  0  0
  191.3530  174.4550  143.3300 C   0  0  0  0  0  0  0  0  0  0  0  0
  189.7220  175.0490  147.4480 C   0  0  0  0  0  2  0  0  0  0  0  0
  194.3620  174.2130  139.5130 C   0  0  0  0  0  0  0  0  0  0  0  0
  196.5500  174.9020  137.9120 C   0  0  0  0  0  0  0  0  0  0  0  0
  195.2540  175.2750  137.5260 C   0  0  0  0  0  3  0  0  0  0  0  0
  194.1630  174.9320  138.3260 C   0  0  0  0  0  3  0  0  0  0  0  0
  195.6580  173.8480  139.9010 C   0  0  0  0  0  3  0  0  0  0  0  0
  196.7480  174.1940  139.1020 C   0  0  0  0  0  3  0  0  0  0  0  0
  197.7190  175.2910  137.0740 C   0  0  0  0  0  2  0  0  0  0  0  0
  197.2830  176.1250  135.9620 N   0  0  0  0  0  1  0  0  0  0  0  0
  188.6240  173.1810  140.8870 C   0  0  0  0  0  2  0  0  0  0  0  0
  188.6070  174.6470  140.4850 C   0  0  0  0  0  2  0  0  0  0  0  0
  187.1630  174.8150  142.3890 O   0  0  0  0  0  1  0  0  0  0  0  0
  187.4420  175.3790  141.1420 C   0  0  1  0  0  3  0  0  0  0  0  0
  187.7530  176.8600  141.3140 C   0  0  0  0  0  2  0  0  0  0  0  0
  188.5000  177.0960  142.5420 N   0  0  0  0  0  2  0  0  0  0  0  0
  186.6180  177.7960  147.8050 O   0  0  0  0  0  1  0  0  0  0  0  0
  185.1550  178.4520  144.6400 C   0  0  1  0  0  3  0  0  0  0  0  0
  184.4410  178.2110  146.8920 C   0  0  0  0  0  2  0  0  0  0  0  0
  186.5280  178.5530  142.5920 C   0  0  0  0  0  2  0  0  0  0  0  0
  186.3670  178.1350  145.4620 C   0  0  2  0  0  3  0  0  0  0  0  0
  184.1940  179.0410  145.6370 C   0  0  0  0  0  2  0  0  0  0  0  0
  187.7270  177.9930  143.3880 C   0  0  1  0  0  3  0  0  0  0  0  0
  185.5630  179.3510  143.4870 C   0  0  0  0  0  2  0  0  0  0  0  0
  187.2790  177.2310  144.6510 C   0  0  0  0  0  2  0  0  0  0  0  0
  185.7910  177.5160  146.7150 C   0  0  1  0  0  3  0  0  0  0  0  0
  1 19  1  0  0  0  0
  2  3  1  1  0  0  0
  2  9  1  0  0  0  0
  2  8  1  0  0  0  0
  3  6  1  0  0  0  0
  4 14  1  0  0  0  0
  5 13  1  0  0  0  0
  6 11  1  0  0  0  0
  7  4  2  0  0  0  0
  8 11  1  0  0  0  0
  8 15  1  0  0  0  0
  9 12  1  0  0  0  0
 11 28  1  6  0  0  0
 12 15  2  0  0  0  0
 12  7  1  0  0  0  0
 13 16  1  0  0  0  0
 13  1  2  0  0  0  0
 14 16  2  0  0  0  0
 15 18  1  0  0  0  0
 16 17  1  0  0  0  0
 17 10  2  0  0  0  0
 18  5  2  0  0  0  0
 18 14  1  0  0  0  0
 19 10  1  0  0  0  0
 20 24  1  0  0  0  0
 20  9  1  0  0  0  0
 21 25  1  0  0  0  0
 22 21  2  0  0  0  0
 22 23  1  0  0  0  0
 23 20  2  0  0  0  0
 25 24  2  0  0  0  0
 26 21  1  0  0  0  0
 27 26  1  0  0  0  0
 29 28  1  0  0  0  0
 29 31  1  0  0  0  0
 31 32  1  0  0  0  0
 31 30  1  1  0  0  0
 32 33  1  0  0  0  0
 35 41  1  6  0  0  0
 35 38  1  0  0  0  0
 35 39  1  0  0  0  0
 37 40  1  0  0  0  0
 37 41  1  0  0  0  0
 38 42  1  6  0  0  0
 38 43  1  0  0  0  0
 39 36  1  0  0  0  0
 40 33  1  6  0  0  0
 40 42  1  0  0  0  0
 43 36  1  0  0  0  0
 43 34  1  1  0  0  0
M  END
>  <MODEL>
9

>  <REMARK>
 VINA RESULT:      -6.6      2.476      7.875
  Name = 
  8 active torsions:
  status: ('A' for Active; 'I' for Inactive)
    1  A    between atoms: C_3  and  C_12
    2  A    between atoms: C_5  and  N_26
    3  A    between atoms: C_9  and  C_10
    4  A    between atoms: C_9  and  C_39
    5  A    between atoms: C_10  and  C_24
    6  A    between atoms: N_18  and  C_19
    7  A    between atoms: N_18  and  C_39
    8  A    between atoms: C_24  and  C_28
                            x       y       z     vdW  Elec       q    Type
                         _______ _______ _______ _____ _____    ______ ____

>  <TORSDO>
F 8

$$$$
