=
 OpenBabel11042415013D

 39 44  0  0  1  0  0  0  0  0999 V2000
  192.8720  177.1370  144.2820 O   0  0  0  0  0  1  0  0  0  0  0  0
  190.5420  174.0800  141.4740 N   0  0  0  0  0  0  0  0  0  0  0  0
  190.0980  172.9840  138.1390 C   0  0  0  0  0  3  0  0  0  0  0  0
  190.2160  175.5940  146.3210 C   0  0  0  0  0  2  0  0  0  0  0  0
  189.9770  175.2610  143.5810 C   0  0  2  0  0  3  0  0  0  0  0  0
  190.2330  173.7300  140.2040 C   0  0  0  0  0  0  0  0  0  0  0  0
  187.5040  175.8330  142.2720 N   0  0  0  0  0  0  0  0  0  0  0  0
  188.8160  175.8940  144.3020 C   0  0  0  0  0  0  0  0  0  0  0  0
  188.3840  175.1570  141.6010 C   0  0  0  0  0  0  0  0  0  0  0  0
  188.1150  174.7850  140.3150 N   0  0  0  0  0  0  0  0  0  0  0  0
  192.0180  176.0560  144.5040 C   0  0  2  0  0  0  0  0  0  0  0  0
  191.0120  176.2060  143.5010 O   0  0  0  0  0  0  0  0  0  0  0  0
  192.3500  176.5740  146.9830 C   0  0  0  0  0  0  0  0  0  0  0  0
  189.0510  174.0750  139.6390 C   0  0  0  0  0  0  0  0  0  0  0  0
  191.4860  176.1830  145.8930 N   0  0  0  0  0  0  0  0  0  0  0  0
  191.8970  176.5440  148.2610 F   0  0  0  0  0  0  0  0  0  0  0  0
  187.6960  176.2130  143.6410 C   0  0  0  0  0  3  0  0  0  0  0  0
  188.9640  173.5980  138.3130 N   0  0  0  0  0  0  0  0  0  0  0  0
  189.6260  174.7920  142.1980 C   0  0  0  0  0  0  0  0  0  0  0  0
  193.5400  176.9260  146.7790 O   0  0  0  0  0  0  0  0  0  0  0  0
  189.0210  176.3280  145.7260 C   0  0  1  0  0  3  0  0  0  0  0  0
  190.9600  173.0440  139.3460 C   0  0  0  0  0  3  0  0  0  0  0  0
  194.2250  173.0730  143.2160 C   0  0  0  0  0  0  0  0  0  0  0  0
  192.7980  173.8580  145.4710 C   0  0  0  0  0  3  0  0  0  0  0  0
  194.1680  172.2410  144.3320 C   0  0  0  0  0  3  0  0  0  0  0  0
  195.0810  173.4840  140.9900 C   0  0  0  0  0  3  0  0  0  0  0  0
  193.6870  175.1370  142.0770 C   0  0  0  0  0  3  0  0  0  0  0  0
  193.5540  174.3270  143.2160 C   0  0  0  0  0  0  0  0  0  0  0  0
  194.4430  174.7240  140.9760 C   0  0  0  0  0  3  0  0  0  0  0  0
  193.4640  172.6380  145.4600 C   0  0  0  0  0  3  0  0  0  0  0  0
  194.9700  172.6600  142.1070 C   0  0  0  0  0  3  0  0  0  0  0  0
  192.7940  174.7210  144.3610 C   0  0  0  0  0  0  0  0  0  0  0  0
  187.7900  176.0440  146.5840 C   0  0  0  0  0  2  0  0  0  0  0  0
  187.1980  177.3390  147.1150 C   0  0  0  0  0  2  0  0  0  0  0  0
  185.8020  177.4540  146.7180 N   0  0  0  0  0  2  0  0  0  0  0  0
  185.5310  178.8250  146.2940 C   0  0  0  0  0  0  0  0  0  0  0  0
  185.8910  179.6890  147.3090 F   0  0  0  0  0  0  0  0  0  0  0  0
  186.2710  179.1310  145.1640 F   0  0  0  0  0  0  0  0  0  0  0  0
  184.1810  178.9900  146.0270 F   0  0  0  0  0  0  0  0  0  0  0  0
  2 19  2  0  0  0  0
  3 18  2  0  0  0  0
  3 22  1  0  0  0  0
  5 19  1  6  0  0  0
  5  8  1  0  0  0  0
  6  2  1  0  0  0  0
  7 17  1  0  0  0  0
  8 21  1  0  0  0  0
  9 19  1  0  0  0  0
  9  7  2  0  0  0  0
 10  9  1  0  0  0  0
 11  1  1  6  0  0  0
 11 15  1  0  0  0  0
 12  5  1  0  0  0  0
 12 11  1  0  0  0  0
 13 16  1  0  0  0  0
 14  6  1  0  0  0  0
 14 10  2  0  0  0  0
 15  4  1  0  0  0  0
 15 13  1  0  0  0  0
 17  8  2  0  0  0  0
 18 14  1  0  0  0  0
 20 13  2  0  0  0  0
 21  4  1  0  0  0  0
 21 33  1  1  0  0  0
 22  6  2  0  0  0  0
 23 28  1  0  0  0  0
 23 25  1  0  0  0  0
 25 30  2  0  0  0  0
 26 31  1  0  0  0  0
 27 28  2  0  0  0  0
 28 32  1  0  0  0  0
 29 26  2  0  0  0  0
 29 27  1  0  0  0  0
 30 24  1  0  0  0  0
 31 23  2  0  0  0  0
 32 11  1  0  0  0  0
 32 24  2  0  0  0  0
 33 34  1  0  0  0  0
 35 34  1  0  0  0  0
 36 35  1  0  0  0  0
 36 37  1  0  0  0  0
 38 36  1  0  0  0  0
 39 36  1  0  0  0  0
M  END
>  <MODEL>
1

>  <REMARK>
 VINA RESULT:      -8.2      0.000      0.000
  Name = 
  5 active torsions:
  status: ('A' for Active; 'I' for Inactive)
    1  A    between atoms: C_1  and  C_12
    2  A    between atoms: C_1  and  N_34
    3  A    between atoms: C_5  and  N_34
    4  A    between atoms: C_12  and  C_38
    5  A    between atoms: C_20  and  C_37
                            x       y       z     vdW  Elec       q    Type
                         _______ _______ _______ _____ _____    ______ ____

>  <TORSDO>
F 5

$$$$
=
 OpenBabel11042415013D

 39 44  0  0  1  0  0  0  0  0999 V2000
  191.8910  176.0530  144.0570 O   0  0  0  0  0  1  0  0  0  0  0  0
  188.2540  175.3870  141.0590 N   0  0  0  0  0  0  0  0  0  0  0  0
  187.2980  175.2900  137.6540 C   0  0  0  0  0  3  0  0  0  0  0  0
  188.8070  176.0250  146.0770 C   0  0  0  0  0  2  0  0  0  0  0  0
  188.4540  176.3270  143.3460 C   0  0  2  0  0  3  0  0  0  0  0  0
  187.8150  175.4850  139.7830 C   0  0  0  0  0  0  0  0  0  0  0  0
  186.7930  178.4180  142.3320 N   0  0  0  0  0  0  0  0  0  0  0  0
  187.8690  177.3910  144.2380 C   0  0  0  0  0  0  0  0  0  0  0  0
  187.1240  177.4740  141.5070 C   0  0  0  0  0  0  0  0  0  0  0  0
  186.7050  177.5340  140.2080 N   0  0  0  0  0  0  0  0  0  0  0  0
  190.5650  175.6440  144.1990 C   0  0  2  0  0  0  0  0  0  0  0  0
  189.8470  176.5010  143.3110 O   0  0  0  0  0  0  0  0  0  0  0  0
  191.1040  175.4770  146.6910 C   0  0  0  0  0  0  0  0  0  0  0  0
  187.0620  176.5310  139.3690 C   0  0  0  0  0  0  0  0  0  0  0  0
  190.1870  175.8330  145.6310 N   0  0  0  0  0  0  0  0  0  0  0  0
  190.7010  175.5120  147.9850 F   0  0  0  0  0  0  0  0  0  0  0  0
  187.1530  178.3960  143.7200 C   0  0  0  0  0  3  0  0  0  0  0  0
  186.7310  176.4080  138.0020 N   0  0  0  0  0  0  0  0  0  0  0  0
  187.9130  176.3720  141.9450 C   0  0  0  0  0  0  0  0  0  0  0  0
  192.2780  175.1060  146.4390 O   0  0  0  0  0  0  0  0  0  0  0  0
  188.2700  177.3960  145.6870 C   0  0  1  0  0  3  0  0  0  0  0  0
  188.0180  174.6510  138.7840 C   0  0  0  0  0  3  0  0  0  0  0  0
  190.6720  172.1750  142.3580 C   0  0  0  0  0  0  0  0  0  0  0  0
  189.8660  173.2870  144.7770 C   0  0  0  0  0  3  0  0  0  0  0  0
  190.0860  171.3740  143.3350 C   0  0  0  0  0  3  0  0  0  0  0  0
  191.7140  172.3470  140.1800 C   0  0  0  0  0  3  0  0  0  0  0  0
  191.4970  174.3100  141.5780 C   0  0  0  0  0  3  0  0  0  0  0  0
  190.8610  173.5670  142.5850 C   0  0  0  0  0  0  0  0  0  0  0  0
  191.9210  173.7100  140.3890 C   0  0  0  0  0  3  0  0  0  0  0  0
  189.6940  171.9270  144.5460 C   0  0  0  0  0  3  0  0  0  0  0  0
  191.0890  171.5820  141.1620 C   0  0  0  0  0  3  0  0  0  0  0  0
  190.4200  174.1490  143.8140 C   0  0  0  0  0  0  0  0  0  0  0  0
  187.0920  177.7430  146.5960 C   0  0  0  0  0  2  0  0  0  0  0  0
  185.8480  176.9790  146.1720 C   0  0  0  0  0  2  0  0  0  0  0  0
  184.6540  177.6530  146.6600 N   0  0  0  0  0  2  0  0  0  0  0  0
  184.1850  178.5990  145.6500 C   0  0  0  0  0  0  0  0  0  0  0  0
  185.0340  179.6880  145.6250 F   0  0  0  0  0  0  0  0  0  0  0  0
  184.1870  178.0030  144.3990 F   0  0  0  0  0  0  0  0  0  0  0  0
  182.9070  179.0380  145.9550 F   0  0  0  0  0  0  0  0  0  0  0  0
  2 19  2  0  0  0  0
  3 18  2  0  0  0  0
  3 22  1  0  0  0  0
  5 19  1  6  0  0  0
  5  8  1  0  0  0  0
  6  2  1  0  0  0  0
  7 17  1  0  0  0  0
  8 21  1  0  0  0  0
  9 19  1  0  0  0  0
  9  7  2  0  0  0  0
 10  9  1  0  0  0  0
 11  1  1  6  0  0  0
 11 15  1  0  0  0  0
 12  5  1  0  0  0  0
 12 11  1  0  0  0  0
 13 16  1  0  0  0  0
 14  6  1  0  0  0  0
 14 10  2  0  0  0  0
 15  4  1  0  0  0  0
 15 13  1  0  0  0  0
 17  8  2  0  0  0  0
 18 14  1  0  0  0  0
 20 13  2  0  0  0  0
 21  4  1  0  0  0  0
 21 33  1  1  0  0  0
 22  6  2  0  0  0  0
 23 28  1  0  0  0  0
 23 25  1  0  0  0  0
 25 30  2  0  0  0  0
 26 29  2  0  0  0  0
 26 31  1  0  0  0  0
 27 28  2  0  0  0  0
 28 32  1  0  0  0  0
 29 27  1  0  0  0  0
 30 24  1  0  0  0  0
 31 23  2  0  0  0  0
 32 11  1  0  0  0  0
 32 24  2  0  0  0  0
 34 33  1  0  0  0  0
 34 35  1  0  0  0  0
 36 39  1  0  0  0  0
 36 35  1  0  0  0  0
 37 36  1  0  0  0  0
 38 36  1  0  0  0  0
M  END
>  <MODEL>
2

>  <REMARK>
 VINA RESULT:      -8.1      2.106      2.605
  Name = 
  5 active torsions:
  status: ('A' for Active; 'I' for Inactive)
    1  A    between atoms: C_1  and  C_12
    2  A    between atoms: C_1  and  N_34
    3  A    between atoms: C_5  and  N_34
    4  A    between atoms: C_12  and  C_38
    5  A    between atoms: C_20  and  C_37
                            x       y       z     vdW  Elec       q    Type
                         _______ _______ _______ _____ _____    ______ ____

>  <TORSDO>
F 5

$$$$
=
 OpenBabel11042415013D

 39 44  0  0  1  0  0  0  0  0999 V2000
  187.8900  175.5050  146.1350 O   0  0  0  0  0  1  0  0  0  0  0  0
  189.7360  174.0360  142.0010 N   0  0  0  0  0  0  0  0  0  0  0  0
  189.2120  171.9740  139.1740 C   0  0  0  0  0  3  0  0  0  0  0  0
  191.3920  176.6520  146.0390 C   0  0  0  0  0  2  0  0  0  0  0  0
  190.7080  174.7150  144.1800 C   0  0  2  0  0  3  0  0  0  0  0  0
  189.6460  173.1540  140.9790 C   0  0  0  0  0  0  0  0  0  0  0  0
  192.3260  172.3810  143.8710 N   0  0  0  0  0  0  0  0  0  0  0  0
  191.8560  174.4070  145.1050 C   0  0  0  0  0  0  0  0  0  0  0  0
  191.4600  172.6270  142.9380 C   0  0  0  0  0  0  0  0  0  0  0  0
  191.3330  171.7620  141.8880 N   0  0  0  0  0  0  0  0  0  0  0  0
  189.0040  175.8620  145.3770 C   0  0  2  0  0  0  0  0  0  0  0  0
  189.5150  174.6120  144.9120 O   0  0  0  0  0  0  0  0  0  0  0  0
  189.4660  177.5510  147.2370 C   0  0  0  0  0  0  0  0  0  0  0  0
  190.4230  172.0460  140.9250 C   0  0  0  0  0  0  0  0  0  0  0  0
  189.9500  176.5820  146.2810 N   0  0  0  0  0  0  0  0  0  0  0  0
  190.3390  178.3060  147.9490 F   0  0  0  0  0  0  0  0  0  0  0  0
  192.5490  173.2690  144.9750 C   0  0  0  0  0  3  0  0  0  0  0  0
  190.1440  171.2870  139.7680 N   0  0  0  0  0  0  0  0  0  0  0  0
  190.6450  173.7950  142.9940 C   0  0  0  0  0  0  0  0  0  0  0  0
  188.2350  177.7340  147.4140 O   0  0  0  0  0  0  0  0  0  0  0  0
  192.0740  175.3120  146.2850 C   0  0  1  0  0  3  0  0  0  0  0  0
  188.8530  173.2020  139.9280 C   0  0  0  0  0  3  0  0  0  0  0  0
  187.0210  178.1780  142.9020 C   0  0  0  0  0  0  0  0  0  0  0  0
  189.5890  177.1940  143.3130 C   0  0  0  0  0  3  0  0  0  0  0  0
  188.0470  178.5160  142.0230 C   0  0  0  0  0  3  0  0  0  0  0  0
  184.7050  178.4230  143.5620 C   0  0  0  0  0  3  0  0  0  0  0  0
  186.2040  177.0610  144.8850 C   0  0  0  0  0  3  0  0  0  0  0  0
  187.2720  177.3270  144.0130 C   0  0  0  0  0  0  0  0  0  0  0  0
  184.9350  177.6030  144.6650 C   0  0  0  0  0  3  0  0  0  0  0  0
  189.3310  178.0330  142.2350 C   0  0  0  0  0  3  0  0  0  0  0  0
  185.7450  178.7080  142.6810 C   0  0  0  0  0  3  0  0  0  0  0  0
  188.5840  176.7940  144.2110 C   0  0  0  0  0  0  0  0  0  0  0  0
  193.5610  175.5540  146.5410 C   0  0  0  0  0  2  0  0  0  0  0  0
  194.0830  176.6630  145.6430 C   0  0  0  0  0  2  0  0  0  0  0  0
  195.2230  176.1900  144.8710 N   0  0  0  0  0  2  0  0  0  0  0  0
  194.8350  176.0500  143.4700 C   0  0  0  0  0  0  0  0  0  0  0  0
  195.7390  176.7350  142.6820 F   0  0  0  0  0  0  0  0  0  0  0  0
  194.8440  174.7150  143.1020 F   0  0  0  0  0  0  0  0  0  0  0  0
  193.5720  176.5830  143.2630 F   0  0  0  0  0  0  0  0  0  0  0  0
  2 19  2  0  0  0  0
  3 18  2  0  0  0  0
  3 22  1  0  0  0  0
  4 15  1  0  0  0  0
  4 21  1  0  0  0  0
  5 19  1  6  0  0  0
  5 12  1  0  0  0  0
  5  8  1  0  0  0  0
  6  2  1  0  0  0  0
  7 17  1  0  0  0  0
  8 21  1  0  0  0  0
  9 19  1  0  0  0  0
  9  7  2  0  0  0  0
 10  9  1  0  0  0  0
 11  1  1  1  0  0  0
 11 15  1  0  0  0  0
 12 11  1  0  0  0  0
 13 20  2  0  0  0  0
 13 16  1  0  0  0  0
 14  6  1  0  0  0  0
 14 10  2  0  0  0  0
 15 13  1  0  0  0  0
 17  8  2  0  0  0  0
 18 14  1  0  0  0  0
 21 33  1  6  0  0  0
 22  6  2  0  0  0  0
 23 28  1  0  0  0  0
 24 32  1  0  0  0  0
 25 30  1  0  0  0  0
 25 23  2  0  0  0  0
 26 29  1  0  0  0  0
 28 32  2  0  0  0  0
 28 27  1  0  0  0  0
 29 27  2  0  0  0  0
 30 24  2  0  0  0  0
 31 23  1  0  0  0  0
 31 26  2  0  0  0  0
 32 11  1  0  0  0  0
 34 33  1  0  0  0  0
 35 34  1  0  0  0  0
 36 35  1  0  0  0  0
 37 36  1  0  0  0  0
 38 36  1  0  0  0  0
 39 36  1  0  0  0  0
M  END
>  <MODEL>
3

>  <REMARK>
 VINA RESULT:      -8.1      2.815      6.448
  Name = 
  5 active torsions:
  status: ('A' for Active; 'I' for Inactive)
    1  A    between atoms: C_1  and  C_12
    2  A    between atoms: C_1  and  N_34
    3  A    between atoms: C_5  and  N_34
    4  A    between atoms: C_12  and  C_38
    5  A    between atoms: C_20  and  C_37
                            x       y       z     vdW  Elec       q    Type
                         _______ _______ _______ _____ _____    ______ ____

>  <TORSDO>
F 5

$$$$
=
 OpenBabel11042415013D

 39 44  0  0  1  0  0  0  0  0999 V2000
  191.0920  177.0200  143.5040 O   0  0  0  0  0  1  0  0  0  0  0  0
  189.0090  174.2040  140.2810 N   0  0  0  0  0  0  0  0  0  0  0  0
  189.4160  172.6010  137.1530 C   0  0  0  0  0  3  0  0  0  0  0  0
  187.5400  176.7270  144.4490 C   0  0  0  0  0  2  0  0  0  0  0  0
  188.1740  175.9080  141.8790 C   0  0  2  0  0  3  0  0  0  0  0  0
  189.0640  173.6950  139.0280 C   0  0  0  0  0  0  0  0  0  0  0  0
  186.6540  176.8500  139.6520 N   0  0  0  0  0  0  0  0  0  0  0  0
  187.1170  176.9710  142.0220 C   0  0  0  0  0  0  0  0  0  0  0  0
  187.4340  175.8340  139.4470 C   0  0  0  0  0  0  0  0  0  0  0  0
  187.5220  175.2900  138.1970 N   0  0  0  0  0  0  0  0  0  0  0  0
  189.9060  176.2870  143.4620 C   0  0  2  0  0  0  0  0  0  0  0  0
  189.4240  176.4940  142.1340 O   0  0  0  0  0  0  0  0  0  0  0  0
  189.5060  177.2000  145.8150 C   0  0  0  0  0  0  0  0  0  0  0  0
  188.3400  174.2250  138.0140 C   0  0  0  0  0  0  0  0  0  0  0  0
  188.9980  176.8420  144.5100 N   0  0  0  0  0  0  0  0  0  0  0  0
  188.6540  177.5630  146.8050 F   0  0  0  0  0  0  0  0  0  0  0  0
  186.4730  177.4400  140.9460 C   0  0  0  0  0  3  0  0  0  0  0  0
  188.5670  173.5250  136.8090 N   0  0  0  0  0  0  0  0  0  0  0  0
  188.1920  175.2750  140.5170 C   0  0  0  0  0  0  0  0  0  0  0  0
  190.7370  177.1610  146.0680 O   0  0  0  0  0  0  0  0  0  0  0  0
  186.9460  177.6200  143.3670 C   0  0  1  0  0  3  0  0  0  0  0  0
  189.7700  172.6730  138.5930 C   0  0  0  0  0  3  0  0  0  0  0  0
  191.2970  172.6140  143.4260 C   0  0  0  0  0  0  0  0  0  0  0  0
  189.5120  174.2090  144.8420 C   0  0  0  0  0  3  0  0  0  0  0  0
  190.5750  172.0790  144.4900 C   0  0  0  0  0  3  0  0  0  0  0  0
  192.9720  172.3050  141.7060 C   0  0  0  0  0  3  0  0  0  0  0  0
  191.9190  174.4640  141.9980 C   0  0  0  0  0  3  0  0  0  0  0  0
  191.1290  173.9760  143.0510 C   0  0  0  0  0  0  0  0  0  0  0  0
  192.8310  173.6410  141.3330 C   0  0  0  0  0  3  0  0  0  0  0  0
  189.6920  172.8790  145.2030 C   0  0  0  0  0  3  0  0  0  0  0  0
  192.2050  171.7920  142.7490 C   0  0  0  0  0  3  0  0  0  0  0  0
  190.1900  174.7910  143.7560 C   0  0  0  0  0  0  0  0  0  0  0  0
  185.4730  177.8700  143.6880 C   0  0  0  0  0  2  0  0  0  0  0  0
  185.2190  177.7210  145.1790 C   0  0  0  0  0  2  0  0  0  0  0  0
  185.5960  178.9420  145.8770 N   0  0  0  0  0  2  0  0  0  0  0  0
  185.4180  178.7520  147.3150 C   0  0  0  0  0  0  0  0  0  0  0  0
  184.0690  178.6660  147.5940 F   0  0  0  0  0  0  0  0  0  0  0  0
  186.0330  177.5780  147.7210 F   0  0  0  0  0  0  0  0  0  0  0  0
  185.9500  179.8240  148.0130 F   0  0  0  0  0  0  0  0  0  0  0  0
  2 19  2  0  0  0  0
  3 22  1  0  0  0  0
  4 15  1  0  0  0  0
  5 19  1  6  0  0  0
  5  8  1  0  0  0  0
  5 12  1  0  0  0  0
  6  2  1  0  0  0  0
  7 17  1  0  0  0  0
  8 21  1  0  0  0  0
  9  7  2  0  0  0  0
  9 19  1  0  0  0  0
 10  9  1  0  0  0  0
 11  1  1  1  0  0  0
 11 32  1  0  0  0  0
 11 15  1  0  0  0  0
 12 11  1  0  0  0  0
 13 20  2  0  0  0  0
 13 16  1  0  0  0  0
 14 10  2  0  0  0  0
 14  6  1  0  0  0  0
 15 13  1  0  0  0  0
 17  8  2  0  0  0  0
 18  3  2  0  0  0  0
 18 14  1  0  0  0  0
 21 33  1  1  0  0  0
 21  4  1  0  0  0  0
 22  6  2  0  0  0  0
 23 25  1  0  0  0  0
 24 30  1  0  0  0  0
 25 30  2  0  0  0  0
 26 31  1  0  0  0  0
 27 28  2  0  0  0  0
 28 23  1  0  0  0  0
 28 32  1  0  0  0  0
 29 26  2  0  0  0  0
 29 27  1  0  0  0  0
 31 23  2  0  0  0  0
 32 24  2  0  0  0  0
 33 34  1  0  0  0  0
 34 35  1  0  0  0  0
 35 36  1  0  0  0  0
 36 37  1  0  0  0  0
 36 38  1  0  0  0  0
 36 39  1  0  0  0  0
M  END
>  <MODEL>
4

>  <REMARK>
 VINA RESULT:      -8.0      2.043      2.670
  Name = 
  5 active torsions:
  status: ('A' for Active; 'I' for Inactive)
    1  A    between atoms: C_1  and  C_12
    2  A    between atoms: C_1  and  N_34
    3  A    between atoms: C_5  and  N_34
    4  A    between atoms: C_12  and  C_38
    5  A    between atoms: C_20  and  C_37
                            x       y       z     vdW  Elec       q    Type
                         _______ _______ _______ _____ _____    ______ ____

>  <TORSDO>
F 5

$$$$
=
 OpenBabel11042415013D

 39 44  0  0  1  0  0  0  0  0999 V2000
  189.4660  174.6610  146.5230 O   0  0  0  0  0  1  0  0  0  0  0  0
  190.0030  173.8650  141.8600 N   0  0  0  0  0  0  0  0  0  0  0  0
  188.6050  172.2830  139.0210 C   0  0  0  0  0  3  0  0  0  0  0  0
  192.8530  175.7950  145.6080 C   0  0  0  0  0  2  0  0  0  0  0  0
  191.5800  174.1830  143.7490 C   0  0  2  0  0  3  0  0  0  0  0  0
  189.5860  173.1580  140.7850 C   0  0  0  0  0  0  0  0  0  0  0  0
  192.9280  171.9220  142.6410 N   0  0  0  0  0  0  0  0  0  0  0  0
  192.9250  173.7260  144.2510 C   0  0  0  0  0  0  0  0  0  0  0  0
  191.8480  172.3170  142.0420 C   0  0  0  0  0  0  0  0  0  0  0  0
  191.3890  171.6320  140.9530 N   0  0  0  0  0  0  0  0  0  0  0  0
  190.3400  175.1310  145.5420 C   0  0  2  0  0  0  0  0  0  0  0  0
  190.6360  173.9690  144.7660 O   0  0  0  0  0  0  0  0  0  0  0  0
  191.3880  176.4990  147.4270 C   0  0  0  0  0  0  0  0  0  0  0  0
  190.2610  172.0700  140.3440 C   0  0  0  0  0  0  0  0  0  0  0  0
  191.5360  175.6930  146.2370 N   0  0  0  0  0  0  0  0  0  0  0  0
  192.4620  177.1270  147.9670 F   0  0  0  0  0  0  0  0  0  0  0  0
  193.4960  172.6210  143.7570 C   0  0  0  0  0  3  0  0  0  0  0  0
  189.6310  171.5070  139.2120 N   0  0  0  0  0  0  0  0  0  0  0  0
  191.1410  173.4650  142.5050 C   0  0  0  0  0  0  0  0  0  0  0  0
  190.2670  176.6560  147.9730 O   0  0  0  0  0  0  0  0  0  0  0  0
  193.5100  174.4300  145.4420 C   0  0  1  0  0  3  0  0  0  0  0  0
  188.5330  173.3760  140.0230 C   0  0  0  0  0  3  0  0  0  0  0  0
  187.8300  177.7730  144.0760 C   0  0  0  0  0  0  0  0  0  0  0  0
  190.4170  176.8310  143.6770 C   0  0  0  0  0  3  0  0  0  0  0  0
  188.6160  178.3010  143.0550 C   0  0  0  0  0  3  0  0  0  0  0  0
  185.7440  177.8070  145.3020 C   0  0  0  0  0  3  0  0  0  0  0  0
  187.5110  176.2890  145.9580 C   0  0  0  0  0  3  0  0  0  0  0  0
  188.3380  176.7480  144.9210 C   0  0  0  0  0  0  0  0  0  0  0  0
  186.2290  176.8120  146.1500 C   0  0  0  0  0  3  0  0  0  0  0  0
  189.9110  177.8380  142.8630 C   0  0  0  0  0  3  0  0  0  0  0  0
  186.5420  178.2850  144.2660 C   0  0  0  0  0  3  0  0  0  0  0  0
  189.6560  176.2390  144.7000 C   0  0  0  0  0  0  0  0  0  0  0  0
  195.0180  174.6220  145.2980 C   0  0  0  0  0  2  0  0  0  0  0  0
  195.3310  176.0120  144.7670 C   0  0  0  0  0  2  0  0  0  0  0  0
  196.1790  175.9190  143.5870 N   0  0  0  0  0  2  0  0  0  0  0  0
  195.3500  176.0040  142.3870 C   0  0  0  0  0  0  0  0  0  0  0  0
  195.9470  176.8660  141.4890 F   0  0  0  0  0  0  0  0  0  0  0  0
  195.2340  174.7560  141.7970 F   0  0  0  0  0  0  0  0  0  0  0  0
  194.0920  176.4910  142.7030 F   0  0  0  0  0  0  0  0  0  0  0  0
  2 19  2  0  0  0  0
  3 18  2  0  0  0  0
  3 22  1  0  0  0  0
  4 15  1  0  0  0  0
  5 19  1  6  0  0  0
  5  8  1  0  0  0  0
  5 12  1  0  0  0  0
  6  2  1  0  0  0  0
  7 17  1  0  0  0  0
  8 21  1  0  0  0  0
  9 19  1  0  0  0  0
  9  7  2  0  0  0  0
 10  9  1  0  0  0  0
 11 15  1  0  0  0  0
 11  1  1  1  0  0  0
 12 11  1  0  0  0  0
 13 16  1  0  0  0  0
 13 20  2  0  0  0  0
 14  6  1  0  0  0  0
 14 10  2  0  0  0  0
 15 13  1  0  0  0  0
 17  8  2  0  0  0  0
 18 14  1  0  0  0  0
 21 33  1  6  0  0  0
 21  4  1  0  0  0  0
 22  6  2  0  0  0  0
 23 31  1  0  0  0  0
 23 28  1  0  0  0  0
 24 32  1  0  0  0  0
 25 23  2  0  0  0  0
 26 29  1  0  0  0  0
 27 29  2  0  0  0  0
 28 27  1  0  0  0  0
 30 25  1  0  0  0  0
 30 24  2  0  0  0  0
 31 26  2  0  0  0  0
 32 28  2  0  0  0  0
 32 11  1  0  0  0  0
 34 33  1  0  0  0  0
 35 34  1  0  0  0  0
 36 39  1  0  0  0  0
 36 35  1  0  0  0  0
 37 36  1  0  0  0  0
 38 36  1  0  0  0  0
M  END
>  <MODEL>
5

>  <REMARK>
 VINA RESULT:      -7.9      2.927      6.472
  Name = 
  5 active torsions:
  status: ('A' for Active; 'I' for Inactive)
    1  A    between atoms: C_1  and  C_12
    2  A    between atoms: C_1  and  N_34
    3  A    between atoms: C_5  and  N_34
    4  A    between atoms: C_12  and  C_38
    5  A    between atoms: C_20  and  C_37
                            x       y       z     vdW  Elec       q    Type
                         _______ _______ _______ _____ _____    ______ ____

>  <TORSDO>
F 5

$$$$
=
 OpenBabel11042415013D

 39 44  0  0  1  0  0  0  0  0999 V2000
  190.8900  171.7060  144.4080 O   0  0  0  0  0  1  0  0  0  0  0  0
  189.2490  176.0360  143.3060 N   0  0  0  0  0  0  0  0  0  0  0  0
  186.7920  178.4700  144.0530 C   0  0  0  0  0  3  0  0  0  0  0  0
  192.5890  172.7580  141.3090 C   0  0  0  0  0  2  0  0  0  0  0  0
  190.3490  174.2280  142.0120 C   0  0  2  0  0  3  0  0  0  0  0  0
  188.2440  176.9300  143.4550 C   0  0  0  0  0  0  0  0  0  0  0  0
  188.3000  174.7380  140.0880 N   0  0  0  0  0  0  0  0  0  0  0  0
  190.3560  173.5930  140.6460 C   0  0  0  0  0  0  0  0  0  0  0  0
  188.2780  175.4440  141.1750 C   0  0  0  0  0  0  0  0  0  0  0  0
  187.2800  176.3570  141.3680 N   0  0  0  0  0  0  0  0  0  0  0  0
  191.3320  172.7430  143.5860 C   0  0  2  0  0  0  0  0  0  0  0  0
  190.1380  173.2180  142.9640 O   0  0  0  0  0  0  0  0  0  0  0  0
  193.2940  171.1970  143.0470 C   0  0  0  0  0  0  0  0  0  0  0  0
  187.2850  177.0850  142.5120 C   0  0  0  0  0  0  0  0  0  0  0  0
  192.3080  172.1620  142.6160 N   0  0  0  0  0  0  0  0  0  0  0  0
  194.2680  170.7870  142.1970 F   0  0  0  0  0  0  0  0  0  0  0  0
  189.3430  173.7980  139.7940 C   0  0  0  0  0  3  0  0  0  0  0  0
  186.3510  178.0730  142.8950 N   0  0  0  0  0  0  0  0  0  0  0  0
  189.2900  175.2830  142.1650 C   0  0  1  0  0  3  0  0  0  0  0  0
  193.2880  170.7370  144.2170 O   0  0  0  0  0  0  0  0  0  0  0  0
  191.4240  172.5810  140.3430 C   0  0  1  0  0  3  0  0  0  0  0  0
  188.0270  177.7530  144.4600 C   0  0  0  0  0  2  0  0  0  0  0  0
  192.1880  175.5140  146.2360 C   0  0  0  0  0  0  0  0  0  0  0  0
  193.3680  174.1360  144.1270 C   0  0  0  0  0  3  0  0  0  0  0  0
  193.5020  175.7910  145.8690 C   0  0  0  0  0  3  0  0  0  0  0  0
  190.3320  175.9260  147.7340 C   0  0  0  0  0  3  0  0  0  0  0  0
  190.1310  174.2670  145.9850 C   0  0  0  0  0  3  0  0  0  0  0  0
  191.4360  174.5290  145.5370 C   0  0  0  0  0  0  0  0  0  0  0  0
  189.5830  174.9540  147.0710 C   0  0  0  0  0  3  0  0  0  0  0  0
  194.0940  175.0950  144.8230 C   0  0  0  0  0  3  0  0  0  0  0  0
  191.6300  176.2060  147.3150 C   0  0  0  0  0  3  0  0  0  0  0  0
  192.0280  173.8400  144.4330 C   0  0  0  0  0  0  0  0  0  0  0  0
  191.9430  172.7200  138.9130 C   0  0  0  0  0  2  0  0  0  0  0  0
  191.7080  171.4380  138.1320 C   0  0  0  0  0  2  0  0  0  0  0  0
  191.1660  171.7420  136.8160 N   0  0  0  0  0  2  0  0  0  0  0  0
  189.7130  171.5960  136.8450 C   0  0  0  0  0  0  0  0  0  0  0  0
  189.3160  170.8330  135.7650 F   0  0  0  0  0  0  0  0  0  0  0  0
  189.3200  170.9570  138.0110 F   0  0  0  0  0  0  0  0  0  0  0  0
  189.1000  172.8360  136.7640 F   0  0  0  0  0  0  0  0  0  0  0  0
  2  6  2  0  0  0  0
  3 22  1  0  0  0  0
  4 15  1  0  0  0  0
  5  8  1  6  0  0  0
  5 19  1  0  0  0  0
  5 12  1  0  0  0  0
  6 22  1  0  0  0  0
  7  9  2  0  0  0  0
  9 10  1  0  0  0  0
 10 14  2  0  0  0  0
 11  1  1  1  0  0  0
 11 32  1  0  0  0  0
 12 11  1  0  0  0  0
 13 20  2  0  0  0  0
 14 18  1  0  0  0  0
 14  6  1  0  0  0  0
 15 13  1  0  0  0  0
 15 11  1  0  0  0  0
 16 13  1  0  0  0  0
 17  7  1  0  0  0  0
 17  8  2  0  0  0  0
 18  3  2  0  0  0  0
 19  9  1  1  0  0  0
 19  2  1  0  0  0  0
 21 33  1  6  0  0  0
 21  8  1  0  0  0  0
 21  4  1  0  0  0  0
 23 31  1  0  0  0  0
 24 32  2  0  0  0  0
 24 30  1  0  0  0  0
 25 23  1  0  0  0  0
 27 29  2  0  0  0  0
 28 27  1  0  0  0  0
 28 23  2  0  0  0  0
 29 26  1  0  0  0  0
 30 25  2  0  0  0  0
 31 26  2  0  0  0  0
 32 28  1  0  0  0  0
 34 33  1  0  0  0  0
 35 36  1  0  0  0  0
 35 34  1  0  0  0  0
 36 38  1  0  0  0  0
 37 36  1  0  0  0  0
 39 36  1  0  0  0  0
M  END
>  <MODEL>
6

>  <REMARK>
 VINA RESULT:      -7.5      4.249      7.054
  Name = 
  5 active torsions:
  status: ('A' for Active; 'I' for Inactive)
    1  A    between atoms: C_1  and  C_12
    2  A    between atoms: C_1  and  N_34
    3  A    between atoms: C_5  and  N_34
    4  A    between atoms: C_12  and  C_38
    5  A    between atoms: C_20  and  C_37
                            x       y       z     vdW  Elec       q    Type
                         _______ _______ _______ _____ _____    ______ ____

>  <TORSDO>
F 5

$$$$
=
 OpenBabel11042415013D

 39 44  0  0  1  0  0  0  0  0999 V2000
  189.6680  172.0650  143.6850 O   0  0  0  0  0  1  0  0  0  0  0  0
  194.0340  173.9540  143.8660 N   0  0  0  0  0  0  0  0  0  0  0  0
  197.4070  173.3530  144.7470 C   0  0  0  0  0  3  0  0  0  0  0  0
  189.3190  175.6760  143.0300 C   0  0  0  0  0  2  0  0  0  0  0  0
  191.7430  174.8770  144.1060 C   0  0  2  0  0  3  0  0  0  0  0  0
  195.3000  173.8200  144.3240 C   0  0  0  0  0  0  0  0  0  0  0  0
  192.8250  176.2290  146.3780 N   0  0  0  0  0  0  0  0  0  0  0  0
  190.9690  175.9290  144.8570 C   0  0  0  0  0  0  0  0  0  0  0  0
  193.6250  175.4500  145.7190 C   0  0  0  0  0  0  0  0  0  0  0  0
  194.9110  175.2830  146.1460 N   0  0  0  0  0  0  0  0  0  0  0  0
  190.2420  173.2530  143.2340 C   0  0  2  0  0  0  0  0  0  0  0  0
  191.1070  173.6410  144.3020 O   0  0  0  0  0  0  0  0  0  0  0  0
  187.9050  173.8030  142.3600 C   0  0  0  0  0  0  0  0  0  0  0  0
  195.7260  174.4660  145.4350 C   0  0  0  0  0  0  0  0  0  0  0  0
  189.1340  174.2250  142.9950 N   0  0  0  0  0  0  0  0  0  0  0  0
  186.9650  174.7170  142.0130 F   0  0  0  0  0  0  0  0  0  0  0  0
  191.4790  176.4920  145.9600 C   0  0  0  0  0  3  0  0  0  0  0  0
  197.0790  174.1660  145.7090 N   0  0  0  0  0  0  0  0  0  0  0  0
  193.1760  174.7740  144.5470 C   0  0  0  0  0  0  0  0  0  0  0  0
  187.6910  172.5940  142.0940 O   0  0  0  0  0  0  0  0  0  0  0  0
  189.5460  176.1850  144.4480 C   0  0  1  0  0  3  0  0  0  0  0  0
  196.2780  173.0970  143.8180 C   0  0  0  0  0  3  0  0  0  0  0  0
  192.6530  171.8870  140.4500 C   0  0  0  0  0  0  0  0  0  0  0  0
  190.6560  173.7910  140.8020 C   0  0  0  0  0  3  0  0  0  0  0  0
  192.2790  172.7120  139.3920 C   0  0  0  0  0  3  0  0  0  0  0  0
  194.0130  170.0560  141.2600 C   0  0  0  0  0  3  0  0  0  0  0  0
  192.4130  171.1190  142.7310 C   0  0  0  0  0  3  0  0  0  0  0  0
  192.0210  172.0100  141.7190 C   0  0  0  0  0  0  0  0  0  0  0  0
  193.3960  170.1520  142.5060 C   0  0  0  0  0  3  0  0  0  0  0  0
  191.2750  173.6540  139.5650 C   0  0  0  0  0  3  0  0  0  0  0  0
  193.6430  170.9230  140.2350 C   0  0  0  0  0  3  0  0  0  0  0  0
  191.0160  173.0080  141.9130 C   0  0  0  0  0  0  0  0  0  0  0  0
  189.2040  177.6720  144.5000 C   0  0  0  0  0  2  0  0  0  0  0  0
  187.7980  177.9160  143.9770 C   0  0  0  0  0  2  0  0  0  0  0  0
  186.9070  178.2660  145.0730 N   0  0  0  0  0  2  0  0  0  0  0  0
  186.0490  177.1260  145.3840 C   0  0  0  0  0  0  0  0  0  0  0  0
  186.6060  176.4160  146.4300 F   0  0  0  0  0  0  0  0  0  0  0  0
  184.7900  177.5630  145.7620 F   0  0  0  0  0  0  0  0  0  0  0  0
  185.9420  176.2880  144.2850 F   0  0  0  0  0  0  0  0  0  0  0  0
  2  6  1  0  0  0  0
  2 19  2  0  0  0  0
  3 18  2  0  0  0  0
  4 21  1  0  0  0  0
  5 12  1  1  0  0  0
  5 19  1  0  0  0  0
  5  8  1  0  0  0  0
  6 14  1  0  0  0  0
  8 17  2  0  0  0  0
  9 10  1  0  0  0  0
  9  7  2  0  0  0  0
 11  1  1  1  0  0  0
 11 12  1  0  0  0  0
 13 15  1  0  0  0  0
 14 18  1  0  0  0  0
 14 10  2  0  0  0  0
 15  4  1  0  0  0  0
 15 11  1  0  0  0  0
 16 13  1  0  0  0  0
 17  7  1  0  0  0  0
 19  9  1  0  0  0  0
 20 13  2  0  0  0  0
 21 33  1  6  0  0  0
 21  8  1  0  0  0  0
 22  6  2  0  0  0  0
 22  3  1  0  0  0  0
 23 28  1  0  0  0  0
 24 32  1  0  0  0  0
 25 30  1  0  0  0  0
 25 23  2  0  0  0  0
 26 29  1  0  0  0  0
 28 32  2  0  0  0  0
 28 27  1  0  0  0  0
 29 27  2  0  0  0  0
 30 24  2  0  0  0  0
 31 23  1  0  0  0  0
 31 26  2  0  0  0  0
 32 11  1  0  0  0  0
 34 33  1  0  0  0  0
 34 35  1  0  0  0  0
 35 36  1  0  0  0  0
 36 38  1  0  0  0  0
 36 37  1  0  0  0  0
 39 36  1  0  0  0  0
M  END
>  <MODEL>
7

>  <REMARK>
 VINA RESULT:      -7.4      2.694      5.432
  Name = 
  5 active torsions:
  status: ('A' for Active; 'I' for Inactive)
    1  A    between atoms: C_1  and  C_12
    2  A    between atoms: C_1  and  N_34
    3  A    between atoms: C_5  and  N_34
    4  A    between atoms: C_12  and  C_38
    5  A    between atoms: C_20  and  C_37
                            x       y       z     vdW  Elec       q    Type
                         _______ _______ _______ _____ _____    ______ ____

>  <TORSDO>
F 5

$$$$
=
 OpenBabel11042415013D

 39 44  0  0  1  0  0  0  0  0999 V2000
  189.7740  174.5850  146.2720 O   0  0  0  0  0  1  0  0  0  0  0  0
  189.9590  174.0850  141.5420 N   0  0  0  0  0  0  0  0  0  0  0  0
  188.3810  172.6340  138.7270 C   0  0  0  0  0  3  0  0  0  0  0  0
  193.0470  175.8730  145.1690 C   0  0  0  0  0  2  0  0  0  0  0  0
  191.6720  174.3370  143.3180 C   0  0  2  0  0  3  0  0  0  0  0  0
  189.4770  173.4310  140.4600 C   0  0  0  0  0  0  0  0  0  0  0  0
  192.9860  172.1880  141.9710 N   0  0  0  0  0  0  0  0  0  0  0  0
  193.0640  173.8920  143.6850 C   0  0  0  0  0  0  0  0  0  0  0  0
  191.8520  172.5850  141.4830 C   0  0  0  0  0  0  0  0  0  0  0  0
  191.3260  171.9530  140.3930 N   0  0  0  0  0  0  0  0  0  0  0  0
  190.5540  175.1380  145.2570 C   0  0  2  0  0  0  0  0  0  0  0  0
  190.8180  174.0340  144.3900 O   0  0  0  0  0  0  0  0  0  0  0  0
  191.7130  176.4220  147.1370 C   0  0  0  0  0  0  0  0  0  0  0  0
  190.1420  172.3920  139.9010 C   0  0  0  0  0  0  0  0  0  0  0  0
  191.7870  175.6940  145.8910 N   0  0  0  0  0  0  0  0  0  0  0  0
  192.8110  177.0490  147.6290 F   0  0  0  0  0  0  0  0  0  0  0  0
  193.6220  172.8360  143.0810 C   0  0  0  0  0  3  0  0  0  0  0  0
  189.4390  171.8790  138.7900 N   0  0  0  0  0  0  0  0  0  0  0  0
  191.1550  173.6810  142.0700 C   0  0  0  0  0  0  0  0  0  0  0  0
  190.6350  176.5130  147.7770 O   0  0  0  0  0  0  0  0  0  0  0  0
  193.7240  174.5410  144.8690 C   0  0  1  0  0  3  0  0  0  0  0  0
  188.3620  173.6630  139.7970 C   0  0  0  0  0  3  0  0  0  0  0  0
  187.8940  177.8240  144.1910 C   0  0  0  0  0  0  0  0  0  0  0  0
  190.4140  176.9020  143.4570 C   0  0  0  0  0  3  0  0  0  0  0  0
  188.5550  178.3890  143.1030 C   0  0  0  0  0  3  0  0  0  0  0  0
  185.9670  177.8100  145.6550 C   0  0  0  0  0  3  0  0  0  0  0  0
  187.7960  176.2750  146.0450 C   0  0  0  0  0  3  0  0  0  0  0  0
  188.4960  176.7710  144.9340 C   0  0  0  0  0  0  0  0  0  0  0  0
  186.5470  176.7870  146.4050 C   0  0  0  0  0  3  0  0  0  0  0  0
  189.8170  177.9360  142.7440 C   0  0  0  0  0  3  0  0  0  0  0  0
  186.6390  178.3250  144.5490 C   0  0  0  0  0  3  0  0  0  0  0  0
  189.7780  176.2730  144.5410 C   0  0  0  0  0  0  0  0  0  0  0  0
  195.2100  174.7870  144.6210 C   0  0  0  0  0  2  0  0  0  0  0  0
  196.0420  174.2310  145.7650 C   0  0  0  0  0  2  0  0  0  0  0  0
  197.0200  173.2780  145.2590 N   0  0  0  0  0  2  0  0  0  0  0  0
  196.4830  171.9240  145.3790 C   0  0  0  0  0  0  0  0  0  0  0  0
  196.3100  171.3950  144.1150 F   0  0  0  0  0  0  0  0  0  0  0  0
  197.3670  171.1210  146.0820 F   0  0  0  0  0  0  0  0  0  0  0  0
  195.2570  171.9460  146.0240 F   0  0  0  0  0  0  0  0  0  0  0  0
  2 19  2  0  0  0  0
  3 18  2  0  0  0  0
  3 22  1  0  0  0  0
  4 15  1  0  0  0  0
  5 19  1  6  0  0  0
  5  8  1  0  0  0  0
  5 12  1  0  0  0  0
  6  2  1  0  0  0  0
  7 17  1  0  0  0  0
  8 21  1  0  0  0  0
  9  7  2  0  0  0  0
  9 19  1  0  0  0  0
 10  9  1  0  0  0  0
 11 15  1  0  0  0  0
 11  1  1  1  0  0  0
 12 11  1  0  0  0  0
 13 16  1  0  0  0  0
 13 20  2  0  0  0  0
 14 10  2  0  0  0  0
 14  6  1  0  0  0  0
 15 13  1  0  0  0  0
 17  8  2  0  0  0  0
 18 14  1  0  0  0  0
 21 33  1  6  0  0  0
 21  4  1  0  0  0  0
 22  6  2  0  0  0  0
 23 31  1  0  0  0  0
 23 28  1  0  0  0  0
 24 32  1  0  0  0  0
 25 23  2  0  0  0  0
 26 29  1  0  0  0  0
 27 29  2  0  0  0  0
 28 27  1  0  0  0  0
 30 25  1  0  0  0  0
 30 24  2  0  0  0  0
 31 26  2  0  0  0  0
 32 28  2  0  0  0  0
 32 11  1  0  0  0  0
 33 34  1  0  0  0  0
 35 36  1  0  0  0  0
 35 34  1  0  0  0  0
 36 39  1  0  0  0  0
 36 38  1  0  0  0  0
 37 36  1  0  0  0  0
M  END
>  <MODEL>
8

>  <REMARK>
 VINA RESULT:      -7.4      2.953      6.965
  Name = 
  5 active torsions:
  status: ('A' for Active; 'I' for Inactive)
    1  A    between atoms: C_1  and  C_12
    2  A    between atoms: C_1  and  N_34
    3  A    between atoms: C_5  and  N_34
    4  A    between atoms: C_12  and  C_38
    5  A    between atoms: C_20  and  C_37
                            x       y       z     vdW  Elec       q    Type
                         _______ _______ _______ _____ _____    ______ ____

>  <TORSDO>
F 5

$$$$
=
 OpenBabel11042415013D

 39 44  0  0  1  0  0  0  0  0999 V2000
  190.4470  177.3450  142.6760 O   0  0  0  0  0  1  0  0  0  0  0  0
  193.8080  174.0680  143.4620 N   0  0  0  0  0  0  0  0  0  0  0  0
  197.2680  173.5470  143.9840 C   0  0  0  0  0  3  0  0  0  0  0  0
  188.8970  174.0440  142.1300 C   0  0  0  0  0  2  0  0  0  0  0  0
  191.6660  174.0760  142.2110 C   0  0  2  0  0  3  0  0  0  0  0  0
  195.1350  173.8070  143.5180 C   0  0  0  0  0  0  0  0  0  0  0  0
  193.1810  172.7900  140.1570 N   0  0  0  0  0  0  0  0  0  0  0  0
  191.0190  173.5000  140.9780 C   0  0  0  0  0  0  0  0  0  0  0  0
  193.8140  173.1200  141.2400 C   0  0  0  0  0  0  0  0  0  0  0  0
  195.1550  172.8790  141.3390 N   0  0  0  0  0  0  0  0  0  0  0  0
  190.4380  175.9750  142.9410 C   0  0  2  0  0  0  0  0  0  0  0  0
  191.5280  175.4720  142.1670 O   0  0  0  0  0  0  0  0  0  0  0  0
  187.8970  176.1730  142.7790 C   0  0  0  0  0  0  0  0  0  0  0  0
  195.7910  173.2300  142.4840 C   0  0  0  0  0  0  0  0  0  0  0  0
  189.1130  175.4420  142.5070 N   0  0  0  0  0  0  0  0  0  0  0  0
  186.6890  175.6150  142.5150 F   0  0  0  0  0  0  0  0  0  0  0  0
  191.7660  172.9670  140.0030 C   0  0  0  0  0  3  0  0  0  0  0  0
  197.1610  173.0640  142.7810 N   0  0  0  0  0  0  0  0  0  0  0  0
  193.1220  173.7250  142.3290 C   0  0  1  0  0  3  0  0  0  0  0  0
  187.9260  177.3230  143.2860 O   0  0  0  0  0  0  0  0  0  0  0  0
  189.5430  173.7110  140.7910 C   0  0  1  0  0  3  0  0  0  0  0  0
  195.9710  174.0450  144.5070 C   0  0  0  0  0  2  0  0  0  0  0  0
  191.8190  175.8360  146.6160 C   0  0  0  0  0  0  0  0  0  0  0  0
  189.5780  175.0940  145.1450 C   0  0  0  0  0  3  0  0  0  0  0  0
  190.7590  175.1820  147.2400 C   0  0  0  0  0  3  0  0  0  0  0  0
  193.9810  176.9080  146.8040 C   0  0  0  0  0  3  0  0  0  0  0  0
  192.8500  176.8280  144.6670 C   0  0  0  0  0  3  0  0  0  0  0  0
  191.7690  176.1280  145.2250 C   0  0  0  0  0  0  0  0  0  0  0  0
  193.9440  177.2160  145.4450 C   0  0  0  0  0  3  0  0  0  0  0  0
  189.6360  174.8220  146.5070 C   0  0  0  0  0  3  0  0  0  0  0  0
  192.9210  176.2180  147.3880 C   0  0  0  0  0  3  0  0  0  0  0  0
  190.6320  175.7210  144.4580 C   0  0  0  0  0  0  0  0  0  0  0  0
  188.8660  172.4720  140.2100 C   0  0  0  0  0  2  0  0  0  0  0  0
  188.1530  172.8120  138.9110 C   0  0  0  0  0  2  0  0  0  0  0  0
  188.5160  174.1520  138.4750 N   0  0  0  0  0  2  0  0  0  0  0  0
  189.1390  174.0790  137.1560 C   0  0  0  0  0  0  0  0  0  0  0  0
  188.5540  175.0190  136.3300 F   0  0  0  0  0  0  0  0  0  0  0  0
  190.4940  174.3520  137.2520 F   0  0  0  0  0  0  0  0  0  0  0  0
  188.9540  172.8230  136.6020 F   0  0  0  0  0  0  0  0  0  0  0  0
  2  6  2  0  0  0  0
  3 22  1  0  0  0  0
  4 15  1  0  0  0  0
  5  8  1  6  0  0  0
  5 19  1  0  0  0  0
  6 22  1  0  0  0  0
  7  9  2  0  0  0  0
  9 10  1  0  0  0  0
 10 14  2  0  0  0  0
 11  1  1  6  0  0  0
 11 32  1  0  0  0  0
 12  5  1  0  0  0  0
 12 11  1  0  0  0  0
 13 20  2  0  0  0  0
 14 18  1  0  0  0  0
 14  6  1  0  0  0  0
 15 13  1  0  0  0  0
 15 11  1  0  0  0  0
 16 13  1  0  0  0  0
 17  7  1  0  0  0  0
 17  8  2  0  0  0  0
 18  3  2  0  0  0  0
 19  9  1  6  0  0  0
 19  2  1  0  0  0  0
 21 33  1  1  0  0  0
 21  8  1  0  0  0  0
 21  4  1  0  0  0  0
 23 25  1  0  0  0  0
 23 31  1  0  0  0  0
 24 30  1  0  0  0  0
 26 31  2  0  0  0  0
 27 28  1  0  0  0  0
 27 29  2  0  0  0  0
 28 23  2  0  0  0  0
 29 26  1  0  0  0  0
 30 25  2  0  0  0  0
 32 24  2  0  0  0  0
 32 28  1  0  0  0  0
 34 33  1  0  0  0  0
 35 34  1  0  0  0  0
 36 38  1  0  0  0  0
 36 35  1  0  0  0  0
 37 36  1  0  0  0  0
 39 36  1  0  0  0  0
M  END
>  <MODEL>
9

>  <REMARK>
 VINA RESULT:      -7.4      3.632      6.711
  Name = 
  5 active torsions:
  status: ('A' for Active; 'I' for Inactive)
    1  A    between atoms: C_1  and  C_12
    2  A    between atoms: C_1  and  N_34
    3  A    between atoms: C_5  and  N_34
    4  A    between atoms: C_12  and  C_38
    5  A    between atoms: C_20  and  C_37
                            x       y       z     vdW  Elec       q    Type
                         _______ _______ _______ _____ _____    ______ ____

>  <TORSDO>
F 5

$$$$
