=
 OpenBabel11042418333D

 37 41  0  0  1  0  0  0  0  0999 V2000
  189.2750  175.4960  145.0700 C   0  0  2  0  0  3  0  0  0  0  0  0
  185.3190  177.8660  141.9800 C   0  0  0  0  0  0  0  0  0  0  0  0
  185.7590  178.0350  144.1570 C   0  0  0  0  0  0  0  0  0  0  0  0
  182.5740  178.5370  142.2560 N   0  0  0  0  0  0  0  0  0  0  0  0
  187.9980  177.4750  145.5790 C   0  0  0  0  0  0  0  0  0  0  0  0
  183.0720  178.2030  140.9460 C   0  0  0  0  0  0  0  0  0  0  0  0
  187.9560  177.3070  144.1210 C   0  0  0  0  0  0  0  0  0  0  0  0
  184.5600  178.6670  146.3280 C   0  0  0  0  0  1  0  0  0  0  0  0
  182.2700  178.1430  139.9800 O   0  0  0  0  0  0  0  0  0  0  0  0
  186.5840  177.4940  142.1120 O   0  0  0  0  0  0  0  0  0  0  0  0
  185.7770  178.1990  145.6060 C   0  0  0  0  0  0  0  0  0  0  0  0
  189.1210  177.0170  144.8660 C   0  0  2  0  0  3  0  0  0  0  0  0
  186.8480  177.5800  143.3930 C   0  0  0  0  0  0  0  0  0  0  0  0
  184.7750  178.1860  143.2070 C   0  0  0  0  0  0  0  0  0  0  0  0
  184.5390  177.9020  140.7040 C   0  0  0  0  0  2  0  0  0  0  0  0
  183.4130  178.5410  143.3830 N   0  0  0  0  0  0  0  0  0  0  0  0
  186.9660  177.9120  146.3800 C   0  0  0  0  0  3  0  0  0  0  0  0
  189.0060  174.7070  147.4850 C   0  0  0  0  0  1  0  0  0  0  0  0
  189.9970  175.1100  146.3930 C   0  0  2  0  0  3  0  0  0  0  0  0
  190.5990  176.9800  147.7860 O   0  0  0  0  0  0  0  0  0  0  0  0
  190.9640  176.1420  146.9090 C   0  0  0  0  0  0  0  0  0  0  0  0
  192.2550  176.1940  146.3680 O   0  0  0  0  0  0  0  0  0  0  0  0
  193.1590  175.0950  146.4740 C   0  0  0  0  0  2  0  0  0  0  0  0
  195.5950  176.7790  144.4450 N   0  0  0  0  0  2  0  0  0  0  0  0
  194.5720  175.5080  146.0710 C   0  0  1  0  0  3  0  0  0  0  0  0
  195.0750  174.6790  145.0680 O   0  0  0  0  0  0  0  0  0  0  0  0
  196.0260  175.4360  144.4460 N   0  0  0  0  0  2  0  0  0  0  0  0
  194.6260  176.8870  145.5140 C   0  0  0  0  0  2  0  0  0  0  0  0
  190.6400  173.4540  144.2040 C   0  0  0  0  0  1  0  0  0  0  0  0
  189.8420  174.7100  143.8290 C   0  0  1  0  0  0  0  0  0  0  0  0
  188.7820  174.3380  142.8770 N   0  0  0  0  0  2  0  0  0  0  0  0
  189.0640  174.8660  141.5440 C   0  0  0  0  0  2  0  0  0  0  0  0
  188.5640  173.8900  140.4980 C   0  0  0  0  0  2  0  0  0  0  0  0
  189.1230  172.5750  140.7580 N   0  0  0  0  0  1  0  0  0  0  0  0
  190.8100  175.6420  143.1000 C   0  0  0  0  0  2  0  0  0  0  0  0
  192.1260  175.1840  143.2180 O   0  0  0  0  0  0  0  0  0  0  0  0
  192.8640  175.9600  142.3250 C   0  0  0  0  0  1  0  0  0  0  0  0
  1 19  1  1  0  0  0
  2 10  1  0  0  0  0
  2 14  2  0  0  0  0
  3 11  1  0  0  0  0
  4 16  2  0  0  0  0
  5 17  1  0  0  0  0
  6  4  1  0  0  0  0
  7 12  1  0  0  0  0
  7  5  2  0  0  0  0
  9  6  2  0  0  0  0
 10 13  1  0  0  0  0
 11  8  1  0  0  0  0
 11 17  2  0  0  0  0
 12  1  1  1  0  0  0
 12  5  1  0  0  0  0
 13  7  1  0  0  0  0
 13  3  2  0  0  0  0
 14 16  1  0  0  0  0
 14  3  1  0  0  0  0
 15  6  1  0  0  0  0
 15  2  1  0  0  0  0
 19 21  1  0  0  0  0
 19 18  1  1  0  0  0
 21 20  2  0  0  0  0
 22 23  1  0  0  0  0
 22 21  1  0  0  0  0
 24 27  1  0  0  0  0
 24 28  1  0  0  0  0
 25 23  1  6  0  0  0
 26 25  1  0  0  0  0
 27 26  1  0  0  0  0
 28 25  1  0  0  0  0
 30 29  1  1  0  0  0
 30  1  1  0  0  0  0
 31 30  1  0  0  0  0
 32 31  1  0  0  0  0
 33 34  1  0  0  0  0
 33 32  1  0  0  0  0
 35 36  1  0  0  0  0
 35 30  1  0  0  0  0
 37 36  1  0  0  0  0
M  END
>  <MODEL>
1

>  <REMARK>
 VINA RESULT:      -7.2      0.000      0.000
  Name = 
  12 active torsions:
  status: ('A' for Active; 'I' for Inactive)
    1  A    between atoms: N_7  and  C_29
    2  A    between atoms: N_7  and  C_36
    3  A    between atoms: C_8  and  C_28
    4  A    between atoms: C_13  and  O_14
    5  A    between atoms: C_13  and  C_29
    6  A    between atoms: O_15  and  C_20
    7  A    between atoms: O_15  and  C_28
    8  A    between atoms: C_16  and  C_23
    9  A    between atoms: C_16  and  C_24
   10  A    between atoms: C_16  and  C_29
   11  A    between atoms: C_18  and  C_36
   12  A    between atoms: C_20  and  C_23
                            x       y       z     vdW  Elec       q    Type
                         _______ _______ _______ _____ _____    ______ ____

>  <TORSDO>
F 12

$$$$
=
 OpenBabel11042418333D

 37 41  0  0  1  0  0  0  0  0999 V2000
  189.8290  175.3340  145.1710 C   0  0  2  0  0  3  0  0  0  0  0  0
  185.9160  177.8570  142.1480 C   0  0  0  0  0  0  0  0  0  0  0  0
  186.2910  177.8720  144.3430 C   0  0  0  0  0  0  0  0  0  0  0  0
  183.1510  178.4560  142.3910 N   0  0  0  0  0  0  0  0  0  0  0  0
  188.4990  177.2470  145.7860 C   0  0  0  0  0  0  0  0  0  0  0  0
  183.6930  178.2300  141.0750 C   0  0  0  0  0  0  0  0  0  0  0  0
  188.5020  177.1870  144.3200 C   0  0  0  0  0  0  0  0  0  0  0  0
  185.0180  178.3200  146.5180 C   0  0  0  0  0  1  0  0  0  0  0  0
  182.9190  178.2270  140.0840 O   0  0  0  0  0  0  0  0  0  0  0  0
  187.1830  177.4980  142.2890 O   0  0  0  0  0  0  0  0  0  0  0  0
  186.2650  177.9290  145.8000 C   0  0  0  0  0  0  0  0  0  0  0  0
  189.6500  176.8640  145.0750 C   0  0  2  0  0  3  0  0  0  0  0  0
  187.4100  177.4940  143.5810 C   0  0  0  0  0  0  0  0  0  0  0  0
  185.3310  178.0750  143.3780 C   0  0  0  0  0  0  0  0  0  0  0  0
  185.1710  177.9730  140.8550 C   0  0  0  0  0  2  0  0  0  0  0  0
  183.9570  178.3930  143.5400 N   0  0  0  0  0  0  0  0  0  0  0  0
  187.4370  177.6050  146.5860 C   0  0  0  0  0  3  0  0  0  0  0  0
  189.1840  174.5630  147.5190 C   0  0  0  0  0  1  0  0  0  0  0  0
  190.3380  174.8480  146.5590 C   0  0  2  0  0  3  0  0  0  0  0  0
  191.0020  176.6040  148.0670 O   0  0  0  0  0  0  0  0  0  0  0  0
  191.3580  175.7440  147.2070 C   0  0  0  0  0  0  0  0  0  0  0  0
  192.6970  175.6490  146.8080 O   0  0  0  0  0  0  0  0  0  0  0  0
  193.3500  176.7080  146.1070 C   0  0  0  0  0  2  0  0  0  0  0  0
  196.0310  175.2980  144.1820 N   0  0  0  0  0  2  0  0  0  0  0  0
  194.8080  176.3590  145.8200 C   0  0  1  0  0  3  0  0  0  0  0  0
  195.1040  175.0550  146.2190 O   0  0  0  0  0  0  0  0  0  0  0  0
  196.1760  174.7000  145.4510 N   0  0  0  0  0  2  0  0  0  0  0  0
  195.1320  176.4150  144.3680 C   0  0  0  0  0  2  0  0  0  0  0  0
  191.5660  175.6500  143.2570 C   0  0  0  0  0  1  0  0  0  0  0  0
  190.6240  174.6790  143.9800 C   0  0  1  0  0  0  0  0  0  0  0  0
  191.3900  173.4970  144.4090 N   0  0  0  0  0  2  0  0  0  0  0  0
  192.7740  173.5710  143.9460 C   0  0  0  0  0  2  0  0  0  0  0  0
  193.4240  172.2090  144.0750 C   0  0  0  0  0  2  0  0  0  0  0  0
  193.8790  172.0180  145.4410 N   0  0  0  0  0  1  0  0  0  0  0  0
  189.5990  174.2140  142.9460 C   0  0  0  0  0  2  0  0  0  0  0  0
  189.6850  174.9800  141.7790 O   0  0  0  0  0  0  0  0  0  0  0  0
  188.6560  174.5160  140.9610 C   0  0  0  0  0  1  0  0  0  0  0  0
  1 19  1  1  0  0  0
  2 10  1  0  0  0  0
  2 14  2  0  0  0  0
  3 11  1  0  0  0  0
  4 16  2  0  0  0  0
  5 17  1  0  0  0  0
  6  4  1  0  0  0  0
  7 12  1  0  0  0  0
  7  5  2  0  0  0  0
  9  6  2  0  0  0  0
 10 13  1  0  0  0  0
 11  8  1  0  0  0  0
 11 17  2  0  0  0  0
 12  1  1  1  0  0  0
 12  5  1  0  0  0  0
 13  7  1  0  0  0  0
 13  3  2  0  0  0  0
 14 16  1  0  0  0  0
 14  3  1  0  0  0  0
 15  6  1  0  0  0  0
 15  2  1  0  0  0  0
 19 21  1  0  0  0  0
 19 18  1  1  0  0  0
 21 20  2  0  0  0  0
 22 21  1  0  0  0  0
 23 22  1  0  0  0  0
 24 28  1  0  0  0  0
 24 27  1  0  0  0  0
 25 23  1  6  0  0  0
 25 26  1  0  0  0  0
 27 26  1  0  0  0  0
 28 25  1  0  0  0  0
 30 29  1  6  0  0  0
 30 31  1  0  0  0  0
 30  1  1  0  0  0  0
 32 33  1  0  0  0  0
 32 31  1  0  0  0  0
 33 34  1  0  0  0  0
 35 30  1  0  0  0  0
 36 35  1  0  0  0  0
 37 36  1  0  0  0  0
M  END
>  <MODEL>
2

>  <REMARK>
 VINA RESULT:      -7.2      1.350      2.172
  Name = 
  12 active torsions:
  status: ('A' for Active; 'I' for Inactive)
    1  A    between atoms: N_7  and  C_29
    2  A    between atoms: N_7  and  C_36
    3  A    between atoms: C_8  and  C_28
    4  A    between atoms: C_13  and  O_14
    5  A    between atoms: C_13  and  C_29
    6  A    between atoms: O_15  and  C_20
    7  A    between atoms: O_15  and  C_28
    8  A    between atoms: C_16  and  C_23
    9  A    between atoms: C_16  and  C_24
   10  A    between atoms: C_16  and  C_29
   11  A    between atoms: C_18  and  C_36
   12  A    between atoms: C_20  and  C_23
                            x       y       z     vdW  Elec       q    Type
                         _______ _______ _______ _____ _____    ______ ____

>  <TORSDO>
F 12

$$$$
=
 OpenBabel11042418333D

 37 41  0  0  1  0  0  0  0  0999 V2000
  189.6230  175.1220  145.2040 C   0  0  2  0  0  3  0  0  0  0  0  0
  185.8100  177.7290  142.1240 C   0  0  0  0  0  0  0  0  0  0  0  0
  186.2770  177.8840  144.2960 C   0  0  0  0  0  0  0  0  0  0  0  0
  183.1180  178.5840  142.4140 N   0  0  0  0  0  0  0  0  0  0  0  0
  188.4840  177.1860  145.7070 C   0  0  0  0  0  0  0  0  0  0  0  0
  183.5830  178.2080  141.1030 C   0  0  0  0  0  0  0  0  0  0  0  0
  188.4200  177.0110  144.2510 C   0  0  0  0  0  0  0  0  0  0  0  0
  185.1390  178.6110  146.4700 C   0  0  0  0  0  1  0  0  0  0  0  0
  182.7710  178.1950  140.1430 O   0  0  0  0  0  0  0  0  0  0  0  0
  187.0480  177.2740  142.2490 O   0  0  0  0  0  0  0  0  0  0  0  0
  186.3170  178.0570  145.7430 C   0  0  0  0  0  0  0  0  0  0  0  0
  189.5680  176.6500  144.9890 C   0  0  2  0  0  3  0  0  0  0  0  0
  187.3280  177.3520  143.5280 C   0  0  0  0  0  0  0  0  0  0  0  0
  185.2980  178.0940  143.3520 C   0  0  0  0  0  0  0  0  0  0  0  0
  185.0250  177.8080  140.8530 C   0  0  0  0  0  2  0  0  0  0  0  0
  183.9640  178.5400  143.5350 N   0  0  0  0  0  0  0  0  0  0  0  0
  187.4900  177.6960  146.5120 C   0  0  0  0  0  3  0  0  0  0  0  0
  189.0370  174.5520  147.6240 C   0  0  0  0  0  1  0  0  0  0  0  0
  190.1630  174.7040  146.6020 C   0  0  2  0  0  3  0  0  0  0  0  0
  191.0310  176.3600  148.1200 O   0  0  0  0  0  0  0  0  0  0  0  0
  191.2570  175.5820  147.1440 C   0  0  0  0  0  0  0  0  0  0  0  0
  192.5130  175.5670  146.5230 O   0  0  0  0  0  0  0  0  0  0  0  0
  193.4580  176.6190  146.7130 C   0  0  0  0  0  2  0  0  0  0  0  0
  195.3850  175.2400  144.0170 N   0  0  0  0  0  2  0  0  0  0  0  0
  194.7400  176.3520  145.9280 C   0  0  1  0  0  3  0  0  0  0  0  0
  195.2910  175.1150  146.2630 O   0  0  0  0  0  0  0  0  0  0  0  0
  196.0400  174.7710  145.1750 N   0  0  0  0  0  2  0  0  0  0  0  0
  194.5070  176.3010  144.4580 C   0  0  0  0  0  2  0  0  0  0  0  0
  189.3050  173.8450  142.9570 C   0  0  0  0  0  1  0  0  0  0  0  0
  190.2940  174.3070  144.0350 C   0  0  1  0  0  0  0  0  0  0  0  0
  191.3880  175.0570  143.3940 N   0  0  0  0  0  2  0  0  0  0  0  0
  191.3050  174.9640  141.9380 C   0  0  0  0  0  2  0  0  0  0  0  0
  192.6960  174.7810  141.3640 C   0  0  0  0  0  2  0  0  0  0  0  0
  192.6070  174.0640  140.1040 N   0  0  0  0  0  1  0  0  0  0  0  0
  190.8970  173.0430  144.6460 C   0  0  0  0  0  2  0  0  0  0  0  0
  191.9200  172.5380  143.8380 O   0  0  0  0  0  0  0  0  0  0  0  0
  192.9830  172.2920  144.7050 C   0  0  0  0  0  1  0  0  0  0  0  0
  1 19  1  1  0  0  0
  2 10  1  0  0  0  0
  2 14  2  0  0  0  0
  3 11  1  0  0  0  0
  4 16  2  0  0  0  0
  5 17  1  0  0  0  0
  6  4  1  0  0  0  0
  7 12  1  0  0  0  0
  7  5  2  0  0  0  0
  9  6  2  0  0  0  0
 10 13  1  0  0  0  0
 11  8  1  0  0  0  0
 11 17  2  0  0  0  0
 12  1  1  1  0  0  0
 12  5  1  0  0  0  0
 13  7  1  0  0  0  0
 13  3  2  0  0  0  0
 14 16  1  0  0  0  0
 14  3  1  0  0  0  0
 15  6  1  0  0  0  0
 15  2  1  0  0  0  0
 19 21  1  0  0  0  0
 19 18  1  1  0  0  0
 21 20  2  0  0  0  0
 22 23  1  0  0  0  0
 22 21  1  0  0  0  0
 24 28  1  0  0  0  0
 24 27  1  0  0  0  0
 25 26  1  0  0  0  0
 25 23  1  1  0  0  0
 27 26  1  0  0  0  0
 28 25  1  0  0  0  0
 30 29  1  6  0  0  0
 30 35  1  0  0  0  0
 30  1  1  0  0  0  0
 31 30  1  0  0  0  0
 32 31  1  0  0  0  0
 33 32  1  0  0  0  0
 34 33  1  0  0  0  0
 36 35  1  0  0  0  0
 36 37  1  0  0  0  0
M  END
>  <MODEL>
3

>  <REMARK>
 VINA RESULT:      -6.7      1.279      1.668
  Name = 
  12 active torsions:
  status: ('A' for Active; 'I' for Inactive)
    1  A    between atoms: N_7  and  C_29
    2  A    between atoms: N_7  and  C_36
    3  A    between atoms: C_8  and  C_28
    4  A    between atoms: C_13  and  O_14
    5  A    between atoms: C_13  and  C_29
    6  A    between atoms: O_15  and  C_20
    7  A    between atoms: O_15  and  C_28
    8  A    between atoms: C_16  and  C_23
    9  A    between atoms: C_16  and  C_24
   10  A    between atoms: C_16  and  C_29
   11  A    between atoms: C_18  and  C_36
   12  A    between atoms: C_20  and  C_23
                            x       y       z     vdW  Elec       q    Type
                         _______ _______ _______ _____ _____    ______ ____

>  <TORSDO>
F 12

$$$$
=
 OpenBabel11042418333D

 37 41  0  0  1  0  0  0  0  0999 V2000
  190.8680  175.7990  144.6230 C   0  0  2  0  0  3  0  0  0  0  0  0
  186.4710  178.1050  142.1400 C   0  0  0  0  0  0  0  0  0  0  0  0
  186.9260  177.7980  144.2990 C   0  0  0  0  0  0  0  0  0  0  0  0
  183.6580  178.1700  142.5140 N   0  0  0  0  0  0  0  0  0  0  0  0
  189.2640  177.3180  145.5850 C   0  0  0  0  0  0  0  0  0  0  0  0
  184.1760  178.2740  141.1730 C   0  0  0  0  0  0  0  0  0  0  0  0
  189.2180  177.5170  144.1310 C   0  0  0  0  0  0  0  0  0  0  0  0
  185.6850  177.6340  146.5310 C   0  0  0  0  0  1  0  0  0  0  0  0
  183.3750  178.3120  140.2060 O   0  0  0  0  0  0  0  0  0  0  0  0
  187.7850  177.9490  142.2030 O   0  0  0  0  0  0  0  0  0  0  0  0
  186.9500  177.5930  145.7430 C   0  0  0  0  0  0  0  0  0  0  0  0
  190.4330  177.2680  144.8050 C   0  0  2  0  0  3  0  0  0  0  0  0
  188.0610  177.7570  143.4700 C   0  0  0  0  0  0  0  0  0  0  0  0
  185.9080  178.0000  143.3960 C   0  0  0  0  0  0  0  0  0  0  0  0
  185.6670  178.3170  140.8970 C   0  0  0  0  0  2  0  0  0  0  0  0
  184.5090  178.0450  143.6250 N   0  0  0  0  0  0  0  0  0  0  0  0
  188.1890  177.3430  146.4460 C   0  0  0  0  0  3  0  0  0  0  0  0
  189.6790  173.9450  145.9170 C   0  0  0  0  0  1  0  0  0  0  0  0
  189.6860  174.7870  144.6420 C   0  0  2  0  0  3  0  0  0  0  0  0
  189.4940  172.6500  143.5480 O   0  0  0  0  0  0  0  0  0  0  0  0
  189.5880  173.9080  143.4250 C   0  0  0  0  0  0  0  0  0  0  0  0
  189.6550  174.4960  142.1550 O   0  0  0  0  0  0  0  0  0  0  0  0
  188.4950  174.6610  141.3410 C   0  0  0  0  0  2  0  0  0  0  0  0
  190.0310  173.6240  138.2670 N   0  0  0  0  0  2  0  0  0  0  0  0
  188.6010  173.8370  140.0600 C   0  0  1  0  0  3  0  0  0  0  0  0
  188.0940  174.5360  138.9650 O   0  0  0  0  0  0  0  0  0  0  0  0
  188.7200  173.9790  137.8870 N   0  0  0  0  0  2  0  0  0  0  0  0
  190.0110  173.5110  139.7080 C   0  0  0  0  0  2  0  0  0  0  0  0
  191.7980  175.5210  147.0400 C   0  0  0  0  0  1  0  0  0  0  0  0
  192.0630  175.3380  145.5400 C   0  0  1  0  0  0  0  0  0  0  0  0
  192.4480  173.9380  145.2880 N   0  0  0  0  0  2  0  0  0  0  0  0
  193.5350  173.8600  144.3150 C   0  0  0  0  0  2  0  0  0  0  0  0
  193.1150  172.9760  143.1580 C   0  0  0  0  0  2  0  0  0  0  0  0
  194.0130  173.1900  142.0370 N   0  0  0  0  0  1  0  0  0  0  0  0
  193.2670  176.2160  145.1990 C   0  0  0  0  0  2  0  0  0  0  0  0
  193.8450  176.7420  146.3580 O   0  0  0  0  0  0  0  0  0  0  0  0
  194.7940  177.6590  145.9080 C   0  0  0  0  0  1  0  0  0  0  0  0
  1 19  1  1  0  0  0
  1 30  1  0  0  0  0
  2 10  1  0  0  0  0
  2 14  2  0  0  0  0
  3 11  1  0  0  0  0
  4 16  2  0  0  0  0
  5 17  1  0  0  0  0
  6  4  1  0  0  0  0
  7 12  1  0  0  0  0
  7  5  2  0  0  0  0
  9  6  2  0  0  0  0
 10 13  1  0  0  0  0
 11 17  2  0  0  0  0
 11  8  1  0  0  0  0
 12  1  1  6  0  0  0
 12  5  1  0  0  0  0
 13  7  1  0  0  0  0
 13  3  2  0  0  0  0
 14 16  1  0  0  0  0
 14  3  1  0  0  0  0
 15  6  1  0  0  0  0
 15  2  1  0  0  0  0
 19 18  1  1  0  0  0
 21 20  2  0  0  0  0
 21 19  1  0  0  0  0
 22 21  1  0  0  0  0
 23 22  1  0  0  0  0
 24 28  1  0  0  0  0
 25 23  1  1  0  0  0
 26 25  1  0  0  0  0
 27 24  1  0  0  0  0
 27 26  1  0  0  0  0
 28 25  1  0  0  0  0
 30 29  1  1  0  0  0
 31 30  1  0  0  0  0
 32 31  1  0  0  0  0
 33 32  1  0  0  0  0
 34 33  1  0  0  0  0
 35 30  1  0  0  0  0
 35 36  1  0  0  0  0
 37 36  1  0  0  0  0
M  END
>  <MODEL>
4

>  <REMARK>
 VINA RESULT:      -6.4      1.945      4.479
  Name = 
  12 active torsions:
  status: ('A' for Active; 'I' for Inactive)
    1  A    between atoms: N_7  and  C_29
    2  A    between atoms: N_7  and  C_36
    3  A    between atoms: C_8  and  C_28
    4  A    between atoms: C_13  and  O_14
    5  A    between atoms: C_13  and  C_29
    6  A    between atoms: O_15  and  C_20
    7  A    between atoms: O_15  and  C_28
    8  A    between atoms: C_16  and  C_23
    9  A    between atoms: C_16  and  C_24
   10  A    between atoms: C_16  and  C_29
   11  A    between atoms: C_18  and  C_36
   12  A    between atoms: C_20  and  C_23
                            x       y       z     vdW  Elec       q    Type
                         _______ _______ _______ _____ _____    ______ ____

>  <TORSDO>
F 12

$$$$
=
 OpenBabel11042418333D

 37 41  0  0  1  0  0  0  0  0999 V2000
  189.9300  175.2200  142.9430 C   0  0  2  0  0  3  0  0  0  0  0  0
  194.2780  172.5730  145.1590 C   0  0  0  0  0  0  0  0  0  0  0  0
  193.4310  174.5880  145.5870 C   0  0  0  0  0  0  0  0  0  0  0  0
  196.8880  173.2340  146.0600 N   0  0  0  0  0  0  0  0  0  0  0  0
  190.9950  175.6550  145.0600 C   0  0  0  0  0  0  0  0  0  0  0  0
  196.6600  171.9190  145.5180 C   0  0  0  0  0  0  0  0  0  0  0  0
  191.3170  174.2680  144.7010 C   0  0  0  0  0  0  0  0  0  0  0  0
  194.1730  176.8230  146.5910 C   0  0  0  0  0  1  0  0  0  0  0  0
  197.6310  171.1310  145.3870 O   0  0  0  0  0  0  0  0  0  0  0  0
  193.0300  172.5300  144.7160 O   0  0  0  0  0  0  0  0  0  0  0  0
  193.1350  175.9710  145.9420 C   0  0  0  0  0  0  0  0  0  0  0  0
  190.0490  174.8270  144.4300 C   0  0  2  0  0  3  0  0  0  0  0  0
  192.5270  173.7170  144.9540 C   0  0  0  0  0  0  0  0  0  0  0  0
  194.5670  173.8180  145.6800 C   0  0  0  0  0  0  0  0  0  0  0  0
  195.2800  171.4650  145.0800 C   0  0  0  0  0  2  0  0  0  0  0  0
  195.8540  174.1810  146.1550 N   0  0  0  0  0  0  0  0  0  0  0  0
  191.8370  176.5550  145.6750 C   0  0  0  0  0  3  0  0  0  0  0  0
  189.9330  177.7600  142.6780 C   0  0  0  0  0  1  0  0  0  0  0  0
  189.0750  176.4960  142.6960 C   0  0  2  0  0  3  0  0  0  0  0  0
  186.8280  176.0280  143.4240 O   0  0  0  0  0  0  0  0  0  0  0  0
  187.9060  176.6620  143.6280 C   0  0  0  0  0  0  0  0  0  0  0  0
  188.0090  177.5660  144.6940 O   0  0  0  0  0  0  0  0  0  0  0  0
  187.1510  177.4870  145.8320 C   0  0  0  0  0  2  0  0  0  0  0  0
  183.9440  178.8410  144.9580 N   0  0  0  0  0  2  0  0  0  0  0  0
  186.0770  178.5700  145.7850 C   0  0  1  0  0  3  0  0  0  0  0  0
  186.1210  179.2750  144.5820 O   0  0  0  0  0  0  0  0  0  0  0  0
  184.8600  179.7790  144.4360 N   0  0  0  0  0  2  0  0  0  0  0  0
  184.6990  178.0100  145.8690 C   0  0  0  0  0  2  0  0  0  0  0  0
  188.8640  172.8600  142.6730 C   0  0  0  0  0  1  0  0  0  0  0  0
  189.5420  174.0430  141.9710 C   0  0  1  0  0  0  0  0  0  0  0  0
  188.6850  174.5000  140.8630 N   0  0  0  0  0  2  0  0  0  0  0  0
  188.5840  173.4790  139.8220 C   0  0  0  0  0  2  0  0  0  0  0  0
  188.2320  174.1360  138.5030 C   0  0  0  0  0  2  0  0  0  0  0  0
  188.8140  173.3730  137.4130 N   0  0  0  0  0  1  0  0  0  0  0  0
  190.8370  173.5060  141.3610 C   0  0  0  0  0  2  0  0  0  0  0  0
  191.7990  174.5160  141.2650 O   0  0  0  0  0  0  0  0  0  0  0  0
  193.0260  173.8550  141.2940 C   0  0  0  0  0  1  0  0  0  0  0  0
  1 19  1  1  0  0  0
  2 14  2  0  0  0  0
  3 14  1  0  0  0  0
  3 11  1  0  0  0  0
  4 16  2  0  0  0  0
  5 17  1  0  0  0  0
  6  4  1  0  0  0  0
  7 13  1  0  0  0  0
  7  5  2  0  0  0  0
  9  6  2  0  0  0  0
 10 13  1  0  0  0  0
 10  2  1  0  0  0  0
 11  8  1  0  0  0  0
 12  1  1  6  0  0  0
 12  7  1  0  0  0  0
 12  5  1  0  0  0  0
 13  3  2  0  0  0  0
 14 16  1  0  0  0  0
 15  2  1  0  0  0  0
 15  6  1  0  0  0  0
 17 11  2  0  0  0  0
 19 18  1  1  0  0  0
 19 21  1  0  0  0  0
 20 21  2  0  0  0  0
 21 22  1  0  0  0  0
 22 23  1  0  0  0  0
 24 28  1  0  0  0  0
 25 23  1  6  0  0  0
 25 28  1  0  0  0  0
 26 25  1  0  0  0  0
 27 26  1  0  0  0  0
 27 24  1  0  0  0  0
 30 29  1  1  0  0  0
 30  1  1  0  0  0  0
 31 30  1  0  0  0  0
 32 31  1  0  0  0  0
 33 32  1  0  0  0  0
 34 33  1  0  0  0  0
 35 30  1  0  0  0  0
 36 37  1  0  0  0  0
 36 35  1  0  0  0  0
M  END
>  <MODEL>
5

>  <REMARK>
 VINA RESULT:      -6.2      2.501      8.404
  Name = 
  12 active torsions:
  status: ('A' for Active; 'I' for Inactive)
    1  A    between atoms: N_7  and  C_29
    2  A    between atoms: N_7  and  C_36
    3  A    between atoms: C_8  and  C_28
    4  A    between atoms: C_13  and  O_14
    5  A    between atoms: C_13  and  C_29
    6  A    between atoms: O_15  and  C_20
    7  A    between atoms: O_15  and  C_28
    8  A    between atoms: C_16  and  C_23
    9  A    between atoms: C_16  and  C_24
   10  A    between atoms: C_16  and  C_29
   11  A    between atoms: C_18  and  C_36
   12  A    between atoms: C_20  and  C_23
                            x       y       z     vdW  Elec       q    Type
                         _______ _______ _______ _____ _____    ______ ____

>  <TORSDO>
F 12

$$$$
=
 OpenBabel11042418333D

 37 41  0  0  1  0  0  0  0  0999 V2000
  190.1720  174.0940  143.1050 C   0  0  2  0  0  3  0  0  0  0  0  0
  186.0980  177.5420  141.5750 C   0  0  0  0  0  0  0  0  0  0  0  0
  186.8580  176.9960  143.5960 C   0  0  0  0  0  0  0  0  0  0  0  0
  183.5090  178.2540  142.4950 N   0  0  0  0  0  0  0  0  0  0  0  0
  189.2010  175.8870  144.3890 C   0  0  0  0  0  0  0  0  0  0  0  0
  183.7780  178.3180  141.0810 C   0  0  0  0  0  0  0  0  0  0  0  0
  188.9360  176.1860  142.9770 C   0  0  0  0  0  0  0  0  0  0  0  0
  186.0520  176.9890  146.0260 C   0  0  0  0  0  1  0  0  0  0  0  0
  182.8450  178.6100  140.2900 O   0  0  0  0  0  0  0  0  0  0  0  0
  187.3210  177.0730  141.3750 O   0  0  0  0  0  0  0  0  0  0  0  0
  187.0980  176.6980  145.0030 C   0  0  0  0  0  0  0  0  0  0  0  0
  190.1550  175.6100  143.3940 C   0  0  2  0  0  3  0  0  0  0  0  0
  187.7720  176.7380  142.5600 C   0  0  0  0  0  0  0  0  0  0  0  0
  185.7710  177.4940  142.9140 C   0  0  0  0  0  0  0  0  0  0  0  0
  185.1540  178.0210  140.5170 C   0  0  0  0  0  2  0  0  0  0  0  0
  184.4940  177.8570  143.4150 N   0  0  0  0  0  0  0  0  0  0  0  0
  188.3460  176.1130  145.4450 C   0  0  0  0  0  3  0  0  0  0  0  0
  189.7140  172.5760  145.1070 C   0  0  0  0  0  1  0  0  0  0  0  0
  190.7900  173.2430  144.2510 C   0  0  2  0  0  3  0  0  0  0  0  0
  191.4130  174.4840  146.2190 O   0  0  0  0  0  0  0  0  0  0  0  0
  191.7790  173.9740  145.1170 C   0  0  0  0  0  0  0  0  0  0  0  0
  193.0960  174.1280  144.6650 O   0  0  0  0  0  0  0  0  0  0  0  0
  194.2140  173.9590  145.5350 C   0  0  0  0  0  2  0  0  0  0  0  0
  194.7390  177.5080  145.6630 N   0  0  0  0  0  2  0  0  0  0  0  0
  195.0610  175.2280  145.5930 C   0  0  1  0  0  3  0  0  0  0  0  0
  195.2440  175.7720  144.3210 O   0  0  0  0  0  0  0  0  0  0  0  0
  195.5000  177.0930  144.5500 N   0  0  0  0  0  2  0  0  0  0  0  0
  194.4210  176.3040  146.3990 C   0  0  0  0  0  2  0  0  0  0  0  0
  191.2200  172.2380  141.6100 C   0  0  0  0  0  1  0  0  0  0  0  0
  190.7350  173.6910  141.6900 C   0  0  1  0  0  0  0  0  0  0  0  0
  189.7560  173.9300  140.6160 N   0  0  0  0  0  2  0  0  0  0  0  0
  188.7470  172.8730  140.5800 C   0  0  0  0  0  2  0  0  0  0  0  0
  188.3580  172.5950  139.1420 C   0  0  0  0  0  2  0  0  0  0  0  0
  189.2040  171.5420  138.6080 N   0  0  0  0  0  1  0  0  0  0  0  0
  191.9500  174.5740  141.4120 C   0  0  0  0  0  2  0  0  0  0  0  0
  193.1220  173.8120  141.3720 O   0  0  0  0  0  0  0  0  0  0  0  0
  194.1370  174.7180  141.0690 C   0  0  0  0  0  1  0  0  0  0  0  0
  1 19  1  1  0  0  0
  2 14  2  0  0  0  0
  3 11  1  0  0  0  0
  4 16  2  0  0  0  0
  5 17  1  0  0  0  0
  6  4  1  0  0  0  0
  7 12  1  0  0  0  0
  7  5  2  0  0  0  0
  9  6  2  0  0  0  0
 10  2  1  0  0  0  0
 10 13  1  0  0  0  0
 11 17  2  0  0  0  0
 11  8  1  0  0  0  0
 12  1  1  6  0  0  0
 12  5  1  0  0  0  0
 13  7  1  0  0  0  0
 13  3  2  0  0  0  0
 14 16  1  0  0  0  0
 14  3  1  0  0  0  0
 15  6  1  0  0  0  0
 15  2  1  0  0  0  0
 19 18  1  1  0  0  0
 19 21  1  0  0  0  0
 21 20  2  0  0  0  0
 22 21  1  0  0  0  0
 22 23  1  0  0  0  0
 24 28  1  0  0  0  0
 25 23  1  6  0  0  0
 25 28  1  0  0  0  0
 26 27  1  0  0  0  0
 26 25  1  0  0  0  0
 27 24  1  0  0  0  0
 30 29  1  1  0  0  0
 30  1  1  0  0  0  0
 31 30  1  0  0  0  0
 32 31  1  0  0  0  0
 33 32  1  0  0  0  0
 34 33  1  0  0  0  0
 35 30  1  0  0  0  0
 36 35  1  0  0  0  0
 37 36  1  0  0  0  0
M  END
>  <MODEL>
6

>  <REMARK>
 VINA RESULT:      -6.1      1.549      2.070
  Name = 
  12 active torsions:
  status: ('A' for Active; 'I' for Inactive)
    1  A    between atoms: N_7  and  C_29
    2  A    between atoms: N_7  and  C_36
    3  A    between atoms: C_8  and  C_28
    4  A    between atoms: C_13  and  O_14
    5  A    between atoms: C_13  and  C_29
    6  A    between atoms: O_15  and  C_20
    7  A    between atoms: O_15  and  C_28
    8  A    between atoms: C_16  and  C_23
    9  A    between atoms: C_16  and  C_24
   10  A    between atoms: C_16  and  C_29
   11  A    between atoms: C_18  and  C_36
   12  A    between atoms: C_20  and  C_23
                            x       y       z     vdW  Elec       q    Type
                         _______ _______ _______ _____ _____    ______ ____

>  <TORSDO>
F 12

$$$$
=
 OpenBabel11042418333D

 37 41  0  0  1  0  0  0  0  0999 V2000
  189.0580  176.6820  143.3020 C   0  0  2  0  0  3  0  0  0  0  0  0
  189.5070  172.5290  139.6450 C   0  0  0  0  0  0  0  0  0  0  0  0
  190.9250  173.2540  141.2030 C   0  0  0  0  0  0  0  0  0  0  0  0
  191.5330  171.3950  138.0110 N   0  0  0  0  0  0  0  0  0  0  0  0
  190.5340  174.7800  143.4090 C   0  0  0  0  0  0  0  0  0  0  0  0
  190.1680  171.3420  137.5510 C   0  0  0  0  0  0  0  0  0  0  0  0
  189.4180  174.4020  142.5330 C   0  0  0  0  0  0  0  0  0  0  0  0
  193.4310  173.1830  141.7170 C   0  0  0  0  0  1  0  0  0  0  0  0
  189.9210  170.8690  136.4130 O   0  0  0  0  0  0  0  0  0  0  0  0
  188.7630  173.2020  140.5110 O   0  0  0  0  0  0  0  0  0  0  0  0
  192.0480  173.6270  142.0540 C   0  0  0  0  0  0  0  0  0  0  0  0
  189.2180  175.1950  143.6830 C   0  0  2  0  0  3  0  0  0  0  0  0
  189.5920  173.6420  141.4260 C   0  0  0  0  0  0  0  0  0  0  0  0
  190.8340  172.5540  140.0210 C   0  0  0  0  0  0  0  0  0  0  0  0
  189.0220  171.8630  138.3960 C   0  0  0  0  0  2  0  0  0  0  0  0
  191.8730  171.9840  139.2400 N   0  0  0  0  0  0  0  0  0  0  0  0
  191.8560  174.4350  143.2400 C   0  0  0  0  0  3  0  0  0  0  0  0
  191.0500  178.1670  143.8940 C   0  0  0  0  0  1  0  0  0  0  0  0
  189.6760  177.6660  144.3370 C   0  0  2  0  0  3  0  0  0  0  0  0
  190.8350  176.7980  146.2610 O   0  0  0  0  0  0  0  0  0  0  0  0
  189.7300  177.1470  145.7470 C   0  0  0  0  0  0  0  0  0  0  0  0
  188.5360  177.0050  146.4660 O   0  0  0  0  0  0  0  0  0  0  0  0
  188.0150  178.0610  147.2730 C   0  0  0  0  0  2  0  0  0  0  0  0
  184.5920  177.3020  146.5020 N   0  0  0  0  0  2  0  0  0  0  0  0
  186.5450  177.8210  147.6080 C   0  0  1  0  0  3  0  0  0  0  0  0
  185.7870  178.9760  147.4170 O   0  0  0  0  0  0  0  0  0  0  0  0
  184.5170  178.5200  147.2100 N   0  0  0  0  0  2  0  0  0  0  0  0
  185.9230  176.7870  146.7350 C   0  0  0  0  0  2  0  0  0  0  0  0
  186.5910  175.9550  142.8940 C   0  0  0  0  0  1  0  0  0  0  0  0
  187.6040  177.1060  142.8680 C   0  0  1  0  0  0  0  0  0  0  0  0
  187.0870  178.2210  143.6800 N   0  0  0  0  0  2  0  0  0  0  0  0
  186.2230  179.0920  142.8870 C   0  0  0  0  0  2  0  0  0  0  0  0
  184.9740  179.4210  143.6780 C   0  0  0  0  0  2  0  0  0  0  0  0
  183.9050  178.5160  143.2920 N   0  0  0  0  0  1  0  0  0  0  0  0
  187.6820  177.5880  141.4190 C   0  0  0  0  0  2  0  0  0  0  0  0
  187.1920  176.6150  140.5430 O   0  0  0  0  0  0  0  0  0  0  0  0
  186.4430  177.3160  139.6000 C   0  0  0  0  0  1  0  0  0  0  0  0
  1 19  1  1  0  0  0
  2 14  2  0  0  0  0
  2 10  1  0  0  0  0
  3 13  2  0  0  0  0
  3 11  1  0  0  0  0
  4 16  2  0  0  0  0
  5 12  1  0  0  0  0
  6  4  1  0  0  0  0
  6 15  1  0  0  0  0
  7  5  2  0  0  0  0
  7 12  1  0  0  0  0
  8 11  1  0  0  0  0
  9  6  2  0  0  0  0
 10 13  1  0  0  0  0
 11 17  2  0  0  0  0
 12  1  1  6  0  0  0
 13  7  1  0  0  0  0
 14  3  1  0  0  0  0
 15  2  1  0  0  0  0
 16 14  1  0  0  0  0
 17  5  1  0  0  0  0
 19 18  1  6  0  0  0
 19 21  1  0  0  0  0
 21 20  2  0  0  0  0
 21 22  1  0  0  0  0
 22 23  1  0  0  0  0
 24 28  1  0  0  0  0
 24 27  1  0  0  0  0
 25 23  1  6  0  0  0
 26 25  1  0  0  0  0
 27 26  1  0  0  0  0
 28 25  1  0  0  0  0
 30 29  1  1  0  0  0
 30  1  1  0  0  0  0
 30 31  1  0  0  0  0
 32 33  1  0  0  0  0
 32 31  1  0  0  0  0
 34 33  1  0  0  0  0
 35 30  1  0  0  0  0
 36 35  1  0  0  0  0
 37 36  1  0  0  0  0
M  END
>  <MODEL>
7

>  <REMARK>
 VINA RESULT:      -6.0      3.055      7.431
  Name = 
  12 active torsions:
  status: ('A' for Active; 'I' for Inactive)
    1  A    between atoms: N_7  and  C_29
    2  A    between atoms: N_7  and  C_36
    3  A    between atoms: C_8  and  C_28
    4  A    between atoms: C_13  and  O_14
    5  A    between atoms: C_13  and  C_29
    6  A    between atoms: O_15  and  C_20
    7  A    between atoms: O_15  and  C_28
    8  A    between atoms: C_16  and  C_23
    9  A    between atoms: C_16  and  C_24
   10  A    between atoms: C_16  and  C_29
   11  A    between atoms: C_18  and  C_36
   12  A    between atoms: C_20  and  C_23
                            x       y       z     vdW  Elec       q    Type
                         _______ _______ _______ _____ _____    ______ ____

>  <TORSDO>
F 12

$$$$
=
 OpenBabel11042418333D

 37 41  0  0  1  0  0  0  0  0999 V2000
  188.4560  176.9700  143.6700 C   0  0  2  0  0  3  0  0  0  0  0  0
  188.9550  173.4850  139.3770 C   0  0  0  0  0  0  0  0  0  0  0  0
  190.3330  173.9040  141.0770 C   0  0  0  0  0  0  0  0  0  0  0  0
  191.0150  172.5970  137.6370 N   0  0  0  0  0  0  0  0  0  0  0  0
  189.8940  175.0450  143.4970 C   0  0  0  0  0  0  0  0  0  0  0  0
  189.6660  172.6540  137.1340 C   0  0  0  0  0  0  0  0  0  0  0  0
  188.8020  174.8450  142.5370 C   0  0  0  0  0  0  0  0  0  0  0  0
  192.8190  173.6900  141.6480 C   0  0  0  0  0  1  0  0  0  0  0  0
  189.4490  172.3860  135.9250 O   0  0  0  0  0  0  0  0  0  0  0  0
  188.1950  174.0190  140.3220 O   0  0  0  0  0  0  0  0  0  0  0  0
  191.4330  174.1020  142.0130 C   0  0  0  0  0  0  0  0  0  0  0  0
  188.5780  175.4370  143.7990 C   0  0  2  0  0  3  0  0  0  0  0  0
  189.0000  174.2790  141.3230 C   0  0  0  0  0  0  0  0  0  0  0  0
  190.2700  173.4160  139.7920 C   0  0  0  0  0  0  0  0  0  0  0  0
  188.5010  173.0510  138.0200 C   0  0  0  0  0  2  0  0  0  0  0  0
  191.3240  172.9630  138.9580 N   0  0  0  0  0  0  0  0  0  0  0  0
  191.2160  174.7030  143.3120 C   0  0  0  0  0  3  0  0  0  0  0  0
  190.5700  178.2910  144.2280 C   0  0  0  0  0  1  0  0  0  0  0  0
  189.2410  177.7560  144.7600 C   0  0  2  0  0  3  0  0  0  0  0  0
  188.4510  176.6310  146.7370 O   0  0  0  0  0  0  0  0  0  0  0  0
  189.4460  177.0110  146.0500 C   0  0  0  0  0  0  0  0  0  0  0  0
  190.7520  176.7890  146.5070 O   0  0  0  0  0  0  0  0  0  0  0  0
  191.1710  175.5150  146.9930 C   0  0  0  0  0  2  0  0  0  0  0  0
  194.2940  175.7430  145.2380 N   0  0  0  0  0  2  0  0  0  0  0  0
  192.6780  175.3330  146.8280 C   0  0  1  0  0  3  0  0  0  0  0  0
  192.9730  174.1570  146.1380 O   0  0  0  0  0  0  0  0  0  0  0  0
  194.2060  174.3810  145.5960 N   0  0  0  0  0  2  0  0  0  0  0  0
  193.3000  176.4280  146.0330 C   0  0  0  0  0  2  0  0  0  0  0  0
  185.9410  176.4040  143.3030 C   0  0  0  0  0  1  0  0  0  0  0  0
  186.9880  177.5100  143.4840 C   0  0  1  0  0  0  0  0  0  0  0  0
  186.5750  178.3850  144.5950 N   0  0  0  0  0  2  0  0  0  0  0  0
  185.1960  178.1110  144.9940 C   0  0  0  0  0  2  0  0  0  0  0  0
  185.1330  177.9260  146.4960 C   0  0  0  0  0  2  0  0  0  0  0  0
  185.7950  179.0420  147.1490 N   0  0  0  0  0  1  0  0  0  0  0  0
  186.9670  178.3470  142.2050 C   0  0  0  0  0  2  0  0  0  0  0  0
  187.7380  177.7470  141.2040 O   0  0  0  0  0  0  0  0  0  0  0  0
  186.8590  177.5400  140.1420 C   0  0  0  0  0  1  0  0  0  0  0  0
  1 19  1  1  0  0  0
  2 14  2  0  0  0  0
  2 10  1  0  0  0  0
  3 13  2  0  0  0  0
  3 11  1  0  0  0  0
  4 16  2  0  0  0  0
  5 12  1  0  0  0  0
  6  4  1  0  0  0  0
  6 15  1  0  0  0  0
  7  5  2  0  0  0  0
  7 12  1  0  0  0  0
  8 11  1  0  0  0  0
  9  6  2  0  0  0  0
 10 13  1  0  0  0  0
 11 17  2  0  0  0  0
 12  1  1  6  0  0  0
 13  7  1  0  0  0  0
 14  3  1  0  0  0  0
 15  2  1  0  0  0  0
 16 14  1  0  0  0  0
 17  5  1  0  0  0  0
 19 18  1  6  0  0  0
 19 21  1  0  0  0  0
 21 22  1  0  0  0  0
 21 20  2  0  0  0  0
 22 23  1  0  0  0  0
 24 27  1  0  0  0  0
 24 28  1  0  0  0  0
 25 23  1  6  0  0  0
 26 25  1  0  0  0  0
 27 26  1  0  0  0  0
 28 25  1  0  0  0  0
 30 29  1  6  0  0  0
 30  1  1  0  0  0  0
 30 31  1  0  0  0  0
 31 32  1  0  0  0  0
 32 33  1  0  0  0  0
 33 34  1  0  0  0  0
 35 30  1  0  0  0  0
 36 35  1  0  0  0  0
 37 36  1  0  0  0  0
M  END
>  <MODEL>
8

>  <REMARK>
 VINA RESULT:      -6.0      2.479      6.040
  Name = 
  12 active torsions:
  status: ('A' for Active; 'I' for Inactive)
    1  A    between atoms: N_7  and  C_29
    2  A    between atoms: N_7  and  C_36
    3  A    between atoms: C_8  and  C_28
    4  A    between atoms: C_13  and  O_14
    5  A    between atoms: C_13  and  C_29
    6  A    between atoms: O_15  and  C_20
    7  A    between atoms: O_15  and  C_28
    8  A    between atoms: C_16  and  C_23
    9  A    between atoms: C_16  and  C_24
   10  A    between atoms: C_16  and  C_29
   11  A    between atoms: C_18  and  C_36
   12  A    between atoms: C_20  and  C_23
                            x       y       z     vdW  Elec       q    Type
                         _______ _______ _______ _____ _____    ______ ____

>  <TORSDO>
F 12

$$$$
=
 OpenBabel11042418333D

 37 41  0  0  1  0  0  0  0  0999 V2000
  190.8150  175.7710  143.7140 C   0  0  2  0  0  3  0  0  0  0  0  0
  186.2010  178.0990  141.6870 C   0  0  0  0  0  0  0  0  0  0  0  0
  186.9150  177.8750  143.7840 C   0  0  0  0  0  0  0  0  0  0  0  0
  183.4590  178.2680  142.4020 N   0  0  0  0  0  0  0  0  0  0  0  0
  189.3820  177.3800  144.7930 C   0  0  0  0  0  0  0  0  0  0  0  0
  183.8080  178.2960  141.0050 C   0  0  0  0  0  0  0  0  0  0  0  0
  189.1590  177.5160  143.3480 C   0  0  0  0  0  0  0  0  0  0  0  0
  185.9590  177.8480  146.1590 C   0  0  0  0  0  1  0  0  0  0  0  0
  182.8930  178.3160  140.1430 O   0  0  0  0  0  0  0  0  0  0  0  0
  187.5080  177.9060  141.5930 O   0  0  0  0  0  0  0  0  0  0  0  0
  187.1130  177.7340  145.2220 C   0  0  0  0  0  0  0  0  0  0  0  0
  190.4430  177.2600  143.8770 C   0  0  2  0  0  3  0  0  0  0  0  0
  187.9350  177.7620  142.8240 C   0  0  0  0  0  0  0  0  0  0  0  0
  185.7970  178.0680  143.0060 C   0  0  0  0  0  0  0  0  0  0  0  0
  185.2530  178.2810  140.5430 C   0  0  0  0  0  2  0  0  0  0  0  0
  184.4380  178.1660  143.4040 N   0  0  0  0  0  0  0  0  0  0  0  0
  188.4250  177.4770  145.7780 C   0  0  0  0  0  3  0  0  0  0  0  0
  189.7970  173.9220  145.1530 C   0  0  0  0  0  1  0  0  0  0  0  0
  189.6160  174.7990  143.9140 C   0  0  2  0  0  3  0  0  0  0  0  0
  188.8450  172.7760  142.8600 O   0  0  0  0  0  0  0  0  0  0  0  0
  189.2780  173.9580  142.7130 C   0  0  0  0  0  0  0  0  0  0  0  0
  189.4990  174.4810  141.4330 O   0  0  0  0  0  0  0  0  0  0  0  0
  188.4350  174.6520  140.4970 C   0  0  0  0  0  2  0  0  0  0  0  0
  189.2720  171.6920  138.6480 N   0  0  0  0  0  2  0  0  0  0  0  0
  188.6860  173.8430  139.2280 C   0  0  1  0  0  3  0  0  0  0  0  0
  190.0460  173.7890  138.9220 O   0  0  0  0  0  0  0  0  0  0  0  0
  190.1800  172.6590  138.1670 N   0  0  0  0  0  2  0  0  0  0  0  0
  188.2490  172.4250  139.3600 C   0  0  0  0  0  2  0  0  0  0  0  0
  193.1770  176.3950  144.6140 C   0  0  0  0  0  1  0  0  0  0  0  0
  192.0960  175.3120  144.5070 C   0  0  1  0  0  0  0  0  0  0  0  0
  191.7660  174.8270  145.8580 N   0  0  0  0  0  2  0  0  0  0  0  0
  192.2860  175.7310  146.8810 C   0  0  0  0  0  2  0  0  0  0  0  0
  191.1930  176.0400  147.8840 C   0  0  0  0  0  2  0  0  0  0  0  0
  191.5670  177.2090  148.6620 N   0  0  0  0  0  1  0  0  0  0  0  0
  192.7180  174.1470  143.7370 C   0  0  0  0  0  2  0  0  0  0  0  0
  193.1630  173.1520  144.6120 O   0  0  0  0  0  0  0  0  0  0  0  0
  194.4220  172.7860  144.1390 C   0  0  0  0  0  1  0  0  0  0  0  0
  1 19  1  1  0  0  0
  1 30  1  0  0  0  0
  2 14  2  0  0  0  0
  3 11  1  0  0  0  0
  4 16  2  0  0  0  0
  5 17  1  0  0  0  0
  6  4  1  0  0  0  0
  7 12  1  0  0  0  0
  7  5  2  0  0  0  0
  9  6  2  0  0  0  0
 10  2  1  0  0  0  0
 10 13  1  0  0  0  0
 11 17  2  0  0  0  0
 11  8  1  0  0  0  0
 12  1  1  6  0  0  0
 12  5  1  0  0  0  0
 13  7  1  0  0  0  0
 13  3  2  0  0  0  0
 14 16  1  0  0  0  0
 14  3  1  0  0  0  0
 15  6  1  0  0  0  0
 15  2  1  0  0  0  0
 19 18  1  1  0  0  0
 21 20  2  0  0  0  0
 21 19  1  0  0  0  0
 22 21  1  0  0  0  0
 23 22  1  0  0  0  0
 24 28  1  0  0  0  0
 25 28  1  0  0  0  0
 25 23  1  1  0  0  0
 26 25  1  0  0  0  0
 27 24  1  0  0  0  0
 27 26  1  0  0  0  0
 30 29  1  1  0  0  0
 30 31  1  0  0  0  0
 31 32  1  0  0  0  0
 32 33  1  0  0  0  0
 33 34  1  0  0  0  0
 35 30  1  0  0  0  0
 35 36  1  0  0  0  0
 37 36  1  0  0  0  0
M  END
>  <MODEL>
9

>  <REMARK>
 VINA RESULT:      -6.0      2.173      4.924
  Name = 
  12 active torsions:
  status: ('A' for Active; 'I' for Inactive)
    1  A    between atoms: N_7  and  C_29
    2  A    between atoms: N_7  and  C_36
    3  A    between atoms: C_8  and  C_28
    4  A    between atoms: C_13  and  O_14
    5  A    between atoms: C_13  and  C_29
    6  A    between atoms: O_15  and  C_20
    7  A    between atoms: O_15  and  C_28
    8  A    between atoms: C_16  and  C_23
    9  A    between atoms: C_16  and  C_24
   10  A    between atoms: C_16  and  C_29
   11  A    between atoms: C_18  and  C_36
   12  A    between atoms: C_20  and  C_23
                            x       y       z     vdW  Elec       q    Type
                         _______ _______ _______ _____ _____    ______ ____

>  <TORSDO>
F 12

$$$$
