=
 OpenBabel11042417553D

 55 62  0  0  1  0  0  0  0  0999 V2000
  190.1160  174.0160  144.7620 C   0  0  2  0  0  3  0  0  0  0  0  0
  189.5640  174.1710  141.0290 C   0  0  2  0  0  3  0  0  0  0  0  0
  190.1160  173.2660  143.4480 C   0  0  0  0  0  2  0  0  0  0  0  0
  191.6080  179.4360  143.6510 F   0  0  0  0  0  0  0  0  0  0  0  0
  191.5490  175.8590  142.6420 C   0  0  0  0  0  2  0  0  0  0  0  0
  189.5400  174.3120  142.5590 C   0  0  1  0  0  3  0  0  0  0  0  0
  192.0250  177.1920  143.1640 C   0  0  0  0  0  3  0  0  0  0  0  0
  190.1050  175.5950  143.1220 C   0  0  1  0  0  0  0  0  0  0  0  0
  190.1410  175.4140  144.5230 O   0  0  0  0  0  0  0  0  0  0  0  0
  189.7580  178.0290  142.8720 C   0  0  0  0  0  3  0  0  0  0  0  0
  188.2290  176.1140  140.5730 C   0  0  0  0  0  2  0  0  0  0  0  0
  189.2410  176.7970  142.7560 C   0  0  0  0  0  0  0  0  0  0  0  0
  188.2560  174.6400  140.5080 N   0  0  1  0  0  0  0  0  0  0  0  0
  191.1690  178.2160  143.2580 C   0  0  0  0  0  0  0  0  0  0  0  0
  187.9610  176.6680  141.9810 C   0  0  2  0  0  3  0  0  0  0  0  0
  189.8930  172.7270  140.6290 C   0  0  0  0  0  1  0  0  0  0  0  0
  187.3740  175.3090  138.3280 C   0  0  0  0  0  2  0  0  0  0  0  0
  188.0390  174.2020  139.1100 C   0  0  1  0  0  3  0  0  0  0  0  0
  189.1880  174.3980  137.1540 C   0  0  2  0  0  3  0  0  0  0  0  0
  189.2440  173.8610  138.4530 O   0  0  0  0  0  0  0  0  0  0  0  0
  187.8500  175.0640  136.9400 C   0  0  0  0  0  2  0  0  0  0  0  0
  189.3820  173.3380  136.1750 N   0  0  0  0  0  2  0  0  0  0  0  0
  191.0600  172.9030  136.1780 S   0  0  0  0  0  0  0  0  0  0  0  0
  191.3610  171.8100  137.4130 F   0  0  0  0  0  0  0  0  0  0  0  0
  191.8880  174.1350  136.3970 O   0  0  0  0  0  0  0  0  0  0  0  0
  191.4300  172.2820  134.8620 O   0  0  0  0  0  0  0  0  0  0  0  0
  192.5960  173.0950  143.7290 O   0  0  0  0  0  0  0  0  0  0  0  0
  192.4930  173.2020  144.9810 C   0  0  0  0  0  0  0  0  0  0  0  0
  193.6270  172.9740  145.8210 N   0  0  0  0  0  2  0  0  0  0  0  0
  191.2600  173.6130  145.5660 N   0  0  0  0  0  2  0  0  0  0  0  0
  194.8250  172.3910  145.3700 N   0  0  0  0  0  2  0  0  0  0  0  0
  195.9590  173.1490  144.9420 C   0  0  0  0  0  0  0  0  0  0  0  0
  197.0850  173.5590  146.0570 S   0  0  0  0  0  0  0  0  0  0  0  0
  196.0630  173.5570  143.5700 N   0  0  0  0  0  2  0  0  0  0  0  0
  195.0540  175.9640  141.0000 C   0  0  2  0  0  3  0  0  0  0  0  0
  194.9950  174.7650  141.8040 C   0  0  2  0  0  3  0  0  0  0  0  0
  196.3190  176.3850  143.3270 S   0  0  0  0  0  0  0  0  0  0  0  0
  195.3090  175.4640  139.6450 N   0  0  0  0  0  2  0  0  0  0  0  0
  196.2440  176.7440  141.5380 C   0  0  0  0  0  2  0  0  0  0  0  0
  195.6080  174.7790  142.9730 C   0  0  2  0  0  3  0  0  0  0  0  0
  194.9590  174.0870  139.6210 N   0  0  0  0  0  2  0  0  0  0  0  0
  194.9440  173.6540  140.9560 N   0  0  0  0  0  2  0  0  0  0  0  0
  186.8580  175.9240  142.7330 C   0  0  0  0  0  2  0  0  0  0  0  0
  185.3860  178.5000  146.9650 C   0  0  0  0  0  3  0  0  0  0  0  0
  186.5630  177.0460  145.4430 C   0  0  0  0  0  3  0  0  0  0  0  0
  186.4260  177.6010  146.7170 C   0  0  0  0  0  3  0  0  0  0  0  0
  184.8250  177.2500  142.1620 C   0  0  0  0  0  3  0  0  0  0  0  0
  185.7640  176.8670  143.1260 C   0  0  0  0  0  0  0  0  0  0  0  0
  184.6240  178.3020  144.7240 C   0  0  0  0  0  0  0  0  0  0  0  0
  183.7310  178.6500  143.7610 N   0  0  0  0  0  0  0  0  0  0  0  0
  183.8100  178.1460  142.4990 C   0  0  0  0  0  0  0  0  0  0  0  0
  184.5140  178.8290  145.9740 N   0  0  0  0  0  0  0  0  0  0  0  0
  185.6650  177.3930  144.4270 C   0  0  0  0  0  0  0  0  0  0  0  0
  182.8400  178.5310  141.5130 C   0  0  0  0  0  0  0  0  0  0  0  0
  182.0570  178.8450  140.7200 N   0  0  0  0  0  0  0  0  0  0  0  0
  1 30  1  1  0  0  0
  2 16  1  1  0  0  0
  2  6  1  0  0  0  0
  3  1  1  0  0  0  0
  5  7  1  0  0  0  0
  6  8  1  0  0  0  0
  6  3  1  1  0  0  0
  7 14  2  0  0  0  0
  8  5  1  6  0  0  0
  8  9  1  0  0  0  0
  9  1  1  0  0  0  0
 10 14  1  0  0  0  0
 11 15  1  0  0  0  0
 12 10  2  0  0  0  0
 12  8  1  0  0  0  0
 13 11  1  6  0  0  0
 13  2  1  0  0  0  0
 14  4  1  0  0  0  0
 15 43  1  1  0  0  0
 15 12  1  0  0  0  0
 18 17  1  6  0  0  0
 18 13  1  0  0  0  0
 19 22  1  6  0  0  0
 19 20  1  0  0  0  0
 20 18  1  0  0  0  0
 21 19  1  0  0  0  0
 21 17  1  0  0  0  0
 22 23  1  0  0  0  0
 23 25  2  0  0  0  0
 23 24  1  0  0  0  0
 26 23  2  0  0  0  0
 27 28  2  0  0  0  0
 28 30  1  0  0  0  0
 28 29  1  0  0  0  0
 31 29  1  0  0  0  0
 32 31  1  0  0  0  0
 32 33  2  0  0  0  0
 34 32  1  0  0  0  0
 35 39  1  1  0  0  0
 35 36  1  0  0  0  0
 36 42  1  6  0  0  0
 36 40  1  0  0  0  0
 38 35  1  0  0  0  0
 39 37  1  0  0  0  0
 40 37  1  0  0  0  0
 40 34  1  6  0  0  0
 41 38  1  0  0  0  0
 41 42  1  0  0  0  0
 43 48  1  0  0  0  0
 45 46  2  0  0  0  0
 46 44  1  0  0  0  0
 47 51  2  0  0  0  0
 47 48  1  0  0  0  0
 48 53  2  0  0  0  0
 49 52  1  0  0  0  0
 50 49  2  0  0  0  0
 51 50  1  0  0  0  0
 52 44  2  0  0  0  0
 53 49  1  0  0  0  0
 53 45  1  0  0  0  0
 54 51  1  0  0  0  0
 55 54  3  0  0  0  0
M  END
>  <MODEL>
1

>  <REMARK>
 VINA RESULT:      -8.0      0.000      0.000
  Name = 
  11 active torsions:
  status: ('A' for Active; 'I' for Inactive)
    1  A    between atoms: C_3  and  N_54
    2  A    between atoms: N_10  and  S_17
    3  A    between atoms: N_10  and  C_36
    4  A    between atoms: C_23  and  N_25
    5  A    between atoms: C_24  and  C_43
    6  A    between atoms: N_25  and  C_40
    7  A    between atoms: C_30  and  N_34
    8  A    between atoms: N_39  and  N_41
    9  A    between atoms: C_40  and  N_41
   10  A    between atoms: C_43  and  C_47
   11  A    between atoms: C_46  and  C_48
                            x       y       z     vdW  Elec       q    Type
                         _______ _______ _______ _____ _____    ______ ____

>  <TORSDO>
F 11

$$$$
=
 OpenBabel11042417553D

 55 62  0  0  1  0  0  0  0  0999 V2000
  190.0980  174.2840  146.0070 C   0  0  2  0  0  3  0  0  0  0  0  0
  192.3950  175.7300  143.3810 C   0  0  2  0  0  3  0  0  0  0  0  0
  191.0360  175.4070  145.6220 C   0  0  0  0  0  2  0  0  0  0  0  0
  187.6060  172.4020  141.2030 F   0  0  0  0  0  0  0  0  0  0  0  0
  189.4220  175.0800  143.0310 C   0  0  0  0  0  2  0  0  0  0  0  0
  191.5790  174.8600  144.3490 C   0  0  1  0  0  3  0  0  0  0  0  0
  188.3140  174.2840  142.3860 C   0  0  0  0  0  3  0  0  0  0  0  0
  190.3980  174.1270  143.7560 C   0  0  1  0  0  0  0  0  0  0  0  0
  189.7120  173.5570  144.8510 O   0  0  0  0  0  0  0  0  0  0  0  0
  189.9470  172.5410  141.9150 C   0  0  0  0  0  3  0  0  0  0  0  0
  192.9960  173.9520  141.8840 C   0  0  0  0  0  2  0  0  0  0  0  0
  190.8420  173.0460  142.7760 C   0  0  0  0  0  0  0  0  0  0  0  0
  193.5240  174.9100  142.8740 N   0  0  1  0  0  0  0  0  0  0  0  0
  188.5780  173.0860  141.8520 C   0  0  0  0  0  0  0  0  0  0  0  0
  192.2880  172.7400  142.5100 C   0  0  2  0  0  3  0  0  0  0  0  0
  192.8480  177.0210  144.0750 C   0  0  0  0  0  1  0  0  0  0  0  0
  195.6140  176.1170  143.2650 C   0  0  0  0  0  2  0  0  0  0  0  0
  194.5650  175.7520  142.2420 C   0  0  1  0  0  3  0  0  0  0  0  0
  196.5880  175.3700  141.2680 C   0  0  2  0  0  3  0  0  0  0  0  0
  195.2100  175.1030  141.1630 O   0  0  0  0  0  0  0  0  0  0  0  0
  196.8370  176.2920  142.4360 C   0  0  0  0  0  2  0  0  0  0  0  0
  197.0640  175.9820  140.0360 N   0  0  0  0  0  2  0  0  0  0  0  0
  197.0140  174.7840  138.7840 S   0  0  0  0  0  0  0  0  0  0  0  0
  195.4530  174.6470  138.1910 F   0  0  0  0  0  0  0  0  0  0  0  0
  197.4450  173.4620  139.3500 O   0  0  0  0  0  0  0  0  0  0  0  0
  197.9400  175.1720  137.6670 O   0  0  0  0  0  0  0  0  0  0  0  0
  189.1130  176.9320  145.7190 O   0  0  0  0  0  0  0  0  0  0  0  0
  188.4630  176.1490  146.4630 C   0  0  0  0  0  0  0  0  0  0  0  0
  187.2210  176.5630  147.0370 N   0  0  0  0  0  2  0  0  0  0  0  0
  188.9290  174.8210  146.6870 N   0  0  0  0  0  2  0  0  0  0  0  0
  186.7670  177.8950  147.0330 N   0  0  0  0  0  2  0  0  0  0  0  0
  185.7260  178.3710  146.1770 C   0  0  0  0  0  0  0  0  0  0  0  0
  184.2040  178.4490  146.7740 S   0  0  0  0  0  0  0  0  0  0  0  0
  186.0300  178.7300  144.8210 N   0  0  0  0  0  2  0  0  0  0  0  0
  186.2330  177.4500  141.3950 C   0  0  2  0  0  3  0  0  0  0  0  0
  186.6040  177.6220  142.7810 C   0  0  2  0  0  3  0  0  0  0  0  0
  184.0820  178.2020  142.8090 S   0  0  0  0  0  0  0  0  0  0  0  0
  187.3630  178.0240  140.6570 N   0  0  0  0  0  2  0  0  0  0  0  0
  184.9720  178.2800  141.2160 C   0  0  0  0  0  2  0  0  0  0  0  0
  185.6710  178.0350  143.6190 C   0  0  2  0  0  3  0  0  0  0  0  0
  188.4710  178.0870  141.5470 N   0  0  0  0  0  2  0  0  0  0  0  0
  187.9470  178.0090  142.8450 N   0  0  0  0  0  2  0  0  0  0  0  0
  193.0250  172.1530  143.7130 C   0  0  0  0  0  2  0  0  0  0  0  0
  197.5190  173.6670  145.7690 C   0  0  0  0  0  3  0  0  0  0  0  0
  195.1650  173.3560  145.3440 C   0  0  0  0  0  3  0  0  0  0  0  0
  196.1880  173.9020  146.1220 C   0  0  0  0  0  3  0  0  0  0  0  0
  194.8660  171.2450  142.2990 C   0  0  0  0  0  3  0  0  0  0  0  0
  194.4840  172.0010  143.4110 C   0  0  0  0  0  0  0  0  0  0  0  0
  196.8360  172.3720  143.8980 C   0  0  0  0  0  0  0  0  0  0  0  0
  197.1690  171.6300  142.8090 N   0  0  0  0  0  0  0  0  0  0  0  0
  196.2210  171.0690  142.0110 C   0  0  0  0  0  0  0  0  0  0  0  0
  197.8130  172.9150  144.6740 N   0  0  0  0  0  0  0  0  0  0  0  0
  195.4770  172.5790  144.2230 C   0  0  0  0  0  0  0  0  0  0  0  0
  196.6140  170.3010  140.8630 C   0  0  0  0  0  0  0  0  0  0  0  0
  196.9260  169.6810  139.9370 N   0  0  0  0  0  0  0  0  0  0  0  0
  1 30  1  6  0  0  0
  2 16  1  1  0  0  0
  2  6  1  0  0  0  0
  3  1  1  0  0  0  0
  4 14  1  0  0  0  0
  6  3  1  1  0  0  0
  7  5  1  0  0  0  0
  8  5  1  6  0  0  0
  8  6  1  0  0  0  0
  8  9  1  0  0  0  0
  9  1  1  0  0  0  0
 10 12  2  0  0  0  0
 11 15  1  0  0  0  0
 12  8  1  0  0  0  0
 13 11  1  6  0  0  0
 13  2  1  0  0  0  0
 14 10  1  0  0  0  0
 14  7  2  0  0  0  0
 15 12  1  0  0  0  0
 15 43  1  1  0  0  0
 18 13  1  0  0  0  0
 18 17  1  1  0  0  0
 19 22  1  6  0  0  0
 19 21  1  0  0  0  0
 20 19  1  0  0  0  0
 20 18  1  0  0  0  0
 21 17  1  0  0  0  0
 23 25  2  0  0  0  0
 23 22  1  0  0  0  0
 24 23  1  0  0  0  0
 26 23  2  0  0  0  0
 27 28  2  0  0  0  0
 28 30  1  0  0  0  0
 28 29  1  0  0  0  0
 31 29  1  0  0  0  0
 32 33  2  0  0  0  0
 32 31  1  0  0  0  0
 34 32  1  0  0  0  0
 35 39  1  1  0  0  0
 35 36  1  0  0  0  0
 36 42  1  6  0  0  0
 36 40  1  0  0  0  0
 37 40  1  0  0  0  0
 38 35  1  0  0  0  0
 38 41  1  0  0  0  0
 39 37  1  0  0  0  0
 40 34  1  6  0  0  0
 41 42  1  0  0  0  0
 44 46  1  0  0  0  0
 45 46  2  0  0  0  0
 47 48  1  0  0  0  0
 48 43  1  0  0  0  0
 48 53  2  0  0  0  0
 49 53  1  0  0  0  0
 49 52  1  0  0  0  0
 50 49  2  0  0  0  0
 51 47  2  0  0  0  0
 51 50  1  0  0  0  0
 52 44  2  0  0  0  0
 53 45  1  0  0  0  0
 54 51  1  0  0  0  0
 55 54  3  0  0  0  0
M  END
>  <MODEL>
2

>  <REMARK>
 VINA RESULT:      -8.0      3.568      9.138
  Name = 
  11 active torsions:
  status: ('A' for Active; 'I' for Inactive)
    1  A    between atoms: C_3  and  N_54
    2  A    between atoms: N_10  and  S_17
    3  A    between atoms: N_10  and  C_36
    4  A    between atoms: C_23  and  N_25
    5  A    between atoms: C_24  and  C_43
    6  A    between atoms: N_25  and  C_40
    7  A    between atoms: C_30  and  N_34
    8  A    between atoms: N_39  and  N_41
    9  A    between atoms: C_40  and  N_41
   10  A    between atoms: C_43  and  C_47
   11  A    between atoms: C_46  and  C_48
                            x       y       z     vdW  Elec       q    Type
                         _______ _______ _______ _____ _____    ______ ____

>  <TORSDO>
F 11

$$$$
=
 OpenBabel11042417553D

 55 62  0  0  1  0  0  0  0  0999 V2000
  188.2160  177.0100  142.5450 C   0  0  2  0  0  3  0  0  0  0  0  0
  189.4820  173.5860  143.5120 C   0  0  2  0  0  3  0  0  0  0  0  0
  188.0760  175.5130  142.3780 C   0  0  0  0  0  2  0  0  0  0  0  0
  190.0650  177.9840  147.8800 F   0  0  0  0  0  0  0  0  0  0  0  0
  188.4200  175.7340  145.4210 C   0  0  0  0  0  2  0  0  0  0  0  0
  189.2780  175.0600  143.1310 C   0  0  1  0  0  3  0  0  0  0  0  0
  188.6290  176.7150  146.5490 C   0  0  0  0  0  3  0  0  0  0  0  0
  189.3790  176.0630  144.2560 C   0  0  1  0  0  0  0  0  0  0  0  0
  188.9810  177.3000  143.7040 O   0  0  0  0  0  0  0  0  0  0  0  0
  191.0010  176.7160  146.0030 C   0  0  0  0  0  3  0  0  0  0  0  0
  191.7000  173.8540  144.3890 C   0  0  0  0  0  2  0  0  0  0  0  0
  190.8000  176.1500  144.8050 C   0  0  0  0  0  0  0  0  0  0  0  0
  190.9120  173.2530  143.2960 N   0  0  1  0  0  0  0  0  0  0  0  0
  189.8590  177.1650  146.8210 C   0  0  0  0  0  0  0  0  0  0  0  0
  191.9410  175.3630  144.2250 C   0  0  2  0  0  3  0  0  0  0  0  0
  188.5240  172.6900  142.7150 C   0  0  0  0  0  1  0  0  0  0  0  0
  191.6780  171.3790  141.9260 C   0  0  0  0  0  2  0  0  0  0  0  0
  191.1320  171.7900  143.2730 C   0  0  1  0  0  3  0  0  0  0  0  0
  192.8960  170.4080  143.6790 C   0  0  2  0  0  3  0  0  0  0  0  0
  192.0410  171.3590  144.2670 O   0  0  0  0  0  0  0  0  0  0  0  0
  192.4750  170.1650  142.2500 C   0  0  0  0  0  2  0  0  0  0  0  0
  192.8430  169.1660  144.4350 N   0  0  0  0  0  2  0  0  0  0  0  0
  194.2820  169.0580  145.3960 S   0  0  0  0  0  0  0  0  0  0  0  0
  194.7460  170.5870  145.8980 F   0  0  0  0  0  0  0  0  0  0  0  0
  195.3810  168.4540  144.5700 O   0  0  0  0  0  0  0  0  0  0  0  0
  194.0310  168.1930  146.5980 O   0  0  0  0  0  0  0  0  0  0  0  0
  186.4490  177.4040  140.3570 O   0  0  0  0  0  0  0  0  0  0  0  0
  186.0460  177.7550  141.4990 C   0  0  0  0  0  0  0  0  0  0  0  0
  184.7070  178.2230  141.6790 N   0  0  0  0  0  2  0  0  0  0  0  0
  186.9010  177.6280  142.6310 N   0  0  0  0  0  2  0  0  0  0  0  0
  183.8500  178.5600  140.6160 N   0  0  0  0  0  2  0  0  0  0  0  0
  182.5530  177.9860  140.4350 C   0  0  0  0  0  0  0  0  0  0  0  0
  182.3510  176.8830  139.2420 S   0  0  0  0  0  0  0  0  0  0  0  0
  181.4660  178.4110  141.2700 N   0  0  0  0  0  2  0  0  0  0  0  0
  178.1300  179.7190  140.5090 C   0  0  2  0  0  3  0  0  0  0  0  0
  179.5400  179.4600  140.3180 C   0  0  2  0  0  3  0  0  0  0  0  0
  178.8270  177.5200  141.8770 S   0  0  0  0  0  0  0  0  0  0  0  0
  178.0610  181.1760  140.6630 N   0  0  0  0  0  2  0  0  0  0  0  0
  177.7670  179.0050  141.8010 C   0  0  0  0  0  2  0  0  0  0  0  0
  180.0660  178.4330  140.9590 C   0  0  2  0  0  3  0  0  0  0  0  0
  179.2650  181.7220  140.1400 N   0  0  0  0  0  2  0  0  0  0  0  0
  180.1980  180.6760  140.1050 N   0  0  0  0  0  2  0  0  0  0  0  0
  192.3120  175.7740  142.8010 C   0  0  0  0  0  2  0  0  0  0  0  0
  193.9290  173.0510  138.7170 C   0  0  0  0  0  3  0  0  0  0  0  0
  192.5640  174.3120  140.2540 C   0  0  0  0  0  3  0  0  0  0  0  0
  192.7030  173.6350  139.0400 C   0  0  0  0  0  3  0  0  0  0  0  0
  194.6840  175.1200  143.2000 C   0  0  0  0  0  3  0  0  0  0  0  0
  193.5630  175.0770  142.3640 C   0  0  0  0  0  0  0  0  0  0  0  0
  194.8700  173.7910  140.7690 C   0  0  0  0  0  0  0  0  0  0  0  0
  195.9380  173.8530  141.6060 N   0  0  0  0  0  0  0  0  0  0  0  0
  195.8700  174.4980  142.8030 C   0  0  0  0  0  0  0  0  0  0  0  0
  194.9770  173.1390  139.5790 N   0  0  0  0  0  0  0  0  0  0  0  0
  193.6490  174.4020  141.1340 C   0  0  0  0  0  0  0  0  0  0  0  0
  197.0180  174.5320  143.6640 C   0  0  0  0  0  0  0  0  0  0  0  0
  197.9410  174.5580  144.3620 N   0  0  0  0  0  0  0  0  0  0  0  0
  1 30  1  1  0  0  0
  1  9  1  0  0  0  0
  2 16  1  6  0  0  0
  3  1  1  0  0  0  0
  5  7  1  0  0  0  0
  6  3  1  1  0  0  0
  6  2  1  0  0  0  0
  6  8  1  0  0  0  0
  7 14  2  0  0  0  0
  8 12  1  0  0  0  0
  8  5  1  1  0  0  0
  9  8  1  0  0  0  0
 10 14  1  0  0  0  0
 12 10  2  0  0  0  0
 13  2  1  0  0  0  0
 13 11  1  1  0  0  0
 14  4  1  0  0  0  0
 15 43  1  6  0  0  0
 15 11  1  0  0  0  0
 15 12  1  0  0  0  0
 17 21  1  0  0  0  0
 18 17  1  6  0  0  0
 18 13  1  0  0  0  0
 18 20  1  0  0  0  0
 19 20  1  0  0  0  0
 19 22  1  1  0  0  0
 21 19  1  0  0  0  0
 22 23  1  0  0  0  0
 23 24  1  0  0  0  0
 23 26  2  0  0  0  0
 25 23  2  0  0  0  0
 27 28  2  0  0  0  0
 28 29  1  0  0  0  0
 28 30  1  0  0  0  0
 31 29  1  0  0  0  0
 32 31  1  0  0  0  0
 32 34  1  0  0  0  0
 33 32  2  0  0  0  0
 35 38  1  0  0  0  0
 35 39  1  1  0  0  0
 36 42  1  1  0  0  0
 36 35  1  0  0  0  0
 36 40  1  0  0  0  0
 39 37  1  0  0  0  0
 40 34  1  1  0  0  0
 40 37  1  0  0  0  0
 41 38  1  0  0  0  0
 42 41  1  0  0  0  0
 44 46  1  0  0  0  0
 44 52  2  0  0  0  0
 45 53  1  0  0  0  0
 46 45  2  0  0  0  0
 48 43  1  0  0  0  0
 48 47  1  0  0  0  0
 49 53  1  0  0  0  0
 49 50  2  0  0  0  0
 50 51  1  0  0  0  0
 51 47  2  0  0  0  0
 51 54  1  0  0  0  0
 52 49  1  0  0  0  0
 53 48  2  0  0  0  0
 54 55  3  0  0  0  0
M  END
>  <MODEL>
3

>  <REMARK>
 VINA RESULT:      -7.9      3.902     10.847
  Name = 
  11 active torsions:
  status: ('A' for Active; 'I' for Inactive)
    1  A    between atoms: C_3  and  N_54
    2  A    between atoms: N_10  and  S_17
    3  A    between atoms: N_10  and  C_36
    4  A    between atoms: C_23  and  N_25
    5  A    between atoms: C_24  and  C_43
    6  A    between atoms: N_25  and  C_40
    7  A    between atoms: C_30  and  N_34
    8  A    between atoms: N_39  and  N_41
    9  A    between atoms: C_40  and  N_41
   10  A    between atoms: C_43  and  C_47
   11  A    between atoms: C_46  and  C_48
                            x       y       z     vdW  Elec       q    Type
                         _______ _______ _______ _____ _____    ______ ____

>  <TORSDO>
F 11

$$$$
=
 OpenBabel11042417553D

 55 62  0  0  1  0  0  0  0  0999 V2000
  192.6190  175.3050  142.6880 C   0  0  2  0  0  3  0  0  0  0  0  0
  189.1970  176.8860  142.9020 C   0  0  2  0  0  3  0  0  0  0  0  0
  191.8180  176.5820  142.8130 C   0  0  0  0  0  2  0  0  0  0  0  0
  189.6420  171.1450  145.2700 F   0  0  0  0  0  0  0  0  0  0  0  0
  190.3380  174.7660  144.7970 C   0  0  0  0  0  2  0  0  0  0  0  0
  190.4460  176.0430  142.6070 C   0  0  1  0  0  3  0  0  0  0  0  0
  190.3180  173.3760  145.3850 C   0  0  0  0  0  3  0  0  0  0  0  0
  190.5070  174.6840  143.2640 C   0  0  1  0  0  0  0  0  0  0  0  0
  191.8020  174.1870  142.9980 O   0  0  0  0  0  0  0  0  0  0  0  0
  189.1290  172.6360  143.3930 C   0  0  0  0  0  3  0  0  0  0  0  0
  187.6120  175.3060  142.0330 C   0  0  0  0  0  2  0  0  0  0  0  0
  189.4440  173.7420  142.7060 C   0  0  0  0  0  0  0  0  0  0  0  0
  188.2130  176.6370  141.8190 N   0  0  1  0  0  0  0  0  0  0  0  0
  189.7320  172.3770  144.7140 C   0  0  0  0  0  0  0  0  0  0  0  0
  188.5130  174.1410  141.5960 C   0  0  2  0  0  3  0  0  0  0  0  0
  189.5720  178.3660  143.0510 C   0  0  0  0  0  1  0  0  0  0  0  0
  186.3660  177.5700  140.5170 C   0  0  0  0  0  2  0  0  0  0  0  0
  187.1480  177.6650  141.8060 C   0  0  1  0  0  3  0  0  0  0  0  0
  184.9440  177.7250  142.3750 C   0  0  2  0  0  3  0  0  0  0  0  0
  186.2410  177.5260  142.8820 O   0  0  0  0  0  0  0  0  0  0  0  0
  185.0230  178.0750  140.9090 C   0  0  0  0  0  2  0  0  0  0  0  0
  184.2880  178.7950  143.1110 N   0  0  0  0  0  2  0  0  0  0  0  0
  184.7000  178.6280  144.7870 S   0  0  0  0  0  0  0  0  0  0  0  0
  185.0750  177.0300  145.1220 F   0  0  0  0  0  0  0  0  0  0  0  0
  183.5280  179.0470  145.6270 O   0  0  0  0  0  0  0  0  0  0  0  0
  185.8810  179.4960  145.1130 O   0  0  0  0  0  0  0  0  0  0  0  0
  195.1330  174.0980  142.1500 O   0  0  0  0  0  0  0  0  0  0  0  0
  195.0240  174.7620  143.2170 C   0  0  0  0  0  0  0  0  0  0  0  0
  196.1650  174.9810  144.0510 N   0  0  0  0  0  2  0  0  0  0  0  0
  193.7760  175.3530  143.5690 N   0  0  0  0  0  2  0  0  0  0  0  0
  197.3850  174.2970  143.8970 N   0  0  0  0  0  2  0  0  0  0  0  0
  197.5370  172.8950  144.1300 C   0  0  0  0  0  0  0  0  0  0  0  0
  197.9410  171.9370  142.8650 S   0  0  0  0  0  0  0  0  0  0  0  0
  197.3000  172.3620  145.4410 N   0  0  0  0  0  2  0  0  0  0  0  0
  195.3030  169.3600  146.0850 C   0  0  2  0  0  3  0  0  0  0  0  0
  196.4200  170.2710  146.1960 C   0  0  2  0  0  3  0  0  0  0  0  0
  194.4990  171.8400  145.4550 S   0  0  0  0  0  0  0  0  0  0  0  0
  195.8870  168.1660  145.4660 N   0  0  0  0  0  2  0  0  0  0  0  0
  194.3210  170.0480  145.1500 C   0  0  0  0  0  2  0  0  0  0  0  0
  196.2130  171.5360  145.8790 C   0  0  2  0  0  3  0  0  0  0  0  0
  197.2950  168.2330  145.6440 N   0  0  0  0  0  2  0  0  0  0  0  0
  197.6000  169.5740  145.9220 N   0  0  0  0  0  2  0  0  0  0  0  0
  189.2130  174.3750  140.2590 C   0  0  0  0  0  2  0  0  0  0  0  0
  189.7530  172.4090  135.5100 C   0  0  0  0  0  3  0  0  0  0  0  0
  189.2730  173.8890  137.3520 C   0  0  0  0  0  3  0  0  0  0  0  0
  189.3270  173.6540  135.9770 C   0  0  0  0  0  3  0  0  0  0  0  0
  189.9940  172.0170  140.4830 C   0  0  0  0  0  3  0  0  0  0  0  0
  189.6170  173.0710  139.6440 C   0  0  0  0  0  0  0  0  0  0  0  0
  190.0650  171.6350  137.7340 C   0  0  0  0  0  0  0  0  0  0  0  0
  190.4250  170.6360  138.5810 N   0  0  0  0  0  0  0  0  0  0  0  0
  190.3960  170.8000  139.9310 C   0  0  0  0  0  0  0  0  0  0  0  0
  190.1090  171.4340  136.3890 N   0  0  0  0  0  0  0  0  0  0  0  0
  189.6470  172.8820  138.2500 C   0  0  0  0  0  0  0  0  0  0  0  0
  190.7740  169.7150  140.7930 C   0  0  0  0  0  0  0  0  0  0  0  0
  191.0750  168.8380  141.4850 N   0  0  0  0  0  0  0  0  0  0  0  0
  1  3  1  0  0  0  0
  1  9  1  0  0  0  0
  1 30  1  1  0  0  0
  2 16  1  6  0  0  0
  5  7  1  0  0  0  0
  6  3  1  1  0  0  0
  6  2  1  0  0  0  0
  6  8  1  0  0  0  0
  8  5  1  1  0  0  0
  9  8  1  0  0  0  0
 10 14  1  0  0  0  0
 12  8  1  0  0  0  0
 12 10  2  0  0  0  0
 13 11  1  1  0  0  0
 13  2  1  0  0  0  0
 14  4  1  0  0  0  0
 14  7  2  0  0  0  0
 15 43  1  6  0  0  0
 15 11  1  0  0  0  0
 15 12  1  0  0  0  0
 17 21  1  0  0  0  0
 18 17  1  6  0  0  0
 18 13  1  0  0  0  0
 18 20  1  0  0  0  0
 19 20  1  0  0  0  0
 19 22  1  1  0  0  0
 21 19  1  0  0  0  0
 22 23  1  0  0  0  0
 23 26  2  0  0  0  0
 23 24  1  0  0  0  0
 23 25  2  0  0  0  0
 27 28  2  0  0  0  0
 28 30  1  0  0  0  0
 28 29  1  0  0  0  0
 31 29  1  0  0  0  0
 31 32  1  0  0  0  0
 32 34  1  0  0  0  0
 33 32  2  0  0  0  0
 35 39  1  6  0  0  0
 35 36  1  0  0  0  0
 36 42  1  6  0  0  0
 37 40  1  0  0  0  0
 38 41  1  0  0  0  0
 38 35  1  0  0  0  0
 39 37  1  0  0  0  0
 40 34  1  6  0  0  0
 40 36  1  0  0  0  0
 41 42  1  0  0  0  0
 44 46  1  0  0  0  0
 44 52  2  0  0  0  0
 45 53  1  0  0  0  0
 46 45  2  0  0  0  0
 48 43  1  0  0  0  0
 48 47  1  0  0  0  0
 49 53  1  0  0  0  0
 49 50  2  0  0  0  0
 50 51  1  0  0  0  0
 51 47  2  0  0  0  0
 51 54  1  0  0  0  0
 52 49  1  0  0  0  0
 53 48  2  0  0  0  0
 54 55  3  0  0  0  0
M  END
>  <MODEL>
4

>  <REMARK>
 VINA RESULT:      -7.7      3.455      7.590
  Name = 
  11 active torsions:
  status: ('A' for Active; 'I' for Inactive)
    1  A    between atoms: C_3  and  N_54
    2  A    between atoms: N_10  and  S_17
    3  A    between atoms: N_10  and  C_36
    4  A    between atoms: C_23  and  N_25
    5  A    between atoms: C_24  and  C_43
    6  A    between atoms: N_25  and  C_40
    7  A    between atoms: C_30  and  N_34
    8  A    between atoms: N_39  and  N_41
    9  A    between atoms: C_40  and  N_41
   10  A    between atoms: C_43  and  C_47
   11  A    between atoms: C_46  and  C_48
                            x       y       z     vdW  Elec       q    Type
                         _______ _______ _______ _____ _____    ______ ____

>  <TORSDO>
F 11

$$$$
=
 OpenBabel11042417553D

 55 62  0  0  1  0  0  0  0  0999 V2000
  192.7000  175.2630  143.2600 C   0  0  2  0  0  3  0  0  0  0  0  0
  189.2780  176.8350  142.9840 C   0  0  2  0  0  3  0  0  0  0  0  0
  191.8900  176.5400  143.2370 C   0  0  0  0  0  2  0  0  0  0  0  0
  189.4220  171.1850  145.5960 F   0  0  0  0  0  0  0  0  0  0  0  0
  190.1710  174.7890  145.0830 C   0  0  0  0  0  2  0  0  0  0  0  0
  190.5540  175.9870  142.8800 C   0  0  1  0  0  3  0  0  0  0  0  0
  190.0780  173.4210  145.7130 C   0  0  0  0  0  3  0  0  0  0  0  0
  190.5320  174.6530  143.5880 C   0  0  1  0  0  0  0  0  0  0  0  0
  191.8510  174.1530  143.5050 O   0  0  0  0  0  0  0  0  0  0  0  0
  189.1490  172.6050  143.6160 C   0  0  0  0  0  3  0  0  0  0  0  0
  187.8150  175.2170  141.9800 C   0  0  0  0  0  2  0  0  0  0  0  0
  189.5480  173.6870  142.9340 C   0  0  0  0  0  0  0  0  0  0  0  0
  188.4380  176.5420  141.7960 N   0  0  1  0  0  0  0  0  0  0  0  0
  189.5820  172.3960  145.0110 C   0  0  0  0  0  0  0  0  0  0  0  0
  188.7640  174.0410  141.7030 C   0  0  2  0  0  3  0  0  0  0  0  0
  189.6320  178.3210  143.1250 C   0  0  0  0  0  1  0  0  0  0  0  0
  186.7230  177.3760  140.2660 C   0  0  0  0  0  2  0  0  0  0  0  0
  187.3830  177.5640  141.6110 C   0  0  1  0  0  3  0  0  0  0  0  0
  185.1360  177.6590  141.9700 C   0  0  2  0  0  3  0  0  0  0  0  0
  186.3810  177.5010  142.6070 O   0  0  0  0  0  0  0  0  0  0  0  0
  185.3510  177.9040  140.4960 C   0  0  0  0  0  2  0  0  0  0  0  0
  184.4200  178.7780  142.5640 N   0  0  0  0  0  2  0  0  0  0  0  0
  184.6820  178.7360  144.2770 S   0  0  0  0  0  0  0  0  0  0  0  0
  185.9420  179.7630  144.6840 F   0  0  0  0  0  0  0  0  0  0  0  0
  185.0330  177.3360  144.6880 O   0  0  0  0  0  0  0  0  0  0  0  0
  183.4360  179.1660  144.9960 O   0  0  0  0  0  0  0  0  0  0  0  0
  194.2600  173.0790  144.1900 O   0  0  0  0  0  0  0  0  0  0  0  0
  194.5140  174.2180  144.6660 C   0  0  0  0  0  0  0  0  0  0  0  0
  195.6220  174.4000  145.5520 N   0  0  0  0  0  2  0  0  0  0  0  0
  193.7370  175.3480  144.2770 N   0  0  0  0  0  2  0  0  0  0  0  0
  196.3300  173.3360  146.1400 N   0  0  0  0  0  2  0  0  0  0  0  0
  196.9950  172.3190  145.3870 C   0  0  0  0  0  0  0  0  0  0  0  0
  196.6770  170.7540  145.7450 S   0  0  0  0  0  0  0  0  0  0  0  0
  197.9410  172.6900  144.3740 N   0  0  0  0  0  2  0  0  0  0  0  0
  196.9850  174.6810  141.4510 C   0  0  2  0  0  3  0  0  0  0  0  0
  197.7570  174.2960  142.6110 C   0  0  2  0  0  3  0  0  0  0  0  0
  196.6680  172.0560  141.9040 S   0  0  0  0  0  0  0  0  0  0  0  0
  196.4080  175.9750  141.8290 N   0  0  0  0  0  2  0  0  0  0  0  0
  195.9120  173.6110  141.3150 C   0  0  0  0  0  2  0  0  0  0  0  0
  197.6830  173.0380  143.0060 C   0  0  2  0  0  3  0  0  0  0  0  0
  197.1660  176.4820  142.9200 N   0  0  0  0  0  2  0  0  0  0  0  0
  197.8460  175.3890  143.4770 N   0  0  0  0  0  2  0  0  0  0  0  0
  189.6270  174.2300  140.4560 C   0  0  0  0  0  2  0  0  0  0  0  0
  189.5980  172.3740  135.6330 C   0  0  0  0  0  3  0  0  0  0  0  0
  189.4040  173.8310  137.5450 C   0  0  0  0  0  3  0  0  0  0  0  0
  189.3220  173.6360  136.1640 C   0  0  0  0  0  3  0  0  0  0  0  0
  190.2150  171.8090  140.5570 C   0  0  0  0  0  3  0  0  0  0  0  0
  189.8630  172.9160  139.7780 C   0  0  0  0  0  0  0  0  0  0  0  0
  190.0250  171.5080  137.8040 C   0  0  0  0  0  0  0  0  0  0  0  0
  190.3650  170.4550  138.5930 N   0  0  0  0  0  0  0  0  0  0  0  0
  190.4630  170.5790  139.9440 C   0  0  0  0  0  0  0  0  0  0  0  0
  189.9400  171.3450  136.4550 N   0  0  0  0  0  0  0  0  0  0  0  0
  189.7610  172.7690  138.3830 C   0  0  0  0  0  0  0  0  0  0  0  0
  190.8140  169.4400  140.7450 C   0  0  0  0  0  0  0  0  0  0  0  0
  191.0940  168.5230  141.3930 N   0  0  0  0  0  0  0  0  0  0  0  0
  1  9  1  0  0  0  0
  1 30  1  1  0  0  0
  2 16  1  6  0  0  0
  3  1  1  0  0  0  0
  5  7  1  0  0  0  0
  6  2  1  0  0  0  0
  6  3  1  1  0  0  0
  6  8  1  0  0  0  0
  8  5  1  1  0  0  0
  9  8  1  0  0  0  0
 10 14  1  0  0  0  0
 12  8  1  0  0  0  0
 12 10  2  0  0  0  0
 13 11  1  1  0  0  0
 13  2  1  0  0  0  0
 14  4  1  0  0  0  0
 14  7  2  0  0  0  0
 15 43  1  6  0  0  0
 15 11  1  0  0  0  0
 15 12  1  0  0  0  0
 17 21  1  0  0  0  0
 18 17  1  6  0  0  0
 18 13  1  0  0  0  0
 18 20  1  0  0  0  0
 19 22  1  1  0  0  0
 19 20  1  0  0  0  0
 21 19  1  0  0  0  0
 22 23  1  0  0  0  0
 23 24  1  0  0  0  0
 23 25  2  0  0  0  0
 23 26  2  0  0  0  0
 27 28  2  0  0  0  0
 28 29  1  0  0  0  0
 29 31  1  0  0  0  0
 30 28  1  0  0  0  0
 32 33  2  0  0  0  0
 32 31  1  0  0  0  0
 34 32  1  0  0  0  0
 35 39  1  1  0  0  0
 35 38  1  0  0  0  0
 35 36  1  0  0  0  0
 36 40  1  0  0  0  0
 36 42  1  1  0  0  0
 37 40  1  0  0  0  0
 38 41  1  0  0  0  0
 39 37  1  0  0  0  0
 40 34  1  1  0  0  0
 41 42  1  0  0  0  0
 44 46  1  0  0  0  0
 44 52  2  0  0  0  0
 45 53  1  0  0  0  0
 46 45  2  0  0  0  0
 48 43  1  0  0  0  0
 48 47  1  0  0  0  0
 49 53  1  0  0  0  0
 49 50  2  0  0  0  0
 50 51  1  0  0  0  0
 51 47  2  0  0  0  0
 51 54  1  0  0  0  0
 52 49  1  0  0  0  0
 53 48  2  0  0  0  0
 54 55  3  0  0  0  0
M  END
>  <MODEL>
5

>  <REMARK>
 VINA RESULT:      -7.6      3.279      7.097
  Name = 
  11 active torsions:
  status: ('A' for Active; 'I' for Inactive)
    1  A    between atoms: C_3  and  N_54
    2  A    between atoms: N_10  and  S_17
    3  A    between atoms: N_10  and  C_36
    4  A    between atoms: C_23  and  N_25
    5  A    between atoms: C_24  and  C_43
    6  A    between atoms: N_25  and  C_40
    7  A    between atoms: C_30  and  N_34
    8  A    between atoms: N_39  and  N_41
    9  A    between atoms: C_40  and  N_41
   10  A    between atoms: C_43  and  C_47
   11  A    between atoms: C_46  and  C_48
                            x       y       z     vdW  Elec       q    Type
                         _______ _______ _______ _____ _____    ______ ____

>  <TORSDO>
F 11

$$$$
=
 OpenBabel11042417553D

 55 62  0  0  1  0  0  0  0  0999 V2000
  188.0190  176.9950  142.5950 C   0  0  2  0  0  3  0  0  0  0  0  0
  189.4920  173.6000  143.3490 C   0  0  2  0  0  3  0  0  0  0  0  0
  187.9310  175.4990  142.3840 C   0  0  0  0  0  2  0  0  0  0  0  0
  190.1890  177.8710  147.8260 F   0  0  0  0  0  0  0  0  0  0  0  0
  188.4740  175.6330  145.4030 C   0  0  0  0  0  2  0  0  0  0  0  0
  189.2010  175.0760  143.0370 C   0  0  1  0  0  3  0  0  0  0  0  0
  188.7190  176.5840  146.5490 C   0  0  0  0  0  3  0  0  0  0  0  0
  189.3360  176.0440  144.1890 C   0  0  1  0  0  0  0  0  0  0  0  0
  188.8490  177.2800  143.7100 O   0  0  0  0  0  0  0  0  0  0  0  0
  191.0460  176.7100  145.8440 C   0  0  0  0  0  3  0  0  0  0  0  0
  191.7530  173.9380  144.0840 C   0  0  0  0  0  2  0  0  0  0  0  0
  190.7870  176.1760  144.6430 C   0  0  0  0  0  0  0  0  0  0  0  0
  190.9170  173.3390  143.0250 N   0  0  1  0  0  0  0  0  0  0  0  0
  189.9450  177.0790  146.7530 C   0  0  0  0  0  0  0  0  0  0  0  0
  191.9170  175.4610  143.9590 C   0  0  2  0  0  3  0  0  0  0  0  0
  188.5210  172.6890  142.5870 C   0  0  0  0  0  1  0  0  0  0  0  0
  191.4160  171.5030  141.4900 C   0  0  0  0  0  2  0  0  0  0  0  0
  191.1960  171.8890  142.9330 C   0  0  1  0  0  3  0  0  0  0  0  0
  193.0730  170.5990  142.8810 C   0  0  2  0  0  3  0  0  0  0  0  0
  192.3410  171.5060  143.6700 O   0  0  0  0  0  0  0  0  0  0  0  0
  192.3270  170.3320  141.5970 C   0  0  0  0  0  2  0  0  0  0  0  0
  193.2670  169.3570  143.6150 N   0  0  0  0  0  2  0  0  0  0  0  0
  194.7090  169.5130  144.5660 S   0  0  0  0  0  0  0  0  0  0  0  0
  194.3280  170.1290  146.0770 F   0  0  0  0  0  0  0  0  0  0  0  0
  195.6560  170.4500  143.8740 O   0  0  0  0  0  0  0  0  0  0  0  0
  195.3650  168.1720  144.7250 O   0  0  0  0  0  0  0  0  0  0  0  0
  186.0130  177.1830  140.5930 O   0  0  0  0  0  0  0  0  0  0  0  0
  185.7130  177.5730  141.7540 C   0  0  0  0  0  0  0  0  0  0  0  0
  184.3770  177.9830  142.0550 N   0  0  0  0  0  0  0  0  0  0  0  0
  186.6880  177.5500  142.7930 N   0  0  0  0  0  2  0  0  0  0  0  0
  183.3960  178.2190  141.0740 N   0  0  0  0  0  0  0  0  0  0  0  0
  182.0230  178.4760  141.3780 C   0  0  0  0  0  0  0  0  0  0  0  0
  181.6490  179.0420  142.8680 S   0  0  0  0  0  0  0  0  0  0  0  0
  181.0140  178.2000  140.3950 N   0  0  0  0  0  2  0  0  0  0  0  0
  177.7110  179.7460  140.7430 C   0  0  2  0  0  3  0  0  0  0  0  0
  178.9740  179.4180  140.1200 C   0  0  2  0  0  3  0  0  0  0  0  0
  178.6230  177.4300  141.7410 S   0  0  0  0  0  0  0  0  0  0  0  0
  177.8010  181.1920  140.9700 N   0  0  0  0  0  2  0  0  0  0  0  0
  177.7030  178.9770  142.0540 C   0  0  0  0  0  2  0  0  0  0  0  0
  179.5910  178.3230  140.5270 C   0  0  2  0  0  3  0  0  0  0  0  0
  178.8270  181.6980  140.1270 N   0  0  0  0  0  2  0  0  0  0  0  0
  179.6250  180.6030  139.7660 N   0  0  0  0  0  2  0  0  0  0  0  0
  192.1710  175.9350  142.5290 C   0  0  0  0  0  2  0  0  0  0  0  0
  197.2370  175.7570  143.5340 C   0  0  0  0  0  3  0  0  0  0  0  0
  194.8900  176.3060  143.6040 C   0  0  0  0  0  3  0  0  0  0  0  0
  196.1800  176.4570  144.1180 C   0  0  0  0  0  3  0  0  0  0  0  0
  193.2350  174.4110  140.8670 C   0  0  0  0  0  3  0  0  0  0  0  0
  193.3850  175.2660  141.9640 C   0  0  0  0  0  0  0  0  0  0  0  0
  195.7660  174.7730  141.9500 C   0  0  0  0  0  0  0  0  0  0  0  0
  195.5800  173.9500  140.8850 N   0  0  0  0  0  0  0  0  0  0  0  0
  194.3490  173.7580  140.3380 C   0  0  0  0  0  0  0  0  0  0  0  0
  197.0120  174.9380  142.4720 N   0  0  0  0  0  0  0  0  0  0  0  0
  194.6660  175.4580  142.5140 C   0  0  0  0  0  0  0  0  0  0  0  0
  194.1970  172.8880  139.2060 C   0  0  0  0  0  0  0  0  0  0  0  0
  194.0730  172.1840  138.2950 N   0  0  0  0  0  0  0  0  0  0  0  0
  1 30  1  1  0  0  0
  1  9  1  0  0  0  0
  2 16  1  6  0  0  0
  3  1  1  0  0  0  0
  5  7  1  0  0  0  0
  6  3  1  1  0  0  0
  6  2  1  0  0  0  0
  6  8  1  0  0  0  0
  7 14  2  0  0  0  0
  8 12  1  0  0  0  0
  8  5  1  1  0  0  0
  9  8  1  0  0  0  0
 10 14  1  0  0  0  0
 12 10  2  0  0  0  0
 13  2  1  0  0  0  0
 13 11  1  1  0  0  0
 14  4  1  0  0  0  0
 15 43  1  6  0  0  0
 15 11  1  0  0  0  0
 15 12  1  0  0  0  0
 17 21  1  0  0  0  0
 18 17  1  6  0  0  0
 18 13  1  0  0  0  0
 18 20  1  0  0  0  0
 19 22  1  1  0  0  0
 19 20  1  0  0  0  0
 21 19  1  0  0  0  0
 22 23  1  0  0  0  0
 23 26  2  0  0  0  0
 23 24  1  0  0  0  0
 25 23  2  0  0  0  0
 27 28  2  0  0  0  0
 28 29  1  0  0  0  0
 28 30  1  0  0  0  0
 31 32  1  0  0  0  0
 31 29  2  0  0  0  0
 32 33  2  0  0  0  0
 34 32  1  0  0  0  0
 35 38  1  0  0  0  0
 35 39  1  1  0  0  0
 36 42  1  1  0  0  0
 36 40  1  0  0  0  0
 36 35  1  0  0  0  0
 37 39  1  0  0  0  0
 40 34  1  1  0  0  0
 40 37  1  0  0  0  0
 41 38  1  0  0  0  0
 42 41  1  0  0  0  0
 44 46  1  0  0  0  0
 45 46  2  0  0  0  0
 47 48  1  0  0  0  0
 48 53  2  0  0  0  0
 48 43  1  0  0  0  0
 49 52  1  0  0  0  0
 49 53  1  0  0  0  0
 50 49  2  0  0  0  0
 51 47  2  0  0  0  0
 51 50  1  0  0  0  0
 52 44  2  0  0  0  0
 53 45  1  0  0  0  0
 54 51  1  0  0  0  0
 55 54  3  0  0  0  0
M  END
>  <MODEL>
6

>  <REMARK>
 VINA RESULT:      -7.4      4.043     10.678
  Name = 
  11 active torsions:
  status: ('A' for Active; 'I' for Inactive)
    1  A    between atoms: C_3  and  N_54
    2  A    between atoms: N_10  and  S_17
    3  A    between atoms: N_10  and  C_36
    4  A    between atoms: C_23  and  N_25
    5  A    between atoms: C_24  and  C_43
    6  A    between atoms: N_25  and  C_40
    7  A    between atoms: C_30  and  N_34
    8  A    between atoms: N_39  and  N_41
    9  A    between atoms: C_40  and  N_41
   10  A    between atoms: C_43  and  C_47
   11  A    between atoms: C_46  and  C_48
                            x       y       z     vdW  Elec       q    Type
                         _______ _______ _______ _____ _____    ______ ____

>  <TORSDO>
F 11

$$$$
=
 OpenBabel11042417553D

 55 62  0  0  1  0  0  0  0  0999 V2000
  190.1610  173.8160  141.5800 C   0  0  2  0  0  3  0  0  0  0  0  0
  192.8020  171.4580  142.8950 C   0  0  2  0  0  3  0  0  0  0  0  0
  190.4800  172.6460  142.4850 C   0  0  0  0  0  2  0  0  0  0  0  0
  194.8180  177.1480  141.3720 F   0  0  0  0  0  0  0  0  0  0  0  0
  192.8380  174.5150  143.0930 C   0  0  0  0  0  2  0  0  0  0  0  0
  191.8900  172.3900  142.0830 C   0  0  1  0  0  3  0  0  0  0  0  0
  193.4470  175.8510  142.7440 C   0  0  0  0  0  3  0  0  0  0  0  0
  192.4260  173.7740  141.8020 C   0  0  1  0  0  0  0  0  0  0  0  0
  191.3570  174.4870  141.2170 O   0  0  0  0  0  0  0  0  0  0  0  0
  194.4260  174.8030  140.7770 C   0  0  0  0  0  3  0  0  0  0  0  0
  194.6440  171.5010  141.3560 C   0  0  0  0  0  2  0  0  0  0  0  0
  193.6260  173.7310  140.8610 C   0  0  0  0  0  0  0  0  0  0  0  0
  193.5920  170.6450  141.9360 N   0  0  1  0  0  0  0  0  0  0  0  0
  194.2060  175.9720  141.6480 C   0  0  0  0  0  0  0  0  0  0  0  0
  194.1380  172.4520  140.2610 C   0  0  2  0  0  3  0  0  0  0  0  0
  191.9720  170.6100  143.8680 C   0  0  0  0  0  1  0  0  0  0  0  0
  195.2210  168.8420  141.6700 C   0  0  0  0  0  2  0  0  0  0  0  0
  194.2130  169.4760  142.5980 C   0  0  1  0  0  3  0  0  0  0  0  0
  196.0960  169.1190  143.8280 C   0  0  2  0  0  3  0  0  0  0  0  0
  194.8740  169.8170  143.8010 O   0  0  0  0  0  0  0  0  0  0  0  0
  196.1970  168.2310  142.6120 C   0  0  0  0  0  2  0  0  0  0  0  0
  196.1760  168.3180  145.0410 N   0  0  0  0  0  2  0  0  0  0  0  0
  196.3830  169.3940  146.3840 S   0  0  0  0  0  0  0  0  0  0  0  0
  197.3280  168.6620  147.5580 F   0  0  0  0  0  0  0  0  0  0  0  0
  195.0380  169.7200  146.9650 O   0  0  0  0  0  0  0  0  0  0  0  0
  197.0470  170.6620  145.9270 O   0  0  0  0  0  0  0  0  0  0  0  0
  188.0970  175.2850  140.2980 O   0  0  0  0  0  0  0  0  0  0  0  0
  188.2010  175.4010  141.5490 C   0  0  0  0  0  0  0  0  0  0  0  0
  187.2360  176.1570  142.2860 N   0  0  0  0  0  0  0  0  0  0  0  0
  189.2450  174.7280  142.2470 N   0  0  0  0  0  2  0  0  0  0  0  0
  186.2870  177.0030  141.6860 N   0  0  0  0  0  0  0  0  0  0  0  0
  185.5600  178.0060  142.4000 C   0  0  0  0  0  0  0  0  0  0  0  0
  184.0040  178.2870  141.9770 S   0  0  0  0  0  0  0  0  0  0  0  0
  186.2140  178.7560  143.4340 N   0  0  0  0  0  2  0  0  0  0  0  0
  186.7430  177.4990  146.8340 C   0  0  2  0  0  3  0  0  0  0  0  0
  187.0720  178.1360  145.5780 C   0  0  2  0  0  3  0  0  0  0  0  0
  184.5020  178.4260  145.6880 S   0  0  0  0  0  0  0  0  0  0  0  0
  187.5960  176.3070  146.8540 N   0  0  0  0  0  2  0  0  0  0  0  0
  185.2720  177.1290  146.7170 C   0  0  0  0  0  2  0  0  0  0  0  0
  186.0770  178.6140  144.8540 C   0  0  2  0  0  3  0  0  0  0  0  0
  188.6420  176.5090  145.9130 N   0  0  0  0  0  2  0  0  0  0  0  0
  188.2090  177.5220  145.0440 N   0  0  0  0  0  2  0  0  0  0  0  0
  193.1640  171.7980  139.2820 C   0  0  0  0  0  2  0  0  0  0  0  0
  189.5260  174.2030  136.5090 C   0  0  0  0  0  3  0  0  0  0  0  0
  190.6570  172.9030  138.1970 C   0  0  0  0  0  3  0  0  0  0  0  0
  189.4780  173.4510  137.6850 C   0  0  0  0  0  3  0  0  0  0  0  0
  194.2620  172.8270  137.2950 C   0  0  0  0  0  3  0  0  0  0  0  0
  193.0860  172.5880  138.0130 C   0  0  0  0  0  0  0  0  0  0  0  0
  191.8730  173.8740  136.3450 C   0  0  0  0  0  0  0  0  0  0  0  0
  193.0350  174.0860  135.6750 N   0  0  0  0  0  0  0  0  0  0  0  0
  194.2180  173.5810  136.1210 C   0  0  0  0  0  0  0  0  0  0  0  0
  190.7100  174.3970  135.8690 N   0  0  0  0  0  0  0  0  0  0  0  0
  191.8710  173.1120  137.5350 C   0  0  0  0  0  0  0  0  0  0  0  0
  195.4230  173.8180  135.3780 C   0  0  0  0  0  0  0  0  0  0  0  0
  196.3940  174.0130  134.7770 N   0  0  0  0  0  0  0  0  0  0  0  0
  1 30  1  1  0  0  0
  1  3  1  0  0  0  0
  2 16  1  1  0  0  0
  4 14  1  0  0  0  0
  6  3  1  1  0  0  0
  6  2  1  0  0  0  0
  7  5  1  0  0  0  0
  8  6  1  0  0  0  0
  8  5  1  1  0  0  0
  9  1  1  0  0  0  0
  9  8  1  0  0  0  0
 10 12  2  0  0  0  0
 10 14  1  0  0  0  0
 12  8  1  0  0  0  0
 13 11  1  1  0  0  0
 13 18  1  0  0  0  0
 13  2  1  0  0  0  0
 14  7  2  0  0  0  0
 15 43  1  1  0  0  0
 15 12  1  0  0  0  0
 15 11  1  0  0  0  0
 17 21  1  0  0  0  0
 18 17  1  6  0  0  0
 18 20  1  0  0  0  0
 19 22  1  1  0  0  0
 20 19  1  0  0  0  0
 21 19  1  0  0  0  0
 22 23  1  0  0  0  0
 23 25  2  0  0  0  0
 23 24  1  0  0  0  0
 26 23  2  0  0  0  0
 27 28  2  0  0  0  0
 28 30  1  0  0  0  0
 28 29  1  0  0  0  0
 31 29  2  0  0  0  0
 31 32  1  0  0  0  0
 32 34  1  0  0  0  0
 33 32  2  0  0  0  0
 35 39  1  6  0  0  0
 35 38  1  0  0  0  0
 36 42  1  6  0  0  0
 36 35  1  0  0  0  0
 37 39  1  0  0  0  0
 40 34  1  6  0  0  0
 40 36  1  0  0  0  0
 40 37  1  0  0  0  0
 41 38  1  0  0  0  0
 42 41  1  0  0  0  0
 44 46  1  0  0  0  0
 46 45  2  0  0  0  0
 47 48  1  0  0  0  0
 48 43  1  0  0  0  0
 49 53  1  0  0  0  0
 50 51  1  0  0  0  0
 50 49  2  0  0  0  0
 51 47  2  0  0  0  0
 52 49  1  0  0  0  0
 52 44  2  0  0  0  0
 53 48  2  0  0  0  0
 53 45  1  0  0  0  0
 54 51  1  0  0  0  0
 55 54  3  0  0  0  0
M  END
>  <MODEL>
7

>  <REMARK>
 VINA RESULT:      -7.2      4.265      9.646
  Name = 
  11 active torsions:
  status: ('A' for Active; 'I' for Inactive)
    1  A    between atoms: C_3  and  N_54
    2  A    between atoms: N_10  and  S_17
    3  A    between atoms: N_10  and  C_36
    4  A    between atoms: C_23  and  N_25
    5  A    between atoms: C_24  and  C_43
    6  A    between atoms: N_25  and  C_40
    7  A    between atoms: C_30  and  N_34
    8  A    between atoms: N_39  and  N_41
    9  A    between atoms: C_40  and  N_41
   10  A    between atoms: C_43  and  C_47
   11  A    between atoms: C_46  and  C_48
                            x       y       z     vdW  Elec       q    Type
                         _______ _______ _______ _____ _____    ______ ____

>  <TORSDO>
F 11

$$$$
=
 OpenBabel11042417553D

 55 62  0  0  1  0  0  0  0  0999 V2000
  190.7080  173.8810  141.7290 C   0  0  2  0  0  3  0  0  0  0  0  0
  192.7960  172.9800  138.7140 C   0  0  2  0  0  3  0  0  0  0  0  0
  190.9900  174.1250  140.2620 C   0  0  0  0  0  2  0  0  0  0  0  0
  191.9040  168.3840  142.8180 F   0  0  0  0  0  0  0  0  0  0  0  0
  191.0800  171.0580  140.3720 C   0  0  0  0  0  2  0  0  0  0  0  0
  192.2230  173.3070  140.1010 C   0  0  1  0  0  3  0  0  0  0  0  0
  190.9480  169.8750  141.2990 C   0  0  0  0  0  3  0  0  0  0  0  0
  191.9810  172.1320  141.0200 C   0  0  1  0  0  0  0  0  0  0  0  0
  191.2950  172.6560  142.1380 O   0  0  0  0  0  0  0  0  0  0  0  0
  193.2590  170.2420  141.9700 C   0  0  0  0  0  3  0  0  0  0  0  0
  194.8030  171.9290  139.5090 C   0  0  0  0  0  2  0  0  0  0  0  0
  193.2900  171.4770  141.4490 C   0  0  0  0  0  0  0  0  0  0  0  0
  194.2730  173.1040  138.7910 N   0  0  1  0  0  0  0  0  0  0  0  0
  191.9920  169.4920  142.0430 C   0  0  0  0  0  0  0  0  0  0  0  0
  194.6340  172.0050  141.0350 C   0  0  2  0  0  3  0  0  0  0  0  0
  192.1670  173.8850  137.6470 C   0  0  0  0  0  1  0  0  0  0  0  0
  195.6990  174.4420  137.3230 C   0  0  0  0  0  2  0  0  0  0  0  0
  194.8830  173.1770  137.4440 C   0  0  1  0  0  3  0  0  0  0  0  0
  196.8840  172.5790  136.5350 C   0  0  2  0  0  3  0  0  0  0  0  0
  195.7300  172.0790  137.1680 O   0  0  0  0  0  0  0  0  0  0  0  0
  196.7430  174.0680  136.3320 C   0  0  0  0  0  2  0  0  0  0  0  0
  197.0660  171.9140  135.2530 N   0  0  0  0  0  2  0  0  0  0  0  0
  197.0580  170.2030  135.5270 S   0  0  0  0  0  0  0  0  0  0  0  0
  197.6360  169.8710  137.0650 F   0  0  0  0  0  0  0  0  0  0  0  0
  197.9410  169.5360  134.5130 O   0  0  0  0  0  0  0  0  0  0  0  0
  195.6600  169.6700  135.3940 O   0  0  0  0  0  0  0  0  0  0  0  0
  189.1430  176.1400  142.4440 O   0  0  0  0  0  0  0  0  0  0  0  0
  188.5400  175.0460  142.2780 C   0  0  0  0  0  0  0  0  0  0  0  0
  187.1130  174.9910  142.3400 N   0  0  0  0  0  2  0  0  0  0  0  0
  189.2720  173.8640  141.9650 N   0  0  0  0  0  2  0  0  0  0  0  0
  186.3140  176.0450  142.8210 N   0  0  0  0  0  2  0  0  0  0  0  0
  186.4870  177.4080  142.4290 C   0  0  0  0  0  0  0  0  0  0  0  0
  186.2700  177.7970  140.8540 S   0  0  0  0  0  0  0  0  0  0  0  0
  186.8780  178.3840  143.4060 N   0  0  0  0  0  2  0  0  0  0  0  0
  185.6680  178.2090  146.8590 C   0  0  2  0  0  3  0  0  0  0  0  0
  186.6280  178.3060  145.7830 C   0  0  2  0  0  3  0  0  0  0  0  0
  184.4720  179.2230  144.6830 S   0  0  0  0  0  0  0  0  0  0  0  0
  185.9770  176.9200  147.4870 N   0  0  0  0  0  2  0  0  0  0  0  0
  184.3090  178.1850  146.1770 C   0  0  0  0  0  2  0  0  0  0  0  0
  186.1980  178.7480  144.6150 C   0  0  2  0  0  3  0  0  0  0  0  0
  187.2900  176.5490  147.0870 N   0  0  0  0  0  2  0  0  0  0  0  0
  187.5860  177.2980  145.9390 N   0  0  0  0  0  2  0  0  0  0  0  0
  194.9630  173.3780  141.6200 C   0  0  0  0  0  2  0  0  0  0  0  0
  193.0150  176.0010  145.6240 C   0  0  0  0  0  3  0  0  0  0  0  0
  193.5890  175.2910  143.3920 C   0  0  0  0  0  3  0  0  0  0  0  0
  192.9250  176.1780  144.2420 C   0  0  0  0  0  3  0  0  0  0  0  0
  195.7530  172.2840  143.7170 C   0  0  0  0  0  3  0  0  0  0  0  0
  195.0170  173.3100  143.1150 C   0  0  0  0  0  0  0  0  0  0  0  0
  194.4040  174.0970  145.3320 C   0  0  0  0  0  0  0  0  0  0  0  0
  195.1280  173.0860  145.8800 N   0  0  0  0  0  0  0  0  0  0  0  0
  195.7980  172.1880  145.1090 C   0  0  0  0  0  0  0  0  0  0  0  0
  193.7460  174.9750  146.1360 N   0  0  0  0  0  0  0  0  0  0  0  0
  194.3350  174.2340  143.9270 C   0  0  0  0  0  0  0  0  0  0  0  0
  196.5620  171.1410  145.7280 C   0  0  0  0  0  0  0  0  0  0  0  0
  197.1760  170.2940  146.2230 N   0  0  0  0  0  0  0  0  0  0  0  0
  1 30  1  6  0  0  0
  1  9  1  0  0  0  0
  2 16  1  6  0  0  0
  2 13  1  0  0  0  0
  2  6  1  0  0  0  0
  3  1  1  0  0  0  0
  5  7  1  0  0  0  0
  6  3  1  6  0  0  0
  6  8  1  0  0  0  0
  7 14  2  0  0  0  0
  8  5  1  6  0  0  0
  8 12  1  0  0  0  0
  8  9  1  0  0  0  0
 10 14  1  0  0  0  0
 11 15  1  0  0  0  0
 12 10  2  0  0  0  0
 13 11  1  6  0  0  0
 14  4  1  0  0  0  0
 15 12  1  0  0  0  0
 15 43  1  6  0  0  0
 18 17  1  1  0  0  0
 18 13  1  0  0  0  0
 19 22  1  6  0  0  0
 19 20  1  0  0  0  0
 20 18  1  0  0  0  0
 21 19  1  0  0  0  0
 21 17  1  0  0  0  0
 22 23  1  0  0  0  0
 23 24  1  0  0  0  0
 25 23  2  0  0  0  0
 26 23  2  0  0  0  0
 28 29  1  0  0  0  0
 28 27  2  0  0  0  0
 29 31  1  0  0  0  0
 30 28  1  0  0  0  0
 32 31  1  0  0  0  0
 32 34  1  0  0  0  0
 33 32  2  0  0  0  0
 35 39  1  6  0  0  0
 35 38  1  0  0  0  0
 36 42  1  6  0  0  0
 36 35  1  0  0  0  0
 37 39  1  0  0  0  0
 40 34  1  6  0  0  0
 40 37  1  0  0  0  0
 40 36  1  0  0  0  0
 41 38  1  0  0  0  0
 42 41  1  0  0  0  0
 43 48  1  0  0  0  0
 44 52  2  0  0  0  0
 45 53  1  0  0  0  0
 45 46  2  0  0  0  0
 46 44  1  0  0  0  0
 47 51  2  0  0  0  0
 48 47  1  0  0  0  0
 48 53  2  0  0  0  0
 49 50  2  0  0  0  0
 49 52  1  0  0  0  0
 51 54  1  0  0  0  0
 51 50  1  0  0  0  0
 53 49  1  0  0  0  0
 54 55  3  0  0  0  0
M  END
>  <MODEL>
8

>  <REMARK>
 VINA RESULT:      -7.0      3.877      9.122
  Name = 
  11 active torsions:
  status: ('A' for Active; 'I' for Inactive)
    1  A    between atoms: C_3  and  N_54
    2  A    between atoms: N_10  and  S_17
    3  A    between atoms: N_10  and  C_36
    4  A    between atoms: C_23  and  N_25
    5  A    between atoms: C_24  and  C_43
    6  A    between atoms: N_25  and  C_40
    7  A    between atoms: C_30  and  N_34
    8  A    between atoms: N_39  and  N_41
    9  A    between atoms: C_40  and  N_41
   10  A    between atoms: C_43  and  C_47
   11  A    between atoms: C_46  and  C_48
                            x       y       z     vdW  Elec       q    Type
                         _______ _______ _______ _____ _____    ______ ____

>  <TORSDO>
F 11

$$$$
=
 OpenBabel11042417553D

 55 62  0  0  1  0  0  0  0  0999 V2000
  191.3330  171.9520  142.9980 C   0  0  2  0  0  3  0  0  0  0  0  0
  189.2910  174.0280  140.5930 C   0  0  2  0  0  3  0  0  0  0  0  0
  190.3670  171.9600  141.8330 C   0  0  0  0  0  2  0  0  0  0  0  0
  194.5730  176.6590  142.5790 F   0  0  0  0  0  0  0  0  0  0  0  0
  192.3270  174.1640  140.9830 C   0  0  0  0  0  2  0  0  0  0  0  0
  190.0410  173.4120  141.7840 C   0  0  1  0  0  3  0  0  0  0  0  0
  193.5700  174.9100  141.4060 C   0  0  0  0  0  3  0  0  0  0  0  0
  191.3430  174.0720  142.1700 C   0  0  1  0  0  0  0  0  0  0  0  0
  191.9230  173.2340  143.1480 O   0  0  0  0  0  0  0  0  0  0  0  0
  192.1550  176.3210  142.7960 C   0  0  0  0  0  3  0  0  0  0  0  0
  189.0350  176.2120  141.5570 C   0  0  0  0  0  2  0  0  0  0  0  0
  191.1180  175.4740  142.7270 C   0  0  0  0  0  0  0  0  0  0  0  0
  188.3070  175.0010  141.1290 N   0  0  1  0  0  0  0  0  0  0  0  0
  193.4730  175.9370  142.2580 C   0  0  0  0  0  0  0  0  0  0  0  0
  189.7480  176.0620  142.9090 C   0  0  2  0  0  3  0  0  0  0  0  0
  188.6510  172.9280  139.7360 C   0  0  0  0  0  1  0  0  0  0  0  0
  186.9160  176.8190  140.2690 C   0  0  0  0  0  2  0  0  0  0  0  0
  187.2940  175.3650  140.1120 C   0  0  1  0  0  3  0  0  0  0  0  0
  187.3460  176.2800  138.0270 C   0  0  2  0  0  3  0  0  0  0  0  0
  187.7540  175.1700  138.7890 O   0  0  0  0  0  0  0  0  0  0  0  0
  186.5220  177.2070  138.8880 C   0  0  0  0  0  2  0  0  0  0  0  0
  186.5630  175.8300  136.8850 N   0  0  0  0  0  2  0  0  0  0  0  0
  187.2390  176.5410  135.4560 S   0  0  0  0  0  0  0  0  0  0  0  0
  188.1010  177.9190  135.8600 F   0  0  0  0  0  0  0  0  0  0  0  0
  186.1270  176.9110  134.5170 O   0  0  0  0  0  0  0  0  0  0  0  0
  188.1540  175.5600  134.7790 O   0  0  0  0  0  0  0  0  0  0  0  0
  193.1680  171.0570  144.9720 O   0  0  0  0  0  0  0  0  0  0  0  0
  193.2170  170.5030  143.8400 C   0  0  0  0  0  0  0  0  0  0  0  0
  194.0910  169.3940  143.6160 N   0  0  0  0  0  2  0  0  0  0  0  0
  192.3560  170.9390  142.7910 N   0  0  0  0  0  2  0  0  0  0  0  0
  195.1040  169.0080  144.5120 N   0  0  0  0  0  2  0  0  0  0  0  0
  196.3330  169.7210  144.6680 C   0  0  0  0  0  0  0  0  0  0  0  0
  197.3210  169.3060  145.9050 S   0  0  0  0  0  0  0  0  0  0  0  0
  196.6510  170.7950  143.7700 N   0  0  0  0  0  2  0  0  0  0  0  0
  196.8180  174.4170  143.2470 C   0  0  2  0  0  3  0  0  0  0  0  0
  196.5660  173.0300  142.9250 C   0  0  2  0  0  3  0  0  0  0  0  0
  196.3830  173.0380  145.5070 S   0  0  0  0  0  0  0  0  0  0  0  0
  197.9070  174.7930  142.3410 N   0  0  0  0  0  2  0  0  0  0  0  0
  197.2770  174.4090  144.6970 C   0  0  0  0  0  2  0  0  0  0  0  0
  196.3720  172.1930  143.9270 C   0  0  2  0  0  3  0  0  0  0  0  0
  197.9410  173.8390  141.2880 N   0  0  0  0  0  2  0  0  0  0  0  0
  197.2540  172.7070  141.7510 N   0  0  0  0  0  2  0  0  0  0  0  0
  188.9090  175.3510  143.9690 C   0  0  0  0  0  2  0  0  0  0  0  0
  185.2430  178.1740  146.2730 C   0  0  0  0  0  3  0  0  0  0  0  0
  186.4370  176.7730  144.7140 C   0  0  0  0  0  3  0  0  0  0  0  0
  185.2640  177.4330  145.0890 C   0  0  0  0  0  3  0  0  0  0  0  0
  189.8820  176.3360  146.0430 C   0  0  0  0  0  3  0  0  0  0  0  0
  188.7780  176.2030  145.1940 C   0  0  0  0  0  0  0  0  0  0  0  0
  187.5120  177.6210  146.7090 C   0  0  0  0  0  0  0  0  0  0  0  0
  188.6050  177.7260  147.5090 N   0  0  0  0  0  0  0  0  0  0  0  0
  189.7760  177.1070  147.2020 C   0  0  0  0  0  0  0  0  0  0  0  0
  186.3560  178.2530  147.0500 N   0  0  0  0  0  0  0  0  0  0  0  0
  187.5760  176.8550  145.5230 C   0  0  0  0  0  0  0  0  0  0  0  0
  190.9120  177.2530  148.0680 C   0  0  0  0  0  0  0  0  0  0  0  0
  191.8300  177.3690  148.7640 N   0  0  0  0  0  0  0  0  0  0  0  0
  1 30  1  6  0  0  0
  1  9  1  0  0  0  0
  2 16  1  1  0  0  0
  2 13  1  0  0  0  0
  2  6  1  0  0  0  0
  3  1  1  0  0  0  0
  5  7  1  0  0  0  0
  6  3  1  6  0  0  0
  6  8  1  0  0  0  0
  7 14  2  0  0  0  0
  8  5  1  6  0  0  0
  8 12  1  0  0  0  0
  8  9  1  0  0  0  0
 11 15  1  0  0  0  0
 12 10  2  0  0  0  0
 12 15  1  0  0  0  0
 13 11  1  6  0  0  0
 14  4  1  0  0  0  0
 14 10  1  0  0  0  0
 15 43  1  1  0  0  0
 18 17  1  6  0  0  0
 18 13  1  0  0  0  0
 19 22  1  6  0  0  0
 19 20  1  0  0  0  0
 19 21  1  0  0  0  0
 20 18  1  0  0  0  0
 21 17  1  0  0  0  0
 23 24  1  0  0  0  0
 23 22  1  0  0  0  0
 25 23  2  0  0  0  0
 26 23  2  0  0  0  0
 28 27  2  0  0  0  0
 29 28  1  0  0  0  0
 29 31  1  0  0  0  0
 30 28  1  0  0  0  0
 31 32  1  0  0  0  0
 32 33  2  0  0  0  0
 34 32  1  0  0  0  0
 35 39  1  1  0  0  0
 36 42  1  1  0  0  0
 36 35  1  0  0  0  0
 36 40  1  0  0  0  0
 38 35  1  0  0  0  0
 39 37  1  0  0  0  0
 40 34  1  1  0  0  0
 40 37  1  0  0  0  0
 41 42  1  0  0  0  0
 41 38  1  0  0  0  0
 43 48  1  0  0  0  0
 44 52  2  0  0  0  0
 45 46  2  0  0  0  0
 45 53  1  0  0  0  0
 46 44  1  0  0  0  0
 47 51  2  0  0  0  0
 48 53  2  0  0  0  0
 48 47  1  0  0  0  0
 49 52  1  0  0  0  0
 49 50  2  0  0  0  0
 51 50  1  0  0  0  0
 51 54  1  0  0  0  0
 53 49  1  0  0  0  0
 54 55  3  0  0  0  0
M  END
>  <MODEL>
9

>  <REMARK>
 VINA RESULT:      -6.9      2.826      4.131
  Name = 
  11 active torsions:
  status: ('A' for Active; 'I' for Inactive)
    1  A    between atoms: C_3  and  N_54
    2  A    between atoms: N_10  and  S_17
    3  A    between atoms: N_10  and  C_36
    4  A    between atoms: C_23  and  N_25
    5  A    between atoms: C_24  and  C_43
    6  A    between atoms: N_25  and  C_40
    7  A    between atoms: C_30  and  N_34
    8  A    between atoms: N_39  and  N_41
    9  A    between atoms: C_40  and  N_41
   10  A    between atoms: C_43  and  C_47
   11  A    between atoms: C_46  and  C_48
                            x       y       z     vdW  Elec       q    Type
                         _______ _______ _______ _____ _____    ______ ____

>  <TORSDO>
F 11

$$$$
