=
 OpenBabel11042416513D

 29 31  0  0  1  0  0  0  0  0999 V2000
  189.7140  174.3400  144.5360 C   0  0  0  0  0  0  0  0  0  0  0  0
  188.6630  175.9770  146.5920 C   0  0  0  0  0  3  0  0  0  0  0  0
  188.6680  174.1410  148.0270 F   0  0  0  0  0  0  0  0  0  0  0  0
  188.9640  174.6940  146.8270 C   0  0  0  0  0  0  0  0  0  0  0  0
  189.0430  176.6530  145.2840 C   0  0  2  0  0  0  0  0  0  0  0  0
  189.6310  173.8870  145.7890 C   0  0  0  0  0  3  0  0  0  0  0  0
  189.0180  175.6170  144.1460 C   0  0  0  0  0  2  0  0  0  0  0  0
  194.9050  175.6340  146.0540 C   0  0  0  0  0  3  0  0  0  0  0  0
  192.6850  176.5580  145.8230 C   0  0  0  0  0  0  0  0  0  0  0  0
  194.0100  176.1020  143.8460 C   0  0  0  0  0  3  0  0  0  0  0  0
  190.8480  177.8940  144.2020 O   0  0  0  0  0  0  0  0  0  0  0  0
  191.7720  177.0640  143.6590 O   0  0  0  0  0  0  0  0  0  0  0  0
  191.1200  177.0100  147.5580 O   0  0  0  0  0  0  0  0  0  0  0  0
  196.2240  175.1730  144.0840 O   0  0  0  0  0  1  0  0  0  0  0  0
  195.0480  175.6360  144.6600 C   0  0  0  0  0  0  0  0  0  0  0  0
  191.3720  176.9560  146.3250 C   0  0  0  0  0  0  0  0  0  0  0  0
  192.8330  176.5750  144.4330 C   0  0  0  0  0  0  0  0  0  0  0  0
  193.7190  176.0890  146.6400 C   0  0  0  0  0  3  0  0  0  0  0  0
  190.3810  177.2790  145.3310 N   0  0  0  0  0  0  0  0  0  0  0  0
  190.9760  172.9580  142.7430 N   0  0  0  0  0  0  0  0  0  0  0  0
  190.4120  173.5760  143.5430 C   0  0  0  0  0  0  0  0  0  0  0  0
  187.9880  177.7150  144.9530 C   0  0  0  0  0  2  0  0  0  0  0  0
  186.9750  178.2960  142.8130 N   0  0  0  0  0  1  0  0  0  0  0  0
  187.0250  177.2820  143.8530 C   0  0  2  0  0  3  0  0  0  0  0  0
  185.6400  177.0960  144.4490 C   0  0  0  0  0  2  0  0  0  0  0  0
  184.7850  178.2210  144.0990 N   0  0  0  0  0  2  0  0  0  0  0  0
  184.4180  178.8950  145.3350 C   0  0  0  0  0  2  0  0  0  0  0  0
  184.4250  177.9120  146.4930 C   0  0  0  0  0  2  0  0  0  0  0  0
  184.8480  178.5520  147.6570 O   0  0  0  0  0  1  0  0  0  0  0  0
  1  6  2  0  0  0  0
  2  4  2  0  0  0  0
  4  3  1  0  0  0  0
  5 22  1  6  0  0  0
  5 19  1  0  0  0  0
  5  2  1  0  0  0  0
  6  4  1  0  0  0  0
  7  1  1  0  0  0  0
  7  5  1  0  0  0  0
  8 18  1  0  0  0  0
  9 16  1  0  0  0  0
  9 18  2  0  0  0  0
 10 17  2  0  0  0  0
 10 15  1  0  0  0  0
 11 19  1  0  0  0  0
 12 11  1  0  0  0  0
 12 17  1  0  0  0  0
 14 15  1  0  0  0  0
 15  8  2  0  0  0  0
 16 13  2  0  0  0  0
 17  9  1  0  0  0  0
 19 16  1  0  0  0  0
 20 21  3  0  0  0  0
 21  1  1  0  0  0  0
 24 23  1  6  0  0  0
 24 25  1  0  0  0  0
 24 22  1  0  0  0  0
 26 25  1  0  0  0  0
 26 27  1  0  0  0  0
 27 28  1  0  0  0  0
 28 29  1  0  0  0  0
M  END
>  <MODEL>
1

>  <REMARK>
 VINA RESULT:      -6.9      0.000      0.000
  Name = 
  8 active torsions:
  status: ('A' for Active; 'I' for Inactive)
    1  A    between atoms: C_1  and  C_16
    2  A    between atoms: N_9  and  C_27
    3  A    between atoms: N_9  and  C_29
    4  A    between atoms: C_15  and  C_20
    5  A    between atoms: C_15  and  N_24
    6  A    between atoms: C_20  and  C_25
    7  A    between atoms: C_22  and  C_29
    8  A    between atoms: C_25  and  C_27
                            x       y       z     vdW  Elec       q    Type
                         _______ _______ _______ _____ _____    ______ ____

>  <TORSDO>
F 8

$$$$
=
 OpenBabel11042416513D

 29 31  0  0  1  0  0  0  0  0999 V2000
  185.4510  177.6580  142.5970 C   0  0  0  0  0  0  0  0  0  0  0  0
  187.5210  176.6030  140.9810 C   0  0  0  0  0  3  0  0  0  0  0  0
  186.6840  177.7990  139.1650 F   0  0  0  0  0  0  0  0  0  0  0  0
  186.6470  177.4850  140.4820 C   0  0  0  0  0  0  0  0  0  0  0  0
  187.5570  176.2770  142.4660 C   0  0  2  0  0  0  0  0  0  0  0  0
  185.6550  178.1260  141.3630 C   0  0  0  0  0  3  0  0  0  0  0  0
  186.1380  176.3990  143.0510 C   0  0  0  0  0  2  0  0  0  0  0  0
  191.9830  176.4590  146.5130 C   0  0  0  0  0  3  0  0  0  0  0  0
  190.1610  176.9110  144.9920 C   0  0  0  0  0  0  0  0  0  0  0  0
  192.4370  176.8680  144.1630 C   0  0  0  0  0  3  0  0  0  0  0  0
  189.3520  177.9330  142.5240 O   0  0  0  0  0  0  0  0  0  0  0  0
  190.5680  177.3510  142.6650 O   0  0  0  0  0  0  0  0  0  0  0  0
  187.8320  176.9160  145.4870 O   0  0  0  0  0  0  0  0  0  0  0  0
  194.2510  176.4080  145.6870 O   0  0  0  0  0  1  0  0  0  0  0  0
  192.8930  176.5780  145.4540 C   0  0  0  0  0  0  0  0  0  0  0  0
  188.7480  176.9940  144.6250 C   0  0  0  0  0  0  0  0  0  0  0  0
  191.0690  177.0460  143.9390 C   0  0  0  0  0  0  0  0  0  0  0  0
  190.6110  176.6180  146.2840 C   0  0  0  0  0  3  0  0  0  0  0  0
  188.4640  177.1650  143.2250 N   0  0  0  0  0  0  0  0  0  0  0  0
  183.7770  178.8560  144.1730 N   0  0  0  0  0  0  0  0  0  0  0  0
  184.5240  178.3200  143.4700 C   0  0  0  0  0  0  0  0  0  0  0  0
  187.9960  174.8190  142.6410 C   0  0  0  0  0  2  0  0  0  0  0  0
  188.1630  172.9470  141.0880 N   0  0  0  0  0  1  0  0  0  0  0  0
  188.7060  174.2550  141.4150 C   0  0  2  0  0  3  0  0  0  0  0  0
  190.1900  174.1290  141.7140 C   0  0  0  0  0  2  0  0  0  0  0  0
  190.4700  172.8480  142.3480 N   0  0  0  0  0  2  0  0  0  0  0  0
  191.3640  173.0980  143.4680 C   0  0  0  0  0  2  0  0  0  0  0  0
  190.5720  173.2060  144.7590 C   0  0  0  0  0  2  0  0  0  0  0  0
  189.5910  172.2160  144.7990 O   0  0  0  0  0  1  0  0  0  0  0  0
  1  7  1  0  0  0  0
  1 21  1  0  0  0  0
  2  5  1  0  0  0  0
  3  4  1  0  0  0  0
  4  2  2  0  0  0  0
  4  6  1  0  0  0  0
  5 22  1  1  0  0  0
  5  7  1  0  0  0  0
  5 19  1  0  0  0  0
  6  1  2  0  0  0  0
  9 18  2  0  0  0  0
 10 15  1  0  0  0  0
 11 12  1  0  0  0  0
 11 19  1  0  0  0  0
 12 17  1  0  0  0  0
 15 14  1  0  0  0  0
 15  8  2  0  0  0  0
 16  9  1  0  0  0  0
 16 13  2  0  0  0  0
 17 10  2  0  0  0  0
 17  9  1  0  0  0  0
 18  8  1  0  0  0  0
 19 16  1  0  0  0  0
 21 20  3  0  0  0  0
 24 23  1  1  0  0  0
 24 25  1  0  0  0  0
 24 22  1  0  0  0  0
 25 26  1  0  0  0  0
 26 27  1  0  0  0  0
 27 28  1  0  0  0  0
 28 29  1  0  0  0  0
M  END
>  <MODEL>
2

>  <REMARK>
 VINA RESULT:      -6.9      2.858      5.596
  Name = 
  8 active torsions:
  status: ('A' for Active; 'I' for Inactive)
    1  A    between atoms: C_1  and  C_16
    2  A    between atoms: N_9  and  C_27
    3  A    between atoms: N_9  and  C_29
    4  A    between atoms: C_15  and  C_20
    5  A    between atoms: C_15  and  N_24
    6  A    between atoms: C_20  and  C_25
    7  A    between atoms: C_22  and  C_29
    8  A    between atoms: C_25  and  C_27
                            x       y       z     vdW  Elec       q    Type
                         _______ _______ _______ _____ _____    ______ ____

>  <TORSDO>
F 8

$$$$
=
 OpenBabel11042416513D

 29 31  0  0  1  0  0  0  0  0999 V2000
  186.4030  178.0580  145.3480 C   0  0  0  0  0  0  0  0  0  0  0  0
  187.6840  177.4020  142.9110 C   0  0  0  0  0  3  0  0  0  0  0  0
  186.3750  178.9920  141.8200 F   0  0  0  0  0  0  0  0  0  0  0  0
  186.7710  178.3790  142.9610 C   0  0  0  0  0  0  0  0  0  0  0  0
  188.2050  176.7400  144.1760 C   0  0  2  0  0  0  0  0  0  0  0  0
  186.2050  178.8000  144.2550 C   0  0  0  0  0  3  0  0  0  0  0  0
  187.0940  176.7250  145.2410 C   0  0  0  0  0  2  0  0  0  0  0  0
  193.6490  175.9390  146.5670 C   0  0  0  0  0  3  0  0  0  0  0  0
  191.5100  176.7590  145.8010 C   0  0  0  0  0  0  0  0  0  0  0  0
  193.4040  176.7470  144.2910 C   0  0  0  0  0  3  0  0  0  0  0  0
  190.1010  178.2580  143.9150 O   0  0  0  0  0  0  0  0  0  0  0  0
  191.2310  177.5950  143.5660 O   0  0  0  0  0  0  0  0  0  0  0  0
  189.4600  176.7980  147.0110 O   0  0  0  0  0  0  0  0  0  0  0  0
  195.5370  175.9190  145.0600 O   0  0  0  0  0  1  0  0  0  0  0  0
  194.1990  176.2010  145.3050 C   0  0  0  0  0  0  0  0  0  0  0  0
  190.0710  176.9840  145.9240 C   0  0  0  0  0  0  0  0  0  0  0  0
  192.0620  177.0360  144.5480 C   0  0  0  0  0  0  0  0  0  0  0  0
  192.2990  176.2110  146.8170 C   0  0  0  0  0  3  0  0  0  0  0  0
  189.3920  177.4230  144.7340 N   0  0  0  0  0  0  0  0  0  0  0  0
  185.4910  178.8590  147.6380 N   0  0  0  0  0  0  0  0  0  0  0  0
  185.8970  178.5000  146.6160 C   0  0  0  0  0  0  0  0  0  0  0  0
  188.5510  175.2800  143.8620 C   0  0  0  0  0  2  0  0  0  0  0  0
  187.8200  173.9040  141.9860 N   0  0  0  0  0  1  0  0  0  0  0  0
  188.6900  175.0040  142.3680 C   0  0  2  0  0  3  0  0  0  0  0  0
  190.1330  174.6410  142.0620 C   0  0  0  0  0  2  0  0  0  0  0  0
  190.8000  174.1670  143.2660 N   0  0  0  0  0  2  0  0  0  0  0  0
  191.1220  172.7620  143.0660 C   0  0  0  0  0  2  0  0  0  0  0  0
  190.7390  171.9550  144.2940 C   0  0  0  0  0  2  0  0  0  0  0  0
  189.3500  171.8900  144.4050 O   0  0  0  0  0  1  0  0  0  0  0  0
  1 21  1  0  0  0  0
  2  4  2  0  0  0  0
  2  5  1  0  0  0  0
  3  4  1  0  0  0  0
  4  6  1  0  0  0  0
  5 22  1  6  0  0  0
  5 19  1  0  0  0  0
  5  7  1  0  0  0  0
  6  1  2  0  0  0  0
  7  1  1  0  0  0  0
  8 18  1  0  0  0  0
  9 16  1  0  0  0  0
  9 18  2  0  0  0  0
 10 17  2  0  0  0  0
 10 15  1  0  0  0  0
 11 19  1  0  0  0  0
 12 11  1  0  0  0  0
 12 17  1  0  0  0  0
 14 15  1  0  0  0  0
 15  8  2  0  0  0  0
 16 13  2  0  0  0  0
 17  9  1  0  0  0  0
 19 16  1  0  0  0  0
 21 20  3  0  0  0  0
 24 23  1  1  0  0  0
 24 22  1  0  0  0  0
 25 24  1  0  0  0  0
 25 26  1  0  0  0  0
 27 26  1  0  0  0  0
 27 28  1  0  0  0  0
 28 29  1  0  0  0  0
M  END
>  <MODEL>
3

>  <REMARK>
 VINA RESULT:      -6.9      2.405      4.972
  Name = 
  8 active torsions:
  status: ('A' for Active; 'I' for Inactive)
    1  A    between atoms: C_1  and  C_16
    2  A    between atoms: N_9  and  C_27
    3  A    between atoms: N_9  and  C_29
    4  A    between atoms: C_15  and  C_20
    5  A    between atoms: C_15  and  N_24
    6  A    between atoms: C_20  and  C_25
    7  A    between atoms: C_22  and  C_29
    8  A    between atoms: C_25  and  C_27
                            x       y       z     vdW  Elec       q    Type
                         _______ _______ _______ _____ _____    ______ ____

>  <TORSDO>
F 8

$$$$
=
 OpenBabel11042416513D

 29 31  0  0  1  0  0  0  0  0999 V2000
  186.7380  177.7880  145.6570 C   0  0  0  0  0  0  0  0  0  0  0  0
  187.8850  177.3310  143.1100 C   0  0  0  0  0  3  0  0  0  0  0  0
  186.5070  178.9840  142.2170 F   0  0  0  0  0  0  0  0  0  0  0  0
  186.9700  178.2910  143.2850 C   0  0  0  0  0  0  0  0  0  0  0  0
  188.4800  176.5800  144.2910 C   0  0  2  0  0  0  0  0  0  0  0  0
  186.4750  178.6080  144.6360 C   0  0  0  0  0  3  0  0  0  0  0  0
  187.4300  176.4740  145.4120 C   0  0  0  0  0  2  0  0  0  0  0  0
  194.0170  175.6490  146.4070 C   0  0  0  0  0  3  0  0  0  0  0  0
  191.8500  176.5110  145.7740 C   0  0  0  0  0  0  0  0  0  0  0  0
  193.6790  176.5730  144.1870 C   0  0  0  0  0  3  0  0  0  0  0  0
  190.3690  178.1070  144.0290 O   0  0  0  0  0  0  0  0  0  0  0  0
  191.4810  177.4610  143.5980 O   0  0  0  0  0  0  0  0  0  0  0  0
  189.8530  176.4920  147.0700 O   0  0  0  0  0  0  0  0  0  0  0  0
  195.8390  175.7030  144.8230 O   0  0  0  0  0  1  0  0  0  0  0  0
  194.5140  175.9750  145.1380 C   0  0  0  0  0  0  0  0  0  0  0  0
  190.4190  176.7320  145.9690 C   0  0  0  0  0  0  0  0  0  0  0  0
  192.3500  176.8510  144.5140 C   0  0  0  0  0  0  0  0  0  0  0  0
  192.6790  175.9100  146.7270 C   0  0  0  0  0  3  0  0  0  0  0  0
  189.6910  177.2330  144.8320 N   0  0  0  0  0  0  0  0  0  0  0  0
  185.9510  178.4020  148.0490 N   0  0  0  0  0  0  0  0  0  0  0  0
  186.3010  178.1290  146.9810 C   0  0  0  0  0  0  0  0  0  0  0  0
  188.8170  175.1520  143.8490 C   0  0  0  0  0  2  0  0  0  0  0  0
  187.8920  173.9080  141.9670 N   0  0  0  0  0  1  0  0  0  0  0  0
  188.8090  174.9740  142.3340 C   0  0  2  0  0  3  0  0  0  0  0  0
  190.2100  174.6230  141.8670 C   0  0  0  0  0  2  0  0  0  0  0  0
  190.2560  173.2450  141.3990 N   0  0  0  0  0  2  0  0  0  0  0  0
  191.0320  173.2240  140.1690 C   0  0  0  0  0  2  0  0  0  0  0  0
  190.1240  172.9720  138.9780 C   0  0  0  0  0  2  0  0  0  0  0  0
  190.3920  173.9010  137.9720 O   0  0  0  0  0  1  0  0  0  0  0  0
  1 21  1  0  0  0  0
  2  4  2  0  0  0  0
  2  5  1  0  0  0  0
  3  4  1  0  0  0  0
  4  6  1  0  0  0  0
  5 22  1  6  0  0  0
  5 19  1  0  0  0  0
  5  7  1  0  0  0  0
  6  1  2  0  0  0  0
  7  1  1  0  0  0  0
  8 18  1  0  0  0  0
  9 16  1  0  0  0  0
  9 18  2  0  0  0  0
 10 17  2  0  0  0  0
 10 15  1  0  0  0  0
 11 19  1  0  0  0  0
 12 11  1  0  0  0  0
 12 17  1  0  0  0  0
 14 15  1  0  0  0  0
 15  8  2  0  0  0  0
 16 13  2  0  0  0  0
 17  9  1  0  0  0  0
 19 16  1  0  0  0  0
 21 20  3  0  0  0  0
 24 23  1  1  0  0  0
 24 22  1  0  0  0  0
 25 24  1  0  0  0  0
 26 25  1  0  0  0  0
 27 26  1  0  0  0  0
 28 27  1  0  0  0  0
 29 28  1  0  0  0  0
M  END
>  <MODEL>
4

>  <REMARK>
 VINA RESULT:      -6.6      2.634      5.277
  Name = 
  8 active torsions:
  status: ('A' for Active; 'I' for Inactive)
    1  A    between atoms: C_1  and  C_16
    2  A    between atoms: N_9  and  C_27
    3  A    between atoms: N_9  and  C_29
    4  A    between atoms: C_15  and  C_20
    5  A    between atoms: C_15  and  N_24
    6  A    between atoms: C_20  and  C_25
    7  A    between atoms: C_22  and  C_29
    8  A    between atoms: C_25  and  C_27
                            x       y       z     vdW  Elec       q    Type
                         _______ _______ _______ _____ _____    ______ ____

>  <TORSDO>
F 8

$$$$
=
 OpenBabel11042416513D

 29 31  0  0  1  0  0  0  0  0999 V2000
  192.8380  176.2070  145.8780 C   0  0  0  0  0  0  0  0  0  0  0  0
  190.3780  175.0630  146.6850 C   0  0  0  0  0  3  0  0  0  0  0  0
  191.1860  174.9140  148.8650 F   0  0  0  0  0  0  0  0  0  0  0  0
  191.3420  175.3100  147.5800 C   0  0  0  0  0  0  0  0  0  0  0  0
  190.4850  175.5520  145.2500 C   0  0  2  0  0  0  0  0  0  0  0  0
  192.5660  176.0230  147.1730 C   0  0  0  0  0  3  0  0  0  0  0  0
  191.9640  175.5780  144.8260 C   0  0  0  0  0  2  0  0  0  0  0  0
  186.0670  178.6840  142.6660 C   0  0  0  0  0  3  0  0  0  0  0  0
  188.0710  177.9080  143.7680 C   0  0  0  0  0  0  0  0  0  0  0  0
  186.0520  178.2650  145.0570 C   0  0  0  0  0  3  0  0  0  0  0  0
  189.4620  177.5740  146.1650 O   0  0  0  0  0  0  0  0  0  0  0  0
  188.1080  177.5090  146.1370 O   0  0  0  0  0  0  0  0  0  0  0  0
  190.1600  177.3710  142.7600 O   0  0  0  0  0  0  0  0  0  0  0  0
  184.0500  179.0330  143.9480 O   0  0  0  0  0  1  0  0  0  0  0  0
  185.3870  178.6620  143.8910 C   0  0  0  0  0  0  0  0  0  0  0  0
  189.4380  177.3910  143.7930 C   0  0  0  0  0  0  0  0  0  0  0  0
  187.3990  177.9000  144.9930 C   0  0  0  0  0  0  0  0  0  0  0  0
  187.4110  178.3000  142.5990 C   0  0  0  0  0  3  0  0  0  0  0  0
  189.9110  176.9030  145.0620 N   0  0  0  0  0  0  0  0  0  0  0  0
  194.9400  177.5510  145.1770 N   0  0  0  0  0  0  0  0  0  0  0  0
  194.0010  176.9500  145.4890 C   0  0  0  0  0  0  0  0  0  0  0  0
  189.7680  174.5550  144.3330 C   0  0  0  0  0  2  0  0  0  0  0  0
  190.3500  174.0320  142.0240 N   0  0  0  0  0  1  0  0  0  0  0  0
  190.7170  173.7970  143.4110 C   0  0  2  0  0  3  0  0  0  0  0  0
  190.6270  172.3120  143.7170 C   0  0  0  0  0  2  0  0  0  0  0  0
  191.8510  171.8540  144.3590 N   0  0  0  0  0  2  0  0  0  0  0  0
  192.9700  172.3100  143.5470 C   0  0  0  0  0  2  0  0  0  0  0  0
  194.1840  172.5680  144.4230 C   0  0  0  0  0  2  0  0  0  0  0  0
  193.7840  172.7540  145.7460 O   0  0  0  0  0  1  0  0  0  0  0  0
  1  6  2  0  0  0  0
  2  4  2  0  0  0  0
  4  3  1  0  0  0  0
  5 22  1  6  0  0  0
  5  2  1  0  0  0  0
  6  4  1  0  0  0  0
  7  5  1  0  0  0  0
  7  1  1  0  0  0  0
  8 15  1  0  0  0  0
  9 16  1  0  0  0  0
  9 17  2  0  0  0  0
 12 11  1  0  0  0  0
 13 16  2  0  0  0  0
 15 14  1  0  0  0  0
 15 10  2  0  0  0  0
 16 19  1  0  0  0  0
 17 10  1  0  0  0  0
 17 12  1  0  0  0  0
 18  8  2  0  0  0  0
 18  9  1  0  0  0  0
 19  5  1  0  0  0  0
 19 11  1  0  0  0  0
 20 21  3  0  0  0  0
 21  1  1  0  0  0  0
 24 23  1  6  0  0  0
 24 25  1  0  0  0  0
 24 22  1  0  0  0  0
 25 26  1  0  0  0  0
 27 26  1  0  0  0  0
 27 28  1  0  0  0  0
 28 29  1  0  0  0  0
M  END
>  <MODEL>
5

>  <REMARK>
 VINA RESULT:      -6.5      2.165      6.746
  Name = 
  8 active torsions:
  status: ('A' for Active; 'I' for Inactive)
    1  A    between atoms: C_1  and  C_16
    2  A    between atoms: N_9  and  C_27
    3  A    between atoms: N_9  and  C_29
    4  A    between atoms: C_15  and  C_20
    5  A    between atoms: C_15  and  N_24
    6  A    between atoms: C_20  and  C_25
    7  A    between atoms: C_22  and  C_29
    8  A    between atoms: C_25  and  C_27
                            x       y       z     vdW  Elec       q    Type
                         _______ _______ _______ _____ _____    ______ ____

>  <TORSDO>
F 8

$$$$
=
 OpenBabel11042416513D

 29 31  0  0  1  0  0  0  0  0999 V2000
  188.6620  176.7720  143.1250 C   0  0  0  0  0  0  0  0  0  0  0  0
  189.1350  174.9010  145.1950 C   0  0  0  0  0  3  0  0  0  0  0  0
  189.4460  173.2380  143.5930 F   0  0  0  0  0  0  0  0  0  0  0  0
  189.2280  174.5360  143.9110 C   0  0  0  0  0  0  0  0  0  0  0  0
  188.9610  176.3570  145.5940 C   0  0  2  0  0  0  0  0  0  0  0  0
  189.1080  175.5450  142.8430 C   0  0  0  0  0  3  0  0  0  0  0  0
  188.1590  177.0940  144.5060 C   0  0  0  0  0  2  0  0  0  0  0  0
  194.8940  175.6350  146.1260 C   0  0  0  0  0  3  0  0  0  0  0  0
  192.6080  176.4160  146.1090 C   0  0  0  0  0  0  0  0  0  0  0  0
  193.9350  176.5370  144.0860 C   0  0  0  0  0  3  0  0  0  0  0  0
  190.6530  177.9500  144.8380 O   0  0  0  0  0  0  0  0  0  0  0  0
  191.6290  177.3430  144.1200 O   0  0  0  0  0  0  0  0  0  0  0  0
  191.0380  176.3300  147.8960 O   0  0  0  0  0  0  0  0  0  0  0  0
  196.2160  175.7480  144.1080 O   0  0  0  0  0  1  0  0  0  0  0  0
  195.0170  175.9730  144.7720 C   0  0  0  0  0  0  0  0  0  0  0  0
  191.2760  176.5860  146.6850 C   0  0  0  0  0  0  0  0  0  0  0  0
  192.7350  176.7680  144.7630 C   0  0  0  0  0  0  0  0  0  0  0  0
  193.6850  175.8490  146.7980 C   0  0  0  0  0  3  0  0  0  0  0  0
  190.2500  177.0550  145.7910 N   0  0  0  0  0  0  0  0  0  0  0  0
  188.5510  178.5690  141.2600 N   0  0  0  0  0  0  0  0  0  0  0  0
  188.5990  177.7660  142.0920 C   0  0  0  0  0  0  0  0  0  0  0  0
  188.1380  176.4210  146.8850 C   0  0  0  0  0  2  0  0  0  0  0  0
  187.5160  178.5680  147.8580 N   0  0  0  0  0  1  0  0  0  0  0  0
  187.1200  177.5560  146.8930 C   0  0  2  0  0  3  0  0  0  0  0  0
  185.7580  177.0000  147.2700 C   0  0  0  0  0  2  0  0  0  0  0  0
  184.8240  177.1590  146.1640 N   0  0  0  0  0  2  0  0  0  0  0  0
  184.4290  178.5590  146.1210 C   0  0  0  0  0  2  0  0  0  0  0  0
  184.3410  179.0370  144.6820 C   0  0  0  0  0  2  0  0  0  0  0  0
  185.5690  179.5620  144.2800 O   0  0  0  0  0  1  0  0  0  0  0  0
  1  7  1  0  0  0  0
  2  5  1  0  0  0  0
  3  4  1  0  0  0  0
  4  2  2  0  0  0  0
  5 19  1  0  0  0  0
  5 22  1  1  0  0  0
  6  1  2  0  0  0  0
  6  4  1  0  0  0  0
  7  5  1  0  0  0  0
  8 18  1  0  0  0  0
  9 16  1  0  0  0  0
  9 18  2  0  0  0  0
 10 17  2  0  0  0  0
 10 15  1  0  0  0  0
 11 19  1  0  0  0  0
 12 17  1  0  0  0  0
 12 11  1  0  0  0  0
 14 15  1  0  0  0  0
 15  8  2  0  0  0  0
 16 13  2  0  0  0  0
 17  9  1  0  0  0  0
 19 16  1  0  0  0  0
 20 21  3  0  0  0  0
 21  1  1  0  0  0  0
 22 24  1  0  0  0  0
 24 25  1  0  0  0  0
 24 23  1  1  0  0  0
 26 25  1  0  0  0  0
 27 26  1  0  0  0  0
 28 27  1  0  0  0  0
 29 28  1  0  0  0  0
M  END
>  <MODEL>
6

>  <REMARK>
 VINA RESULT:      -6.5      1.784      2.590
  Name = 
  8 active torsions:
  status: ('A' for Active; 'I' for Inactive)
    1  A    between atoms: C_1  and  C_16
    2  A    between atoms: N_9  and  C_27
    3  A    between atoms: N_9  and  C_29
    4  A    between atoms: C_15  and  C_20
    5  A    between atoms: C_15  and  N_24
    6  A    between atoms: C_20  and  C_25
    7  A    between atoms: C_22  and  C_29
    8  A    between atoms: C_25  and  C_27
                            x       y       z     vdW  Elec       q    Type
                         _______ _______ _______ _____ _____    ______ ____

>  <TORSDO>
F 8

$$$$
=
 OpenBabel11042416513D

 29 31  0  0  1  0  0  0  0  0999 V2000
  190.3140  174.5170  143.0150 C   0  0  0  0  0  0  0  0  0  0  0  0
  189.2540  175.1820  145.5530 C   0  0  0  0  0  3  0  0  0  0  0  0
  189.4010  172.9420  146.1780 F   0  0  0  0  0  0  0  0  0  0  0  0
  189.6270  173.9270  145.2770 C   0  0  0  0  0  0  0  0  0  0  0  0
  189.5540  176.3260  144.5980 C   0  0  2  0  0  0  0  0  0  0  0  0
  190.2970  173.6170  144.0010 C   0  0  0  0  0  3  0  0  0  0  0  0
  189.5420  175.8020  143.1510 C   0  0  0  0  0  2  0  0  0  0  0  0
  195.3210  175.3280  145.9190 C   0  0  0  0  0  3  0  0  0  0  0  0
  193.1150  176.2340  145.5350 C   0  0  0  0  0  0  0  0  0  0  0  0
  194.6650  176.0180  143.6860 C   0  0  0  0  0  3  0  0  0  0  0  0
  191.4320  177.7070  143.8660 O   0  0  0  0  0  0  0  0  0  0  0  0
  192.4350  176.9560  143.3470 O   0  0  0  0  0  0  0  0  0  0  0  0
  191.3540  176.4700  147.1200 O   0  0  0  0  0  0  0  0  0  0  0  0
  196.8650  175.1050  144.0750 O   0  0  0  0  0  1  0  0  0  0  0  0
  195.6190  175.4830  144.5590 C   0  0  0  0  0  0  0  0  0  0  0  0
  191.7430  176.5540  145.9240 C   0  0  0  0  0  0  0  0  0  0  0  0
  193.4170  176.4040  144.1820 C   0  0  0  0  0  0  0  0  0  0  0  0
  194.0640  175.6970  146.4120 C   0  0  0  0  0  3  0  0  0  0  0  0
  190.8610  176.9660  144.8630 N   0  0  0  0  0  0  0  0  0  0  0  0
  191.5790  174.0030  140.8120 N   0  0  0  0  0  0  0  0  0  0  0  0
  191.0150  174.2310  141.7960 C   0  0  0  0  0  0  0  0  0  0  0  0
  188.4370  177.3690  144.7120 C   0  0  0  0  0  2  0  0  0  0  0  0
  187.0680  178.4300  142.9950 N   0  0  0  0  0  1  0  0  0  0  0  0
  187.3280  177.1760  143.6820 C   0  0  2  0  0  3  0  0  0  0  0  0
  186.0670  176.7140  144.3910 C   0  0  0  0  0  2  0  0  0  0  0  0
  186.2240  176.8370  145.8330 N   0  0  0  0  0  2  0  0  0  0  0  0
  184.9130  177.1230  146.3960 C   0  0  0  0  0  2  0  0  0  0  0  0
  184.6590  178.6210  146.4050 C   0  0  0  0  0  2  0  0  0  0  0  0
  183.7190  178.9490  145.4290 O   0  0  0  0  0  1  0  0  0  0  0  0
  1  7  1  0  0  0  0
  1  6  2  0  0  0  0
  4  2  2  0  0  0  0
  4  3  1  0  0  0  0
  5 22  1  1  0  0  0
  5 19  1  0  0  0  0
  5  2  1  0  0  0  0
  6  4  1  0  0  0  0
  7  5  1  0  0  0  0
  8 18  1  0  0  0  0
  9 16  1  0  0  0  0
  9 18  2  0  0  0  0
 10 17  2  0  0  0  0
 10 15  1  0  0  0  0
 11 19  1  0  0  0  0
 12 11  1  0  0  0  0
 12 17  1  0  0  0  0
 14 15  1  0  0  0  0
 15  8  2  0  0  0  0
 16 13  2  0  0  0  0
 17  9  1  0  0  0  0
 19 16  1  0  0  0  0
 20 21  3  0  0  0  0
 21  1  1  0  0  0  0
 24 23  1  1  0  0  0
 24 25  1  0  0  0  0
 24 22  1  0  0  0  0
 25 26  1  0  0  0  0
 26 27  1  0  0  0  0
 27 28  1  0  0  0  0
 29 28  1  0  0  0  0
M  END
>  <MODEL>
7

>  <REMARK>
 VINA RESULT:      -6.5      1.190      1.353
  Name = 
  8 active torsions:
  status: ('A' for Active; 'I' for Inactive)
    1  A    between atoms: C_1  and  C_16
    2  A    between atoms: N_9  and  C_27
    3  A    between atoms: N_9  and  C_29
    4  A    between atoms: C_15  and  C_20
    5  A    between atoms: C_15  and  N_24
    6  A    between atoms: C_20  and  C_25
    7  A    between atoms: C_22  and  C_29
    8  A    between atoms: C_25  and  C_27
                            x       y       z     vdW  Elec       q    Type
                         _______ _______ _______ _____ _____    ______ ____

>  <TORSDO>
F 8

$$$$
=
 OpenBabel11042416513D

 29 31  0  0  1  0  0  0  0  0999 V2000
  194.7200  174.5660  144.5280 C   0  0  0  0  0  0  0  0  0  0  0  0
  193.3530  176.8430  145.5070 C   0  0  0  0  0  3  0  0  0  0  0  0
  195.3520  178.0390  145.4540 F   0  0  0  0  0  0  0  0  0  0  0  0
  194.6540  176.9080  145.1990 C   0  0  0  0  0  0  0  0  0  0  0  0
  192.5200  175.6170  145.1720 C   0  0  2  0  0  0  0  0  0  0  0  0
  195.3250  175.7560  144.5690 C   0  0  0  0  0  3  0  0  0  0  0  0
  193.4080  174.3610  145.2360 C   0  0  0  0  0  2  0  0  0  0  0  0
  187.3280  175.9840  142.1870 C   0  0  0  0  0  3  0  0  0  0  0  0
  189.6170  175.7030  142.9070 C   0  0  0  0  0  0  0  0  0  0  0  0
  188.7850  177.9160  142.3780 C   0  0  0  0  0  3  0  0  0  0  0  0
  192.1890  176.7760  143.0470 O   0  0  0  0  0  0  0  0  0  0  0  0
  191.1010  177.5850  143.0800 O   0  0  0  0  0  0  0  0  0  0  0  0
  190.6800  173.6860  143.5900 O   0  0  0  0  0  0  0  0  0  0  0  0
  186.4950  178.1900  141.6670 O   0  0  0  0  0  1  0  0  0  0  0  0
  187.5340  177.3650  142.0770 C   0  0  0  0  0  0  0  0  0  0  0  0
  190.7350  174.9380  143.4530 C   0  0  0  0  0  0  0  0  0  0  0  0
  189.8280  177.0790  142.7810 C   0  0  0  0  0  0  0  0  0  0  0  0
  188.3680  175.1480  142.6110 C   0  0  0  0  0  3  0  0  0  0  0  0
  191.9000  175.6940  143.8310 N   0  0  0  0  0  0  0  0  0  0  0  0
  195.8640  172.5730  143.3290 N   0  0  0  0  0  0  0  0  0  0  0  0
  195.3540  173.4630  143.8650 C   0  0  0  0  0  0  0  0  0  0  0  0
  191.4290  175.4550  146.2360 C   0  0  0  0  0  2  0  0  0  0  0  0
  191.1700  176.5730  148.3870 N   0  0  0  0  0  1  0  0  0  0  0  0
  191.0870  176.7590  146.9490 C   0  0  2  0  0  3  0  0  0  0  0  0
  189.6770  177.1780  146.5710 C   0  0  0  0  0  2  0  0  0  0  0  0
  188.7920  176.0210  146.5630 N   0  0  0  0  0  2  0  0  0  0  0  0
  187.5330  176.4340  145.9630 C   0  0  0  0  0  2  0  0  0  0  0  0
  186.5350  176.8130  147.0430 C   0  0  0  0  0  2  0  0  0  0  0  0
  185.2400  176.7790  146.5260 O   0  0  0  0  0  1  0  0  0  0  0  0
  1  6  2  0  0  0  0
  1  7  1  0  0  0  0
  4  3  1  0  0  0  0
  4  2  2  0  0  0  0
  5  7  1  0  0  0  0
  5  2  1  0  0  0  0
  5 22  1  1  0  0  0
  6  4  1  0  0  0  0
  8 18  1  0  0  0  0
  9 16  1  0  0  0  0
 10 17  2  0  0  0  0
 11 12  1  0  0  0  0
 11 19  1  0  0  0  0
 14 15  1  0  0  0  0
 15  8  2  0  0  0  0
 15 10  1  0  0  0  0
 16 13  2  0  0  0  0
 16 19  1  0  0  0  0
 17  9  1  0  0  0  0
 17 12  1  0  0  0  0
 18  9  2  0  0  0  0
 19  5  1  0  0  0  0
 20 21  3  0  0  0  0
 21  1  1  0  0  0  0
 22 24  1  0  0  0  0
 24 23  1  1  0  0  0
 25 24  1  0  0  0  0
 26 25  1  0  0  0  0
 27 26  1  0  0  0  0
 27 28  1  0  0  0  0
 29 28  1  0  0  0  0
M  END
>  <MODEL>
8

>  <REMARK>
 VINA RESULT:      -6.4      2.878      5.438
  Name = 
  8 active torsions:
  status: ('A' for Active; 'I' for Inactive)
    1  A    between atoms: C_1  and  C_16
    2  A    between atoms: N_9  and  C_27
    3  A    between atoms: N_9  and  C_29
    4  A    between atoms: C_15  and  C_20
    5  A    between atoms: C_15  and  N_24
    6  A    between atoms: C_20  and  C_25
    7  A    between atoms: C_22  and  C_29
    8  A    between atoms: C_25  and  C_27
                            x       y       z     vdW  Elec       q    Type
                         _______ _______ _______ _____ _____    ______ ____

>  <TORSDO>
F 8

$$$$
=
 OpenBabel11042416513D

 29 31  0  0  1  0  0  0  0  0999 V2000
  191.1190  176.0220  147.0570 C   0  0  0  0  0  0  0  0  0  0  0  0
  190.3350  174.5640  144.7610 C   0  0  0  0  0  3  0  0  0  0  0  0
  189.3160  172.9850  146.1380 F   0  0  0  0  0  0  0  0  0  0  0  0
  189.9740  174.1580  145.9840 C   0  0  0  0  0  0  0  0  0  0  0  0
  191.0110  175.9080  144.5400 C   0  0  2  0  0  0  0  0  0  0  0  0
  190.2750  174.9920  147.1610 C   0  0  0  0  0  3  0  0  0  0  0  0
  191.8650  176.2600  145.7720 C   0  0  0  0  0  2  0  0  0  0  0  0
  185.1910  177.3060  144.1260 C   0  0  0  0  0  3  0  0  0  0  0  0
  187.6050  177.2220  144.0580 C   0  0  0  0  0  0  0  0  0  0  0  0
  186.4830  177.9520  146.0770 C   0  0  0  0  0  3  0  0  0  0  0  0
  190.0220  178.0480  145.1810 O   0  0  0  0  0  0  0  0  0  0  0  0
  188.9220  177.8810  145.9560 O   0  0  0  0  0  0  0  0  0  0  0  0
  188.9740  176.4550  142.2680 O   0  0  0  0  0  0  0  0  0  0  0  0
  184.0720  178.0270  146.1410 O   0  0  0  0  0  1  0  0  0  0  0  0
  185.2470  177.7620  145.4500 C   0  0  0  0  0  0  0  0  0  0  0  0
  188.8880  176.8650  143.4570 C   0  0  0  0  0  0  0  0  0  0  0  0
  187.6610  177.6920  145.3720 C   0  0  0  0  0  0  0  0  0  0  0  0
  186.3710  177.0270  143.4270 C   0  0  0  0  0  3  0  0  0  0  0  0
  190.0460  177.0020  144.3000 N   0  0  0  0  0  0  0  0  0  0  0  0
  191.5660  177.5400  149.1090 N   0  0  0  0  0  0  0  0  0  0  0  0
  191.3660  176.8630  148.1920 C   0  0  0  0  0  0  0  0  0  0  0  0
  191.9650  175.7900  143.3460 C   0  0  0  0  0  2  0  0  0  0  0  0
  193.4340  173.8450  143.2960 N   0  0  0  0  0  1  0  0  0  0  0  0
  192.1460  174.3560  142.8600 C   0  0  2  0  0  3  0  0  0  0  0  0
  192.0760  174.3320  141.3430 C   0  0  0  0  0  2  0  0  0  0  0  0
  190.7640  173.8770  140.9060 N   0  0  0  0  0  2  0  0  0  0  0  0
  190.4490  172.6650  141.6470 C   0  0  0  0  0  2  0  0  0  0  0  0
  188.9610  172.6010  141.9420 C   0  0  0  0  0  2  0  0  0  0  0  0
  188.7420  171.9160  143.1360 O   0  0  0  0  0  1  0  0  0  0  0  0
  1  6  2  0  0  0  0
  1 21  1  0  0  0  0
  2  4  2  0  0  0  0
  4  3  1  0  0  0  0
  4  6  1  0  0  0  0
  5 22  1  6  0  0  0
  5  2  1  0  0  0  0
  5  7  1  0  0  0  0
  7  1  1  0  0  0  0
  8 15  1  0  0  0  0
  9 17  2  0  0  0  0
 11 12  1  0  0  0  0
 13 16  2  0  0  0  0
 15 10  2  0  0  0  0
 15 14  1  0  0  0  0
 16  9  1  0  0  0  0
 16 19  1  0  0  0  0
 17 12  1  0  0  0  0
 17 10  1  0  0  0  0
 18  9  1  0  0  0  0
 18  8  2  0  0  0  0
 19  5  1  0  0  0  0
 19 11  1  0  0  0  0
 21 20  3  0  0  0  0
 24 23  1  6  0  0  0
 24 22  1  0  0  0  0
 25 24  1  0  0  0  0
 26 25  1  0  0  0  0
 26 27  1  0  0  0  0
 27 28  1  0  0  0  0
 28 29  1  0  0  0  0
M  END
>  <MODEL>
9

>  <REMARK>
 VINA RESULT:      -6.2      2.445      6.532
  Name = 
  8 active torsions:
  status: ('A' for Active; 'I' for Inactive)
    1  A    between atoms: C_1  and  C_16
    2  A    between atoms: N_9  and  C_27
    3  A    between atoms: N_9  and  C_29
    4  A    between atoms: C_15  and  C_20
    5  A    between atoms: C_15  and  N_24
    6  A    between atoms: C_20  and  C_25
    7  A    between atoms: C_22  and  C_29
    8  A    between atoms: C_25  and  C_27
                            x       y       z     vdW  Elec       q    Type
                         _______ _______ _______ _____ _____    ______ ____

>  <TORSDO>
F 8

$$$$
