=
 OpenBabel11042413533D

 51 53  0  0  1  0  0  0  0  0999 V2000
  189.4740  173.1690  139.2460 C   0  0  0  0  0  0  0  0  0  0  0  0
  188.4790  174.6510  140.8050 O   0  0  0  0  0  0  0  0  0  0  0  0
  189.2290  173.6570  140.6130 C   0  0  0  0  0  0  0  0  0  0  0  0
  191.7530  170.2430  140.0120 N   0  0  0  0  0  2  0  0  0  0  0  0
  189.8400  172.9560  141.7960 C   0  0  1  0  0  3  0  0  0  0  0  0
  190.2910  172.0450  139.0520 C   0  0  0  0  0  0  0  0  0  0  0  0
  188.8910  173.8070  138.1400 C   0  0  0  0  0  3  0  0  0  0  0  0
  189.1200  173.3250  136.8480 C   0  0  0  0  0  3  0  0  0  0  0  0
  189.9320  172.2040  136.6550 C   0  0  0  0  0  3  0  0  0  0  0  0
  190.6840  171.8100  141.4220 N   0  0  0  0  0  0  0  0  0  0  0  0
  190.9040  171.3770  140.2150 C   0  0  0  0  0  0  0  0  0  0  0  0
  190.5170  171.5670  137.7520 C   0  0  0  0  0  3  0  0  0  0  0  0
  192.3540  169.5120  141.1130 C   0  0  0  0  0  2  0  0  0  0  0  0
  193.8580  169.6880  141.0940 C   0  0  0  0  0  2  0  0  0  0  0  0
  194.3430  169.7780  142.4020 O   0  0  0  0  0  0  0  0  0  0  0  0
  193.9400  171.0400  142.8490 C   0  0  0  0  0  2  0  0  0  0  0  0
  195.0710  172.0470  142.6890 C   0  0  0  0  0  2  0  0  0  0  0  0
  194.5120  174.3740  143.5390 C   0  0  0  0  0  0  0  0  0  0  0  0
  194.0650  173.7950  141.2240 C   0  0  0  0  0  3  0  0  0  0  0  0
  193.5430  176.0160  142.0390 C   0  0  0  0  0  3  0  0  0  0  0  0
  193.5670  175.0830  140.9980 C   0  0  0  0  0  3  0  0  0  0  0  0
  194.0170  175.6630  143.3040 C   0  0  0  0  0  3  0  0  0  0  0  0
  194.5390  173.4320  142.4890 C   0  0  0  0  0  0  0  0  0  0  0  0
  195.0360  174.0420  144.8960 C   0  0  0  0  0  2  0  0  0  0  0  0
  196.4300  174.0640  144.8820 O   0  0  0  0  0  0  0  0  0  0  0  0
  196.9710  172.0160  145.9670 C   0  0  0  0  0  1  0  0  0  0  0  0
  196.8050  173.5150  146.1070 C   0  0  0  0  0  2  0  0  0  0  0  0
  190.6350  173.9400  142.6430 C   0  0  0  0  0  2  0  0  0  0  0  0
  189.7840  173.9520  145.1740 C   0  0  0  0  0  0  0  0  0  0  0  0
  190.1660  173.9270  144.0310 C   0  0  0  0  0  0  0  0  0  0  0  0
  189.3120  174.0240  146.5650 C   0  0  0  0  0  2  0  0  0  0  0  0
  189.9210  175.2070  147.3200 C   0  0  2  0  0  3  0  0  0  0  0  0
  186.7390  176.9040  147.2750 C   0  0  0  0  0  3  0  0  0  0  0  0
  189.2830  176.4930  146.9070 C   0  0  0  0  0  3  0  0  0  0  0  0
  188.0100  176.6910  147.0910 C   0  0  0  0  0  0  0  0  0  0  0  0
  186.1310  178.1890  146.8370 C   0  0  0  0  0  2  0  0  0  0  0  0
  184.8340  177.9430  146.0830 C   0  0  0  0  0  2  0  0  0  0  0  0
  185.1100  177.3850  144.6890 C   0  0  0  0  0  2  0  0  0  0  0  0
  185.1830  178.4760  143.6170 C   0  0  0  0  0  0  0  0  0  0  0  0
  184.5350  179.7490  144.1300 C   0  0  0  0  0  1  0  0  0  0  0  0
  184.3950  178.0180  142.4040 C   0  0  0  0  0  1  0  0  0  0  0  0
  186.6320  178.7890  143.2270 C   0  0  0  0  0  2  0  0  0  0  0  0
  187.3890  177.5830  142.6700 C   0  0  1  0  0  3  0  0  0  0  0  0
  187.8920  177.8970  141.2740 C   0  0  0  0  0  1  0  0  0  0  0  0
  188.5740  177.2590  143.5590 C   0  0  0  0  0  2  0  0  0  0  0  0
  190.9170  177.9780  143.8840 C   0  0  0  0  0  1  0  0  0  0  0  0
  189.8700  177.6140  142.8580 C   0  0  0  0  0  2  0  0  0  0  0  0
  191.4340  175.2610  147.1330 C   0  0  0  0  0  2  0  0  0  0  0  0
  191.9600  176.6800  147.2820 C   0  0  1  0  0  3  0  0  0  0  0  0
  191.8440  177.0900  148.6130 O   0  0  0  0  0  1  0  0  0  0  0  0
  193.4160  176.7230  146.8670 C   0  0  0  0  0  1  0  0  0  0  0  0
  1  3  1  0  0  0  0
  3  2  2  0  0  0  0
  3  5  1  0  0  0  0
  4 11  1  0  0  0  0
  4 13  1  0  0  0  0
  5 28  1  6  0  0  0
  6  1  1  0  0  0  0
  6 11  1  0  0  0  0
  7  1  2  0  0  0  0
  8  7  1  0  0  0  0
  9  8  2  0  0  0  0
  9 12  1  0  0  0  0
 10  5  1  0  0  0  0
 11 10  2  0  0  0  0
 12  6  2  0  0  0  0
 14 13  1  0  0  0  0
 14 15  1  0  0  0  0
 15 16  1  0  0  0  0
 17 16  1  0  0  0  0
 18 24  1  0  0  0  0
 19 23  1  0  0  0  0
 20 22  2  0  0  0  0
 21 19  2  0  0  0  0
 21 20  1  0  0  0  0
 22 18  1  0  0  0  0
 23 17  1  0  0  0  0
 23 18  2  0  0  0  0
 25 24  1  0  0  0  0
 25 27  1  0  0  0  0
 26 27  1  0  0  0  0
 28 30  1  0  0  0  0
 29 31  1  0  0  0  0
 30 29  3  0  0  0  0
 32 31  1  6  0  0  0
 34 35  2  0  0  0  0
 34 32  1  0  0  0  0
 35 33  2  0  0  0  0
 36 33  1  0  0  0  0
 37 36  1  0  0  0  0
 38 37  1  0  0  0  0
 39 40  1  0  0  0  0
 39 38  1  0  0  0  0
 41 39  1  0  0  0  0
 42 39  1  0  0  0  0
 43 44  1  6  0  0  0
 43 42  1  0  0  0  0
 43 45  1  0  0  0  0
 47 45  1  0  0  0  0
 47 46  1  0  0  0  0
 48 49  1  0  0  0  0
 48 32  1  0  0  0  0
 49 51  1  1  0  0  0
 49 50  1  0  0  0  0
M  END
>  <MODEL>
1

>  <REMARK>
 VINA RESULT:      -6.0      0.000      0.000
  Name = 
  24 active torsions:
  status: ('A' for Active; 'I' for Inactive)
    1  A    between atoms: C_1  and  C_45
    2  A    between atoms: C_1  and  C_46
    3  A    between atoms: C_2  and  C_14
    4  A    between atoms: C_2  and  C_46
    5  A    between atoms: C_5  and  O_8
    6  A    between atoms: C_5  and  C_24
    7  A    between atoms: O_8  and  C_44
    8  A    between atoms: C_9  and  C_23
    9  A    between atoms: C_9  and  C_35
   10  A    between atoms: C_9  and  C_47
   11  A    between atoms: C_11  and  C_23
   12  A    between atoms: O_12  and  C_29
   13  A    between atoms: O_12  and  C_51
   14  A    between atoms: C_14  and  C_36
   15  A    between atoms: N_16  and  C_24
   16  A    between atoms: C_17  and  C_18
   17  A    between atoms: C_17  and  C_40
   18  A    between atoms: C_19  and  C_34
   19  A    between atoms: C_19  and  C_36
   20  A    between atoms: C_22  and  C_47
   21  A    between atoms: C_26  and  C_29
   22  A    between atoms: C_43  and  C_45
   23  A    between atoms: C_44  and  C_48
   24  A    between atoms: C_48  and  C_49
                            x       y       z     vdW  Elec       q    Type
                         _______ _______ _______ _____ _____    ______ ____

>  <TORSDO>
F 24

$$$$
=
 OpenBabel11042413533D

 51 53  0  0  1  0  0  0  0  0999 V2000
  187.2620  177.0580  146.3440 C   0  0  0  0  0  0  0  0  0  0  0  0
  188.6090  175.3450  147.2760 O   0  0  0  0  0  0  0  0  0  0  0  0
  188.2870  176.0060  146.2520 C   0  0  0  0  0  0  0  0  0  0  0  0
  187.1900  178.1970  142.7330 N   0  0  0  0  0  2  0  0  0  0  0  0
  188.9330  175.6820  144.9320 C   0  0  1  0  0  3  0  0  0  0  0  0
  186.8960  177.7670  145.1900 C   0  0  0  0  0  0  0  0  0  0  0  0
  186.6410  177.3520  147.5680 C   0  0  0  0  0  3  0  0  0  0  0  0
  185.6600  178.3440  147.6400 C   0  0  0  0  0  3  0  0  0  0  0  0
  185.2930  179.0480  146.4890 C   0  0  0  0  0  3  0  0  0  0  0  0
  188.4550  176.5270  143.8260 N   0  0  0  0  0  0  0  0  0  0  0  0
  187.5500  177.4590  143.9040 C   0  0  0  0  0  0  0  0  0  0  0  0
  185.9100  178.7620  145.2690 C   0  0  0  0  0  3  0  0  0  0  0  0
  187.7620  177.9180  141.4280 C   0  0  0  0  0  2  0  0  0  0  0  0
  186.7470  177.2070  140.5570 C   0  0  0  0  0  2  0  0  0  0  0  0
  187.3900  176.2570  139.7580 O   0  0  0  0  0  0  0  0  0  0  0  0
  187.9630  175.3560  140.6610 C   0  0  0  0  0  2  0  0  0  0  0  0
  188.5200  174.1460  139.9230 C   0  0  0  0  0  2  0  0  0  0  0  0
  190.1610  172.2880  140.4760 C   0  0  0  0  0  0  0  0  0  0  0  0
  188.6730  173.1340  142.1970 C   0  0  0  0  0  3  0  0  0  0  0  0
  190.2470  171.3680  142.7190 C   0  0  0  0  0  3  0  0  0  0  0  0
  189.2270  172.2380  143.1170 C   0  0  0  0  0  3  0  0  0  0  0  0
  190.7130  171.3960  141.4030 C   0  0  0  0  0  3  0  0  0  0  0  0
  189.1330  173.1660  140.8760 C   0  0  0  0  0  0  0  0  0  0  0  0
  190.7050  172.3070  139.0870 C   0  0  0  0  0  2  0  0  0  0  0  0
  192.0330  172.7310  139.1060 O   0  0  0  0  0  0  0  0  0  0  0  0
  192.3170  171.2060  137.3010 C   0  0  0  0  0  1  0  0  0  0  0  0
  192.4550  172.6360  137.7810 C   0  0  0  0  0  2  0  0  0  0  0  0
  190.4490  175.7760  145.0470 C   0  0  0  0  0  2  0  0  0  0  0  0
  191.6370  175.3140  142.7010 C   0  0  0  0  0  0  0  0  0  0  0  0
  191.0840  175.5150  143.7530 C   0  0  0  0  0  0  0  0  0  0  0  0
  192.3500  175.0730  141.4370 C   0  0  0  0  0  2  0  0  0  0  0  0
  193.8240  174.7320  141.6620 C   0  0  2  0  0  3  0  0  0  0  0  0
  194.4420  171.1960  141.3200 C   0  0  0  0  0  3  0  0  0  0  0  0
  193.9700  173.4840  142.4690 C   0  0  0  0  0  3  0  0  0  0  0  0
  194.2030  172.3420  141.8880 C   0  0  0  0  0  0  0  0  0  0  0  0
  194.5660  169.9670  142.1500 C   0  0  0  0  0  2  0  0  0  0  0  0
  194.4520  170.3020  143.6280 C   0  0  0  0  0  2  0  0  0  0  0  0
  195.4960  169.5420  144.4420 C   0  0  0  0  0  2  0  0  0  0  0  0
  196.5530  170.4630  145.0580 C   0  0  0  0  0  0  0  0  0  0  0  0
  197.9410  170.0020  144.6500 C   0  0  0  0  0  1  0  0  0  0  0  0
  196.4640  170.3630  146.5690 C   0  0  0  0  0  1  0  0  0  0  0  0
  196.3700  171.9160  144.6060 C   0  0  0  0  0  2  0  0  0  0  0  0
  196.1620  172.8940  145.7630 C   0  0  1  0  0  3  0  0  0  0  0  0
  197.3500  173.8320  145.8570 C   0  0  0  0  0  1  0  0  0  0  0  0
  194.9060  173.7130  145.5290 C   0  0  0  0  0  2  0  0  0  0  0  0
  194.1940  176.0630  145.8200 C   0  0  0  0  0  1  0  0  0  0  0  0
  194.8540  174.8820  146.4930 C   0  0  0  0  0  2  0  0  0  0  0  0
  194.5660  175.8950  142.3150 C   0  0  0  0  0  2  0  0  0  0  0  0
  196.0620  175.8110  142.0580 C   0  0  1  0  0  3  0  0  0  0  0  0
  196.3820  176.5110  140.8920 O   0  0  0  0  0  1  0  0  0  0  0  0
  196.8080  176.4170  143.2300 C   0  0  0  0  0  1  0  0  0  0  0  0
  1  7  1  0  0  0  0
  3  1  1  0  0  0  0
  3  2  2  0  0  0  0
  4 11  1  0  0  0  0
  5 28  1  1  0  0  0
  5  3  1  0  0  0  0
  6 12  1  0  0  0  0
  6  1  2  0  0  0  0
  7  8  2  0  0  0  0
  9  8  1  0  0  0  0
 10 11  2  0  0  0  0
 10  5  1  0  0  0  0
 11  6  1  0  0  0  0
 12  9  2  0  0  0  0
 13  4  1  0  0  0  0
 14 13  1  0  0  0  0
 15 14  1  0  0  0  0
 15 16  1  0  0  0  0
 17 16  1  0  0  0  0
 17 23  1  0  0  0  0
 18 23  2  0  0  0  0
 18 22  1  0  0  0  0
 19 21  2  0  0  0  0
 20 21  1  0  0  0  0
 22 20  2  0  0  0  0
 23 19  1  0  0  0  0
 24 25  1  0  0  0  0
 24 18  1  0  0  0  0
 26 27  1  0  0  0  0
 27 25  1  0  0  0  0
 29 30  3  0  0  0  0
 30 28  1  0  0  0  0
 31 29  1  0  0  0  0
 32 31  1  1  0  0  0
 32 48  1  0  0  0  0
 32 34  1  0  0  0  0
 33 35  2  0  0  0  0
 33 36  1  0  0  0  0
 35 34  2  0  0  0  0
 36 37  1  0  0  0  0
 37 38  1  0  0  0  0
 38 39  1  0  0  0  0
 39 41  1  0  0  0  0
 40 39  1  0  0  0  0
 42 39  1  0  0  0  0
 42 43  1  0  0  0  0
 43 44  1  6  0  0  0
 45 43  1  0  0  0  0
 45 47  1  0  0  0  0
 46 47  1  0  0  0  0
 49 48  1  0  0  0  0
 49 51  1  1  0  0  0
 50 49  1  0  0  0  0
M  END
>  <MODEL>
2

>  <REMARK>
 VINA RESULT:      -5.9      2.387      8.993
  Name = 
  24 active torsions:
  status: ('A' for Active; 'I' for Inactive)
    1  A    between atoms: C_1  and  C_45
    2  A    between atoms: C_1  and  C_46
    3  A    between atoms: C_2  and  C_14
    4  A    between atoms: C_2  and  C_46
    5  A    between atoms: C_5  and  O_8
    6  A    between atoms: C_5  and  C_24
    7  A    between atoms: O_8  and  C_44
    8  A    between atoms: C_9  and  C_23
    9  A    between atoms: C_9  and  C_35
   10  A    between atoms: C_9  and  C_47
   11  A    between atoms: C_11  and  C_23
   12  A    between atoms: O_12  and  C_29
   13  A    between atoms: O_12  and  C_51
   14  A    between atoms: C_14  and  C_36
   15  A    between atoms: N_16  and  C_24
   16  A    between atoms: C_17  and  C_18
   17  A    between atoms: C_17  and  C_40
   18  A    between atoms: C_19  and  C_34
   19  A    between atoms: C_19  and  C_36
   20  A    between atoms: C_22  and  C_47
   21  A    between atoms: C_26  and  C_29
   22  A    between atoms: C_43  and  C_45
   23  A    between atoms: C_44  and  C_48
   24  A    between atoms: C_48  and  C_49
                            x       y       z     vdW  Elec       q    Type
                         _______ _______ _______ _____ _____    ______ ____

>  <TORSDO>
F 24

$$$$
=
 OpenBabel11042413533D

 51 53  0  0  1  0  0  0  0  0999 V2000
  189.3540  172.9540  139.0610 C   0  0  0  0  0  0  0  0  0  0  0  0
  188.6690  174.8630  140.2870 O   0  0  0  0  0  0  0  0  0  0  0  0
  189.1420  173.6950  140.3150 C   0  0  0  0  0  0  0  0  0  0  0  0
  190.7100  169.7070  140.4610 N   0  0  0  0  0  2  0  0  0  0  0  0
  189.4510  173.0560  141.6430 C   0  0  1  0  0  3  0  0  0  0  0  0
  189.8570  171.6450  139.1110 C   0  0  0  0  0  0  0  0  0  0  0  0
  189.0500  173.5370  137.8210 C   0  0  0  0  0  3  0  0  0  0  0  0
  189.2420  172.8180  136.6380 C   0  0  0  0  0  3  0  0  0  0  0  0
  189.7400  171.5130  136.6880 C   0  0  0  0  0  3  0  0  0  0  0  0
  189.9880  171.6910  141.5210 N   0  0  0  0  0  0  0  0  0  0  0  0
  190.1780  171.0340  140.4140 C   0  0  0  0  0  0  0  0  0  0  0  0
  190.0490  170.9290  137.9200 C   0  0  0  0  0  3  0  0  0  0  0  0
  191.0080  169.0290  141.7100 C   0  0  0  0  0  2  0  0  0  0  0  0
  192.5070  168.9280  141.9020 C   0  0  0  0  0  2  0  0  0  0  0  0
  192.8200  169.0350  143.2590 O   0  0  0  0  0  0  0  0  0  0  0  0
  193.7830  170.0470  143.3270 C   0  0  0  0  0  2  0  0  0  0  0  0
  193.1290  171.4150  143.1880 C   0  0  0  0  0  2  0  0  0  0  0  0
  194.8160  173.2960  142.9360 C   0  0  0  0  0  0  0  0  0  0  0  0
  193.9900  172.7040  145.1400 C   0  0  0  0  0  3  0  0  0  0  0  0
  195.5920  174.5040  144.8920 C   0  0  0  0  0  3  0  0  0  0  0  0
  194.7840  173.7060  145.7070 C   0  0  0  0  0  3  0  0  0  0  0  0
  195.6050  174.3010  143.5100 C   0  0  0  0  0  3  0  0  0  0  0  0
  193.9990  172.4920  143.7570 C   0  0  0  0  0  0  0  0  0  0  0  0
  194.8350  173.1280  141.4530 C   0  0  0  0  0  2  0  0  0  0  0  0
  193.8940  173.9750  140.8700 O   0  0  0  0  0  0  0  0  0  0  0  0
  193.2290  172.7160  138.9630 C   0  0  0  0  0  1  0  0  0  0  0  0
  194.0960  173.8370  139.4980 C   0  0  0  0  0  2  0  0  0  0  0  0
  190.4100  173.9290  142.4400 C   0  0  0  0  0  2  0  0  0  0  0  0
  189.7940  173.9190  145.0380 C   0  0  0  0  0  0  0  0  0  0  0  0
  190.0710  173.9040  143.8660 C   0  0  0  0  0  0  0  0  0  0  0  0
  189.4490  173.9790  146.4670 C   0  0  0  0  0  2  0  0  0  0  0  0
  190.0680  175.1930  147.1600 C   0  0  2  0  0  3  0  0  0  0  0  0
  186.7830  176.6760  147.2650 C   0  0  0  0  0  3  0  0  0  0  0  0
  189.3350  176.4450  146.8060 C   0  0  0  0  0  3  0  0  0  0  0  0
  188.0580  176.5530  147.0350 C   0  0  0  0  0  0  0  0  0  0  0  0
  186.0780  177.9310  146.8860 C   0  0  0  0  0  2  0  0  0  0  0  0
  184.8440  177.6250  146.0520 C   0  0  0  0  0  2  0  0  0  0  0  0
  185.2330  177.1970  144.6390 C   0  0  0  0  0  2  0  0  0  0  0  0
  185.1920  178.3530  143.6360 C   0  0  0  0  0  0  0  0  0  0  0  0
  184.4730  179.5420  144.2480 C   0  0  0  0  0  1  0  0  0  0  0  0
  184.3990  177.9140  142.4210 C   0  0  0  0  0  1  0  0  0  0  0  0
  186.6010  178.7940  143.2260 C   0  0  0  0  0  2  0  0  0  0  0  0
  187.4560  177.6590  142.6610 C   0  0  1  0  0  3  0  0  0  0  0  0
  187.9100  178.0130  141.2570 C   0  0  0  0  0  1  0  0  0  0  0  0
  188.6790  177.4480  143.5340 C   0  0  0  0  0  2  0  0  0  0  0  0
  191.1280  177.7450  143.6960 C   0  0  0  0  0  1  0  0  0  0  0  0
  189.9400  177.7850  142.7640 C   0  0  0  0  0  2  0  0  0  0  0  0
  191.5530  175.3170  146.8330 C   0  0  0  0  0  2  0  0  0  0  0  0
  192.0740  176.7120  147.1430 C   0  0  1  0  0  3  0  0  0  0  0  0
  191.9000  176.9900  148.5010 O   0  0  0  0  0  1  0  0  0  0  0  0
  193.5470  176.7870  146.7980 C   0  0  0  0  0  1  0  0  0  0  0  0
  1  6  1  0  0  0  0
  1  3  1  0  0  0  0
  2  3  2  0  0  0  0
  3  5  1  0  0  0  0
  4 13  1  0  0  0  0
  5 28  1  6  0  0  0
  6 11  1  0  0  0  0
  7  1  2  0  0  0  0
  8  9  2  0  0  0  0
  8  7  1  0  0  0  0
  9 12  1  0  0  0  0
 10  5  1  0  0  0  0
 11  4  1  0  0  0  0
 11 10  2  0  0  0  0
 12  6  2  0  0  0  0
 13 14  1  0  0  0  0
 14 15  1  0  0  0  0
 15 16  1  0  0  0  0
 17 16  1  0  0  0  0
 17 23  1  0  0  0  0
 18 22  2  0  0  0  0
 18 23  1  0  0  0  0
 19 21  1  0  0  0  0
 20 21  2  0  0  0  0
 22 20  1  0  0  0  0
 23 19  2  0  0  0  0
 24 18  1  0  0  0  0
 25 24  1  0  0  0  0
 26 27  1  0  0  0  0
 27 25  1  0  0  0  0
 28 30  1  0  0  0  0
 29 31  1  0  0  0  0
 30 29  3  0  0  0  0
 32 31  1  6  0  0  0
 34 35  2  0  0  0  0
 34 32  1  0  0  0  0
 35 33  2  0  0  0  0
 36 33  1  0  0  0  0
 37 36  1  0  0  0  0
 38 37  1  0  0  0  0
 39 40  1  0  0  0  0
 39 38  1  0  0  0  0
 41 39  1  0  0  0  0
 42 39  1  0  0  0  0
 43 44  1  6  0  0  0
 43 42  1  0  0  0  0
 43 45  1  0  0  0  0
 47 45  1  0  0  0  0
 47 46  1  0  0  0  0
 48 49  1  0  0  0  0
 48 32  1  0  0  0  0
 49 51  1  1  0  0  0
 49 50  1  0  0  0  0
M  END
>  <MODEL>
3

>  <REMARK>
 VINA RESULT:      -5.8      1.188      2.155
  Name = 
  24 active torsions:
  status: ('A' for Active; 'I' for Inactive)
    1  A    between atoms: C_1  and  C_45
    2  A    between atoms: C_1  and  C_46
    3  A    between atoms: C_2  and  C_14
    4  A    between atoms: C_2  and  C_46
    5  A    between atoms: C_5  and  O_8
    6  A    between atoms: C_5  and  C_24
    7  A    between atoms: O_8  and  C_44
    8  A    between atoms: C_9  and  C_23
    9  A    between atoms: C_9  and  C_35
   10  A    between atoms: C_9  and  C_47
   11  A    between atoms: C_11  and  C_23
   12  A    between atoms: O_12  and  C_29
   13  A    between atoms: O_12  and  C_51
   14  A    between atoms: C_14  and  C_36
   15  A    between atoms: N_16  and  C_24
   16  A    between atoms: C_17  and  C_18
   17  A    between atoms: C_17  and  C_40
   18  A    between atoms: C_19  and  C_34
   19  A    between atoms: C_19  and  C_36
   20  A    between atoms: C_22  and  C_47
   21  A    between atoms: C_26  and  C_29
   22  A    between atoms: C_43  and  C_45
   23  A    between atoms: C_44  and  C_48
   24  A    between atoms: C_48  and  C_49
                            x       y       z     vdW  Elec       q    Type
                         _______ _______ _______ _____ _____    ______ ____

>  <TORSDO>
F 24

$$$$
=
 OpenBabel11042413533D

 51 53  0  0  1  0  0  0  0  0999 V2000
  189.2140  172.3480  137.8060 C   0  0  0  0  0  0  0  0  0  0  0  0
  187.8080  174.2550  137.8190 O   0  0  0  0  0  0  0  0  0  0  0  0
  188.4670  173.4150  138.4900 C   0  0  0  0  0  0  0  0  0  0  0  0
  190.6580  170.5530  140.8120 N   0  0  0  0  0  2  0  0  0  0  0  0
  188.4500  173.4950  139.9920 C   0  0  1  0  0  3  0  0  0  0  0  0
  189.9220  171.4060  138.5670 C   0  0  0  0  0  0  0  0  0  0  0  0
  189.2180  172.2560  136.4050 C   0  0  0  0  0  3  0  0  0  0  0  0
  189.9200  171.2290  135.7680 C   0  0  0  0  0  3  0  0  0  0  0  0
  190.6220  170.2890  136.5270 C   0  0  0  0  0  3  0  0  0  0  0  0
  189.2560  172.4480  140.6410 N   0  0  0  0  0  0  0  0  0  0  0  0
  189.9190  171.5030  140.0390 C   0  0  0  0  0  0  0  0  0  0  0  0
  190.6250  170.3780  137.9210 C   0  0  0  0  0  3  0  0  0  0  0  0
  190.6640  170.5650  142.2640 C   0  0  0  0  0  2  0  0  0  0  0  0
  192.0890  170.5910  142.7780 C   0  0  0  0  0  2  0  0  0  0  0  0
  192.8350  169.5830  142.1600 O   0  0  0  0  0  0  0  0  0  0  0  0
  194.1630  169.8620  142.4960 C   0  0  0  0  0  2  0  0  0  0  0  0
  194.4230  171.3610  142.4400 C   0  0  0  0  0  2  0  0  0  0  0  0
  196.4780  172.6650  143.1660 C   0  0  0  0  0  0  0  0  0  0  0  0
  195.3080  171.2680  144.7690 C   0  0  0  0  0  3  0  0  0  0  0  0
  197.2630  172.5220  145.4570 C   0  0  0  0  0  3  0  0  0  0  0  0
  196.2230  171.6380  145.7600 C   0  0  0  0  0  3  0  0  0  0  0  0
  197.3880  173.0350  144.1640 C   0  0  0  0  0  3  0  0  0  0  0  0
  195.4270  171.7750  143.4710 C   0  0  0  0  0  0  0  0  0  0  0  0
  196.6270  173.2560  141.8040 C   0  0  0  0  0  2  0  0  0  0  0  0
  195.3900  173.7130  141.3490 O   0  0  0  0  0  0  0  0  0  0  0  0
  197.1420  174.4720  139.9290 C   0  0  0  0  0  1  0  0  0  0  0  0
  195.6520  174.2540  140.0920 C   0  0  0  0  0  2  0  0  0  0  0  0
  188.9080  174.8720  140.4550 C   0  0  0  0  0  2  0  0  0  0  0  0
  187.2760  175.8580  142.3240 C   0  0  0  0  0  0  0  0  0  0  0  0
  188.0130  175.3960  141.4900 C   0  0  0  0  0  0  0  0  0  0  0  0
  186.3670  176.4530  143.3150 C   0  0  0  0  0  2  0  0  0  0  0  0
  187.0840  177.4470  144.2310 C   0  0  2  0  0  3  0  0  0  0  0  0
  190.2850  177.1450  145.8630 C   0  0  0  0  0  3  0  0  0  0  0  0
  187.7630  176.7430  145.3600 C   0  0  0  0  0  3  0  0  0  0  0  0
  189.0250  176.9460  145.6050 C   0  0  0  0  0  0  0  0  0  0  0  0
  190.9370  176.4160  146.9850 C   0  0  0  0  0  2  0  0  0  0  0  0
  192.4450  176.3790  146.8000 C   0  0  0  0  0  2  0  0  0  0  0  0
  192.8190  176.5460  145.3300 C   0  0  0  0  0  2  0  0  0  0  0  0
  193.7470  175.4380  144.8240 C   0  0  0  0  0  0  0  0  0  0  0  0
  194.5480  174.8670  145.9810 C   0  0  0  0  0  1  0  0  0  0  0  0
  194.7310  176.0390  143.8390 C   0  0  0  0  0  1  0  0  0  0  0  0
  192.9600  174.2980  144.1670 C   0  0  0  0  0  2  0  0  0  0  0  0
  191.8200  174.7810  143.2710 C   0  0  1  0  0  3  0  0  0  0  0  0
  192.1370  174.4580  141.8230 C   0  0  0  0  0  1  0  0  0  0  0  0
  190.5270  174.0880  143.6580 C   0  0  0  0  0  2  0  0  0  0  0  0
  189.5930  172.3510  145.1500 C   0  0  0  0  0  1  0  0  0  0  0  0
  190.6890  173.3790  144.9880 C   0  0  0  0  0  2  0  0  0  0  0  0
  186.1230  178.5130  144.7490 C   0  0  0  0  0  2  0  0  0  0  0  0
  185.5530  178.1320  146.1070 C   0  0  1  0  0  3  0  0  0  0  0  0
  186.1500  178.9080  147.1030 O   0  0  0  0  0  1  0  0  0  0  0  0
  184.0570  178.3720  146.1090 C   0  0  0  0  0  1  0  0  0  0  0  0
  1  3  1  0  0  0  0
  1  6  1  0  0  0  0
  2  3  2  0  0  0  0
  3  5  1  0  0  0  0
  4 13  1  0  0  0  0
  5 28  1  6  0  0  0
  5 10  1  0  0  0  0
  6 11  1  0  0  0  0
  7  1  2  0  0  0  0
  8  7  1  0  0  0  0
  8  9  2  0  0  0  0
  9 12  1  0  0  0  0
 11 10  2  0  0  0  0
 11  4  1  0  0  0  0
 12  6  2  0  0  0  0
 13 14  1  0  0  0  0
 15 16  1  0  0  0  0
 15 14  1  0  0  0  0
 17 16  1  0  0  0  0
 17 23  1  0  0  0  0
 18 23  2  0  0  0  0
 18 22  1  0  0  0  0
 19 21  2  0  0  0  0
 20 21  1  0  0  0  0
 22 20  2  0  0  0  0
 23 19  1  0  0  0  0
 24 18  1  0  0  0  0
 25 24  1  0  0  0  0
 26 27  1  0  0  0  0
 27 25  1  0  0  0  0
 28 30  1  0  0  0  0
 29 31  1  0  0  0  0
 30 29  3  0  0  0  0
 32 31  1  1  0  0  0
 32 48  1  0  0  0  0
 32 34  1  0  0  0  0
 33 36  1  0  0  0  0
 34 35  2  0  0  0  0
 35 33  2  0  0  0  0
 37 36  1  0  0  0  0
 38 37  1  0  0  0  0
 39 38  1  0  0  0  0
 39 40  1  0  0  0  0
 41 39  1  0  0  0  0
 42 39  1  0  0  0  0
 43 44  1  6  0  0  0
 43 45  1  0  0  0  0
 43 42  1  0  0  0  0
 45 47  1  0  0  0  0
 47 46  1  0  0  0  0
 48 49  1  0  0  0  0
 49 51  1  6  0  0  0
 49 50  1  0  0  0  0
M  END
>  <MODEL>
4

>  <REMARK>
 VINA RESULT:      -5.7      1.874      5.035
  Name = 
  24 active torsions:
  status: ('A' for Active; 'I' for Inactive)
    1  A    between atoms: C_1  and  C_45
    2  A    between atoms: C_1  and  C_46
    3  A    between atoms: C_2  and  C_14
    4  A    between atoms: C_2  and  C_46
    5  A    between atoms: C_5  and  O_8
    6  A    between atoms: C_5  and  C_24
    7  A    between atoms: O_8  and  C_44
    8  A    between atoms: C_9  and  C_23
    9  A    between atoms: C_9  and  C_35
   10  A    between atoms: C_9  and  C_47
   11  A    between atoms: C_11  and  C_23
   12  A    between atoms: O_12  and  C_29
   13  A    between atoms: O_12  and  C_51
   14  A    between atoms: C_14  and  C_36
   15  A    between atoms: N_16  and  C_24
   16  A    between atoms: C_17  and  C_18
   17  A    between atoms: C_17  and  C_40
   18  A    between atoms: C_19  and  C_34
   19  A    between atoms: C_19  and  C_36
   20  A    between atoms: C_22  and  C_47
   21  A    between atoms: C_26  and  C_29
   22  A    between atoms: C_43  and  C_45
   23  A    between atoms: C_44  and  C_48
   24  A    between atoms: C_48  and  C_49
                            x       y       z     vdW  Elec       q    Type
                         _______ _______ _______ _____ _____    ______ ____

>  <TORSDO>
F 24

$$$$
=
 OpenBabel11042413533D

 51 53  0  0  1  0  0  0  0  0999 V2000
  196.0150  171.9170  141.2800 C   0  0  0  0  0  0  0  0  0  0  0  0
  197.1450  173.9840  141.0200 O   0  0  0  0  0  0  0  0  0  0  0  0
  196.3110  173.1620  140.5530 C   0  0  0  0  0  0  0  0  0  0  0  0
  193.5010  170.3750  138.9050 N   0  0  0  0  0  2  0  0  0  0  0  0
  195.6530  173.4510  139.2320 C   0  0  1  0  0  3  0  0  0  0  0  0
  195.1040  171.0010  140.7340 C   0  0  0  0  0  0  0  0  0  0  0  0
  196.6420  171.6320  142.5030 C   0  0  0  0  0  3  0  0  0  0  0  0
  196.3630  170.4400  143.1770 C   0  0  0  0  0  3  0  0  0  0  0  0
  195.4570  169.5250  142.6310 C   0  0  0  0  0  3  0  0  0  0  0  0
  194.7100  172.4030  138.8080 N   0  0  0  0  0  0  0  0  0  0  0  0
  194.4450  171.3010  139.4490 C   0  0  0  0  0  0  0  0  0  0  0  0
  194.8280  169.8060  141.4150 C   0  0  0  0  0  3  0  0  0  0  0  0
  192.8490  170.5870  137.6250 C   0  0  0  0  0  2  0  0  0  0  0  0
  191.3900  170.1910  137.7140 C   0  0  0  0  0  2  0  0  0  0  0  0
  190.5800  171.3020  137.4610 O   0  0  0  0  0  0  0  0  0  0  0  0
  189.7630  171.4150  138.5890 C   0  0  0  0  0  2  0  0  0  0  0  0
  190.1660  172.6270  139.4180 C   0  0  0  0  0  2  0  0  0  0  0  0
  189.2970  172.5690  141.8040 C   0  0  0  0  0  0  0  0  0  0  0  0
  191.4700  171.6180  141.2880 C   0  0  0  0  0  3  0  0  0  0  0  0
  190.6310  171.5570  143.5600 C   0  0  0  0  0  3  0  0  0  0  0  0
  191.6340  171.2620  142.6310 C   0  0  0  0  0  3  0  0  0  0  0  0
  189.4660  172.2060  143.1460 C   0  0  0  0  0  3  0  0  0  0  0  0
  190.3070  172.2700  140.8660 C   0  0  0  0  0  0  0  0  0  0  0  0
  188.0260  173.2360  141.3950 C   0  0  0  0  0  2  0  0  0  0  0  0
  187.7680  174.3170  142.2370 O   0  0  0  0  0  0  0  0  0  0  0  0
  188.7850  176.4660  142.3230 C   0  0  0  0  0  1  0  0  0  0  0  0
  188.0650  175.4420  141.4710 C   0  0  0  0  0  2  0  0  0  0  0  0
  194.9500  174.8020  139.2740 C   0  0  0  0  0  2  0  0  0  0  0  0
  193.1550  174.9060  141.2470 C   0  0  0  0  0  0  0  0  0  0  0  0
  193.9750  174.8460  140.3670 C   0  0  0  0  0  0  0  0  0  0  0  0
  192.1260  174.9970  142.2940 C   0  0  0  0  0  2  0  0  0  0  0  0
  192.7260  174.9340  143.6990 C   0  0  2  0  0  3  0  0  0  0  0  0
  190.4980  177.0050  145.6350 C   0  0  0  0  0  3  0  0  0  0  0  0
  191.6560  174.8530  144.7380 C   0  0  0  0  0  3  0  0  0  0  0  0
  191.0820  175.9330  145.1850 C   0  0  0  0  0  0  0  0  0  0  0  0
  189.4460  176.8920  146.6820 C   0  0  0  0  0  2  0  0  0  0  0  0
  188.1600  176.3310  146.0970 C   0  0  0  0  0  2  0  0  0  0  0  0
  186.9700  176.6350  147.0030 C   0  0  0  0  0  2  0  0  0  0  0  0
  186.1340  177.8190  146.5090 C   0  0  0  0  0  0  0  0  0  0  0  0
  186.1480  178.9290  147.5450 C   0  0  0  0  0  1  0  0  0  0  0  0
  184.6970  177.3650  146.3440 C   0  0  0  0  0  1  0  0  0  0  0  0
  186.6740  178.3790  145.1880 C   0  0  0  0  0  2  0  0  0  0  0  0
  185.5760  178.7930  144.2070 C   0  0  1  0  0  3  0  0  0  0  0  0
  185.3230  180.2850  144.3260 C   0  0  0  0  0  1  0  0  0  0  0  0
  186.0050  178.4780  142.7860 C   0  0  0  0  0  2  0  0  0  0  0  0
  184.5260  178.2840  140.8140 C   0  0  0  0  0  1  0  0  0  0  0  0
  184.9610  177.6200  142.1000 C   0  0  0  0  0  2  0  0  0  0  0  0
  193.6510  176.1200  143.9580 C   0  0  0  0  0  2  0  0  0  0  0  0
  195.0540  175.6600  144.3200 C   0  0  1  0  0  3  0  0  0  0  0  0
  195.1810  174.2910  144.0730 O   0  0  0  0  0  1  0  0  0  0  0  0
  196.0630  176.4190  143.4840 C   0  0  0  0  0  1  0  0  0  0  0  0
  1  7  1  0  0  0  0
  3  2  2  0  0  0  0
  3  1  1  0  0  0  0
  4 11  1  0  0  0  0
  5 28  1  1  0  0  0
  5  3  1  0  0  0  0
  6  1  2  0  0  0  0
  6 12  1  0  0  0  0
  7  8  2  0  0  0  0
  9  8  1  0  0  0  0
 10  5  1  0  0  0  0
 10 11  2  0  0  0  0
 11  6  1  0  0  0  0
 12  9  2  0  0  0  0
 13 14  1  0  0  0  0
 13  4  1  0  0  0  0
 15 14  1  0  0  0  0
 15 16  1  0  0  0  0
 16 17  1  0  0  0  0
 17 23  1  0  0  0  0
 18 22  1  0  0  0  0
 19 21  2  0  0  0  0
 21 20  1  0  0  0  0
 22 20  2  0  0  0  0
 23 19  1  0  0  0  0
 23 18  2  0  0  0  0
 24 18  1  0  0  0  0
 24 25  1  0  0  0  0
 27 25  1  0  0  0  0
 27 26  1  0  0  0  0
 28 30  1  0  0  0  0
 29 31  1  0  0  0  0
 30 29  3  0  0  0  0
 32 31  1  6  0  0  0
 32 48  1  0  0  0  0
 32 34  1  0  0  0  0
 33 36  1  0  0  0  0
 34 35  2  0  0  0  0
 35 33  2  0  0  0  0
 37 36  1  0  0  0  0
 37 38  1  0  0  0  0
 39 38  1  0  0  0  0
 39 40  1  0  0  0  0
 41 39  1  0  0  0  0
 42 39  1  0  0  0  0
 43 44  1  6  0  0  0
 43 42  1  0  0  0  0
 45 43  1  0  0  0  0
 46 47  1  0  0  0  0
 47 45  1  0  0  0  0
 48 49  1  0  0  0  0
 49 51  1  6  0  0  0
 50 49  1  0  0  0  0
M  END
>  <MODEL>
5

>  <REMARK>
 VINA RESULT:      -5.5      2.106      5.742
  Name = 
  24 active torsions:
  status: ('A' for Active; 'I' for Inactive)
    1  A    between atoms: C_1  and  C_45
    2  A    between atoms: C_1  and  C_46
    3  A    between atoms: C_2  and  C_14
    4  A    between atoms: C_2  and  C_46
    5  A    between atoms: C_5  and  O_8
    6  A    between atoms: C_5  and  C_24
    7  A    between atoms: O_8  and  C_44
    8  A    between atoms: C_9  and  C_23
    9  A    between atoms: C_9  and  C_35
   10  A    between atoms: C_9  and  C_47
   11  A    between atoms: C_11  and  C_23
   12  A    between atoms: O_12  and  C_29
   13  A    between atoms: O_12  and  C_51
   14  A    between atoms: C_14  and  C_36
   15  A    between atoms: N_16  and  C_24
   16  A    between atoms: C_17  and  C_18
   17  A    between atoms: C_17  and  C_40
   18  A    between atoms: C_19  and  C_34
   19  A    between atoms: C_19  and  C_36
   20  A    between atoms: C_22  and  C_47
   21  A    between atoms: C_26  and  C_29
   22  A    between atoms: C_43  and  C_45
   23  A    between atoms: C_44  and  C_48
   24  A    between atoms: C_48  and  C_49
                            x       y       z     vdW  Elec       q    Type
                         _______ _______ _______ _____ _____    ______ ____

>  <TORSDO>
F 24

$$$$
=
 OpenBabel11042413533D

 51 53  0  0  1  0  0  0  0  0999 V2000
  189.2680  172.5520  137.9290 C   0  0  0  0  0  0  0  0  0  0  0  0
  188.0550  174.5000  138.5230 O   0  0  0  0  0  0  0  0  0  0  0  0
  188.7100  173.4960  138.9120 C   0  0  0  0  0  0  0  0  0  0  0  0
  190.8910  170.0680  140.2820 N   0  0  0  0  0  2  0  0  0  0  0  0
  188.8810  173.2540  140.3870 C   0  0  1  0  0  3  0  0  0  0  0  0
  189.9720  171.4260  138.3800 C   0  0  0  0  0  0  0  0  0  0  0  0
  189.0940  172.7620  136.5530 C   0  0  0  0  0  3  0  0  0  0  0  0
  189.6170  171.8510  135.6300 C   0  0  0  0  0  3  0  0  0  0  0  0
  190.3160  170.7270  136.0790 C   0  0  0  0  0  3  0  0  0  0  0  0
  189.6590  172.0430  140.6930 N   0  0  0  0  0  0  0  0  0  0  0  0
  190.1550  171.2070  139.8260 C   0  0  0  0  0  0  0  0  0  0  0  0
  190.4950  170.5160  137.4480 C   0  0  0  0  0  3  0  0  0  0  0  0
  191.0730  169.7690  141.6910 C   0  0  0  0  0  2  0  0  0  0  0  0
  192.4380  169.1550  141.9200 C   0  0  0  0  0  2  0  0  0  0  0  0
  193.4130  170.1560  141.9410 O   0  0  0  0  0  0  0  0  0  0  0  0
  194.0800  170.0340  140.7180 C   0  0  0  0  0  2  0  0  0  0  0  0
  195.2290  171.0290  140.6360 C   0  0  0  0  0  2  0  0  0  0  0  0
  195.6340  173.4620  140.0280 C   0  0  0  0  0  0  0  0  0  0  0  0
  193.3970  172.5330  139.8610 C   0  0  0  0  0  3  0  0  0  0  0  0
  193.7930  174.8500  139.2740 C   0  0  0  0  0  3  0  0  0  0  0  0
  192.9170  173.7690  139.4160 C   0  0  0  0  0  3  0  0  0  0  0  0
  195.1470  174.6950  139.5770 C   0  0  0  0  0  3  0  0  0  0  0  0
  194.7520  172.3700  140.1700 C   0  0  0  0  0  0  0  0  0  0  0  0
  197.0920  173.3270  140.3150 C   0  0  0  0  0  2  0  0  0  0  0  0
  197.5630  174.4900  140.9230 O   0  0  0  0  0  0  0  0  0  0  0  0
  197.3940  175.3830  143.1220 C   0  0  0  0  0  1  0  0  0  0  0  0
  197.6790  174.1620  142.2730 C   0  0  0  0  0  2  0  0  0  0  0  0
  189.5170  174.4670  141.0530 C   0  0  0  0  0  2  0  0  0  0  0  0
  187.6840  175.8740  142.3910 C   0  0  0  0  0  0  0  0  0  0  0  0
  188.5170  175.2300  141.8040 C   0  0  0  0  0  0  0  0  0  0  0  0
  186.6510  176.6690  143.0710 C   0  0  0  0  0  2  0  0  0  0  0  0
  187.2090  177.4360  144.2710 C   0  0  2  0  0  3  0  0  0  0  0  0
  189.9530  176.4050  146.3720 C   0  0  0  0  0  3  0  0  0  0  0  0
  187.5430  176.5080  145.3930 C   0  0  0  0  0  3  0  0  0  0  0  0
  188.7510  176.4590  145.8770 C   0  0  0  0  0  0  0  0  0  0  0  0
  190.2570  175.4580  147.4790 C   0  0  0  0  0  2  0  0  0  0  0  0
  191.7350  175.1020  147.4930 C   0  0  0  0  0  2  0  0  0  0  0  0
  192.5730  176.2280  146.8940 C   0  0  0  0  0  2  0  0  0  0  0  0
  193.4390  175.7640  145.7190 C   0  0  0  0  0  0  0  0  0  0  0  0
  194.9080  175.9270  146.0640 C   0  0  0  0  0  1  0  0  0  0  0  0
  193.1490  176.6490  144.5220 C   0  0  0  0  0  1  0  0  0  0  0  0
  193.1800  174.2930  145.3740 C   0  0  0  0  0  2  0  0  0  0  0  0
  193.2350  173.9990  143.8740 C   0  0  1  0  0  3  0  0  0  0  0  0
  194.4400  173.1310  143.5680 C   0  0  0  0  0  1  0  0  0  0  0  0
  191.9780  173.2670  143.4440 C   0  0  0  0  0  2  0  0  0  0  0  0
  189.7400  173.0750  144.4770 C   0  0  0  0  0  1  0  0  0  0  0  0
  191.2110  172.7810  144.6580 C   0  0  0  0  0  2  0  0  0  0  0  0
  186.2430  178.5240  144.7300 C   0  0  0  0  0  2  0  0  0  0  0  0
  184.8030  178.0380  144.6920 C   0  0  1  0  0  3  0  0  0  0  0  0
  184.3580  177.7770  145.9900 O   0  0  0  0  0  1  0  0  0  0  0  0
  183.9290  179.1040  144.0630 C   0  0  0  0  0  1  0  0  0  0  0  0
  1  6  1  0  0  0  0
  1  3  1  0  0  0  0
  2  3  2  0  0  0  0
  3  5  1  0  0  0  0
  4 13  1  0  0  0  0
  5 10  1  0  0  0  0
  5 28  1  6  0  0  0
  6 11  1  0  0  0  0
  7  1  2  0  0  0  0
  8  9  2  0  0  0  0
  8  7  1  0  0  0  0
  9 12  1  0  0  0  0
 11  4  1  0  0  0  0
 11 10  2  0  0  0  0
 12  6  2  0  0  0  0
 13 14  1  0  0  0  0
 14 15  1  0  0  0  0
 16 15  1  0  0  0  0
 17 16  1  0  0  0  0
 18 23  1  0  0  0  0
 18 24  1  0  0  0  0
 19 23  2  0  0  0  0
 20 21  2  0  0  0  0
 20 22  1  0  0  0  0
 21 19  1  0  0  0  0
 22 18  2  0  0  0  0
 23 17  1  0  0  0  0
 24 25  1  0  0  0  0
 25 27  1  0  0  0  0
 27 26  1  0  0  0  0
 28 30  1  0  0  0  0
 29 31  1  0  0  0  0
 30 29  3  0  0  0  0
 32 31  1  6  0  0  0
 32 48  1  0  0  0  0
 32 34  1  0  0  0  0
 33 36  1  0  0  0  0
 34 35  2  0  0  0  0
 35 33  2  0  0  0  0
 36 37  1  0  0  0  0
 38 37  1  0  0  0  0
 39 40  1  0  0  0  0
 39 38  1  0  0  0  0
 41 39  1  0  0  0  0
 42 39  1  0  0  0  0
 43 44  1  1  0  0  0
 43 42  1  0  0  0  0
 45 43  1  0  0  0  0
 45 47  1  0  0  0  0
 46 47  1  0  0  0  0
 49 51  1  1  0  0  0
 49 48  1  0  0  0  0
 49 50  1  0  0  0  0
M  END
>  <MODEL>
6

>  <REMARK>
 VINA RESULT:      -5.4      2.033      4.946
  Name = 
  24 active torsions:
  status: ('A' for Active; 'I' for Inactive)
    1  A    between atoms: C_1  and  C_45
    2  A    between atoms: C_1  and  C_46
    3  A    between atoms: C_2  and  C_14
    4  A    between atoms: C_2  and  C_46
    5  A    between atoms: C_5  and  O_8
    6  A    between atoms: C_5  and  C_24
    7  A    between atoms: O_8  and  C_44
    8  A    between atoms: C_9  and  C_23
    9  A    between atoms: C_9  and  C_35
   10  A    between atoms: C_9  and  C_47
   11  A    between atoms: C_11  and  C_23
   12  A    between atoms: O_12  and  C_29
   13  A    between atoms: O_12  and  C_51
   14  A    between atoms: C_14  and  C_36
   15  A    between atoms: N_16  and  C_24
   16  A    between atoms: C_17  and  C_18
   17  A    between atoms: C_17  and  C_40
   18  A    between atoms: C_19  and  C_34
   19  A    between atoms: C_19  and  C_36
   20  A    between atoms: C_22  and  C_47
   21  A    between atoms: C_26  and  C_29
   22  A    between atoms: C_43  and  C_45
   23  A    between atoms: C_44  and  C_48
   24  A    between atoms: C_48  and  C_49
                            x       y       z     vdW  Elec       q    Type
                         _______ _______ _______ _____ _____    ______ ____

>  <TORSDO>
F 24

$$$$
=
 OpenBabel11042413533D

 51 53  0  0  1  0  0  0  0  0999 V2000
  190.8300  171.2800  138.6680 C   0  0  0  0  0  0  0  0  0  0  0  0
  191.1280  171.3660  136.3180 O   0  0  0  0  0  0  0  0  0  0  0  0
  190.6830  171.9290  137.3550 C   0  0  0  0  0  0  0  0  0  0  0  0
  189.1140  173.8580  140.8480 N   0  0  0  0  0  2  0  0  0  0  0  0
  189.9710  173.2480  137.2290 C   0  0  1  0  0  3  0  0  0  0  0  0
  190.3060  171.9080  139.8080 C   0  0  0  0  0  0  0  0  0  0  0  0
  191.4760  170.0400  138.7890 C   0  0  0  0  0  3  0  0  0  0  0  0
  191.5970  169.4280  140.0390 C   0  0  0  0  0  3  0  0  0  0  0  0
  191.0720  170.0510  141.1750 C   0  0  0  0  0  3  0  0  0  0  0  0
  189.5000  173.7810  138.5170 N   0  0  0  0  0  0  0  0  0  0  0  0
  189.6290  173.2110  139.6800 C   0  0  0  0  0  0  0  0  0  0  0  0
  190.4310  171.2880  141.0610 C   0  0  0  0  0  3  0  0  0  0  0  0
  188.4000  175.1210  140.7890 C   0  0  0  0  0  2  0  0  0  0  0  0
  188.1060  175.6180  142.1890 C   0  0  0  0  0  2  0  0  0  0  0  0
  188.1960  177.0120  142.2270 O   0  0  0  0  0  0  0  0  0  0  0  0
  186.9110  177.4470  142.5640 C   0  0  0  0  0  2  0  0  0  0  0  0
  186.2660  176.4840  143.5520 C   0  0  0  0  0  2  0  0  0  0  0  0
  186.7540  177.0330  145.9840 C   0  0  0  0  0  0  0  0  0  0  0  0
  184.7950  177.9760  144.9040 C   0  0  0  0  0  3  0  0  0  0  0  0
  185.2720  178.5030  147.2200 C   0  0  0  0  0  3  0  0  0  0  0  0
  184.4610  178.6400  146.0890 C   0  0  0  0  0  3  0  0  0  0  0  0
  186.4160  177.7030  147.1650 C   0  0  0  0  0  3  0  0  0  0  0  0
  185.9380  177.1720  144.8420 C   0  0  0  0  0  0  0  0  0  0  0  0
  187.9990  176.2110  145.9550 C   0  0  0  0  0  2  0  0  0  0  0  0
  188.1960  175.6100  147.1990 O   0  0  0  0  0  0  0  0  0  0  0  0
  190.5730  175.5480  147.3040 C   0  0  0  0  0  1  0  0  0  0  0  0
  189.3000  174.7780  147.0190 C   0  0  0  0  0  2  0  0  0  0  0  0
  190.8620  174.2680  136.5330 C   0  0  0  0  0  2  0  0  0  0  0  0
  193.1970  174.5450  137.7980 C   0  0  0  0  0  0  0  0  0  0  0  0
  192.1360  174.4140  137.2440 C   0  0  0  0  0  0  0  0  0  0  0  0
  194.5070  174.7300  138.4420 C   0  0  0  0  0  2  0  0  0  0  0  0
  195.1840  173.3970  138.7650 C   0  0  2  0  0  3  0  0  0  0  0  0
  195.3190  170.8270  141.2900 C   0  0  0  0  0  3  0  0  0  0  0  0
  194.3040  172.5380  139.6120 C   0  0  0  0  0  3  0  0  0  0  0  0
  194.8180  171.6820  140.4470 C   0  0  0  0  0  0  0  0  0  0  0  0
  194.4150  169.9730  142.1080 C   0  0  0  0  0  2  0  0  0  0  0  0
  194.5880  170.2690  143.5890 C   0  0  0  0  0  2  0  0  0  0  0  0
  195.8100  171.1510  143.8300 C   0  0  0  0  0  2  0  0  0  0  0  0
  195.5910  172.1760  144.9470 C   0  0  0  0  0  0  0  0  0  0  0  0
  196.7430  172.1170  145.9340 C   0  0  0  0  0  1  0  0  0  0  0  0
  194.3250  171.8120  145.6990 C   0  0  0  0  0  1  0  0  0  0  0  0
  195.4950  173.6020  144.3950 C   0  0  0  0  0  2  0  0  0  0  0  0
  194.4230  174.4510  145.0790 C   0  0  1  0  0  3  0  0  0  0  0  0
  195.0850  175.4850  145.9720 C   0  0  0  0  0  1  0  0  0  0  0  0
  193.5840  175.1660  144.0360 C   0  0  0  0  0  2  0  0  0  0  0  0
  192.4270  173.9340  142.2320 C   0  0  0  0  0  1  0  0  0  0  0  0
  193.7510  174.5030  142.6830 C   0  0  0  0  0  2  0  0  0  0  0  0
  196.5400  173.6140  139.4290 C   0  0  0  0  0  2  0  0  0  0  0  0
  196.7080  175.0530  139.8900 C   0  0  1  0  0  3  0  0  0  0  0  0
  196.9580  175.0830  141.2640 O   0  0  0  0  0  1  0  0  0  0  0  0
  197.8700  175.6850  139.1510 C   0  0  0  0  0  1  0  0  0  0  0  0
  1  7  2  0  0  0  0
  1  6  1  0  0  0  0
  2  3  2  0  0  0  0
  3  1  1  0  0  0  0
  5 28  1  1  0  0  0
  5  3  1  0  0  0  0
  5 10  1  0  0  0  0
  6 12  2  0  0  0  0
  7  8  1  0  0  0  0
  8  9  2  0  0  0  0
 10 11  2  0  0  0  0
 11  6  1  0  0  0  0
 11  4  1  0  0  0  0
 12  9  1  0  0  0  0
 13  4  1  0  0  0  0
 13 14  1  0  0  0  0
 14 15  1  0  0  0  0
 15 16  1  0  0  0  0
 16 17  1  0  0  0  0
 17 23  1  0  0  0  0
 18 22  1  0  0  0  0
 19 21  2  0  0  0  0
 21 20  1  0  0  0  0
 22 20  2  0  0  0  0
 23 19  1  0  0  0  0
 23 18  2  0  0  0  0
 24 18  1  0  0  0  0
 24 25  1  0  0  0  0
 27 25  1  0  0  0  0
 27 26  1  0  0  0  0
 28 30  1  0  0  0  0
 29 31  1  0  0  0  0
 30 29  3  0  0  0  0
 32 31  1  1  0  0  0
 32 48  1  0  0  0  0
 32 34  1  0  0  0  0
 33 36  1  0  0  0  0
 34 35  2  0  0  0  0
 35 33  2  0  0  0  0
 36 37  1  0  0  0  0
 37 38  1  0  0  0  0
 38 39  1  0  0  0  0
 39 41  1  0  0  0  0
 39 40  1  0  0  0  0
 42 39  1  0  0  0  0
 42 43  1  0  0  0  0
 43 44  1  1  0  0  0
 45 43  1  0  0  0  0
 46 47  1  0  0  0  0
 47 45  1  0  0  0  0
 48 49  1  0  0  0  0
 49 51  1  6  0  0  0
 49 50  1  0  0  0  0
M  END
>  <MODEL>
7

>  <REMARK>
 VINA RESULT:      -5.3      2.207      8.613
  Name = 
  24 active torsions:
  status: ('A' for Active; 'I' for Inactive)
    1  A    between atoms: C_1  and  C_45
    2  A    between atoms: C_1  and  C_46
    3  A    between atoms: C_2  and  C_14
    4  A    between atoms: C_2  and  C_46
    5  A    between atoms: C_5  and  O_8
    6  A    between atoms: C_5  and  C_24
    7  A    between atoms: O_8  and  C_44
    8  A    between atoms: C_9  and  C_23
    9  A    between atoms: C_9  and  C_35
   10  A    between atoms: C_9  and  C_47
   11  A    between atoms: C_11  and  C_23
   12  A    between atoms: O_12  and  C_29
   13  A    between atoms: O_12  and  C_51
   14  A    between atoms: C_14  and  C_36
   15  A    between atoms: N_16  and  C_24
   16  A    between atoms: C_17  and  C_18
   17  A    between atoms: C_17  and  C_40
   18  A    between atoms: C_19  and  C_34
   19  A    between atoms: C_19  and  C_36
   20  A    between atoms: C_22  and  C_47
   21  A    between atoms: C_26  and  C_29
   22  A    between atoms: C_43  and  C_45
   23  A    between atoms: C_44  and  C_48
   24  A    between atoms: C_48  and  C_49
                            x       y       z     vdW  Elec       q    Type
                         _______ _______ _______ _____ _____    ______ ____

>  <TORSDO>
F 24

$$$$
=
 OpenBabel11042413533D

 51 53  0  0  1  0  0  0  0  0999 V2000
  190.3560  171.8030  142.3270 C   0  0  0  0  0  0  0  0  0  0  0  0
  191.5070  169.7330  142.2430 O   0  0  0  0  0  0  0  0  0  0  0  0
  190.8890  170.6330  141.6120 C   0  0  0  0  0  0  0  0  0  0  0  0
  188.7540  173.6440  139.4310 N   0  0  0  0  0  2  0  0  0  0  0  0
  190.6720  170.4760  140.1310 C   0  0  1  0  0  3  0  0  0  0  0  0
  189.6480  172.7820  141.6140 C   0  0  0  0  0  0  0  0  0  0  0  0
  190.5380  171.9440  143.7110 C   0  0  0  0  0  3  0  0  0  0  0  0
  190.0140  173.0530  144.3810 C   0  0  0  0  0  3  0  0  0  0  0  0
  189.3060  174.0270  143.6710 C   0  0  0  0  0  3  0  0  0  0  0  0
  189.9300  171.5960  139.5300 N   0  0  0  0  0  0  0  0  0  0  0  0
  189.4590  172.6340  140.1590 C   0  0  0  0  0  0  0  0  0  0  0  0
  189.1260  173.8930  142.2920 C   0  0  0  0  0  3  0  0  0  0  0  0
  188.4950  173.5410  138.0060 C   0  0  0  0  0  2  0  0  0  0  0  0
  188.1550  174.9030  137.4400 C   0  0  0  0  0  2  0  0  0  0  0  0
  186.8960  175.3060  137.8920 O   0  0  0  0  0  0  0  0  0  0  0  0
  187.0930  176.5900  138.4090 C   0  0  0  0  0  2  0  0  0  0  0  0
  185.7810  177.1620  138.9300 C   0  0  0  0  0  2  0  0  0  0  0  0
  184.8370  178.1570  141.0670 C   0  0  0  0  0  0  0  0  0  0  0  0
  187.2270  177.7870  140.8630 C   0  0  0  0  0  3  0  0  0  0  0  0
  186.3190  178.7270  142.9020 C   0  0  0  0  0  3  0  0  0  0  0  0
  187.4160  178.2920  142.1530 C   0  0  0  0  0  3  0  0  0  0  0  0
  185.0330  178.6570  142.3610 C   0  0  0  0  0  3  0  0  0  0  0  0
  185.9430  177.7160  140.3120 C   0  0  0  0  0  0  0  0  0  0  0  0
  183.4460  178.0710  140.5340 C   0  0  0  0  0  2  0  0  0  0  0  0
  182.5310  178.1990  141.5790 O   0  0  0  0  0  0  0  0  0  0  0  0
  180.1610  178.4090  141.6050 C   0  0  0  0  0  1  0  0  0  0  0  0
  181.4690  178.9180  141.0340 C   0  0  0  0  0  2  0  0  0  0  0  0
  192.0040  170.2860  139.4170 C   0  0  0  0  0  2  0  0  0  0  0  0
  193.6350  172.3610  139.8190 C   0  0  0  0  0  0  0  0  0  0  0  0
  192.8850  171.4330  139.6490 C   0  0  0  0  0  0  0  0  0  0  0  0
  194.5750  173.4790  139.9960 C   0  0  0  0  0  2  0  0  0  0  0  0
  194.4120  174.1600  141.3560 C   0  0  2  0  0  3  0  0  0  0  0  0
  192.1770  176.1390  143.3790 C   0  0  0  0  0  3  0  0  0  0  0  0
  193.4600  175.3080  141.2710 C   0  0  0  0  0  3  0  0  0  0  0  0
  192.8190  175.7170  142.3280 C   0  0  0  0  0  0  0  0  0  0  0  0
  191.2220  177.2740  143.2580 C   0  0  0  0  0  2  0  0  0  0  0  0
  190.4290  177.4500  144.5430 C   0  0  0  0  0  2  0  0  0  0  0  0
  190.8830  176.4540  145.6060 C   0  0  0  0  0  2  0  0  0  0  0  0
  190.0080  176.4850  146.8620 C   0  0  0  0  0  0  0  0  0  0  0  0
  189.7060  177.9230  147.2450 C   0  0  0  0  0  1  0  0  0  0  0  0
  190.7800  175.8590  148.0080 C   0  0  0  0  0  1  0  0  0  0  0  0
  188.6820  175.7490  146.6450 C   0  0  0  0  0  2  0  0  0  0  0  0
  187.5460  176.6610  146.1800 C   0  0  1  0  0  3  0  0  0  0  0  0
  186.8880  176.0690  144.9480 C   0  0  0  0  0  1  0  0  0  0  0  0
  186.5070  176.7960  147.2770 C   0  0  0  0  0  2  0  0  0  0  0  0
  184.9790  178.7140  146.9670 C   0  0  0  0  0  1  0  0  0  0  0  0
  185.1810  177.2430  146.6920 C   0  0  0  0  0  2  0  0  0  0  0  0
  195.7600  174.6070  141.9140 C   0  0  0  0  0  2  0  0  0  0  0  0
  196.7910  173.4930  141.8280 C   0  0  1  0  0  3  0  0  0  0  0  0
  197.8610  173.9010  141.0270 O   0  0  0  0  0  1  0  0  0  0  0  0
  197.2980  173.1690  143.2180 C   0  0  0  0  0  1  0  0  0  0  0  0
  1  7  1  0  0  0  0
  3  2  2  0  0  0  0
  3  1  1  0  0  0  0
  4 11  1  0  0  0  0
  5 28  1  6  0  0  0
  5  3  1  0  0  0  0
  6 12  1  0  0  0  0
  6  1  2  0  0  0  0
  7  8  2  0  0  0  0
  9  8  1  0  0  0  0
 10  5  1  0  0  0  0
 10 11  2  0  0  0  0
 11  6  1  0  0  0  0
 12  9  2  0  0  0  0
 13  4  1  0  0  0  0
 14 15  1  0  0  0  0
 14 13  1  0  0  0  0
 15 16  1  0  0  0  0
 16 17  1  0  0  0  0
 17 23  1  0  0  0  0
 18 22  1  0  0  0  0
 19 21  2  0  0  0  0
 21 20  1  0  0  0  0
 22 20  2  0  0  0  0
 23 19  1  0  0  0  0
 23 18  2  0  0  0  0
 24 18  1  0  0  0  0
 24 25  1  0  0  0  0
 27 25  1  0  0  0  0
 27 26  1  0  0  0  0
 28 30  1  0  0  0  0
 29 31  1  0  0  0  0
 30 29  3  0  0  0  0
 32 31  1  6  0  0  0
 32 48  1  0  0  0  0
 34 32  1  0  0  0  0
 34 35  2  0  0  0  0
 35 33  2  0  0  0  0
 36 33  1  0  0  0  0
 36 37  1  0  0  0  0
 37 38  1  0  0  0  0
 38 39  1  0  0  0  0
 39 40  1  0  0  0  0
 39 41  1  0  0  0  0
 42 39  1  0  0  0  0
 43 44  1  6  0  0  0
 43 42  1  0  0  0  0
 43 45  1  0  0  0  0
 47 46  1  0  0  0  0
 47 45  1  0  0  0  0
 49 48  1  0  0  0  0
 49 51  1  1  0  0  0
 50 49  1  0  0  0  0
M  END
>  <MODEL>
8

>  <REMARK>
 VINA RESULT:      -5.2      2.299      8.011
  Name = 
  24 active torsions:
  status: ('A' for Active; 'I' for Inactive)
    1  A    between atoms: C_1  and  C_45
    2  A    between atoms: C_1  and  C_46
    3  A    between atoms: C_2  and  C_14
    4  A    between atoms: C_2  and  C_46
    5  A    between atoms: C_5  and  O_8
    6  A    between atoms: C_5  and  C_24
    7  A    between atoms: O_8  and  C_44
    8  A    between atoms: C_9  and  C_23
    9  A    between atoms: C_9  and  C_35
   10  A    between atoms: C_9  and  C_47
   11  A    between atoms: C_11  and  C_23
   12  A    between atoms: O_12  and  C_29
   13  A    between atoms: O_12  and  C_51
   14  A    between atoms: C_14  and  C_36
   15  A    between atoms: N_16  and  C_24
   16  A    between atoms: C_17  and  C_18
   17  A    between atoms: C_17  and  C_40
   18  A    between atoms: C_19  and  C_34
   19  A    between atoms: C_19  and  C_36
   20  A    between atoms: C_22  and  C_47
   21  A    between atoms: C_26  and  C_29
   22  A    between atoms: C_43  and  C_45
   23  A    between atoms: C_44  and  C_48
   24  A    between atoms: C_48  and  C_49
                            x       y       z     vdW  Elec       q    Type
                         _______ _______ _______ _____ _____    ______ ____

>  <TORSDO>
F 24

$$$$
=
 OpenBabel11042413533D

 51 53  0  0  1  0  0  0  0  0999 V2000
  189.6700  173.4360  139.2710 C   0  0  0  0  0  0  0  0  0  0  0  0
  188.6850  173.8690  141.3830 O   0  0  0  0  0  0  0  0  0  0  0  0
  189.6710  173.4130  140.7430 C   0  0  0  0  0  0  0  0  0  0  0  0
  193.0250  171.8090  138.6070 N   0  0  0  0  0  2  0  0  0  0  0  0
  190.8260  172.8140  141.4980 C   0  0  1  0  0  3  0  0  0  0  0  0
  190.7630  172.9010  138.5740 C   0  0  0  0  0  0  0  0  0  0  0  0
  188.5860  173.9750  138.5610 C   0  0  0  0  0  3  0  0  0  0  0  0
  188.5910  173.9790  137.1640 C   0  0  0  0  0  3  0  0  0  0  0  0
  189.6790  173.4430  136.4690 C   0  0  0  0  0  3  0  0  0  0  0  0
  191.8990  172.3160  140.6220 N   0  0  0  0  0  0  0  0  0  0  0  0
  191.9020  172.3360  139.3210 C   0  0  0  0  0  0  0  0  0  0  0  0
  190.7620  172.9080  137.1710 C   0  0  0  0  0  3  0  0  0  0  0  0
  194.1590  171.2000  139.2770 C   0  0  0  0  0  2  0  0  0  0  0  0
  195.3270  172.1640  139.3030 C   0  0  0  0  0  2  0  0  0  0  0  0
  196.3840  171.6110  140.0310 O   0  0  0  0  0  0  0  0  0  0  0  0
  196.1050  171.9230  141.3640 C   0  0  0  0  0  2  0  0  0  0  0  0
  197.3560  172.4380  142.0630 C   0  0  0  0  0  2  0  0  0  0  0  0
  197.1350  173.6660  144.2750 C   0  0  0  0  0  0  0  0  0  0  0  0
  197.0400  171.2410  144.2280 C   0  0  0  0  0  3  0  0  0  0  0  0
  196.8200  172.4190  146.3330 C   0  0  0  0  0  3  0  0  0  0  0  0
  196.8640  171.2200  145.6150 C   0  0  0  0  0  3  0  0  0  0  0  0
  196.9530  173.6380  145.6640 C   0  0  0  0  0  3  0  0  0  0  0  0
  197.1770  172.4570  143.5500 C   0  0  0  0  0  0  0  0  0  0  0  0
  197.2440  174.9880  143.5920 C   0  0  0  0  0  2  0  0  0  0  0  0
  196.1430  175.1820  142.7590 O   0  0  0  0  0  0  0  0  0  0  0  0
  195.2120  176.7770  141.2590 C   0  0  0  0  0  1  0  0  0  0  0  0
  196.2600  176.4980  142.3160 C   0  0  0  0  0  2  0  0  0  0  0  0
  191.3870  173.8200  142.4950 C   0  0  0  0  0  2  0  0  0  0  0  0
  190.0500  173.7510  144.8050 C   0  0  0  0  0  0  0  0  0  0  0  0
  190.6500  173.7630  143.7600 C   0  0  0  0  0  0  0  0  0  0  0  0
  189.3150  173.7780  146.0790 C   0  0  0  0  0  2  0  0  0  0  0  0
  189.7960  174.9030  146.9970 C   0  0  2  0  0  3  0  0  0  0  0  0
  186.7270  176.7860  147.1890 C   0  0  0  0  0  3  0  0  0  0  0  0
  189.1970  176.2130  146.6020 C   0  0  0  0  0  3  0  0  0  0  0  0
  187.9600  176.4920  146.8960 C   0  0  0  0  0  0  0  0  0  0  0  0
  186.1540  178.0930  146.7660 C   0  0  0  0  0  2  0  0  0  0  0  0
  185.0120  177.8890  145.7840 C   0  0  0  0  0  2  0  0  0  0  0  0
  185.5320  177.3910  144.4380 C   0  0  0  0  0  2  0  0  0  0  0  0
  185.5610  178.4880  143.3700 C   0  0  0  0  0  0  0  0  0  0  0  0
  185.4520  179.8520  144.0270 C   0  0  0  0  0  1  0  0  0  0  0  0
  184.3560  178.3170  142.4650 C   0  0  0  0  0  1  0  0  0  0  0  0
  186.8560  178.4440  142.5500 C   0  0  0  0  0  2  0  0  0  0  0  0
  187.2690  177.0310  142.1360 C   0  0  1  0  0  3  0  0  0  0  0  0
  187.3640  176.9510  140.6240 C   0  0  0  0  0  1  0  0  0  0  0  0
  188.6220  176.6910  142.7330 C   0  0  0  0  0  2  0  0  0  0  0  0
  190.7090  177.6460  143.6520 C   0  0  0  0  0  1  0  0  0  0  0  0
  189.4920  177.9300  142.8030 C   0  0  0  0  0  2  0  0  0  0  0  0
  191.3190  174.9820  147.0220 C   0  0  0  0  0  2  0  0  0  0  0  0
  191.7980  176.4250  147.0440 C   0  0  1  0  0  3  0  0  0  0  0  0
  191.7610  176.9150  148.3520 O   0  0  0  0  0  1  0  0  0  0  0  0
  193.2180  176.4920  146.5210 C   0  0  0  0  0  1  0  0  0  0  0  0
  1  3  1  0  0  0  0
  3  2  2  0  0  0  0
  3  5  1  0  0  0  0
  4 13  1  0  0  0  0
  4 11  1  0  0  0  0
  5 28  1  1  0  0  0
  6  1  1  0  0  0  0
  6 11  1  0  0  0  0
  7  1  2  0  0  0  0
  8  7  1  0  0  0  0
  9  8  2  0  0  0  0
  9 12  1  0  0  0  0
 10  5  1  0  0  0  0
 11 10  2  0  0  0  0
 12  6  2  0  0  0  0
 13 14  1  0  0  0  0
 14 15  1  0  0  0  0
 15 16  1  0  0  0  0
 16 17  1  0  0  0  0
 17 23  1  0  0  0  0
 18 22  1  0  0  0  0
 19 21  2  0  0  0  0
 21 20  1  0  0  0  0
 22 20  2  0  0  0  0
 23 19  1  0  0  0  0
 23 18  2  0  0  0  0
 24 18  1  0  0  0  0
 25 24  1  0  0  0  0
 26 27  1  0  0  0  0
 27 25  1  0  0  0  0
 28 30  1  0  0  0  0
 29 31  1  0  0  0  0
 30 29  3  0  0  0  0
 32 31  1  6  0  0  0
 32 48  1  0  0  0  0
 34 35  2  0  0  0  0
 34 32  1  0  0  0  0
 35 33  2  0  0  0  0
 36 33  1  0  0  0  0
 37 36  1  0  0  0  0
 38 37  1  0  0  0  0
 39 40  1  0  0  0  0
 39 38  1  0  0  0  0
 41 39  1  0  0  0  0
 42 39  1  0  0  0  0
 43 44  1  6  0  0  0
 43 42  1  0  0  0  0
 43 45  1  0  0  0  0
 45 47  1  0  0  0  0
 47 46  1  0  0  0  0
 48 49  1  0  0  0  0
 49 51  1  1  0  0  0
 49 50  1  0  0  0  0
M  END
>  <MODEL>
9

>  <REMARK>
 VINA RESULT:      -5.2      1.493      2.463
  Name = 
  24 active torsions:
  status: ('A' for Active; 'I' for Inactive)
    1  A    between atoms: C_1  and  C_45
    2  A    between atoms: C_1  and  C_46
    3  A    between atoms: C_2  and  C_14
    4  A    between atoms: C_2  and  C_46
    5  A    between atoms: C_5  and  O_8
    6  A    between atoms: C_5  and  C_24
    7  A    between atoms: O_8  and  C_44
    8  A    between atoms: C_9  and  C_23
    9  A    between atoms: C_9  and  C_35
   10  A    between atoms: C_9  and  C_47
   11  A    between atoms: C_11  and  C_23
   12  A    between atoms: O_12  and  C_29
   13  A    between atoms: O_12  and  C_51
   14  A    between atoms: C_14  and  C_36
   15  A    between atoms: N_16  and  C_24
   16  A    between atoms: C_17  and  C_18
   17  A    between atoms: C_17  and  C_40
   18  A    between atoms: C_19  and  C_34
   19  A    between atoms: C_19  and  C_36
   20  A    between atoms: C_22  and  C_47
   21  A    between atoms: C_26  and  C_29
   22  A    between atoms: C_43  and  C_45
   23  A    between atoms: C_44  and  C_48
   24  A    between atoms: C_48  and  C_49
                            x       y       z     vdW  Elec       q    Type
                         _______ _______ _______ _____ _____    ______ ____

>  <TORSDO>
F 24

$$$$
