=
 OpenBabel11042414013D

 31 34  0  0  1  0  0  0  0  0999 V2000
  194.5850  175.6650  146.2180 C   0  0  0  0  0  2  0  0  0  0  0  0
  194.4500  175.4310  144.7150 C   0  0  2  0  0  3  0  0  0  0  0  0
  193.3960  176.4150  146.7990 C   0  0  0  0  0  2  0  0  0  0  0  0
  191.4980  175.5810  145.5120 N   0  0  0  0  0  0  0  0  0  0  0  0
  192.1660  175.5270  146.8120 C   0  0  0  0  0  2  0  0  0  0  0  0
  193.4500  174.2870  144.4420 C   0  0  1  0  0  3  0  0  0  0  0  0
  191.2630  174.4880  143.4590 O   0  0  0  0  0  0  0  0  0  0  0  0
  192.0220  174.7960  144.4220 C   0  0  0  0  0  0  0  0  0  0  0  0
  194.2460  171.7930  141.7720 C   0  0  0  0  0  3  0  0  0  0  0  0
  193.9980  172.1110  143.1300 C   0  0  0  0  0  3  0  0  0  0  0  0
  194.2450  173.5560  139.8870 C   0  0  0  0  0  0  0  0  0  0  0  0
  194.1480  173.0140  141.1370 C   0  0  0  0  0  0  0  0  0  0  0  0
  194.0010  174.9270  140.0640 C   0  0  0  0  0  3  0  0  0  0  0  0
  193.7740  175.1580  141.3900 N   0  0  0  0  0  2  0  0  0  0  0  0
  193.7770  173.4920  143.2050 C   0  0  0  0  0  0  0  0  0  0  0  0
  194.5160  172.8770  138.6660 N   0  0  0  0  0  1  0  0  0  0  0  0
  193.8770  173.9760  141.9670 N   0  0  0  0  0  0  0  0  0  0  0  0
  189.1750  176.1030  145.8730 C   0  0  0  0  0  3  0  0  0  0  0  0
  190.5310  177.7580  144.6270 C   0  0  0  0  0  1  0  0  0  0  0  0
  190.3580  176.4530  145.3390 C   0  0  0  0  0  0  0  0  0  0  0  0
  187.3940  177.4630  146.9110 N   0  0  0  0  0  0  0  0  0  0  0  0
  187.8900  176.8300  145.8250 C   0  0  0  0  0  0  0  0  0  0  0  0
  186.8320  176.9650  144.5180 S   0  0  0  0  0  0  0  0  0  0  0  0
  186.1890  178.0510  146.6770 C   0  0  0  0  0  3  0  0  0  0  0  0
  185.7140  177.8790  145.3820 C   0  0  0  0  0  0  0  0  0  0  0  0
  184.4460  178.3970  144.8580 C   0  0  0  0  0  0  0  0  0  0  0  0
  184.1460  178.2950  143.4690 N   0  0  0  0  0  1  0  0  0  0  0  0
  183.6140  178.9370  145.6340 O   0  0  0  0  0  0  0  0  0  0  0  0
  195.7710  175.1290  144.1720 N   0  0  0  0  0  2  0  0  0  0  0  0
  197.2180  176.9570  143.1190 N   0  0  0  0  0  0  0  0  0  0  0  0
  196.5630  176.1310  143.5970 C   0  0  0  0  0  0  0  0  0  0  0  0
  1  3  1  0  0  0  0
  2 29  1  1  0  0  0
  2  1  1  0  0  0  0
  3  5  1  0  0  0  0
  4  5  1  0  0  0  0
  6 15  1  6  0  0  0
  6  2  1  0  0  0  0
  7  8  2  0  0  0  0
  8  6  1  0  0  0  0
  8  4  1  0  0  0  0
  9 10  1  0  0  0  0
 10 15  2  0  0  0  0
 11 13  2  0  0  0  0
 11 12  1  0  0  0  0
 12  9  2  0  0  0  0
 12 17  1  0  0  0  0
 13 14  1  0  0  0  0
 14 17  1  0  0  0  0
 16 11  1  0  0  0  0
 17 15  1  0  0  0  0
 19 20  1  0  0  0  0
 20  4  1  0  0  0  0
 20 18  2  0  0  0  0
 22 18  1  0  0  0  0
 22 21  2  0  0  0  0
 23 25  1  0  0  0  0
 23 22  1  0  0  0  0
 24 21  1  0  0  0  0
 25 24  2  0  0  0  0
 26 25  1  0  0  0  0
 26 28  2  0  0  0  0
 27 26  1  0  0  0  0
 30 31  3  0  0  0  0
 31 29  1  0  0  0  0
M  END
>  <MODEL>
1

>  <REMARK>
 VINA RESULT:      -6.3      0.000      0.000
  Name = 
  6 active torsions:
  status: ('A' for Active; 'I' for Inactive)
    1  A    between atoms: C_3  and  C_29
    2  A    between atoms: N_5  and  C_14
    3  A    between atoms: N_5  and  C_19
    4  A    between atoms: C_11  and  C_21
    5  A    between atoms: N_18  and  C_28
    6  A    between atoms: C_20  and  C_23
                            x       y       z     vdW  Elec       q    Type
                         _______ _______ _______ _____ _____    ______ ____

>  <TORSDO>
F 6

$$$$
=
 OpenBabel11042414013D

 31 34  0  0  1  0  0  0  0  0999 V2000
  193.5820  174.9610  146.4790 C   0  0  0  0  0  2  0  0  0  0  0  0
  194.1990  175.3590  145.1400 C   0  0  2  0  0  3  0  0  0  0  0  0
  192.1380  175.4180  146.6120 C   0  0  0  0  0  2  0  0  0  0  0  0
  191.2450  175.1900  144.3530 N   0  0  0  0  0  0  0  0  0  0  0  0
  191.2400  174.6090  145.6950 C   0  0  0  0  0  2  0  0  0  0  0  0
  193.6820  174.4300  144.0190 C   0  0  1  0  0  3  0  0  0  0  0  0
  192.1950  175.0260  142.2240 O   0  0  0  0  0  0  0  0  0  0  0  0
  192.3530  174.9120  143.4730 C   0  0  0  0  0  0  0  0  0  0  0  0
  196.0630  173.2310  141.3960 C   0  0  0  0  0  3  0  0  0  0  0  0
  195.1480  172.9690  142.4460 C   0  0  0  0  0  3  0  0  0  0  0  0
  196.6620  175.6140  140.6080 C   0  0  0  0  0  0  0  0  0  0  0  0
  196.0750  174.6090  141.3220 C   0  0  0  0  0  0  0  0  0  0  0  0
  196.1360  176.7990  141.1470 C   0  0  0  0  0  3  0  0  0  0  0  0
  195.2690  176.4710  142.1490 N   0  0  0  0  0  2  0  0  0  0  0  0
  194.6880  174.2040  142.9210 C   0  0  0  0  0  0  0  0  0  0  0  0
  197.5930  175.4900  139.5390 N   0  0  0  0  0  1  0  0  0  0  0  0
  195.2830  175.1520  142.1970 N   0  0  0  0  0  0  0  0  0  0  0  0
  188.9720  175.5310  143.6320 C   0  0  0  0  0  3  0  0  0  0  0  0
  190.3680  177.5460  143.9830 C   0  0  0  0  0  1  0  0  0  0  0  0
  190.1630  176.0630  143.9580 C   0  0  0  0  0  0  0  0  0  0  0  0
  187.4800  176.4660  141.9010 N   0  0  0  0  0  0  0  0  0  0  0  0
  187.7390  176.2210  143.2050 C   0  0  0  0  0  0  0  0  0  0  0  0
  186.5160  176.8460  144.1850 S   0  0  0  0  0  0  0  0  0  0  0  0
  186.3110  177.1350  141.7100 C   0  0  0  0  0  3  0  0  0  0  0  0
  185.6270  177.4330  142.8820 C   0  0  0  0  0  0  0  0  0  0  0  0
  184.3500  178.1490  142.9720 C   0  0  0  0  0  0  0  0  0  0  0  0
  184.0210  178.8880  144.1440 N   0  0  0  0  0  1  0  0  0  0  0  0
  183.5350  178.1130  142.0130 O   0  0  0  0  0  0  0  0  0  0  0  0
  195.6520  175.2950  145.2600 N   0  0  0  0  0  2  0  0  0  0  0  0
  196.8060  173.2600  146.2940 N   0  0  0  0  0  0  0  0  0  0  0  0
  196.2820  174.1810  145.8270 C   0  0  0  0  0  0  0  0  0  0  0  0
  1  3  1  0  0  0  0
  2 29  1  1  0  0  0
  2  1  1  0  0  0  0
  4  5  1  0  0  0  0
  5  3  1  0  0  0  0
  6 15  1  6  0  0  0
  6  2  1  0  0  0  0
  7  8  2  0  0  0  0
  8  6  1  0  0  0  0
  8  4  1  0  0  0  0
  9 10  1  0  0  0  0
 10 15  2  0  0  0  0
 11 13  2  0  0  0  0
 11 12  1  0  0  0  0
 12  9  2  0  0  0  0
 12 17  1  0  0  0  0
 13 14  1  0  0  0  0
 14 17  1  0  0  0  0
 16 11  1  0  0  0  0
 17 15  1  0  0  0  0
 18 20  2  0  0  0  0
 20 19  1  0  0  0  0
 20  4  1  0  0  0  0
 21 22  2  0  0  0  0
 22 18  1  0  0  0  0
 22 23  1  0  0  0  0
 24 21  1  0  0  0  0
 24 25  2  0  0  0  0
 25 26  1  0  0  0  0
 25 23  1  0  0  0  0
 26 27  1  0  0  0  0
 28 26  2  0  0  0  0
 29 31  1  0  0  0  0
 31 30  3  0  0  0  0
M  END
>  <MODEL>
2

>  <REMARK>
 VINA RESULT:      -6.3      2.179      2.535
  Name = 
  6 active torsions:
  status: ('A' for Active; 'I' for Inactive)
    1  A    between atoms: C_3  and  C_29
    2  A    between atoms: N_5  and  C_14
    3  A    between atoms: N_5  and  C_19
    4  A    between atoms: C_11  and  C_21
    5  A    between atoms: N_18  and  C_28
    6  A    between atoms: C_20  and  C_23
                            x       y       z     vdW  Elec       q    Type
                         _______ _______ _______ _____ _____    ______ ____

>  <TORSDO>
F 6

$$$$
=
 OpenBabel11042414013D

 31 34  0  0  1  0  0  0  0  0999 V2000
  194.3890  175.8890  146.2120 C   0  0  0  0  0  2  0  0  0  0  0  0
  194.2270  175.0630  144.9380 C   0  0  2  0  0  3  0  0  0  0  0  0
  193.0750  176.4900  146.6860 C   0  0  0  0  0  2  0  0  0  0  0  0
  191.4220  174.7830  146.1320 N   0  0  0  0  0  0  0  0  0  0  0  0
  192.1630  175.4060  147.2290 C   0  0  0  0  0  2  0  0  0  0  0  0
  193.5900  173.6960  145.2690 C   0  0  1  0  0  3  0  0  0  0  0  0
  191.3780  172.9550  144.6770 O   0  0  0  0  0  0  0  0  0  0  0  0
  192.0770  173.7900  145.3180 C   0  0  0  0  0  0  0  0  0  0  0  0
  194.6180  171.3740  142.5230 C   0  0  0  0  0  3  0  0  0  0  0  0
  194.0980  172.6170  142.9580 C   0  0  0  0  0  3  0  0  0  0  0  0
  195.3160  169.4910  144.1450 C   0  0  0  0  0  0  0  0  0  0  0  0
  194.8450  170.6950  143.7030 C   0  0  0  0  0  0  0  0  0  0  0  0
  195.2370  169.5620  145.5440 C   0  0  0  0  0  3  0  0  0  0  0  0
  194.7280  170.7800  145.8890 N   0  0  0  0  0  2  0  0  0  0  0  0
  194.0500  172.5870  144.3580 C   0  0  0  0  0  0  0  0  0  0  0  0
  195.7990  168.4070  143.3590 N   0  0  0  0  0  1  0  0  0  0  0  0
  194.5190  171.4010  144.7430 N   0  0  0  0  0  0  0  0  0  0  0  0
  189.7880  175.8250  144.7010 C   0  0  0  0  0  3  0  0  0  0  0  0
  188.9890  174.9010  146.8550 C   0  0  0  0  0  1  0  0  0  0  0  0
  190.0670  175.2100  145.8640 C   0  0  0  0  0  0  0  0  0  0  0  0
  187.8030  175.7160  143.2370 N   0  0  0  0  0  0  0  0  0  0  0  0
  188.4910  176.3410  144.2180 C   0  0  0  0  0  0  0  0  0  0  0  0
  187.6880  177.7380  144.7170 S   0  0  0  0  0  0  0  0  0  0  0  0
  186.6470  176.3560  142.9120 C   0  0  0  0  0  3  0  0  0  0  0  0
  186.4120  177.5140  143.6430 C   0  0  0  0  0  0  0  0  0  0  0  0
  185.2530  178.4000  143.4970 C   0  0  0  0  0  0  0  0  0  0  0  0
  185.3260  179.7570  143.9260 N   0  0  0  0  0  1  0  0  0  0  0  0
  184.1840  177.9670  142.9910 O   0  0  0  0  0  0  0  0  0  0  0  0
  195.5380  174.9060  144.3160 N   0  0  0  0  0  2  0  0  0  0  0  0
  196.7810  176.9150  143.3350 N   0  0  0  0  0  0  0  0  0  0  0  0
  196.2190  176.0060  143.7800 C   0  0  0  0  0  0  0  0  0  0  0  0
  1  3  1  0  0  0  0
  2 29  1  1  0  0  0
  2  6  1  0  0  0  0
  2  1  1  0  0  0  0
  3  5  1  0  0  0  0
  4  5  1  0  0  0  0
  6 15  1  6  0  0  0
  6  8  1  0  0  0  0
  7  8  2  0  0  0  0
  8  4  1  0  0  0  0
  9 10  1  0  0  0  0
  9 12  2  0  0  0  0
 10 15  2  0  0  0  0
 11 13  2  0  0  0  0
 12 11  1  0  0  0  0
 12 17  1  0  0  0  0
 13 14  1  0  0  0  0
 15 17  1  0  0  0  0
 16 11  1  0  0  0  0
 17 14  1  0  0  0  0
 18 20  2  0  0  0  0
 20  4  1  0  0  0  0
 20 19  1  0  0  0  0
 21 22  2  0  0  0  0
 22 18  1  0  0  0  0
 22 23  1  0  0  0  0
 24 21  1  0  0  0  0
 24 25  2  0  0  0  0
 25 23  1  0  0  0  0
 26 25  1  0  0  0  0
 26 27  1  0  0  0  0
 28 26  2  0  0  0  0
 30 31  3  0  0  0  0
 31 29  1  0  0  0  0
M  END
>  <MODEL>
3

>  <REMARK>
 VINA RESULT:      -6.3      2.318      3.087
  Name = 
  6 active torsions:
  status: ('A' for Active; 'I' for Inactive)
    1  A    between atoms: C_3  and  C_29
    2  A    between atoms: N_5  and  C_14
    3  A    between atoms: N_5  and  C_19
    4  A    between atoms: C_11  and  C_21
    5  A    between atoms: N_18  and  C_28
    6  A    between atoms: C_20  and  C_23
                            x       y       z     vdW  Elec       q    Type
                         _______ _______ _______ _____ _____    ______ ____

>  <TORSDO>
F 6

$$$$
=
 OpenBabel11042414013D

 31 34  0  0  1  0  0  0  0  0999 V2000
  194.7770  175.7700  146.1450 C   0  0  0  0  0  2  0  0  0  0  0  0
  194.4250  175.0280  144.8570 C   0  0  2  0  0  3  0  0  0  0  0  0
  193.6870  176.7390  146.5740 C   0  0  0  0  0  2  0  0  0  0  0  0
  191.6210  175.6060  145.9400 N   0  0  0  0  0  0  0  0  0  0  0  0
  192.4710  175.9800  147.0700 C   0  0  0  0  0  2  0  0  0  0  0  0
  193.3940  173.9160  145.1500 C   0  0  1  0  0  3  0  0  0  0  0  0
  191.0870  173.8720  144.4670 O   0  0  0  0  0  0  0  0  0  0  0  0
  191.9790  174.4600  145.1430 C   0  0  0  0  0  0  0  0  0  0  0  0
  193.5820  171.3590  142.4270 C   0  0  0  0  0  3  0  0  0  0  0  0
  193.3000  172.6760  142.8670 C   0  0  0  0  0  3  0  0  0  0  0  0
  194.3910  169.4860  144.0070 C   0  0  0  0  0  0  0  0  0  0  0  0
  193.9720  170.7150  143.5830 C   0  0  0  0  0  0  0  0  0  0  0  0
  194.6080  169.6320  145.3870 C   0  0  0  0  0  3  0  0  0  0  0  0
  194.3150  170.9180  145.7380 N   0  0  0  0  0  2  0  0  0  0  0  0
  193.5360  172.7180  144.2470 C   0  0  0  0  0  0  0  0  0  0  0  0
  194.5830  168.3160  143.2210 N   0  0  0  0  0  1  0  0  0  0  0  0
  193.9440  171.5040  144.6150 N   0  0  0  0  0  0  0  0  0  0  0  0
  189.3200  176.2250  146.2950 C   0  0  0  0  0  3  0  0  0  0  0  0
  190.5940  177.5080  144.6030 C   0  0  0  0  0  1  0  0  0  0  0  0
  190.4680  176.4200  145.6240 C   0  0  0  0  0  0  0  0  0  0  0  0
  187.5220  177.6950  147.1330 N   0  0  0  0  0  0  0  0  0  0  0  0
  188.0310  176.9300  146.1430 C   0  0  0  0  0  0  0  0  0  0  0  0
  186.9840  176.8880  144.8210 S   0  0  0  0  0  0  0  0  0  0  0  0
  186.3160  178.2390  146.8150 C   0  0  0  0  0  3  0  0  0  0  0  0
  185.8530  177.8980  145.5500 C   0  0  0  0  0  0  0  0  0  0  0  0
  184.5860  178.3350  144.9540 C   0  0  0  0  0  0  0  0  0  0  0  0
  184.3660  178.1980  143.5530 N   0  0  0  0  0  1  0  0  0  0  0  0
  183.6860  178.8350  145.6770 O   0  0  0  0  0  0  0  0  0  0  0  0
  195.6520  174.4830  144.2850 N   0  0  0  0  0  2  0  0  0  0  0  0
  197.4000  176.0110  143.2100 N   0  0  0  0  0  0  0  0  0  0  0  0
  196.6090  175.3200  143.6980 C   0  0  0  0  0  0  0  0  0  0  0  0
  1  3  1  0  0  0  0
  2 29  1  1  0  0  0
  2  6  1  0  0  0  0
  2  1  1  0  0  0  0
  3  5  1  0  0  0  0
  4  5  1  0  0  0  0
  6 15  1  6  0  0  0
  7  8  2  0  0  0  0
  8  6  1  0  0  0  0
  8  4  1  0  0  0  0
  9 10  1  0  0  0  0
  9 12  2  0  0  0  0
 10 15  2  0  0  0  0
 11 13  2  0  0  0  0
 12 11  1  0  0  0  0
 12 17  1  0  0  0  0
 13 14  1  0  0  0  0
 15 17  1  0  0  0  0
 16 11  1  0  0  0  0
 17 14  1  0  0  0  0
 19 20  1  0  0  0  0
 20  4  1  0  0  0  0
 20 18  2  0  0  0  0
 22 18  1  0  0  0  0
 22 21  2  0  0  0  0
 23 25  1  0  0  0  0
 23 22  1  0  0  0  0
 24 21  1  0  0  0  0
 25 24  2  0  0  0  0
 26 25  1  0  0  0  0
 26 28  2  0  0  0  0
 27 26  1  0  0  0  0
 30 31  3  0  0  0  0
 31 29  1  0  0  0  0
M  END
>  <MODEL>
4

>  <REMARK>
 VINA RESULT:      -6.2      1.810      2.565
  Name = 
  6 active torsions:
  status: ('A' for Active; 'I' for Inactive)
    1  A    between atoms: C_3  and  C_29
    2  A    between atoms: N_5  and  C_14
    3  A    between atoms: N_5  and  C_19
    4  A    between atoms: C_11  and  C_21
    5  A    between atoms: N_18  and  C_28
    6  A    between atoms: C_20  and  C_23
                            x       y       z     vdW  Elec       q    Type
                         _______ _______ _______ _____ _____    ______ ____

>  <TORSDO>
F 6

$$$$
=
 OpenBabel11042414013D

 31 34  0  0  1  0  0  0  0  0999 V2000
  194.5680  176.2580  146.4030 C   0  0  0  0  0  2  0  0  0  0  0  0
  194.5930  175.3700  145.1610 C   0  0  2  0  0  3  0  0  0  0  0  0
  193.1680  176.7450  146.7410 C   0  0  0  0  0  2  0  0  0  0  0  0
  191.7370  174.8610  146.1390 N   0  0  0  0  0  0  0  0  0  0  0  0
  192.3200  175.5970  147.2600 C   0  0  0  0  0  2  0  0  0  0  0  0
  194.0640  173.9600  145.5040 C   0  0  1  0  0  3  0  0  0  0  0  0
  191.9910  172.9810  144.7730 O   0  0  0  0  0  0  0  0  0  0  0  0
  192.5510  173.9060  145.4280 C   0  0  0  0  0  0  0  0  0  0  0  0
  195.7990  170.9800  144.0570 C   0  0  0  0  0  3  0  0  0  0  0  0
  195.3950  171.7520  145.1740 C   0  0  0  0  0  3  0  0  0  0  0  0
  195.2700  171.6430  141.6190 C   0  0  0  0  0  0  0  0  0  0  0  0
  195.3120  171.6970  142.9830 C   0  0  0  0  0  0  0  0  0  0  0  0
  194.5570  172.7870  141.2310 C   0  0  0  0  0  3  0  0  0  0  0  0
  194.2030  173.4790  142.3530 N   0  0  0  0  0  2  0  0  0  0  0  0
  194.7030  172.8680  144.6870 C   0  0  0  0  0  0  0  0  0  0  0  0
  195.8160  170.6360  140.7740 N   0  0  0  0  0  1  0  0  0  0  0  0
  194.6850  172.7720  143.3580 N   0  0  0  0  0  0  0  0  0  0  0  0
  190.1480  175.8860  144.6470 C   0  0  0  0  0  3  0  0  0  0  0  0
  189.2460  174.5410  146.5200 C   0  0  0  0  0  1  0  0  0  0  0  0
  190.3750  175.1410  145.7420 C   0  0  0  0  0  0  0  0  0  0  0  0
  188.3120  175.6310  143.0160 N   0  0  0  0  0  0  0  0  0  0  0  0
  188.8550  176.2930  144.0610 C   0  0  0  0  0  0  0  0  0  0  0  0
  187.8870  177.6020  144.5070 S   0  0  0  0  0  0  0  0  0  0  0  0
  187.1340  176.1710  142.6000 C   0  0  0  0  0  3  0  0  0  0  0  0
  186.7330  177.2870  143.3240 C   0  0  0  0  0  0  0  0  0  0  0  0
  185.5140  178.0690  143.0900 C   0  0  0  0  0  0  0  0  0  0  0  0
  185.4370  179.4260  143.5170 N   0  0  0  0  0  1  0  0  0  0  0  0
  184.5280  177.5440  142.5110 O   0  0  0  0  0  0  0  0  0  0  0  0
  195.9610  175.3190  144.6540 N   0  0  0  0  0  2  0  0  0  0  0  0
  196.7000  176.7880  142.6940 N   0  0  0  0  0  0  0  0  0  0  0  0
  196.3640  176.1240  143.5810 C   0  0  0  0  0  0  0  0  0  0  0  0
  1  3  1  0  0  0  0
  2 29  1  1  0  0  0
  2  6  1  0  0  0  0
  2  1  1  0  0  0  0
  3  5  1  0  0  0  0
  4  5  1  0  0  0  0
  6 15  1  6  0  0  0
  7  8  2  0  0  0  0
  8  6  1  0  0  0  0
  8  4  1  0  0  0  0
  9 10  1  0  0  0  0
 11 12  1  0  0  0  0
 12 17  1  0  0  0  0
 12  9  2  0  0  0  0
 13 11  2  0  0  0  0
 13 14  1  0  0  0  0
 14 17  1  0  0  0  0
 15 10  2  0  0  0  0
 16 11  1  0  0  0  0
 17 15  1  0  0  0  0
 18 20  2  0  0  0  0
 20  4  1  0  0  0  0
 20 19  1  0  0  0  0
 21 22  2  0  0  0  0
 22 23  1  0  0  0  0
 22 18  1  0  0  0  0
 24 21  1  0  0  0  0
 24 25  2  0  0  0  0
 25 23  1  0  0  0  0
 26 25  1  0  0  0  0
 26 27  1  0  0  0  0
 28 26  2  0  0  0  0
 30 31  3  0  0  0  0
 31 29  1  0  0  0  0
M  END
>  <MODEL>
5

>  <REMARK>
 VINA RESULT:      -6.0      1.895      2.274
  Name = 
  6 active torsions:
  status: ('A' for Active; 'I' for Inactive)
    1  A    between atoms: C_3  and  C_29
    2  A    between atoms: N_5  and  C_14
    3  A    between atoms: N_5  and  C_19
    4  A    between atoms: C_11  and  C_21
    5  A    between atoms: N_18  and  C_28
    6  A    between atoms: C_20  and  C_23
                            x       y       z     vdW  Elec       q    Type
                         _______ _______ _______ _____ _____    ______ ____

>  <TORSDO>
F 6

$$$$
=
 OpenBabel11042414013D

 31 34  0  0  1  0  0  0  0  0999 V2000
  191.5890  176.9040  145.0820 C   0  0  0  0  0  2  0  0  0  0  0  0
  190.2340  176.3920  145.5660 C   0  0  2  0  0  3  0  0  0  0  0  0
  192.2060  176.0040  144.0240 C   0  0  0  0  0  2  0  0  0  0  0  0
  190.2860  175.2170  142.7390 N   0  0  0  0  0  0  0  0  0  0  0  0
  191.4380  176.1180  142.7200 C   0  0  0  0  0  2  0  0  0  0  0  0
  189.1450  176.6940  144.5130 C   0  0  1  0  0  3  0  0  0  0  0  0
  187.9860  175.0950  143.1380 O   0  0  0  0  0  0  0  0  0  0  0  0
  189.0950  175.6170  143.4470 C   0  0  0  0  0  0  0  0  0  0  0  0
  185.9670  176.9010  146.4720 C   0  0  0  0  0  3  0  0  0  0  0  0
  187.2540  176.3480  146.2630 C   0  0  0  0  0  3  0  0  0  0  0  0
  184.9310  178.6910  144.9290 C   0  0  0  0  0  0  0  0  0  0  0  0
  185.8320  177.7950  145.4300 C   0  0  0  0  0  0  0  0  0  0  0  0
  185.5550  179.2390  143.7970 C   0  0  0  0  0  3  0  0  0  0  0  0
  186.7840  178.6610  143.6570 N   0  0  0  0  0  2  0  0  0  0  0  0
  187.7870  176.9470  145.1150 C   0  0  0  0  0  0  0  0  0  0  0  0
  183.6470  179.0140  145.4490 N   0  0  0  0  0  1  0  0  0  0  0  0
  186.8800  177.8130  144.6630 N   0  0  0  0  0  0  0  0  0  0  0  0
  190.4150  173.8740  140.7440 C   0  0  0  0  0  3  0  0  0  0  0  0
  190.5190  172.6930  142.9190 C   0  0  0  0  0  1  0  0  0  0  0  0
  190.3850  173.9310  142.0870 C   0  0  0  0  0  0  0  0  0  0  0  0
  189.4140  172.1100  139.3360 N   0  0  0  0  0  0  0  0  0  0  0  0
  190.5120  172.6850  139.8740 C   0  0  0  0  0  0  0  0  0  0  0  0
  191.9040  171.8330  139.4450 S   0  0  0  0  0  0  0  0  0  0  0  0
  189.7040  171.0110  138.5870 C   0  0  0  0  0  3  0  0  0  0  0  0
  191.0580  170.7030  138.5300 C   0  0  0  0  0  0  0  0  0  0  0  0
  191.6500  169.5740  137.8040 C   0  0  0  0  0  0  0  0  0  0  0  0
  191.1310  169.1830  136.5360 N   0  0  0  0  0  1  0  0  0  0  0  0
  192.6200  168.9420  138.2990 O   0  0  0  0  0  0  0  0  0  0  0  0
  189.9290  177.0220  146.8460 N   0  0  0  0  0  2  0  0  0  0  0  0
  191.6770  177.1400  148.7110 N   0  0  0  0  0  0  0  0  0  0  0  0
  190.8870  177.0850  147.8670 C   0  0  0  0  0  0  0  0  0  0  0  0
  1  2  1  0  0  0  0
  2 29  1  1  0  0  0
  3  1  1  0  0  0  0
  4  8  1  0  0  0  0
  5  4  1  0  0  0  0
  5  3  1  0  0  0  0
  6 15  1  1  0  0  0
  6  2  1  0  0  0  0
  7  8  2  0  0  0  0
  8  6  1  0  0  0  0
 10  9  1  0  0  0  0
 11 12  1  0  0  0  0
 11 16  1  0  0  0  0
 12  9  2  0  0  0  0
 13 11  2  0  0  0  0
 14 13  1  0  0  0  0
 14 17  1  0  0  0  0
 15 10  2  0  0  0  0
 17 15  1  0  0  0  0
 17 12  1  0  0  0  0
 18 20  2  0  0  0  0
 20  4  1  0  0  0  0
 20 19  1  0  0  0  0
 21 22  2  0  0  0  0
 22 18  1  0  0  0  0
 23 22  1  0  0  0  0
 24 21  1  0  0  0  0
 25 24  2  0  0  0  0
 25 23  1  0  0  0  0
 26 28  2  0  0  0  0
 26 25  1  0  0  0  0
 27 26  1  0  0  0  0
 29 31  1  0  0  0  0
 31 30  3  0  0  0  0
M  END
>  <MODEL>
6

>  <REMARK>
 VINA RESULT:      -5.9      3.708      8.723
  Name = 
  6 active torsions:
  status: ('A' for Active; 'I' for Inactive)
    1  A    between atoms: C_3  and  C_29
    2  A    between atoms: N_5  and  C_14
    3  A    between atoms: N_5  and  C_19
    4  A    between atoms: C_11  and  C_21
    5  A    between atoms: N_18  and  C_28
    6  A    between atoms: C_20  and  C_23
                            x       y       z     vdW  Elec       q    Type
                         _______ _______ _______ _____ _____    ______ ____

>  <TORSDO>
F 6

$$$$
=
 OpenBabel11042414013D

 31 34  0  0  1  0  0  0  0  0999 V2000
  191.5650  171.5370  144.3330 C   0  0  0  0  0  2  0  0  0  0  0  0
  192.4590  172.7760  144.3260 C   0  0  2  0  0  3  0  0  0  0  0  0
  190.0860  171.8870  144.2900 C   0  0  0  0  0  2  0  0  0  0  0  0
  189.9990  173.8670  142.8660 N   0  0  0  0  0  0  0  0  0  0  0  0
  189.7120  172.4340  142.9250 C   0  0  0  0  0  2  0  0  0  0  0  0
  192.5260  173.3740  142.9040 C   0  0  1  0  0  3  0  0  0  0  0  0
  191.5660  175.4550  142.1690 O   0  0  0  0  0  0  0  0  0  0  0  0
  191.3550  174.3010  142.6410 C   0  0  0  0  0  0  0  0  0  0  0  0
  195.8010  174.6370  141.6130 C   0  0  0  0  0  3  0  0  0  0  0  0
  194.6930  173.7590  141.5210 C   0  0  0  0  0  3  0  0  0  0  0  0
  196.0570  176.3930  143.4870 C   0  0  0  0  0  0  0  0  0  0  0  0
  195.5230  175.3800  142.7420 C   0  0  0  0  0  0  0  0  0  0  0  0
  195.1370  176.6040  144.5270 C   0  0  0  0  0  3  0  0  0  0  0  0
  194.1030  175.7250  144.3750 N   0  0  0  0  0  2  0  0  0  0  0  0
  193.8430  174.0390  142.5980 C   0  0  0  0  0  0  0  0  0  0  0  0
  197.2720  177.0940  143.2530 N   0  0  0  0  0  1  0  0  0  0  0  0
  194.4000  175.0300  143.2930 N   0  0  0  0  0  0  0  0  0  0  0  0
  188.9220  175.5650  144.1920 C   0  0  0  0  0  3  0  0  0  0  0  0
  187.8740  174.9790  142.0260 C   0  0  0  0  0  1  0  0  0  0  0  0
  188.9250  174.8110  143.0790 C   0  0  0  0  0  0  0  0  0  0  0  0
  187.6420  177.6460  143.8320 N   0  0  0  0  0  0  0  0  0  0  0  0
  187.9400  176.5840  144.6130 C   0  0  0  0  0  0  0  0  0  0  0  0
  187.0890  176.6550  146.0690 S   0  0  0  0  0  0  0  0  0  0  0  0
  186.7360  178.4860  144.4030 C   0  0  0  0  0  3  0  0  0  0  0  0
  186.3080  178.0890  145.6640 C   0  0  0  0  0  0  0  0  0  0  0  0
  185.3460  178.8060  146.5070 C   0  0  0  0  0  0  0  0  0  0  0  0
  185.7870  179.5050  147.6680 N   0  0  0  0  0  1  0  0  0  0  0  0
  184.1220  178.8060  146.2120 O   0  0  0  0  0  0  0  0  0  0  0  0
  193.7820  172.3970  144.8100 N   0  0  0  0  0  2  0  0  0  0  0  0
  194.3440  169.9600  145.3510 N   0  0  0  0  0  0  0  0  0  0  0  0
  194.0880  171.0630  145.1070 C   0  0  0  0  0  0  0  0  0  0  0  0
  2  1  1  0  0  0  0
  2 29  1  6  0  0  0
  3  1  1  0  0  0  0
  4  5  1  0  0  0  0
  4 20  1  0  0  0  0
  5  3  1  0  0  0  0
  6 15  1  1  0  0  0
  6  2  1  0  0  0  0
  7  8  2  0  0  0  0
  8  4  1  0  0  0  0
  8  6  1  0  0  0  0
  9 12  2  0  0  0  0
 10  9  1  0  0  0  0
 10 15  2  0  0  0  0
 11 13  2  0  0  0  0
 12 17  1  0  0  0  0
 12 11  1  0  0  0  0
 14 13  1  0  0  0  0
 15 17  1  0  0  0  0
 16 11  1  0  0  0  0
 17 14  1  0  0  0  0
 18 22  1  0  0  0  0
 19 20  1  0  0  0  0
 20 18  2  0  0  0  0
 21 24  1  0  0  0  0
 21 22  2  0  0  0  0
 22 23  1  0  0  0  0
 24 25  2  0  0  0  0
 25 23  1  0  0  0  0
 25 26  1  0  0  0  0
 26 27  1  0  0  0  0
 28 26  2  0  0  0  0
 29 31  1  0  0  0  0
 31 30  3  0  0  0  0
M  END
>  <MODEL>
7

>  <REMARK>
 VINA RESULT:      -5.8      2.370      3.831
  Name = 
  6 active torsions:
  status: ('A' for Active; 'I' for Inactive)
    1  A    between atoms: C_3  and  C_29
    2  A    between atoms: N_5  and  C_14
    3  A    between atoms: N_5  and  C_19
    4  A    between atoms: C_11  and  C_21
    5  A    between atoms: N_18  and  C_28
    6  A    between atoms: C_20  and  C_23
                            x       y       z     vdW  Elec       q    Type
                         _______ _______ _______ _____ _____    ______ ____

>  <TORSDO>
F 6

$$$$
=
 OpenBabel11042414013D

 31 34  0  0  1  0  0  0  0  0999 V2000
  190.8090  176.1720  146.9850 C   0  0  0  0  0  2  0  0  0  0  0  0
  190.1700  175.3480  145.8690 C   0  0  2  0  0  3  0  0  0  0  0  0
  192.2880  175.8680  147.1580 C   0  0  0  0  0  2  0  0  0  0  0  0
  193.0660  175.4540  144.8820 N   0  0  0  0  0  0  0  0  0  0  0  0
  193.0810  176.4140  145.9840 C   0  0  0  0  0  2  0  0  0  0  0  0
  190.5650  175.9230  144.4910 C   0  0  1  0  0  3  0  0  0  0  0  0
  192.0180  174.9040  142.8660 O   0  0  0  0  0  0  0  0  0  0  0  0
  191.9040  175.3810  144.0310 C   0  0  0  0  0  0  0  0  0  0  0  0
  187.9280  174.8420  142.0690 C   0  0  0  0  0  3  0  0  0  0  0  0
  188.8820  174.5400  143.0720 C   0  0  0  0  0  3  0  0  0  0  0  0
  187.5110  177.2340  141.1930 C   0  0  0  0  0  0  0  0  0  0  0  0
  188.0470  176.2090  141.9200 C   0  0  0  0  0  0  0  0  0  0  0  0
  188.1820  178.3840  141.6380 C   0  0  0  0  0  3  0  0  0  0  0  0
  189.0820  178.0180  142.5960 N   0  0  0  0  0  2  0  0  0  0  0  0
  189.4990  175.7420  143.4420 C   0  0  0  0  0  0  0  0  0  0  0  0
  186.4850  177.1570  140.2100 N   0  0  0  0  0  1  0  0  0  0  0  0
  188.9460  176.7110  142.7120 N   0  0  0  0  0  0  0  0  0  0  0  0
  194.1840  173.3570  145.2770 C   0  0  0  0  0  3  0  0  0  0  0  0
  195.3270  174.9980  143.8170 C   0  0  0  0  0  1  0  0  0  0  0  0
  194.1960  174.5710  144.6990 C   0  0  0  0  0  0  0  0  0  0  0  0
  196.3400  172.3740  145.9730 N   0  0  0  0  0  0  0  0  0  0  0  0
  195.2160  172.3010  145.2270 C   0  0  0  0  0  0  0  0  0  0  0  0
  195.2270  170.9170  144.2620 S   0  0  0  0  0  0  0  0  0  0  0  0
  197.1800  171.3230  145.7690 C   0  0  0  0  0  3  0  0  0  0  0  0
  196.7190  170.3980  144.8410 C   0  0  0  0  0  0  0  0  0  0  0  0
  197.4200  169.1790  144.4250 C   0  0  0  0  0  0  0  0  0  0  0  0
  197.9280  168.2730  145.4000 N   0  0  0  0  0  1  0  0  0  0  0  0
  197.5790  168.9260  143.2020 O   0  0  0  0  0  0  0  0  0  0  0  0
  188.7230  175.3550  146.0570 N   0  0  0  0  0  2  0  0  0  0  0  0
  187.4980  177.4730  146.8070 N   0  0  0  0  0  0  0  0  0  0  0  0
  188.0520  176.5140  146.4690 C   0  0  0  0  0  0  0  0  0  0  0  0
  1  3  1  0  0  0  0
  2 29  1  1  0  0  0
  2  1  1  0  0  0  0
  4  5  1  0  0  0  0
  5  3  1  0  0  0  0
  6 15  1  6  0  0  0
  6  2  1  0  0  0  0
  7  8  2  0  0  0  0
  8  6  1  0  0  0  0
  8  4  1  0  0  0  0
  9 10  1  0  0  0  0
 10 15  2  0  0  0  0
 11 13  2  0  0  0  0
 11 12  1  0  0  0  0
 12  9  2  0  0  0  0
 12 17  1  0  0  0  0
 13 14  1  0  0  0  0
 14 17  1  0  0  0  0
 16 11  1  0  0  0  0
 17 15  1  0  0  0  0
 19 20  1  0  0  0  0
 20  4  1  0  0  0  0
 20 18  2  0  0  0  0
 22 18  1  0  0  0  0
 22 21  2  0  0  0  0
 23 25  1  0  0  0  0
 23 22  1  0  0  0  0
 24 21  1  0  0  0  0
 25 24  2  0  0  0  0
 26 25  1  0  0  0  0
 26 27  1  0  0  0  0
 28 26  2  0  0  0  0
 29 31  1  0  0  0  0
 31 30  3  0  0  0  0
M  END
>  <MODEL>
8

>  <REMARK>
 VINA RESULT:      -5.7      3.858      8.561
  Name = 
  6 active torsions:
  status: ('A' for Active; 'I' for Inactive)
    1  A    between atoms: C_3  and  C_29
    2  A    between atoms: N_5  and  C_14
    3  A    between atoms: N_5  and  C_19
    4  A    between atoms: C_11  and  C_21
    5  A    between atoms: N_18  and  C_28
    6  A    between atoms: C_20  and  C_23
                            x       y       z     vdW  Elec       q    Type
                         _______ _______ _______ _____ _____    ______ ____

>  <TORSDO>
F 6

$$$$
=
 OpenBabel11042414013D

 31 34  0  0  1  0  0  0  0  0999 V2000
  194.7370  175.1480  141.9750 C   0  0  0  0  0  2  0  0  0  0  0  0
  194.6430  173.7910  142.6700 C   0  0  2  0  0  3  0  0  0  0  0  0
  193.4450  175.9420  142.0730 C   0  0  0  0  0  2  0  0  0  0  0  0
  192.5830  175.3780  144.2850 N   0  0  0  0  0  0  0  0  0  0  0  0
  193.2290  176.4260  143.4950 C   0  0  0  0  0  2  0  0  0  0  0  0
  194.7370  173.9710  144.2010 C   0  0  1  0  0  3  0  0  0  0  0  0
  192.9700  173.6430  145.8020 O   0  0  0  0  0  0  0  0  0  0  0  0
  193.3830  174.2960  144.8020 C   0  0  0  0  0  0  0  0  0  0  0  0
  196.8030  171.5260  146.1350 C   0  0  0  0  0  3  0  0  0  0  0  0
  196.5790  172.8350  145.6420 C   0  0  0  0  0  3  0  0  0  0  0  0
  195.2100  169.5500  145.6680 C   0  0  0  0  0  0  0  0  0  0  0  0
  195.7250  170.8150  145.6490 C   0  0  0  0  0  0  0  0  0  0  0  0
  194.0300  169.6260  144.9110 C   0  0  0  0  0  3  0  0  0  0  0  0
  193.8810  170.9090  144.4700 N   0  0  0  0  0  2  0  0  0  0  0  0
  195.3920  172.8070  144.8990 C   0  0  0  0  0  0  0  0  0  0  0  0
  195.7430  168.4060  146.3250 N   0  0  0  0  0  1  0  0  0  0  0  0
  194.9250  171.5600  144.9470 N   0  0  0  0  0  0  0  0  0  0  0  0
  190.6320  176.4040  145.2570 C   0  0  0  0  0  3  0  0  0  0  0  0
  190.2740  174.4370  143.7960 C   0  0  0  0  0  1  0  0  0  0  0  0
  191.1530  175.4290  144.4910 C   0  0  0  0  0  0  0  0  0  0  0  0
  188.6580  176.1260  146.7140 N   0  0  0  0  0  0  0  0  0  0  0  0
  189.2170  176.6500  145.6010 C   0  0  0  0  0  0  0  0  0  0  0  0
  188.0790  177.5260  144.7160 S   0  0  0  0  0  0  0  0  0  0  0  0
  187.3410  176.4420  146.8440 C   0  0  0  0  0  3  0  0  0  0  0  0
  186.8400  177.2280  145.8140 C   0  0  0  0  0  0  0  0  0  0  0  0
  185.4590  177.7070  145.6960 C   0  0  0  0  0  0  0  0  0  0  0  0
  184.8770  177.9130  144.4120 N   0  0  0  0  0  1  0  0  0  0  0  0
  184.7800  177.9430  146.7290 O   0  0  0  0  0  0  0  0  0  0  0  0
  195.7110  172.9350  142.1650 N   0  0  0  0  0  2  0  0  0  0  0  0
  197.9080  173.9310  141.3110 N   0  0  0  0  0  0  0  0  0  0  0  0
  196.9140  173.4790  141.6980 C   0  0  0  0  0  0  0  0  0  0  0  0
  1  3  1  0  0  0  0
  1  2  1  0  0  0  0
  2 29  1  6  0  0  0
  2  6  1  0  0  0  0
  3  5  1  0  0  0  0
  4 20  1  0  0  0  0
  4  8  1  0  0  0  0
  5  4  1  0  0  0  0
  6  8  1  0  0  0  0
  6 15  1  1  0  0  0
  8  7  2  0  0  0  0
 10  9  1  0  0  0  0
 11 16  1  0  0  0  0
 12 11  1  0  0  0  0
 12  9  2  0  0  0  0
 13 11  2  0  0  0  0
 14 13  1  0  0  0  0
 14 17  1  0  0  0  0
 15 17  1  0  0  0  0
 15 10  2  0  0  0  0
 17 12  1  0  0  0  0
 18 22  1  0  0  0  0
 19 20  1  0  0  0  0
 20 18  2  0  0  0  0
 21 24  1  0  0  0  0
 22 21  2  0  0  0  0
 23 22  1  0  0  0  0
 23 25  1  0  0  0  0
 25 24  2  0  0  0  0
 26 25  1  0  0  0  0
 26 28  2  0  0  0  0
 27 26  1  0  0  0  0
 30 31  3  0  0  0  0
 31 29  1  0  0  0  0
M  END
>  <MODEL>
9

>  <REMARK>
 VINA RESULT:      -5.6      2.676      3.787
  Name = 
  6 active torsions:
  status: ('A' for Active; 'I' for Inactive)
    1  A    between atoms: C_3  and  C_29
    2  A    between atoms: N_5  and  C_14
    3  A    between atoms: N_5  and  C_19
    4  A    between atoms: C_11  and  C_21
    5  A    between atoms: N_18  and  C_28
    6  A    between atoms: C_20  and  C_23
                            x       y       z     vdW  Elec       q    Type
                         _______ _______ _______ _____ _____    ______ ____

>  <TORSDO>
F 6

$$$$
