=
 OpenBabel11042418113D

 25 29  0  0  1  0  0  0  0  0999 V2000
  185.3710  178.5340  144.5760 N   0  0  0  0  0  2  0  0  0  0  0  0
  189.7940  177.4810  142.6190 C   0  0  0  0  0  3  0  0  0  0  0  0
  186.7170  178.1070  144.3200 C   0  0  0  0  0  0  0  0  0  0  0  0
  184.9340  178.5270  145.9830 C   0  0  2  0  0  3  0  0  0  0  0  0
  189.9380  177.1750  145.4460 C   0  0  0  0  0  0  0  0  0  0  0  0
  187.5380  177.8070  145.3480 N   0  0  0  0  0  0  0  0  0  0  0  0
  187.3880  178.0400  143.1060 C   0  0  0  0  0  0  0  0  0  0  0  0
  186.1030  179.0230  146.8420 C   0  0  1  0  0  3  0  0  0  0  0  0
  188.6780  177.6640  143.4320 C   0  0  0  0  0  0  0  0  0  0  0  0
  191.0800  176.9940  144.6440 C   0  0  0  0  0  3  0  0  0  0  0  0
  184.7790  177.0750  146.4320 C   0  0  0  0  0  2  0  0  0  0  0  0
  191.0070  177.1410  143.2430 C   0  0  0  0  0  3  0  0  0  0  0  0
  188.7410  177.5210  144.8060 C   0  0  0  0  0  0  0  0  0  0  0  0
  185.6980  179.2240  148.1650 O   0  0  0  0  0  1  0  0  0  0  0  0
  186.1540  176.6460  146.9560 C   0  0  0  0  0  2  0  0  0  0  0  0
  187.0750  177.8470  146.7410 C   0  0  1  0  0  3  0  0  0  0  0  0
  186.9050  178.3030  141.8220 O   0  0  0  0  0  0  0  0  0  0  0  0
  185.8050  177.6010  141.2630 C   0  0  2  0  0  3  0  0  0  0  0  0
  185.8980  177.6360  139.7530 C   0  0  0  0  0  2  0  0  0  0  0  0
  183.5430  178.0180  140.3850 C   0  0  0  0  0  1  0  0  0  0  0  0
  184.9490  178.5700  140.4750 C   0  0  1  0  0  3  0  0  0  0  0  0
  190.0280  177.0190  146.8300 O   0  0  0  0  0  0  0  0  0  0  0  0
  191.2700  175.5450  148.1080 O   0  0  0  0  0  0  0  0  0  0  0  0
  190.2300  175.7750  147.4340 C   0  0  0  0  0  0  0  0  0  0  0  0
  189.2460  174.7590  147.2920 N   0  0  0  0  0  1  0  0  0  0  0  0
  1  4  1  0  0  0  0
  2 12  2  0  0  0  0
  2  9  1  0  0  0  0
  3  1  1  0  0  0  0
  3  6  1  0  0  0  0
  4 11  1  1  0  0  0
  4  8  1  0  0  0  0
  5 22  1  0  0  0  0
  6 16  1  0  0  0  0
  7  9  1  0  0  0  0
  7  3  2  0  0  0  0
  8 14  1  1  0  0  0
  9 13  2  0  0  0  0
 10  5  2  0  0  0  0
 11 15  1  0  0  0  0
 12 10  1  0  0  0  0
 13  6  1  0  0  0  0
 13  5  1  0  0  0  0
 16  8  1  0  0  0  0
 16 15  1  6  0  0  0
 17  7  1  0  0  0  0
 18 17  1  1  0  0  0
 19 21  1  0  0  0  0
 19 18  1  0  0  0  0
 21 20  1  6  0  0  0
 21 18  1  0  0  0  0
 22 24  1  0  0  0  0
 24 23  2  0  0  0  0
 25 24  1  0  0  0  0
M  END
>  <MODEL>
1

>  <REMARK>
 VINA RESULT:      -7.4      0.000      0.000
  Name = 
  4 active torsions:
  status: ('A' for Active; 'I' for Inactive)
    1  A    between atoms: O_4  and  C_9
    2  A    between atoms: O_4  and  C_20
    3  A    between atoms: C_7  and  O_21
    4  A    between atoms: C_16  and  O_21
                            x       y       z     vdW  Elec       q    Type
                         _______ _______ _______ _____ _____    ______ ____

>  <TORSDO>
F 4

$$$$
=
 OpenBabel11042418113D

 25 29  0  0  1  0  0  0  0  0999 V2000
  185.8070  177.0990  143.4000 N   0  0  0  0  0  2  0  0  0  0  0  0
  188.5470  175.5210  147.2090 C   0  0  0  0  0  3  0  0  0  0  0  0
  186.8590  176.6980  144.2900 C   0  0  0  0  0  0  0  0  0  0  0  0
  186.1820  177.3160  141.9920 C   0  0  2  0  0  3  0  0  0  0  0  0
  190.1770  175.6190  144.8770 C   0  0  0  0  0  0  0  0  0  0  0  0
  188.0970  176.4560  143.8080 N   0  0  0  0  0  0  0  0  0  0  0  0
  186.7830  176.4060  145.6450 C   0  0  0  0  0  0  0  0  0  0  0  0
  187.1840  176.2250  141.5980 C   0  0  1  0  0  3  0  0  0  0  0  0
  188.0520  175.9790  145.9900 C   0  0  0  0  0  0  0  0  0  0  0  0
  190.6940  175.1450  146.0960 C   0  0  0  0  0  3  0  0  0  0  0  0
  187.0220  178.5900  141.9080 C   0  0  0  0  0  2  0  0  0  0  0  0
  189.8870  175.1000  147.2520 C   0  0  0  0  0  3  0  0  0  0  0  0
  188.8360  176.0260  144.8520 C   0  0  0  0  0  0  0  0  0  0  0  0
  187.4370  176.2540  140.2230 O   0  0  0  0  0  1  0  0  0  0  0  0
  188.4740  178.1530  142.1280 C   0  0  0  0  0  2  0  0  0  0  0  0
  188.4230  176.6480  142.3890 C   0  0  1  0  0  3  0  0  0  0  0  0
  185.6810  176.4940  146.5000 O   0  0  0  0  0  0  0  0  0  0  0  0
  185.5480  177.5260  147.4650 C   0  0  2  0  0  3  0  0  0  0  0  0
  184.4550  178.4810  147.0360 C   0  0  0  0  0  2  0  0  0  0  0  0
  186.3390  179.8150  147.9100 C   0  0  0  0  0  1  0  0  0  0  0  0
  185.9090  178.8500  146.8260 C   0  0  1  0  0  3  0  0  0  0  0  0
  190.9920  175.6620  143.7440 O   0  0  0  0  0  0  0  0  0  0  0  0
  191.6850  177.8630  143.6030 O   0  0  0  0  0  0  0  0  0  0  0  0
  191.9760  176.6380  143.5640 C   0  0  0  0  0  0  0  0  0  0  0  0
  193.3230  176.2410  143.3420 N   0  0  0  0  0  1  0  0  0  0  0  0
  1  3  1  0  0  0  0
  2 12  1  0  0  0  0
  3  7  2  0  0  0  0
  4 11  1  1  0  0  0
  4  1  1  0  0  0  0
  5 10  1  0  0  0  0
  6  3  1  0  0  0  0
  6 13  1  0  0  0  0
  7  9  1  0  0  0  0
  7 17  1  0  0  0  0
  8 14  1  6  0  0  0
  8  4  1  0  0  0  0
  8 16  1  0  0  0  0
  9  2  2  0  0  0  0
 10 12  2  0  0  0  0
 11 15  1  0  0  0  0
 13  5  2  0  0  0  0
 13  9  1  0  0  0  0
 16 15  1  1  0  0  0
 16  6  1  0  0  0  0
 18 17  1  6  0  0  0
 19 18  1  0  0  0  0
 21 19  1  0  0  0  0
 21 18  1  0  0  0  0
 21 20  1  1  0  0  0
 22  5  1  0  0  0  0
 24 23  2  0  0  0  0
 24 22  1  0  0  0  0
 25 24  1  0  0  0  0
M  END
>  <MODEL>
2

>  <REMARK>
 VINA RESULT:      -7.1      2.209      4.983
  Name = 
  4 active torsions:
  status: ('A' for Active; 'I' for Inactive)
    1  A    between atoms: O_4  and  C_9
    2  A    between atoms: O_4  and  C_20
    3  A    between atoms: C_7  and  O_21
    4  A    between atoms: C_16  and  O_21
                            x       y       z     vdW  Elec       q    Type
                         _______ _______ _______ _____ _____    ______ ____

>  <TORSDO>
F 4

$$$$
=
 OpenBabel11042418113D

 25 29  0  0  1  0  0  0  0  0999 V2000
  189.1430  177.1580  146.0930 N   0  0  0  0  0  2  0  0  0  0  0  0
  187.6020  176.4340  141.4450 C   0  0  0  0  0  3  0  0  0  0  0  0
  188.8360  176.6410  144.7910 C   0  0  0  0  0  0  0  0  0  0  0  0
  190.0630  176.3570  146.9200 C   0  0  2  0  0  3  0  0  0  0  0  0
  189.3750  174.3280  142.1690 C   0  0  0  0  0  0  0  0  0  0  0  0
  189.4450  175.5220  144.3460 N   0  0  0  0  0  0  0  0  0  0  0  0
  188.0280  177.1960  143.8070 C   0  0  0  0  0  0  0  0  0  0  0  0
  191.1610  175.8060  146.0030 C   0  0  1  0  0  3  0  0  0  0  0  0
  188.1550  176.3500  142.7210 C   0  0  0  0  0  0  0  0  0  0  0  0
  188.8340  174.3980  140.8720 C   0  0  0  0  0  3  0  0  0  0  0  0
  189.3310  175.0920  147.3660 C   0  0  0  0  0  2  0  0  0  0  0  0
  187.9530  175.4400  140.5160 C   0  0  0  0  0  3  0  0  0  0  0  0
  189.0200  175.3320  143.0790 C   0  0  0  0  0  0  0  0  0  0  0  0
  192.1730  175.1950  146.7510 O   0  0  0  0  0  1  0  0  0  0  0  0
  189.5700  174.0550  146.2640 C   0  0  0  0  0  2  0  0  0  0  0  0
  190.3850  174.7700  145.1870 C   0  0  1  0  0  3  0  0  0  0  0  0
  187.2570  178.3610  143.8600 O   0  0  0  0  0  0  0  0  0  0  0  0
  185.8780  178.3450  144.1920 C   0  0  2  0  0  3  0  0  0  0  0  0
  185.3510  179.7640  144.2290 C   0  0  0  0  0  2  0  0  0  0  0  0
  184.4010  178.5430  146.1530 C   0  0  0  0  0  1  0  0  0  0  0  0
  185.6820  179.0450  145.5210 C   0  0  1  0  0  3  0  0  0  0  0  0
  190.2410  173.2860  142.5070 O   0  0  0  0  0  0  0  0  0  0  0  0
  188.8970  171.7750  143.6290 O   0  0  0  0  0  0  0  0  0  0  0  0
  189.7900  171.9890  142.7660 C   0  0  0  0  0  0  0  0  0  0  0  0
  190.3410  170.8980  142.0390 N   0  0  0  0  0  1  0  0  0  0  0  0
  1  4  1  0  0  0  0
  2  9  1  0  0  0  0
  3  1  1  0  0  0  0
  4 11  1  6  0  0  0
  5 22  1  0  0  0  0
  5 13  1  0  0  0  0
  6  3  1  0  0  0  0
  6 16  1  0  0  0  0
  7 17  1  0  0  0  0
  7  3  2  0  0  0  0
  8 14  1  1  0  0  0
  8  4  1  0  0  0  0
  9 13  2  0  0  0  0
  9  7  1  0  0  0  0
 10  5  2  0  0  0  0
 12 10  1  0  0  0  0
 12  2  2  0  0  0  0
 13  6  1  0  0  0  0
 15 11  1  0  0  0  0
 16  8  1  0  0  0  0
 16 15  1  1  0  0  0
 18 17  1  6  0  0  0
 18 19  1  0  0  0  0
 18 21  1  0  0  0  0
 19 21  1  0  0  0  0
 21 20  1  1  0  0  0
 22 24  1  0  0  0  0
 24 23  2  0  0  0  0
 25 24  1  0  0  0  0
M  END
>  <MODEL>
3

>  <REMARK>
 VINA RESULT:      -7.0      3.054      4.760
  Name = 
  4 active torsions:
  status: ('A' for Active; 'I' for Inactive)
    1  A    between atoms: O_4  and  C_9
    2  A    between atoms: O_4  and  C_20
    3  A    between atoms: C_7  and  O_21
    4  A    between atoms: C_16  and  O_21
                            x       y       z     vdW  Elec       q    Type
                         _______ _______ _______ _____ _____    ______ ____

>  <TORSDO>
F 4

$$$$
=
 OpenBabel11042418113D

 25 29  0  0  1  0  0  0  0  0999 V2000
  186.5230  176.9330  147.4730 N   0  0  0  0  0  2  0  0  0  0  0  0
  189.3990  175.6910  143.6400 C   0  0  0  0  0  3  0  0  0  0  0  0
  187.2120  176.8450  146.2170 C   0  0  0  0  0  0  0  0  0  0  0  0
  185.3990  177.8840  147.5420 C   0  0  2  0  0  3  0  0  0  0  0  0
  187.4980  177.6280  142.7790 C   0  0  0  0  0  0  0  0  0  0  0  0
  186.7690  177.5460  145.1520 N   0  0  0  0  0  0  0  0  0  0  0  0
  188.2770  176.0250  145.8690 C   0  0  0  0  0  0  0  0  0  0  0  0
  184.6310  177.8040  146.2180 C   0  0  1  0  0  3  0  0  0  0  0  0
  188.4870  176.2630  144.5230 C   0  0  0  0  0  0  0  0  0  0  0  0
  188.4050  177.0560  141.8680 C   0  0  0  0  0  3  0  0  0  0  0  0
  185.9670  179.3030  147.5170 C   0  0  0  0  0  2  0  0  0  0  0  0
  189.3490  176.1000  142.2960 C   0  0  0  0  0  3  0  0  0  0  0  0
  187.5580  177.2020  144.1130 C   0  0  0  0  0  0  0  0  0  0  0  0
  183.4430  178.5380  146.2860 O   0  0  0  0  0  1  0  0  0  0  0  0
  186.0760  179.6870  146.0370 C   0  0  0  0  0  2  0  0  0  0  0  0
  185.6210  178.4570  145.2520 C   0  0  1  0  0  3  0  0  0  0  0  0
  188.9910  175.1300  146.6700 O   0  0  0  0  0  0  0  0  0  0  0  0
  190.4040  175.0130  146.6060 C   0  0  2  0  0  3  0  0  0  0  0  0
  190.9940  175.2730  147.9760 C   0  0  0  0  0  2  0  0  0  0  0  0
  192.4070  176.4140  146.3030 C   0  0  0  0  0  1  0  0  0  0  0  0
  191.0250  176.3580  146.9200 C   0  0  1  0  0  3  0  0  0  0  0  0
  186.5740  178.5780  142.3390 O   0  0  0  0  0  0  0  0  0  0  0  0
  185.5850  178.2640  140.2720 O   0  0  0  0  0  0  0  0  0  0  0  0
  185.4850  178.2470  141.5280 C   0  0  0  0  0  0  0  0  0  0  0  0
  184.2510  177.8780  142.1300 N   0  0  0  0  0  1  0  0  0  0  0  0
  1  4  1  0  0  0  0
  2  9  1  0  0  0  0
  3  1  1  0  0  0  0
  4 11  1  6  0  0  0
  5 13  1  0  0  0  0
  6 16  1  0  0  0  0
  6  3  1  0  0  0  0
  7  3  2  0  0  0  0
  7 17  1  0  0  0  0
  8 14  1  1  0  0  0
  8  4  1  0  0  0  0
  9  7  1  0  0  0  0
 10 12  1  0  0  0  0
 10  5  2  0  0  0  0
 12  2  2  0  0  0  0
 13  9  2  0  0  0  0
 13  6  1  0  0  0  0
 15 11  1  0  0  0  0
 16 15  1  1  0  0  0
 16  8  1  0  0  0  0
 18 17  1  1  0  0  0
 18 21  1  0  0  0  0
 18 19  1  0  0  0  0
 21 20  1  6  0  0  0
 21 19  1  0  0  0  0
 22  5  1  0  0  0  0
 23 24  2  0  0  0  0
 24 25  1  0  0  0  0
 24 22  1  0  0  0  0
M  END
>  <MODEL>
4

>  <REMARK>
 VINA RESULT:      -6.9      1.739      5.533
  Name = 
  4 active torsions:
  status: ('A' for Active; 'I' for Inactive)
    1  A    between atoms: O_4  and  C_9
    2  A    between atoms: O_4  and  C_20
    3  A    between atoms: C_7  and  O_21
    4  A    between atoms: C_16  and  O_21
                            x       y       z     vdW  Elec       q    Type
                         _______ _______ _______ _____ _____    ______ ____

>  <TORSDO>
F 4

$$$$
=
 OpenBabel11042418113D

 25 29  0  0  1  0  0  0  0  0999 V2000
  189.6310  176.7640  143.1980 N   0  0  0  0  0  2  0  0  0  0  0  0
  187.6360  177.8970  147.5850 C   0  0  0  0  0  3  0  0  0  0  0  0
  188.7600  177.0260  144.3080 C   0  0  0  0  0  0  0  0  0  0  0  0
  188.9870  176.5930  141.8830 C   0  0  2  0  0  3  0  0  0  0  0  0
  185.5680  177.7860  145.6310 C   0  0  0  0  0  0  0  0  0  0  0  0
  187.4350  177.1880  144.1060 N   0  0  0  0  0  0  0  0  0  0  0  0
  189.0950  177.2500  145.6370 C   0  0  0  0  0  0  0  0  0  0  0  0
  187.8500  177.6150  141.7780 C   0  0  1  0  0  3  0  0  0  0  0  0
  187.8980  177.5490  146.2620 C   0  0  0  0  0  0  0  0  0  0  0  0
  185.2830  178.1490  146.9600 C   0  0  0  0  0  3  0  0  0  0  0  0
  188.2420  175.2590  141.8820 C   0  0  0  0  0  2  0  0  0  0  0  0
  186.3070  178.1990  147.9280 C   0  0  0  0  0  3  0  0  0  0  0  0
  186.9000  177.4960  145.3060 C   0  0  0  0  0  0  0  0  0  0  0  0
  187.3190  177.6390  140.4850 O   0  0  0  0  0  1  0  0  0  0  0  0
  186.8400  175.5580  142.4220 C   0  0  0  0  0  2  0  0  0  0  0  0
  186.8360  177.0460  142.7730 C   0  0  1  0  0  3  0  0  0  0  0  0
  190.3540  177.2100  146.2420 O   0  0  0  0  0  0  0  0  0  0  0  0
  191.1460  176.0320  146.2730 C   0  0  2  0  0  3  0  0  0  0  0  0
  191.4240  175.6490  147.7110 C   0  0  0  0  0  2  0  0  0  0  0  0
  193.5050  175.3410  146.4190 C   0  0  0  0  0  1  0  0  0  0  0  0
  192.4880  176.3560  146.8960 C   0  0  1  0  0  3  0  0  0  0  0  0
  184.5410  177.7360  144.6870 O   0  0  0  0  0  0  0  0  0  0  0  0
  184.6690  179.9700  144.1050 O   0  0  0  0  0  0  0  0  0  0  0  0
  184.2320  178.8150  143.8550 C   0  0  0  0  0  0  0  0  0  0  0  0
  183.4210  178.6040  142.7060 N   0  0  0  0  0  1  0  0  0  0  0  0
  1  3  1  0  0  0  0
  2 12  1  0  0  0  0
  3  7  2  0  0  0  0
  4 11  1  1  0  0  0
  4  1  1  0  0  0  0
  5 10  1  0  0  0  0
  6  3  1  0  0  0  0
  6 13  1  0  0  0  0
  7 17  1  0  0  0  0
  7  9  1  0  0  0  0
  8 14  1  6  0  0  0
  8  4  1  0  0  0  0
  8 16  1  0  0  0  0
  9  2  2  0  0  0  0
 10 12  2  0  0  0  0
 11 15  1  0  0  0  0
 13  5  2  0  0  0  0
 13  9  1  0  0  0  0
 16 15  1  6  0  0  0
 16  6  1  0  0  0  0
 18 17  1  1  0  0  0
 18 21  1  0  0  0  0
 18 19  1  0  0  0  0
 21 20  1  6  0  0  0
 21 19  1  0  0  0  0
 22  5  1  0  0  0  0
 24 23  2  0  0  0  0
 24 22  1  0  0  0  0
 25 24  1  0  0  0  0
M  END
>  <MODEL>
5

>  <REMARK>
 VINA RESULT:      -6.8      2.151      6.536
  Name = 
  4 active torsions:
  status: ('A' for Active; 'I' for Inactive)
    1  A    between atoms: O_4  and  C_9
    2  A    between atoms: O_4  and  C_20
    3  A    between atoms: C_7  and  O_21
    4  A    between atoms: C_16  and  O_21
                            x       y       z     vdW  Elec       q    Type
                         _______ _______ _______ _____ _____    ______ ____

>  <TORSDO>
F 4

$$$$
=
 OpenBabel11042418113D

 25 29  0  0  1  0  0  0  0  0999 V2000
  190.4150  176.7720  147.0190 N   0  0  0  0  0  2  0  0  0  0  0  0
  186.6900  176.4380  143.7760 C   0  0  0  0  0  3  0  0  0  0  0  0
  189.5600  176.4920  145.9020 C   0  0  0  0  0  0  0  0  0  0  0  0
  191.8390  176.4290  146.8610 C   0  0  2  0  0  3  0  0  0  0  0  0
  189.0830  175.5250  142.5320 C   0  0  0  0  0  0  0  0  0  0  0  0
  190.0840  176.0200  144.7500 N   0  0  0  0  0  0  0  0  0  0  0  0
  188.1990  176.7330  145.7710 C   0  0  0  0  0  0  0  0  0  0  0  0
  192.2560  176.7910  145.4310 C   0  0  1  0  0  3  0  0  0  0  0  0
  187.8960  176.3710  144.4710 C   0  0  0  0  0  0  0  0  0  0  0  0
  187.8770  175.5920  141.8100 C   0  0  0  0  0  3  0  0  0  0  0  0
  191.9720  174.9060  146.8750 C   0  0  0  0  0  2  0  0  0  0  0  0
  186.6910  176.0410  142.4280 C   0  0  0  0  0  3  0  0  0  0  0  0
  189.0630  175.9320  143.8730 C   0  0  0  0  0  0  0  0  0  0  0  0
  193.6390  176.6700  145.2700 O   0  0  0  0  0  1  0  0  0  0  0  0
  191.8010  174.4540  145.4210 C   0  0  0  0  0  2  0  0  0  0  0  0
  191.5170  175.7250  144.6200 C   0  0  1  0  0  3  0  0  0  0  0  0
  187.3050  177.2450  146.7150 O   0  0  0  0  0  0  0  0  0  0  0  0
  186.4070  178.3030  146.4160 C   0  0  2  0  0  3  0  0  0  0  0  0
  185.6240  178.6660  147.6600 C   0  0  0  0  0  2  0  0  0  0  0  0
  184.0660  178.6660  145.7450 C   0  0  0  0  0  1  0  0  0  0  0  0
  184.9860  177.8080  146.5870 C   0  0  1  0  0  3  0  0  0  0  0  0
  190.2450  175.0720  141.9060 O   0  0  0  0  0  0  0  0  0  0  0  0
  190.5870  173.4550  140.2890 O   0  0  0  0  0  0  0  0  0  0  0  0
  190.4130  173.7450  141.5030 C   0  0  0  0  0  0  0  0  0  0  0  0
  190.3950  172.7100  142.4770 N   0  0  0  0  0  1  0  0  0  0  0  0
  2  9  1  0  0  0  0
  3  1  1  0  0  0  0
  4 11  1  6  0  0  0
  4  1  1  0  0  0  0
  5 13  1  0  0  0  0
  6  3  1  0  0  0  0
  7  3  2  0  0  0  0
  7 17  1  0  0  0  0
  8 14  1  1  0  0  0
  8  4  1  0  0  0  0
  9  7  1  0  0  0  0
 10 12  1  0  0  0  0
 10  5  2  0  0  0  0
 12  2  2  0  0  0  0
 13  9  2  0  0  0  0
 13  6  1  0  0  0  0
 15 11  1  0  0  0  0
 16  6  1  0  0  0  0
 16 15  1  1  0  0  0
 16  8  1  0  0  0  0
 18 21  1  0  0  0  0
 18 17  1  1  0  0  0
 18 19  1  0  0  0  0
 21 20  1  6  0  0  0
 21 19  1  0  0  0  0
 22  5  1  0  0  0  0
 23 24  2  0  0  0  0
 24 22  1  0  0  0  0
 24 25  1  0  0  0  0
M  END
>  <MODEL>
6

>  <REMARK>
 VINA RESULT:      -6.5      2.765      5.602
  Name = 
  4 active torsions:
  status: ('A' for Active; 'I' for Inactive)
    1  A    between atoms: O_4  and  C_9
    2  A    between atoms: O_4  and  C_20
    3  A    between atoms: C_7  and  O_21
    4  A    between atoms: C_16  and  O_21
                            x       y       z     vdW  Elec       q    Type
                         _______ _______ _______ _____ _____    ______ ____

>  <TORSDO>
F 4

$$$$
=
 OpenBabel11042418113D

 25 29  0  0  1  0  0  0  0  0999 V2000
  187.7810  176.2520  147.0960 N   0  0  0  0  0  2  0  0  0  0  0  0
  189.8690  174.3710  143.0210 C   0  0  0  0  0  3  0  0  0  0  0  0
  188.1700  175.9160  145.7560 C   0  0  0  0  0  0  0  0  0  0  0  0
  186.5640  177.0700  147.2430 C   0  0  2  0  0  3  0  0  0  0  0  0
  187.5340  175.8210  142.2770 C   0  0  0  0  0  0  0  0  0  0  0  0
  187.3890  176.2740  144.7150 N   0  0  0  0  0  0  0  0  0  0  0  0
  189.2450  175.1470  145.3340 C   0  0  0  0  0  0  0  0  0  0  0  0
  185.5380  176.5780  146.2160 C   0  0  1  0  0  3  0  0  0  0  0  0
  189.1020  175.0540  143.9620 C   0  0  0  0  0  0  0  0  0  0  0  0
  188.2900  175.1310  141.3120 C   0  0  0  0  0  3  0  0  0  0  0  0
  186.8740  178.4860  146.7560 C   0  0  0  0  0  2  0  0  0  0  0  0
  189.4490  174.4160  141.6810 C   0  0  0  0  0  3  0  0  0  0  0  0
  187.9650  175.7580  143.6090 C   0  0  0  0  0  0  0  0  0  0  0  0
  184.2940  177.1810  146.4270 O   0  0  0  0  0  1  0  0  0  0  0  0
  186.5790  178.4890  145.2520 C   0  0  0  0  0  2  0  0  0  0  0  0
  186.1630  177.0590  144.9060 C   0  0  1  0  0  3  0  0  0  0  0  0
  190.2590  174.5630  146.0990 O   0  0  0  0  0  0  0  0  0  0  0  0
  191.6160  174.9650  145.9980 C   0  0  2  0  0  3  0  0  0  0  0  0
  191.9590  175.8780  147.1550 C   0  0  0  0  0  2  0  0  0  0  0  0
  192.9810  176.8120  145.1110 C   0  0  0  0  0  1  0  0  0  0  0  0
  191.6730  176.4630  145.7870 C   0  0  1  0  0  3  0  0  0  0  0  0
  186.3940  176.5290  141.8930 O   0  0  0  0  0  0  0  0  0  0  0  0
  186.6580  178.8240  141.8000 O   0  0  0  0  0  0  0  0  0  0  0  0
  186.4600  177.7370  141.1940 C   0  0  0  0  0  0  0  0  0  0  0  0
  186.3090  177.7370  139.7810 N   0  0  0  0  0  1  0  0  0  0  0  0
  1  4  1  0  0  0  0
  2  9  1  0  0  0  0
  3  1  1  0  0  0  0
  4 11  1  6  0  0  0
  5 13  1  0  0  0  0
  6 16  1  0  0  0  0
  6  3  1  0  0  0  0
  7  3  2  0  0  0  0
  7 17  1  0  0  0  0
  8 14  1  1  0  0  0
  8  4  1  0  0  0  0
  9  7  1  0  0  0  0
 10 12  1  0  0  0  0
 10  5  2  0  0  0  0
 12  2  2  0  0  0  0
 13  9  2  0  0  0  0
 13  6  1  0  0  0  0
 15 11  1  0  0  0  0
 16 15  1  1  0  0  0
 16  8  1  0  0  0  0
 18 17  1  1  0  0  0
 18 19  1  0  0  0  0
 21 20  1  6  0  0  0
 21 18  1  0  0  0  0
 21 19  1  0  0  0  0
 22  5  1  0  0  0  0
 24 23  2  0  0  0  0
 24 22  1  0  0  0  0
 25 24  1  0  0  0  0
M  END
>  <MODEL>
7

>  <REMARK>
 VINA RESULT:      -6.5      2.220      5.632
  Name = 
  4 active torsions:
  status: ('A' for Active; 'I' for Inactive)
    1  A    between atoms: O_4  and  C_9
    2  A    between atoms: O_4  and  C_20
    3  A    between atoms: C_7  and  O_21
    4  A    between atoms: C_16  and  O_21
                            x       y       z     vdW  Elec       q    Type
                         _______ _______ _______ _____ _____    ______ ____

>  <TORSDO>
F 4

$$$$
=
 OpenBabel11042418113D

 25 29  0  0  1  0  0  0  0  0999 V2000
  190.1430  174.7720  144.1520 N   0  0  0  0  0  2  0  0  0  0  0  0
  187.0640  177.3530  141.2590 C   0  0  0  0  0  3  0  0  0  0  0  0
  189.2050  175.7050  143.5950 C   0  0  0  0  0  0  0  0  0  0  0  0
  190.3190  174.8080  145.6140 C   0  0  2  0  0  3  0  0  0  0  0  0
  186.6620  178.1370  143.9670 C   0  0  0  0  0  0  0  0  0  0  0  0
  188.4760  176.4990  144.4090 N   0  0  0  0  0  0  0  0  0  0  0  0
  188.8310  175.8690  142.2690 C   0  0  0  0  0  0  0  0  0  0  0  0
  188.9410  175.0270  146.2500 C   0  0  1  0  0  3  0  0  0  0  0  0
  187.8320  176.8250  142.2950 C   0  0  0  0  0  0  0  0  0  0  0  0
  185.8700  178.6760  142.9380 C   0  0  0  0  0  3  0  0  0  0  0  0
  191.0640  176.0930  145.9770 C   0  0  0  0  0  2  0  0  0  0  0  0
  186.0720  178.2900  141.5960 C   0  0  0  0  0  3  0  0  0  0  0  0
  187.6410  177.1980  143.6130 C   0  0  0  0  0  0  0  0  0  0  0  0
  189.0050  174.8810  147.6390 O   0  0  0  0  0  1  0  0  0  0  0  0
  189.9870  177.1640  146.1760 C   0  0  0  0  0  2  0  0  0  0  0  0
  188.6560  176.4800  145.8660 C   0  0  1  0  0  3  0  0  0  0  0  0
  189.3190  175.2180  141.1330 O   0  0  0  0  0  0  0  0  0  0  0  0
  188.5470  174.2760  140.4050 C   0  0  2  0  0  3  0  0  0  0  0  0
  188.2820  173.0630  141.2720 C   0  0  0  0  0  2  0  0  0  0  0  0
  188.8350  172.2750  138.9990 C   0  0  0  0  0  1  0  0  0  0  0  0
  189.3610  173.0140  140.2100 C   0  0  1  0  0  3  0  0  0  0  0  0
  186.4530  178.5350  145.2890 O   0  0  0  0  0  0  0  0  0  0  0  0
  184.3830  179.0410  146.1880 O   0  0  0  0  0  0  0  0  0  0  0  0
  185.2990  178.1950  146.0010 C   0  0  0  0  0  0  0  0  0  0  0  0
  185.1550  176.8770  146.5130 N   0  0  0  0  0  1  0  0  0  0  0  0
  1  4  1  0  0  0  0
  2 12  2  0  0  0  0
  2  9  1  0  0  0  0
  3  1  1  0  0  0  0
  3  6  1  0  0  0  0
  4 11  1  6  0  0  0
  4  8  1  0  0  0  0
  5 22  1  0  0  0  0
  6 16  1  0  0  0  0
  7  9  1  0  0  0  0
  7  3  2  0  0  0  0
  8 14  1  1  0  0  0
  9 13  2  0  0  0  0
 10  5  2  0  0  0  0
 11 15  1  0  0  0  0
 12 10  1  0  0  0  0
 13  5  1  0  0  0  0
 13  6  1  0  0  0  0
 16 15  1  6  0  0  0
 16  8  1  0  0  0  0
 17  7  1  0  0  0  0
 18 17  1  1  0  0  0
 18 19  1  0  0  0  0
 21 20  1  6  0  0  0
 21 18  1  0  0  0  0
 21 19  1  0  0  0  0
 22 24  1  0  0  0  0
 24 23  2  0  0  0  0
 24 25  1  0  0  0  0
M  END
>  <MODEL>
8

>  <REMARK>
 VINA RESULT:      -6.5      2.766      4.986
  Name = 
  4 active torsions:
  status: ('A' for Active; 'I' for Inactive)
    1  A    between atoms: O_4  and  C_9
    2  A    between atoms: O_4  and  C_20
    3  A    between atoms: C_7  and  O_21
    4  A    between atoms: C_16  and  O_21
                            x       y       z     vdW  Elec       q    Type
                         _______ _______ _______ _____ _____    ______ ____

>  <TORSDO>
F 4

$$$$
=
 OpenBabel11042418113D

 25 29  0  0  1  0  0  0  0  0999 V2000
  187.6100  175.1380  142.2790 N   0  0  0  0  0  2  0  0  0  0  0  0
  188.9740  177.5460  146.3840 C   0  0  0  0  0  3  0  0  0  0  0  0
  188.2930  175.6580  143.4290 C   0  0  0  0  0  0  0  0  0  0  0  0
  188.2320  173.9810  141.6110 C   0  0  2  0  0  3  0  0  0  0  0  0
  190.8270  175.4410  145.8880 C   0  0  0  0  0  0  0  0  0  0  0  0
  189.3970  175.0390  143.8980 N   0  0  0  0  0  0  0  0  0  0  0  0
  187.9220  176.7120  144.2530 C   0  0  0  0  0  0  0  0  0  0  0  0
  188.7850  173.0510  142.6960 C   0  0  1  0  0  3  0  0  0  0  0  0
  188.8690  176.7280  145.2610 C   0  0  0  0  0  0  0  0  0  0  0  0
  190.9470  176.2500  147.0330 C   0  0  0  0  0  3  0  0  0  0  0  0
  189.4990  174.4600  140.9010 C   0  0  0  0  0  2  0  0  0  0  0  0
  190.0310  177.2950  147.2750 C   0  0  0  0  0  3  0  0  0  0  0  0
  189.7620  175.7010  145.0150 C   0  0  0  0  0  0  0  0  0  0  0  0
  189.2190  171.8430  142.1420 O   0  0  0  0  0  1  0  0  0  0  0  0
  190.6270  174.3500  141.9320 C   0  0  0  0  0  2  0  0  0  0  0  0
  189.9670  173.8650  143.2230 C   0  0  1  0  0  3  0  0  0  0  0  0
  186.8300  177.5750  144.1340 O   0  0  0  0  0  0  0  0  0  0  0  0
  185.6370  177.4020  144.8830 C   0  0  2  0  0  3  0  0  0  0  0  0
  184.6010  178.4060  144.4230 C   0  0  0  0  0  2  0  0  0  0  0  0
  184.5160  178.2910  146.8880 C   0  0  0  0  0  1  0  0  0  0  0  0
  185.3800  178.6520  145.6990 C   0  0  1  0  0  3  0  0  0  0  0  0
  191.7460  174.4150  145.6610 O   0  0  0  0  0  0  0  0  0  0  0  0
  194.0300  174.0720  145.7630 O   0  0  0  0  0  0  0  0  0  0  0  0
  193.0520  174.6590  145.2280 C   0  0  0  0  0  0  0  0  0  0  0  0
  193.2770  175.5760  144.1650 N   0  0  0  0  0  1  0  0  0  0  0  0
  1  3  1  0  0  0  0
  2 12  1  0  0  0  0
  3  6  1  0  0  0  0
  3  7  2  0  0  0  0
  4 11  1  6  0  0  0
  4  1  1  0  0  0  0
  4  8  1  0  0  0  0
  5 10  1  0  0  0  0
  6 13  1  0  0  0  0
  7  9  1  0  0  0  0
  8 14  1  6  0  0  0
  8 16  1  0  0  0  0
  9  2  2  0  0  0  0
 10 12  2  0  0  0  0
 11 15  1  0  0  0  0
 13  9  1  0  0  0  0
 13  5  2  0  0  0  0
 16 15  1  6  0  0  0
 16  6  1  0  0  0  0
 17  7  1  0  0  0  0
 18 17  1  6  0  0  0
 18 21  1  0  0  0  0
 19 18  1  0  0  0  0
 19 21  1  0  0  0  0
 21 20  1  1  0  0  0
 22  5  1  0  0  0  0
 24 22  1  0  0  0  0
 24 23  2  0  0  0  0
 25 24  1  0  0  0  0
M  END
>  <MODEL>
9

>  <REMARK>
 VINA RESULT:      -6.3      3.055      5.061
  Name = 
  4 active torsions:
  status: ('A' for Active; 'I' for Inactive)
    1  A    between atoms: O_4  and  C_9
    2  A    between atoms: O_4  and  C_20
    3  A    between atoms: C_7  and  O_21
    4  A    between atoms: C_16  and  O_21
                            x       y       z     vdW  Elec       q    Type
                         _______ _______ _______ _____ _____    ______ ____

>  <TORSDO>
F 4

$$$$
