=
 OpenBabel11042416223D

 38 44  0  0  1  0  0  0  0  0999 V2000
  197.2010  171.9640  145.7710 C   0  0  0  0  0  1  0  0  0  0  0  0
  192.8830  174.3140  145.5280 C   0  0  1  0  0  3  0  0  0  0  0  0
  193.0610  173.5140  144.2290 C   0  0  0  0  0  2  0  0  0  0  0  0
  195.4840  173.4700  144.8330 C   0  0  0  0  0  0  0  0  0  0  0  0
  194.9740  171.8810  143.3330 C   0  0  0  0  0  0  0  0  0  0  0  0
  196.2430  171.7040  143.5520 N   0  0  0  0  0  0  0  0  0  0  0  0
  196.7140  172.6830  144.5280 C   0  0  2  0  0  3  0  0  0  0  0  0
  195.3670  174.5820  145.8350 C   0  0  0  0  0  2  0  0  0  0  0  0
  194.0260  175.3180  145.7070 C   0  0  0  0  0  2  0  0  0  0  0  0
  194.4630  172.9750  144.1480 C   0  0  0  0  0  0  0  0  0  0  0  0
  194.4910  171.1380  141.0770 C   0  0  0  0  0  3  0  0  0  0  0  0
  191.4240  171.3100  140.4530 C   0  0  0  0  0  0  0  0  0  0  0  0
  191.1790  170.8960  141.7050 C   0  0  0  0  0  0  0  0  0  0  0  0
  193.2540  170.0440  142.8730 C   0  0  0  0  0  3  0  0  0  0  0  0
  193.7770  170.3080  140.0690 C   0  0  0  0  0  2  0  0  0  0  0  0
  191.9590  169.9650  142.5470 C   0  0  0  0  0  3  0  0  0  0  0  0
  192.5710  170.9990  139.6500 N   0  0  0  0  0  2  0  0  0  0  0  0
  190.1330  172.3250  139.7470 S   0  0  0  0  0  0  0  0  0  0  0  0
  189.8700  171.3780  142.2330 C   0  0  0  0  0  2  0  0  0  0  0  0
  194.2110  171.0530  142.3790 C   0  0  0  0  0  0  0  0  0  0  0  0
  189.5090  172.6140  141.4270 C   0  0  0  0  0  2  0  0  0  0  0  0
  189.0320  176.1380  145.6900 C   0  0  2  0  0  3  0  0  0  0  0  0
  190.7550  174.7450  146.9950 C   0  0  1  0  0  3  0  0  0  0  0  0
  191.4230  175.4390  148.1730 C   0  0  0  0  0  1  0  0  0  0  0  0
  191.5070  176.4510  145.2240 C   0  0  0  0  0  2  0  0  0  0  0  0
  189.2950  175.2200  146.8960 C   0  0  0  0  0  2  0  0  0  0  0  0
  190.1660  177.1480  145.4990 C   0  0  0  0  0  2  0  0  0  0  0  0
  191.5110  174.9820  145.6700 C   0  0  1  0  0  3  0  0  0  0  0  0
  183.9880  179.1920  143.7890 C   0  0  0  0  0  3  0  0  0  0  0  0
  185.1710  178.0000  145.9990 C   0  0  0  0  0  0  0  0  0  0  0  0
  187.0200  176.8040  147.0030 C   0  0  0  0  0  3  0  0  0  0  0  0
  183.3370  179.1540  145.0260 C   0  0  0  0  0  3  0  0  0  0  0  0
  185.8570  178.0160  144.7660 C   0  0  0  0  0  0  0  0  0  0  0  0
  185.2560  178.6170  143.6600 C   0  0  0  0  0  3  0  0  0  0  0  0
  187.7020  176.8140  145.7790 C   0  0  0  0  0  0  0  0  0  0  0  0
  185.7570  177.3950  147.1140 C   0  0  0  0  0  3  0  0  0  0  0  0
  187.1160  177.4220  144.6580 C   0  0  0  0  0  3  0  0  0  0  0  0
  183.9360  178.5630  146.0970 N   0  0  0  0  0  0  0  0  0  0  0  0
  2  3  1  6  0  0  0
  2 28  1  0  0  0  0
  2  9  1  0  0  0  0
  4  8  1  0  0  0  0
  5  6  2  0  0  0  0
  5 10  1  0  0  0  0
  6  7  1  0  0  0  0
  7  4  1  0  0  0  0
  7  1  1  1  0  0  0
  9  8  1  0  0  0  0
 10  3  1  0  0  0  0
 10  4  2  0  0  0  0
 11 20  2  0  0  0  0
 12 13  2  0  0  0  0
 13 19  1  0  0  0  0
 13 16  1  0  0  0  0
 15 11  1  0  0  0  0
 16 14  2  0  0  0  0
 17 15  1  0  0  0  0
 17 12  1  0  0  0  0
 18 12  1  0  0  0  0
 18 21  1  0  0  0  0
 20 14  1  0  0  0  0
 20  5  1  0  0  0  0
 21 19  1  0  0  0  0
 22 35  1  1  0  0  0
 22 26  1  0  0  0  0
 23 24  1  1  0  0  0
 25 27  1  0  0  0  0
 26 23  1  0  0  0  0
 27 22  1  0  0  0  0
 28 25  1  1  0  0  0
 28 23  1  0  0  0  0
 29 32  1  0  0  0  0
 30 38  1  0  0  0  0
 30 36  1  0  0  0  0
 31 36  2  0  0  0  0
 32 38  2  0  0  0  0
 33 30  2  0  0  0  0
 34 29  2  0  0  0  0
 34 33  1  0  0  0  0
 35 31  1  0  0  0  0
 37 33  1  0  0  0  0
 37 35  2  0  0  0  0
M  END
>  <MODEL>
1

>  <REMARK>
 VINA RESULT:      -9.0      0.000      0.000
  Name = 
  3 active torsions:
  status: ('A' for Active; 'I' for Inactive)
    1  A    between atoms: C_2  and  C_36
    2  A    between atoms: C_8  and  C_23
    3  A    between atoms: C_18  and  C_37
                            x       y       z     vdW  Elec       q    Type
                         _______ _______ _______ _____ _____    ______ ____

>  <TORSDO>
F 3

$$$$
=
 OpenBabel11042416223D

 38 44  0  0  1  0  0  0  0  0999 V2000
  197.6460  171.8610  145.0160 C   0  0  0  0  0  1  0  0  0  0  0  0
  193.3130  174.1980  145.0190 C   0  0  1  0  0  3  0  0  0  0  0  0
  193.6890  173.8980  143.5610 C   0  0  0  0  0  2  0  0  0  0  0  0
  196.0120  173.6190  144.4350 C   0  0  0  0  0  0  0  0  0  0  0  0
  195.7620  172.6580  142.4230 C   0  0  0  0  0  0  0  0  0  0  0  0
  196.9970  172.4020  142.7360 N   0  0  0  0  0  0  0  0  0  0  0  0
  197.3000  172.9730  144.0460 C   0  0  2  0  0  3  0  0  0  0  0  0
  195.7230  174.3140  145.7340 C   0  0  0  0  0  2  0  0  0  0  0  0
  194.3850  175.0630  145.6880 C   0  0  0  0  0  2  0  0  0  0  0  0
  195.1080  173.4060  143.4880 C   0  0  0  0  0  0  0  0  0  0  0  0
  195.2360  173.0280  140.0860 C   0  0  0  0  0  3  0  0  0  0  0  0
  192.2010  172.5050  139.5040 C   0  0  0  0  0  0  0  0  0  0  0  0
  192.2500  171.4700  140.3540 C   0  0  0  0  0  0  0  0  0  0  0  0
  194.6150  170.8590  141.0110 C   0  0  0  0  0  3  0  0  0  0  0  0
  194.6760  172.6350  138.7640 C   0  0  0  0  0  2  0  0  0  0  0  0
  193.3700  170.5460  140.6340 C   0  0  0  0  0  3  0  0  0  0  0  0
  193.2770  173.0180  138.7060 N   0  0  0  0  0  2  0  0  0  0  0  0
  190.5900  173.2660  139.3610 S   0  0  0  0  0  0  0  0  0  0  0  0
  190.9360  171.1800  140.9970 C   0  0  0  0  0  2  0  0  0  0  0  0
  195.1610  172.2230  141.1460 C   0  0  0  0  0  0  0  0  0  0  0  0
  190.1270  172.4640  140.9220 C   0  0  0  0  0  2  0  0  0  0  0  0
  189.5130  176.0580  145.5530 C   0  0  2  0  0  3  0  0  0  0  0  0
  190.7890  174.1980  144.3170 C   0  0  1  0  0  3  0  0  0  0  0  0
  190.4380  172.7710  144.7100 C   0  0  0  0  0  1  0  0  0  0  0  0
  191.5060  174.9520  146.6680 C   0  0  0  0  0  2  0  0  0  0  0  0
  189.5170  175.0630  144.3810 C   0  0  0  0  0  2  0  0  0  0  0  0
  190.0510  175.4160  146.8340 C   0  0  0  0  0  2  0  0  0  0  0  0
  191.9110  174.7900  145.1960 C   0  0  1  0  0  3  0  0  0  0  0  0
  184.4650  179.4350  144.3320 C   0  0  0  0  0  3  0  0  0  0  0  0
  185.6020  177.7200  146.1950 C   0  0  0  0  0  0  0  0  0  0  0  0
  187.4440  176.3270  146.9180 C   0  0  0  0  0  3  0  0  0  0  0  0
  183.7740  179.0640  145.4910 C   0  0  0  0  0  3  0  0  0  0  0  0
  186.3280  178.0690  145.0360 C   0  0  0  0  0  0  0  0  0  0  0  0
  185.7490  178.9320  144.1040 C   0  0  0  0  0  3  0  0  0  0  0  0
  188.1660  176.6680  145.7670 C   0  0  0  0  0  0  0  0  0  0  0  0
  186.1660  176.8510  147.1330 C   0  0  0  0  0  3  0  0  0  0  0  0
  187.6030  177.5420  144.8230 C   0  0  0  0  0  3  0  0  0  0  0  0
  184.3520  178.2200  146.3910 N   0  0  0  0  0  0  0  0  0  0  0  0
  2  3  1  6  0  0  0
  2 28  1  0  0  0  0
  2  9  1  0  0  0  0
  4  8  1  0  0  0  0
  5  6  2  0  0  0  0
  5 10  1  0  0  0  0
  6  7  1  0  0  0  0
  7  4  1  0  0  0  0
  7  1  1  1  0  0  0
  9  8  1  0  0  0  0
 10  3  1  0  0  0  0
 10  4  2  0  0  0  0
 11 20  2  0  0  0  0
 12 13  2  0  0  0  0
 13 16  1  0  0  0  0
 13 19  1  0  0  0  0
 14 20  1  0  0  0  0
 15 11  1  0  0  0  0
 16 14  2  0  0  0  0
 17 15  1  0  0  0  0
 17 12  1  0  0  0  0
 18 12  1  0  0  0  0
 18 21  1  0  0  0  0
 20  5  1  0  0  0  0
 21 19  1  0  0  0  0
 22 35  1  1  0  0  0
 22 27  1  0  0  0  0
 23 26  1  0  0  0  0
 23 24  1  1  0  0  0
 23 28  1  0  0  0  0
 25 27  1  0  0  0  0
 26 22  1  0  0  0  0
 28 25  1  1  0  0  0
 29 32  1  0  0  0  0
 30 38  1  0  0  0  0
 30 36  1  0  0  0  0
 31 36  2  0  0  0  0
 32 38  2  0  0  0  0
 33 30  2  0  0  0  0
 34 29  2  0  0  0  0
 34 33  1  0  0  0  0
 35 31  1  0  0  0  0
 37 33  1  0  0  0  0
 37 35  2  0  0  0  0
M  END
>  <MODEL>
2

>  <REMARK>
 VINA RESULT:      -8.8      1.193      1.633
  Name = 
  3 active torsions:
  status: ('A' for Active; 'I' for Inactive)
    1  A    between atoms: C_2  and  C_36
    2  A    between atoms: C_8  and  C_23
    3  A    between atoms: C_18  and  C_37
                            x       y       z     vdW  Elec       q    Type
                         _______ _______ _______ _____ _____    ______ ____

>  <TORSDO>
F 3

$$$$
=
 OpenBabel11042416223D

 38 44  0  0  1  0  0  0  0  0999 V2000
  197.9410  173.4300  141.1400 C   0  0  0  0  0  1  0  0  0  0  0  0
  193.6360  175.1730  142.7700 C   0  0  1  0  0  3  0  0  0  0  0  0
  193.5710  175.1080  141.2370 C   0  0  0  0  0  2  0  0  0  0  0  0
  196.0650  175.0220  141.3430 C   0  0  0  0  0  0  0  0  0  0  0  0
  195.2930  174.2950  139.3660 C   0  0  0  0  0  0  0  0  0  0  0  0
  196.5820  174.1620  139.2620 N   0  0  0  0  0  0  0  0  0  0  0  0
  197.2220  174.6010  140.5000 C   0  0  2  0  0  3  0  0  0  0  0  0
  196.1300  175.5080  142.7630 C   0  0  0  0  0  2  0  0  0  0  0  0
  194.7830  176.0790  143.2260 C   0  0  0  0  0  2  0  0  0  0  0  0
  194.9370  174.8150  140.6790 C   0  0  0  0  0  0  0  0  0  0  0  0
  193.8390  174.9270  137.5320 C   0  0  0  0  0  3  0  0  0  0  0  0
  191.0300  173.5600  137.7820 C   0  0  0  0  0  0  0  0  0  0  0  0
  191.6440  172.4520  138.2200 C   0  0  0  0  0  0  0  0  0  0  0  0
  194.1520  172.5370  137.8990 C   0  0  0  0  0  3  0  0  0  0  0  0
  192.9250  174.6410  136.3930 C   0  0  0  0  0  2  0  0  0  0  0  0
  192.9700  171.9120  137.8480 C   0  0  0  0  0  3  0  0  0  0  0  0
  191.5630  174.5460  136.8870 N   0  0  0  0  0  2  0  0  0  0  0  0
  189.3570  173.7600  138.3800 S   0  0  0  0  0  0  0  0  0  0  0  0
  190.7860  171.6240  139.1150 C   0  0  0  0  0  2  0  0  0  0  0  0
  194.3700  173.9490  138.2670 C   0  0  0  0  0  0  0  0  0  0  0  0
  189.7330  172.5580  139.6860 C   0  0  0  0  0  2  0  0  0  0  0  0
  189.8770  176.3260  144.4220 C   0  0  2  0  0  3  0  0  0  0  0  0
  191.7710  174.5880  144.5150 C   0  0  1  0  0  3  0  0  0  0  0  0
  192.6230  174.5930  145.7760 C   0  0  0  0  0  1  0  0  0  0  0  0
  192.2500  177.0290  143.8620 C   0  0  0  0  0  2  0  0  0  0  0  0
  190.3180  174.9290  144.8910 C   0  0  0  0  0  2  0  0  0  0  0  0
  190.9770  177.3650  144.6520 C   0  0  0  0  0  2  0  0  0  0  0  0
  192.3110  175.5540  143.4380 C   0  0  1  0  0  3  0  0  0  0  0  0
  184.4330  179.2290  144.9840 C   0  0  0  0  0  3  0  0  0  0  0  0
  186.1400  177.4310  146.2330 C   0  0  0  0  0  0  0  0  0  0  0  0
  188.2100  176.1790  146.2700 C   0  0  0  0  0  3  0  0  0  0  0  0
  184.0920  178.6350  146.2040 C   0  0  0  0  0  3  0  0  0  0  0  0
  186.5160  178.0070  145.0010 C   0  0  0  0  0  0  0  0  0  0  0  0
  185.6520  178.9100  144.3790 C   0  0  0  0  0  3  0  0  0  0  0  0
  188.5850  176.7450  145.0440 C   0  0  0  0  0  0  0  0  0  0  0  0
  186.9910  176.5200  146.8630 C   0  0  0  0  0  3  0  0  0  0  0  0
  187.7320  177.6610  144.4090 C   0  0  0  0  0  3  0  0  0  0  0  0
  184.9450  177.7550  146.7980 N   0  0  0  0  0  0  0  0  0  0  0  0
  2  3  1  6  0  0  0
  2  9  1  0  0  0  0
  2 28  1  0  0  0  0
  4  8  1  0  0  0  0
  5 10  1  0  0  0  0
  6  5  2  0  0  0  0
  6  7  1  0  0  0  0
  7  1  1  1  0  0  0
  7  4  1  0  0  0  0
  8  9  1  0  0  0  0
 10  3  1  0  0  0  0
 10  4  2  0  0  0  0
 11 20  2  0  0  0  0
 12 13  2  0  0  0  0
 12 18  1  0  0  0  0
 13 19  1  0  0  0  0
 14 20  1  0  0  0  0
 15 17  1  0  0  0  0
 15 11  1  0  0  0  0
 16 14  2  0  0  0  0
 16 13  1  0  0  0  0
 17 12  1  0  0  0  0
 18 21  1  0  0  0  0
 19 21  1  0  0  0  0
 20  5  1  0  0  0  0
 22 27  1  0  0  0  0
 22 26  1  0  0  0  0
 22 35  1  1  0  0  0
 23 26  1  0  0  0  0
 23 24  1  1  0  0  0
 25 27  1  0  0  0  0
 28 25  1  1  0  0  0
 28 23  1  0  0  0  0
 29 32  1  0  0  0  0
 30 38  1  0  0  0  0
 30 36  1  0  0  0  0
 31 36  2  0  0  0  0
 32 38  2  0  0  0  0
 33 30  2  0  0  0  0
 34 29  2  0  0  0  0
 34 33  1  0  0  0  0
 35 31  1  0  0  0  0
 37 33  1  0  0  0  0
 37 35  2  0  0  0  0
M  END
>  <MODEL>
3

>  <REMARK>
 VINA RESULT:      -8.4      2.801      3.320
  Name = 
  3 active torsions:
  status: ('A' for Active; 'I' for Inactive)
    1  A    between atoms: C_2  and  C_36
    2  A    between atoms: C_8  and  C_23
    3  A    between atoms: C_18  and  C_37
                            x       y       z     vdW  Elec       q    Type
                         _______ _______ _______ _____ _____    ______ ____

>  <TORSDO>
F 3

$$$$
=
 OpenBabel11042416223D

 38 44  0  0  1  0  0  0  0  0999 V2000
  197.2970  173.6840  146.6340 C   0  0  0  0  0  1  0  0  0  0  0  0
  192.8630  175.2850  145.2170 C   0  0  1  0  0  3  0  0  0  0  0  0
  193.2210  174.0630  144.3610 C   0  0  0  0  0  2  0  0  0  0  0  0
  195.5730  174.5120  145.0730 C   0  0  0  0  0  0  0  0  0  0  0  0
  195.3240  172.4180  144.3070 C   0  0  0  0  0  0  0  0  0  0  0  0
  196.5760  172.4740  144.6520 N   0  0  0  0  0  0  0  0  0  0  0  0
  196.8800  173.8020  145.1820 C   0  0  2  0  0  3  0  0  0  0  0  0
  195.2800  175.9110  145.5370 C   0  0  0  0  0  2  0  0  0  0  0  0
  193.9080  176.3920  145.0470 C   0  0  0  0  0  2  0  0  0  0  0  0
  194.6600  173.6850  144.5840 C   0  0  0  0  0  0  0  0  0  0  0  0
  195.2950  170.6390  142.6610 C   0  0  0  0  0  3  0  0  0  0  0  0
  192.4890  170.4050  141.2860 C   0  0  0  0  0  0  0  0  0  0  0  0
  191.9210  170.6630  142.4720 C   0  0  0  0  0  0  0  0  0  0  0  0
  193.5720  170.5550  144.3860 C   0  0  0  0  0  3  0  0  0  0  0  0
  194.7480  169.4000  142.0430 C   0  0  0  0  0  2  0  0  0  0  0  0
  192.3850  170.2940  143.8270 C   0  0  0  0  0  3  0  0  0  0  0  0
  193.7500  169.7620  141.0540 N   0  0  0  0  0  2  0  0  0  0  0  0
  191.5080  170.9020  139.8760 S   0  0  0  0  0  0  0  0  0  0  0  0
  190.5840  171.3130  142.3510 C   0  0  0  0  0  2  0  0  0  0  0  0
  194.7170  171.2070  143.7210 C   0  0  0  0  0  0  0  0  0  0  0  0
  190.5490  171.9740  140.9840 C   0  0  0  0  0  2  0  0  0  0  0  0
  188.9150  176.6660  144.3850 C   0  0  2  0  0  3  0  0  0  0  0  0
  190.4700  175.7100  146.1960 C   0  0  1  0  0  3  0  0  0  0  0  0
  190.8460  176.6590  147.3250 C   0  0  0  0  0  1  0  0  0  0  0  0
  191.4000  177.1740  144.2980 C   0  0  0  0  0  2  0  0  0  0  0  0
  189.0210  175.9940  145.7640 C   0  0  0  0  0  2  0  0  0  0  0  0
  189.9790  177.7520  144.2090 C   0  0  0  0  0  2  0  0  0  0  0  0
  191.4400  175.8090  144.9990 C   0  0  1  0  0  3  0  0  0  0  0  0
  183.8720  178.2230  141.1400 C   0  0  0  0  0  3  0  0  0  0  0  0
  184.9300  178.1230  143.7050 C   0  0  0  0  0  0  0  0  0  0  0  0
  186.7560  177.6040  145.2050 C   0  0  0  0  0  3  0  0  0  0  0  0
  183.1180  178.6180  142.2500 C   0  0  0  0  0  3  0  0  0  0  0  0
  185.7200  177.7140  142.6090 C   0  0  0  0  0  0  0  0  0  0  0  0
  185.1810  177.7670  141.3230 C   0  0  0  0  0  3  0  0  0  0  0  0
  187.5410  177.1920  144.1210 C   0  0  0  0  0  0  0  0  0  0  0  0
  185.4530  178.0680  144.9990 C   0  0  0  0  0  3  0  0  0  0  0  0
  187.0190  177.2470  142.8190 C   0  0  0  0  0  3  0  0  0  0  0  0
  183.6570  178.5600  143.4990 N   0  0  0  0  0  0  0  0  0  0  0  0
  2  3  1  6  0  0  0
  3 10  1  0  0  0  0
  4  7  1  0  0  0  0
  4  8  1  0  0  0  0
  5 10  1  0  0  0  0
  5  6  2  0  0  0  0
  6  7  1  0  0  0  0
  7  1  1  1  0  0  0
  9  2  1  0  0  0  0
  9  8  1  0  0  0  0
 10  4  2  0  0  0  0
 11 20  2  0  0  0  0
 12 13  2  0  0  0  0
 13 16  1  0  0  0  0
 15 11  1  0  0  0  0
 16 14  2  0  0  0  0
 17 12  1  0  0  0  0
 17 15  1  0  0  0  0
 18 21  1  0  0  0  0
 18 12  1  0  0  0  0
 19 13  1  0  0  0  0
 20  5  1  0  0  0  0
 20 14  1  0  0  0  0
 21 19  1  0  0  0  0
 22 35  1  1  0  0  0
 22 26  1  0  0  0  0
 23 24  1  1  0  0  0
 26 23  1  0  0  0  0
 27 25  1  0  0  0  0
 27 22  1  0  0  0  0
 28 25  1  1  0  0  0
 28  2  1  0  0  0  0
 28 23  1  0  0  0  0
 29 34  2  0  0  0  0
 29 32  1  0  0  0  0
 30 36  1  0  0  0  0
 32 38  2  0  0  0  0
 33 37  1  0  0  0  0
 33 30  2  0  0  0  0
 34 33  1  0  0  0  0
 35 31  1  0  0  0  0
 36 31  2  0  0  0  0
 37 35  2  0  0  0  0
 38 30  1  0  0  0  0
M  END
>  <MODEL>
4

>  <REMARK>
 VINA RESULT:      -8.3      1.445      1.726
  Name = 
  3 active torsions:
  status: ('A' for Active; 'I' for Inactive)
    1  A    between atoms: C_2  and  C_36
    2  A    between atoms: C_8  and  C_23
    3  A    between atoms: C_18  and  C_37
                            x       y       z     vdW  Elec       q    Type
                         _______ _______ _______ _____ _____    ______ ____

>  <TORSDO>
F 3

$$$$
=
 OpenBabel11042416223D

 38 44  0  0  1  0  0  0  0  0999 V2000
  196.7360  173.8280  146.3480 C   0  0  0  0  0  1  0  0  0  0  0  0
  192.4030  175.6420  144.8790 C   0  0  1  0  0  3  0  0  0  0  0  0
  193.0620  174.9560  143.6740 C   0  0  0  0  0  2  0  0  0  0  0  0
  195.1830  175.1700  144.9770 C   0  0  0  0  0  0  0  0  0  0  0  0
  195.3590  173.6320  143.3530 C   0  0  0  0  0  0  0  0  0  0  0  0
  196.5180  173.5980  143.9380 N   0  0  0  0  0  0  0  0  0  0  0  0
  196.5430  174.5610  145.0360 C   0  0  2  0  0  3  0  0  0  0  0  0
  194.6250  176.1920  145.9250 C   0  0  0  0  0  2  0  0  0  0  0  0
  193.2940  176.7650  145.4190 C   0  0  0  0  0  2  0  0  0  0  0  0
  194.4860  174.6000  144.0040 C   0  0  0  0  0  0  0  0  0  0  0  0
  195.5110  173.1060  140.9920 C   0  0  0  0  0  3  0  0  0  0  0  0
  192.6770  172.6120  139.7480 C   0  0  0  0  0  0  0  0  0  0  0  0
  192.3250  171.9860  140.8800 C   0  0  0  0  0  0  0  0  0  0  0  0
  194.3010  171.5120  142.3860 C   0  0  0  0  0  3  0  0  0  0  0  0
  195.2400  172.2720  139.7890 C   0  0  0  0  0  2  0  0  0  0  0  0
  193.1550  171.1660  141.7880 C   0  0  0  0  0  3  0  0  0  0  0  0
  193.9920  172.7000  139.1830 N   0  0  0  0  0  2  0  0  0  0  0  0
  191.3160  173.3700  138.8710 S   0  0  0  0  0  0  0  0  0  0  0  0
  190.8610  172.0600  141.1580 C   0  0  0  0  0  2  0  0  0  0  0  0
  195.0300  172.7800  142.1920 C   0  0  0  0  0  0  0  0  0  0  0  0
  190.3400  173.2690  140.3980 C   0  0  0  0  0  2  0  0  0  0  0  0
  188.4410  176.9080  143.9350 C   0  0  2  0  0  3  0  0  0  0  0  0
  189.9840  176.0430  145.8020 C   0  0  1  0  0  3  0  0  0  0  0  0
  190.3180  177.0340  146.9070 C   0  0  0  0  0  1  0  0  0  0  0  0
  190.9160  177.4690  143.8770 C   0  0  0  0  0  2  0  0  0  0  0  0
  188.5360  176.2820  145.3360 C   0  0  0  0  0  2  0  0  0  0  0  0
  189.4850  178.0120  143.7450 C   0  0  0  0  0  2  0  0  0  0  0  0
  190.9730  176.1270  144.6200 C   0  0  1  0  0  3  0  0  0  0  0  0
  183.4550  178.3260  140.5430 C   0  0  0  0  0  3  0  0  0  0  0  0
  184.4380  178.2520  143.1380 C   0  0  0  0  0  0  0  0  0  0  0  0
  186.2330  177.7830  144.6920 C   0  0  0  0  0  3  0  0  0  0  0  0
  182.6570  178.6970  141.6310 C   0  0  0  0  0  3  0  0  0  0  0  0
  185.2720  177.8680  142.0670 C   0  0  0  0  0  0  0  0  0  0  0  0
  184.7700  177.9070  140.7650 C   0  0  0  0  0  3  0  0  0  0  0  0
  187.0620  177.3960  143.6310 C   0  0  0  0  0  0  0  0  0  0  0  0
  184.9240  178.2100  144.4470 C   0  0  0  0  0  3  0  0  0  0  0  0
  186.5770  177.4380  142.3140 C   0  0  0  0  0  3  0  0  0  0  0  0
  183.1610  178.6530  142.8950 N   0  0  0  0  0  0  0  0  0  0  0  0
  2  3  1  6  0  0  0
  2  9  1  0  0  0  0
  3 10  1  0  0  0  0
  4  7  1  0  0  0  0
  4  8  1  0  0  0  0
  5  6  2  0  0  0  0
  5 10  1  0  0  0  0
  6  7  1  0  0  0  0
  7  1  1  1  0  0  0
  9  8  1  0  0  0  0
 10  4  2  0  0  0  0
 11 20  2  0  0  0  0
 12 13  2  0  0  0  0
 13 19  1  0  0  0  0
 13 16  1  0  0  0  0
 15 11  1  0  0  0  0
 16 14  2  0  0  0  0
 17 12  1  0  0  0  0
 17 15  1  0  0  0  0
 18 12  1  0  0  0  0
 18 21  1  0  0  0  0
 20 14  1  0  0  0  0
 20  5  1  0  0  0  0
 21 19  1  0  0  0  0
 22 35  1  1  0  0  0
 22 26  1  0  0  0  0
 23 24  1  1  0  0  0
 26 23  1  0  0  0  0
 27 25  1  0  0  0  0
 27 22  1  0  0  0  0
 28 25  1  1  0  0  0
 28  2  1  0  0  0  0
 28 23  1  0  0  0  0
 29 34  2  0  0  0  0
 29 32  1  0  0  0  0
 30 36  1  0  0  0  0
 32 38  2  0  0  0  0
 33 37  1  0  0  0  0
 33 30  2  0  0  0  0
 34 33  1  0  0  0  0
 35 31  1  0  0  0  0
 36 31  2  0  0  0  0
 37 35  2  0  0  0  0
 38 30  1  0  0  0  0
M  END
>  <MODEL>
5

>  <REMARK>
 VINA RESULT:      -8.3      1.740      2.219
  Name = 
  3 active torsions:
  status: ('A' for Active; 'I' for Inactive)
    1  A    between atoms: C_2  and  C_36
    2  A    between atoms: C_8  and  C_23
    3  A    between atoms: C_18  and  C_37
                            x       y       z     vdW  Elec       q    Type
                         _______ _______ _______ _____ _____    ______ ____

>  <TORSDO>
F 3

$$$$
=
 OpenBabel11042416223D

 38 44  0  0  1  0  0  0  0  0999 V2000
  195.5740  171.1330  138.7520 C   0  0  0  0  0  1  0  0  0  0  0  0
  191.9120  173.3950  141.1410 C   0  0  1  0  0  3  0  0  0  0  0  0
  193.0570  173.1640  142.1380 C   0  0  0  0  0  2  0  0  0  0  0  0
  193.8610  171.4580  140.5010 C   0  0  0  0  0  0  0  0  0  0  0  0
  195.4880  172.0810  141.9150 C   0  0  0  0  0  0  0  0  0  0  0  0
  196.0710  171.2260  141.1300 N   0  0  0  0  0  0  0  0  0  0  0  0
  195.1150  170.7340  140.1410 C   0  0  2  0  0  3  0  0  0  0  0  0
  192.5520  171.3840  139.7690 C   0  0  0  0  0  2  0  0  0  0  0  0
  191.4250  172.0650  140.5580 C   0  0  0  0  0  2  0  0  0  0  0  0
  194.0960  172.2650  141.5260 C   0  0  0  0  0  0  0  0  0  0  0  0
  196.1970  172.1630  144.2310 C   0  0  0  0  0  3  0  0  0  0  0  0
  195.4950  174.9220  145.5420 C   0  0  0  0  0  0  0  0  0  0  0  0
  195.8210  175.5180  144.3860 C   0  0  0  0  0  0  0  0  0  0  0  0
  196.9980  173.9550  142.7830 C   0  0  0  0  0  3  0  0  0  0  0  0
  196.9140  172.7660  145.3880 C   0  0  0  0  0  2  0  0  0  0  0  0
  196.8520  175.1340  143.3990 C   0  0  0  0  0  3  0  0  0  0  0  0
  196.0300  173.6980  146.0640 N   0  0  0  0  0  2  0  0  0  0  0  0
  194.2850  175.8110  146.5130 S   0  0  0  0  0  0  0  0  0  0  0  0
  195.0960  176.8030  144.1660 C   0  0  0  0  0  2  0  0  0  0  0  0
  196.1920  172.7430  143.0300 C   0  0  0  0  0  0  0  0  0  0  0  0
  193.8400  176.7400  145.0180 C   0  0  0  0  0  2  0  0  0  0  0  0
  188.7490  175.8910  142.5390 C   0  0  2  0  0  3  0  0  0  0  0  0
  189.4850  173.4620  142.1260 C   0  0  1  0  0  3  0  0  0  0  0  0
  189.7140  172.6110  143.3660 C   0  0  0  0  0  1  0  0  0  0  0  0
  191.2050  175.2760  142.7270 C   0  0  0  0  0  2  0  0  0  0  0  0
  188.3130  174.4240  142.3880 C   0  0  0  0  0  2  0  0  0  0  0  0
  190.0240  176.0100  143.3790 C   0  0  0  0  0  2  0  0  0  0  0  0
  190.7540  174.2300  141.6980 C   0  0  1  0  0  3  0  0  0  0  0  0
  184.4510  177.9180  146.5130 C   0  0  0  0  0  3  0  0  0  0  0  0
  185.6480  178.4450  144.0640 C   0  0  0  0  0  0  0  0  0  0  0  0
  187.2510  177.8740  142.3440 C   0  0  0  0  0  3  0  0  0  0  0  0
  184.0850  179.0340  145.7530 C   0  0  0  0  0  3  0  0  0  0  0  0
  186.0460  177.3110  144.8050 C   0  0  0  0  0  0  0  0  0  0  0  0
  185.4390  177.0540  146.0350 C   0  0  0  0  0  3  0  0  0  0  0  0
  187.6520  176.7500  143.0780 C   0  0  0  0  0  0  0  0  0  0  0  0
  186.2520  178.7200  142.8350 C   0  0  0  0  0  3  0  0  0  0  0  0
  187.0470  176.4700  144.3130 C   0  0  0  0  0  3  0  0  0  0  0  0
  184.6860  179.2730  144.5550 N   0  0  0  0  0  0  0  0  0  0  0  0
  2  9  1  1  0  0  0
  2 28  1  0  0  0  0
  2  3  1  0  0  0  0
  4 10  2  0  0  0  0
  5 20  1  0  0  0  0
  6  5  2  0  0  0  0
  7  1  1  6  0  0  0
  7  4  1  0  0  0  0
  7  6  1  0  0  0  0
  8  4  1  0  0  0  0
  8  9  1  0  0  0  0
 10  5  1  0  0  0  0
 10  3  1  0  0  0  0
 11 15  1  0  0  0  0
 12 17  1  0  0  0  0
 12 18  1  0  0  0  0
 13 12  2  0  0  0  0
 14 20  1  0  0  0  0
 14 16  2  0  0  0  0
 15 17  1  0  0  0  0
 16 13  1  0  0  0  0
 19 13  1  0  0  0  0
 19 21  1  0  0  0  0
 20 11  2  0  0  0  0
 21 18  1  0  0  0  0
 22 35  1  1  0  0  0
 22 27  1  0  0  0  0
 23 26  1  0  0  0  0
 23 24  1  1  0  0  0
 25 27  1  0  0  0  0
 26 22  1  0  0  0  0
 28 23  1  0  0  0  0
 28 25  1  1  0  0  0
 30 38  2  0  0  0  0
 30 33  1  0  0  0  0
 31 36  2  0  0  0  0
 31 35  1  0  0  0  0
 32 29  2  0  0  0  0
 33 34  2  0  0  0  0
 34 29  1  0  0  0  0
 35 37  2  0  0  0  0
 36 30  1  0  0  0  0
 37 33  1  0  0  0  0
 38 32  1  0  0  0  0
M  END
>  <MODEL>
6

>  <REMARK>
 VINA RESULT:      -8.1      2.503      4.978
  Name = 
  3 active torsions:
  status: ('A' for Active; 'I' for Inactive)
    1  A    between atoms: C_2  and  C_36
    2  A    between atoms: C_8  and  C_23
    3  A    between atoms: C_18  and  C_37
                            x       y       z     vdW  Elec       q    Type
                         _______ _______ _______ _____ _____    ______ ____

>  <TORSDO>
F 3

$$$$
=
 OpenBabel11042416223D

 38 44  0  0  1  0  0  0  0  0999 V2000
  197.9410  173.0340  144.7030 C   0  0  0  0  0  1  0  0  0  0  0  0
  193.5040  175.1520  144.9430 C   0  0  1  0  0  3  0  0  0  0  0  0
  194.1390  175.5330  143.5980 C   0  0  0  0  0  2  0  0  0  0  0  0
  196.2990  174.8770  144.6680 C   0  0  0  0  0  0  0  0  0  0  0  0
  196.4610  174.9200  142.4310 C   0  0  0  0  0  0  0  0  0  0  0  0
  197.6420  174.5420  142.8190 N   0  0  0  0  0  0  0  0  0  0  0  0
  197.6780  174.4650  144.2770 C   0  0  2  0  0  3  0  0  0  0  0  0
  195.7460  174.9200  146.0640 C   0  0  0  0  0  2  0  0  0  0  0  0
  194.3800  175.6190  146.1090 C   0  0  0  0  0  2  0  0  0  0  0  0
  195.5840  175.1160  143.5770 C   0  0  0  0  0  0  0  0  0  0  0  0
  194.8550  175.3830  140.6760 C   0  0  0  0  0  3  0  0  0  0  0  0
  195.0070  173.2370  138.3960 C   0  0  0  0  0  0  0  0  0  0  0  0
  196.3400  173.2270  138.5390 C   0  0  0  0  0  0  0  0  0  0  0  0
  197.1790  175.1260  139.9840 C   0  0  0  0  0  3  0  0  0  0  0  0
  194.4500  175.6090  139.2620 C   0  0  0  0  0  2  0  0  0  0  0  0
  197.2460  174.3370  138.9060 C   0  0  0  0  0  3  0  0  0  0  0  0
  194.1200  174.3350  138.6490 N   0  0  0  0  0  2  0  0  0  0  0  0
  194.3200  171.7030  137.7860 S   0  0  0  0  0  0  0  0  0  0  0  0
  196.9590  171.9270  138.1520 C   0  0  0  0  0  2  0  0  0  0  0  0
  196.1160  175.1060  141.0070 C   0  0  0  0  0  0  0  0  0  0  0  0
  195.8650  170.8790  138.2640 C   0  0  0  0  0  2  0  0  0  0  0  0
  189.5420  176.6310  145.4940 C   0  0  2  0  0  3  0  0  0  0  0  0
  191.0680  175.2180  143.9800 C   0  0  1  0  0  3  0  0  0  0  0  0
  190.7880  173.7230  143.9550 C   0  0  0  0  0  1  0  0  0  0  0  0
  191.4930  175.3660  146.5120 C   0  0  0  0  0  2  0  0  0  0  0  0
  189.7350  175.9760  144.1160 C   0  0  0  0  0  2  0  0  0  0  0  0
  189.9980  175.7020  146.6220 C   0  0  0  0  0  2  0  0  0  0  0  0
  192.0510  175.6120  145.1030 C   0  0  1  0  0  3  0  0  0  0  0  0
  184.1910  179.4940  144.2520 C   0  0  0  0  0  3  0  0  0  0  0  0
  185.4790  177.8860  146.1130 C   0  0  0  0  0  0  0  0  0  0  0  0
  187.4460  176.6800  146.8420 C   0  0  0  0  0  3  0  0  0  0  0  0
  183.5320  179.0460  145.4020 C   0  0  0  0  0  3  0  0  0  0  0  0
  186.1750  178.3160  144.9630 C   0  0  0  0  0  0  0  0  0  0  0  0
  185.5210  179.1240  144.0320 C   0  0  0  0  0  3  0  0  0  0  0  0
  188.1390  177.1010  145.7000 C   0  0  0  0  0  0  0  0  0  0  0  0
  186.1190  177.0700  147.0490 C   0  0  0  0  0  3  0  0  0  0  0  0
  187.4990  177.9210  144.7570 C   0  0  0  0  0  3  0  0  0  0  0  0
  184.1840  178.2570  146.3010 N   0  0  0  0  0  0  0  0  0  0  0  0
  2  3  1  6  0  0  0
  2 28  1  0  0  0  0
  2  9  1  0  0  0  0
  4  8  1  0  0  0  0
  5  6  2  0  0  0  0
  5 10  1  0  0  0  0
  6  7  1  0  0  0  0
  7  4  1  0  0  0  0
  7  1  1  6  0  0  0
  8  9  1  0  0  0  0
 10  3  1  0  0  0  0
 10  4  2  0  0  0  0
 11 20  2  0  0  0  0
 12 13  2  0  0  0  0
 12 17  1  0  0  0  0
 13 16  1  0  0  0  0
 14 20  1  0  0  0  0
 15 11  1  0  0  0  0
 16 14  2  0  0  0  0
 17 15  1  0  0  0  0
 18 21  1  0  0  0  0
 18 12  1  0  0  0  0
 19 21  1  0  0  0  0
 19 13  1  0  0  0  0
 20  5  1  0  0  0  0
 22 35  1  1  0  0  0
 22 27  1  0  0  0  0
 23 24  1  1  0  0  0
 23 26  1  0  0  0  0
 23 28  1  0  0  0  0
 25 27  1  0  0  0  0
 26 22  1  0  0  0  0
 28 25  1  1  0  0  0
 29 32  1  0  0  0  0
 30 38  1  0  0  0  0
 30 36  1  0  0  0  0
 31 36  2  0  0  0  0
 32 38  2  0  0  0  0
 33 30  2  0  0  0  0
 34 29  2  0  0  0  0
 34 33  1  0  0  0  0
 35 31  1  0  0  0  0
 37 33  1  0  0  0  0
 37 35  2  0  0  0  0
M  END
>  <MODEL>
7

>  <REMARK>
 VINA RESULT:      -8.0      2.544      3.609
  Name = 
  3 active torsions:
  status: ('A' for Active; 'I' for Inactive)
    1  A    between atoms: C_2  and  C_36
    2  A    between atoms: C_8  and  C_23
    3  A    between atoms: C_18  and  C_37
                            x       y       z     vdW  Elec       q    Type
                         _______ _______ _______ _____ _____    ______ ____

>  <TORSDO>
F 3

$$$$
=
 OpenBabel11042416223D

 38 44  0  0  1  0  0  0  0  0999 V2000
  193.7220  171.1680  136.6970 C   0  0  0  0  0  1  0  0  0  0  0  0
  190.8690  173.2130  140.1480 C   0  0  1  0  0  3  0  0  0  0  0  0
  192.3230  173.2730  140.6380 C   0  0  0  0  0  2  0  0  0  0  0  0
  192.7500  171.4880  138.9440 C   0  0  0  0  0  0  0  0  0  0  0  0
  194.6480  172.5070  139.5710 C   0  0  0  0  0  0  0  0  0  0  0  0
  195.0400  171.6420  138.6840 N   0  0  0  0  0  0  0  0  0  0  0  0
  193.8880  170.8990  138.1790 C   0  0  2  0  0  3  0  0  0  0  0  0
  191.2970  171.1430  138.7820 C   0  0  0  0  0  2  0  0  0  0  0  0
  190.4420  171.7640  139.8940 C   0  0  0  0  0  2  0  0  0  0  0  0
  193.2020  172.4490  139.7380 C   0  0  0  0  0  0  0  0  0  0  0  0
  196.6350  172.8710  140.9100 C   0  0  0  0  0  3  0  0  0  0  0  0
  196.0200  174.6830  143.3930 C   0  0  0  0  0  0  0  0  0  0  0  0
  195.2030  175.4110  142.6190 C   0  0  0  0  0  0  0  0  0  0  0  0
  195.4470  174.8650  140.1610 C   0  0  0  0  0  3  0  0  0  0  0  0
  197.6330  173.7200  141.6150 C   0  0  0  0  0  2  0  0  0  0  0  0
  195.3180  175.7240  141.1780 C   0  0  0  0  0  3  0  0  0  0  0  0
  197.1840  173.9560  142.9750 N   0  0  0  0  0  2  0  0  0  0  0  0
  195.5870  174.6840  145.1270 S   0  0  0  0  0  0  0  0  0  0  0  0
  194.1040  176.0670  143.3840 C   0  0  0  0  0  2  0  0  0  0  0  0
  195.5880  173.4000  140.2770 C   0  0  0  0  0  0  0  0  0  0  0  0
  193.9310  175.2650  144.6630 C   0  0  0  0  0  2  0  0  0  0  0  0
  188.1120  175.4520  142.5080 C   0  0  2  0  0  3  0  0  0  0  0  0
  188.7670  173.0980  141.7080 C   0  0  1  0  0  3  0  0  0  0  0  0
  189.3180  172.1590  142.7710 C   0  0  0  0  0  1  0  0  0  0  0  0
  190.5470  174.9270  142.0220 C   0  0  0  0  0  2  0  0  0  0  0  0
  187.6800  173.9860  142.3390 C   0  0  0  0  0  2  0  0  0  0  0  0
  189.5540  175.5550  143.0110 C   0  0  0  0  0  2  0  0  0  0  0  0
  189.8730  173.9500  141.0480 C   0  0  1  0  0  3  0  0  0  0  0  0
  185.8900  178.1150  147.6420 C   0  0  0  0  0  3  0  0  0  0  0  0
  185.3940  177.7280  144.9380 C   0  0  0  0  0  0  0  0  0  0  0  0
  186.0280  176.7890  142.7990 C   0  0  0  0  0  3  0  0  0  0  0  0
  184.7670  178.6750  147.0240 C   0  0  0  0  0  3  0  0  0  0  0  0
  186.5390  177.1490  145.5250 C   0  0  0  0  0  0  0  0  0  0  0  0
  186.7820  177.3490  146.8850 C   0  0  0  0  0  3  0  0  0  0  0  0
  187.1690  176.2180  143.3780 C   0  0  0  0  0  0  0  0  0  0  0  0
  185.1420  177.5420  143.5760 C   0  0  0  0  0  3  0  0  0  0  0  0
  187.4240  176.4010  144.7460 C   0  0  0  0  0  3  0  0  0  0  0  0
  184.5440  178.4720  145.6950 N   0  0  0  0  0  0  0  0  0  0  0  0
  2  9  1  1  0  0  0
  2  3  1  0  0  0  0
  2 28  1  0  0  0  0
  4 10  2  0  0  0  0
  5 10  1  0  0  0  0
  5 20  1  0  0  0  0
  6  5  2  0  0  0  0
  7  1  1  6  0  0  0
  7  6  1  0  0  0  0
  7  4  1  0  0  0  0
  8  4  1  0  0  0  0
  8  9  1  0  0  0  0
 10  3  1  0  0  0  0
 11 15  1  0  0  0  0
 12 18  1  0  0  0  0
 13 19  1  0  0  0  0
 13 12  2  0  0  0  0
 14 20  1  0  0  0  0
 14 16  2  0  0  0  0
 15 17  1  0  0  0  0
 16 13  1  0  0  0  0
 17 12  1  0  0  0  0
 19 21  1  0  0  0  0
 20 11  2  0  0  0  0
 21 18  1  0  0  0  0
 22 27  1  0  0  0  0
 22 35  1  1  0  0  0
 23 26  1  0  0  0  0
 23 24  1  1  0  0  0
 25 27  1  0  0  0  0
 26 22  1  0  0  0  0
 28 23  1  0  0  0  0
 28 25  1  1  0  0  0
 30 33  1  0  0  0  0
 30 38  1  0  0  0  0
 31 35  2  0  0  0  0
 31 36  1  0  0  0  0
 32 29  1  0  0  0  0
 33 34  1  0  0  0  0
 34 29  2  0  0  0  0
 35 37  1  0  0  0  0
 36 30  2  0  0  0  0
 37 33  2  0  0  0  0
 38 32  2  0  0  0  0
M  END
>  <MODEL>
8

>  <REMARK>
 VINA RESULT:      -7.7      2.665      5.324
  Name = 
  3 active torsions:
  status: ('A' for Active; 'I' for Inactive)
    1  A    between atoms: C_2  and  C_36
    2  A    between atoms: C_8  and  C_23
    3  A    between atoms: C_18  and  C_37
                            x       y       z     vdW  Elec       q    Type
                         _______ _______ _______ _____ _____    ______ ____

>  <TORSDO>
F 3

$$$$
=
 OpenBabel11042416223D

 38 44  0  0  1  0  0  0  0  0999 V2000
  194.5320  172.4060  136.6580 C   0  0  0  0  0  1  0  0  0  0  0  0
  191.7760  173.6940  140.5290 C   0  0  1  0  0  3  0  0  0  0  0  0
  193.1650  173.2920  141.0480 C   0  0  0  0  0  2  0  0  0  0  0  0
  193.4240  172.1370  138.8480 C   0  0  0  0  0  0  0  0  0  0  0  0
  195.4050  172.4830  139.8420 C   0  0  0  0  0  0  0  0  0  0  0  0
  195.7190  171.9080  138.7200 N   0  0  0  0  0  0  0  0  0  0  0  0
  194.5060  171.6260  137.9570 C   0  0  2  0  0  3  0  0  0  0  0  0
  191.9550  172.1650  138.5370 C   0  0  0  0  0  2  0  0  0  0  0  0
  191.1230  172.5320  139.7740 C   0  0  0  0  0  2  0  0  0  0  0  0
  193.9630  172.6620  139.9400 C   0  0  0  0  0  0  0  0  0  0  0  0
  196.7980  171.9950  141.7650 C   0  0  0  0  0  3  0  0  0  0  0  0
  196.5240  174.2120  143.9630 C   0  0  0  0  0  0  0  0  0  0  0  0
  196.4730  175.1290  142.9870 C   0  0  0  0  0  0  0  0  0  0  0  0
  197.1020  174.1810  140.7270 C   0  0  0  0  0  3  0  0  0  0  0  0
  197.8360  172.3230  142.7810 C   0  0  0  0  0  2  0  0  0  0  0  0
  197.1500  175.1280  141.6720 C   0  0  0  0  0  3  0  0  0  0  0  0
  197.2010  172.9480  143.9270 N   0  0  0  0  0  2  0  0  0  0  0  0
  195.6710  174.6850  145.4620 S   0  0  0  0  0  0  0  0  0  0  0  0
  195.7110  176.3510  143.3720 C   0  0  0  0  0  2  0  0  0  0  0  0
  196.4180  172.8780  140.8410 C   0  0  0  0  0  0  0  0  0  0  0  0
  194.7810  175.9400  144.5010 C   0  0  0  0  0  2  0  0  0  0  0  0
  189.1970  175.4990  143.4060 C   0  0  2  0  0  3  0  0  0  0  0  0
  189.7810  173.3130  142.1840 C   0  0  1  0  0  3  0  0  0  0  0  0
  190.3940  172.2120  143.0370 C   0  0  0  0  0  1  0  0  0  0  0  0
  191.5910  175.0710  142.6790 C   0  0  0  0  0  2  0  0  0  0  0  0
  188.7450  174.0800  143.0240 C   0  0  0  0  0  2  0  0  0  0  0  0
  190.6700  175.5230  143.8220 C   0  0  0  0  0  2  0  0  0  0  0  0
  190.8460  174.2670  141.6030 C   0  0  1  0  0  3  0  0  0  0  0  0
  184.3610  178.5380  145.8050 C   0  0  0  0  0  3  0  0  0  0  0  0
  186.6760  177.1560  146.4660 C   0  0  0  0  0  0  0  0  0  0  0  0
  188.6550  175.9320  145.8000 C   0  0  0  0  0  3  0  0  0  0  0  0
  184.7280  178.3360  147.1400 C   0  0  0  0  0  3  0  0  0  0  0  0
  186.3370  177.3370  145.1090 C   0  0  0  0  0  0  0  0  0  0  0  0
  185.1710  178.0330  144.7850 C   0  0  0  0  0  3  0  0  0  0  0  0
  188.3190  176.1060  144.4510 C   0  0  0  0  0  0  0  0  0  0  0  0
  187.8360  176.4550  146.8060 C   0  0  0  0  0  3  0  0  0  0  0  0
  187.1550  176.8100  144.1060 C   0  0  0  0  0  3  0  0  0  0  0  0
  185.8680  177.6540  147.4410 N   0  0  0  0  0  0  0  0  0  0  0  0
  2  9  1  1  0  0  0
  2  3  1  0  0  0  0
  2 28  1  0  0  0  0
  4 10  2  0  0  0  0
  5 10  1  0  0  0  0
  5 20  1  0  0  0  0
  6  5  2  0  0  0  0
  7  1  1  6  0  0  0
  7  6  1  0  0  0  0
  7  4  1  0  0  0  0
  8  4  1  0  0  0  0
  8  9  1  0  0  0  0
 10  3  1  0  0  0  0
 11 15  1  0  0  0  0
 12 18  1  0  0  0  0
 13 19  1  0  0  0  0
 13 12  2  0  0  0  0
 14 20  1  0  0  0  0
 14 16  2  0  0  0  0
 15 17  1  0  0  0  0
 16 13  1  0  0  0  0
 17 12  1  0  0  0  0
 19 21  1  0  0  0  0
 20 11  2  0  0  0  0
 21 18  1  0  0  0  0
 22 27  1  0  0  0  0
 22 35  1  1  0  0  0
 23 26  1  0  0  0  0
 23 24  1  1  0  0  0
 25 27  1  0  0  0  0
 26 22  1  0  0  0  0
 28 23  1  0  0  0  0
 28 25  1  1  0  0  0
 29 32  1  0  0  0  0
 30 36  1  0  0  0  0
 30 38  1  0  0  0  0
 31 36  2  0  0  0  0
 32 38  2  0  0  0  0
 33 30  2  0  0  0  0
 34 33  1  0  0  0  0
 34 29  2  0  0  0  0
 35 31  1  0  0  0  0
 37 35  2  0  0  0  0
 37 33  1  0  0  0  0
M  END
>  <MODEL>
9

>  <REMARK>
 VINA RESULT:      -7.6      2.568      5.132
  Name = 
  3 active torsions:
  status: ('A' for Active; 'I' for Inactive)
    1  A    between atoms: C_2  and  C_36
    2  A    between atoms: C_8  and  C_23
    3  A    between atoms: C_18  and  C_37
                            x       y       z     vdW  Elec       q    Type
                         _______ _______ _______ _____ _____    ______ ____

>  <TORSDO>
F 3

$$$$
