=
 OpenBabel11042417503D

 57 62  0  0  1  0  0  0  0  0999 V2000
  188.1480  175.5960  142.2210 C   0  0  1  0  0  3  0  0  0  0  0  0
  189.1320  176.7330  142.0450 C   0  0  1  0  0  3  0  0  0  0  0  0
  187.8250  176.7130  141.2470 C   0  0  2  0  0  3  0  0  0  0  0  0
  183.5270  178.2140  141.7570 C   0  0  0  0  0  0  0  0  0  0  0  0
  185.8480  176.8770  142.7630 C   0  0  1  0  0  3  0  0  0  0  0  0
  185.8200  177.0080  144.2770 C   0  0  0  0  0  2  0  0  0  0  0  0
  183.8510  178.0290  143.0120 N   0  0  0  0  0  0  0  0  0  0  0  0
  184.5480  178.3980  140.6580 C   0  0  0  0  0  3  0  0  0  0  0  0
  185.2350  178.0960  143.4270 C   0  0  2  0  0  3  0  0  0  0  0  0
  186.7360  177.6290  141.8060 C   0  0  2  0  0  3  0  0  0  0  0  0
  185.8840  178.1530  140.6600 C   0  0  0  0  0  3  0  0  0  0  0  0
  182.1670  178.2220  141.4340 O   0  0  0  0  0  0  0  0  0  0  0  0
  181.2300  179.0590  142.0940 C   0  0  0  0  0  1  0  0  0  0  0  0
  189.4380  172.1560  139.9150 C   0  0  0  0  0  1  0  0  0  0  0  0
  189.6500  172.1840  141.3540 N   0  0  0  0  0  0  0  0  0  0  0  0
  189.2170  173.3130  142.1280 C   0  0  0  0  0  0  0  0  0  0  0  0
  188.6200  174.4390  141.4790 N   0  0  0  0  0  2  0  0  0  0  0  0
  189.3600  173.3120  143.3810 O   0  0  0  0  0  0  0  0  0  0  0  0
  190.1640  170.9840  142.0100 C   0  0  0  0  0  2  0  0  0  0  0  0
  192.2480  171.7610  140.9320 C   0  0  1  0  0  3  0  0  0  0  0  0
  191.6920  170.9690  142.1020 C   0  0  1  0  0  0  0  0  0  0  0  0
  192.1730  171.7600  143.3060 C   0  0  0  0  0  2  0  0  0  0  0  0
  192.2280  169.5420  142.2040 C   0  0  0  0  0  1  0  0  0  0  0  0
  193.1540  172.7830  141.5720 C   0  0  0  0  0  2  0  0  0  0  0  0
  192.6920  172.9950  142.8780 O   0  0  0  0  0  0  0  0  0  0  0  0
  194.9190  170.2400  138.7740 C   0  0  0  0  0  3  0  0  0  0  0  0
  192.1520  170.2250  138.9580 C   0  0  0  0  0  3  0  0  0  0  0  0
  194.1760  169.4820  137.8650 C   0  0  0  0  0  3  0  0  0  0  0  0
  194.2870  170.9640  139.7360 N   0  0  0  0  0  0  0  0  0  0  0  0
  192.7820  169.4760  137.9640 C   0  0  0  0  0  3  0  0  0  0  0  0
  192.9260  170.9810  139.8400 C   0  0  0  0  0  0  0  0  0  0  0  0
  189.0700  177.5950  143.2190 N   0  0  0  0  0  2  0  0  0  0  0  0
  190.3960  177.6180  143.8090 C   0  0  1  0  0  3  0  0  0  0  0  0
  191.0610  178.9480  143.5070 C   0  0  0  0  0  1  0  0  0  0  0  0
  190.2740  177.4020  145.3130 C   0  0  0  0  0  2  0  0  0  0  0  0
  191.9180  174.1930  145.8850 O   0  0  0  0  0  0  0  0  0  0  0  0
  190.4460  175.9950  145.6580 N   0  0  0  0  0  0  0  0  0  0  0  0
  191.7660  175.4420  145.7980 C   0  0  0  0  0  0  0  0  0  0  0  0
  193.3040  176.6710  147.1380 O   0  0  0  0  0  1  0  0  0  0  0  0
  192.9740  176.3330  145.8240 C   0  0  1  0  0  3  0  0  0  0  0  0
  197.6830  173.7520  142.9960 Cl  0  0  0  0  0  0  0  0  0  0  0  0
  195.0460  174.9160  145.8400 C   0  0  0  0  0  3  0  0  0  0  0  0
  194.3290  175.9070  143.7490 C   0  0  0  0  0  0  0  0  0  0  0  0
  196.3180  174.5050  143.8190 C   0  0  0  0  0  0  0  0  0  0  0  0
  193.4610  176.7060  143.0780 F   0  0  0  0  0  0  0  0  0  0  0  0
  194.1430  175.7090  145.1250 C   0  0  0  0  0  0  0  0  0  0  0  0
  195.4130  175.2910  143.0810 C   0  0  0  0  0  0  0  0  0  0  0  0
  196.1330  174.3210  145.2000 C   0  0  0  0  0  0  0  0  0  0  0  0
  195.8700  176.6650  141.0410 C   0  0  0  0  0  1  0  0  0  0  0  0
  195.6310  175.4290  141.7010 O   0  0  0  0  0  0  0  0  0  0  0  0
  197.0720  173.4840  146.0080 C   0  0  0  0  0  2  0  0  0  0  0  0
  197.7480  170.9150  145.0640 C   0  0  0  0  0  1  0  0  0  0  0  0
  196.5110  171.7700  146.0510 S   0  0  2  0  0  0  0  0  0  0  0  0
  195.2870  171.7700  145.1470 O   0  0  0  0  0  0  0  0  0  0  0  0
  189.2560  175.1560  145.7960 C   0  0  0  0  0  2  0  0  0  0  0  0
  188.6900  175.2480  147.2050 C   0  0  0  0  0  2  0  0  0  0  0  0
  187.4880  176.0620  147.2060 N   0  0  0  0  0  1  0  0  0  0  0  0
  1 17  1  6  0  0  0
  2  1  1  0  0  0  0
  2 32  1  1  0  0  0
  3 10  1  1  0  0  0
  3  2  1  0  0  0  0
  3  1  1  0  0  0  0
  4  7  2  0  0  0  0
  5  9  1  0  0  0  0
  5  6  1  1  0  0  0
  7  9  1  0  0  0  0
  8 11  2  0  0  0  0
  8  4  1  0  0  0  0
  9  6  1  1  0  0  0
 10 11  1  6  0  0  0
 10  5  1  0  0  0  0
 12  4  1  0  0  0  0
 12 13  1  0  0  0  0
 14 15  1  0  0  0  0
 15 19  1  0  0  0  0
 15 16  1  0  0  0  0
 16 18  2  0  0  0  0
 17 16  1  0  0  0  0
 19 21  1  0  0  0  0
 20 31  1  6  0  0  0
 20 24  1  0  0  0  0
 20 21  1  0  0  0  0
 21 23  1  1  0  0  0
 21 22  1  0  0  0  0
 24 25  1  0  0  0  0
 25 22  1  0  0  0  0
 26 29  1  0  0  0  0
 27 31  1  0  0  0  0
 28 30  1  0  0  0  0
 28 26  2  0  0  0  0
 29 31  2  0  0  0  0
 30 27  2  0  0  0  0
 32 33  1  0  0  0  0
 33 34  1  1  0  0  0
 33 35  1  0  0  0  0
 35 37  1  0  0  0  0
 37 55  1  0  0  0  0
 37 38  1  0  0  0  0
 38 40  1  0  0  0  0
 38 36  2  0  0  0  0
 40 39  1  1  0  0  0
 41 44  1  0  0  0  0
 43 46  1  0  0  0  0
 44 48  2  0  0  0  0
 45 43  1  0  0  0  0
 46 40  1  0  0  0  0
 46 42  2  0  0  0  0
 47 43  2  0  0  0  0
 47 44  1  0  0  0  0
 48 42  1  0  0  0  0
 48 51  1  0  0  0  0
 49 50  1  0  0  0  0
 50 47  1  0  0  0  0
 51 53  1  0  0  0  0
 53 52  1  6  0  0  0
 54 53  2  0  0  0  0
 55 56  1  0  0  0  0
 56 57  1  0  0  0  0
M  END
>  <MODEL>
1

>  <REMARK>
 VINA RESULT:      -6.8      0.000      0.000
  Name = 
  17 active torsions:
  status: ('A' for Active; 'I' for Inactive)
    1  A    between atoms: C_5  and  O_8
    2  A    between atoms: N_7  and  C_11
    3  A    between atoms: C_11  and  C_30
    4  A    between atoms: C_12  and  N_47
    5  A    between atoms: C_12  and  C_55
    6  A    between atoms: C_14  and  C_24
    7  A    between atoms: C_14  and  C_35
    8  A    between atoms: N_16  and  C_44
    9  A    between atoms: N_16  and  C_55
   10  A    between atoms: C_19  and  C_57
   11  A    between atoms: C_22  and  N_41
   12  A    between atoms: C_33  and  C_44
   13  A    between atoms: S_34  and  C_43
   14  A    between atoms: C_38  and  N_47
   15  A    between atoms: C_39  and  O_48
   16  A    between atoms: C_43  and  C_45
   17  A    between atoms: C_50  and  C_52
                            x       y       z     vdW  Elec       q    Type
                         _______ _______ _______ _____ _____    ______ ____

>  <TORSDO>
F 17

$$$$
=
 OpenBabel11042417503D

 57 62  0  0  1  0  0  0  0  0999 V2000
  187.7180  175.5470  141.7540 C   0  0  1  0  0  3  0  0  0  0  0  0
  188.7670  176.6370  141.6920 C   0  0  1  0  0  3  0  0  0  0  0  0
  187.4740  176.7630  140.8810 C   0  0  2  0  0  3  0  0  0  0  0  0
  183.2300  178.3220  141.6240 C   0  0  0  0  0  0  0  0  0  0  0  0
  185.5760  176.9310  142.4940 C   0  0  1  0  0  3  0  0  0  0  0  0
  185.6230  177.0370  144.0100 C   0  0  0  0  0  2  0  0  0  0  0  0
  183.6120  178.1100  142.8590 N   0  0  0  0  0  0  0  0  0  0  0  0
  184.2010  178.5100  140.4800 C   0  0  0  0  0  3  0  0  0  0  0  0
  185.0160  178.1490  143.2070 C   0  0  2  0  0  3  0  0  0  0  0  0
  186.4280  177.6860  141.5070 C   0  0  2  0  0  3  0  0  0  0  0  0
  185.5300  178.2440  140.4130 C   0  0  0  0  0  3  0  0  0  0  0  0
  181.8580  178.3580  141.3690 O   0  0  0  0  0  0  0  0  0  0  0  0
  180.9630  179.1720  142.1100 C   0  0  0  0  0  1  0  0  0  0  0  0
  188.8240  172.1840  139.2460 C   0  0  0  0  0  1  0  0  0  0  0  0
  189.7220  172.6270  140.3040 N   0  0  0  0  0  0  0  0  0  0  0  0
  189.3600  173.7310  141.1460 C   0  0  0  0  0  0  0  0  0  0  0  0
  188.1360  174.4360  140.9170 N   0  0  0  0  0  2  0  0  0  0  0  0
  190.1190  174.0800  142.0910 O   0  0  0  0  0  0  0  0  0  0  0  0
  190.9130  171.8310  140.5890 C   0  0  0  0  0  2  0  0  0  0  0  0
  193.3070  171.7750  139.9770 C   0  0  1  0  0  3  0  0  0  0  0  0
  191.8970  171.7970  139.4160 C   0  0  1  0  0  0  0  0  0  0  0  0
  191.8080  170.4760  138.6700 C   0  0  0  0  0  2  0  0  0  0  0  0
  191.6300  172.9350  138.4340 C   0  0  0  0  0  1  0  0  0  0  0  0
  193.9450  170.5700  139.3310 C   0  0  0  0  0  2  0  0  0  0  0  0
  192.9190  169.6770  138.9990 O   0  0  0  0  0  0  0  0  0  0  0  0
  194.4820  175.3270  140.3010 C   0  0  0  0  0  3  0  0  0  0  0  0
  195.3160  172.9750  139.0920 C   0  0  0  0  0  3  0  0  0  0  0  0
  195.6740  175.3160  139.5720 C   0  0  0  0  0  3  0  0  0  0  0  0
  193.7400  174.1930  140.4110 N   0  0  0  0  0  0  0  0  0  0  0  0
  196.0910  174.1290  138.9670 C   0  0  0  0  0  3  0  0  0  0  0  0
  194.1240  173.0260  139.8160 C   0  0  0  0  0  0  0  0  0  0  0  0
  188.7340  177.3940  142.9380 N   0  0  0  0  0  2  0  0  0  0  0  0
  189.9130  177.0250  143.6980 C   0  0  1  0  0  3  0  0  0  0  0  0
  191.1560  177.4770  142.9560 C   0  0  0  0  0  1  0  0  0  0  0  0
  189.8380  177.6740  145.0760 C   0  0  0  0  0  2  0  0  0  0  0  0
  190.4850  175.1150  147.5980 O   0  0  0  0  0  0  0  0  0  0  0  0
  189.5840  176.6790  146.1130 N   0  0  0  0  0  0  0  0  0  0  0  0
  190.6780  176.1180  146.8590 C   0  0  0  0  0  0  0  0  0  0  0  0
  192.6130  176.8690  148.0260 O   0  0  0  0  0  1  0  0  0  0  0  0
  192.0570  176.7000  146.7560 C   0  0  1  0  0  3  0  0  0  0  0  0
  195.6340  173.3060  143.2160 Cl  0  0  0  0  0  0  0  0  0  0  0  0
  192.9220  174.4720  145.9900 C   0  0  0  0  0  3  0  0  0  0  0  0
  193.8120  176.4800  144.9680 C   0  0  0  0  0  0  0  0  0  0  0  0
  194.5970  174.2910  144.2480 C   0  0  0  0  0  0  0  0  0  0  0  0
  193.8510  177.8360  144.9090 F   0  0  0  0  0  0  0  0  0  0  0  0
  192.9520  175.8660  145.8900 C   0  0  0  0  0  0  0  0  0  0  0  0
  194.6330  175.6930  144.1270 C   0  0  0  0  0  0  0  0  0  0  0  0
  193.7420  173.6830  145.1830 C   0  0  0  0  0  0  0  0  0  0  0  0
  196.7720  176.7960  143.4470 C   0  0  0  0  0  1  0  0  0  0  0  0
  195.4900  176.2510  143.1650 O   0  0  0  0  0  0  0  0  0  0  0  0
  193.6760  172.1960  145.3270 C   0  0  0  0  0  2  0  0  0  0  0  0
  191.0360  171.8800  144.3920 C   0  0  0  0  0  1  0  0  0  0  0  0
  192.7360  171.4710  143.9700 S   0  0  2  0  0  0  0  0  0  0  0  0
  192.8090  169.9750  144.2420 O   0  0  0  0  0  0  0  0  0  0  0  0
  188.2100  176.2270  146.3300 C   0  0  0  0  0  2  0  0  0  0  0  0
  187.3990  177.2910  147.0520 C   0  0  0  0  0  2  0  0  0  0  0  0
  186.1370  176.7330  147.5060 N   0  0  0  0  0  1  0  0  0  0  0  0
  1 17  1  6  0  0  0
  2  1  1  0  0  0  0
  2 32  1  1  0  0  0
  3 10  1  1  0  0  0
  3  2  1  0  0  0  0
  3  1  1  0  0  0  0
  4  7  2  0  0  0  0
  5  9  1  0  0  0  0
  5  6  1  1  0  0  0
  7  9  1  0  0  0  0
  8  4  1  0  0  0  0
  9  6  1  1  0  0  0
 10 11  1  6  0  0  0
 10  5  1  0  0  0  0
 11  8  2  0  0  0  0
 12  4  1  0  0  0  0
 12 13  1  0  0  0  0
 14 15  1  0  0  0  0
 15 19  1  0  0  0  0
 15 16  1  0  0  0  0
 16 18  2  0  0  0  0
 17 16  1  0  0  0  0
 20 31  1  6  0  0  0
 21 23  1  6  0  0  0
 21 20  1  0  0  0  0
 21 19  1  0  0  0  0
 22 25  1  0  0  0  0
 22 21  1  0  0  0  0
 24 20  1  0  0  0  0
 25 24  1  0  0  0  0
 26 29  1  0  0  0  0
 27 31  1  0  0  0  0
 28 26  2  0  0  0  0
 30 27  2  0  0  0  0
 30 28  1  0  0  0  0
 31 29  2  0  0  0  0
 32 33  1  0  0  0  0
 33 34  1  6  0  0  0
 33 35  1  0  0  0  0
 35 37  1  0  0  0  0
 37 55  1  0  0  0  0
 37 38  1  0  0  0  0
 38 36  2  0  0  0  0
 40 38  1  0  0  0  0
 40 39  1  1  0  0  0
 41 44  1  0  0  0  0
 43 46  2  0  0  0  0
 44 48  1  0  0  0  0
 45 43  1  0  0  0  0
 46 42  1  0  0  0  0
 46 40  1  0  0  0  0
 47 44  2  0  0  0  0
 47 43  1  0  0  0  0
 48 51  1  0  0  0  0
 48 42  2  0  0  0  0
 50 49  1  0  0  0  0
 50 47  1  0  0  0  0
 53 54  2  0  0  0  0
 53 52  1  1  0  0  0
 53 51  1  0  0  0  0
 55 56  1  0  0  0  0
 56 57  1  0  0  0  0
M  END
>  <MODEL>
2

>  <REMARK>
 VINA RESULT:      -6.8      1.782      2.646
  Name = 
  17 active torsions:
  status: ('A' for Active; 'I' for Inactive)
    1  A    between atoms: C_5  and  O_8
    2  A    between atoms: N_7  and  C_11
    3  A    between atoms: C_11  and  C_30
    4  A    between atoms: C_12  and  N_47
    5  A    between atoms: C_12  and  C_55
    6  A    between atoms: C_14  and  C_24
    7  A    between atoms: C_14  and  C_35
    8  A    between atoms: N_16  and  C_44
    9  A    between atoms: N_16  and  C_55
   10  A    between atoms: C_19  and  C_57
   11  A    between atoms: C_22  and  N_41
   12  A    between atoms: C_33  and  C_44
   13  A    between atoms: S_34  and  C_43
   14  A    between atoms: C_38  and  N_47
   15  A    between atoms: C_39  and  O_48
   16  A    between atoms: C_43  and  C_45
   17  A    between atoms: C_50  and  C_52
                            x       y       z     vdW  Elec       q    Type
                         _______ _______ _______ _____ _____    ______ ____

>  <TORSDO>
F 17

$$$$
=
 OpenBabel11042417503D

 57 62  0  0  1  0  0  0  0  0999 V2000
  192.8330  173.3720  144.7660 C   0  0  1  0  0  3  0  0  0  0  0  0
  193.8950  174.1810  144.0520 C   0  0  1  0  0  3  0  0  0  0  0  0
  194.2790  173.2510  145.2070 C   0  0  2  0  0  3  0  0  0  0  0  0
  196.2400  169.1630  145.8620 C   0  0  0  0  0  0  0  0  0  0  0  0
  193.9800  170.7730  145.1610 C   0  0  1  0  0  3  0  0  0  0  0  0
  193.1030  169.9380  144.2420 C   0  0  0  0  0  2  0  0  0  0  0  0
  195.2050  168.8040  145.1440 N   0  0  0  0  0  0  0  0  0  0  0  0
  196.7890  170.5710  145.8750 C   0  0  0  0  0  3  0  0  0  0  0  0
  194.5890  169.7400  144.2300 C   0  0  2  0  0  3  0  0  0  0  0  0
  194.8770  171.9150  144.7640 C   0  0  2  0  0  3  0  0  0  0  0  0
  196.2320  171.7270  145.4290 C   0  0  0  0  0  3  0  0  0  0  0  0
  196.8430  168.1880  146.6600 O   0  0  0  0  0  0  0  0  0  0  0  0
  197.1350  168.3960  148.0330 C   0  0  0  0  0  1  0  0  0  0  0  0
  190.7930  175.8880  147.6510 C   0  0  0  0  0  1  0  0  0  0  0  0
  190.0560  175.3280  146.5280 N   0  0  0  0  0  0  0  0  0  0  0  0
  190.7180  174.4850  145.5740 C   0  0  0  0  0  0  0  0  0  0  0  0
  192.1220  174.2330  145.6940 N   0  0  0  0  0  2  0  0  0  0  0  0
  190.0650  173.9630  144.6300 O   0  0  0  0  0  0  0  0  0  0  0  0
  188.6070  175.5100  146.4820 C   0  0  0  0  0  2  0  0  0  0  0  0
  186.8970  176.7750  145.2230 C   0  0  1  0  0  3  0  0  0  0  0  0
  188.2010  176.9020  145.9910 C   0  0  1  0  0  0  0  0  0  0  0  0
  187.8220  177.8010  147.1550 C   0  0  0  0  0  2  0  0  0  0  0  0
  189.3300  177.5650  145.2040 C   0  0  0  0  0  1  0  0  0  0  0  0
  185.9760  177.7660  145.8890 C   0  0  0  0  0  2  0  0  0  0  0  0
  186.4230  177.9380  147.2060 O   0  0  0  0  0  0  0  0  0  0  0  0
  187.5040  176.0910  141.5800 C   0  0  0  0  0  3  0  0  0  0  0  0
  186.4610  178.1190  143.1580 C   0  0  0  0  0  3  0  0  0  0  0  0
  187.0210  177.2530  140.9720 C   0  0  0  0  0  3  0  0  0  0  0  0
  187.4630  175.9620  142.9340 N   0  0  0  0  0  0  0  0  0  0  0  0
  186.4950  178.2710  141.7710 C   0  0  0  0  0  3  0  0  0  0  0  0
  186.9640  176.9500  143.7310 C   0  0  0  0  0  0  0  0  0  0  0  0
  194.1350  173.5910  142.7410 N   0  0  0  0  0  2  0  0  0  0  0  0
  193.2120  174.2140  141.8110 C   0  0  1  0  0  3  0  0  0  0  0  0
  193.8670  175.4300  141.1850 C   0  0  0  0  0  1  0  0  0  0  0  0
  192.8220  173.1970  140.7440 C   0  0  0  0  0  2  0  0  0  0  0  0
  190.0930  173.7320  138.3780 O   0  0  0  0  0  0  0  0  0  0  0  0
  191.4750  173.4530  140.2420 N   0  0  0  0  0  0  0  0  0  0  0  0
  191.1880  173.3110  138.8400 C   0  0  0  0  0  0  0  0  0  0  0  0
  191.5360  171.9120  136.9450 O   0  0  0  0  0  1  0  0  0  0  0  0
  192.1850  172.6830  137.9110 C   0  0  1  0  0  3  0  0  0  0  0  0
  195.7940  176.7880  135.2710 Cl  0  0  0  0  0  0  0  0  0  0  0  0
  194.4200  173.7890  137.6210 C   0  0  0  0  0  3  0  0  0  0  0  0
  192.5500  174.5780  136.2980 C   0  0  0  0  0  0  0  0  0  0  0  0
  194.7460  175.5980  136.0420 C   0  0  0  0  0  0  0  0  0  0  0  0
  191.2300  174.5050  135.9910 F   0  0  0  0  0  0  0  0  0  0  0  0
  193.0700  173.7080  137.2670 C   0  0  0  0  0  0  0  0  0  0  0  0
  193.3920  175.5220  135.6650 C   0  0  0  0  0  0  0  0  0  0  0  0
  195.2570  174.7310  137.0220 C   0  0  0  0  0  0  0  0  0  0  0  0
  192.3890  177.6870  134.9130 C   0  0  0  0  0  1  0  0  0  0  0  0
  192.9340  176.3980  134.6680 O   0  0  0  0  0  0  0  0  0  0  0  0
  196.6930  174.7810  137.4360 C   0  0  0  0  0  2  0  0  0  0  0  0
  197.9370  175.5880  139.8340 C   0  0  0  0  0  1  0  0  0  0  0  0
  196.8690  174.3040  139.1660 S   0  0  2  0  0  0  0  0  0  0  0  0
  197.7830  173.0880  139.1120 O   0  0  0  0  0  0  0  0  0  0  0  0
  190.4520  173.9090  141.1820 C   0  0  0  0  0  2  0  0  0  0  0  0
  189.4660  172.7930  141.4920 C   0  0  0  0  0  2  0  0  0  0  0  0
  190.1730  171.6310  142.0000 N   0  0  0  0  0  1  0  0  0  0  0  0
  1  3  1  0  0  0  0
  1 17  1  1  0  0  0
  2 32  1  6  0  0  0
  2  1  1  0  0  0  0
  2  3  1  0  0  0  0
  3 10  1  6  0  0  0
  4  8  1  0  0  0  0
  4 12  1  0  0  0  0
  5  6  1  6  0  0  0
  7  4  2  0  0  0  0
  9  6  1  1  0  0  0
  9  7  1  0  0  0  0
  9  5  1  0  0  0  0
 10  5  1  0  0  0  0
 10 11  1  1  0  0  0
 11  8  2  0  0  0  0
 12 13  1  0  0  0  0
 15 14  1  0  0  0  0
 16 17  1  0  0  0  0
 16 15  1  0  0  0  0
 18 16  2  0  0  0  0
 19 15  1  0  0  0  0
 20 31  1  6  0  0  0
 20 24  1  0  0  0  0
 20 21  1  0  0  0  0
 21 23  1  6  0  0  0
 21 19  1  0  0  0  0
 21 22  1  0  0  0  0
 22 25  1  0  0  0  0
 24 25  1  0  0  0  0
 26 29  1  0  0  0  0
 27 31  1  0  0  0  0
 28 26  2  0  0  0  0
 28 30  1  0  0  0  0
 29 31  2  0  0  0  0
 30 27  2  0  0  0  0
 33 34  1  6  0  0  0
 33 32  1  0  0  0  0
 35 33  1  0  0  0  0
 36 38  2  0  0  0  0
 37 35  1  0  0  0  0
 37 55  1  0  0  0  0
 38 37  1  0  0  0  0
 40 39  1  6  0  0  0
 40 38  1  0  0  0  0
 41 44  1  0  0  0  0
 43 46  2  0  0  0  0
 44 48  1  0  0  0  0
 45 43  1  0  0  0  0
 46 42  1  0  0  0  0
 46 40  1  0  0  0  0
 47 44  2  0  0  0  0
 47 43  1  0  0  0  0
 48 51  1  0  0  0  0
 48 42  2  0  0  0  0
 50 49  1  0  0  0  0
 50 47  1  0  0  0  0
 51 53  1  0  0  0  0
 53 52  1  1  0  0  0
 54 53  2  0  0  0  0
 55 56  1  0  0  0  0
 56 57  1  0  0  0  0
M  END
>  <MODEL>
3

>  <REMARK>
 VINA RESULT:      -6.4      3.736      9.372
  Name = 
  17 active torsions:
  status: ('A' for Active; 'I' for Inactive)
    1  A    between atoms: C_5  and  O_8
    2  A    between atoms: N_7  and  C_11
    3  A    between atoms: C_11  and  C_30
    4  A    between atoms: C_12  and  N_47
    5  A    between atoms: C_12  and  C_55
    6  A    between atoms: C_14  and  C_24
    7  A    between atoms: C_14  and  C_35
    8  A    between atoms: N_16  and  C_44
    9  A    between atoms: N_16  and  C_55
   10  A    between atoms: C_19  and  C_57
   11  A    between atoms: C_22  and  N_41
   12  A    between atoms: C_33  and  C_44
   13  A    between atoms: S_34  and  C_43
   14  A    between atoms: C_38  and  N_47
   15  A    between atoms: C_39  and  O_48
   16  A    between atoms: C_43  and  C_45
   17  A    between atoms: C_50  and  C_52
                            x       y       z     vdW  Elec       q    Type
                         _______ _______ _______ _____ _____    ______ ____

>  <TORSDO>
F 17

$$$$
=
 OpenBabel11042417503D

 57 62  0  0  1  0  0  0  0  0999 V2000
  188.7130  174.9290  142.8050 C   0  0  1  0  0  3  0  0  0  0  0  0
  189.8050  175.9780  142.8510 C   0  0  1  0  0  3  0  0  0  0  0  0
  188.7150  176.0450  141.7770 C   0  0  2  0  0  3  0  0  0  0  0  0
  184.6280  178.0200  141.1580 C   0  0  0  0  0  0  0  0  0  0  0  0
  186.4130  176.3810  142.6820 C   0  0  1  0  0  3  0  0  0  0  0  0
  185.9630  176.4570  144.1320 C   0  0  0  0  0  2  0  0  0  0  0  0
  184.5560  177.7500  142.4380 N   0  0  0  0  0  0  0  0  0  0  0  0
  185.9360  178.1250  140.4080 C   0  0  0  0  0  3  0  0  0  0  0  0
  185.7610  177.6380  143.2300 C   0  0  2  0  0  3  0  0  0  0  0  0
  187.6100  177.0600  142.0690 C   0  0  2  0  0  3  0  0  0  0  0  0
  187.1830  177.7250  140.7690 C   0  0  0  0  0  3  0  0  0  0  0  0
  183.4280  178.2010  140.4670 O   0  0  0  0  0  0  0  0  0  0  0  0
  182.1670  178.2290  141.1170 C   0  0  0  0  0  1  0  0  0  0  0  0
  190.4160  171.3430  141.0570 C   0  0  0  0  0  1  0  0  0  0  0  0
  189.4720  172.1440  140.2920 N   0  0  0  0  0  0  0  0  0  0  0  0
  188.9110  173.3380  140.8570 C   0  0  0  0  0  0  0  0  0  0  0  0
  189.2400  173.7200  142.1970 N   0  0  0  0  0  2  0  0  0  0  0  0
  188.1300  174.0550  140.1740 O   0  0  0  0  0  0  0  0  0  0  0  0
  189.2310  171.7970  138.8940 C   0  0  0  0  0  2  0  0  0  0  0  0
  190.8170  171.3870  137.0440 C   0  0  1  0  0  3  0  0  0  0  0  0
  190.2260  172.4620  137.9390 C   0  0  1  0  0  0  0  0  0  0  0  0
  189.5110  173.3700  136.9530 C   0  0  0  0  0  2  0  0  0  0  0  0
  191.2640  173.2830  138.7020 C   0  0  0  0  0  1  0  0  0  0  0  0
  190.5710  171.8940  135.6440 C   0  0  0  0  0  2  0  0  0  0  0  0
  189.4590  172.7440  135.6940 O   0  0  0  0  0  0  0  0  0  0  0  0
  194.5630  171.2850  136.7870 C   0  0  0  0  0  3  0  0  0  0  0  0
  192.5600  170.1010  138.2970 C   0  0  0  0  0  3  0  0  0  0  0  0
  194.9070  170.3660  137.7830 C   0  0  0  0  0  3  0  0  0  0  0  0
  193.2560  171.5890  136.5630 N   0  0  0  0  0  0  0  0  0  0  0  0
  193.8940  169.7750  138.5420 C   0  0  0  0  0  3  0  0  0  0  0  0
  192.2530  171.0120  137.2850 C   0  0  0  0  0  0  0  0  0  0  0  0
  189.5540  176.8710  143.9760 N   0  0  0  0  0  2  0  0  0  0  0  0
  190.8420  177.3310  144.4580 C   0  0  1  0  0  3  0  0  0  0  0  0
  191.1570  178.6840  143.8490 C   0  0  0  0  0  1  0  0  0  0  0  0
  190.8000  177.4180  145.9800 C   0  0  0  0  0  2  0  0  0  0  0  0
  192.8860  174.4980  146.6460 O   0  0  0  0  0  0  0  0  0  0  0  0
  191.2590  176.1750  146.5910 N   0  0  0  0  0  0  0  0  0  0  0  0
  192.5710  175.6660  146.2920 C   0  0  0  0  0  0  0  0  0  0  0  0
  194.3320  177.2630  146.4330 O   0  0  0  0  0  1  0  0  0  0  0  0
  193.5680  176.5020  145.5450 C   0  0  1  0  0  3  0  0  0  0  0  0
  197.1100  173.0710  142.0060 Cl  0  0  0  0  0  0  0  0  0  0  0  0
  195.5260  174.9650  145.2160 C   0  0  0  0  0  3  0  0  0  0  0  0
  194.1880  175.5770  143.2900 C   0  0  0  0  0  0  0  0  0  0  0  0
  196.0840  174.0700  143.0340 C   0  0  0  0  0  0  0  0  0  0  0  0
  193.1590  176.2910  142.7690 F   0  0  0  0  0  0  0  0  0  0  0  0
  194.4490  175.6670  144.6650 C   0  0  0  0  0  0  0  0  0  0  0  0
  194.9990  174.7620  142.4650 C   0  0  0  0  0  0  0  0  0  0  0  0
  196.3470  174.1750  144.4100 C   0  0  0  0  0  0  0  0  0  0  0  0
  195.1370  175.5600  140.0980 C   0  0  0  0  0  1  0  0  0  0  0  0
  194.7670  174.6100  141.0890 O   0  0  0  0  0  0  0  0  0  0  0  0
  197.4870  173.4450  145.0450 C   0  0  0  0  0  2  0  0  0  0  0  0
  197.9400  170.6700  144.8450 C   0  0  0  0  0  1  0  0  0  0  0  0
  196.9280  171.8700  145.7220 S   0  0  2  0  0  0  0  0  0  0  0  0
  195.5510  171.6810  145.1020 O   0  0  0  0  0  0  0  0  0  0  0  0
  190.3410  175.4380  147.4570 C   0  0  0  0  0  2  0  0  0  0  0  0
  189.1420  174.9340  146.6690 C   0  0  0  0  0  2  0  0  0  0  0  0
  187.9570  175.6950  147.0240 N   0  0  0  0  0  1  0  0  0  0  0  0
  1 17  1  6  0  0  0
  1  2  1  0  0  0  0
  2 32  1  1  0  0  0
  3 10  1  1  0  0  0
  3  1  1  0  0  0  0
  3  2  1  0  0  0  0
  4  7  2  0  0  0  0
  5  9  1  0  0  0  0
  5  6  1  1  0  0  0
  7  9  1  0  0  0  0
  8 11  2  0  0  0  0
  8  4  1  0  0  0  0
  9  6  1  1  0  0  0
 10 11  1  6  0  0  0
 10  5  1  0  0  0  0
 12 13  1  0  0  0  0
 12  4  1  0  0  0  0
 15 16  1  0  0  0  0
 15 14  1  0  0  0  0
 16 17  1  0  0  0  0
 18 16  2  0  0  0  0
 19 15  1  0  0  0  0
 20 31  1  1  0  0  0
 20 21  1  0  0  0  0
 21 23  1  1  0  0  0
 21 19  1  0  0  0  0
 22 21  1  0  0  0  0
 24 25  1  0  0  0  0
 24 20  1  0  0  0  0
 25 22  1  0  0  0  0
 26 28  1  0  0  0  0
 27 30  1  0  0  0  0
 28 30  2  0  0  0  0
 29 26  2  0  0  0  0
 29 31  1  0  0  0  0
 31 27  2  0  0  0  0
 32 33  1  0  0  0  0
 33 34  1  6  0  0  0
 33 35  1  0  0  0  0
 35 37  1  0  0  0  0
 37 55  1  0  0  0  0
 38 37  1  0  0  0  0
 38 36  2  0  0  0  0
 40 38  1  0  0  0  0
 40 39  1  1  0  0  0
 41 44  1  0  0  0  0
 43 46  2  0  0  0  0
 44 48  1  0  0  0  0
 45 43  1  0  0  0  0
 46 42  1  0  0  0  0
 46 40  1  0  0  0  0
 47 44  2  0  0  0  0
 47 43  1  0  0  0  0
 48 51  1  0  0  0  0
 48 42  2  0  0  0  0
 49 50  1  0  0  0  0
 50 47  1  0  0  0  0
 51 53  1  0  0  0  0
 53 52  1  6  0  0  0
 54 53  2  0  0  0  0
 56 57  1  0  0  0  0
 56 55  1  0  0  0  0
M  END
>  <MODEL>
4

>  <REMARK>
 VINA RESULT:      -6.2      1.785      2.383
  Name = 
  17 active torsions:
  status: ('A' for Active; 'I' for Inactive)
    1  A    between atoms: C_5  and  O_8
    2  A    between atoms: N_7  and  C_11
    3  A    between atoms: C_11  and  C_30
    4  A    between atoms: C_12  and  N_47
    5  A    between atoms: C_12  and  C_55
    6  A    between atoms: C_14  and  C_24
    7  A    between atoms: C_14  and  C_35
    8  A    between atoms: N_16  and  C_44
    9  A    between atoms: N_16  and  C_55
   10  A    between atoms: C_19  and  C_57
   11  A    between atoms: C_22  and  N_41
   12  A    between atoms: C_33  and  C_44
   13  A    between atoms: S_34  and  C_43
   14  A    between atoms: C_38  and  N_47
   15  A    between atoms: C_39  and  O_48
   16  A    between atoms: C_43  and  C_45
   17  A    between atoms: C_50  and  C_52
                            x       y       z     vdW  Elec       q    Type
                         _______ _______ _______ _____ _____    ______ ____

>  <TORSDO>
F 17

$$$$
=
 OpenBabel11042417503D

 57 62  0  0  1  0  0  0  0  0999 V2000
  187.5800  176.0740  142.4200 C   0  0  1  0  0  3  0  0  0  0  0  0
  188.3030  177.3970  142.5610 C   0  0  1  0  0  3  0  0  0  0  0  0
  186.7930  177.3660  142.3070 C   0  0  2  0  0  3  0  0  0  0  0  0
  186.0910  177.9850  146.7910 C   0  0  0  0  0  0  0  0  0  0  0  0
  186.1770  178.9800  144.1090 C   0  0  1  0  0  3  0  0  0  0  0  0
  185.2280  180.1650  144.0400 C   0  0  0  0  0  2  0  0  0  0  0  0
  185.4770  179.0410  146.3190 N   0  0  0  0  0  0  0  0  0  0  0  0
  186.3680  176.7510  145.9630 C   0  0  0  0  0  3  0  0  0  0  0  0
  184.9340  179.0330  144.9780 C   0  0  2  0  0  3  0  0  0  0  0  0
  185.9420  177.5990  143.5550 C   0  0  2  0  0  3  0  0  0  0  0  0
  186.3180  176.5760  144.6170 C   0  0  0  0  0  3  0  0  0  0  0  0
  186.5160  178.0240  148.1210 O   0  0  0  0  0  0  0  0  0  0  0  0
  187.0850  179.1840  148.7090 C   0  0  0  0  0  1  0  0  0  0  0  0
  188.1700  174.5660  138.3950 C   0  0  0  0  0  1  0  0  0  0  0  0
  188.4270  173.7020  139.5380 N   0  0  0  0  0  0  0  0  0  0  0  0
  188.2250  174.1880  140.8740 C   0  0  0  0  0  0  0  0  0  0  0  0
  187.8170  175.5420  141.0890 N   0  0  0  0  0  2  0  0  0  0  0  0
  188.4040  173.4210  141.8590 O   0  0  0  0  0  0  0  0  0  0  0  0
  188.7410  172.2960  139.2960 C   0  0  0  0  0  2  0  0  0  0  0  0
  190.6490  170.8210  139.8350 C   0  0  1  0  0  3  0  0  0  0  0  0
  190.2330  172.0550  139.0540 C   0  0  1  0  0  0  0  0  0  0  0  0
  190.4920  171.6480  137.6140 C   0  0  0  0  0  2  0  0  0  0  0  0
  191.0550  173.3040  139.3690 C   0  0  0  0  0  1  0  0  0  0  0  0
  191.2950  169.9300  138.8030 C   0  0  0  0  0  2  0  0  0  0  0  0
  190.7520  170.2670  137.5570 O   0  0  0  0  0  0  0  0  0  0  0  0
  193.6730  171.3380  142.0030 C   0  0  0  0  0  3  0  0  0  0  0  0
  190.9170  171.2210  142.2910 C   0  0  0  0  0  3  0  0  0  0  0  0
  193.1080  171.5110  143.2690 C   0  0  0  0  0  3  0  0  0  0  0  0
  192.8740  171.1110  140.9250 N   0  0  0  0  0  0  0  0  0  0  0  0
  191.7200  171.4540  143.4080 C   0  0  0  0  0  3  0  0  0  0  0  0
  191.5170  171.0400  141.0430 C   0  0  0  0  0  0  0  0  0  0  0  0
  188.6410  177.6020  143.9650 N   0  0  0  0  0  2  0  0  0  0  0  0
  190.0620  177.3470  144.1090 C   0  0  1  0  0  3  0  0  0  0  0  0
  190.8380  178.2840  143.2030 C   0  0  0  0  0  1  0  0  0  0  0  0
  190.4570  177.5520  145.5670 C   0  0  0  0  0  2  0  0  0  0  0  0
  192.3640  174.5770  146.4830 O   0  0  0  0  0  0  0  0  0  0  0  0
  190.7900  176.2820  146.2040 N   0  0  0  0  0  0  0  0  0  0  0  0
  192.1280  175.7610  146.1210 C   0  0  0  0  0  0  0  0  0  0  0  0
  193.9220  177.2420  146.6340 O   0  0  0  0  0  1  0  0  0  0  0  0
  193.2490  176.6050  145.5890 C   0  0  1  0  0  3  0  0  0  0  0  0
  197.0840  173.3140  142.2270 Cl  0  0  0  0  0  0  0  0  0  0  0  0
  195.3090  175.1910  145.3460 C   0  0  0  0  0  3  0  0  0  0  0  0
  193.9780  175.6580  143.3760 C   0  0  0  0  0  0  0  0  0  0  0  0
  195.9730  174.2720  143.2040 C   0  0  0  0  0  0  0  0  0  0  0  0
  192.9170  176.2880  142.8120 F   0  0  0  0  0  0  0  0  0  0  0  0
  194.2020  175.8050  144.7530 C   0  0  0  0  0  0  0  0  0  0  0  0
  194.8580  174.8750  142.5920 C   0  0  0  0  0  0  0  0  0  0  0  0
  196.1980  174.4340  144.5820 C   0  0  0  0  0  0  0  0  0  0  0  0
  195.1570  175.5280  140.1960 C   0  0  0  0  0  1  0  0  0  0  0  0
  194.6670  174.6680  141.2170 O   0  0  0  0  0  0  0  0  0  0  0  0
  197.3680  173.7990  145.2610 C   0  0  0  0  0  2  0  0  0  0  0  0
  197.6200  171.0160  144.8850 C   0  0  0  0  0  1  0  0  0  0  0  0
  196.8910  172.2250  146.0000 S   0  0  2  0  0  0  0  0  0  0  0  0
  195.4030  172.1220  145.6970 O   0  0  0  0  0  0  0  0  0  0  0  0
  189.7270  175.5320  146.8710 C   0  0  0  0  0  2  0  0  0  0  0  0
  189.5920  174.1390  146.2740 C   0  0  0  0  0  2  0  0  0  0  0  0
  189.3400  174.2310  144.8470 N   0  0  0  0  0  1  0  0  0  0  0  0
  1 17  1  6  0  0  0
  1  2  1  0  0  0  0
  2 32  1  1  0  0  0
  3  1  1  0  0  0  0
  3  2  1  0  0  0  0
  3 10  1  1  0  0  0
  4 12  1  0  0  0  0
  5  6  1  6  0  0  0
  5  9  1  0  0  0  0
  7  4  2  0  0  0  0
  8  4  1  0  0  0  0
  9  6  1  6  0  0  0
  9  7  1  0  0  0  0
 10  5  1  0  0  0  0
 10 11  1  1  0  0  0
 11  8  2  0  0  0  0
 12 13  1  0  0  0  0
 14 15  1  0  0  0  0
 15 16  1  0  0  0  0
 16 17  1  0  0  0  0
 16 18  2  0  0  0  0
 19 15  1  0  0  0  0
 20 31  1  1  0  0  0
 21 19  1  0  0  0  0
 21 23  1  1  0  0  0
 21 20  1  0  0  0  0
 22 21  1  0  0  0  0
 24 20  1  0  0  0  0
 25 22  1  0  0  0  0
 25 24  1  0  0  0  0
 26 28  1  0  0  0  0
 27 30  1  0  0  0  0
 28 30  2  0  0  0  0
 29 31  1  0  0  0  0
 29 26  2  0  0  0  0
 31 27  2  0  0  0  0
 32 33  1  0  0  0  0
 33 34  1  6  0  0  0
 33 35  1  0  0  0  0
 35 37  1  0  0  0  0
 37 55  1  0  0  0  0
 38 37  1  0  0  0  0
 38 36  2  0  0  0  0
 40 38  1  0  0  0  0
 40 39  1  1  0  0  0
 41 44  1  0  0  0  0
 43 46  2  0  0  0  0
 44 48  1  0  0  0  0
 45 43  1  0  0  0  0
 46 42  1  0  0  0  0
 46 40  1  0  0  0  0
 47 44  2  0  0  0  0
 47 43  1  0  0  0  0
 48 51  1  0  0  0  0
 48 42  2  0  0  0  0
 49 50  1  0  0  0  0
 50 47  1  0  0  0  0
 51 53  1  0  0  0  0
 53 52  1  6  0  0  0
 54 53  2  0  0  0  0
 56 55  1  0  0  0  0
 57 56  1  0  0  0  0
M  END
>  <MODEL>
5

>  <REMARK>
 VINA RESULT:      -6.0      1.986      3.175
  Name = 
  17 active torsions:
  status: ('A' for Active; 'I' for Inactive)
    1  A    between atoms: C_5  and  O_8
    2  A    between atoms: N_7  and  C_11
    3  A    between atoms: C_11  and  C_30
    4  A    between atoms: C_12  and  N_47
    5  A    between atoms: C_12  and  C_55
    6  A    between atoms: C_14  and  C_24
    7  A    between atoms: C_14  and  C_35
    8  A    between atoms: N_16  and  C_44
    9  A    between atoms: N_16  and  C_55
   10  A    between atoms: C_19  and  C_57
   11  A    between atoms: C_22  and  N_41
   12  A    between atoms: C_33  and  C_44
   13  A    between atoms: S_34  and  C_43
   14  A    between atoms: C_38  and  N_47
   15  A    between atoms: C_39  and  O_48
   16  A    between atoms: C_43  and  C_45
   17  A    between atoms: C_50  and  C_52
                            x       y       z     vdW  Elec       q    Type
                         _______ _______ _______ _____ _____    ______ ____

>  <TORSDO>
F 17

$$$$
=
 OpenBabel11042417503D

 57 62  0  0  1  0  0  0  0  0999 V2000
  187.8350  175.6090  141.3110 C   0  0  1  0  0  3  0  0  0  0  0  0
  188.9060  176.6700  141.4550 C   0  0  1  0  0  3  0  0  0  0  0  0
  187.6020  176.9860  140.7180 C   0  0  2  0  0  3  0  0  0  0  0  0
  183.3970  178.2850  141.9920 C   0  0  0  0  0  0  0  0  0  0  0  0
  185.8320  176.8600  142.4740 C   0  0  1  0  0  3  0  0  0  0  0  0
  185.9940  176.7470  143.9810 C   0  0  0  0  0  2  0  0  0  0  0  0
  183.8780  177.9100  143.1510 N   0  0  0  0  0  0  0  0  0  0  0  0
  184.2720  178.6670  140.8190 C   0  0  0  0  0  3  0  0  0  0  0  0
  185.3030  177.9430  143.3970 C   0  0  2  0  0  3  0  0  0  0  0  0
  186.5890  177.7750  141.5480 C   0  0  2  0  0  3  0  0  0  0  0  0
  185.5980  178.4560  140.6160 C   0  0  0  0  0  3  0  0  0  0  0  0
  182.0080  178.3140  141.8470 O   0  0  0  0  0  0  0  0  0  0  0  0
  181.3730  178.3680  140.5800 C   0  0  0  0  0  1  0  0  0  0  0  0
  188.8510  172.9250  138.0590 C   0  0  0  0  0  1  0  0  0  0  0  0
  189.0010  172.4830  139.4370 N   0  0  0  0  0  0  0  0  0  0  0  0
  188.6570  173.3590  140.5200 C   0  0  0  0  0  0  0  0  0  0  0  0
  188.2130  174.6920  140.2500 N   0  0  0  0  0  2  0  0  0  0  0  0
  188.7420  172.9550  141.7120 O   0  0  0  0  0  0  0  0  0  0  0  0
  189.3540  171.0880  139.6910 C   0  0  0  0  0  2  0  0  0  0  0  0
  191.1610  169.8650  140.8500 C   0  0  1  0  0  3  0  0  0  0  0  0
  190.8670  170.8600  139.7420 C   0  0  1  0  0  0  0  0  0  0  0  0
  191.3510  170.1360  138.4980 C   0  0  0  0  0  2  0  0  0  0  0  0
  191.6230  172.1810  139.8680 C   0  0  0  0  0  1  0  0  0  0  0  0
  191.9650  168.7820  140.1730 C   0  0  0  0  0  2  0  0  0  0  0  0
  191.6230  168.7920  138.8140 O   0  0  0  0  0  0  0  0  0  0  0  0
  193.7730  170.6540  143.4310 C   0  0  0  0  0  3  0  0  0  0  0  0
  191.0930  171.1980  142.9670 C   0  0  0  0  0  3  0  0  0  0  0  0
  193.0670  171.4460  144.3400 C   0  0  0  0  0  3  0  0  0  0  0  0
  193.1470  170.1540  142.3320 N   0  0  0  0  0  0  0  0  0  0  0  0
  191.7180  171.7190  144.1010 C   0  0  0  0  0  3  0  0  0  0  0  0
  191.8270  170.3990  142.0880 C   0  0  0  0  0  0  0  0  0  0  0  0
  188.9140  177.1470  142.8330 N   0  0  0  0  0  2  0  0  0  0  0  0
  189.8390  176.3120  143.5750 C   0  0  1  0  0  3  0  0  0  0  0  0
  190.8000  175.6410  142.6110 C   0  0  0  0  0  1  0  0  0  0  0  0
  190.5930  177.1770  144.5790 C   0  0  0  0  0  2  0  0  0  0  0  0
  192.3690  175.3220  147.1740 O   0  0  0  0  0  0  0  0  0  0  0  0
  190.8320  176.4510  145.8220 N   0  0  0  0  0  0  0  0  0  0  0  0
  192.1750  176.1240  146.2210 C   0  0  0  0  0  0  0  0  0  0  0  0
  194.1340  177.4680  146.3800 O   0  0  0  0  0  1  0  0  0  0  0  0
  193.3540  176.7130  145.5030 C   0  0  1  0  0  3  0  0  0  0  0  0
  196.7320  172.4880  142.7480 Cl  0  0  0  0  0  0  0  0  0  0  0  0
  193.9900  175.3790  143.4730 C   0  0  0  0  0  3  0  0  0  0  0  0
  195.1570  174.9590  145.5540 C   0  0  0  0  0  0  0  0  0  0  0  0
  195.7470  173.7130  143.5480 C   0  0  0  0  0  0  0  0  0  0  0  0
  195.3050  175.2210  146.8780 F   0  0  0  0  0  0  0  0  0  0  0  0
  194.1810  175.6590  144.8290 C   0  0  0  0  0  0  0  0  0  0  0  0
  195.9600  173.9880  144.9120 C   0  0  0  0  0  0  0  0  0  0  0  0
  194.7590  174.4080  142.8310 C   0  0  0  0  0  0  0  0  0  0  0  0
  196.8130  171.9830  146.1400 C   0  0  0  0  0  1  0  0  0  0  0  0
  196.9710  173.2790  145.5790 O   0  0  0  0  0  0  0  0  0  0  0  0
  194.5170  174.1440  141.3800 C   0  0  0  0  0  2  0  0  0  0  0  0
  196.6110  176.0220  141.5650 C   0  0  0  0  0  1  0  0  0  0  0  0
  195.5360  175.2280  140.3620 S   0  0  2  0  0  0  0  0  0  0  0  0
  194.5820  176.3450  139.9610 O   0  0  0  0  0  0  0  0  0  0  0  0
  189.6820  176.0170  146.6140 C   0  0  0  0  0  2  0  0  0  0  0  0
  188.7570  177.1880  146.9100 C   0  0  0  0  0  2  0  0  0  0  0  0
  187.4130  176.7060  147.1770 N   0  0  0  0  0  1  0  0  0  0  0  0
  1 17  1  6  0  0  0
  1  2  1  0  0  0  0
  2 32  1  1  0  0  0
  3  1  1  0  0  0  0
  3  2  1  0  0  0  0
  3 10  1  1  0  0  0
  4  7  2  0  0  0  0
  5  9  1  0  0  0  0
  5  6  1  1  0  0  0
  7  9  1  0  0  0  0
  8  4  1  0  0  0  0
  9  6  1  1  0  0  0
 10 11  1  6  0  0  0
 10  5  1  0  0  0  0
 11  8  2  0  0  0  0
 12  4  1  0  0  0  0
 13 12  1  0  0  0  0
 14 15  1  0  0  0  0
 15 19  1  0  0  0  0
 15 16  1  0  0  0  0
 16 18  2  0  0  0  0
 17 16  1  0  0  0  0
 19 21  1  0  0  0  0
 20 31  1  1  0  0  0
 21 23  1  1  0  0  0
 21 20  1  0  0  0  0
 22 25  1  0  0  0  0
 22 21  1  0  0  0  0
 24 20  1  0  0  0  0
 25 24  1  0  0  0  0
 26 28  1  0  0  0  0
 27 30  1  0  0  0  0
 29 26  2  0  0  0  0
 30 28  2  0  0  0  0
 31 29  1  0  0  0  0
 31 27  2  0  0  0  0
 32 33  1  0  0  0  0
 33 34  1  6  0  0  0
 33 35  1  0  0  0  0
 35 37  1  0  0  0  0
 37 38  1  0  0  0  0
 37 55  1  0  0  0  0
 38 36  2  0  0  0  0
 40 38  1  0  0  0  0
 40 39  1  1  0  0  0
 41 44  1  0  0  0  0
 42 46  1  0  0  0  0
 43 45  1  0  0  0  0
 44 47  2  0  0  0  0
 46 40  1  0  0  0  0
 46 43  2  0  0  0  0
 47 43  1  0  0  0  0
 47 50  1  0  0  0  0
 48 42  2  0  0  0  0
 48 44  1  0  0  0  0
 50 49  1  0  0  0  0
 51 48  1  0  0  0  0
 53 51  1  0  0  0  0
 53 52  1  1  0  0  0
 54 53  2  0  0  0  0
 55 56  1  0  0  0  0
 56 57  1  0  0  0  0
M  END
>  <MODEL>
6

>  <REMARK>
 VINA RESULT:      -5.7      1.849      3.212
  Name = 
  17 active torsions:
  status: ('A' for Active; 'I' for Inactive)
    1  A    between atoms: C_5  and  O_8
    2  A    between atoms: N_7  and  C_11
    3  A    between atoms: C_11  and  C_30
    4  A    between atoms: C_12  and  N_47
    5  A    between atoms: C_12  and  C_55
    6  A    between atoms: C_14  and  C_24
    7  A    between atoms: C_14  and  C_35
    8  A    between atoms: N_16  and  C_44
    9  A    between atoms: N_16  and  C_55
   10  A    between atoms: C_19  and  C_57
   11  A    between atoms: C_22  and  N_41
   12  A    between atoms: C_33  and  C_44
   13  A    between atoms: S_34  and  C_43
   14  A    between atoms: C_38  and  N_47
   15  A    between atoms: C_39  and  O_48
   16  A    between atoms: C_43  and  C_45
   17  A    between atoms: C_50  and  C_52
                            x       y       z     vdW  Elec       q    Type
                         _______ _______ _______ _____ _____    ______ ____

>  <TORSDO>
F 17

$$$$
=
 OpenBabel11042417503D

 57 62  0  0  1  0  0  0  0  0999 V2000
  188.9970  175.3430  142.3700 C   0  0  1  0  0  3  0  0  0  0  0  0
  190.3990  175.9110  142.4410 C   0  0  1  0  0  3  0  0  0  0  0  0
  189.1910  176.7950  142.7630 C   0  0  2  0  0  3  0  0  0  0  0  0
  186.6050  177.1160  146.5310 C   0  0  0  0  0  0  0  0  0  0  0  0
  188.4890  175.7100  144.8990 C   0  0  1  0  0  3  0  0  0  0  0  0
  189.3010  174.8150  145.8220 C   0  0  0  0  0  2  0  0  0  0  0  0
  187.4490  176.1910  146.9150 N   0  0  0  0  0  0  0  0  0  0  0  0
  186.8950  178.0840  145.4070 C   0  0  0  0  0  3  0  0  0  0  0  0
  188.7720  176.1210  146.3330 C   0  0  2  0  0  3  0  0  0  0  0  0
  188.9420  176.9960  144.2580 C   0  0  2  0  0  3  0  0  0  0  0  0
  187.8580  178.0460  144.4500 C   0  0  0  0  0  3  0  0  0  0  0  0
  185.3770  177.1850  147.1920 O   0  0  0  0  0  0  0  0  0  0  0  0
  184.5200  178.3120  147.0990 C   0  0  0  0  0  1  0  0  0  0  0  0
  187.6290  175.2270  138.2550 C   0  0  0  0  0  1  0  0  0  0  0  0
  188.3140  174.0760  138.8240 N   0  0  0  0  0  0  0  0  0  0  0  0
  188.7610  174.1000  140.1870 C   0  0  0  0  0  0  0  0  0  0  0  0
  188.5800  175.2770  140.9800 N   0  0  0  0  0  2  0  0  0  0  0  0
  189.3110  173.0830  140.6900 O   0  0  0  0  0  0  0  0  0  0  0  0
  188.3950  172.8500  138.0340 C   0  0  0  0  0  2  0  0  0  0  0  0
  189.4280  171.6810  136.1170 C   0  0  1  0  0  3  0  0  0  0  0  0
  189.6030  172.8300  137.0940 C   0  0  1  0  0  0  0  0  0  0  0  0
  189.6060  174.0480  136.1860 C   0  0  0  0  0  2  0  0  0  0  0  0
  190.9150  172.7950  137.8750 C   0  0  0  0  0  1  0  0  0  0  0  0
  189.5620  172.3230  134.7590 C   0  0  0  0  0  2  0  0  0  0  0  0
  189.2000  173.6700  134.8930 O   0  0  0  0  0  0  0  0  0  0  0  0
  190.8690  168.4630  137.4120 C   0  0  0  0  0  3  0  0  0  0  0  0
  191.4110  170.3210  135.4250 C   0  0  0  0  0  3  0  0  0  0  0  0
  191.9660  168.2650  136.5690 C   0  0  0  0  0  3  0  0  0  0  0  0
  190.0800  169.5600  137.2570 N   0  0  0  0  0  0  0  0  0  0  0  0
  192.2330  169.2030  135.5690 C   0  0  0  0  0  3  0  0  0  0  0  0
  190.3320  170.4930  136.2940 C   0  0  0  0  0  0  0  0  0  0  0  0
  191.0590  175.3900  143.6320 N   0  0  0  0  0  2  0  0  0  0  0  0
  192.3860  174.9590  143.2380 C   0  0  1  0  0  3  0  0  0  0  0  0
  192.3890  174.6150  141.7600 C   0  0  0  0  0  1  0  0  0  0  0  0
  193.3800  176.0770  143.5360 C   0  0  0  0  0  2  0  0  0  0  0  0
  196.5600  175.1140  145.0470 O   0  0  0  0  0  0  0  0  0  0  0  0
  194.3440  175.6670  144.5510 N   0  0  0  0  0  0  0  0  0  0  0  0
  195.7510  175.6650  144.2520 C   0  0  0  0  0  0  0  0  0  0  0  0
  197.5120  176.8910  143.2200 O   0  0  0  0  0  1  0  0  0  0  0  0
  196.2700  176.2940  142.9930 C   0  0  1  0  0  3  0  0  0  0  0  0
  196.5610  172.2610  138.4660 Cl  0  0  0  0  0  0  0  0  0  0  0  0
  196.9990  174.0820  142.0570 C   0  0  0  0  0  3  0  0  0  0  0  0
  195.7680  175.6020  140.6270 C   0  0  0  0  0  0  0  0  0  0  0  0
  196.4800  173.4330  139.7810 C   0  0  0  0  0  0  0  0  0  0  0  0
  195.1720  176.8090  140.4530 F   0  0  0  0  0  0  0  0  0  0  0  0
  196.3520  175.3070  141.8680 C   0  0  0  0  0  0  0  0  0  0  0  0
  195.8150  174.6570  139.5760 C   0  0  0  0  0  0  0  0  0  0  0  0
  197.0740  173.1490  141.0220 C   0  0  0  0  0  0  0  0  0  0  0  0
  193.8340  175.1080  138.1160 C   0  0  0  0  0  1  0  0  0  0  0  0
  195.2230  174.8850  138.3240 O   0  0  0  0  0  0  0  0  0  0  0  0
  197.7780  171.8540  141.2720 C   0  0  0  0  0  2  0  0  0  0  0  0
  196.6490  169.3150  140.7980 C   0  0  0  0  0  1  0  0  0  0  0  0
  196.6500  170.6520  142.0010 S   0  0  2  0  0  0  0  0  0  0  0  0
  195.2790  171.2860  141.8130 O   0  0  0  0  0  0  0  0  0  0  0  0
  193.8450  175.2060  145.8460 C   0  0  0  0  0  2  0  0  0  0  0  0
  193.6890  176.3710  146.8110 C   0  0  0  0  0  2  0  0  0  0  0  0
  192.3440  176.3870  147.3600 N   0  0  0  0  0  1  0  0  0  0  0  0
  1 17  1  6  0  0  0
  1  2  1  0  0  0  0
  1  3  1  0  0  0  0
  2  3  1  0  0  0  0
  2 32  1  1  0  0  0
  3 10  1  1  0  0  0
  4  7  2  0  0  0  0
  4 12  1  0  0  0  0
  5  6  1  6  0  0  0
  5  9  1  0  0  0  0
  8  4  1  0  0  0  0
  9  6  1  1  0  0  0
  9  7  1  0  0  0  0
 10 11  1  6  0  0  0
 10  5  1  0  0  0  0
 11  8  2  0  0  0  0
 13 12  1  0  0  0  0
 14 15  1  0  0  0  0
 15 16  1  0  0  0  0
 16 18  2  0  0  0  0
 16 17  1  0  0  0  0
 19 15  1  0  0  0  0
 20 31  1  1  0  0  0
 20 21  1  0  0  0  0
 21 23  1  1  0  0  0
 21 19  1  0  0  0  0
 22 21  1  0  0  0  0
 24 25  1  0  0  0  0
 24 20  1  0  0  0  0
 25 22  1  0  0  0  0
 27 30  2  0  0  0  0
 27 31  1  0  0  0  0
 28 26  2  0  0  0  0
 29 26  1  0  0  0  0
 30 28  1  0  0  0  0
 31 29  2  0  0  0  0
 33 34  1  6  0  0  0
 33 35  1  0  0  0  0
 33 32  1  0  0  0  0
 35 37  1  0  0  0  0
 37 55  1  0  0  0  0
 38 37  1  0  0  0  0
 38 36  2  0  0  0  0
 40 39  1  1  0  0  0
 40 38  1  0  0  0  0
 41 44  1  0  0  0  0
 43 46  2  0  0  0  0
 44 48  1  0  0  0  0
 45 43  1  0  0  0  0
 46 42  1  0  0  0  0
 46 40  1  0  0  0  0
 47 44  2  0  0  0  0
 47 43  1  0  0  0  0
 48 51  1  0  0  0  0
 48 42  2  0  0  0  0
 49 50  1  0  0  0  0
 50 47  1  0  0  0  0
 51 53  1  0  0  0  0
 53 52  1  6  0  0  0
 54 53  2  0  0  0  0
 55 56  1  0  0  0  0
 56 57  1  0  0  0  0
M  END
>  <MODEL>
7

>  <REMARK>
 VINA RESULT:      -5.7      3.164      4.572
  Name = 
  17 active torsions:
  status: ('A' for Active; 'I' for Inactive)
    1  A    between atoms: C_5  and  O_8
    2  A    between atoms: N_7  and  C_11
    3  A    between atoms: C_11  and  C_30
    4  A    between atoms: C_12  and  N_47
    5  A    between atoms: C_12  and  C_55
    6  A    between atoms: C_14  and  C_24
    7  A    between atoms: C_14  and  C_35
    8  A    between atoms: N_16  and  C_44
    9  A    between atoms: N_16  and  C_55
   10  A    between atoms: C_19  and  C_57
   11  A    between atoms: C_22  and  N_41
   12  A    between atoms: C_33  and  C_44
   13  A    between atoms: S_34  and  C_43
   14  A    between atoms: C_38  and  N_47
   15  A    between atoms: C_39  and  O_48
   16  A    between atoms: C_43  and  C_45
   17  A    between atoms: C_50  and  C_52
                            x       y       z     vdW  Elec       q    Type
                         _______ _______ _______ _____ _____    ______ ____

>  <TORSDO>
F 17

$$$$
=
 OpenBabel11042417503D

 57 62  0  0  1  0  0  0  0  0999 V2000
  191.9670  172.5590  141.7220 C   0  0  1  0  0  3  0  0  0  0  0  0
  191.4780  171.1290  141.8180 C   0  0  1  0  0  3  0  0  0  0  0  0
  190.5020  172.2560  141.4660 C   0  0  2  0  0  3  0  0  0  0  0  0
  188.6260  174.1760  137.7540 C   0  0  0  0  0  0  0  0  0  0  0  0
  190.9090  173.5130  139.3480 C   0  0  1  0  0  3  0  0  0  0  0  0
  192.1020  173.4330  138.4090 C   0  0  0  0  0  2  0  0  0  0  0  0
  189.8690  174.0790  137.3530 N   0  0  0  0  0  0  0  0  0  0  0  0
  188.0490  173.3350  138.8700 C   0  0  0  0  0  3  0  0  0  0  0  0
  190.7390  173.0640  137.9070 C   0  0  2  0  0  3  0  0  0  0  0  0
  190.1740  172.3580  139.9760 C   0  0  2  0  0  3  0  0  0  0  0  0
  188.6790  172.5790  139.8060 C   0  0  0  0  0  3  0  0  0  0  0  0
  187.8140  175.1190  137.1190 O   0  0  0  0  0  0  0  0  0  0  0  0
  186.8980  175.9400  137.8260 C   0  0  0  0  0  1  0  0  0  0  0  0
  192.3290  174.0670  145.7730 C   0  0  0  0  0  1  0  0  0  0  0  0
  192.1770  174.9970  144.6630 N   0  0  0  0  0  0  0  0  0  0  0  0
  192.0460  174.5080  143.3210 C   0  0  0  0  0  0  0  0  0  0  0  0
  192.1140  173.1030  143.0600 N   0  0  0  0  0  2  0  0  0  0  0  0
  191.8660  175.3160  142.3690 O   0  0  0  0  0  0  0  0  0  0  0  0
  192.0040  176.4170  144.9600 C   0  0  0  0  0  2  0  0  0  0  0  0
  189.7180  175.5460  145.3070 C   0  0  1  0  0  3  0  0  0  0  0  0
  190.6290  176.7350  145.5540 C   0  0  1  0  0  0  0  0  0  0  0  0
  190.6950  176.8030  147.0700 C   0  0  0  0  0  2  0  0  0  0  0  0
  190.0890  178.0610  145.0240 C   0  0  0  0  0  1  0  0  0  0  0  0
  189.1900  175.1930  146.6750 C   0  0  0  0  0  2  0  0  0  0  0  0
  190.1270  175.6380  147.6160 O   0  0  0  0  0  0  0  0  0  0  0  0
  186.5060  176.6080  143.6750 C   0  0  0  0  0  3  0  0  0  0  0  0
  188.8100  175.2190  142.9980 C   0  0  0  0  0  3  0  0  0  0  0  0
  186.6480  176.1050  142.3790 C   0  0  0  0  0  3  0  0  0  0  0  0
  187.4900  176.4120  144.5930 N   0  0  0  0  0  0  0  0  0  0  0  0
  187.8110  175.4080  142.0420 C   0  0  0  0  0  3  0  0  0  0  0  0
  188.6280  175.7230  144.2870 C   0  0  0  0  0  0  0  0  0  0  0  0
  191.9440  170.3920  140.6500 N   0  0  0  0  0  2  0  0  0  0  0  0
  192.1630  169.0190  141.0640 C   0  0  1  0  0  3  0  0  0  0  0  0
  190.8290  168.3030  141.1740 C   0  0  0  0  0  1  0  0  0  0  0  0
  193.0650  168.3310  140.0460 C   0  0  0  0  0  2  0  0  0  0  0  0
  195.1570  170.9680  138.6320 O   0  0  0  0  0  0  0  0  0  0  0  0
  193.5930  169.2890  139.0800 N   0  0  0  0  0  0  0  0  0  0  0  0
  194.8150  169.9950  139.3580 C   0  0  0  0  0  0  0  0  0  0  0  0
  196.9870  169.3430  140.0850 O   0  0  0  0  0  1  0  0  0  0  0  0
  195.6840  169.6020  140.5170 C   0  0  1  0  0  3  0  0  0  0  0  0
  195.6150  173.8370  144.8640 Cl  0  0  0  0  0  0  0  0  0  0  0  0
  196.2300  171.9030  141.3590 C   0  0  0  0  0  3  0  0  0  0  0  0
  195.1060  170.3540  142.8460 C   0  0  0  0  0  0  0  0  0  0  0  0
  195.6390  172.6060  143.6010 C   0  0  0  0  0  0  0  0  0  0  0  0
  194.6050  169.1130  143.0690 F   0  0  0  0  0  0  0  0  0  0  0  0
  195.6780  170.6400  141.5970 C   0  0  0  0  0  0  0  0  0  0  0  0
  195.0690  171.3450  143.8550 C   0  0  0  0  0  0  0  0  0  0  0  0
  196.2210  172.8820  142.3520 C   0  0  0  0  0  0  0  0  0  0  0  0
  195.0470  170.3110  146.1330 C   0  0  0  0  0  1  0  0  0  0  0  0
  194.4840  171.1250  145.1120 O   0  0  0  0  0  0  0  0  0  0  0  0
  196.8250  174.2160  142.0510 C   0  0  0  0  0  2  0  0  0  0  0  0
  194.8510  175.0780  140.2320 C   0  0  0  0  0  1  0  0  0  0  0  0
  195.5370  175.4610  141.8500 S   0  0  2  0  0  0  0  0  0  0  0  0
  196.3150  176.7460  141.6000 O   0  0  0  0  0  0  0  0  0  0  0  0
  192.8260  169.5550  137.8640 C   0  0  0  0  0  2  0  0  0  0  0  0
  191.8670  168.4120  137.5690 C   0  0  0  0  0  2  0  0  0  0  0  0
  190.4990  168.8990  137.5600 N   0  0  0  0  0  1  0  0  0  0  0  0
  1  2  1  0  0  0  0
  1 17  1  1  0  0  0
  2 32  1  6  0  0  0
  3 10  1  6  0  0  0
  3  1  1  0  0  0  0
  3  2  1  0  0  0  0
  4  8  1  0  0  0  0
  5  6  1  1  0  0  0
  5 10  1  0  0  0  0
  7  4  2  0  0  0  0
  7  9  1  0  0  0  0
  8 11  2  0  0  0  0
  9  6  1  6  0  0  0
  9  5  1  0  0  0  0
 10 11  1  1  0  0  0
 12  4  1  0  0  0  0
 12 13  1  0  0  0  0
 15 19  1  0  0  0  0
 15 14  1  0  0  0  0
 16 15  1  0  0  0  0
 17 16  1  0  0  0  0
 18 16  2  0  0  0  0
 19 21  1  0  0  0  0
 20 31  1  6  0  0  0
 20 21  1  0  0  0  0
 20 24  1  0  0  0  0
 21 23  1  6  0  0  0
 21 22  1  0  0  0  0
 22 25  1  0  0  0  0
 24 25  1  0  0  0  0
 26 29  1  0  0  0  0
 27 31  1  0  0  0  0
 28 26  2  0  0  0  0
 30 28  1  0  0  0  0
 30 27  2  0  0  0  0
 31 29  2  0  0  0  0
 32 33  1  0  0  0  0
 33 34  1  6  0  0  0
 35 33  1  0  0  0  0
 36 38  2  0  0  0  0
 37 38  1  0  0  0  0
 37 35  1  0  0  0  0
 38 40  1  0  0  0  0
 40 39  1  6  0  0  0
 40 46  1  0  0  0  0
 42 46  2  0  0  0  0
 42 48  1  0  0  0  0
 43 45  1  0  0  0  0
 43 47  2  0  0  0  0
 44 47  1  0  0  0  0
 44 41  1  0  0  0  0
 46 43  1  0  0  0  0
 47 50  1  0  0  0  0
 48 44  2  0  0  0  0
 50 49  1  0  0  0  0
 51 48  1  0  0  0  0
 53 52  1  6  0  0  0
 53 51  1  0  0  0  0
 54 53  2  0  0  0  0
 55 37  1  0  0  0  0
 56 55  1  0  0  0  0
 57 56  1  0  0  0  0
M  END
>  <MODEL>
8

>  <REMARK>
 VINA RESULT:      -5.6      2.820      7.692
  Name = 
  17 active torsions:
  status: ('A' for Active; 'I' for Inactive)
    1  A    between atoms: C_5  and  O_8
    2  A    between atoms: N_7  and  C_11
    3  A    between atoms: C_11  and  C_30
    4  A    between atoms: C_12  and  N_47
    5  A    between atoms: C_12  and  C_55
    6  A    between atoms: C_14  and  C_24
    7  A    between atoms: C_14  and  C_35
    8  A    between atoms: N_16  and  C_44
    9  A    between atoms: N_16  and  C_55
   10  A    between atoms: C_19  and  C_57
   11  A    between atoms: C_22  and  N_41
   12  A    between atoms: C_33  and  C_44
   13  A    between atoms: S_34  and  C_43
   14  A    between atoms: C_38  and  N_47
   15  A    between atoms: C_39  and  O_48
   16  A    between atoms: C_43  and  C_45
   17  A    between atoms: C_50  and  C_52
                            x       y       z     vdW  Elec       q    Type
                         _______ _______ _______ _____ _____    ______ ____

>  <TORSDO>
F 17

$$$$
=
 OpenBabel11042417503D

 57 62  0  0  1  0  0  0  0  0999 V2000
  189.8380  174.6560  142.5650 C   0  0  1  0  0  3  0  0  0  0  0  0
  191.0670  175.5370  142.4840 C   0  0  1  0  0  3  0  0  0  0  0  0
  189.7150  176.1340  142.8860 C   0  0  2  0  0  3  0  0  0  0  0  0
  187.3360  176.7950  146.7450 C   0  0  0  0  0  0  0  0  0  0  0  0
  188.9370  175.1430  145.0420 C   0  0  1  0  0  3  0  0  0  0  0  0
  189.6410  174.1310  145.9320 C   0  0  0  0  0  2  0  0  0  0  0  0
  188.0500  175.7540  147.0960 N   0  0  0  0  0  0  0  0  0  0  0  0
  187.7260  177.7210  145.6150 C   0  0  0  0  0  3  0  0  0  0  0  0
  189.3260  175.4970  146.4670 C   0  0  2  0  0  3  0  0  0  0  0  0
  189.5500  176.3550  144.3900 C   0  0  2  0  0  3  0  0  0  0  0  0
  188.6380  177.5500  144.6250 C   0  0  0  0  0  3  0  0  0  0  0  0
  186.1550  177.0370  147.4510 O   0  0  0  0  0  0  0  0  0  0  0  0
  184.9180  177.2930  146.8060 C   0  0  0  0  0  1  0  0  0  0  0  0
  188.2060  174.0080  138.5990 C   0  0  0  0  0  1  0  0  0  0  0  0
  189.0810  173.0090  139.1950 N   0  0  0  0  0  0  0  0  0  0  0  0
  189.6170  173.2090  140.5110 C   0  0  0  0  0  0  0  0  0  0  0  0
  189.3350  174.4170  141.2240 N   0  0  0  0  0  2  0  0  0  0  0  0
  190.3350  172.3190  141.0420 O   0  0  0  0  0  0  0  0  0  0  0  0
  189.2710  171.7400  138.4970 C   0  0  0  0  0  2  0  0  0  0  0  0
  191.3170  172.9910  137.8970 C   0  0  1  0  0  3  0  0  0  0  0  0
  190.5110  171.7390  137.5980 C   0  0  1  0  0  0  0  0  0  0  0  0
  191.4640  170.6220  137.9880 C   0  0  0  0  0  2  0  0  0  0  0  0
  190.1310  171.5730  136.1290 C   0  0  0  0  0  1  0  0  0  0  0  0
  192.6980  172.4760  138.2160 C   0  0  0  0  0  2  0  0  0  0  0  0
  192.5610  171.1630  138.6830 O   0  0  0  0  0  0  0  0  0  0  0  0
  190.1550  175.3850  135.2460 C   0  0  0  0  0  3  0  0  0  0  0  0
  192.5020  174.7650  136.5890 C   0  0  0  0  0  3  0  0  0  0  0  0
  191.3220  176.0980  134.9540 C   0  0  0  0  0  3  0  0  0  0  0  0
  190.1770  174.3960  136.1790 N   0  0  0  0  0  0  0  0  0  0  0  0
  192.5000  175.7830  135.6350 C   0  0  0  0  0  3  0  0  0  0  0  0
  191.3210  174.0660  136.8450 C   0  0  0  0  0  0  0  0  0  0  0  0
  191.9270  175.2520  143.6270 N   0  0  0  0  0  2  0  0  0  0  0  0
  193.1480  176.0150  143.4500 C   0  0  1  0  0  3  0  0  0  0  0  0
  193.3080  176.9890  144.6020 C   0  0  0  0  0  1  0  0  0  0  0  0
  194.3300  175.0540  143.3850 C   0  0  0  0  0  2  0  0  0  0  0  0
  197.7260  176.3680  143.1320 O   0  0  0  0  0  0  0  0  0  0  0  0
  195.5070  175.7050  142.8190 N   0  0  0  0  0  0  0  0  0  0  0  0
  196.7690  175.6370  143.5050 C   0  0  0  0  0  0  0  0  0  0  0  0
  195.8700  174.7990  145.5440 O   0  0  0  0  0  1  0  0  0  0  0  0
  196.9590  174.7160  144.6750 C   0  0  1  0  0  3  0  0  0  0  0  0
  197.9400  168.9950  142.9020 Cl  0  0  0  0  0  0  0  0  0  0  0  0
  197.3340  172.9990  142.8820 C   0  0  0  0  0  3  0  0  0  0  0  0
  197.2670  172.2750  145.1940 C   0  0  0  0  0  0  0  0  0  0  0  0
  197.6510  170.6570  143.4150 C   0  0  0  0  0  0  0  0  0  0  0  0
  197.0900  172.5820  146.5030 F   0  0  0  0  0  0  0  0  0  0  0  0
  197.1870  173.3000  144.2400 C   0  0  0  0  0  0  0  0  0  0  0  0
  197.5160  170.9430  144.7870 C   0  0  0  0  0  0  0  0  0  0  0  0
  197.5570  171.6870  142.4640 C   0  0  0  0  0  0  0  0  0  0  0  0
  196.6050  169.4510  146.5760 C   0  0  0  0  0  1  0  0  0  0  0  0
  197.6360  169.8820  145.6980 O   0  0  0  0  0  0  0  0  0  0  0  0
  197.7060  171.4140  141.0020 C   0  0  0  0  0  2  0  0  0  0  0  0
  195.7470  169.8500  139.7130 C   0  0  0  0  0  1  0  0  0  0  0  0
  196.1120  171.5510  140.1690 S   0  0  2  0  0  0  0  0  0  0  0  0
  196.4580  172.2000  138.8370 O   0  0  0  0  0  0  0  0  0  0  0  0
  195.3580  176.4710  141.5820 C   0  0  0  0  0  2  0  0  0  0  0  0
  195.7440  175.6300  140.3760 C   0  0  0  0  0  2  0  0  0  0  0  0
  194.5910  174.8920  139.8920 N   0  0  0  0  0  1  0  0  0  0  0  0
  1 17  1  6  0  0  0
  1  3  1  0  0  0  0
  2  1  1  0  0  0  0
  2  3  1  0  0  0  0
  2 32  1  1  0  0  0
  3 10  1  1  0  0  0
  4  7  2  0  0  0  0
  4 12  1  0  0  0  0
  5  6  1  6  0  0  0
  5  9  1  0  0  0  0
  8  4  1  0  0  0  0
  9  6  1  1  0  0  0
  9  7  1  0  0  0  0
 10 11  1  6  0  0  0
 10  5  1  0  0  0  0
 11  8  2  0  0  0  0
 13 12  1  0  0  0  0
 14 15  1  0  0  0  0
 15 16  1  0  0  0  0
 16 18  2  0  0  0  0
 16 17  1  0  0  0  0
 19 15  1  0  0  0  0
 20 31  1  6  0  0  0
 20 24  1  0  0  0  0
 21 23  1  6  0  0  0
 21 20  1  0  0  0  0
 21 22  1  0  0  0  0
 21 19  1  0  0  0  0
 22 25  1  0  0  0  0
 24 25  1  0  0  0  0
 26 29  1  0  0  0  0
 27 31  1  0  0  0  0
 28 26  2  0  0  0  0
 28 30  1  0  0  0  0
 29 31  2  0  0  0  0
 30 27  2  0  0  0  0
 33 32  1  0  0  0  0
 33 34  1  1  0  0  0
 35 33  1  0  0  0  0
 36 38  2  0  0  0  0
 37 35  1  0  0  0  0
 37 38  1  0  0  0  0
 38 40  1  0  0  0  0
 40 39  1  1  0  0  0
 41 44  1  0  0  0  0
 42 46  1  0  0  0  0
 43 45  1  0  0  0  0
 44 47  2  0  0  0  0
 46 40  1  0  0  0  0
 46 43  2  0  0  0  0
 47 43  1  0  0  0  0
 47 50  1  0  0  0  0
 48 42  2  0  0  0  0
 48 44  1  0  0  0  0
 50 49  1  0  0  0  0
 51 48  1  0  0  0  0
 53 52  1  6  0  0  0
 53 51  1  0  0  0  0
 54 53  2  0  0  0  0
 55 37  1  0  0  0  0
 56 55  1  0  0  0  0
 57 56  1  0  0  0  0
M  END
>  <MODEL>
9

>  <REMARK>
 VINA RESULT:      -5.6      3.253      5.447
  Name = 
  17 active torsions:
  status: ('A' for Active; 'I' for Inactive)
    1  A    between atoms: C_5  and  O_8
    2  A    between atoms: N_7  and  C_11
    3  A    between atoms: C_11  and  C_30
    4  A    between atoms: C_12  and  N_47
    5  A    between atoms: C_12  and  C_55
    6  A    between atoms: C_14  and  C_24
    7  A    between atoms: C_14  and  C_35
    8  A    between atoms: N_16  and  C_44
    9  A    between atoms: N_16  and  C_55
   10  A    between atoms: C_19  and  C_57
   11  A    between atoms: C_22  and  N_41
   12  A    between atoms: C_33  and  C_44
   13  A    between atoms: S_34  and  C_43
   14  A    between atoms: C_38  and  N_47
   15  A    between atoms: C_39  and  O_48
   16  A    between atoms: C_43  and  C_45
   17  A    between atoms: C_50  and  C_52
                            x       y       z     vdW  Elec       q    Type
                         _______ _______ _______ _____ _____    ______ ____

>  <TORSDO>
F 17

$$$$
