=
 OpenBabel11042418013D

 61 68  0  0  1  0  0  0  0  0999 V2000
  192.8470  176.4290  142.7790 S   0  0  0  0  0  0  0  0  0  0  0  0
  193.8260  174.8310  144.4350 C   0  0  0  0  0  0  0  0  0  0  0  0
  192.4430  174.6120  144.4750 C   0  0  0  0  0  3  0  0  0  0  0  0
  194.2180  175.8270  143.5470 C   0  0  0  0  0  0  0  0  0  0  0  0
  191.7560  175.4490  143.6020 C   0  0  0  0  0  0  0  0  0  0  0  0
  195.6250  176.2670  143.2880 C   0  0  0  0  0  2  0  0  0  0  0  0
  196.2930  175.3320  142.3410 C   0  0  0  0  0  3  0  0  0  0  0  0
  195.7030  174.9940  141.2410 N   0  0  0  0  0  0  0  0  0  0  0  0
  196.3130  174.1170  140.2880 C   0  0  0  0  0  0  0  0  0  0  0  0
  195.5340  173.5640  139.2230 N   0  0  0  0  0  0  0  0  0  0  0  0
  197.5360  173.8110  140.3900 O   0  0  0  0  0  0  0  0  0  0  0  0
  195.4050  173.0090  136.9620 O   0  0  0  0  0  1  0  0  0  0  0  0
  196.1830  172.8750  138.1130 C   0  0  0  0  0  2  0  0  0  0  0  0
  194.0790  173.5830  139.2880 C   0  0  0  0  0  2  0  0  0  0  0  0
  193.5670  172.2410  139.8090 C   0  0  0  0  0  2  0  0  0  0  0  0
  192.3740  172.4380  140.7350 C   0  0  0  0  0  2  0  0  0  0  0  0
  191.4160  171.2940  138.8760 O   0  0  0  0  0  1  0  0  0  0  0  0
  191.1360  171.7550  140.1640 C   0  0  2  0  0  3  0  0  0  0  0  0
  189.9700  172.7340  140.1040 C   0  0  0  0  0  2  0  0  0  0  0  0
  189.2600  172.8370  141.4470 C   0  0  1  0  0  3  0  0  0  0  0  0
  187.8850  172.6930  141.2450 O   0  0  0  0  0  1  0  0  0  0  0  0
  189.7580  171.7410  142.3790 C   0  0  0  0  0  2  0  0  0  0  0  0
  189.2880  172.0040  143.7970 C   0  0  0  0  0  1  0  0  0  0  0  0
  190.2810  175.4240  143.3790 C   0  0  0  0  0  2  0  0  0  0  0  0
  189.8610  176.5880  142.4950 C   0  0  0  0  0  2  0  0  0  0  0  0
  189.4950  177.7900  143.3510 C   0  0  0  0  0  2  0  0  0  0  0  0
  186.1560  176.5810  145.8020 C   0  0  0  0  0  2  0  0  0  0  0  0
  188.3310  177.9270  145.5430 C   0  0  1  0  0  3  0  0  0  0  0  0
  185.2140  177.4850  145.0330 C   0  0  0  0  0  2  0  0  0  0  0  0
  187.2800  178.6550  142.0870 O   0  0  0  0  0  1  0  0  0  0  0  0
  188.1630  177.5630  144.0640 C   0  0  1  0  0  3  0  0  0  0  0  0
  187.2230  177.4230  146.4800 C   0  0  2  0  0  3  0  0  0  0  0  0
  188.5370  176.6760  146.3840 C   0  0  0  0  0  2  0  0  0  0  0  0
  185.6640  177.6960  143.5820 C   0  0  2  0  0  3  0  0  0  0  0  0
  187.0290  178.4000  143.4410 C   0  0  2  0  0  3  0  0  0  0  0  0
  181.8530  178.5230  141.6770 C   0  0  1  0  0  3  0  0  0  0  0  0
  184.1890  177.6330  141.5430 C   0  0  0  0  0  2  0  0  0  0  0  0
  183.0620  178.3040  140.7570 C   0  0  1  0  0  3  0  0  0  0  0  0
  184.5690  178.4300  142.7960 C   0  0  1  0  0  3  0  0  0  0  0  0
  183.3390  178.7160  143.6710 C   0  0  0  0  0  2  0  0  0  0  0  0
  182.7010  177.4550  139.7030 O   0  0  0  0  0  1  0  0  0  0  0  0
  182.2520  179.4010  142.8560 C   0  0  0  0  0  2  0  0  0  0  0  0
  180.6890  179.1930  140.9490 C   0  0  0  0  0  2  0  0  0  0  0  0
  179.0370  177.9140  139.1250 O   0  0  0  0  0  1  0  0  0  0  0  0
  179.3210  178.6670  141.3980 C   0  0  1  0  0  0  0  0  0  0  0  0
  178.0640  179.2740  140.8130 C   0  0  0  0  0  2  0  0  0  0  0  0
  178.4840  177.8680  140.4070 C   0  0  1  0  0  3  0  0  0  0  0  0
  179.1850  178.2460  142.7230 O   0  0  0  0  0  1  0  0  0  0  0  0
  194.9720  173.8820  145.4310 S   0  0  0  0  0  0  0  0  0  0  0  0
  196.0790  168.9470  143.8940 C   0  0  0  0  0  2  0  0  0  0  0  0
  194.5710  171.0790  145.6540 C   0  0  1  0  0  0  0  0  0  0  0  0
  196.6190  168.3610  145.1980 C   0  0  0  0  0  2  0  0  0  0  0  0
  196.6500  169.5130  146.6300 S   0  0  0  0  0  0  0  0  0  0  0  0
  193.8470  170.0590  144.7730 C   0  0  1  0  0  3  0  0  0  0  0  0
  196.1220  171.0450  145.7960 C   0  0  1  0  0  3  0  0  0  0  0  0
  194.0860  171.4910  144.2950 C   0  0  1  0  0  3  0  0  0  0  0  0
  193.8710  172.4280  145.4830 C   0  0  2  0  0  3  0  0  0  0  0  0
  194.5610  169.0410  143.8610 C   0  0  0  0  0  2  0  0  0  0  0  0
  197.1350  171.4950  144.7250 C   0  0  0  0  0  3  0  0  0  0  0  0
  197.9090  172.5290  145.2240 F   0  0  0  0  0  0  0  0  0  0  0  0
  196.5920  171.8550  143.5080 F   0  0  0  0  0  0  0  0  0  0  0  0
  1  4  1  0  0  0  0
  1  5  1  0  0  0  0
  2  3  1  0  0  0  0
  2 49  1  0  0  0  0
  4  2  2  0  0  0  0
  5  3  2  0  0  0  0
  6  4  1  0  0  0  0
  7  6  1  0  0  0  0
  8  7  2  0  0  0  0
  9 11  2  0  0  0  0
  9  8  1  0  0  0  0
 10 14  1  0  0  0  0
 10  9  1  0  0  0  0
 12 13  1  0  0  0  0
 13 10  1  0  0  0  0
 14 15  1  0  0  0  0
 15 16  1  0  0  0  0
 18 17  1  6  0  0  0
 18 16  1  0  0  0  0
 19 18  1  0  0  0  0
 19 20  1  0  0  0  0
 20 21  1  6  0  0  0
 20 22  1  0  0  0  0
 22 23  1  0  0  0  0
 24  5  1  0  0  0  0
 25 26  1  0  0  0  0
 25 24  1  0  0  0  0
 28 33  1  1  0  0  0
 28 32  1  0  0  0  0
 29 27  1  0  0  0  0
 31 26  1  6  0  0  0
 31 28  1  0  0  0  0
 32 27  1  6  0  0  0
 33 32  1  0  0  0  0
 34 29  1  1  0  0  0
 35 30  1  6  0  0  0
 35 34  1  0  0  0  0
 35 31  1  0  0  0  0
 36 43  1  6  0  0  0
 36 42  1  0  0  0  0
 38 41  1  6  0  0  0
 38 37  1  0  0  0  0
 38 36  1  0  0  0  0
 39 37  1  6  0  0  0
 39 34  1  0  0  0  0
 39 40  1  0  0  0  0
 42 40  1  0  0  0  0
 43 45  1  0  0  0  0
 45 48  1  1  0  0  0
 46 45  1  0  0  0  0
 47 44  1  6  0  0  0
 47 46  1  0  0  0  0
 47 45  1  0  0  0  0
 49 57  1  0  0  0  0
 50 52  1  0  0  0  0
 51 55  1  0  0  0  0
 52 53  1  0  0  0  0
 54 51  1  0  0  0  0
 55 53  1  0  0  0  0
 56 54  1  0  0  0  0
 56 57  1  0  0  0  0
 56 51  1  0  0  0  0
 57 51  1  0  0  0  0
 58 50  1  0  0  0  0
 58 54  1  0  0  0  0
 59 60  1  0  0  0  0
 59 55  1  0  0  0  0
 61 59  1  0  0  0  0
M  END
>  <MODEL>
1

>  <REMARK>
 VINA RESULT:      -6.2      0.000      0.000
  Name = 
  21 active torsions:
  status: ('A' for Active; 'I' for Inactive)
    1  A    between atoms: C_2  and  C_50
    2  A    between atoms: C_3  and  C_8
    3  A    between atoms: C_4  and  N_57
    4  A    between atoms: C_5  and  C_27
    5  A    between atoms: C_5  and  C_45
    6  A    between atoms: C_8  and  C_14
    7  A    between atoms: C_13  and  C_50
    8  A    between atoms: C_14  and  C_27
    9  A    between atoms: C_20  and  C_33
   10  A    between atoms: C_21  and  S_51
   11  A    between atoms: C_22  and  C_47
   12  A    between atoms: C_24  and  C_28
   13  A    between atoms: C_28  and  C_52
   14  A    between atoms: N_29  and  C_37
   15  A    between atoms: N_29  and  C_39
   16  A    between atoms: C_31  and  C_43
   17  A    between atoms: C_33  and  C_40
   18  A    between atoms: C_37  and  C_45
   19  A    between atoms: C_38  and  C_52
   20  A    between atoms: C_38  and  C_55
   21  A    between atoms: C_48  and  S_51
                            x       y       z     vdW  Elec       q    Type
                         _______ _______ _______ _____ _____    ______ ____

>  <TORSDO>
F 21

$$$$
=
 OpenBabel11042418013D

 61 68  0  0  1  0  0  0  0  0999 V2000
  193.0680  176.0960  142.0520 S   0  0  0  0  0  0  0  0  0  0  0  0
  194.8650  174.9970  143.4020 C   0  0  0  0  0  0  0  0  0  0  0  0
  194.0890  175.7120  144.3230 C   0  0  0  0  0  3  0  0  0  0  0  0
  194.4380  175.1190  142.0830 C   0  0  0  0  0  0  0  0  0  0  0  0
  193.0430  176.3920  143.7080 C   0  0  0  0  0  0  0  0  0  0  0  0
  195.0650  174.4620  140.8940 C   0  0  0  0  0  2  0  0  0  0  0  0
  194.3740  173.1780  140.5870 C   0  0  0  0  0  3  0  0  0  0  0  0
  193.9260  172.9540  139.3960 N   0  0  0  0  0  0  0  0  0  0  0  0
  193.2770  171.7280  139.0440 C   0  0  0  0  0  0  0  0  0  0  0  0
  192.3900  171.6830  137.9230 N   0  0  0  0  0  0  0  0  0  0  0  0
  193.4660  170.6830  139.7320 O   0  0  0  0  0  0  0  0  0  0  0  0
  192.3710  170.2320  136.0970 O   0  0  0  0  0  1  0  0  0  0  0  0
  191.9150  170.4040  137.4050 C   0  0  0  0  0  2  0  0  0  0  0  0
  191.8610  172.9140  137.3520 C   0  0  0  0  0  2  0  0  0  0  0  0
  190.3460  172.9660  137.5500 C   0  0  0  0  0  2  0  0  0  0  0  0
  189.9920  173.7150  138.8270 C   0  0  0  0  0  2  0  0  0  0  0  0
  188.2250  172.4350  139.7870 O   0  0  0  0  0  1  0  0  0  0  0  0
  189.5810  172.7380  139.9240 C   0  0  2  0  0  3  0  0  0  0  0  0
  189.8210  173.3520  141.2980 C   0  0  0  0  0  2  0  0  0  0  0  0
  189.3320  172.4360  142.4100 C   0  0  1  0  0  3  0  0  0  0  0  0
  190.0590  171.2440  142.3690 O   0  0  0  0  0  1  0  0  0  0  0  0
  189.5320  173.1110  143.7610 C   0  0  0  0  0  2  0  0  0  0  0  0
  190.7260  172.5090  144.4770 C   0  0  0  0  0  1  0  0  0  0  0  0
  192.0130  177.2010  144.4240 C   0  0  0  0  0  2  0  0  0  0  0  0
  190.6510  176.5310  144.3200 C   0  0  0  0  0  2  0  0  0  0  0  0
  189.6470  177.4830  143.6890 C   0  0  0  0  0  2  0  0  0  0  0  0
  186.1610  176.5350  146.0490 C   0  0  0  0  0  2  0  0  0  0  0  0
  188.4070  177.7650  145.8250 C   0  0  1  0  0  3  0  0  0  0  0  0
  185.2940  177.4500  145.2070 C   0  0  0  0  0  2  0  0  0  0  0  0
  187.5270  178.3980  142.3040 O   0  0  0  0  0  1  0  0  0  0  0  0
  188.2790  177.3480  144.3560 C   0  0  1  0  0  3  0  0  0  0  0  0
  187.2410  177.3520  146.7360 C   0  0  2  0  0  3  0  0  0  0  0  0
  188.5200  176.5410  146.7220 C   0  0  0  0  0  2  0  0  0  0  0  0
  185.8100  177.5790  143.7690 C   0  0  2  0  0  3  0  0  0  0  0  0
  187.2120  178.2110  143.6550 C   0  0  2  0  0  3  0  0  0  0  0  0
  182.1770  178.4410  141.5550 C   0  0  1  0  0  3  0  0  0  0  0  0
  184.5240  177.5710  141.6040 C   0  0  0  0  0  2  0  0  0  0  0  0
  183.4660  178.2590  140.7410 C   0  0  1  0  0  3  0  0  0  0  0  0
  184.7820  178.3300  142.9100 C   0  0  1  0  0  3  0  0  0  0  0  0
  183.4770  178.5800  143.6800 C   0  0  0  0  0  2  0  0  0  0  0  0
  183.2090  177.4430  139.6330 O   0  0  0  0  0  1  0  0  0  0  0  0
  182.4610  179.2840  142.7920 C   0  0  0  0  0  2  0  0  0  0  0  0
  181.0770  179.1270  140.7470 C   0  0  0  0  0  2  0  0  0  0  0  0
  178.6280  179.9410  141.7620 O   0  0  0  0  0  1  0  0  0  0  0  0
  179.8400  178.2430  140.5530 C   0  0  1  0  0  0  0  0  0  0  0  0
  179.1700  177.6280  141.7640 C   0  0  0  0  0  2  0  0  0  0  0  0
  178.4870  178.7660  141.0190 C   0  0  1  0  0  3  0  0  0  0  0  0
  179.7750  177.4500  139.4050 O   0  0  0  0  0  1  0  0  0  0  0  0
  196.2660  174.0020  143.9030 S   0  0  0  0  0  0  0  0  0  0  0  0
  195.1420  168.8500  144.2670 C   0  0  0  0  0  2  0  0  0  0  0  0
  195.7050  171.7030  145.4740 C   0  0  1  0  0  0  0  0  0  0  0  0
  196.3470  168.3550  145.0650 C   0  0  0  0  0  2  0  0  0  0  0  0
  197.5720  169.6440  145.5300 S   0  0  0  0  0  0  0  0  0  0  0  0
  194.4200  170.9180  145.7460 C   0  0  1  0  0  3  0  0  0  0  0  0
  196.8600  171.0680  144.6430 C   0  0  1  0  0  3  0  0  0  0  0  0
  194.4710  172.0100  144.6770 C   0  0  1  0  0  3  0  0  0  0  0  0
  195.3200  173.1610  145.2160 C   0  0  2  0  0  3  0  0  0  0  0  0
  194.0970  169.5450  145.1250 C   0  0  0  0  0  2  0  0  0  0  0  0
  196.8610  170.8550  143.1170 C   0  0  0  0  0  3  0  0  0  0  0  0
  197.9280  171.5350  142.5540 F   0  0  0  0  0  0  0  0  0  0  0  0
  195.6900  171.1920  142.4700 F   0  0  0  0  0  0  0  0  0  0  0  0
  1  4  1  0  0  0  0
  1  5  1  0  0  0  0
  2 49  1  0  0  0  0
  2  3  1  0  0  0  0
  4  2  2  0  0  0  0
  5  3  2  0  0  0  0
  5 24  1  0  0  0  0
  6  4  1  0  0  0  0
  7  6  1  0  0  0  0
  8  7  2  0  0  0  0
  9  8  1  0  0  0  0
  9 11  2  0  0  0  0
 10  9  1  0  0  0  0
 12 13  1  0  0  0  0
 13 10  1  0  0  0  0
 14 15  1  0  0  0  0
 14 10  1  0  0  0  0
 15 16  1  0  0  0  0
 16 18  1  0  0  0  0
 18 17  1  6  0  0  0
 18 19  1  0  0  0  0
 19 20  1  0  0  0  0
 20 21  1  1  0  0  0
 20 22  1  0  0  0  0
 22 23  1  0  0  0  0
 25 24  1  0  0  0  0
 26 25  1  0  0  0  0
 28 33  1  1  0  0  0
 28 32  1  0  0  0  0
 29 27  1  0  0  0  0
 31 26  1  6  0  0  0
 31 28  1  0  0  0  0
 32 27  1  6  0  0  0
 33 32  1  0  0  0  0
 34 29  1  1  0  0  0
 35 30  1  6  0  0  0
 35 34  1  0  0  0  0
 35 31  1  0  0  0  0
 36 43  1  6  0  0  0
 36 42  1  0  0  0  0
 38 41  1  6  0  0  0
 38 36  1  0  0  0  0
 38 37  1  0  0  0  0
 39 37  1  6  0  0  0
 39 40  1  0  0  0  0
 39 34  1  0  0  0  0
 42 40  1  0  0  0  0
 45 48  1  6  0  0  0
 45 43  1  0  0  0  0
 45 47  1  0  0  0  0
 45 46  1  0  0  0  0
 47 44  1  1  0  0  0
 47 46  1  0  0  0  0
 49 57  1  0  0  0  0
 50 52  1  0  0  0  0
 50 58  1  0  0  0  0
 51 54  1  0  0  0  0
 52 53  1  0  0  0  0
 55 51  1  0  0  0  0
 55 53  1  0  0  0  0
 56 57  1  0  0  0  0
 56 51  1  0  0  0  0
 56 54  1  0  0  0  0
 57 51  1  0  0  0  0
 58 54  1  0  0  0  0
 59 55  1  0  0  0  0
 60 59  1  0  0  0  0
 61 59  1  0  0  0  0
M  END
>  <MODEL>
2

>  <REMARK>
 VINA RESULT:      -6.1      1.512      2.178
  Name = 
  21 active torsions:
  status: ('A' for Active; 'I' for Inactive)
    1  A    between atoms: C_2  and  C_50
    2  A    between atoms: C_3  and  C_8
    3  A    between atoms: C_4  and  N_57
    4  A    between atoms: C_5  and  C_27
    5  A    between atoms: C_5  and  C_45
    6  A    between atoms: C_8  and  C_14
    7  A    between atoms: C_13  and  C_50
    8  A    between atoms: C_14  and  C_27
    9  A    between atoms: C_20  and  C_33
   10  A    between atoms: C_21  and  S_51
   11  A    between atoms: C_22  and  C_47
   12  A    between atoms: C_24  and  C_28
   13  A    between atoms: C_28  and  C_52
   14  A    between atoms: N_29  and  C_37
   15  A    between atoms: N_29  and  C_39
   16  A    between atoms: C_31  and  C_43
   17  A    between atoms: C_33  and  C_40
   18  A    between atoms: C_37  and  C_45
   19  A    between atoms: C_38  and  C_52
   20  A    between atoms: C_38  and  C_55
   21  A    between atoms: C_48  and  S_51
                            x       y       z     vdW  Elec       q    Type
                         _______ _______ _______ _____ _____    ______ ____

>  <TORSDO>
F 21

$$$$
=
 OpenBabel11042418013D

 61 68  0  0  1  0  0  0  0  0999 V2000
  194.1570  174.0990  141.2780 S   0  0  0  0  0  0  0  0  0  0  0  0
  195.3470  171.9960  140.6300 C   0  0  0  0  0  0  0  0  0  0  0  0
  196.3550  172.9340  140.8870 C   0  0  0  0  0  3  0  0  0  0  0  0
  194.0570  172.4920  140.7890 C   0  0  0  0  0  0  0  0  0  0  0  0
  195.8380  174.1720  141.2520 C   0  0  0  0  0  0  0  0  0  0  0  0
  192.7900  171.7190  140.5940 C   0  0  0  0  0  2  0  0  0  0  0  0
  192.2420  171.9590  139.2300 C   0  0  0  0  0  3  0  0  0  0  0  0
  191.2070  171.2990  138.8240 N   0  0  0  0  0  0  0  0  0  0  0  0
  190.6270  171.5100  137.5320 C   0  0  0  0  0  0  0  0  0  0  0  0
  190.0900  172.7900  137.1880 N   0  0  0  0  0  0  0  0  0  0  0  0
  190.5690  170.5630  136.6950 O   0  0  0  0  0  0  0  0  0  0  0  0
  190.8600  173.4730  135.0960 O   0  0  0  0  0  1  0  0  0  0  0  0
  189.7220  173.0920  135.8090 C   0  0  0  0  0  2  0  0  0  0  0  0
  189.7990  173.7700  138.2260 C   0  0  0  0  0  2  0  0  0  0  0  0
  188.3370  173.6490  138.6550 C   0  0  0  0  0  2  0  0  0  0  0  0
  188.1870  172.6510  139.7950 C   0  0  0  0  0  2  0  0  0  0  0  0
  189.1310  172.0980  141.9130 O   0  0  0  0  0  1  0  0  0  0  0  0
  188.8780  173.1680  141.0530 C   0  0  2  0  0  3  0  0  0  0  0  0
  187.9920  174.1840  141.7640 C   0  0  0  0  0  2  0  0  0  0  0  0
  188.8190  175.2750  142.4290 C   0  0  1  0  0  3  0  0  0  0  0  0
  190.1360  175.1870  141.9720 O   0  0  0  0  0  1  0  0  0  0  0  0
  188.2470  176.6430  142.0790 C   0  0  0  0  0  2  0  0  0  0  0  0
  187.3670  176.5440  140.8470 C   0  0  0  0  0  1  0  0  0  0  0  0
  196.6550  175.3600  141.6360 C   0  0  0  0  0  2  0  0  0  0  0  0
  197.9050  174.9220  142.3830 C   0  0  0  0  0  2  0  0  0  0  0  0
  197.7410  175.1780  143.8730 C   0  0  0  0  0  2  0  0  0  0  0  0
  194.7770  172.2720  145.0520 C   0  0  0  0  0  2  0  0  0  0  0  0
  197.1220  173.2810  145.3550 C   0  0  1  0  0  3  0  0  0  0  0  0
  193.9590  173.3350  145.7570 C   0  0  0  0  0  2  0  0  0  0  0  0
  195.6070  176.5810  144.7290 O   0  0  0  0  0  1  0  0  0  0  0  0
  196.5690  174.3740  144.4350 C   0  0  1  0  0  3  0  0  0  0  0  0
  196.1370  172.1580  145.7170 C   0  0  2  0  0  3  0  0  0  0  0  0
  197.1710  171.9440  144.6300 C   0  0  0  0  0  2  0  0  0  0  0  0
  194.1420  174.7220  145.1290 C   0  0  2  0  0  3  0  0  0  0  0  0
  195.5820  175.2670  145.2130 C   0  0  2  0  0  3  0  0  0  0  0  0
  190.3590  176.5760  146.1740 C   0  0  1  0  0  3  0  0  0  0  0  0
  192.3150  176.3800  144.6250 C   0  0  0  0  0  2  0  0  0  0  0  0
  191.2590  177.3320  145.1880 C   0  0  1  0  0  3  0  0  0  0  0  0
  193.1310  175.7070  145.7340 C   0  0  1  0  0  3  0  0  0  0  0  0
  192.2190  175.0220  146.7630 C   0  0  0  0  0  2  0  0  0  0  0  0
  190.4890  177.8080  144.1200 O   0  0  0  0  0  1  0  0  0  0  0  0
  191.1990  176.0090  147.3110 C   0  0  0  0  0  2  0  0  0  0  0  0
  189.2800  177.4760  146.7750 C   0  0  0  0  0  2  0  0  0  0  0  0
  187.2650  178.2020  145.0130 O   0  0  0  0  0  1  0  0  0  0  0  0
  187.9110  176.7920  146.8590 C   0  0  1  0  0  0  0  0  0  0  0  0
  186.6950  177.6080  147.2420 C   0  0  0  0  0  2  0  0  0  0  0  0
  186.8600  177.1260  145.8070 C   0  0  1  0  0  3  0  0  0  0  0  0
  187.8670  175.4670  147.3010 O   0  0  0  0  0  1  0  0  0  0  0  0
  195.7100  170.3060  140.1650 S   0  0  0  0  0  0  0  0  0  0  0  0
  195.5470  168.8070  135.0990 C   0  0  0  0  0  2  0  0  0  0  0  0
  196.2110  170.8300  137.4190 C   0  0  1  0  0  0  0  0  0  0  0  0
  194.6390  169.8880  134.5140 C   0  0  0  0  0  2  0  0  0  0  0  0
  194.0410  171.1500  135.7100 S   0  0  0  0  0  0  0  0  0  0  0  0
  197.2620  170.3100  136.4360 C   0  0  1  0  0  3  0  0  0  0  0  0
  194.7110  170.4450  137.2510 C   0  0  1  0  0  3  0  0  0  0  0  0
  197.0970  169.6890  137.8230 C   0  0  1  0  0  3  0  0  0  0  0  0
  196.8290  170.8180  138.8170 C   0  0  2  0  0  3  0  0  0  0  0  0
  196.9740  169.2790  135.3260 C   0  0  0  0  0  2  0  0  0  0  0  0
  194.0920  169.0700  137.5710 C   0  0  0  0  0  3  0  0  0  0  0  0
  193.0120  168.8420  136.7350 F   0  0  0  0  0  0  0  0  0  0  0  0
  193.7220  168.8770  138.8860 F   0  0  0  0  0  0  0  0  0  0  0  0
  2  4  2  0  0  0  0
  2  3  1  0  0  0  0
  3  5  2  0  0  0  0
  4  1  1  0  0  0  0
  5  1  1  0  0  0  0
  5 24  1  0  0  0  0
  6  4  1  0  0  0  0
  7  6  1  0  0  0  0
  8  7  2  0  0  0  0
  9  8  1  0  0  0  0
 10  9  1  0  0  0  0
 10 14  1  0  0  0  0
 11  9  2  0  0  0  0
 12 13  1  0  0  0  0
 13 10  1  0  0  0  0
 14 15  1  0  0  0  0
 15 16  1  0  0  0  0
 16 18  1  0  0  0  0
 18 19  1  0  0  0  0
 18 17  1  1  0  0  0
 19 20  1  0  0  0  0
 20 21  1  6  0  0  0
 22 20  1  0  0  0  0
 23 22  1  0  0  0  0
 24 25  1  0  0  0  0
 25 26  1  0  0  0  0
 27 32  1  0  0  0  0
 27 29  1  0  0  0  0
 28 33  1  6  0  0  0
 28 32  1  0  0  0  0
 31 26  1  1  0  0  0
 31 35  1  0  0  0  0
 31 28  1  0  0  0  0
 32 33  1  6  0  0  0
 34 35  1  0  0  0  0
 34 39  1  0  0  0  0
 34 29  1  1  0  0  0
 35 30  1  6  0  0  0
 36 43  1  1  0  0  0
 36 42  1  0  0  0  0
 37 38  1  0  0  0  0
 38 41  1  6  0  0  0
 38 36  1  0  0  0  0
 39 37  1  6  0  0  0
 39 40  1  0  0  0  0
 40 42  1  0  0  0  0
 43 45  1  0  0  0  0
 45 46  1  0  0  0  0
 45 48  1  1  0  0  0
 47 44  1  6  0  0  0
 47 45  1  0  0  0  0
 47 46  1  0  0  0  0
 49  2  1  0  0  0  0
 50 58  1  0  0  0  0
 51 56  1  0  0  0  0
 51 57  1  0  0  0  0
 52 50  1  0  0  0  0
 52 53  1  0  0  0  0
 53 55  1  0  0  0  0
 54 51  1  0  0  0  0
 54 56  1  0  0  0  0
 55 51  1  0  0  0  0
 55 59  1  0  0  0  0
 56 57  1  0  0  0  0
 57 49  1  0  0  0  0
 58 54  1  0  0  0  0
 59 61  1  0  0  0  0
 60 59  1  0  0  0  0
M  END
>  <MODEL>
3

>  <REMARK>
 VINA RESULT:      -6.1      4.249      8.018
  Name = 
  21 active torsions:
  status: ('A' for Active; 'I' for Inactive)
    1  A    between atoms: C_2  and  C_50
    2  A    between atoms: C_3  and  C_8
    3  A    between atoms: C_4  and  N_57
    4  A    between atoms: C_5  and  C_27
    5  A    between atoms: C_5  and  C_45
    6  A    between atoms: C_8  and  C_14
    7  A    between atoms: C_13  and  C_50
    8  A    between atoms: C_14  and  C_27
    9  A    between atoms: C_20  and  C_33
   10  A    between atoms: C_21  and  S_51
   11  A    between atoms: C_22  and  C_47
   12  A    between atoms: C_24  and  C_28
   13  A    between atoms: C_28  and  C_52
   14  A    between atoms: N_29  and  C_37
   15  A    between atoms: N_29  and  C_39
   16  A    between atoms: C_31  and  C_43
   17  A    between atoms: C_33  and  C_40
   18  A    between atoms: C_37  and  C_45
   19  A    between atoms: C_38  and  C_52
   20  A    between atoms: C_38  and  C_55
   21  A    between atoms: C_48  and  S_51
                            x       y       z     vdW  Elec       q    Type
                         _______ _______ _______ _____ _____    ______ ____

>  <TORSDO>
F 21

$$$$
=
 OpenBabel11042418013D

 61 68  0  0  1  0  0  0  0  0999 V2000
  192.9150  174.9130  141.9040 S   0  0  0  0  0  0  0  0  0  0  0  0
  193.5690  172.8380  140.6700 C   0  0  0  0  0  0  0  0  0  0  0  0
  194.6720  173.6950  140.5740 C   0  0  0  0  0  3  0  0  0  0  0  0
  192.4930  173.3740  141.3700 C   0  0  0  0  0  0  0  0  0  0  0  0
  194.4490  174.9100  141.2120 C   0  0  0  0  0  0  0  0  0  0  0  0
  191.1910  172.6860  141.6400 C   0  0  0  0  0  2  0  0  0  0  0  0
  190.2830  172.8200  140.4670 C   0  0  0  0  0  3  0  0  0  0  0  0
  189.3390  173.7030  140.4780 N   0  0  0  0  0  0  0  0  0  0  0  0
  188.4540  173.8870  139.3670 C   0  0  0  0  0  0  0  0  0  0  0  0
  187.7720  175.1320  139.1930 N   0  0  0  0  0  0  0  0  0  0  0  0
  188.2560  172.9460  138.5440 O   0  0  0  0  0  0  0  0  0  0  0  0
  187.9480  175.2980  136.8730 O   0  0  0  0  0  1  0  0  0  0  0  0
  187.0670  175.4220  137.9500 C   0  0  0  0  0  2  0  0  0  0  0  0
  187.6780  176.0810  140.2950 C   0  0  0  0  0  2  0  0  0  0  0  0
  186.9710  177.3510  139.8230 C   0  0  0  0  0  2  0  0  0  0  0  0
  185.8310  177.7180  140.7640 C   0  0  0  0  0  2  0  0  0  0  0  0
  187.7480  178.5520  141.9090 O   0  0  0  0  0  1  0  0  0  0  0  0
  186.3520  178.5330  141.9430 C   0  0  2  0  0  3  0  0  0  0  0  0
  185.8900  177.9170  143.2580 C   0  0  0  0  0  2  0  0  0  0  0  0
  185.4430  178.9850  144.2470 C   0  0  1  0  0  3  0  0  0  0  0  0
  185.6900  180.2440  143.6950 O   0  0  0  0  0  1  0  0  0  0  0  0
  183.9550  178.8340  144.5330 C   0  0  0  0  0  2  0  0  0  0  0  0
  183.1640  178.8840  143.2400 C   0  0  0  0  0  1  0  0  0  0  0  0
  195.4490  176.0110  141.3280 C   0  0  0  0  0  2  0  0  0  0  0  0
  196.7610  175.4760  141.8790 C   0  0  0  0  0  2  0  0  0  0  0  0
  196.8670  175.7800  143.3660 C   0  0  0  0  0  2  0  0  0  0  0  0
  194.4730  172.7010  145.2110 C   0  0  0  0  0  2  0  0  0  0  0  0
  196.7070  173.9610  145.0520 C   0  0  1  0  0  3  0  0  0  0  0  0
  193.6620  173.7320  145.9710 C   0  0  0  0  0  2  0  0  0  0  0  0
  194.7520  177.0290  144.4710 O   0  0  0  0  0  1  0  0  0  0  0  0
  195.8970  174.9130  144.1670 C   0  0  1  0  0  3  0  0  0  0  0  0
  195.9250  172.7790  145.6460 C   0  0  2  0  0  3  0  0  0  0  0  0
  196.7910  172.5800  144.4190 C   0  0  0  0  0  2  0  0  0  0  0  0
  193.5870  175.0730  145.2310 C   0  0  2  0  0  3  0  0  0  0  0  0
  194.9510  175.7640  145.0370 C   0  0  2  0  0  3  0  0  0  0  0  0
  189.8170  176.6890  146.6520 C   0  0  1  0  0  3  0  0  0  0  0  0
  191.6090  176.5970  144.9060 C   0  0  0  0  0  2  0  0  0  0  0  0
  190.5550  177.4860  145.5670 C   0  0  1  0  0  3  0  0  0  0  0  0
  192.5810  175.9990  145.9290 C   0  0  1  0  0  3  0  0  0  0  0  0
  191.8300  175.2730  147.0560 C   0  0  0  0  0  2  0  0  0  0  0  0
  189.6460  177.8910  144.5820 O   0  0  0  0  0  1  0  0  0  0  0  0
  190.8090  176.1990  147.6990 C   0  0  0  0  0  2  0  0  0  0  0  0
  188.7490  177.5260  147.3530 C   0  0  0  0  0  2  0  0  0  0  0  0
  186.6150  179.1820  147.9820 O   0  0  0  0  0  1  0  0  0  0  0  0
  187.3220  177.1060  146.9810 C   0  0  1  0  0  0  0  0  0  0  0  0
  186.3190  176.8270  148.0800 C   0  0  0  0  0  2  0  0  0  0  0  0
  186.1820  178.0850  147.2330 C   0  0  1  0  0  3  0  0  0  0  0  0
  187.1490  176.3180  145.8400 O   0  0  0  0  0  1  0  0  0  0  0  0
  193.5730  171.1910  139.9670 S   0  0  0  0  0  0  0  0  0  0  0  0
  191.9370  170.1300  135.0540 C   0  0  0  0  0  2  0  0  0  0  0  0
  193.3440  171.9180  137.2310 C   0  0  1  0  0  0  0  0  0  0  0  0
  190.9810  171.2980  134.8170 C   0  0  0  0  0  2  0  0  0  0  0  0
  190.8190  172.4830  136.2130 S   0  0  0  0  0  0  0  0  0  0  0  0
  194.0500  171.4330  135.9630 C   0  0  1  0  0  3  0  0  0  0  0  0
  191.8320  171.6200  137.4590 C   0  0  1  0  0  3  0  0  0  0  0  0
  194.2260  170.7060  137.2970 C   0  0  1  0  0  3  0  0  0  0  0  0
  194.3160  171.7600  138.4010 C   0  0  2  0  0  3  0  0  0  0  0  0
  193.4010  170.5120  134.9100 C   0  0  0  0  0  2  0  0  0  0  0  0
  191.2300  170.2540  137.8440 C   0  0  0  0  0  3  0  0  0  0  0  0
  189.8950  170.2170  137.4790 F   0  0  0  0  0  0  0  0  0  0  0  0
  191.3680  169.8980  139.1700 F   0  0  0  0  0  0  0  0  0  0  0  0
  2  4  2  0  0  0  0
  3  2  1  0  0  0  0
  3  5  2  0  0  0  0
  4  6  1  0  0  0  0
  4  1  1  0  0  0  0
  5 24  1  0  0  0  0
  5  1  1  0  0  0  0
  7  8  2  0  0  0  0
  7  6  1  0  0  0  0
  9  8  1  0  0  0  0
 10  9  1  0  0  0  0
 10 14  1  0  0  0  0
 11  9  2  0  0  0  0
 12 13  1  0  0  0  0
 13 10  1  0  0  0  0
 15 14  1  0  0  0  0
 15 16  1  0  0  0  0
 16 18  1  0  0  0  0
 18 17  1  1  0  0  0
 18 19  1  0  0  0  0
 19 20  1  0  0  0  0
 20 21  1  6  0  0  0
 20 22  1  0  0  0  0
 23 22  1  0  0  0  0
 24 25  1  0  0  0  0
 25 26  1  0  0  0  0
 27 32  1  0  0  0  0
 27 29  1  0  0  0  0
 28 33  1  6  0  0  0
 28 32  1  0  0  0  0
 31 26  1  1  0  0  0
 31 35  1  0  0  0  0
 31 28  1  0  0  0  0
 32 33  1  6  0  0  0
 34 39  1  0  0  0  0
 34 29  1  1  0  0  0
 35 30  1  6  0  0  0
 35 34  1  0  0  0  0
 36 43  1  1  0  0  0
 36 42  1  0  0  0  0
 37 38  1  0  0  0  0
 38 41  1  6  0  0  0
 38 36  1  0  0  0  0
 39 37  1  6  0  0  0
 39 40  1  0  0  0  0
 40 42  1  0  0  0  0
 45 48  1  6  0  0  0
 45 47  1  0  0  0  0
 45 43  1  0  0  0  0
 45 46  1  0  0  0  0
 47 44  1  1  0  0  0
 47 46  1  0  0  0  0
 49  2  1  0  0  0  0
 51 56  1  0  0  0  0
 51 55  1  0  0  0  0
 51 57  1  0  0  0  0
 52 50  1  0  0  0  0
 52 53  1  0  0  0  0
 53 55  1  0  0  0  0
 54 51  1  0  0  0  0
 54 56  1  0  0  0  0
 55 59  1  0  0  0  0
 56 57  1  0  0  0  0
 57 49  1  0  0  0  0
 58 50  1  0  0  0  0
 58 54  1  0  0  0  0
 59 61  1  0  0  0  0
 60 59  1  0  0  0  0
M  END
>  <MODEL>
4

>  <REMARK>
 VINA RESULT:      -5.8      3.644      8.569
  Name = 
  21 active torsions:
  status: ('A' for Active; 'I' for Inactive)
    1  A    between atoms: C_2  and  C_50
    2  A    between atoms: C_3  and  C_8
    3  A    between atoms: C_4  and  N_57
    4  A    between atoms: C_5  and  C_27
    5  A    between atoms: C_5  and  C_45
    6  A    between atoms: C_8  and  C_14
    7  A    between atoms: C_13  and  C_50
    8  A    between atoms: C_14  and  C_27
    9  A    between atoms: C_20  and  C_33
   10  A    between atoms: C_21  and  S_51
   11  A    between atoms: C_22  and  C_47
   12  A    between atoms: C_24  and  C_28
   13  A    between atoms: C_28  and  C_52
   14  A    between atoms: N_29  and  C_37
   15  A    between atoms: N_29  and  C_39
   16  A    between atoms: C_31  and  C_43
   17  A    between atoms: C_33  and  C_40
   18  A    between atoms: C_37  and  C_45
   19  A    between atoms: C_38  and  C_52
   20  A    between atoms: C_38  and  C_55
   21  A    between atoms: C_48  and  S_51
                            x       y       z     vdW  Elec       q    Type
                         _______ _______ _______ _____ _____    ______ ____

>  <TORSDO>
F 21

$$$$
=
 OpenBabel11042418013D

 61 68  0  0  1  0  0  0  0  0999 V2000
  188.6540  178.4760  142.0720 S   0  0  0  0  0  0  0  0  0  0  0  0
  188.4380  175.9900  141.9020 C   0  0  0  0  0  0  0  0  0  0  0  0
  189.3460  176.2170  142.9430 C   0  0  0  0  0  3  0  0  0  0  0  0
  187.9670  177.1500  141.2960 C   0  0  0  0  0  0  0  0  0  0  0  0
  189.5770  177.5720  143.1500 C   0  0  0  0  0  0  0  0  0  0  0  0
  186.9840  177.2150  140.1700 C   0  0  0  0  0  2  0  0  0  0  0  0
  185.7660  177.9660  140.5870 C   0  0  0  0  0  3  0  0  0  0  0  0
  184.6120  177.3840  140.5730 N   0  0  0  0  0  0  0  0  0  0  0  0
  183.4160  178.0550  140.9860 C   0  0  0  0  0  0  0  0  0  0  0  0
  183.2980  178.5500  142.3230 N   0  0  0  0  0  0  0  0  0  0  0  0
  182.4510  178.1960  140.1810 O   0  0  0  0  0  0  0  0  0  0  0  0
  180.9870  178.7690  142.5400 O   0  0  0  0  0  1  0  0  0  0  0  0
  182.2030  179.4400  142.6880 C   0  0  0  0  0  2  0  0  0  0  0  0
  184.2050  178.0840  143.3640 C   0  0  0  0  0  2  0  0  0  0  0  0
  185.0310  179.2560  143.8910 C   0  0  0  0  0  2  0  0  0  0  0  0
  185.8910  178.8260  145.0720 C   0  0  0  0  0  2  0  0  0  0  0  0
  184.6190  177.5820  146.6580 O   0  0  0  0  0  1  0  0  0  0  0  0
  185.4730  177.4430  145.5620 C   0  0  2  0  0  3  0  0  0  0  0  0
  186.6970  176.6360  145.9790 C   0  0  0  0  0  2  0  0  0  0  0  0
  187.7590  177.5220  146.6130 C   0  0  1  0  0  3  0  0  0  0  0  0
  187.2120  178.1530  147.7340 O   0  0  0  0  0  1  0  0  0  0  0  0
  188.9530  176.6770  147.0340 C   0  0  0  0  0  2  0  0  0  0  0  0
  188.8990  175.3190  146.3600 C   0  0  0  0  0  1  0  0  0  0  0  0
  190.4540  178.1370  144.2170 C   0  0  0  0  0  2  0  0  0  0  0  0
  191.9170  177.8980  143.8780 C   0  0  0  0  0  2  0  0  0  0  0  0
  192.1050  176.4930  143.3290 C   0  0  0  0  0  2  0  0  0  0  0  0
  195.3900  175.0090  145.7010 C   0  0  0  0  0  2  0  0  0  0  0  0
  192.9290  174.8290  144.9810 C   0  0  1  0  0  3  0  0  0  0  0  0
  196.0490  174.4010  144.4790 C   0  0  0  0  0  2  0  0  0  0  0  0
  194.0200  175.7540  141.5860 O   0  0  0  0  0  1  0  0  0  0  0  0
  193.3570  175.8440  143.9160 C   0  0  1  0  0  3  0  0  0  0  0  0
  194.0410  174.3510  145.9270 C   0  0  2  0  0  3  0  0  0  0  0  0
  193.0680  175.4220  146.3750 C   0  0  0  0  0  2  0  0  0  0  0  0
  195.7030  175.1610  143.1920 C   0  0  2  0  0  3  0  0  0  0  0  0
  194.2040  175.1460  142.8340 C   0  0  2  0  0  3  0  0  0  0  0  0
  197.0480  174.3300  139.1500 C   0  0  1  0  0  3  0  0  0  0  0  0
  195.7740  173.6370  141.1900 C   0  0  0  0  0  2  0  0  0  0  0  0
  196.5790  173.1350  139.9910 C   0  0  1  0  0  3  0  0  0  0  0  0
  196.5650  174.6440  142.0320 C   0  0  1  0  0  3  0  0  0  0  0  0
  197.1020  175.7960  141.1680 C   0  0  0  0  0  2  0  0  0  0  0  0
  195.7450  172.3170  139.2180 O   0  0  0  0  0  1  0  0  0  0  0  0
  197.9120  175.2530  140.0000 C   0  0  0  0  0  2  0  0  0  0  0  0
  197.8620  173.8930  137.9330 C   0  0  0  0  0  2  0  0  0  0  0  0
  197.8670  176.0510  136.1900 O   0  0  0  0  0  1  0  0  0  0  0  0
  197.0290  173.8370  136.6470 C   0  0  1  0  0  0  0  0  0  0  0  0
  195.8710  174.7940  136.4710 C   0  0  0  0  0  2  0  0  0  0  0  0
  197.1400  174.9860  135.6530 C   0  0  1  0  0  3  0  0  0  0  0  0
  196.8310  172.5890  136.0510 O   0  0  0  0  0  1  0  0  0  0  0  0
  187.9250  174.3430  141.4230 S   0  0  0  0  0  0  0  0  0  0  0  0
  190.6730  170.9530  138.4410 C   0  0  0  0  0  2  0  0  0  0  0  0
  190.4080  173.2740  140.5530 C   0  0  1  0  0  0  0  0  0  0  0  0
  191.4820  171.9250  137.5830 C   0  0  0  0  0  2  0  0  0  0  0  0
  191.1920  173.7080  137.9210 S   0  0  0  0  0  0  0  0  0  0  0  0
  191.1330  171.9570  140.8430 C   0  0  1  0  0  3  0  0  0  0  0  0
  189.8380  173.5680  139.1330 C   0  0  1  0  0  3  0  0  0  0  0  0
  189.6880  172.1830  141.2900 C   0  0  1  0  0  3  0  0  0  0  0  0
  189.5650  173.6260  141.7790 C   0  0  2  0  0  3  0  0  0  0  0  0
  191.2300  170.7850  139.8460 C   0  0  0  0  0  2  0  0  0  0  0  0
  188.5780  172.9290  138.5160 C   0  0  0  0  0  3  0  0  0  0  0  0
  187.8250  173.9030  137.8840 F   0  0  0  0  0  0  0  0  0  0  0  0
  187.7870  172.2130  139.3920 F   0  0  0  0  0  0  0  0  0  0  0  0
  1  5  1  0  0  0  0
  2  3  1  0  0  0  0
  3  5  2  0  0  0  0
  4  2  2  0  0  0  0
  4  1  1  0  0  0  0
  5 24  1  0  0  0  0
  6  7  1  0  0  0  0
  6  4  1  0  0  0  0
  8  7  2  0  0  0  0
  8  9  1  0  0  0  0
  9 10  1  0  0  0  0
 10 13  1  0  0  0  0
 10 14  1  0  0  0  0
 11  9  2  0  0  0  0
 12 13  1  0  0  0  0
 14 15  1  0  0  0  0
 15 16  1  0  0  0  0
 16 18  1  0  0  0  0
 18 19  1  0  0  0  0
 18 17  1  1  0  0  0
 19 20  1  0  0  0  0
 20 22  1  0  0  0  0
 20 21  1  1  0  0  0
 23 22  1  0  0  0  0
 25 24  1  0  0  0  0
 26 25  1  0  0  0  0
 28 32  1  0  0  0  0
 28 33  1  1  0  0  0
 29 27  1  0  0  0  0
 31 26  1  6  0  0  0
 31 28  1  0  0  0  0
 32 27  1  6  0  0  0
 32 33  1  0  0  0  0
 34 29  1  1  0  0  0
 35 30  1  6  0  0  0
 35 34  1  0  0  0  0
 35 31  1  0  0  0  0
 36 43  1  6  0  0  0
 36 38  1  0  0  0  0
 36 42  1  0  0  0  0
 37 39  1  0  0  0  0
 38 41  1  6  0  0  0
 38 37  1  0  0  0  0
 39 40  1  6  0  0  0
 39 34  1  0  0  0  0
 42 40  1  0  0  0  0
 45 48  1  6  0  0  0
 45 43  1  0  0  0  0
 46 45  1  0  0  0  0
 47 44  1  1  0  0  0
 47 46  1  0  0  0  0
 47 45  1  0  0  0  0
 49 57  1  0  0  0  0
 49  2  1  0  0  0  0
 50 58  1  0  0  0  0
 51 54  1  0  0  0  0
 51 56  1  0  0  0  0
 51 57  1  0  0  0  0
 52 53  1  0  0  0  0
 52 50  1  0  0  0  0
 53 55  1  0  0  0  0
 54 56  1  0  0  0  0
 55 51  1  0  0  0  0
 56 57  1  0  0  0  0
 58 54  1  0  0  0  0
 59 55  1  0  0  0  0
 59 61  1  0  0  0  0
 60 59  1  0  0  0  0
M  END
>  <MODEL>
5

>  <REMARK>
 VINA RESULT:      -5.8      4.260     11.216
  Name = 
  21 active torsions:
  status: ('A' for Active; 'I' for Inactive)
    1  A    between atoms: C_2  and  C_50
    2  A    between atoms: C_3  and  C_8
    3  A    between atoms: C_4  and  N_57
    4  A    between atoms: C_5  and  C_27
    5  A    between atoms: C_5  and  C_45
    6  A    between atoms: C_8  and  C_14
    7  A    between atoms: C_13  and  C_50
    8  A    between atoms: C_14  and  C_27
    9  A    between atoms: C_20  and  C_33
   10  A    between atoms: C_21  and  S_51
   11  A    between atoms: C_22  and  C_47
   12  A    between atoms: C_24  and  C_28
   13  A    between atoms: C_28  and  C_52
   14  A    between atoms: N_29  and  C_37
   15  A    between atoms: N_29  and  C_39
   16  A    between atoms: C_31  and  C_43
   17  A    between atoms: C_33  and  C_40
   18  A    between atoms: C_37  and  C_45
   19  A    between atoms: C_38  and  C_52
   20  A    between atoms: C_38  and  C_55
   21  A    between atoms: C_48  and  S_51
                            x       y       z     vdW  Elec       q    Type
                         _______ _______ _______ _____ _____    ______ ____

>  <TORSDO>
F 21

$$$$
=
 OpenBabel11042418013D

 61 68  0  0  1  0  0  0  0  0999 V2000
  192.6680  176.4400  142.0130 S   0  0  0  0  0  0  0  0  0  0  0  0
  192.4700  173.9960  141.5170 C   0  0  0  0  0  0  0  0  0  0  0  0
  193.8300  174.2980  141.3770 C   0  0  0  0  0  3  0  0  0  0  0  0
  191.6780  175.0880  141.8560 C   0  0  0  0  0  0  0  0  0  0  0  0
  194.0950  175.6430  141.6150 C   0  0  0  0  0  0  0  0  0  0  0  0
  190.1980  175.0620  142.0810 C   0  0  0  0  0  2  0  0  0  0  0  0
  189.7050  176.4220  142.4400 C   0  0  0  0  0  3  0  0  0  0  0  0
  188.5060  176.7800  142.1180 N   0  0  0  0  0  0  0  0  0  0  0  0
  187.9760  178.0650  142.4600 C   0  0  0  0  0  0  0  0  0  0  0  0
  186.5650  178.2440  142.6020 N   0  0  0  0  0  0  0  0  0  0  0  0
  188.7500  179.0540  142.6200 O   0  0  0  0  0  0  0  0  0  0  0  0
  185.0520  179.1500  144.1280 O   0  0  0  0  0  1  0  0  0  0  0  0
  186.0290  179.4700  143.1830 C   0  0  0  0  0  2  0  0  0  0  0  0
  185.6390  177.2540  142.0670 C   0  0  0  0  0  2  0  0  0  0  0  0
  184.8620  177.8540  140.8960 C   0  0  0  0  0  2  0  0  0  0  0  0
  183.4700  178.2900  141.3350 C   0  0  0  0  0  2  0  0  0  0  0  0
  182.9210  177.1680  139.3050 O   0  0  0  0  0  1  0  0  0  0  0  0
  182.4010  177.5400  140.5460 C   0  0  2  0  0  3  0  0  0  0  0  0
  181.1800  178.4270  140.3340 C   0  0  0  0  0  2  0  0  0  0  0  0
  180.5700  178.8600  141.6590 C   0  0  1  0  0  3  0  0  0  0  0  0
  180.1480  180.1880  141.5510 O   0  0  0  0  0  1  0  0  0  0  0  0
  179.3800  177.9710  141.9950 C   0  0  0  0  0  2  0  0  0  0  0  0
  178.2920  178.1320  140.9500 C   0  0  0  0  0  1  0  0  0  0  0  0
  195.4520  176.2630  141.5920 C   0  0  0  0  0  2  0  0  0  0  0  0
  196.4590  175.3540  142.2780 C   0  0  0  0  0  2  0  0  0  0  0  0
  196.3410  175.4860  143.7880 C   0  0  0  0  0  2  0  0  0  0  0  0
  195.4010  171.4750  145.0710 C   0  0  0  0  0  2  0  0  0  0  0  0
  196.9090  173.5490  145.2390 C   0  0  1  0  0  3  0  0  0  0  0  0
  194.2140  171.9680  145.8740 C   0  0  0  0  0  2  0  0  0  0  0  0
  193.8690  175.5940  144.8510 O   0  0  0  0  0  1  0  0  0  0  0  0
  195.8000  174.1970  144.4040 C   0  0  1  0  0  3  0  0  0  0  0  0
  196.6760  172.0820  145.6290 C   0  0  2  0  0  3  0  0  0  0  0  0
  197.5790  172.4250  144.4620 C   0  0  0  0  0  2  0  0  0  0  0  0
  193.6050  173.2480  145.2870 C   0  0  2  0  0  3  0  0  0  0  0  0
  194.5620  174.4570  145.2850 C   0  0  2  0  0  3  0  0  0  0  0  0
  189.9490  175.3160  146.3810 C   0  0  1  0  0  3  0  0  0  0  0  0
  192.3950  174.9170  146.7320 C   0  0  0  0  0  2  0  0  0  0  0  0
  191.0840  175.3060  147.4150 C   0  0  1  0  0  3  0  0  0  0  0  0
  192.2860  173.5750  146.0010 C   0  0  1  0  0  3  0  0  0  0  0  0
  191.0970  173.5630  145.0280 C   0  0  0  0  0  2  0  0  0  0  0  0
  191.2380  176.5900  147.9540 O   0  0  0  0  0  1  0  0  0  0  0  0
  189.8120  173.9350  145.7520 C   0  0  0  0  0  2  0  0  0  0  0  0
  188.6070  175.6970  147.0030 C   0  0  0  0  0  2  0  0  0  0  0  0
  186.2400  176.7340  148.0110 O   0  0  0  0  0  1  0  0  0  0  0  0
  187.9710  176.9250  146.3430 C   0  0  1  0  0  0  0  0  0  0  0  0
  186.6230  176.7900  145.6670 C   0  0  0  0  0  2  0  0  0  0  0  0
  186.7350  177.5440  146.9850 C   0  0  1  0  0  3  0  0  0  0  0  0
  188.8190  177.8550  145.7370 O   0  0  0  0  0  1  0  0  0  0  0  0
  191.8320  172.3380  141.2990 S   0  0  0  0  0  0  0  0  0  0  0  0
  189.7350  171.0430  136.6230 C   0  0  0  0  0  2  0  0  0  0  0  0
  191.8880  172.4230  138.4610 C   0  0  1  0  0  0  0  0  0  0  0  0
  189.4390  172.4290  136.0540 C   0  0  0  0  0  2  0  0  0  0  0  0
  189.9000  173.8430  137.1350 S   0  0  0  0  0  0  0  0  0  0  0  0
  192.2410  171.3820  137.3960 C   0  0  1  0  0  3  0  0  0  0  0  0
  190.4230  172.9270  138.6210 C   0  0  1  0  0  3  0  0  0  0  0  0
  192.0940  170.9930  138.8670 C   0  0  1  0  0  3  0  0  0  0  0  0
  192.7060  172.1080  139.7140 C   0  0  2  0  0  3  0  0  0  0  0  0
  191.2010  170.6520  136.5210 C   0  0  0  0  0  2  0  0  0  0  0  0
  189.2590  172.1330  139.2460 C   0  0  0  0  0  3  0  0  0  0  0  0
  188.1030  172.8940  139.2040 F   0  0  0  0  0  0  0  0  0  0  0  0
  189.4770  171.6730  140.5290 F   0  0  0  0  0  0  0  0  0  0  0  0
  2  4  2  0  0  0  0
  3  2  1  0  0  0  0
  3  5  2  0  0  0  0
  4  1  1  0  0  0  0
  4  6  1  0  0  0  0
  5  1  1  0  0  0  0
  6  7  1  0  0  0  0
  8  7  2  0  0  0  0
  8  9  1  0  0  0  0
  9 10  1  0  0  0  0
  9 11  2  0  0  0  0
 10 13  1  0  0  0  0
 13 12  1  0  0  0  0
 14 10  1  0  0  0  0
 15 16  1  0  0  0  0
 15 14  1  0  0  0  0
 18 17  1  6  0  0  0
 18 16  1  0  0  0  0
 19 18  1  0  0  0  0
 19 20  1  0  0  0  0
 20 21  1  6  0  0  0
 20 22  1  0  0  0  0
 23 22  1  0  0  0  0
 24  5  1  0  0  0  0
 24 25  1  0  0  0  0
 25 26  1  0  0  0  0
 27 32  1  0  0  0  0
 27 29  1  0  0  0  0
 28 33  1  6  0  0  0
 28 32  1  0  0  0  0
 31 26  1  1  0  0  0
 31 28  1  0  0  0  0
 31 35  1  0  0  0  0
 32 33  1  6  0  0  0
 34 29  1  1  0  0  0
 34 39  1  0  0  0  0
 35 30  1  6  0  0  0
 35 34  1  0  0  0  0
 36 43  1  1  0  0  0
 36 38  1  0  0  0  0
 37 38  1  0  0  0  0
 38 41  1  6  0  0  0
 39 40  1  6  0  0  0
 39 37  1  0  0  0  0
 40 42  1  0  0  0  0
 42 36  1  0  0  0  0
 45 48  1  6  0  0  0
 45 47  1  0  0  0  0
 45 43  1  0  0  0  0
 46 45  1  0  0  0  0
 46 47  1  0  0  0  0
 47 44  1  1  0  0  0
 49  2  1  0  0  0  0
 51 55  1  0  0  0  0
 51 56  1  0  0  0  0
 51 57  1  0  0  0  0
 52 50  1  0  0  0  0
 52 53  1  0  0  0  0
 53 55  1  0  0  0  0
 54 51  1  0  0  0  0
 54 56  1  0  0  0  0
 55 59  1  0  0  0  0
 56 57  1  0  0  0  0
 57 49  1  0  0  0  0
 58 50  1  0  0  0  0
 58 54  1  0  0  0  0
 59 61  1  0  0  0  0
 60 59  1  0  0  0  0
M  END
>  <MODEL>
6

>  <REMARK>
 VINA RESULT:      -5.8      3.474      9.459
  Name = 
  21 active torsions:
  status: ('A' for Active; 'I' for Inactive)
    1  A    between atoms: C_2  and  C_50
    2  A    between atoms: C_3  and  C_8
    3  A    between atoms: C_4  and  N_57
    4  A    between atoms: C_5  and  C_27
    5  A    between atoms: C_5  and  C_45
    6  A    between atoms: C_8  and  C_14
    7  A    between atoms: C_13  and  C_50
    8  A    between atoms: C_14  and  C_27
    9  A    between atoms: C_20  and  C_33
   10  A    between atoms: C_21  and  S_51
   11  A    between atoms: C_22  and  C_47
   12  A    between atoms: C_24  and  C_28
   13  A    between atoms: C_28  and  C_52
   14  A    between atoms: N_29  and  C_37
   15  A    between atoms: N_29  and  C_39
   16  A    between atoms: C_31  and  C_43
   17  A    between atoms: C_33  and  C_40
   18  A    between atoms: C_37  and  C_45
   19  A    between atoms: C_38  and  C_52
   20  A    between atoms: C_38  and  C_55
   21  A    between atoms: C_48  and  S_51
                            x       y       z     vdW  Elec       q    Type
                         _______ _______ _______ _____ _____    ______ ____

>  <TORSDO>
F 21

$$$$
=
 OpenBabel11042418013D

 61 68  0  0  1  0  0  0  0  0999 V2000
  191.9680  175.7150  146.7210 S   0  0  0  0  0  0  0  0  0  0  0  0
  191.9930  173.7660  145.1530 C   0  0  0  0  0  0  0  0  0  0  0  0
  193.3230  174.1970  145.2360 C   0  0  0  0  0  3  0  0  0  0  0  0
  191.1030  174.5190  145.9120 C   0  0  0  0  0  0  0  0  0  0  0  0
  193.4650  175.2960  146.0760 C   0  0  0  0  0  0  0  0  0  0  0  0
  189.6290  174.2850  146.0240 C   0  0  0  0  0  2  0  0  0  0  0  0
  188.9730  175.4340  146.7090 C   0  0  0  0  0  3  0  0  0  0  0  0
  188.4270  176.3760  146.0110 N   0  0  0  0  0  0  0  0  0  0  0  0
  187.7640  177.4890  146.6200 C   0  0  0  0  0  0  0  0  0  0  0  0
  186.4350  177.8360  146.2220 N   0  0  0  0  0  0  0  0  0  0  0  0
  188.3530  178.1830  147.4990 O   0  0  0  0  0  0  0  0  0  0  0  0
  184.6410  178.1380  147.6810 O   0  0  0  0  0  1  0  0  0  0  0  0
  185.6590  178.8010  146.9930 C   0  0  0  0  0  2  0  0  0  0  0  0
  185.8780  177.3160  144.9800 C   0  0  0  0  0  2  0  0  0  0  0  0
  185.1020  178.4190  144.2610 C   0  0  0  0  0  2  0  0  0  0  0  0
  184.6090  177.9380  142.9020 C   0  0  0  0  0  2  0  0  0  0  0  0
  185.1120  178.5770  140.6620 O   0  0  0  0  0  1  0  0  0  0  0  0
  185.6940  178.1180  141.8450 C   0  0  2  0  0  3  0  0  0  0  0  0
  186.3980  176.7930  141.5770 C   0  0  0  0  0  2  0  0  0  0  0  0
  187.8820  176.9960  141.3070 C   0  0  1  0  0  3  0  0  0  0  0  0
  188.1130  178.3480  141.0400 O   0  0  0  0  0  1  0  0  0  0  0  0
  188.6920  176.5690  142.5230 C   0  0  0  0  0  2  0  0  0  0  0  0
  189.5010  177.7370  143.0520 C   0  0  0  0  0  1  0  0  0  0  0  0
  194.7620  175.9550  146.4090 C   0  0  0  0  0  2  0  0  0  0  0  0
  195.3810  176.5630  145.1610 C   0  0  0  0  0  2  0  0  0  0  0  0
  194.4800  176.3230  143.9590 C   0  0  0  0  0  2  0  0  0  0  0  0
  197.4180  175.1490  141.0260 C   0  0  0  0  0  2  0  0  0  0  0  0
  196.2230  174.6970  143.2560 C   0  0  1  0  0  3  0  0  0  0  0  0
  196.3370  174.6890  140.0690 C   0  0  0  0  0  2  0  0  0  0  0  0
  193.1330  175.9160  141.6630 O   0  0  0  0  0  1  0  0  0  0  0  0
  195.2880  175.8080  142.7690 C   0  0  1  0  0  3  0  0  0  0  0  0
  197.3590  174.3160  142.2940 C   0  0  2  0  0  3  0  0  0  0  0  0
  197.6310  175.2340  143.4680 C   0  0  0  0  0  2  0  0  0  0  0  0
  195.0260  175.4620  140.2580 C   0  0  2  0  0  3  0  0  0  0  0  0
  194.3780  175.2760  141.6450 C   0  0  2  0  0  3  0  0  0  0  0  0
  192.8150  173.1430  137.3290 C   0  0  1  0  0  3  0  0  0  0  0  0
  194.8030  174.5430  137.9250 C   0  0  0  0  0  2  0  0  0  0  0  0
  193.8580  174.1340  136.7940 C   0  0  1  0  0  3  0  0  0  0  0  0
  194.0460  175.1140  139.1280 C   0  0  1  0  0  3  0  0  0  0  0  0
  192.9480  174.1510  139.6070 C   0  0  0  0  0  2  0  0  0  0  0  0
  194.6190  173.5190  135.7920 O   0  0  0  0  0  1  0  0  0  0  0  0
  192.0200  173.7870  138.4580 C   0  0  0  0  0  2  0  0  0  0  0  0
  191.8370  172.6950  136.2450 C   0  0  0  0  0  2  0  0  0  0  0  0
  189.3240  172.2450  135.1610 O   0  0  0  0  0  1  0  0  0  0  0  0
  191.0550  171.4340  136.6300 C   0  0  1  0  0  0  0  0  0  0  0  0
  189.7580  171.5710  137.3970 C   0  0  0  0  0  2  0  0  0  0  0  0
  189.7300  171.1540  135.9340 C   0  0  1  0  0  3  0  0  0  0  0  0
  191.7830  170.2840  136.9460 O   0  0  0  0  0  1  0  0  0  0  0  0
  191.5070  172.3530  144.1680 S   0  0  0  0  0  0  0  0  0  0  0  0
  193.9310  168.5720  141.3800 C   0  0  0  0  0  2  0  0  0  0  0  0
  193.8570  170.9110  143.4880 C   0  0  1  0  0  0  0  0  0  0  0  0
  194.9460  169.4050  140.6000 C   0  0  0  0  0  2  0  0  0  0  0  0
  194.9080  171.2130  140.9310 S   0  0  0  0  0  0  0  0  0  0  0  0
  194.3450  169.4990  143.8210 C   0  0  1  0  0  3  0  0  0  0  0  0
  193.4560  171.2860  142.0300 C   0  0  1  0  0  3  0  0  0  0  0  0
  192.9210  169.9460  144.1540 C   0  0  1  0  0  3  0  0  0  0  0  0
  192.9830  171.3920  144.6460 C   0  0  2  0  0  3  0  0  0  0  0  0
  194.3400  168.3240  142.8240 C   0  0  0  0  0  2  0  0  0  0  0  0
  192.1660  170.8470  141.3080 C   0  0  0  0  0  3  0  0  0  0  0  0
  192.3800  170.8380  139.9400 F   0  0  0  0  0  0  0  0  0  0  0  0
  191.0390  171.5860  141.6060 F   0  0  0  0  0  0  0  0  0  0  0  0
  2  3  1  0  0  0  0
  2  4  2  0  0  0  0
  3  5  2  0  0  0  0
  4  6  1  0  0  0  0
  4  1  1  0  0  0  0
  5 24  1  0  0  0  0
  5  1  1  0  0  0  0
  6  7  1  0  0  0  0
  8  9  1  0  0  0  0
  8  7  2  0  0  0  0
  9 11  2  0  0  0  0
 10  9  1  0  0  0  0
 10 13  1  0  0  0  0
 13 12  1  0  0  0  0
 14 10  1  0  0  0  0
 15 14  1  0  0  0  0
 16 15  1  0  0  0  0
 18 17  1  6  0  0  0
 18 16  1  0  0  0  0
 19 18  1  0  0  0  0
 20 21  1  1  0  0  0
 20 19  1  0  0  0  0
 20 22  1  0  0  0  0
 22 23  1  0  0  0  0
 25 24  1  0  0  0  0
 26 25  1  0  0  0  0
 28 33  1  1  0  0  0
 29 27  1  0  0  0  0
 31 28  1  0  0  0  0
 31 26  1  1  0  0  0
 32 27  1  6  0  0  0
 32 28  1  0  0  0  0
 32 33  1  0  0  0  0
 34 29  1  1  0  0  0
 34 35  1  0  0  0  0
 35 30  1  6  0  0  0
 35 31  1  0  0  0  0
 36 43  1  6  0  0  0
 36 42  1  0  0  0  0
 38 41  1  6  0  0  0
 38 36  1  0  0  0  0
 38 37  1  0  0  0  0
 39 37  1  6  0  0  0
 39 40  1  0  0  0  0
 39 34  1  0  0  0  0
 42 40  1  0  0  0  0
 43 45  1  0  0  0  0
 45 48  1  1  0  0  0
 45 46  1  0  0  0  0
 47 44  1  6  0  0  0
 47 45  1  0  0  0  0
 47 46  1  0  0  0  0
 49 57  1  0  0  0  0
 49  2  1  0  0  0  0
 50 58  1  0  0  0  0
 51 54  1  0  0  0  0
 51 56  1  0  0  0  0
 51 57  1  0  0  0  0
 52 53  1  0  0  0  0
 52 50  1  0  0  0  0
 53 55  1  0  0  0  0
 54 56  1  0  0  0  0
 55 51  1  0  0  0  0
 56 57  1  0  0  0  0
 58 54  1  0  0  0  0
 59 61  1  0  0  0  0
 59 55  1  0  0  0  0
 60 59  1  0  0  0  0
M  END
>  <MODEL>
7

>  <REMARK>
 VINA RESULT:      -5.5      3.620      9.288
  Name = 
  21 active torsions:
  status: ('A' for Active; 'I' for Inactive)
    1  A    between atoms: C_2  and  C_50
    2  A    between atoms: C_3  and  C_8
    3  A    between atoms: C_4  and  N_57
    4  A    between atoms: C_5  and  C_27
    5  A    between atoms: C_5  and  C_45
    6  A    between atoms: C_8  and  C_14
    7  A    between atoms: C_13  and  C_50
    8  A    between atoms: C_14  and  C_27
    9  A    between atoms: C_20  and  C_33
   10  A    between atoms: C_21  and  S_51
   11  A    between atoms: C_22  and  C_47
   12  A    between atoms: C_24  and  C_28
   13  A    between atoms: C_28  and  C_52
   14  A    between atoms: N_29  and  C_37
   15  A    between atoms: N_29  and  C_39
   16  A    between atoms: C_31  and  C_43
   17  A    between atoms: C_33  and  C_40
   18  A    between atoms: C_37  and  C_45
   19  A    between atoms: C_38  and  C_52
   20  A    between atoms: C_38  and  C_55
   21  A    between atoms: C_48  and  S_51
                            x       y       z     vdW  Elec       q    Type
                         _______ _______ _______ _____ _____    ______ ____

>  <TORSDO>
F 21

$$$$
=
 OpenBabel11042418013D

 61 68  0  0  1  0  0  0  0  0999 V2000
  189.8210  172.4040  142.3670 S   0  0  0  0  0  0  0  0  0  0  0  0
  189.8420  171.9240  139.9120 C   0  0  0  0  0  0  0  0  0  0  0  0
  189.2490  173.1860  140.0420 C   0  0  0  0  0  3  0  0  0  0  0  0
  190.2060  171.3410  141.1220 C   0  0  0  0  0  0  0  0  0  0  0  0
  189.1570  173.5870  141.3700 C   0  0  0  0  0  0  0  0  0  0  0  0
  190.8660  170.0080  141.2890 C   0  0  0  0  0  2  0  0  0  0  0  0
  192.3480  170.1620  141.2980 C   0  0  0  0  0  3  0  0  0  0  0  0
  192.9980  170.0950  142.4140 N   0  0  0  0  0  0  0  0  0  0  0  0
  194.4240  170.2120  142.4740 C   0  0  0  0  0  0  0  0  0  0  0  0
  195.0660  170.5100  143.7160 N   0  0  0  0  0  0  0  0  0  0  0  0
  195.1220  170.0730  141.4280 O   0  0  0  0  0  0  0  0  0  0  0  0
  196.8390  169.1120  144.3020 O   0  0  0  0  0  1  0  0  0  0  0  0
  196.5140  170.3920  143.8470 C   0  0  0  0  0  2  0  0  0  0  0  0
  194.2980  171.0400  144.8350 C   0  0  0  0  0  2  0  0  0  0  0  0
  193.8050  172.4480  144.5010 C   0  0  0  0  0  2  0  0  0  0  0  0
  193.3700  173.1830  145.7610 C   0  0  0  0  0  2  0  0  0  0  0  0
  191.9270  175.0310  146.1910 O   0  0  0  0  0  1  0  0  0  0  0  0
  193.0390  174.6380  145.4440 C   0  0  2  0  0  3  0  0  0  0  0  0
  192.7300  174.8000  143.9600 C   0  0  0  0  0  2  0  0  0  0  0  0
  193.4330  176.0170  143.3750 C   0  0  1  0  0  3  0  0  0  0  0  0
  192.7040  177.1630  143.7040 O   0  0  0  0  0  1  0  0  0  0  0  0
  194.8400  176.1240  143.9460 C   0  0  0  0  0  2  0  0  0  0  0  0
  195.8680  175.8390  142.8670 C   0  0  0  0  0  1  0  0  0  0  0  0
  188.6200  174.9010  141.8310 C   0  0  0  0  0  2  0  0  0  0  0  0
  189.1710  175.2430  143.2060 C   0  0  0  0  0  2  0  0  0  0  0  0
  188.9750  176.7230  143.4950 C   0  0  0  0  0  2  0  0  0  0  0  0
  185.6970  176.8240  146.2990 C   0  0  0  0  0  2  0  0  0  0  0  0
  188.0780  177.5520  145.6590 C   0  0  1  0  0  3  0  0  0  0  0  0
  184.9060  177.7530  145.4000 C   0  0  0  0  0  2  0  0  0  0  0  0
  186.8920  177.8130  142.1800 O   0  0  0  0  0  1  0  0  0  0  0  0
  187.6980  176.9550  144.3010 C   0  0  1  0  0  3  0  0  0  0  0  0
  186.9790  177.5120  146.7320 C   0  0  2  0  0  3  0  0  0  0  0  0
  188.0860  176.4770  146.7350 C   0  0  0  0  0  2  0  0  0  0  0  0
  185.2540  177.5660  143.9180 C   0  0  2  0  0  3  0  0  0  0  0  0
  186.7200  177.8930  143.5680 C   0  0  2  0  0  3  0  0  0  0  0  0
  181.7020  178.5930  141.6440 C   0  0  1  0  0  3  0  0  0  0  0  0
  184.0090  177.6250  141.7300 C   0  0  0  0  0  2  0  0  0  0  0  0
  182.9970  178.3620  140.8520 C   0  0  1  0  0  3  0  0  0  0  0  0
  184.2750  178.3640  143.0460 C   0  0  1  0  0  3  0  0  0  0  0  0
  182.9670  178.6650  143.7930 C   0  0  0  0  0  2  0  0  0  0  0  0
  182.7270  177.5630  139.7340 O   0  0  0  0  0  1  0  0  0  0  0  0
  181.9980  179.4160  142.8910 C   0  0  0  0  0  2  0  0  0  0  0  0
  180.6470  179.3290  140.8200 C   0  0  0  0  0  2  0  0  0  0  0  0
  178.1530  180.4320  141.3210 O   0  0  0  0  0  1  0  0  0  0  0  0
  179.3830  178.4940  140.5850 C   0  0  1  0  0  0  0  0  0  0  0  0
  178.5080  178.1260  141.7640 C   0  0  0  0  0  2  0  0  0  0  0  0
  178.0240  179.1600  140.7580 C   0  0  1  0  0  3  0  0  0  0  0  0
  179.4160  177.5260  139.5780 O   0  0  0  0  0  1  0  0  0  0  0  0
  190.1180  171.1570  138.3180 S   0  0  0  0  0  0  0  0  0  0  0  0
  194.4630  173.7410  136.7690 C   0  0  0  0  0  2  0  0  0  0  0  0
  191.4220  172.9520  136.5440 C   0  0  1  0  0  0  0  0  0  0  0  0
  194.6380  173.1760  135.3600 C   0  0  0  0  0  2  0  0  0  0  0  0
  193.3740  171.9480  134.8360 S   0  0  0  0  0  0  0  0  0  0  0  0
  191.9030  174.3970  136.6930 C   0  0  1  0  0  3  0  0  0  0  0  0
  192.4470  171.7870  136.3970 C   0  0  1  0  0  3  0  0  0  0  0  0
  191.4120  173.5950  137.8990 C   0  0  1  0  0  3  0  0  0  0  0  0
  190.2090  172.7630  137.4560 C   0  0  2  0  0  3  0  0  0  0  0  0
  193.3800  174.8050  136.8600 C   0  0  0  0  0  2  0  0  0  0  0  0
  193.3200  171.2070  137.5270 C   0  0  0  0  0  3  0  0  0  0  0  0
  193.1820  169.8300  137.5590 F   0  0  0  0  0  0  0  0  0  0  0  0
  193.0940  171.7350  138.7820 F   0  0  0  0  0  0  0  0  0  0  0  0
  2  3  1  0  0  0  0
  2  4  2  0  0  0  0
  3  5  2  0  0  0  0
  4  6  1  0  0  0  0
  4  1  1  0  0  0  0
  5 24  1  0  0  0  0
  5  1  1  0  0  0  0
  6  7  1  0  0  0  0
  7  8  2  0  0  0  0
  8  9  1  0  0  0  0
  9 10  1  0  0  0  0
 10 13  1  0  0  0  0
 10 14  1  0  0  0  0
 11  9  2  0  0  0  0
 13 12  1  0  0  0  0
 15 14  1  0  0  0  0
 15 16  1  0  0  0  0
 18 16  1  0  0  0  0
 18 17  1  1  0  0  0
 19 18  1  0  0  0  0
 20 21  1  1  0  0  0
 20 22  1  0  0  0  0
 20 19  1  0  0  0  0
 23 22  1  0  0  0  0
 24 25  1  0  0  0  0
 25 26  1  0  0  0  0
 28 32  1  0  0  0  0
 28 33  1  1  0  0  0
 29 27  1  0  0  0  0
 31 26  1  6  0  0  0
 31 28  1  0  0  0  0
 32 27  1  6  0  0  0
 32 33  1  0  0  0  0
 34 29  1  1  0  0  0
 35 30  1  6  0  0  0
 35 34  1  0  0  0  0
 35 31  1  0  0  0  0
 36 43  1  6  0  0  0
 36 42  1  0  0  0  0
 38 41  1  6  0  0  0
 38 36  1  0  0  0  0
 38 37  1  0  0  0  0
 39 37  1  6  0  0  0
 39 40  1  0  0  0  0
 39 34  1  0  0  0  0
 42 40  1  0  0  0  0
 45 48  1  6  0  0  0
 45 47  1  0  0  0  0
 45 43  1  0  0  0  0
 45 46  1  0  0  0  0
 47 44  1  1  0  0  0
 47 46  1  0  0  0  0
 49  2  1  0  0  0  0
 50 58  1  0  0  0  0
 51 54  1  0  0  0  0
 51 57  1  0  0  0  0
 51 56  1  0  0  0  0
 52 50  1  0  0  0  0
 53 52  1  0  0  0  0
 53 55  1  0  0  0  0
 54 58  1  0  0  0  0
 54 56  1  0  0  0  0
 55 51  1  0  0  0  0
 55 59  1  0  0  0  0
 57 56  1  0  0  0  0
 57 49  1  0  0  0  0
 59 60  1  0  0  0  0
 59 61  1  0  0  0  0
M  END
>  <MODEL>
8

>  <REMARK>
 VINA RESULT:      -5.4      3.072      5.815
  Name = 
  21 active torsions:
  status: ('A' for Active; 'I' for Inactive)
    1  A    between atoms: C_2  and  C_50
    2  A    between atoms: C_3  and  C_8
    3  A    between atoms: C_4  and  N_57
    4  A    between atoms: C_5  and  C_27
    5  A    between atoms: C_5  and  C_45
    6  A    between atoms: C_8  and  C_14
    7  A    between atoms: C_13  and  C_50
    8  A    between atoms: C_14  and  C_27
    9  A    between atoms: C_20  and  C_33
   10  A    between atoms: C_21  and  S_51
   11  A    between atoms: C_22  and  C_47
   12  A    between atoms: C_24  and  C_28
   13  A    between atoms: C_28  and  C_52
   14  A    between atoms: N_29  and  C_37
   15  A    between atoms: N_29  and  C_39
   16  A    between atoms: C_31  and  C_43
   17  A    between atoms: C_33  and  C_40
   18  A    between atoms: C_37  and  C_45
   19  A    between atoms: C_38  and  C_52
   20  A    between atoms: C_38  and  C_55
   21  A    between atoms: C_48  and  S_51
                            x       y       z     vdW  Elec       q    Type
                         _______ _______ _______ _____ _____    ______ ____

>  <TORSDO>
F 21

$$$$
=
 OpenBabel11042418013D

 61 68  0  0  1  0  0  0  0  0999 V2000
  192.6500  173.5060  138.8960 S   0  0  0  0  0  0  0  0  0  0  0  0
  190.5730  173.3680  140.2840 C   0  0  0  0  0  0  0  0  0  0  0  0
  191.6190  173.5640  141.1940 C   0  0  0  0  0  3  0  0  0  0  0  0
  190.9810  173.2960  138.9560 C   0  0  0  0  0  0  0  0  0  0  0  0
  192.8540  173.6500  140.5600 C   0  0  0  0  0  0  0  0  0  0  0  0
  190.0860  173.1030  137.7720 C   0  0  0  0  0  2  0  0  0  0  0  0
  190.8090  172.3800  136.6880 C   0  0  0  0  0  3  0  0  0  0  0  0
  191.0610  171.1180  136.8100 N   0  0  0  0  0  0  0  0  0  0  0  0
  191.7320  170.3730  135.7870 C   0  0  0  0  0  0  0  0  0  0  0  0
  193.1170  170.0490  135.9290 N   0  0  0  0  0  0  0  0  0  0  0  0
  191.1100  170.0140  134.7460 O   0  0  0  0  0  0  0  0  0  0  0  0
  195.1310  169.1020  135.2310 O   0  0  0  0  0  1  0  0  0  0  0  0
  193.7490  169.0930  135.0270 C   0  0  0  0  0  2  0  0  0  0  0  0
  193.9430  170.7520  136.9030 C   0  0  0  0  0  2  0  0  0  0  0  0
  193.8200  170.0750  138.2670 C   0  0  0  0  0  2  0  0  0  0  0  0
  195.1250  169.3910  138.6520 C   0  0  0  0  0  2  0  0  0  0  0  0
  197.3280  169.4240  137.7410 O   0  0  0  0  0  1  0  0  0  0  0  0
  196.3190  170.2480  138.2440 C   0  0  2  0  0  3  0  0  0  0  0  0
  196.8530  171.0190  139.4450 C   0  0  0  0  0  2  0  0  0  0  0  0
  197.6840  172.2190  139.0120 C   0  0  1  0  0  3  0  0  0  0  0  0
  197.1600  172.7260  137.8210 O   0  0  0  0  0  1  0  0  0  0  0  0
  197.6390  173.2940  140.0900 C   0  0  0  0  0  2  0  0  0  0  0  0
  197.8040  174.6670  139.4680 C   0  0  0  0  0  1  0  0  0  0  0  0
  194.1520  173.9070  141.2500 C   0  0  0  0  0  2  0  0  0  0  0  0
  194.6130  175.3330  140.9950 C   0  0  0  0  0  2  0  0  0  0  0  0
  195.0030  176.0000  142.3050 C   0  0  0  0  0  2  0  0  0  0  0  0
  195.5570  172.7620  145.1020 C   0  0  0  0  0  2  0  0  0  0  0  0
  196.3680  174.9960  144.1240 C   0  0  1  0  0  3  0  0  0  0  0  0
  194.4270  173.2700  145.9740 C   0  0  0  0  0  2  0  0  0  0  0  0
  192.8290  175.9950  143.8930 O   0  0  0  0  0  1  0  0  0  0  0  0
  194.9910  174.9900  143.4510 C   0  0  1  0  0  3  0  0  0  0  0  0
  196.6610  173.8030  145.0460 C   0  0  2  0  0  3  0  0  0  0  0  0
  197.2090  173.8270  143.6340 C   0  0  0  0  0  2  0  0  0  0  0  0
  193.3690  174.0350  145.1690 C   0  0  2  0  0  3  0  0  0  0  0  0
  193.8980  175.3140  144.4880 C   0  0  2  0  0  3  0  0  0  0  0  0
  189.8200  175.9920  146.7240 C   0  0  1  0  0  3  0  0  0  0  0  0
  192.3060  175.6970  146.7340 C   0  0  0  0  0  2  0  0  0  0  0  0
  191.0890  176.0550  147.5870 C   0  0  1  0  0  3  0  0  0  0  0  0
  192.1510  174.3310  146.0560 C   0  0  1  0  0  3  0  0  0  0  0  0
  190.8390  174.2470  145.2610 C   0  0  0  0  0  2  0  0  0  0  0  0
  191.2640  177.3580  148.0690 O   0  0  0  0  0  1  0  0  0  0  0  0
  189.6540  174.5900  146.1510 C   0  0  0  0  0  2  0  0  0  0  0  0
  188.5650  176.3400  147.5210 C   0  0  0  0  0  2  0  0  0  0  0  0
  185.9260  176.5080  148.3590 O   0  0  0  0  0  1  0  0  0  0  0  0
  187.5620  177.1780  146.7200 C   0  0  1  0  0  0  0  0  0  0  0  0
  186.4020  176.4900  146.0320 C   0  0  0  0  0  2  0  0  0  0  0  0
  186.1490  177.3470  147.2640 C   0  0  1  0  0  3  0  0  0  0  0  0
  188.0430  178.2970  146.0370 O   0  0  0  0  0  1  0  0  0  0  0  0
  188.8640  173.2460  140.8040 S   0  0  0  0  0  0  0  0  0  0  0  0
  188.2720  178.4190  141.7180 C   0  0  0  0  0  2  0  0  0  0  0  0
  188.3220  175.3910  142.5840 C   0  0  1  0  0  0  0  0  0  0  0  0
  186.8210  178.4550  142.1950 C   0  0  0  0  0  2  0  0  0  0  0  0
  185.9650  176.8290  142.2530 S   0  0  0  0  0  0  0  0  0  0  0  0
  189.2090  176.4600  143.2260 C   0  0  1  0  0  3  0  0  0  0  0  0
  187.2600  175.7820  141.5130 C   0  0  1  0  0  3  0  0  0  0  0  0
  189.7420  175.5420  142.1260 C   0  0  1  0  0  3  0  0  0  0  0  0
  189.1760  174.1420  142.3620 C   0  0  2  0  0  3  0  0  0  0  0  0
  189.2430  177.9370  142.7840 C   0  0  0  0  0  2  0  0  0  0  0  0
  187.5560  176.1790  140.0530 C   0  0  0  0  0  3  0  0  0  0  0  0
  186.4760  176.8730  139.5340 F   0  0  0  0  0  0  0  0  0  0  0  0
  187.8990  175.1380  139.2140 F   0  0  0  0  0  0  0  0  0  0  0  0
  1  4  1  0  0  0  0
  1  5  1  0  0  0  0
  2 49  1  0  0  0  0
  2  3  1  0  0  0  0
  4  2  2  0  0  0  0
  5  3  2  0  0  0  0
  5 24  1  0  0  0  0
  6  4  1  0  0  0  0
  7  8  2  0  0  0  0
  7  6  1  0  0  0  0
  9 10  1  0  0  0  0
  9  8  1  0  0  0  0
 10 14  1  0  0  0  0
 11  9  2  0  0  0  0
 13 12  1  0  0  0  0
 13 10  1  0  0  0  0
 14 15  1  0  0  0  0
 15 16  1  0  0  0  0
 18 17  1  1  0  0  0
 18 16  1  0  0  0  0
 18 19  1  0  0  0  0
 20 21  1  6  0  0  0
 20 19  1  0  0  0  0
 20 22  1  0  0  0  0
 23 22  1  0  0  0  0
 25 24  1  0  0  0  0
 25 26  1  0  0  0  0
 27 29  1  0  0  0  0
 28 33  1  6  0  0  0
 28 32  1  0  0  0  0
 31 26  1  6  0  0  0
 31 28  1  0  0  0  0
 31 35  1  0  0  0  0
 32 33  1  6  0  0  0
 32 27  1  0  0  0  0
 34 29  1  1  0  0  0
 34 39  1  0  0  0  0
 35 30  1  6  0  0  0
 35 34  1  0  0  0  0
 36 43  1  1  0  0  0
 36 38  1  0  0  0  0
 37 38  1  0  0  0  0
 38 41  1  6  0  0  0
 39 40  1  6  0  0  0
 39 37  1  0  0  0  0
 40 42  1  0  0  0  0
 42 36  1  0  0  0  0
 45 48  1  6  0  0  0
 45 47  1  0  0  0  0
 45 43  1  0  0  0  0
 46 45  1  0  0  0  0
 46 47  1  0  0  0  0
 47 44  1  1  0  0  0
 49 57  1  0  0  0  0
 50 52  1  0  0  0  0
 50 58  1  0  0  0  0
 51 54  1  0  0  0  0
 52 53  1  0  0  0  0
 55 53  1  0  0  0  0
 55 51  1  0  0  0  0
 56 57  1  0  0  0  0
 56 51  1  0  0  0  0
 56 54  1  0  0  0  0
 57 51  1  0  0  0  0
 58 54  1  0  0  0  0
 59 55  1  0  0  0  0
 60 59  1  0  0  0  0
 61 59  1  0  0  0  0
M  END
>  <MODEL>
9

>  <REMARK>
 VINA RESULT:      -5.4      4.705      8.729
  Name = 
  21 active torsions:
  status: ('A' for Active; 'I' for Inactive)
    1  A    between atoms: C_2  and  C_50
    2  A    between atoms: C_3  and  C_8
    3  A    between atoms: C_4  and  N_57
    4  A    between atoms: C_5  and  C_27
    5  A    between atoms: C_5  and  C_45
    6  A    between atoms: C_8  and  C_14
    7  A    between atoms: C_13  and  C_50
    8  A    between atoms: C_14  and  C_27
    9  A    between atoms: C_20  and  C_33
   10  A    between atoms: C_21  and  S_51
   11  A    between atoms: C_22  and  C_47
   12  A    between atoms: C_24  and  C_28
   13  A    between atoms: C_28  and  C_52
   14  A    between atoms: N_29  and  C_37
   15  A    between atoms: N_29  and  C_39
   16  A    between atoms: C_31  and  C_43
   17  A    between atoms: C_33  and  C_40
   18  A    between atoms: C_37  and  C_45
   19  A    between atoms: C_38  and  C_52
   20  A    between atoms: C_38  and  C_55
   21  A    between atoms: C_48  and  S_51
                            x       y       z     vdW  Elec       q    Type
                         _______ _______ _______ _____ _____    ______ ____

>  <TORSDO>
F 21

$$$$
