=
 OpenBabel11042418273D

 28 31  0  0  1  0  0  0  0  0999 V2000
  188.2530  174.6240  142.3030 C   0  0  0  0  0  0  0  0  0  0  0  0
  188.9500  172.4550  141.4340 C   0  0  0  0  0  3  0  0  0  0  0  0
  188.1850  173.5430  141.3060 C   0  0  0  0  0  3  0  0  0  0  0  0
  189.1840  174.4820  143.4470 C   0  0  0  0  0  0  0  0  0  0  0  0
  189.2600  175.4280  144.3450 N   0  0  0  0  0  0  0  0  0  0  0  0
  189.8820  172.3010  142.5700 C   0  0  0  0  0  3  0  0  0  0  0  0
  187.4990  175.6810  142.1610 C   0  0  0  0  0  0  0  0  0  0  0  0
  189.9940  173.2440  143.5120 C   0  0  0  0  0  3  0  0  0  0  0  0
  186.7510  176.7450  142.0330 C   0  0  0  0  0  3  0  0  0  0  0  0
  191.3760  176.0150  145.3920 C   0  0  0  0  0  3  0  0  0  0  0  0
  190.4910  175.2160  147.8900 C   0  0  0  0  0  3  0  0  0  0  0  0
  189.6390  175.1030  146.7910 C   0  0  0  0  0  3  0  0  0  0  0  0
  190.0810  175.5080  145.5240 C   0  0  0  0  0  0  0  0  0  0  0  0
  192.2120  176.1000  146.5120 C   0  0  0  0  0  0  0  0  0  0  0  0
  191.7450  175.7120  147.7320 N   0  0  0  0  0  0  0  0  0  0  0  0
  194.1300  176.4240  144.9860 C   0  0  0  0  0  2  0  0  0  0  0  0
  194.6040  175.5800  146.1450 C   0  0  0  0  0  2  0  0  0  0  0  0
  193.5840  176.6810  146.3800 C   0  0  0  0  0  3  0  0  0  0  0  0
  186.8100  177.8700  143.0240 C   0  0  0  0  0  0  0  0  0  0  0  0
  188.1380  178.0990  143.3990 O   0  0  0  0  0  1  0  0  0  0  0  0
  186.2970  179.0260  142.4260 O   0  0  0  0  0  1  0  0  0  0  0  0
  184.6150  178.2620  144.2640 C   0  0  0  0  0  2  0  0  0  0  0  0
  185.9730  177.5200  144.2630 C   0  0  2  0  0  3  0  0  0  0  0  0
  184.0950  178.6450  145.6580 C   0  0  0  0  0  2  0  0  0  0  0  0
  186.2950  176.6620  147.6810 O   0  0  0  0  0  0  0  0  0  0  0  0
  185.8610  177.3250  146.7030 C   0  0  0  0  0  0  0  0  0  0  0  0
  186.7600  177.6840  145.5710 C   0  0  0  0  0  2  0  0  0  0  0  0
  184.5270  177.7220  146.6550 O   0  0  0  0  0  0  0  0  0  0  0  0
  1  4  1  0  0  0  0
  2  6  1  0  0  0  0
  3  2  2  0  0  0  0
  3  1  1  0  0  0  0
  4  8  1  0  0  0  0
  4  5  2  0  0  0  0
  5 13  1  0  0  0  0
  6  8  2  0  0  0  0
  7  1  2  0  0  0  0
  9  7  2  0  0  0  0
  9 19  1  0  0  0  0
 10 13  2  0  0  0  0
 10 14  1  0  0  0  0
 12 11  2  0  0  0  0
 13 12  1  0  0  0  0
 14 15  2  0  0  0  0
 15 11  1  0  0  0  0
 16 17  1  0  0  0  0
 16 18  1  0  0  0  0
 17 18  1  0  0  0  0
 18 14  1  0  0  0  0
 19 20  1  0  0  0  0
 21 19  1  0  0  0  0
 22 24  1  0  0  0  0
 23 19  1  6  0  0  0
 23 22  1  0  0  0  0
 23 27  1  0  0  0  0
 24 28  1  0  0  0  0
 26 25  2  0  0  0  0
 27 26  1  0  0  0  0
 28 26  1  0  0  0  0
M  END
>  <MODEL>
1

>  <REMARK>
 VINA RESULT:      -8.0      0.000      0.000
  Name = 
  4 active torsions:
  status: ('A' for Active; 'I' for Inactive)
    1  A    between atoms: C_8  and  C_11
    2  A    between atoms: C_8  and  C_28
    3  A    between atoms: C_13  and  N_16
    4  A    between atoms: C_21  and  C_22
                            x       y       z     vdW  Elec       q    Type
                         _______ _______ _______ _____ _____    ______ ____

>  <TORSDO>
F 4

$$$$
=
 OpenBabel11042418273D

 28 31  0  0  1  0  0  0  0  0999 V2000
  186.7710  177.7960  146.4120 C   0  0  0  0  0  0  0  0  0  0  0  0
  184.6560  178.4970  147.4030 C   0  0  0  0  0  3  0  0  0  0  0  0
  185.9280  178.1230  147.5740 C   0  0  0  0  0  3  0  0  0  0  0  0
  186.1830  177.8890  145.0550 C   0  0  0  0  0  0  0  0  0  0  0  0
  186.9120  177.6020  144.0090 N   0  0  0  0  0  0  0  0  0  0  0  0
  184.0590  178.5940  146.0550 C   0  0  0  0  0  3  0  0  0  0  0  0
  188.0130  177.4340  146.5970 C   0  0  0  0  0  0  0  0  0  0  0  0
  184.7680  178.3100  144.9580 C   0  0  0  0  0  3  0  0  0  0  0  0
  189.2560  177.0710  146.7660 C   0  0  0  0  0  3  0  0  0  0  0  0
  185.3050  178.1210  142.2590 C   0  0  0  0  0  3  0  0  0  0  0  0
  187.0110  177.2240  140.2710 C   0  0  0  0  0  3  0  0  0  0  0  0
  187.4200  177.1680  141.6040 C   0  0  0  0  0  3  0  0  0  0  0  0
  186.5610  177.6220  142.6150 C   0  0  0  0  0  0  0  0  0  0  0  0
  184.9190  178.1480  140.9140 C   0  0  0  0  0  0  0  0  0  0  0  0
  185.7830  177.7130  139.9550 N   0  0  0  0  0  0  0  0  0  0  0  0
  182.5220  178.2710  141.5080 C   0  0  0  0  0  2  0  0  0  0  0  0
  182.6250  177.6080  140.1560 C   0  0  0  0  0  2  0  0  0  0  0  0
  183.5910  178.7190  140.5270 C   0  0  0  0  0  3  0  0  0  0  0  0
  190.1440  176.7470  145.6000 C   0  0  0  0  0  0  0  0  0  0  0  0
  190.2040  177.8420  144.7340 O   0  0  0  0  0  1  0  0  0  0  0  0
  191.4300  176.4690  146.0760 O   0  0  0  0  0  1  0  0  0  0  0  0
  189.7400  174.2290  145.6930 C   0  0  0  0  0  2  0  0  0  0  0  0
  189.6000  175.5210  144.8530 C   0  0  2  0  0  3  0  0  0  0  0  0
  190.0050  172.9570  144.8730 C   0  0  0  0  0  2  0  0  0  0  0  0
  189.2370  174.1900  141.5940 O   0  0  0  0  0  0  0  0  0  0  0  0
  189.5870  174.1780  142.8030 C   0  0  0  0  0  0  0  0  0  0  0  0
  190.1740  175.3930  143.4350 C   0  0  0  0  0  2  0  0  0  0  0  0
  189.4180  173.0320  143.5770 O   0  0  0  0  0  0  0  0  0  0  0  0
  1  7  2  0  0  0  0
  1  3  1  0  0  0  0
  2  3  2  0  0  0  0
  4  1  1  0  0  0  0
  5  4  2  0  0  0  0
  6  2  1  0  0  0  0
  7  9  2  0  0  0  0
  8  4  1  0  0  0  0
  8  6  2  0  0  0  0
 10 13  1  0  0  0  0
 11 12  1  0  0  0  0
 12 13  2  0  0  0  0
 13  5  1  0  0  0  0
 14 10  2  0  0  0  0
 15 11  2  0  0  0  0
 15 14  1  0  0  0  0
 17 18  1  0  0  0  0
 17 16  1  0  0  0  0
 18 14  1  0  0  0  0
 18 16  1  0  0  0  0
 19 21  1  0  0  0  0
 19  9  1  0  0  0  0
 20 19  1  0  0  0  0
 23 19  1  1  0  0  0
 23 22  1  0  0  0  0
 24 22  1  0  0  0  0
 25 26  2  0  0  0  0
 26 27  1  0  0  0  0
 26 28  1  0  0  0  0
 27 23  1  0  0  0  0
 28 24  1  0  0  0  0
M  END
>  <MODEL>
2

>  <REMARK>
 VINA RESULT:      -7.9      2.880      7.624
  Name = 
  4 active torsions:
  status: ('A' for Active; 'I' for Inactive)
    1  A    between atoms: C_8  and  C_11
    2  A    between atoms: C_8  and  C_28
    3  A    between atoms: C_13  and  N_16
    4  A    between atoms: C_21  and  C_22
                            x       y       z     vdW  Elec       q    Type
                         _______ _______ _______ _____ _____    ______ ____

>  <TORSDO>
F 4

$$$$
=
 OpenBabel11042418273D

 28 31  0  0  1  0  0  0  0  0999 V2000
  186.7700  177.3210  146.4410 C   0  0  0  0  0  0  0  0  0  0  0  0
  184.7830  178.3140  147.4450 C   0  0  0  0  0  3  0  0  0  0  0  0
  185.9760  177.7340  147.6090 C   0  0  0  0  0  3  0  0  0  0  0  0
  186.2220  177.5590  145.0840 C   0  0  0  0  0  0  0  0  0  0  0  0
  186.9090  177.1990  144.0330 N   0  0  0  0  0  0  0  0  0  0  0  0
  184.2260  178.5570  146.0980 C   0  0  0  0  0  3  0  0  0  0  0  0
  187.9350  176.7580  146.6190 C   0  0  0  0  0  0  0  0  0  0  0  0
  184.8940  178.2060  144.9950 C   0  0  0  0  0  3  0  0  0  0  0  0
  189.1020  176.1930  146.7810 C   0  0  0  0  0  3  0  0  0  0  0  0
  185.3550  177.9030  142.2980 C   0  0  0  0  0  3  0  0  0  0  0  0
  187.0580  177.0730  140.2790 C   0  0  0  0  0  3  0  0  0  0  0  0
  187.4400  176.9090  141.6110 C   0  0  0  0  0  3  0  0  0  0  0  0
  186.5830  177.3290  142.6380 C   0  0  0  0  0  0  0  0  0  0  0  0
  184.9940  178.0380  140.9530 C   0  0  0  0  0  0  0  0  0  0  0  0
  185.8570  177.6330  139.9790 N   0  0  0  0  0  0  0  0  0  0  0  0
  182.6070  178.2660  141.5550 C   0  0  0  0  0  2  0  0  0  0  0  0
  182.6750  177.6420  140.1820 C   0  0  0  0  0  2  0  0  0  0  0  0
  183.6980  178.6900  140.5870 C   0  0  0  0  0  3  0  0  0  0  0  0
  189.9420  175.7750  145.6090 C   0  0  0  0  0  0  0  0  0  0  0  0
  189.2870  174.7660  144.8960 O   0  0  0  0  0  1  0  0  0  0  0  0
  190.1290  176.8800  144.7720 O   0  0  0  0  0  1  0  0  0  0  0  0
  192.2120  176.4250  146.5750 C   0  0  0  0  0  2  0  0  0  0  0  0
  191.3050  175.2660  146.0980 C   0  0  2  0  0  3  0  0  0  0  0  0
  193.7110  176.2130  146.3190 C   0  0  0  0  0  2  0  0  0  0  0  0
  193.6920  172.7190  145.5120 O   0  0  0  0  0  0  0  0  0  0  0  0
  193.2940  173.9050  145.6490 C   0  0  0  0  0  0  0  0  0  0  0  0
  191.9850  174.3370  145.0820 C   0  0  0  0  0  2  0  0  0  0  0  0
  194.0630  174.8330  146.3480 O   0  0  0  0  0  0  0  0  0  0  0  0
  1  7  2  0  0  0  0
  1  3  1  0  0  0  0
  2  3  2  0  0  0  0
  4  1  1  0  0  0  0
  5  4  2  0  0  0  0
  6  2  1  0  0  0  0
  7  9  2  0  0  0  0
  8  4  1  0  0  0  0
  8  6  2  0  0  0  0
 10 13  1  0  0  0  0
 11 12  1  0  0  0  0
 12 13  2  0  0  0  0
 13  5  1  0  0  0  0
 14 10  2  0  0  0  0
 15 11  2  0  0  0  0
 15 14  1  0  0  0  0
 17 18  1  0  0  0  0
 17 16  1  0  0  0  0
 18 14  1  0  0  0  0
 18 16  1  0  0  0  0
 19  9  1  0  0  0  0
 20 19  1  0  0  0  0
 21 19  1  0  0  0  0
 23 19  1  6  0  0  0
 23 22  1  0  0  0  0
 24 28  1  0  0  0  0
 24 22  1  0  0  0  0
 25 26  2  0  0  0  0
 26 28  1  0  0  0  0
 27 26  1  0  0  0  0
 27 23  1  0  0  0  0
M  END
>  <MODEL>
3

>  <REMARK>
 VINA RESULT:      -7.3      3.077      7.946
  Name = 
  4 active torsions:
  status: ('A' for Active; 'I' for Inactive)
    1  A    between atoms: C_8  and  C_11
    2  A    between atoms: C_8  and  C_28
    3  A    between atoms: C_13  and  N_16
    4  A    between atoms: C_21  and  C_22
                            x       y       z     vdW  Elec       q    Type
                         _______ _______ _______ _____ _____    ______ ____

>  <TORSDO>
F 4

$$$$
=
 OpenBabel11042418273D

 28 31  0  0  1  0  0  0  0  0999 V2000
  190.3450  174.2440  142.1440 C   0  0  0  0  0  0  0  0  0  0  0  0
  189.7310  172.4430  140.6200 C   0  0  0  0  0  3  0  0  0  0  0  0
  190.6740  173.0520  141.3460 C   0  0  0  0  0  3  0  0  0  0  0  0
  188.9540  174.7540  142.1250 C   0  0  0  0  0  0  0  0  0  0  0  0
  188.6400  175.8120  142.8250 N   0  0  0  0  0  0  0  0  0  0  0  0
  188.3410  172.9410  140.5930 C   0  0  0  0  0  3  0  0  0  0  0  0
  191.2790  174.8250  142.8490 C   0  0  0  0  0  0  0  0  0  0  0  0
  187.9740  174.0200  141.2940 C   0  0  0  0  0  3  0  0  0  0  0  0
  192.2010  175.4180  143.5600 C   0  0  0  0  0  3  0  0  0  0  0  0
  186.8350  176.6210  144.2410 C   0  0  0  0  0  3  0  0  0  0  0  0
  185.4340  177.6270  142.0750 C   0  0  0  0  0  3  0  0  0  0  0  0
  186.6570  176.9880  141.8660 C   0  0  0  0  0  3  0  0  0  0  0  0
  187.3720  176.4780  142.9590 C   0  0  0  0  0  0  0  0  0  0  0  0
  185.5980  177.2520  144.4150 C   0  0  0  0  0  0  0  0  0  0  0  0
  184.9370  177.7500  143.3330 N   0  0  0  0  0  0  0  0  0  0  0  0
  184.1320  178.6590  145.8240 C   0  0  0  0  0  2  0  0  0  0  0  0
  185.5310  178.7520  146.3830 C   0  0  0  0  0  2  0  0  0  0  0  0
  185.0410  177.4430  145.7910 C   0  0  0  0  0  3  0  0  0  0  0  0
  191.8920  176.6260  144.3960 C   0  0  0  0  0  0  0  0  0  0  0  0
  192.9390  176.8590  145.2930 O   0  0  0  0  0  1  0  0  0  0  0  0
  191.7560  177.7340  143.5540 O   0  0  0  0  0  1  0  0  0  0  0  0
  189.9380  177.7470  145.5940 C   0  0  0  0  0  2  0  0  0  0  0  0
  190.5840  176.4070  145.1690 C   0  0  2  0  0  3  0  0  0  0  0  0
  189.1880  177.7000  146.9340 C   0  0  0  0  0  2  0  0  0  0  0  0
  189.0240  174.1480  147.4030 O   0  0  0  0  0  0  0  0  0  0  0  0
  189.4270  175.2740  147.0090 C   0  0  0  0  0  0  0  0  0  0  0  0
  190.7450  175.4110  146.3270 C   0  0  0  0  0  2  0  0  0  0  0  0
  188.6410  176.4090  147.1880 O   0  0  0  0  0  0  0  0  0  0  0  0
  1  7  2  0  0  0  0
  2  3  2  0  0  0  0
  3  1  1  0  0  0  0
  4  1  1  0  0  0  0
  4  5  2  0  0  0  0
  5 13  1  0  0  0  0
  6  2  1  0  0  0  0
  6  8  2  0  0  0  0
  7  9  2  0  0  0  0
  8  4  1  0  0  0  0
  9 19  1  0  0  0  0
 10 14  1  0  0  0  0
 11 15  1  0  0  0  0
 12 11  2  0  0  0  0
 12 13  1  0  0  0  0
 13 10  2  0  0  0  0
 14 18  1  0  0  0  0
 15 14  2  0  0  0  0
 16 17  1  0  0  0  0
 18 16  1  0  0  0  0
 18 17  1  0  0  0  0
 19 20  1  0  0  0  0
 21 19  1  0  0  0  0
 22 24  1  0  0  0  0
 23 19  1  1  0  0  0
 23 22  1  0  0  0  0
 23 27  1  0  0  0  0
 24 28  1  0  0  0  0
 26 28  1  0  0  0  0
 26 25  2  0  0  0  0
 27 26  1  0  0  0  0
M  END
>  <MODEL>
4

>  <REMARK>
 VINA RESULT:      -7.3      2.371      5.531
  Name = 
  4 active torsions:
  status: ('A' for Active; 'I' for Inactive)
    1  A    between atoms: C_8  and  C_11
    2  A    between atoms: C_8  and  C_28
    3  A    between atoms: C_13  and  N_16
    4  A    between atoms: C_21  and  C_22
                            x       y       z     vdW  Elec       q    Type
                         _______ _______ _______ _____ _____    ______ ____

>  <TORSDO>
F 4

$$$$
=
 OpenBabel11042418273D

 28 31  0  0  1  0  0  0  0  0999 V2000
  186.2680  177.8560  144.9410 C   0  0  0  0  0  0  0  0  0  0  0  0
  184.8500  178.2960  146.8750 C   0  0  0  0  0  3  0  0  0  0  0  0
  185.0050  178.3080  145.5470 C   0  0  0  0  0  3  0  0  0  0  0  0
  187.3600  177.3900  145.8280 C   0  0  0  0  0  0  0  0  0  0  0  0
  188.4900  176.9860  145.3120 N   0  0  0  0  0  0  0  0  0  0  0  0
  185.9300  177.8330  147.7700 C   0  0  0  0  0  3  0  0  0  0  0  0
  186.4020  177.8730  143.6410 C   0  0  0  0  0  0  0  0  0  0  0  0
  187.1030  177.4110  147.2860 C   0  0  0  0  0  3  0  0  0  0  0  0
  186.5510  177.8840  142.3440 C   0  0  0  0  0  3  0  0  0  0  0  0
  190.9140  176.8090  145.4070 C   0  0  0  0  0  3  0  0  0  0  0  0
  190.8250  175.2900  147.7210 C   0  0  0  0  0  3  0  0  0  0  0  0
  189.6340  175.7260  147.1380 C   0  0  0  0  0  3  0  0  0  0  0  0
  189.6730  176.4960  145.9670 C   0  0  0  0  0  0  0  0  0  0  0  0
  192.0900  176.3430  146.0070 C   0  0  0  0  0  0  0  0  0  0  0  0
  192.0170  175.6090  147.1530 N   0  0  0  0  0  0  0  0  0  0  0  0
  194.5130  175.8580  146.0530 C   0  0  0  0  0  2  0  0  0  0  0  0
  194.3230  177.2840  146.5110 C   0  0  0  0  0  2  0  0  0  0  0  0
  193.4210  176.7110  145.4320 C   0  0  0  0  0  3  0  0  0  0  0  0
  187.8210  177.4140  141.6950 C   0  0  0  0  0  0  0  0  0  0  0  0
  187.6650  177.4010  140.3060 O   0  0  0  0  0  1  0  0  0  0  0  0
  188.8520  178.2970  142.0320 O   0  0  0  0  0  1  0  0  0  0  0  0
  189.6990  175.8160  142.3510 C   0  0  0  0  0  2  0  0  0  0  0  0
  188.1710  176.0050  142.1930 C   0  0  2  0  0  3  0  0  0  0  0  0
  190.2040  174.3970  142.0500 C   0  0  0  0  0  2  0  0  0  0  0  0
  187.0760  172.6440  142.0130 O   0  0  0  0  0  0  0  0  0  0  0  0
  187.9090  173.5830  141.9180 C   0  0  0  0  0  0  0  0  0  0  0  0
  187.5040  174.9030  141.3570 C   0  0  0  0  0  2  0  0  0  0  0  0
  189.2210  173.4110  142.3510 O   0  0  0  0  0  0  0  0  0  0  0  0
  1  3  1  0  0  0  0
  1  4  1  0  0  0  0
  2  6  1  0  0  0  0
  3  2  2  0  0  0  0
  4  8  1  0  0  0  0
  5  4  2  0  0  0  0
  5 13  1  0  0  0  0
  7  1  2  0  0  0  0
  8  6  2  0  0  0  0
  9  7  2  0  0  0  0
 10 13  2  0  0  0  0
 10 14  1  0  0  0  0
 12 11  2  0  0  0  0
 13 12  1  0  0  0  0
 14 15  2  0  0  0  0
 15 11  1  0  0  0  0
 16 17  1  0  0  0  0
 18 14  1  0  0  0  0
 18 16  1  0  0  0  0
 18 17  1  0  0  0  0
 19 21  1  0  0  0  0
 19  9  1  0  0  0  0
 20 19  1  0  0  0  0
 23 19  1  6  0  0  0
 23 22  1  0  0  0  0
 24 28  1  0  0  0  0
 24 22  1  0  0  0  0
 26 25  2  0  0  0  0
 26 28  1  0  0  0  0
 27 26  1  0  0  0  0
 27 23  1  0  0  0  0
M  END
>  <MODEL>
5

>  <REMARK>
 VINA RESULT:      -7.2      2.105      4.695
  Name = 
  4 active torsions:
  status: ('A' for Active; 'I' for Inactive)
    1  A    between atoms: C_8  and  C_11
    2  A    between atoms: C_8  and  C_28
    3  A    between atoms: C_13  and  N_16
    4  A    between atoms: C_21  and  C_22
                            x       y       z     vdW  Elec       q    Type
                         _______ _______ _______ _____ _____    ______ ____

>  <TORSDO>
F 4

$$$$
=
 OpenBabel11042418273D

 28 31  0  0  1  0  0  0  0  0999 V2000
  190.8430  176.3370  146.4370 C   0  0  0  0  0  0  0  0  0  0  0  0
  193.2290  176.0300  146.8300 C   0  0  0  0  0  3  0  0  0  0  0  0
  192.0950  176.6670  147.1360 C   0  0  0  0  0  3  0  0  0  0  0  0
  190.8650  175.2880  145.3890 C   0  0  0  0  0  0  0  0  0  0  0  0
  189.7660  174.9800  144.7540 N   0  0  0  0  0  0  0  0  0  0  0  0
  193.2650  174.9830  145.7880 C   0  0  0  0  0  3  0  0  0  0  0  0
  189.7430  176.9680  146.7500 C   0  0  0  0  0  0  0  0  0  0  0  0
  192.1640  174.6350  145.1130 C   0  0  0  0  0  3  0  0  0  0  0  0
  188.6350  177.5910  147.0520 C   0  0  0  0  0  3  0  0  0  0  0  0
  189.1890  174.4700  142.4460 C   0  0  0  0  0  3  0  0  0  0  0  0
  189.4670  171.7470  142.8610 C   0  0  0  0  0  3  0  0  0  0  0  0
  189.6870  172.6290  143.9190 C   0  0  0  0  0  3  0  0  0  0  0  0
  189.5500  174.0090  143.7150 C   0  0  0  0  0  0  0  0  0  0  0  0
  188.9590  173.5580  141.4100 C   0  0  0  0  0  0  0  0  0  0  0  0
  189.1170  172.2240  141.6380 N   0  0  0  0  0  0  0  0  0  0  0  0
  188.3270  172.8790  139.1180 C   0  0  0  0  0  2  0  0  0  0  0  0
  189.6550  173.5930  139.0340 C   0  0  0  0  0  2  0  0  0  0  0  0
  188.6130  174.0520  140.0400 C   0  0  0  0  0  3  0  0  0  0  0  0
  187.3390  177.2650  146.3670 C   0  0  0  0  0  0  0  0  0  0  0  0
  187.2810  175.8950  146.0950 O   0  0  0  0  0  1  0  0  0  0  0  0
  186.2820  177.6100  147.2150 O   0  0  0  0  0  1  0  0  0  0  0  0
  186.0660  179.0830  145.1080 C   0  0  0  0  0  2  0  0  0  0  0  0
  187.2260  178.0610  145.0580 C   0  0  2  0  0  3  0  0  0  0  0  0
  185.3620  179.3210  143.7640 C   0  0  0  0  0  2  0  0  0  0  0  0
  187.7220  177.7510  141.5680 O   0  0  0  0  0  0  0  0  0  0  0  0
  187.0730  178.0190  142.6130 C   0  0  0  0  0  0  0  0  0  0  0  0
  187.1870  177.1530  143.8200 C   0  0  0  0  0  2  0  0  0  0  0  0
  186.2490  179.1410  142.6640 O   0  0  0  0  0  0  0  0  0  0  0  0
  1  7  2  0  0  0  0
  1  3  1  0  0  0  0
  2  3  2  0  0  0  0
  4  1  1  0  0  0  0
  5  4  2  0  0  0  0
  6  2  1  0  0  0  0
  7  9  2  0  0  0  0
  8  4  1  0  0  0  0
  8  6  2  0  0  0  0
 10 13  1  0  0  0  0
 11 12  1  0  0  0  0
 13 12  2  0  0  0  0
 13  5  1  0  0  0  0
 14 15  1  0  0  0  0
 14 10  2  0  0  0  0
 15 11  2  0  0  0  0
 16 18  1  0  0  0  0
 17 16  1  0  0  0  0
 17 18  1  0  0  0  0
 18 14  1  0  0  0  0
 19  9  1  0  0  0  0
 19 21  1  0  0  0  0
 20 19  1  0  0  0  0
 23 22  1  0  0  0  0
 23 19  1  1  0  0  0
 24 22  1  0  0  0  0
 25 26  2  0  0  0  0
 26 28  1  0  0  0  0
 26 27  1  0  0  0  0
 27 23  1  0  0  0  0
 28 24  1  0  0  0  0
M  END
>  <MODEL>
6

>  <REMARK>
 VINA RESULT:      -7.1      1.587      5.343
  Name = 
  4 active torsions:
  status: ('A' for Active; 'I' for Inactive)
    1  A    between atoms: C_8  and  C_11
    2  A    between atoms: C_8  and  C_28
    3  A    between atoms: C_13  and  N_16
    4  A    between atoms: C_21  and  C_22
                            x       y       z     vdW  Elec       q    Type
                         _______ _______ _______ _____ _____    ______ ____

>  <TORSDO>
F 4

$$$$
=
 OpenBabel11042418273D

 28 31  0  0  1  0  0  0  0  0999 V2000
  188.9500  174.2230  142.9070 C   0  0  0  0  0  0  0  0  0  0  0  0
  189.3910  171.8590  142.5050 C   0  0  0  0  0  3  0  0  0  0  0  0
  188.5890  172.9150  142.3360 C   0  0  0  0  0  3  0  0  0  0  0  0
  190.2140  174.3440  143.6720 C   0  0  0  0  0  0  0  0  0  0  0  0
  190.5540  175.4950  144.1890 N   0  0  0  0  0  0  0  0  0  0  0  0
  190.6540  171.9670  143.2640 C   0  0  0  0  0  3  0  0  0  0  0  0
  188.1560  175.2450  142.7310 C   0  0  0  0  0  0  0  0  0  0  0  0
  191.0410  173.1240  143.8110 C   0  0  0  0  0  3  0  0  0  0  0  0
  187.3730  176.2770  142.5630 C   0  0  0  0  0  3  0  0  0  0  0  0
  192.9270  176.0220  144.2810 C   0  0  0  0  0  3  0  0  0  0  0  0
  192.8600  176.3630  147.0270 C   0  0  0  0  0  3  0  0  0  0  0  0
  191.6900  176.0170  146.3490 C   0  0  0  0  0  3  0  0  0  0  0  0
  191.7180  175.8450  144.9580 C   0  0  0  0  0  0  0  0  0  0  0  0
  194.0860  176.3520  144.9920 C   0  0  0  0  0  0  0  0  0  0  0  0
  194.0220  176.5270  146.3420 N   0  0  0  0  0  0  0  0  0  0  0  0
  195.4310  175.7130  143.0190 C   0  0  0  0  0  2  0  0  0  0  0  0
  196.2070  175.3130  144.2520 C   0  0  0  0  0  2  0  0  0  0  0  0
  195.3720  176.5820  144.2640 C   0  0  0  0  0  3  0  0  0  0  0  0
  187.7210  177.6270  143.1210 C   0  0  0  0  0  0  0  0  0  0  0  0
  189.1090  177.8000  143.1040 O   0  0  0  0  0  1  0  0  0  0  0  0
  187.1270  178.6110  142.3240 O   0  0  0  0  0  1  0  0  0  0  0  0
  188.2550  177.2900  145.5930 C   0  0  0  0  0  2  0  0  0  0  0  0
  187.1990  177.7480  144.5590 C   0  0  2  0  0  3  0  0  0  0  0  0
  187.6750  176.6210  146.8480 C   0  0  0  0  0  2  0  0  0  0  0  0
  184.2240  177.5160  146.4620 O   0  0  0  0  0  0  0  0  0  0  0  0
  185.4190  177.2500  146.1690 C   0  0  0  0  0  0  0  0  0  0  0  0
  185.8300  177.0780  144.7470 C   0  0  0  0  0  2  0  0  0  0  0  0
  186.3820  177.1260  147.1670 O   0  0  0  0  0  0  0  0  0  0  0  0
  1  4  1  0  0  0  0
  2  6  1  0  0  0  0
  3  2  2  0  0  0  0
  3  1  1  0  0  0  0
  4  8  1  0  0  0  0
  4  5  2  0  0  0  0
  5 13  1  0  0  0  0
  6  8  2  0  0  0  0
  7  1  2  0  0  0  0
  9  7  2  0  0  0  0
  9 19  1  0  0  0  0
 10 13  2  0  0  0  0
 10 14  1  0  0  0  0
 12 11  2  0  0  0  0
 13 12  1  0  0  0  0
 14 15  2  0  0  0  0
 15 11  1  0  0  0  0
 16 17  1  0  0  0  0
 16 18  1  0  0  0  0
 17 18  1  0  0  0  0
 18 14  1  0  0  0  0
 20 19  1  0  0  0  0
 21 19  1  0  0  0  0
 22 24  1  0  0  0  0
 23 19  1  6  0  0  0
 23 27  1  0  0  0  0
 23 22  1  0  0  0  0
 24 28  1  0  0  0  0
 26 25  2  0  0  0  0
 26 28  1  0  0  0  0
 27 26  1  0  0  0  0
M  END
>  <MODEL>
7

>  <REMARK>
 VINA RESULT:      -7.1      1.278      2.039
  Name = 
  4 active torsions:
  status: ('A' for Active; 'I' for Inactive)
    1  A    between atoms: C_8  and  C_11
    2  A    between atoms: C_8  and  C_28
    3  A    between atoms: C_13  and  N_16
    4  A    between atoms: C_21  and  C_22
                            x       y       z     vdW  Elec       q    Type
                         _______ _______ _______ _____ _____    ______ ____

>  <TORSDO>
F 4

$$$$
=
 OpenBabel11042418273D

 28 31  0  0  1  0  0  0  0  0999 V2000
  188.9790  174.4570  141.2450 C   0  0  0  0  0  0  0  0  0  0  0  0
  189.5940  172.3250  140.2330 C   0  0  0  0  0  3  0  0  0  0  0  0
  188.8100  173.4070  140.2270 C   0  0  0  0  0  3  0  0  0  0  0  0
  190.0340  174.2890  142.2740 C   0  0  0  0  0  0  0  0  0  0  0  0
  190.2010  175.2070  143.1890 N   0  0  0  0  0  0  0  0  0  0  0  0
  190.6490  172.1470  141.2530 C   0  0  0  0  0  3  0  0  0  0  0  0
  188.2050  175.5080  141.2230 C   0  0  0  0  0  0  0  0  0  0  0  0
  190.8560  173.0600  142.2070 C   0  0  0  0  0  3  0  0  0  0  0  0
  187.4380  176.5660  141.2150 C   0  0  0  0  0  3  0  0  0  0  0  0
  192.4210  175.7710  144.0090 C   0  0  0  0  0  3  0  0  0  0  0  0
  191.8160  174.9100  146.5700 C   0  0  0  0  0  3  0  0  0  0  0  0
  190.8470  174.8230  145.5690 C   0  0  0  0  0  3  0  0  0  0  0  0
  191.1470  175.2590  144.2710 C   0  0  0  0  0  0  0  0  0  0  0  0
  193.3750  175.8290  145.0310 C   0  0  0  0  0  0  0  0  0  0  0  0
  193.0460  175.4110  146.2850 N   0  0  0  0  0  0  0  0  0  0  0  0
  195.1840  176.0520  143.3610 C   0  0  0  0  0  2  0  0  0  0  0  0
  195.7480  175.3110  144.5500 C   0  0  0  0  0  2  0  0  0  0  0  0
  194.7260  176.4140  144.7620 C   0  0  0  0  0  3  0  0  0  0  0  0
  187.5980  177.6600  142.2310 C   0  0  0  0  0  0  0  0  0  0  0  0
  188.8640  178.2390  142.1050 O   0  0  0  0  0  1  0  0  0  0  0  0
  186.6220  178.6350  142.0000 O   0  0  0  0  0  1  0  0  0  0  0  0
  185.9370  176.8370  143.9840 C   0  0  0  0  0  2  0  0  0  0  0  0
  187.4250  177.0880  143.6450 C   0  0  2  0  0  3  0  0  0  0  0  0
  185.5700  177.0530  145.4600 C   0  0  0  0  0  2  0  0  0  0  0  0
  188.8600  177.1970  146.8780 O   0  0  0  0  0  0  0  0  0  0  0  0
  187.9290  177.2820  146.0360 C   0  0  0  0  0  0  0  0  0  0  0  0
  188.1620  177.9160  144.7080 C   0  0  0  0  0  2  0  0  0  0  0  0
  186.6670  176.7690  146.3240 O   0  0  0  0  0  0  0  0  0  0  0  0
  1  4  1  0  0  0  0
  2  6  1  0  0  0  0
  3  2  2  0  0  0  0
  3  1  1  0  0  0  0
  4  5  2  0  0  0  0
  5 13  1  0  0  0  0
  6  8  2  0  0  0  0
  7  1  2  0  0  0  0
  8  4  1  0  0  0  0
  9  7  2  0  0  0  0
  9 19  1  0  0  0  0
 10 13  2  0  0  0  0
 10 14  1  0  0  0  0
 12 11  2  0  0  0  0
 13 12  1  0  0  0  0
 14 15  2  0  0  0  0
 15 11  1  0  0  0  0
 16 17  1  0  0  0  0
 16 18  1  0  0  0  0
 17 18  1  0  0  0  0
 18 14  1  0  0  0  0
 20 19  1  0  0  0  0
 21 19  1  0  0  0  0
 22 24  1  0  0  0  0
 23 19  1  6  0  0  0
 23 22  1  0  0  0  0
 23 27  1  0  0  0  0
 24 28  1  0  0  0  0
 26 28  1  0  0  0  0
 26 25  2  0  0  0  0
 27 26  1  0  0  0  0
M  END
>  <MODEL>
8

>  <REMARK>
 VINA RESULT:      -7.0      1.472      1.737
  Name = 
  4 active torsions:
  status: ('A' for Active; 'I' for Inactive)
    1  A    between atoms: C_8  and  C_11
    2  A    between atoms: C_8  and  C_28
    3  A    between atoms: C_13  and  N_16
    4  A    between atoms: C_21  and  C_22
                            x       y       z     vdW  Elec       q    Type
                         _______ _______ _______ _____ _____    ______ ____

>  <TORSDO>
F 4

$$$$
=
 OpenBabel11042418273D

 28 31  0  0  1  0  0  0  0  0999 V2000
  187.8640  177.2380  145.7730 C   0  0  0  0  0  0  0  0  0  0  0  0
  185.9350  177.1640  147.2620 C   0  0  0  0  0  3  0  0  0  0  0  0
  187.2630  177.1550  147.1140 C   0  0  0  0  0  3  0  0  0  0  0  0
  186.9700  177.3310  144.5940 C   0  0  0  0  0  0  0  0  0  0  0  0
  187.4810  177.4040  143.3940 N   0  0  0  0  0  0  0  0  0  0  0  0
  185.0330  177.2570  146.0960 C   0  0  0  0  0  3  0  0  0  0  0  0
  189.1640  177.2290  145.6470 C   0  0  0  0  0  0  0  0  0  0  0  0
  185.5120  177.3340  144.8500 C   0  0  0  0  0  3  0  0  0  0  0  0
  190.4630  177.2220  145.5040 C   0  0  0  0  0  3  0  0  0  0  0  0
  185.5520  178.0890  142.0810 C   0  0  0  0  0  3  0  0  0  0  0  0
  186.6850  177.1690  139.7280 C   0  0  0  0  0  3  0  0  0  0  0  0
  187.3860  177.0350  140.9270 C   0  0  0  0  0  3  0  0  0  0  0  0
  186.8180  177.5010  142.1210 C   0  0  0  0  0  0  0  0  0  0  0  0
  184.8670  178.1940  140.8640 C   0  0  0  0  0  0  0  0  0  0  0  0
  185.4540  177.7450  139.7200 N   0  0  0  0  0  0  0  0  0  0  0  0
  182.6190  178.2920  141.8870 C   0  0  0  0  0  2  0  0  0  0  0  0
  182.4500  177.8540  140.4520 C   0  0  0  0  0  2  0  0  0  0  0  0
  183.5290  178.8610  140.8120 C   0  0  0  0  0  3  0  0  0  0  0  0
  191.1050  177.3210  144.1500 C   0  0  0  0  0  0  0  0  0  0  0  0
  190.3780  176.5620  143.2280 O   0  0  0  0  0  1  0  0  0  0  0  0
  191.1020  178.6600  143.7470 O   0  0  0  0  0  1  0  0  0  0  0  0
  192.9510  176.0470  142.9350 C   0  0  0  0  0  2  0  0  0  0  0  0
  192.5510  176.8110  144.2200 C   0  0  2  0  0  3  0  0  0  0  0  0
  193.9330  174.8870  143.1580 C   0  0  0  0  0  2  0  0  0  0  0  0
  194.9680  175.6180  146.5130 O   0  0  0  0  0  0  0  0  0  0  0  0
  194.2580  175.5780  145.4750 C   0  0  0  0  0  0  0  0  0  0  0  0
  192.8380  176.0280  145.5090 C   0  0  0  0  0  2  0  0  0  0  0  0
  194.7910  175.1270  144.2700 O   0  0  0  0  0  0  0  0  0  0  0  0
  1  3  1  0  0  0  0
  3  2  2  0  0  0  0
  4  8  1  0  0  0  0
  4  1  1  0  0  0  0
  5  4  2  0  0  0  0
  6  2  1  0  0  0  0
  7  1  2  0  0  0  0
  8  6  2  0  0  0  0
  9  7  2  0  0  0  0
 10 13  1  0  0  0  0
 11 12  1  0  0  0  0
 12 13  2  0  0  0  0
 13  5  1  0  0  0  0
 14 10  2  0  0  0  0
 15 11  2  0  0  0  0
 15 14  1  0  0  0  0
 17 18  1  0  0  0  0
 17 16  1  0  0  0  0
 18 14  1  0  0  0  0
 18 16  1  0  0  0  0
 19  9  1  0  0  0  0
 20 19  1  0  0  0  0
 21 19  1  0  0  0  0
 22 24  1  0  0  0  0
 22 23  1  0  0  0  0
 23 19  1  6  0  0  0
 23 27  1  0  0  0  0
 24 28  1  0  0  0  0
 26 27  1  0  0  0  0
 26 25  2  0  0  0  0
 28 26  1  0  0  0  0
M  END
>  <MODEL>
9

>  <REMARK>
 VINA RESULT:      -6.9      3.261      7.941
  Name = 
  4 active torsions:
  status: ('A' for Active; 'I' for Inactive)
    1  A    between atoms: C_8  and  C_11
    2  A    between atoms: C_8  and  C_28
    3  A    between atoms: C_13  and  N_16
    4  A    between atoms: C_21  and  C_22
                            x       y       z     vdW  Elec       q    Type
                         _______ _______ _______ _____ _____    ______ ____

>  <TORSDO>
F 4

$$$$
