=
 OpenBabel11042418023D

 35 37  0  0  1  0  0  0  0  0999 V2000
  188.1280  176.3870  146.3850 C   0  0  1  0  0  3  0  0  0  0  0  0
  188.2120  177.6530  144.2380 C   0  0  0  0  0  3  0  0  0  0  0  0
  188.0370  177.8860  142.9390 C   0  0  0  0  0  3  0  0  0  0  0  0
  187.6820  176.8650  141.9340 C   0  0  0  0  0  0  0  0  0  0  0  0
  189.8460  173.8460  142.5910 C   0  0  0  0  0  1  0  0  0  0  0  0
  187.9770  176.3120  144.8620 C   0  0  1  0  0  3  0  0  0  0  0  0
  188.9540  174.9630  142.9990 C   0  0  0  0  0  0  0  0  0  0  0  0
  188.9130  175.2920  144.2910 C   0  0  0  0  0  3  0  0  0  0  0  0
  188.1250  175.6000  141.9550 C   0  0  0  0  0  3  0  0  0  0  0  0
  186.3660  177.6470  139.8410 N   0  0  0  0  0  0  0  0  0  0  0  0
  186.9540  177.2980  140.7750 C   0  0  0  0  0  0  0  0  0  0  0  0
  189.7750  177.8980  147.2440 O   0  0  0  0  0  0  0  0  0  0  0  0
  190.5720  175.7960  146.6130 N   0  0  0  0  0  2  0  0  0  0  0  0
  189.5260  176.7530  146.7770 C   0  0  0  0  0  0  0  0  0  0  0  0
  192.7090  174.9100  146.8920 O   0  0  0  0  0  0  0  0  0  0  0  0
  191.9480  176.0890  146.9770 C   0  0  1  0  0  3  0  0  0  0  0  0
  192.8350  175.8190  145.8260 C   0  0  1  0  0  3  0  0  0  0  0  0
  194.1280  176.5970  145.9850 C   0  0  0  0  0  2  0  0  0  0  0  0
  195.2680  175.7250  145.7490 N   0  0  0  0  0  2  0  0  0  0  0  0
  197.2300  175.4770  142.0940 N   0  0  0  0  0  0  0  0  0  0  0  0
  195.7400  176.9970  141.2620 O   0  0  0  0  0  0  0  0  0  0  0  0
  196.1500  176.3040  142.2310 C   0  0  0  0  0  0  0  0  0  0  0  0
  197.6500  174.7450  143.1290 N   0  0  0  0  0  0  0  0  0  0  0  0
  195.9370  175.6470  144.4870 C   0  0  0  0  0  0  0  0  0  0  0  0
  197.0320  174.8050  144.3360 C   0  0  0  0  0  3  0  0  0  0  0  0
  195.5140  176.3820  143.4270 N   0  0  0  0  0  0  0  0  0  0  0  0
  197.6350  174.0100  140.1920 C   0  0  0  0  0  1  0  0  0  0  0  0
  197.9280  175.3580  140.8220 C   0  0  0  0  0  2  0  0  0  0  0  0
  187.2420  177.3260  146.9190 O   0  0  0  0  0  0  0  0  0  0  0  0
  186.0080  176.8460  146.6200 N   0  0  0  0  0  2  0  0  0  0  0  0
  185.6340  179.2000  147.2640 C   0  0  0  0  0  1  0  0  0  0  0  0
  185.0620  177.9620  146.5850 C   0  0  1  0  0  3  0  0  0  0  0  0
  184.9640  177.2450  144.2900 F   0  0  0  0  0  0  0  0  0  0  0  0
  184.5700  178.2430  145.1650 C   0  0  2  0  0  3  0  0  0  0  0  0
  185.0620  179.4720  144.7250 O   0  0  0  0  0  1  0  0  0  0  0  0
  1 14  1  6  0  0  0
  1 29  1  0  0  0  0
  2  6  1  0  0  0  0
  3  2  2  0  0  0  0
  4  9  2  0  0  0  0
  4  3  1  0  0  0  0
  5  7  1  0  0  0  0
  6  1  1  1  0  0  0
  7  8  2  0  0  0  0
  8  6  1  0  0  0  0
  9  7  1  0  0  0  0
 10 11  3  0  0  0  0
 11  4  1  0  0  0  0
 13 14  1  0  0  0  0
 14 12  2  0  0  0  0
 15 16  1  0  0  0  0
 16 13  1  6  0  0  0
 17 18  1  1  0  0  0
 17 15  1  0  0  0  0
 17 16  1  0  0  0  0
 19 18  1  0  0  0  0
 20 22  1  0  0  0  0
 20 23  1  0  0  0  0
 21 22  2  0  0  0  0
 22 26  1  0  0  0  0
 23 25  2  0  0  0  0
 24 19  1  0  0  0  0
 25 24  1  0  0  0  0
 26 24  2  0  0  0  0
 27 28  1  0  0  0  0
 28 20  1  0  0  0  0
 30 29  1  0  0  0  0
 32 30  1  0  0  0  0
 32 31  1  6  0  0  0
 34 33  1  6  0  0  0
 34 32  1  0  0  0  0
 35 34  1  0  0  0  0
M  END
>  <MODEL>
1

>  <REMARK>
 VINA RESULT:      -7.1      0.000      0.000
  Name = 
  11 active torsions:
  status: ('A' for Active; 'I' for Inactive)
    1  A    between atoms: C_1  and  N_4
    2  A    between atoms: C_1  and  C_22
    3  A    between atoms: N_7  and  C_32
    4  A    between atoms: N_11  and  C_16
    5  A    between atoms: C_12  and  C_25
    6  A    between atoms: C_20  and  C_24
    7  A    between atoms: C_23  and  C_26
    8  A    between atoms: C_24  and  O_30
    9  A    between atoms: C_24  and  C_34
   10  A    between atoms: C_26  and  N_31
   11  A    between atoms: O_30  and  N_31
                            x       y       z     vdW  Elec       q    Type
                         _______ _______ _______ _____ _____    ______ ____

>  <TORSDO>
F 11

$$$$
=
 OpenBabel11042418023D

 35 37  0  0  1  0  0  0  0  0999 V2000
  187.8850  176.1770  146.4050 C   0  0  1  0  0  3  0  0  0  0  0  0
  188.0250  177.5530  144.3300 C   0  0  0  0  0  3  0  0  0  0  0  0
  187.9220  177.8390  143.0330 C   0  0  0  0  0  3  0  0  0  0  0  0
  187.7070  176.8490  141.9600 C   0  0  0  0  0  0  0  0  0  0  0  0
  190.0240  173.9490  142.6290 C   0  0  0  0  0  1  0  0  0  0  0  0
  187.8420  176.1700  144.8740 C   0  0  1  0  0  3  0  0  0  0  0  0
  189.0320  174.9830  143.0240 C   0  0  0  0  0  0  0  0  0  0  0  0
  188.8820  175.2430  144.3230 C   0  0  0  0  0  3  0  0  0  0  0  0
  188.2340  175.6170  141.9540 C   0  0  0  0  0  3  0  0  0  0  0  0
  186.4850  177.6490  139.8170 N   0  0  0  0  0  0  0  0  0  0  0  0
  187.0300  177.2920  140.7740 C   0  0  0  0  0  0  0  0  0  0  0  0
  189.3820  174.7390  147.5980 O   0  0  0  0  0  0  0  0  0  0  0  0
  190.3600  176.6220  146.6220 N   0  0  0  0  0  2  0  0  0  0  0  0
  189.2380  175.7890  146.9140 C   0  0  0  0  0  0  0  0  0  0  0  0
  192.1570  175.1530  146.4100 O   0  0  0  0  0  0  0  0  0  0  0  0
  191.7000  176.2990  147.0840 C   0  0  1  0  0  3  0  0  0  0  0  0
  192.6510  176.3900  145.9560 C   0  0  1  0  0  3  0  0  0  0  0  0
  194.0560  176.5910  146.4890 C   0  0  0  0  0  2  0  0  0  0  0  0
  195.0140  176.5700  145.3940 N   0  0  0  0  0  2  0  0  0  0  0  0
  197.1630  173.1840  144.3070 N   0  0  0  0  0  0  0  0  0  0  0  0
  196.1380  172.0620  146.0140 O   0  0  0  0  0  0  0  0  0  0  0  0
  196.2960  173.1290  145.3630 C   0  0  0  0  0  0  0  0  0  0  0  0
  197.3250  174.3240  143.6310 N   0  0  0  0  0  0  0  0  0  0  0  0
  195.7490  175.4000  145.0270 C   0  0  0  0  0  0  0  0  0  0  0  0
  196.6370  175.4460  143.9590 C   0  0  0  0  0  3  0  0  0  0  0  0
  195.5970  174.2370  145.7140 N   0  0  0  0  0  0  0  0  0  0  0  0
  197.3870  171.4360  142.6260 C   0  0  0  0  0  1  0  0  0  0  0  0
  197.9400  172.0170  143.9130 C   0  0  0  0  0  2  0  0  0  0  0  0
  187.5570  177.4440  146.8970 O   0  0  0  0  0  0  0  0  0  0  0  0
  186.3620  177.2740  147.5190 N   0  0  0  0  0  2  0  0  0  0  0  0
  186.3060  179.7110  147.9070 C   0  0  0  0  0  1  0  0  0  0  0  0
  185.5700  178.4940  147.3620 C   0  0  1  0  0  3  0  0  0  0  0  0
  185.7460  179.7560  145.3210 F   0  0  0  0  0  0  0  0  0  0  0  0
  185.1040  178.6850  145.9190 C   0  0  2  0  0  3  0  0  0  0  0  0
  183.7240  178.8910  145.8870 O   0  0  0  0  0  1  0  0  0  0  0  0
  1 29  1  6  0  0  0
  1 14  1  0  0  0  0
  2  6  1  0  0  0  0
  3  2  2  0  0  0  0
  4  3  1  0  0  0  0
  5  7  1  0  0  0  0
  6  1  1  1  0  0  0
  7  8  2  0  0  0  0
  8  6  1  0  0  0  0
  9  4  2  0  0  0  0
  9  7  1  0  0  0  0
 10 11  3  0  0  0  0
 11  4  1  0  0  0  0
 13 14  1  0  0  0  0
 14 12  2  0  0  0  0
 15 16  1  0  0  0  0
 16 13  1  6  0  0  0
 17 15  1  0  0  0  0
 17 18  1  1  0  0  0
 17 16  1  0  0  0  0
 19 18  1  0  0  0  0
 20 22  1  0  0  0  0
 22 26  1  0  0  0  0
 22 21  2  0  0  0  0
 23 25  2  0  0  0  0
 23 20  1  0  0  0  0
 24 19  1  0  0  0  0
 24 26  2  0  0  0  0
 25 24  1  0  0  0  0
 27 28  1  0  0  0  0
 28 20  1  0  0  0  0
 29 30  1  0  0  0  0
 32 30  1  0  0  0  0
 32 31  1  6  0  0  0
 34 33  1  1  0  0  0
 34 32  1  0  0  0  0
 35 34  1  0  0  0  0
M  END
>  <MODEL>
2

>  <REMARK>
 VINA RESULT:      -7.0      1.733      2.088
  Name = 
  11 active torsions:
  status: ('A' for Active; 'I' for Inactive)
    1  A    between atoms: C_1  and  N_4
    2  A    between atoms: C_1  and  C_22
    3  A    between atoms: N_7  and  C_32
    4  A    between atoms: N_11  and  C_16
    5  A    between atoms: C_12  and  C_25
    6  A    between atoms: C_20  and  C_24
    7  A    between atoms: C_23  and  C_26
    8  A    between atoms: C_24  and  O_30
    9  A    between atoms: C_24  and  C_34
   10  A    between atoms: C_26  and  N_31
   11  A    between atoms: O_30  and  N_31
                            x       y       z     vdW  Elec       q    Type
                         _______ _______ _______ _____ _____    ______ ____

>  <TORSDO>
F 11

$$$$
=
 OpenBabel11042418023D

 35 37  0  0  1  0  0  0  0  0999 V2000
  187.7070  176.2950  142.2500 C   0  0  1  0  0  3  0  0  0  0  0  0
  189.1650  177.4520  143.9100 C   0  0  0  0  0  3  0  0  0  0  0  0
  189.7730  177.6680  145.0750 C   0  0  0  0  0  3  0  0  0  0  0  0
  189.4570  176.9750  146.3390 C   0  0  0  0  0  0  0  0  0  0  0  0
  185.7000  176.8820  146.6570 C   0  0  0  0  0  1  0  0  0  0  0  0
  188.1240  176.3930  143.7220 C   0  0  1  0  0  3  0  0  0  0  0  0
  186.9810  176.7300  145.9180 C   0  0  0  0  0  0  0  0  0  0  0  0
  186.9320  176.6630  144.5880 C   0  0  0  0  0  3  0  0  0  0  0  0
  188.2230  176.6070  146.7100 C   0  0  0  0  0  3  0  0  0  0  0  0
  191.3630  176.7240  148.0790 N   0  0  0  0  0  0  0  0  0  0  0  0
  190.5130  176.8350  147.3020 C   0  0  0  0  0  0  0  0  0  0  0  0
  187.9460  173.9190  142.4260 O   0  0  0  0  0  0  0  0  0  0  0  0
  188.3610  174.8180  140.3100 N   0  0  0  0  0  2  0  0  0  0  0  0
  188.0050  174.9400  141.6880 C   0  0  0  0  0  0  0  0  0  0  0  0
  188.7340  173.6850  138.3080 O   0  0  0  0  0  0  0  0  0  0  0  0
  188.6580  173.5310  139.7030 C   0  0  1  0  0  3  0  0  0  0  0  0
  189.9560  173.6010  139.0000 C   0  0  1  0  0  3  0  0  0  0  0  0
  190.5250  172.2040  138.8380 C   0  0  0  0  0  2  0  0  0  0  0  0
  191.9000  172.1660  139.3100 N   0  0  0  0  0  2  0  0  0  0  0  0
  192.9260  171.7480  143.3150 N   0  0  0  0  0  0  0  0  0  0  0  0
  190.6970  171.7160  143.8190 O   0  0  0  0  0  0  0  0  0  0  0  0
  191.6090  171.7970  142.9530 C   0  0  0  0  0  0  0  0  0  0  0  0
  193.8810  171.8410  142.3860 N   0  0  0  0  0  0  0  0  0  0  0  0
  192.2430  172.0220  140.6910 C   0  0  0  0  0  0  0  0  0  0  0  0
  193.5790  171.9760  141.0700 C   0  0  0  0  0  3  0  0  0  0  0  0
  191.2790  171.9340  141.6440 N   0  0  0  0  0  0  0  0  0  0  0  0
  193.7220  172.9680  145.2680 C   0  0  0  0  0  1  0  0  0  0  0  0
  193.3160  171.6160  144.7120 C   0  0  0  0  0  2  0  0  0  0  0  0
  186.3420  176.5590  142.1100 O   0  0  0  0  0  0  0  0  0  0  0  0
  186.2620  177.4180  141.0620 N   0  0  0  0  0  2  0  0  0  0  0  0
  184.0560  178.2390  140.3160 C   0  0  0  0  0  1  0  0  0  0  0  0
  185.1920  178.3810  141.3210 C   0  0  1  0  0  3  0  0  0  0  0  0
  183.3260  178.2760  142.8370 F   0  0  0  0  0  0  0  0  0  0  0  0
  184.7080  178.3150  142.7700 C   0  0  2  0  0  3  0  0  0  0  0  0
  185.1800  179.4180  143.4810 O   0  0  0  0  0  1  0  0  0  0  0  0
  1 14  1  1  0  0  0
  2  3  2  0  0  0  0
  3  4  1  0  0  0  0
  4  9  2  0  0  0  0
  4 11  1  0  0  0  0
  6  1  1  6  0  0  0
  6  2  1  0  0  0  0
  6  8  1  0  0  0  0
  7  5  1  0  0  0  0
  7  9  1  0  0  0  0
  8  7  2  0  0  0  0
 11 10  3  0  0  0  0
 13 14  1  0  0  0  0
 14 12  2  0  0  0  0
 15 17  1  0  0  0  0
 15 16  1  0  0  0  0
 16 13  1  1  0  0  0
 17 18  1  6  0  0  0
 17 16  1  0  0  0  0
 18 19  1  0  0  0  0
 19 24  1  0  0  0  0
 20 28  1  0  0  0  0
 22 20  1  0  0  0  0
 22 21  2  0  0  0  0
 23 20  1  0  0  0  0
 24 25  1  0  0  0  0
 24 26  2  0  0  0  0
 25 23  2  0  0  0  0
 26 22  1  0  0  0  0
 28 27  1  0  0  0  0
 29  1  1  0  0  0  0
 30 32  1  0  0  0  0
 30 29  1  0  0  0  0
 32 31  1  6  0  0  0
 32 34  1  0  0  0  0
 34 33  1  6  0  0  0
 34 35  1  0  0  0  0
M  END
>  <MODEL>
3

>  <REMARK>
 VINA RESULT:      -6.6      3.565      6.068
  Name = 
  11 active torsions:
  status: ('A' for Active; 'I' for Inactive)
    1  A    between atoms: C_1  and  N_4
    2  A    between atoms: C_1  and  C_22
    3  A    between atoms: N_7  and  C_32
    4  A    between atoms: N_11  and  C_16
    5  A    between atoms: C_12  and  C_25
    6  A    between atoms: C_20  and  C_24
    7  A    between atoms: C_23  and  C_26
    8  A    between atoms: C_24  and  O_30
    9  A    between atoms: C_24  and  C_34
   10  A    between atoms: C_26  and  N_31
   11  A    between atoms: O_30  and  N_31
                            x       y       z     vdW  Elec       q    Type
                         _______ _______ _______ _____ _____    ______ ____

>  <TORSDO>
F 11

$$$$
=
 OpenBabel11042418023D

 35 37  0  0  1  0  0  0  0  0999 V2000
  187.9180  176.0190  142.7360 C   0  0  1  0  0  3  0  0  0  0  0  0
  189.7720  177.3870  143.6900 C   0  0  0  0  0  3  0  0  0  0  0  0
  190.9250  177.6390  144.3070 C   0  0  0  0  0  3  0  0  0  0  0  0
  191.7100  176.6520  145.0730 C   0  0  0  0  0  0  0  0  0  0  0  0
  189.2920  174.7290  147.2360 C   0  0  0  0  0  1  0  0  0  0  0  0
  189.1670  176.0190  143.6230 C   0  0  1  0  0  3  0  0  0  0  0  0
  189.7410  175.3470  145.9610 C   0  0  0  0  0  0  0  0  0  0  0  0
  188.8370  175.5200  144.9960 C   0  0  0  0  0  3  0  0  0  0  0  0
  191.1740  175.6790  145.8230 C   0  0  0  0  0  3  0  0  0  0  0  0
  194.2750  177.0060  145.2130 N   0  0  0  0  0  0  0  0  0  0  0  0
  193.1300  176.8480  145.1500 C   0  0  0  0  0  0  0  0  0  0  0  0
  187.4860  173.7090  142.2810 O   0  0  0  0  0  0  0  0  0  0  0  0
  188.3150  174.9500  140.4840 N   0  0  0  0  0  2  0  0  0  0  0  0
  187.8850  174.8210  141.8400 C   0  0  0  0  0  0  0  0  0  0  0  0
  188.4110  174.3070  138.2460 O   0  0  0  0  0  0  0  0  0  0  0  0
  188.3040  173.8260  139.5630 C   0  0  1  0  0  3  0  0  0  0  0  0
  189.5820  173.7790  138.8210 C   0  0  1  0  0  3  0  0  0  0  0  0
  189.8100  172.3770  138.2880 C   0  0  0  0  0  2  0  0  0  0  0  0
  191.1180  171.8920  138.6990 N   0  0  0  0  0  2  0  0  0  0  0  0
  192.0600  170.9260  142.6290 N   0  0  0  0  0  0  0  0  0  0  0  0
  189.9410  171.5430  143.2230 O   0  0  0  0  0  0  0  0  0  0  0  0
  190.8130  171.3980  142.3250 C   0  0  0  0  0  0  0  0  0  0  0  0
  192.9750  170.7820  141.6680 N   0  0  0  0  0  0  0  0  0  0  0  0
  191.4330  171.5620  140.0550 C   0  0  0  0  0  0  0  0  0  0  0  0
  192.6980  171.0870  140.3750 C   0  0  0  0  0  3  0  0  0  0  0  0
  190.5110  171.7110  141.0410 N   0  0  0  0  0  0  0  0  0  0  0  0
  193.1540  171.7570  144.6410 C   0  0  0  0  0  1  0  0  0  0  0  0
  192.4220  170.5930  144.0000 C   0  0  0  0  0  2  0  0  0  0  0  0
  186.7620  176.0350  143.5220 O   0  0  0  0  0  0  0  0  0  0  0  0
  186.1130  177.1710  143.1580 N   0  0  0  0  0  2  0  0  0  0  0  0
  185.5090  176.7860  145.5210 C   0  0  0  0  0  1  0  0  0  0  0  0
  185.4750  177.7500  144.3410 C   0  0  1  0  0  3  0  0  0  0  0  0
  185.8690  179.4270  146.0210 F   0  0  0  0  0  0  0  0  0  0  0  0
  186.0550  179.1220  144.6830 C   0  0  2  0  0  3  0  0  0  0  0  0
  185.4570  180.1030  143.8920 O   0  0  0  0  0  1  0  0  0  0  0  0
  1 14  1  1  0  0  0
  1 29  1  0  0  0  0
  2  3  2  0  0  0  0
  3  4  1  0  0  0  0
  4 11  1  0  0  0  0
  4  9  2  0  0  0  0
  6  1  1  6  0  0  0
  6  2  1  0  0  0  0
  6  8  1  0  0  0  0
  7  5  1  0  0  0  0
  8  7  2  0  0  0  0
  9  7  1  0  0  0  0
 11 10  3  0  0  0  0
 13 14  1  0  0  0  0
 14 12  2  0  0  0  0
 15 17  1  0  0  0  0
 15 16  1  0  0  0  0
 16 13  1  1  0  0  0
 17 18  1  6  0  0  0
 17 16  1  0  0  0  0
 18 19  1  0  0  0  0
 19 24  1  0  0  0  0
 20 28  1  0  0  0  0
 22 20  1  0  0  0  0
 22 21  2  0  0  0  0
 23 20  1  0  0  0  0
 24 25  1  0  0  0  0
 24 26  2  0  0  0  0
 25 23  2  0  0  0  0
 26 22  1  0  0  0  0
 28 27  1  0  0  0  0
 30 29  1  0  0  0  0
 30 32  1  0  0  0  0
 32 34  1  0  0  0  0
 32 31  1  1  0  0  0
 34 35  1  6  0  0  0
 34 33  1  0  0  0  0
M  END
>  <MODEL>
4

>  <REMARK>
 VINA RESULT:      -6.5      3.890      6.135
  Name = 
  11 active torsions:
  status: ('A' for Active; 'I' for Inactive)
    1  A    between atoms: C_1  and  N_4
    2  A    between atoms: C_1  and  C_22
    3  A    between atoms: N_7  and  C_32
    4  A    between atoms: N_11  and  C_16
    5  A    between atoms: C_12  and  C_25
    6  A    between atoms: C_20  and  C_24
    7  A    between atoms: C_23  and  C_26
    8  A    between atoms: C_24  and  O_30
    9  A    between atoms: C_24  and  C_34
   10  A    between atoms: C_26  and  N_31
   11  A    between atoms: O_30  and  N_31
                            x       y       z     vdW  Elec       q    Type
                         _______ _______ _______ _____ _____    ______ ____

>  <TORSDO>
F 11

$$$$
=
 OpenBabel11042418023D

 35 37  0  0  1  0  0  0  0  0999 V2000
  189.9010  175.9850  142.7760 C   0  0  1  0  0  3  0  0  0  0  0  0
  187.4180  175.9790  142.5500 C   0  0  0  0  0  3  0  0  0  0  0  0
  186.1620  176.3780  142.7490 C   0  0  0  0  0  3  0  0  0  0  0  0
  185.7290  177.3350  143.7850 C   0  0  0  0  0  0  0  0  0  0  0  0
  187.4750  176.3820  146.9900 C   0  0  0  0  0  1  0  0  0  0  0  0
  188.5780  176.5360  143.3170 C   0  0  1  0  0  3  0  0  0  0  0  0
  187.4210  176.6500  145.5290 C   0  0  0  0  0  0  0  0  0  0  0  0
  188.4400  176.2340  144.7770 C   0  0  0  0  0  3  0  0  0  0  0  0
  186.2660  177.4130  145.0110 C   0  0  0  0  0  3  0  0  0  0  0  0
  183.6050  178.7420  143.3060 N   0  0  0  0  0  0  0  0  0  0  0  0
  184.5540  178.1140  143.5200 C   0  0  0  0  0  0  0  0  0  0  0  0
  191.6370  177.5950  143.1370 O   0  0  0  0  0  0  0  0  0  0  0  0
  191.5390  175.8560  144.6930 N   0  0  0  0  0  2  0  0  0  0  0  0
  191.0710  176.5380  143.5300 C   0  0  0  0  0  0  0  0  0  0  0  0
  192.6630  175.7200  146.7300 O   0  0  0  0  0  0  0  0  0  0  0  0
  192.6660  176.3430  145.4700 C   0  0  1  0  0  3  0  0  0  0  0  0
  193.5760  175.2210  145.7830 C   0  0  1  0  0  3  0  0  0  0  0  0
  194.9600  175.7590  146.0950 C   0  0  0  0  0  2  0  0  0  0  0  0
  195.9760  174.8880  145.5240 N   0  0  0  0  0  2  0  0  0  0  0  0
  197.4250  175.3060  141.6520 N   0  0  0  0  0  0  0  0  0  0  0  0
  195.9880  177.0610  141.3700 O   0  0  0  0  0  0  0  0  0  0  0  0
  196.4520  176.1520  142.1090 C   0  0  0  0  0  0  0  0  0  0  0  0
  197.9030  174.3430  142.4440 N   0  0  0  0  0  0  0  0  0  0  0  0
  196.4680  175.0400  144.1900 C   0  0  0  0  0  0  0  0  0  0  0  0
  197.4530  174.1820  143.7140 C   0  0  0  0  0  3  0  0  0  0  0  0
  195.9830  176.0110  143.3740 N   0  0  0  0  0  0  0  0  0  0  0  0
  197.7960  174.0940  139.5710 C   0  0  0  0  0  1  0  0  0  0  0  0
  197.9410  175.4190  140.2950 C   0  0  0  0  0  2  0  0  0  0  0  0
  189.9210  174.5900  142.8610 O   0  0  0  0  0  0  0  0  0  0  0  0
  190.6990  174.1920  141.8220 N   0  0  0  0  0  2  0  0  0  0  0  0
  189.6520  172.0300  142.3920 C   0  0  0  0  0  1  0  0  0  0  0  0
  190.1650  172.9410  141.2830 C   0  0  1  0  0  3  0  0  0  0  0  0
  188.9990  174.5440  139.9190 F   0  0  0  0  0  0  0  0  0  0  0  0
  189.1200  173.1930  140.1970 C   0  0  2  0  0  3  0  0  0  0  0  0
  187.8840  172.6860  140.5980 O   0  0  0  0  0  1  0  0  0  0  0  0
  1 29  1  1  0  0  0
  1 14  1  0  0  0  0
  2  3  2  0  0  0  0
  2  6  1  0  0  0  0
  3  4  1  0  0  0  0
  4  9  2  0  0  0  0
  6  1  1  6  0  0  0
  6  8  1  0  0  0  0
  7  5  1  0  0  0  0
  8  7  2  0  0  0  0
  9  7  1  0  0  0  0
 10 11  3  0  0  0  0
 11  4  1  0  0  0  0
 12 14  2  0  0  0  0
 14 13  1  0  0  0  0
 16 13  1  6  0  0  0
 16 17  1  0  0  0  0
 16 15  1  0  0  0  0
 17 18  1  1  0  0  0
 17 15  1  0  0  0  0
 19 18  1  0  0  0  0
 20 22  1  0  0  0  0
 20 23  1  0  0  0  0
 21 22  2  0  0  0  0
 22 26  1  0  0  0  0
 23 25  2  0  0  0  0
 24 19  1  0  0  0  0
 25 24  1  0  0  0  0
 26 24  2  0  0  0  0
 27 28  1  0  0  0  0
 28 20  1  0  0  0  0
 30 29  1  0  0  0  0
 32 30  1  0  0  0  0
 32 31  1  1  0  0  0
 34 33  1  1  0  0  0
 34 35  1  0  0  0  0
 34 32  1  0  0  0  0
M  END
>  <MODEL>
5

>  <REMARK>
 VINA RESULT:      -6.5      2.662      4.214
  Name = 
  11 active torsions:
  status: ('A' for Active; 'I' for Inactive)
    1  A    between atoms: C_1  and  N_4
    2  A    between atoms: C_1  and  C_22
    3  A    between atoms: N_7  and  C_32
    4  A    between atoms: N_11  and  C_16
    5  A    between atoms: C_12  and  C_25
    6  A    between atoms: C_20  and  C_24
    7  A    between atoms: C_23  and  C_26
    8  A    between atoms: C_24  and  O_30
    9  A    between atoms: C_24  and  C_34
   10  A    between atoms: C_26  and  N_31
   11  A    between atoms: O_30  and  N_31
                            x       y       z     vdW  Elec       q    Type
                         _______ _______ _______ _____ _____    ______ ____

>  <TORSDO>
F 11

$$$$
=
 OpenBabel11042418023D

 35 37  0  0  1  0  0  0  0  0999 V2000
  187.5460  176.8860  143.0590 C   0  0  1  0  0  3  0  0  0  0  0  0
  189.6220  177.8970  144.0000 C   0  0  0  0  0  3  0  0  0  0  0  0
  190.8370  177.9320  144.5440 C   0  0  0  0  0  3  0  0  0  0  0  0
  191.5380  176.7730  145.1310 C   0  0  0  0  0  0  0  0  0  0  0  0
  189.0420  174.9170  147.2640 C   0  0  0  0  0  1  0  0  0  0  0  0
  188.8420  176.6300  143.8350 C   0  0  1  0  0  3  0  0  0  0  0  0
  189.4800  175.6230  146.0320 C   0  0  0  0  0  0  0  0  0  0  0  0
  188.5430  176.0160  145.1690 C   0  0  0  0  0  3  0  0  0  0  0  0
  190.9320  175.7920  145.8130 C   0  0  0  0  0  3  0  0  0  0  0  0
  194.1300  176.7960  145.0970 N   0  0  0  0  0  0  0  0  0  0  0  0
  192.9730  176.7860  145.1120 C   0  0  0  0  0  0  0  0  0  0  0  0
  187.0740  176.9220  140.7120 O   0  0  0  0  0  0  0  0  0  0  0  0
  188.2970  175.0800  141.4640 N   0  0  0  0  0  2  0  0  0  0  0  0
  187.6160  176.3160  141.6770 C   0  0  0  0  0  0  0  0  0  0  0  0
  189.7160  174.0110  139.9550 O   0  0  0  0  0  0  0  0  0  0  0  0
  188.4030  174.4770  140.1450 C   0  0  1  0  0  3  0  0  0  0  0  0
  188.7460  173.0450  140.2800 C   0  0  1  0  0  3  0  0  0  0  0  0
  188.3410  172.3040  139.0210 C   0  0  0  0  0  2  0  0  0  0  0  0
  189.3370  171.2960  138.6910 N   0  0  0  0  0  2  0  0  0  0  0  0
  192.0800  171.7280  135.6000 N   0  0  0  0  0  0  0  0  0  0  0  0
  191.1310  173.7520  135.1230 O   0  0  0  0  0  0  0  0  0  0  0  0
  191.1590  172.7110  135.8340 C   0  0  0  0  0  0  0  0  0  0  0  0
  192.0950  170.6280  136.3570 N   0  0  0  0  0  0  0  0  0  0  0  0
  190.2770  171.4540  137.6250 C   0  0  0  0  0  0  0  0  0  0  0  0
  191.2140  170.4580  137.3750 C   0  0  0  0  0  3  0  0  0  0  0  0
  190.2660  172.5650  136.8440 N   0  0  0  0  0  0  0  0  0  0  0  0
  194.3990  172.2470  135.0650 C   0  0  0  0  0  1  0  0  0  0  0  0
  193.0440  171.8460  134.5140 C   0  0  0  0  0  2  0  0  0  0  0  0
  186.4550  176.3250  143.7310 O   0  0  0  0  0  0  0  0  0  0  0  0
  185.4890  177.2780  143.6760 N   0  0  0  0  0  2  0  0  0  0  0  0
  185.4570  179.6920  144.1890 C   0  0  0  0  0  1  0  0  0  0  0  0
  185.7650  178.2890  144.6970 C   0  0  1  0  0  3  0  0  0  0  0  0
  184.8260  176.6130  146.1450 F   0  0  0  0  0  0  0  0  0  0  0  0
  185.0600  177.9710  146.0150 C   0  0  2  0  0  3  0  0  0  0  0  0
  183.8510  178.6640  146.0880 O   0  0  0  0  0  1  0  0  0  0  0  0
  1 14  1  6  0  0  0
  1 29  1  0  0  0  0
  2  3  2  0  0  0  0
  3  4  1  0  0  0  0
  4  9  2  0  0  0  0
  6  1  1  1  0  0  0
  6  2  1  0  0  0  0
  6  8  1  0  0  0  0
  7  5  1  0  0  0  0
  8  7  2  0  0  0  0
  9  7  1  0  0  0  0
 10 11  3  0  0  0  0
 11  4  1  0  0  0  0
 12 14  2  0  0  0  0
 13 14  1  0  0  0  0
 15 16  1  0  0  0  0
 15 17  1  0  0  0  0
 16 17  1  0  0  0  0
 16 13  1  1  0  0  0
 17 18  1  6  0  0  0
 19 18  1  0  0  0  0
 20 22  1  0  0  0  0
 20 23  1  0  0  0  0
 21 22  2  0  0  0  0
 22 26  1  0  0  0  0
 23 25  2  0  0  0  0
 24 19  1  0  0  0  0
 25 24  1  0  0  0  0
 26 24  2  0  0  0  0
 28 27  1  0  0  0  0
 28 20  1  0  0  0  0
 30 29  1  0  0  0  0
 30 32  1  0  0  0  0
 32 31  1  6  0  0  0
 32 34  1  0  0  0  0
 34 35  1  6  0  0  0
 34 33  1  0  0  0  0
M  END
>  <MODEL>
6

>  <REMARK>
 VINA RESULT:      -6.4      4.573      6.575
  Name = 
  11 active torsions:
  status: ('A' for Active; 'I' for Inactive)
    1  A    between atoms: C_1  and  N_4
    2  A    between atoms: C_1  and  C_22
    3  A    between atoms: N_7  and  C_32
    4  A    between atoms: N_11  and  C_16
    5  A    between atoms: C_12  and  C_25
    6  A    between atoms: C_20  and  C_24
    7  A    between atoms: C_23  and  C_26
    8  A    between atoms: C_24  and  O_30
    9  A    between atoms: C_24  and  C_34
   10  A    between atoms: C_26  and  N_31
   11  A    between atoms: O_30  and  N_31
                            x       y       z     vdW  Elec       q    Type
                         _______ _______ _______ _____ _____    ______ ____

>  <TORSDO>
F 11

$$$$
=
 OpenBabel11042418023D

 35 37  0  0  1  0  0  0  0  0999 V2000
  188.0580  177.2070  144.2190 C   0  0  1  0  0  3  0  0  0  0  0  0
  190.4220  177.9220  143.8780 C   0  0  0  0  0  3  0  0  0  0  0  0
  191.7510  177.8260  143.8870 C   0  0  0  0  0  3  0  0  0  0  0  0
  192.5220  176.7730  144.5750 C   0  0  0  0  0  0  0  0  0  0  0  0
  191.0100  176.3390  148.0040 C   0  0  0  0  0  1  0  0  0  0  0  0
  189.5300  176.8960  144.5070 C   0  0  1  0  0  3  0  0  0  0  0  0
  190.9450  176.4970  146.5270 C   0  0  0  0  0  0  0  0  0  0  0  0
  189.7720  176.8200  145.9830 C   0  0  0  0  0  3  0  0  0  0  0  0
  192.1750  176.2310  145.7510 C   0  0  0  0  0  3  0  0  0  0  0  0
  194.8410  176.1500  143.5990 N   0  0  0  0  0  0  0  0  0  0  0  0
  193.8060  176.4290  144.0350 C   0  0  0  0  0  0  0  0  0  0  0  0
  186.2340  176.0820  143.1510 O   0  0  0  0  0  0  0  0  0  0  0  0
  188.3610  175.5220  142.3640 N   0  0  0  0  0  2  0  0  0  0  0  0
  187.4820  176.2480  143.2240 C   0  0  0  0  0  0  0  0  0  0  0  0
  188.0410  175.1230  140.0900 O   0  0  0  0  0  0  0  0  0  0  0  0
  187.8640  174.5800  141.3740 C   0  0  1  0  0  3  0  0  0  0  0  0
  188.9740  174.1500  140.4970 C   0  0  1  0  0  3  0  0  0  0  0  0
  188.6260  172.8250  139.8470 C   0  0  0  0  0  2  0  0  0  0  0  0
  189.8080  171.9810  139.7670 N   0  0  0  0  0  2  0  0  0  0  0  0
  191.9500  170.7300  143.1010 N   0  0  0  0  0  0  0  0  0  0  0  0
  190.4930  171.9150  144.4040 O   0  0  0  0  0  0  0  0  0  0  0  0
  190.8600  171.5410  143.2580 C   0  0  0  0  0  0  0  0  0  0  0  0
  192.3300  170.3460  141.8800 N   0  0  0  0  0  0  0  0  0  0  0  0
  190.5380  171.5560  140.9200 C   0  0  0  0  0  0  0  0  0  0  0  0
  191.6500  170.7360  140.7710 C   0  0  0  0  0  3  0  0  0  0  0  0
  190.1640  171.9470  142.1660 N   0  0  0  0  0  0  0  0  0  0  0  0
  193.9260  171.1960  144.4460 C   0  0  0  0  0  1  0  0  0  0  0  0
  192.7270  170.2880  144.2500 C   0  0  0  0  0  2  0  0  0  0  0  0
  187.3070  177.1500  145.3970 O   0  0  0  0  0  0  0  0  0  0  0  0
  186.8000  178.4000  145.5440 N   0  0  0  0  0  2  0  0  0  0  0  0
  184.7420  178.3140  146.9060 C   0  0  0  0  0  1  0  0  0  0  0  0
  185.3390  178.3250  145.5040 C   0  0  1  0  0  3  0  0  0  0  0  0
  183.5250  179.0190  144.0850 F   0  0  0  0  0  0  0  0  0  0  0  0
  184.7390  179.4160  144.6170 C   0  0  2  0  0  3  0  0  0  0  0  0
  185.6230  179.7290  143.5840 O   0  0  0  0  0  1  0  0  0  0  0  0
  1 14  1  6  0  0  0
  1 29  1  0  0  0  0
  2  3  2  0  0  0  0
  2  6  1  0  0  0  0
  3  4  1  0  0  0  0
  4  9  2  0  0  0  0
  6  1  1  1  0  0  0
  6  8  1  0  0  0  0
  7  5  1  0  0  0  0
  8  7  2  0  0  0  0
  9  7  1  0  0  0  0
 10 11  3  0  0  0  0
 11  4  1  0  0  0  0
 12 14  2  0  0  0  0
 13 14  1  0  0  0  0
 15 17  1  0  0  0  0
 15 16  1  0  0  0  0
 16 13  1  1  0  0  0
 17 18  1  6  0  0  0
 17 16  1  0  0  0  0
 19 18  1  0  0  0  0
 19 24  1  0  0  0  0
 20 22  1  0  0  0  0
 20 28  1  0  0  0  0
 22 21  2  0  0  0  0
 23 20  1  0  0  0  0
 24 26  2  0  0  0  0
 25 24  1  0  0  0  0
 25 23  2  0  0  0  0
 26 22  1  0  0  0  0
 28 27  1  0  0  0  0
 29 30  1  0  0  0  0
 32 30  1  0  0  0  0
 32 31  1  1  0  0  0
 33 34  1  0  0  0  0
 34 35  1  6  0  0  0
 34 32  1  0  0  0  0
M  END
>  <MODEL>
7

>  <REMARK>
 VINA RESULT:      -6.4      3.415      5.859
  Name = 
  11 active torsions:
  status: ('A' for Active; 'I' for Inactive)
    1  A    between atoms: C_1  and  N_4
    2  A    between atoms: C_1  and  C_22
    3  A    between atoms: N_7  and  C_32
    4  A    between atoms: N_11  and  C_16
    5  A    between atoms: C_12  and  C_25
    6  A    between atoms: C_20  and  C_24
    7  A    between atoms: C_23  and  C_26
    8  A    between atoms: C_24  and  O_30
    9  A    between atoms: C_24  and  C_34
   10  A    between atoms: C_26  and  N_31
   11  A    between atoms: O_30  and  N_31
                            x       y       z     vdW  Elec       q    Type
                         _______ _______ _______ _____ _____    ______ ____

>  <TORSDO>
F 11

$$$$
=
 OpenBabel11042418023D

 35 37  0  0  1  0  0  0  0  0999 V2000
  189.3270  175.8320  142.8270 C   0  0  1  0  0  3  0  0  0  0  0  0
  188.1890  177.5380  144.2480 C   0  0  0  0  0  3  0  0  0  0  0  0
  187.1780  178.1700  144.8410 C   0  0  0  0  0  3  0  0  0  0  0  0
  185.7510  177.9730  144.5220 C   0  0  0  0  0  0  0  0  0  0  0  0
  185.4370  177.9320  140.7630 C   0  0  0  0  0  1  0  0  0  0  0  0
  187.9880  176.4620  143.2260 C   0  0  1  0  0  3  0  0  0  0  0  0
  186.0660  177.5480  142.0540 C   0  0  0  0  0  0  0  0  0  0  0  0
  187.2830  177.0040  142.0200 C   0  0  0  0  0  3  0  0  0  0  0  0
  185.2780  177.7410  143.2890 C   0  0  0  0  0  3  0  0  0  0  0  0
  184.0290  178.4010  146.4130 N   0  0  0  0  0  0  0  0  0  0  0  0
  184.7980  178.2100  145.5690 C   0  0  0  0  0  0  0  0  0  0  0  0
  191.0520  177.4910  142.8590 O   0  0  0  0  0  0  0  0  0  0  0  0
  190.9170  176.1440  144.7620 N   0  0  0  0  0  2  0  0  0  0  0  0
  190.4770  176.5470  143.4650 C   0  0  0  0  0  0  0  0  0  0  0  0
  191.8850  176.6310  146.8260 O   0  0  0  0  0  0  0  0  0  0  0  0
  192.0250  176.8000  145.4370 C   0  0  1  0  0  3  0  0  0  0  0  0
  192.8170  175.7970  146.1810 C   0  0  1  0  0  3  0  0  0  0  0  0
  194.2160  176.3310  146.4240 C   0  0  0  0  0  2  0  0  0  0  0  0
  195.2020  175.3030  146.1320 N   0  0  0  0  0  2  0  0  0  0  0  0
  197.1440  174.9820  142.4720 N   0  0  0  0  0  0  0  0  0  0  0  0
  195.9320  176.7770  141.7420 O   0  0  0  0  0  0  0  0  0  0  0  0
  196.2110  175.9640  142.6630 C   0  0  0  0  0  0  0  0  0  0  0  0
  197.4250  174.1240  143.4560 N   0  0  0  0  0  0  0  0  0  0  0  0
  195.8650  175.2010  144.8690 C   0  0  0  0  0  0  0  0  0  0  0  0
  196.8110  174.2040  144.6630 C   0  0  0  0  0  3  0  0  0  0  0  0
  195.5810  176.0640  143.8600 N   0  0  0  0  0  0  0  0  0  0  0  0
  196.9980  173.9880  140.2530 C   0  0  0  0  0  1  0  0  0  0  0  0
  197.8300  174.8360  141.1950 C   0  0  0  0  0  2  0  0  0  0  0  0
  189.3620  174.4850  143.1970 O   0  0  0  0  0  0  0  0  0  0  0  0
  188.6820  173.8390  142.2150 N   0  0  0  0  0  2  0  0  0  0  0  0
  190.5350  172.7310  141.0170 C   0  0  0  0  0  1  0  0  0  0  0  0
  189.4930  173.8430  140.9980 C   0  0  1  0  0  3  0  0  0  0  0  0
  187.8240  172.6890  139.7050 F   0  0  0  0  0  0  0  0  0  0  0  0
  188.6260  173.8170  139.7390 C   0  0  2  0  0  3  0  0  0  0  0  0
  189.4350  173.8500  138.6030 O   0  0  0  0  0  1  0  0  0  0  0  0
  1 29  1  1  0  0  0
  1 14  1  0  0  0  0
  2  3  2  0  0  0  0
  4  3  1  0  0  0  0
  4 11  1  0  0  0  0
  5  7  1  0  0  0  0
  6  1  1  6  0  0  0
  6  2  1  0  0  0  0
  7  9  1  0  0  0  0
  8  7  2  0  0  0  0
  8  6  1  0  0  0  0
  9  4  2  0  0  0  0
 11 10  3  0  0  0  0
 12 14  2  0  0  0  0
 14 13  1  0  0  0  0
 16 13  1  6  0  0  0
 16 17  1  0  0  0  0
 16 15  1  0  0  0  0
 17 18  1  1  0  0  0
 17 15  1  0  0  0  0
 19 18  1  0  0  0  0
 20 22  1  0  0  0  0
 20 23  1  0  0  0  0
 21 22  2  0  0  0  0
 22 26  1  0  0  0  0
 23 25  2  0  0  0  0
 24 19  1  0  0  0  0
 25 24  1  0  0  0  0
 26 24  2  0  0  0  0
 27 28  1  0  0  0  0
 28 20  1  0  0  0  0
 30 29  1  0  0  0  0
 32 31  1  1  0  0  0
 32 30  1  0  0  0  0
 33 34  1  0  0  0  0
 34 35  1  6  0  0  0
 34 32  1  0  0  0  0
M  END
>  <MODEL>
8

>  <REMARK>
 VINA RESULT:      -6.4      2.587      4.399
  Name = 
  11 active torsions:
  status: ('A' for Active; 'I' for Inactive)
    1  A    between atoms: C_1  and  N_4
    2  A    between atoms: C_1  and  C_22
    3  A    between atoms: N_7  and  C_32
    4  A    between atoms: N_11  and  C_16
    5  A    between atoms: C_12  and  C_25
    6  A    between atoms: C_20  and  C_24
    7  A    between atoms: C_23  and  C_26
    8  A    between atoms: C_24  and  O_30
    9  A    between atoms: C_24  and  C_34
   10  A    between atoms: C_26  and  N_31
   11  A    between atoms: O_30  and  N_31
                            x       y       z     vdW  Elec       q    Type
                         _______ _______ _______ _____ _____    ______ ____

>  <TORSDO>
F 11

$$$$
=
 OpenBabel11042418023D

 35 37  0  0  1  0  0  0  0  0999 V2000
  189.4400  176.2430  144.9820 C   0  0  1  0  0  3  0  0  0  0  0  0
  187.4380  176.0200  143.5110 C   0  0  0  0  0  3  0  0  0  0  0  0
  186.4110  176.4160  142.7620 C   0  0  0  0  0  3  0  0  0  0  0  0
  185.8790  177.7920  142.7100 C   0  0  0  0  0  0  0  0  0  0  0  0
  185.6540  179.0410  146.2620 C   0  0  0  0  0  1  0  0  0  0  0  0
  188.2500  176.9660  144.3420 C   0  0  1  0  0  3  0  0  0  0  0  0
  186.3330  178.3640  145.1260 C   0  0  0  0  0  0  0  0  0  0  0  0
  187.3990  177.6090  145.3930 C   0  0  0  0  0  3  0  0  0  0  0  0
  185.8160  178.6160  143.7640 C   0  0  0  0  0  3  0  0  0  0  0  0
  184.7210  178.5480  140.5170 N   0  0  0  0  0  0  0  0  0  0  0  0
  185.2380  178.2110  141.4960 C   0  0  0  0  0  0  0  0  0  0  0  0
  189.5990  173.8550  144.9290 O   0  0  0  0  0  0  0  0  0  0  0  0
  190.1270  174.9420  142.9310 N   0  0  0  0  0  2  0  0  0  0  0  0
  189.7190  174.9410  144.2990 C   0  0  0  0  0  0  0  0  0  0  0  0
  190.0280  173.8660  140.8660 O   0  0  0  0  0  0  0  0  0  0  0  0
  190.4100  173.7120  142.2100 C   0  0  1  0  0  3  0  0  0  0  0  0
  191.4030  173.9760  141.1470 C   0  0  1  0  0  3  0  0  0  0  0  0
  192.0940  172.6810  140.7630 C   0  0  0  0  0  2  0  0  0  0  0  0
  193.5380  172.8500  140.8190 N   0  0  0  0  0  2  0  0  0  0  0  0
  195.7640  172.3210  144.2870 N   0  0  0  0  0  0  0  0  0  0  0  0
  193.8170  171.8610  145.3930 O   0  0  0  0  0  0  0  0  0  0  0  0
  194.4050  172.1650  144.3210 C   0  0  0  0  0  0  0  0  0  0  0  0
  196.3730  172.6480  143.1450 N   0  0  0  0  0  0  0  0  0  0  0  0
  194.2950  172.6650  142.0170 C   0  0  0  0  0  0  0  0  0  0  0  0
  195.6750  172.8250  141.9950 C   0  0  0  0  0  3  0  0  0  0  0  0
  193.6840  172.3390  143.1860 N   0  0  0  0  0  0  0  0  0  0  0  0
  196.8170  173.5040  146.1380 C   0  0  0  0  0  1  0  0  0  0  0  0
  196.5680  172.1550  145.4900 C   0  0  0  0  0  2  0  0  0  0  0  0
  190.5840  177.0430  144.9280 O   0  0  0  0  0  0  0  0  0  0  0  0
  191.4580  176.4550  145.7840 N   0  0  0  0  0  2  0  0  0  0  0  0
  193.7920  176.7910  146.5160 C   0  0  0  0  0  1  0  0  0  0  0  0
  192.8220  176.7480  145.3420 C   0  0  1  0  0  3  0  0  0  0  0  0
  194.5860  175.3910  144.4290 F   0  0  0  0  0  0  0  0  0  0  0  0
  193.2760  175.7950  144.2370 C   0  0  2  0  0  3  0  0  0  0  0  0
  193.1560  176.4160  142.9930 O   0  0  0  0  0  1  0  0  0  0  0  0
  1 14  1  6  0  0  0
  2  6  1  0  0  0  0
  3  2  2  0  0  0  0
  4  3  1  0  0  0  0
  4  9  2  0  0  0  0
  6  1  1  1  0  0  0
  6  8  1  0  0  0  0
  7  8  2  0  0  0  0
  7  5  1  0  0  0  0
  9  7  1  0  0  0  0
 10 11  3  0  0  0  0
 11  4  1  0  0  0  0
 13 14  1  0  0  0  0
 14 12  2  0  0  0  0
 15 17  1  0  0  0  0
 15 16  1  0  0  0  0
 16 13  1  1  0  0  0
 17 18  1  6  0  0  0
 17 16  1  0  0  0  0
 18 19  1  0  0  0  0
 19 24  1  0  0  0  0
 20 22  1  0  0  0  0
 20 28  1  0  0  0  0
 22 21  2  0  0  0  0
 23 20  1  0  0  0  0
 24 26  2  0  0  0  0
 25 24  1  0  0  0  0
 25 23  2  0  0  0  0
 26 22  1  0  0  0  0
 28 27  1  0  0  0  0
 29  1  1  0  0  0  0
 29 30  1  0  0  0  0
 32 30  1  0  0  0  0
 32 31  1  1  0  0  0
 34 35  1  6  0  0  0
 34 33  1  0  0  0  0
 34 32  1  0  0  0  0
M  END
>  <MODEL>
9

>  <REMARK>
 VINA RESULT:      -6.3      3.205      5.389
  Name = 
  11 active torsions:
  status: ('A' for Active; 'I' for Inactive)
    1  A    between atoms: C_1  and  N_4
    2  A    between atoms: C_1  and  C_22
    3  A    between atoms: N_7  and  C_32
    4  A    between atoms: N_11  and  C_16
    5  A    between atoms: C_12  and  C_25
    6  A    between atoms: C_20  and  C_24
    7  A    between atoms: C_23  and  C_26
    8  A    between atoms: C_24  and  O_30
    9  A    between atoms: C_24  and  C_34
   10  A    between atoms: C_26  and  N_31
   11  A    between atoms: O_30  and  N_31
                            x       y       z     vdW  Elec       q    Type
                         _______ _______ _______ _____ _____    ______ ____

>  <TORSDO>
F 11

$$$$
