=
 OpenBabel11042418343D

 37 40  0  0  1  0  0  0  0  0999 V2000
  190.1030  174.5930  146.3790 C   0  0  1  0  0  3  0  0  0  0  0  0
  191.2230  174.2320  144.1950 C   0  0  0  0  0  0  0  0  0  0  0  0
  193.9840  176.9970  146.8860 O   0  0  0  0  0  0  0  0  0  0  0  0
  193.5290  176.3730  145.8920 C   0  0  0  0  0  0  0  0  0  0  0  0
  194.1370  176.3250  144.6870 N   0  0  0  0  0  2  0  0  0  0  0  0
  193.7020  175.2700  142.5190 C   0  0  0  0  0  1  0  0  0  0  0  0
  193.3740  175.5750  143.9010 N   0  0  0  0  0  0  0  0  0  0  0  0
  190.2690  173.9600  145.0500 N   0  0  0  0  0  0  0  0  0  0  0  0
  192.3620  175.6430  145.8590 C   0  0  0  0  0  0  0  0  0  0  0  0
  192.2940  175.1550  144.5930 C   0  0  0  0  0  0  0  0  0  0  0  0
  191.3490  175.3110  146.8580 C   0  0  0  0  0  0  0  0  0  0  0  0
  191.2500  173.5910  142.9200 N   0  0  0  0  0  2  0  0  0  0  0  0
  191.4720  175.6830  148.0900 N   0  0  0  0  0  2  0  0  0  0  0  0
  188.9540  175.5450  146.3330 C   0  0  0  0  0  0  0  0  0  0  0  0
  185.3350  178.0330  146.8700 C   0  0  0  0  0  3  0  0  0  0  0  0
  188.0500  175.6440  147.2940 O   0  0  0  0  0  0  0  0  0  0  0  0
  187.2090  176.5560  146.8940 C   0  0  0  0  0  0  0  0  0  0  0  0
  188.7300  176.3820  145.2860 N   0  0  0  0  0  0  0  0  0  0  0  0
  185.7430  178.5170  145.5980 C   0  0  0  0  0  0  0  0  0  0  0  0
  186.0730  177.0370  147.5360 C   0  0  0  0  0  3  0  0  0  0  0  0
  186.9020  177.9980  144.9900 C   0  0  0  0  0  3  0  0  0  0  0  0
  187.6090  177.0140  145.6750 C   0  0  0  0  0  0  0  0  0  0  0  0
  184.0290  179.1950  143.9480 C   0  0  0  0  0  1  0  0  0  0  0  0
  185.0160  179.5020  144.9260 O   0  0  0  0  0  0  0  0  0  0  0  0
  190.3030  172.6160  142.5800 N   0  0  0  0  0  2  0  0  0  0  0  0
  189.5130  173.1610  141.4810 C   0  0  1  0  0  3  0  0  0  0  0  0
  188.4020  173.9580  141.9810 N   0  0  0  0  0  2  0  0  0  0  0  0
  188.4920  175.2610  141.3430 C   0  0  0  0  0  2  0  0  0  0  0  0
  187.3910  176.1450  141.8280 C   0  0  0  0  0  0  0  0  0  0  0  0
  186.5270  175.7020  142.5680 O   0  0  0  0  0  0  0  0  0  0  0  0
  188.6070  178.2230  141.7190 N   0  0  0  0  0  1  0  0  0  0  0  0
  187.3470  177.5740  141.3980 C   0  0  0  0  0  2  0  0  0  0  0  0
  190.2940  173.8740  140.5400 O   0  0  0  0  0  0  0  0  0  0  0  0
  191.9860  171.9430  139.4630 O   0  0  0  0  0  1  0  0  0  0  0  0
  190.9240  173.8680  137.7930 O   0  0  0  0  0  0  0  0  0  0  0  0
  190.6340  172.9140  139.1620 P   0  0  0  0  0  0  0  0  0  0  0  0
  189.4470  172.0190  138.8870 O   0  0  0  0  0  1  0  0  0  0  0  0
  1 14  1  6  0  0  0
  1 11  1  0  0  0  0
  2 10  1  0  0  0  0
  2  8  2  0  0  0  0
  4  3  2  0  0  0  0
  5  4  1  0  0  0  0
  6  7  1  0  0  0  0
  7 10  1  0  0  0  0
  7  5  1  0  0  0  0
  8  1  1  0  0  0  0
  9  4  1  0  0  0  0
  9 11  1  0  0  0  0
 10  9  2  0  0  0  0
 11 13  2  0  0  0  0
 12  2  1  0  0  0  0
 14 16  1  0  0  0  0
 15 20  1  0  0  0  0
 17 16  1  0  0  0  0
 17 20  2  0  0  0  0
 18 22  1  0  0  0  0
 18 14  2  0  0  0  0
 19 15  2  0  0  0  0
 21 19  1  0  0  0  0
 21 22  2  0  0  0  0
 22 17  1  0  0  0  0
 23 24  1  0  0  0  0
 24 19  1  0  0  0  0
 25 12  1  0  0  0  0
 26 33  1  6  0  0  0
 26 27  1  0  0  0  0
 26 25  1  0  0  0  0
 28 29  1  0  0  0  0
 28 27  1  0  0  0  0
 29 30  2  0  0  0  0
 32 31  1  0  0  0  0
 32 29  1  0  0  0  0
 35 36  2  0  0  0  0
 36 34  1  0  0  0  0
 36 33  1  0  0  0  0
 37 36  1  0  0  0  0
M  END
>  <MODEL>
1

>  <REMARK>
 VINA RESULT:      -7.1      0.000      0.000
  Name = 
  10 active torsions:
  status: ('A' for Active; 'I' for Inactive)
    1  A    between atoms: C_1  and  C_3
    2  A    between atoms: C_7  and  C_29
    3  A    between atoms: C_7  and  C_33
    4  A    between atoms: C_16  and  N_19
    5  A    between atoms: C_16  and  N_30
    6  A    between atoms: C_16  and  O_36
    7  A    between atoms: N_19  and  C_29
    8  A    between atoms: C_24  and  O_34
    9  A    between atoms: P_26  and  O_36
   10  A    between atoms: N_30  and  N_31
                            x       y       z     vdW  Elec       q    Type
                         _______ _______ _______ _____ _____    ______ ____

>  <TORSDO>
F 10

$$$$
=
 OpenBabel11042418343D

 37 40  0  0  1  0  0  0  0  0999 V2000
  190.1520  174.6360  146.3050 C   0  0  1  0  0  3  0  0  0  0  0  0
  191.3080  174.4300  144.1200 C   0  0  0  0  0  0  0  0  0  0  0  0
  193.9670  177.0960  147.0070 O   0  0  0  0  0  0  0  0  0  0  0  0
  193.5400  176.5210  145.9720 C   0  0  0  0  0  0  0  0  0  0  0  0
  194.1650  176.5580  144.7750 N   0  0  0  0  0  2  0  0  0  0  0  0
  193.7830  175.6220  142.5430 C   0  0  0  0  0  1  0  0  0  0  0  0
  193.4290  175.8380  143.9360 N   0  0  0  0  0  0  0  0  0  0  0  0
  190.3510  174.0860  144.9440 N   0  0  0  0  0  0  0  0  0  0  0  0
  192.3910  175.7670  145.8800 C   0  0  0  0  0  0  0  0  0  0  0  0
  192.3520  175.3530  144.5860 C   0  0  0  0  0  0  0  0  0  0  0  0
  191.3740  175.3540  146.8430 C   0  0  0  0  0  0  0  0  0  0  0  0
  191.3670  173.8660  142.8100 N   0  0  0  0  0  2  0  0  0  0  0  0
  191.4720  175.6550  148.0960 N   0  0  0  0  0  2  0  0  0  0  0  0
  188.9810  175.5620  146.2980 C   0  0  0  0  0  0  0  0  0  0  0  0
  185.3090  177.9460  146.9420 C   0  0  0  0  0  3  0  0  0  0  0  0
  188.0810  175.6070  147.2680 O   0  0  0  0  0  0  0  0  0  0  0  0
  187.2170  176.5130  146.9040 C   0  0  0  0  0  0  0  0  0  0  0  0
  188.7310  176.4290  145.2820 N   0  0  0  0  0  0  0  0  0  0  0  0
  185.6980  178.4820  145.6850 C   0  0  0  0  0  0  0  0  0  0  0  0
  186.0750  176.9450  147.5690 C   0  0  0  0  0  3  0  0  0  0  0  0
  186.8640  178.0110  145.0520 C   0  0  0  0  0  3  0  0  0  0  0  0
  187.5980  177.0210  145.6990 C   0  0  0  0  0  0  0  0  0  0  0  0
  184.0550  179.1910  143.9760 C   0  0  0  0  0  1  0  0  0  0  0  0
  184.9430  179.4730  145.0510 O   0  0  0  0  0  0  0  0  0  0  0  0
  190.4480  172.8910  142.4000 N   0  0  0  0  0  2  0  0  0  0  0  0
  189.6060  173.5070  141.3810 C   0  0  1  0  0  3  0  0  0  0  0  0
  189.5760  172.7010  140.1690 N   0  0  0  0  0  2  0  0  0  0  0  0
  190.3650  173.4030  139.1710 C   0  0  0  0  0  2  0  0  0  0  0  0
  189.5570  173.6080  137.9320 C   0  0  0  0  0  0  0  0  0  0  0  0
  188.3670  173.3370  137.9220 O   0  0  0  0  0  0  0  0  0  0  0  0
  189.3020  174.0390  135.5740 N   0  0  0  0  0  1  0  0  0  0  0  0
  190.2130  174.1420  136.7020 C   0  0  0  0  0  2  0  0  0  0  0  0
  188.3030  173.8070  141.8490 O   0  0  0  0  0  0  0  0  0  0  0  0
  186.5570  175.8680  142.5230 O   0  0  0  0  0  1  0  0  0  0  0  0
  187.6530  175.8220  139.9890 O   0  0  0  0  0  0  0  0  0  0  0  0
  187.9300  175.4640  141.6210 P   0  0  0  0  0  0  0  0  0  0  0  0
  189.0920  176.2970  142.1100 O   0  0  0  0  0  1  0  0  0  0  0  0
  1 14  1  6  0  0  0
  1 11  1  0  0  0  0
  2 10  1  0  0  0  0
  2  8  2  0  0  0  0
  4  3  2  0  0  0  0
  5  4  1  0  0  0  0
  6  7  1  0  0  0  0
  7 10  1  0  0  0  0
  7  5  1  0  0  0  0
  8  1  1  0  0  0  0
  9  4  1  0  0  0  0
  9 11  1  0  0  0  0
 10  9  2  0  0  0  0
 11 13  2  0  0  0  0
 12  2  1  0  0  0  0
 14 16  1  0  0  0  0
 15 20  1  0  0  0  0
 17 16  1  0  0  0  0
 17 20  2  0  0  0  0
 18 22  1  0  0  0  0
 18 14  2  0  0  0  0
 19 15  2  0  0  0  0
 21 19  1  0  0  0  0
 21 22  2  0  0  0  0
 22 17  1  0  0  0  0
 23 24  1  0  0  0  0
 24 19  1  0  0  0  0
 25 12  1  0  0  0  0
 26 27  1  6  0  0  0
 26 33  1  0  0  0  0
 26 25  1  0  0  0  0
 28 27  1  0  0  0  0
 29 28  1  0  0  0  0
 30 29  2  0  0  0  0
 31 32  1  0  0  0  0
 32 29  1  0  0  0  0
 35 36  2  0  0  0  0
 36 33  1  0  0  0  0
 36 37  1  0  0  0  0
 36 34  1  0  0  0  0
M  END
>  <MODEL>
2

>  <REMARK>
 VINA RESULT:      -6.9      1.922      2.854
  Name = 
  10 active torsions:
  status: ('A' for Active; 'I' for Inactive)
    1  A    between atoms: C_1  and  C_3
    2  A    between atoms: C_7  and  C_29
    3  A    between atoms: C_7  and  C_33
    4  A    between atoms: C_16  and  N_19
    5  A    between atoms: C_16  and  N_30
    6  A    between atoms: C_16  and  O_36
    7  A    between atoms: N_19  and  C_29
    8  A    between atoms: C_24  and  O_34
    9  A    between atoms: P_26  and  O_36
   10  A    between atoms: N_30  and  N_31
                            x       y       z     vdW  Elec       q    Type
                         _______ _______ _______ _____ _____    ______ ____

>  <TORSDO>
F 10

$$$$
=
 OpenBabel11042418343D

 37 40  0  0  1  0  0  0  0  0999 V2000
  190.3330  174.9020  146.8030 C   0  0  1  0  0  3  0  0  0  0  0  0
  191.7050  173.8290  145.0360 C   0  0  0  0  0  0  0  0  0  0  0  0
  194.1570  177.4460  146.8850 O   0  0  0  0  0  0  0  0  0  0  0  0
  193.8170  176.4990  146.1290 C   0  0  0  0  0  0  0  0  0  0  0  0
  194.5670  176.0480  145.1000 N   0  0  0  0  0  2  0  0  0  0  0  0
  194.3840  174.2850  143.4080 C   0  0  0  0  0  1  0  0  0  0  0  0
  193.8940  175.0470  144.5440 N   0  0  0  0  0  0  0  0  0  0  0  0
  190.6510  173.8470  145.8120 N   0  0  0  0  0  0  0  0  0  0  0  0
  192.6530  175.7690  146.2180 C   0  0  0  0  0  0  0  0  0  0  0  0
  192.7330  174.8650  145.2060 C   0  0  0  0  0  0  0  0  0  0  0  0
  191.5220  175.7800  147.1410 C   0  0  0  0  0  0  0  0  0  0  0  0
  191.8780  172.7810  144.0820 N   0  0  0  0  0  2  0  0  0  0  0  0
  191.4990  176.5640  148.1680 N   0  0  0  0  0  2  0  0  0  0  0  0
  189.2120  175.7420  146.2870 C   0  0  0  0  0  0  0  0  0  0  0  0
  185.5110  178.0020  145.4070 C   0  0  0  0  0  3  0  0  0  0  0  0
  188.0810  175.9340  146.9490 O   0  0  0  0  0  0  0  0  0  0  0  0
  187.3520  176.6980  146.1840 C   0  0  0  0  0  0  0  0  0  0  0  0
  189.2510  176.3690  145.0830 N   0  0  0  0  0  0  0  0  0  0  0  0
  186.2300  178.2920  144.2160 C   0  0  0  0  0  0  0  0  0  0  0  0
  186.0730  177.1930  146.4120 C   0  0  0  0  0  3  0  0  0  0  0  0
  187.5240  177.7670  144.0330 C   0  0  0  0  0  3  0  0  0  0  0  0
  188.0500  176.9710  145.0460 C   0  0  0  0  0  0  0  0  0  0  0  0
  184.9010  178.5570  142.1470 C   0  0  0  0  0  1  0  0  0  0  0  0
  185.6810  179.0910  143.2100 O   0  0  0  0  0  0  0  0  0  0  0  0
  190.9660  171.7220  143.9980 N   0  0  0  0  0  2  0  0  0  0  0  0
  190.3520  171.7970  142.6770 C   0  0  1  0  0  3  0  0  0  0  0  0
  190.5200  170.5480  141.9490 N   0  0  0  0  0  2  0  0  0  0  0  0
  191.6410  170.7310  141.0420 C   0  0  0  0  0  2  0  0  0  0  0  0
  191.1460  171.1350  139.6920 C   0  0  0  0  0  0  0  0  0  0  0  0
  190.1580  170.6000  139.2140 O   0  0  0  0  0  0  0  0  0  0  0  0
  190.9110  173.0590  138.2600 N   0  0  0  0  0  1  0  0  0  0  0  0
  191.8680  172.1920  138.9260 C   0  0  0  0  0  2  0  0  0  0  0  0
  188.9960  172.2050  142.7210 O   0  0  0  0  0  0  0  0  0  0  0  0
  190.1700  174.3370  141.3680 O   0  0  0  0  0  1  0  0  0  0  0  0
  187.5990  174.6220  142.3340 O   0  0  0  0  0  1  0  0  0  0  0  0
  188.7130  173.5320  141.6740 P   0  0  0  0  0  0  0  0  0  0  0  0
  188.1650  173.0100  140.3650 O   0  0  0  0  0  0  0  0  0  0  0  0
  1 14  1  6  0  0  0
  1 11  1  0  0  0  0
  2 10  1  0  0  0  0
  2  8  2  0  0  0  0
  4  9  1  0  0  0  0
  4  3  2  0  0  0  0
  5  4  1  0  0  0  0
  6  7  1  0  0  0  0
  7  5  1  0  0  0  0
  7 10  1  0  0  0  0
  8  1  1  0  0  0  0
  9 11  1  0  0  0  0
 10  9  2  0  0  0  0
 11 13  2  0  0  0  0
 12  2  1  0  0  0  0
 14 16  1  0  0  0  0
 15 20  1  0  0  0  0
 17 20  2  0  0  0  0
 17 16  1  0  0  0  0
 18 14  2  0  0  0  0
 19 15  2  0  0  0  0
 21 19  1  0  0  0  0
 21 22  2  0  0  0  0
 22 18  1  0  0  0  0
 22 17  1  0  0  0  0
 23 24  1  0  0  0  0
 24 19  1  0  0  0  0
 25 12  1  0  0  0  0
 26 27  1  1  0  0  0
 26 33  1  0  0  0  0
 26 25  1  0  0  0  0
 28 27  1  0  0  0  0
 29 28  1  0  0  0  0
 30 29  2  0  0  0  0
 31 32  1  0  0  0  0
 32 29  1  0  0  0  0
 34 36  1  0  0  0  0
 36 35  1  0  0  0  0
 36 33  1  0  0  0  0
 37 36  2  0  0  0  0
M  END
>  <MODEL>
3

>  <REMARK>
 VINA RESULT:      -6.7      1.847      3.050
  Name = 
  10 active torsions:
  status: ('A' for Active; 'I' for Inactive)
    1  A    between atoms: C_1  and  C_3
    2  A    between atoms: C_7  and  C_29
    3  A    between atoms: C_7  and  C_33
    4  A    between atoms: C_16  and  N_19
    5  A    between atoms: C_16  and  N_30
    6  A    between atoms: C_16  and  O_36
    7  A    between atoms: N_19  and  C_29
    8  A    between atoms: C_24  and  O_34
    9  A    between atoms: P_26  and  O_36
   10  A    between atoms: N_30  and  N_31
                            x       y       z     vdW  Elec       q    Type
                         _______ _______ _______ _____ _____    ______ ____

>  <TORSDO>
F 10

$$$$
=
 OpenBabel11042418343D

 37 40  0  0  1  0  0  0  0  0999 V2000
  190.3210  172.7870  143.6320 C   0  0  1  0  0  3  0  0  0  0  0  0
  188.8310  174.7270  143.2190 C   0  0  0  0  0  0  0  0  0  0  0  0
  189.4980  172.4170  139.1280 O   0  0  0  0  0  0  0  0  0  0  0  0
  189.1490  173.2990  139.9570 C   0  0  0  0  0  0  0  0  0  0  0  0
  188.4390  174.4010  139.6330 N   0  0  0  0  0  2  0  0  0  0  0  0
  187.5160  176.3320  140.8250 C   0  0  0  0  0  1  0  0  0  0  0  0
  188.2560  175.0840  140.7570 N   0  0  0  0  0  0  0  0  0  0  0  0
  189.4720  173.9320  144.0370 N   0  0  0  0  0  0  0  0  0  0  0  0
  189.4180  173.2920  141.3070 C   0  0  0  0  0  0  0  0  0  0  0  0
  188.8430  174.4280  141.7800 C   0  0  0  0  0  0  0  0  0  0  0  0
  190.0880  172.3500  142.1990 C   0  0  0  0  0  0  0  0  0  0  0  0
  188.0820  175.8310  143.7270 N   0  0  0  0  0  2  0  0  0  0  0  0
  190.5360  171.2170  141.7680 N   0  0  0  0  0  2  0  0  0  0  0  0
  191.7570  173.1440  143.8270 C   0  0  0  0  0  0  0  0  0  0  0  0
  195.9610  173.7730  145.0580 C   0  0  0  0  0  3  0  0  0  0  0  0
  192.4940  172.6830  144.8250 O   0  0  0  0  0  0  0  0  0  0  0  0
  193.6720  173.2210  144.6710 C   0  0  0  0  0  0  0  0  0  0  0  0
  192.4270  173.9900  143.0010 N   0  0  0  0  0  0  0  0  0  0  0  0
  195.9450  174.6080  143.9080 C   0  0  0  0  0  0  0  0  0  0  0  0
  194.8110  173.0650  145.4540 C   0  0  0  0  0  3  0  0  0  0  0  0
  194.7660  174.7320  143.1480 C   0  0  0  0  0  3  0  0  0  0  0  0
  193.6470  174.0190  143.5670 C   0  0  0  0  0  0  0  0  0  0  0  0
  197.0270  176.6820  143.1060 C   0  0  0  0  0  1  0  0  0  0  0  0
  197.0790  175.3190  143.5080 O   0  0  0  0  0  0  0  0  0  0  0  0
  187.9630  176.0510  145.1050 N   0  0  0  0  0  2  0  0  0  0  0  0
  188.1530  177.4810  145.3230 C   0  0  1  0  0  3  0  0  0  0  0  0
  189.5630  177.8000  145.5030 N   0  0  0  0  0  2  0  0  0  0  0  0
  190.0250  177.0470  146.6570 C   0  0  0  0  0  2  0  0  0  0  0  0
  191.2080  176.2160  146.2850 C   0  0  0  0  0  0  0  0  0  0  0  0
  191.3620  175.1100  146.7780 O   0  0  0  0  0  0  0  0  0  0  0  0
  193.5310  176.7380  145.9080 N   0  0  0  0  0  1  0  0  0  0  0  0
  192.2070  176.7450  145.3100 C   0  0  0  0  0  2  0  0  0  0  0  0
  187.5560  178.2770  144.3150 O   0  0  0  0  0  0  0  0  0  0  0  0
  185.5740  180.2130  144.0390 O   0  0  0  0  0  0  0  0  0  0  0  0
  185.7740  178.8380  146.4250 O   0  0  0  0  0  1  0  0  0  0  0  0
  185.9590  178.7250  144.7460 P   0  0  0  0  0  0  0  0  0  0  0  0
  185.0020  177.6790  144.2220 O   0  0  0  0  0  1  0  0  0  0  0  0
  1 14  1  6  0  0  0
  1  8  1  0  0  0  0
  2 12  1  0  0  0  0
  2  8  2  0  0  0  0
  3  4  2  0  0  0  0
  4  9  1  0  0  0  0
  5  4  1  0  0  0  0
  5  7  1  0  0  0  0
  7  6  1  0  0  0  0
  7 10  1  0  0  0  0
  9 10  2  0  0  0  0
  9 11  1  0  0  0  0
 10  2  1  0  0  0  0
 11  1  1  0  0  0  0
 12 25  1  0  0  0  0
 13 11  2  0  0  0  0
 14 16  1  0  0  0  0
 15 20  1  0  0  0  0
 17 16  1  0  0  0  0
 17 20  2  0  0  0  0
 18 22  1  0  0  0  0
 18 14  2  0  0  0  0
 19 15  2  0  0  0  0
 21 22  2  0  0  0  0
 21 19  1  0  0  0  0
 22 17  1  0  0  0  0
 23 24  1  0  0  0  0
 24 19  1  0  0  0  0
 25 26  1  0  0  0  0
 26 33  1  6  0  0  0
 26 27  1  0  0  0  0
 27 28  1  0  0  0  0
 29 28  1  0  0  0  0
 29 30  2  0  0  0  0
 32 31  1  0  0  0  0
 32 29  1  0  0  0  0
 33 36  1  0  0  0  0
 34 36  2  0  0  0  0
 36 35  1  0  0  0  0
 37 36  1  0  0  0  0
M  END
>  <MODEL>
4

>  <REMARK>
 VINA RESULT:      -6.5      2.668      7.694
  Name = 
  10 active torsions:
  status: ('A' for Active; 'I' for Inactive)
    1  A    between atoms: C_1  and  C_3
    2  A    between atoms: C_7  and  C_29
    3  A    between atoms: C_7  and  C_33
    4  A    between atoms: C_16  and  N_19
    5  A    between atoms: C_16  and  N_30
    6  A    between atoms: C_16  and  O_36
    7  A    between atoms: N_19  and  C_29
    8  A    between atoms: C_24  and  O_34
    9  A    between atoms: P_26  and  O_36
   10  A    between atoms: N_30  and  N_31
                            x       y       z     vdW  Elec       q    Type
                         _______ _______ _______ _____ _____    ______ ____

>  <TORSDO>
F 10

$$$$
=
 OpenBabel11042418343D

 37 40  0  0  1  0  0  0  0  0999 V2000
  193.6710  175.7560  144.8830 C   0  0  1  0  0  3  0  0  0  0  0  0
  191.2530  175.6290  144.3450 C   0  0  0  0  0  0  0  0  0  0  0  0
  191.7500  177.3460  148.7400 O   0  0  0  0  0  0  0  0  0  0  0  0
  191.2260  176.8810  147.6930 C   0  0  0  0  0  0  0  0  0  0  0  0
  189.8970  176.7240  147.5190 N   0  0  0  0  0  2  0  0  0  0  0  0
  188.4210  175.9240  145.7340 C   0  0  0  0  0  1  0  0  0  0  0  0
  189.7250  176.2200  146.3030 N   0  0  0  0  0  0  0  0  0  0  0  0
  192.5090  175.5520  143.9860 N   0  0  0  0  0  0  0  0  0  0  0  0
  191.9010  176.4670  146.5670 C   0  0  0  0  0  0  0  0  0  0  0  0
  190.9270  176.0560  145.7120 C   0  0  0  0  0  0  0  0  0  0  0  0
  193.3090  176.4520  146.1800 C   0  0  0  0  0  0  0  0  0  0  0  0
  190.2170  175.3620  143.3990 N   0  0  0  0  0  2  0  0  0  0  0  0
  194.2230  176.9460  146.9490 N   0  0  0  0  0  2  0  0  0  0  0  0
  194.3070  174.4370  145.1750 C   0  0  0  0  0  0  0  0  0  0  0  0
  196.8690  170.9140  145.9510 C   0  0  0  0  0  3  0  0  0  0  0  0
  195.6160  174.2650  145.2720 O   0  0  0  0  0  0  0  0  0  0  0  0
  195.7860  172.9950  145.5160 C   0  0  0  0  0  0  0  0  0  0  0  0
  193.5930  173.2950  145.3500 N   0  0  0  0  0  0  0  0  0  0  0  0
  195.6010  170.2750  146.0040 C   0  0  0  0  0  0  0  0  0  0  0  0
  196.9730  172.2950  145.7030 C   0  0  0  0  0  3  0  0  0  0  0  0
  194.4270  171.0290  145.8090 C   0  0  0  0  0  3  0  0  0  0  0  0
  194.5660  172.3920  145.5660 C   0  0  0  0  0  0  0  0  0  0  0  0
  194.7290  168.3760  147.3280 C   0  0  0  0  0  1  0  0  0  0  0  0
  195.4850  168.9040  146.2450 O   0  0  0  0  0  0  0  0  0  0  0  0
  190.5160  175.0760  142.0610 N   0  0  0  0  0  2  0  0  0  0  0  0
  189.2570  174.7270  141.4120 C   0  0  1  0  0  3  0  0  0  0  0  0
  189.2450  173.3270  141.0120 N   0  0  0  0  0  2  0  0  0  0  0  0
  188.8040  172.5590  142.1650 C   0  0  0  0  0  2  0  0  0  0  0  0
  189.8890  171.6320  142.6060 C   0  0  0  0  0  0  0  0  0  0  0  0
  190.1980  170.6740  141.9150 O   0  0  0  0  0  0  0  0  0  0  0  0
  189.6260  172.2530  144.9210 N   0  0  0  0  0  1  0  0  0  0  0  0
  190.5910  171.8790  143.9000 C   0  0  0  0  0  2  0  0  0  0  0  0
  188.1230  175.0640  142.1920 O   0  0  0  0  0  0  0  0  0  0  0  0
  185.9330  176.7650  142.4430 O   0  0  0  0  0  1  0  0  0  0  0  0
  187.1300  176.4850  139.9700 O   0  0  0  0  0  0  0  0  0  0  0  0
  187.4020  176.5180  141.6410 P   0  0  0  0  0  0  0  0  0  0  0  0
  188.3270  177.6700  141.9600 O   0  0  0  0  0  1  0  0  0  0  0  0
  1 14  1  1  0  0  0
  1 11  1  0  0  0  0
  2 10  1  0  0  0  0
  4  3  2  0  0  0  0
  5  4  1  0  0  0  0
  6  7  1  0  0  0  0
  7  5  1  0  0  0  0
  8  2  2  0  0  0  0
  8  1  1  0  0  0  0
  9  4  1  0  0  0  0
 10  7  1  0  0  0  0
 10  9  2  0  0  0  0
 11  9  1  0  0  0  0
 11 13  2  0  0  0  0
 12  2  1  0  0  0  0
 14 16  1  0  0  0  0
 14 18  2  0  0  0  0
 15 19  1  0  0  0  0
 16 17  1  0  0  0  0
 17 22  2  0  0  0  0
 17 20  1  0  0  0  0
 18 22  1  0  0  0  0
 19 24  1  0  0  0  0
 20 15  2  0  0  0  0
 21 19  2  0  0  0  0
 22 21  1  0  0  0  0
 24 23  1  0  0  0  0
 25 12  1  0  0  0  0
 26 27  1  1  0  0  0
 26 25  1  0  0  0  0
 26 33  1  0  0  0  0
 27 28  1  0  0  0  0
 28 29  1  0  0  0  0
 29 32  1  0  0  0  0
 30 29  2  0  0  0  0
 32 31  1  0  0  0  0
 35 36  2  0  0  0  0
 36 37  1  0  0  0  0
 36 33  1  0  0  0  0
 36 34  1  0  0  0  0
M  END
>  <MODEL>
5

>  <REMARK>
 VINA RESULT:      -6.3      3.389      7.098
  Name = 
  10 active torsions:
  status: ('A' for Active; 'I' for Inactive)
    1  A    between atoms: C_1  and  C_3
    2  A    between atoms: C_7  and  C_29
    3  A    between atoms: C_7  and  C_33
    4  A    between atoms: C_16  and  N_19
    5  A    between atoms: C_16  and  N_30
    6  A    between atoms: C_16  and  O_36
    7  A    between atoms: N_19  and  C_29
    8  A    between atoms: C_24  and  O_34
    9  A    between atoms: P_26  and  O_36
   10  A    between atoms: N_30  and  N_31
                            x       y       z     vdW  Elec       q    Type
                         _______ _______ _______ _____ _____    ______ ____

>  <TORSDO>
F 10

$$$$
=
 OpenBabel11042418343D

 37 40  0  0  1  0  0  0  0  0999 V2000
  189.4430  176.4700  142.0670 C   0  0  1  0  0  3  0  0  0  0  0  0
  190.9020  174.9980  143.4310 C   0  0  0  0  0  0  0  0  0  0  0  0
  187.9690  172.2870  140.8710 O   0  0  0  0  0  0  0  0  0  0  0  0
  188.8260  172.6430  141.7210 C   0  0  0  0  0  0  0  0  0  0  0  0
  189.4950  171.7870  142.5230 N   0  0  0  0  0  2  0  0  0  0  0  0
  191.2170  171.9570  144.2580 C   0  0  0  0  0  1  0  0  0  0  0  0
  190.3100  172.5200  143.2730 N   0  0  0  0  0  0  0  0  0  0  0  0
  190.5830  176.1810  142.9690 N   0  0  0  0  0  0  0  0  0  0  0  0
  189.2270  173.9360  141.9750 C   0  0  0  0  0  0  0  0  0  0  0  0
  190.1600  173.8230  142.9550 C   0  0  0  0  0  0  0  0  0  0  0  0
  188.8880  175.2310  141.3920 C   0  0  0  0  0  0  0  0  0  0  0  0
  191.9960  174.8520  144.3370 N   0  0  0  0  0  2  0  0  0  0  0  0
  188.0840  175.3270  140.3840 N   0  0  0  0  0  2  0  0  0  0  0  0
  188.3640  177.1530  142.8390 C   0  0  0  0  0  0  0  0  0  0  0  0
  185.0680  179.6100  144.4780 C   0  0  0  0  0  3  0  0  0  0  0  0
  187.5870  178.0950  142.3280 O   0  0  0  0  0  0  0  0  0  0  0  0
  186.7900  178.4570  143.2940 C   0  0  0  0  0  0  0  0  0  0  0  0
  188.0990  176.8780  144.1430 N   0  0  0  0  0  0  0  0  0  0  0  0
  185.3730  178.8530  145.6410 C   0  0  0  0  0  0  0  0  0  0  0  0
  185.7820  179.4160  143.2810 C   0  0  0  0  0  3  0  0  0  0  0  0
  186.4020  177.8920  145.6030 C   0  0  0  0  0  3  0  0  0  0  0  0
  187.0890  177.7250  144.4040 C   0  0  0  0  0  0  0  0  0  0  0  0
  184.9520  178.2910  148.0130 C   0  0  0  0  0  1  0  0  0  0  0  0
  184.6740  179.0400  146.8360 O   0  0  0  0  0  0  0  0  0  0  0  0
  192.7880  175.9490  144.6990 N   0  0  0  0  0  2  0  0  0  0  0  0
  193.2890  175.6830  146.0430 C   0  0  1  0  0  3  0  0  0  0  0  0
  194.6790  175.2520  146.0080 N   0  0  0  0  0  2  0  0  0  0  0  0
  195.3480  176.0560  144.9980 C   0  0  0  0  0  2  0  0  0  0  0  0
  196.3520  175.2270  144.2670 C   0  0  0  0  0  0  0  0  0  0  0  0
  197.1500  174.5410  144.8860 O   0  0  0  0  0  0  0  0  0  0  0  0
  195.2960  176.0710  142.2710 N   0  0  0  0  0  1  0  0  0  0  0  0
  196.3800  175.2430  142.7750 C   0  0  0  0  0  2  0  0  0  0  0  0
  193.0940  176.7700  146.9300 O   0  0  0  0  0  0  0  0  0  0  0  0
  190.3590  177.2280  146.6790 O   0  0  0  0  0  0  0  0  0  0  0  0
  191.5490  177.5640  149.1480 O   0  0  0  0  0  1  0  0  0  0  0  0
  191.5740  176.6650  147.7140 P   0  0  0  0  0  0  0  0  0  0  0  0
  191.2950  175.2160  148.0440 O   0  0  0  0  0  1  0  0  0  0  0  0
  1 14  1  1  0  0  0
  1  8  1  0  0  0  0
  2 12  1  0  0  0  0
  3  4  2  0  0  0  0
  4  9  1  0  0  0  0
  4  5  1  0  0  0  0
  5  7  1  0  0  0  0
  7  6  1  0  0  0  0
  8  2  2  0  0  0  0
  9 10  2  0  0  0  0
 10  7  1  0  0  0  0
 10  2  1  0  0  0  0
 11  9  1  0  0  0  0
 11  1  1  0  0  0  0
 12 25  1  0  0  0  0
 13 11  2  0  0  0  0
 14 18  2  0  0  0  0
 15 19  1  0  0  0  0
 16 14  1  0  0  0  0
 16 17  1  0  0  0  0
 17 22  2  0  0  0  0
 18 22  1  0  0  0  0
 19 24  1  0  0  0  0
 20 17  1  0  0  0  0
 20 15  2  0  0  0  0
 21 19  2  0  0  0  0
 22 21  1  0  0  0  0
 24 23  1  0  0  0  0
 26 25  1  6  0  0  0
 26 33  1  0  0  0  0
 27 26  1  0  0  0  0
 28 27  1  0  0  0  0
 29 30  2  0  0  0  0
 29 28  1  0  0  0  0
 31 32  1  0  0  0  0
 32 29  1  0  0  0  0
 33 36  1  0  0  0  0
 34 36  2  0  0  0  0
 36 37  1  0  0  0  0
 36 35  1  0  0  0  0
M  END
>  <MODEL>
6

>  <REMARK>
 VINA RESULT:      -6.3      2.644      6.436
  Name = 
  10 active torsions:
  status: ('A' for Active; 'I' for Inactive)
    1  A    between atoms: C_1  and  C_3
    2  A    between atoms: C_7  and  C_29
    3  A    between atoms: C_7  and  C_33
    4  A    between atoms: C_16  and  N_19
    5  A    between atoms: C_16  and  N_30
    6  A    between atoms: C_16  and  O_36
    7  A    between atoms: N_19  and  C_29
    8  A    between atoms: C_24  and  O_34
    9  A    between atoms: P_26  and  O_36
   10  A    between atoms: N_30  and  N_31
                            x       y       z     vdW  Elec       q    Type
                         _______ _______ _______ _____ _____    ______ ____

>  <TORSDO>
F 10

$$$$
=
 OpenBabel11042418343D

 37 40  0  0  1  0  0  0  0  0999 V2000
  190.0670  172.3730  143.2950 C   0  0  1  0  0  3  0  0  0  0  0  0
  188.6430  173.6900  141.7480 C   0  0  0  0  0  0  0  0  0  0  0  0
  191.1100  170.5190  139.2240 O   0  0  0  0  0  0  0  0  0  0  0  0
  190.3670  171.4930  139.5170 C   0  0  0  0  0  0  0  0  0  0  0  0
  189.7180  172.2480  138.6050 N   0  0  0  0  0  2  0  0  0  0  0  0
  188.1890  174.1620  138.6490 C   0  0  0  0  0  1  0  0  0  0  0  0
  189.0350  173.1640  139.2810 N   0  0  0  0  0  0  0  0  0  0  0  0
  189.0020  173.3470  142.9600 N   0  0  0  0  0  0  0  0  0  0  0  0
  190.0880  171.9450  140.7870 C   0  0  0  0  0  0  0  0  0  0  0  0
  189.2480  172.9970  140.6030 C   0  0  0  0  0  0  0  0  0  0  0  0
  190.4620  171.4950  142.1250 C   0  0  0  0  0  0  0  0  0  0  0  0
  187.6340  174.6810  141.5500 N   0  0  0  0  0  2  0  0  0  0  0  0
  191.1690  170.4280  142.3030 N   0  0  0  0  0  2  0  0  0  0  0  0
  191.2630  173.1060  143.8060 C   0  0  0  0  0  0  0  0  0  0  0  0
  194.3800  175.3830  145.9690 C   0  0  0  0  0  3  0  0  0  0  0  0
  191.3440  173.6050  145.0290 O   0  0  0  0  0  0  0  0  0  0  0  0
  192.5130  174.1780  145.0990 C   0  0  0  0  0  0  0  0  0  0  0  0
  192.3670  173.3380  143.0490 N   0  0  0  0  0  0  0  0  0  0  0  0
  195.0490  175.2290  144.7250 C   0  0  0  0  0  0  0  0  0  0  0  0
  193.0920  174.8530  146.1680 C   0  0  0  0  0  3  0  0  0  0  0  0
  194.4210  174.5350  143.6720 C   0  0  0  0  0  3  0  0  0  0  0  0
  193.1470  174.0240  143.9020 C   0  0  0  0  0  0  0  0  0  0  0  0
  196.6250  176.6360  143.4380 C   0  0  0  0  0  1  0  0  0  0  0  0
  196.3260  175.7550  144.5140 O   0  0  0  0  0  0  0  0  0  0  0  0
  186.9630  175.2580  142.6360 N   0  0  0  0  0  2  0  0  0  0  0  0
  187.0550  176.7040  142.4690 C   0  0  1  0  0  3  0  0  0  0  0  0
  188.1720  177.0610  141.6070 N   0  0  0  0  0  2  0  0  0  0  0  0
  189.0590  177.9070  142.3880 C   0  0  0  0  0  2  0  0  0  0  0  0
  190.0930  177.0720  143.0690 C   0  0  0  0  0  0  0  0  0  0  0  0
  190.7750  176.2910  142.4240 O   0  0  0  0  0  0  0  0  0  0  0  0
  189.0330  177.5640  145.1770 N   0  0  0  0  0  1  0  0  0  0  0  0
  190.2870  177.1930  144.5440 C   0  0  0  0  0  2  0  0  0  0  0  0
  185.8410  177.2860  142.0300 O   0  0  0  0  0  0  0  0  0  0  0  0
  185.2130  177.3360  144.7430 O   0  0  0  0  0  1  0  0  0  0  0  0
  183.4670  178.4980  142.9460 O   0  0  0  0  0  0  0  0  0  0  0  0
  185.0970  178.1870  143.2840 P   0  0  0  0  0  0  0  0  0  0  0  0
  185.8220  179.5050  143.4340 O   0  0  0  0  0  1  0  0  0  0  0  0
  1 14  1  6  0  0  0
  2  8  2  0  0  0  0
  3  4  2  0  0  0  0
  4  9  1  0  0  0  0
  5  7  1  0  0  0  0
  5  4  1  0  0  0  0
  6  7  1  0  0  0  0
  7 10  1  0  0  0  0
  8  1  1  0  0  0  0
  9 11  1  0  0  0  0
 10  9  2  0  0  0  0
 10  2  1  0  0  0  0
 11 13  2  0  0  0  0
 11  1  1  0  0  0  0
 12  2  1  0  0  0  0
 12 25  1  0  0  0  0
 14 16  1  0  0  0  0
 15 20  1  0  0  0  0
 16 17  1  0  0  0  0
 17 20  2  0  0  0  0
 18 14  2  0  0  0  0
 18 22  1  0  0  0  0
 19 15  2  0  0  0  0
 21 22  2  0  0  0  0
 21 19  1  0  0  0  0
 22 17  1  0  0  0  0
 23 24  1  0  0  0  0
 24 19  1  0  0  0  0
 26 27  1  6  0  0  0
 26 25  1  0  0  0  0
 27 28  1  0  0  0  0
 28 29  1  0  0  0  0
 29 32  1  0  0  0  0
 30 29  2  0  0  0  0
 32 31  1  0  0  0  0
 33 26  1  0  0  0  0
 33 36  1  0  0  0  0
 35 36  2  0  0  0  0
 36 37  1  0  0  0  0
 36 34  1  0  0  0  0
M  END
>  <MODEL>
7

>  <REMARK>
 VINA RESULT:      -6.3      3.053      7.090
  Name = 
  10 active torsions:
  status: ('A' for Active; 'I' for Inactive)
    1  A    between atoms: C_1  and  C_3
    2  A    between atoms: C_7  and  C_29
    3  A    between atoms: C_7  and  C_33
    4  A    between atoms: C_16  and  N_19
    5  A    between atoms: C_16  and  N_30
    6  A    between atoms: C_16  and  O_36
    7  A    between atoms: N_19  and  C_29
    8  A    between atoms: C_24  and  O_34
    9  A    between atoms: P_26  and  O_36
   10  A    between atoms: N_30  and  N_31
                            x       y       z     vdW  Elec       q    Type
                         _______ _______ _______ _____ _____    ______ ____

>  <TORSDO>
F 10

$$$$
=
 OpenBabel11042418343D

 37 40  0  0  1  0  0  0  0  0999 V2000
  192.4080  175.8730  142.5660 C   0  0  1  0  0  3  0  0  0  0  0  0
  190.5930  176.8520  143.9440 C   0  0  0  0  0  0  0  0  0  0  0  0
  194.1910  175.6510  146.7940 O   0  0  0  0  0  0  0  0  0  0  0  0
  193.0550  176.0250  146.4000 C   0  0  0  0  0  0  0  0  0  0  0  0
  192.0660  176.4300  147.2250 N   0  0  0  0  0  2  0  0  0  0  0  0
  189.7710  177.2520  146.9770 C   0  0  0  0  0  1  0  0  0  0  0  0
  191.0320  176.7510  146.4570 N   0  0  0  0  0  0  0  0  0  0  0  0
  191.1220  176.5770  142.7790 N   0  0  0  0  0  0  0  0  0  0  0  0
  192.6330  176.0920  145.0920 C   0  0  0  0  0  0  0  0  0  0  0  0
  191.3560  176.5510  145.1630 C   0  0  0  0  0  0  0  0  0  0  0  0
  193.2780  175.8310  143.8070 C   0  0  0  0  0  0  0  0  0  0  0  0
  189.3190  177.4930  144.0220 N   0  0  0  0  0  2  0  0  0  0  0  0
  194.5250  175.5020  143.7350 N   0  0  0  0  0  2  0  0  0  0  0  0
  192.1390  174.4840  142.0890 C   0  0  0  0  0  0  0  0  0  0  0  0
  191.3510  170.1800  141.4340 C   0  0  0  0  0  3  0  0  0  0  0  0
  191.9420  173.4590  142.9020 O   0  0  0  0  0  0  0  0  0  0  0  0
  191.7570  172.4260  142.1290 C   0  0  0  0  0  0  0  0  0  0  0  0
  192.0900  174.1520  140.7720 N   0  0  0  0  0  0  0  0  0  0  0  0
  191.4410  170.5920  140.0770 C   0  0  0  0  0  0  0  0  0  0  0  0
  191.5110  171.1040  142.4830 C   0  0  0  0  0  3  0  0  0  0  0  0
  191.6910  171.9440  139.7700 C   0  0  0  0  0  3  0  0  0  0  0  0
  191.8440  172.8310  140.8310 C   0  0  0  0  0  0  0  0  0  0  0  0
  190.1380  169.6620  138.1910 C   0  0  0  0  0  1  0  0  0  0  0  0
  191.2880  169.6820  139.0270 O   0  0  0  0  0  0  0  0  0  0  0  0
  188.6400  177.8960  142.8650 N   0  0  0  0  0  2  0  0  0  0  0  0
  187.2590  177.4490  143.0090 C   0  0  1  0  0  3  0  0  0  0  0  0
  187.1020  176.0770  142.5460 N   0  0  0  0  0  2  0  0  0  0  0  0
  187.7550  175.9880  141.2510 C   0  0  0  0  0  2  0  0  0  0  0  0
  188.3590  174.6340  141.0750 C   0  0  0  0  0  0  0  0  0  0  0  0
  188.6830  173.9740  142.0490 O   0  0  0  0  0  0  0  0  0  0  0  0
  188.1860  172.6890  139.6600 N   0  0  0  0  0  1  0  0  0  0  0  0
  188.5700  174.0910  139.7010 C   0  0  0  0  0  2  0  0  0  0  0  0
  186.7550  177.6250  144.3210 O   0  0  0  0  0  0  0  0  0  0  0  0
  184.3580  178.0360  142.9660 O   0  0  0  0  0  0  0  0  0  0  0  0
  185.5470  180.1690  144.2550 O   0  0  0  0  0  1  0  0  0  0  0  0
  185.2810  178.4980  144.3070 P   0  0  0  0  0  0  0  0  0  0  0  0
  184.5080  178.1680  145.5630 O   0  0  0  0  0  1  0  0  0  0  0  0
  1 14  1  1  0  0  0
  1  8  1  0  0  0  0
  1 11  1  0  0  0  0
  2 12  1  0  0  0  0
  2 10  1  0  0  0  0
  4  3  2  0  0  0  0
  4  5  1  0  0  0  0
  7  6  1  0  0  0  0
  7  5  1  0  0  0  0
  8  2  2  0  0  0  0
  9 10  2  0  0  0  0
  9  4  1  0  0  0  0
 10  7  1  0  0  0  0
 11  9  1  0  0  0  0
 13 11  2  0  0  0  0
 14 16  1  0  0  0  0
 15 20  1  0  0  0  0
 17 20  2  0  0  0  0
 17 16  1  0  0  0  0
 18 22  1  0  0  0  0
 18 14  2  0  0  0  0
 19 15  2  0  0  0  0
 21 19  1  0  0  0  0
 21 22  2  0  0  0  0
 22 17  1  0  0  0  0
 23 24  1  0  0  0  0
 24 19  1  0  0  0  0
 25 26  1  0  0  0  0
 25 12  1  0  0  0  0
 26 27  1  1  0  0  0
 26 33  1  0  0  0  0
 28 27  1  0  0  0  0
 29 28  1  0  0  0  0
 29 30  2  0  0  0  0
 31 32  1  0  0  0  0
 32 29  1  0  0  0  0
 34 36  2  0  0  0  0
 35 36  1  0  0  0  0
 36 33  1  0  0  0  0
 36 37  1  0  0  0  0
M  END
>  <MODEL>
8

>  <REMARK>
 VINA RESULT:      -6.3      2.834      6.856
  Name = 
  10 active torsions:
  status: ('A' for Active; 'I' for Inactive)
    1  A    between atoms: C_1  and  C_3
    2  A    between atoms: C_7  and  C_29
    3  A    between atoms: C_7  and  C_33
    4  A    between atoms: C_16  and  N_19
    5  A    between atoms: C_16  and  N_30
    6  A    between atoms: C_16  and  O_36
    7  A    between atoms: N_19  and  C_29
    8  A    between atoms: C_24  and  O_34
    9  A    between atoms: P_26  and  O_36
   10  A    between atoms: N_30  and  N_31
                            x       y       z     vdW  Elec       q    Type
                         _______ _______ _______ _____ _____    ______ ____

>  <TORSDO>
F 10

$$$$
=
 OpenBabel11042418343D

 37 40  0  0  1  0  0  0  0  0999 V2000
  192.4710  176.1730  142.6520 C   0  0  1  0  0  3  0  0  0  0  0  0
  191.1250  176.8850  144.6090 C   0  0  0  0  0  0  0  0  0  0  0  0
  195.3390  175.3340  146.1400 O   0  0  0  0  0  0  0  0  0  0  0  0
  194.1470  175.7400  146.1370 C   0  0  0  0  0  0  0  0  0  0  0  0
  193.4310  175.9890  147.2540 N   0  0  0  0  0  2  0  0  0  0  0  0
  191.1740  176.7890  147.7750 C   0  0  0  0  0  1  0  0  0  0  0  0
  192.2330  176.4030  146.8580 N   0  0  0  0  0  0  0  0  0  0  0  0
  191.3080  176.8060  143.3160 N   0  0  0  0  0  0  0  0  0  0  0  0
  193.3840  176.0000  145.0210 C   0  0  0  0  0  0  0  0  0  0  0  0
  192.1860  176.4150  145.5100 C   0  0  0  0  0  0  0  0  0  0  0  0
  193.6470  175.9570  143.5850 C   0  0  0  0  0  0  0  0  0  0  0  0
  189.9350  177.4770  145.1320 N   0  0  0  0  0  2  0  0  0  0  0  0
  194.8190  175.6710  143.1230 N   0  0  0  0  0  2  0  0  0  0  0  0
  192.0510  174.8700  142.0560 C   0  0  0  0  0  0  0  0  0  0  0  0
  190.4690  170.8780  140.9870 C   0  0  0  0  0  3  0  0  0  0  0  0
  191.2880  173.9920  142.6880 O   0  0  0  0  0  0  0  0  0  0  0  0
  191.1520  172.9880  141.8670 C   0  0  0  0  0  0  0  0  0  0  0  0
  192.4330  174.4660  140.8160 N   0  0  0  0  0  0  0  0  0  0  0  0
  191.1870  171.1540  139.7920 C   0  0  0  0  0  0  0  0  0  0  0  0
  190.4450  171.8040  142.0460 C   0  0  0  0  0  3  0  0  0  0  0  0
  191.8860  172.3690  139.6580 C   0  0  0  0  0  3  0  0  0  0  0  0
  191.8430  173.2620  140.7250 C   0  0  0  0  0  0  0  0  0  0  0  0
  190.0650  169.5420  138.2870 C   0  0  0  0  0  1  0  0  0  0  0  0
  191.2200  170.2400  138.7350 O   0  0  0  0  0  0  0  0  0  0  0  0
  188.9740  178.0400  144.2840 N   0  0  0  0  0  2  0  0  0  0  0  0
  187.7200  177.3420  144.5430 C   0  0  1  0  0  3  0  0  0  0  0  0
  187.6040  176.1500  143.7150 N   0  0  0  0  0  2  0  0  0  0  0  0
  186.3160  176.2210  143.0460 C   0  0  0  0  0  2  0  0  0  0  0  0
  186.3860  177.1760  141.9000 C   0  0  0  0  0  0  0  0  0  0  0  0
  187.2480  177.0480  141.0450 O   0  0  0  0  0  0  0  0  0  0  0  0
  184.3080  178.0650  142.7380 N   0  0  0  0  0  1  0  0  0  0  0  0
  185.4010  178.2930  141.8070 C   0  0  0  0  0  2  0  0  0  0  0  0
  187.5230  177.0530  145.9150 O   0  0  0  0  0  0  0  0  0  0  0  0
  184.8150  176.7950  146.5110 O   0  0  0  0  0  1  0  0  0  0  0  0
  185.7590  179.2290  145.6120 O   0  0  0  0  0  0  0  0  0  0  0  0
  186.1350  177.8530  146.5240 P   0  0  0  0  0  0  0  0  0  0  0  0
  186.4030  178.2750  147.9510 O   0  0  0  0  0  1  0  0  0  0  0  0
  1 14  1  1  0  0  0
  1  8  1  0  0  0  0
  1 11  1  0  0  0  0
  2 12  1  0  0  0  0
  2 10  1  0  0  0  0
  4  3  2  0  0  0  0
  4  5  1  0  0  0  0
  7  5  1  0  0  0  0
  7  6  1  0  0  0  0
  8  2  2  0  0  0  0
  9 10  2  0  0  0  0
  9  4  1  0  0  0  0
 10  7  1  0  0  0  0
 11  9  1  0  0  0  0
 13 11  2  0  0  0  0
 14 16  1  0  0  0  0
 15 20  1  0  0  0  0
 17 20  2  0  0  0  0
 17 16  1  0  0  0  0
 18 14  2  0  0  0  0
 19 15  2  0  0  0  0
 21 19  1  0  0  0  0
 21 22  2  0  0  0  0
 22 18  1  0  0  0  0
 22 17  1  0  0  0  0
 23 24  1  0  0  0  0
 24 19  1  0  0  0  0
 25 26  1  0  0  0  0
 25 12  1  0  0  0  0
 26 27  1  6  0  0  0
 26 33  1  0  0  0  0
 28 27  1  0  0  0  0
 29 28  1  0  0  0  0
 30 29  2  0  0  0  0
 32 29  1  0  0  0  0
 32 31  1  0  0  0  0
 33 36  1  0  0  0  0
 34 36  1  0  0  0  0
 35 36  2  0  0  0  0
 36 37  1  0  0  0  0
M  END
>  <MODEL>
9

>  <REMARK>
 VINA RESULT:      -6.2      2.805      6.848
  Name = 
  10 active torsions:
  status: ('A' for Active; 'I' for Inactive)
    1  A    between atoms: C_1  and  C_3
    2  A    between atoms: C_7  and  C_29
    3  A    between atoms: C_7  and  C_33
    4  A    between atoms: C_16  and  N_19
    5  A    between atoms: C_16  and  N_30
    6  A    between atoms: C_16  and  O_36
    7  A    between atoms: N_19  and  C_29
    8  A    between atoms: C_24  and  O_34
    9  A    between atoms: P_26  and  O_36
   10  A    between atoms: N_30  and  N_31
                            x       y       z     vdW  Elec       q    Type
                         _______ _______ _______ _____ _____    ______ ____

>  <TORSDO>
F 10

$$$$
