=
 OpenBabel11042419013D

 41 46  0  0  1  0  0  0  0  0999 V2000
  188.3360  177.2580  144.6130 C   0  0  0  0  0  0  0  0  0  0  0  0
  190.6180  177.5970  144.0870 C   0  0  0  0  0  3  0  0  0  0  0  0
  190.5360  176.6530  143.0570 C   0  0  0  0  0  0  0  0  0  0  0  0
  188.2360  176.3390  143.6160 N   0  0  0  0  0  0  0  0  0  0  0  0
  189.1720  175.0500  141.8090 N   0  0  0  0  0  0  0  0  0  0  0  0
  189.5250  177.8820  144.8390 N   0  0  0  0  0  0  0  0  0  0  0  0
  189.3060  176.0270  142.8380 C   0  0  0  0  0  0  0  0  0  0  0  0
  189.7220  174.2220  140.6980 C   0  0  2  0  0  3  0  0  0  0  0  0
  188.4000  174.0300  141.0410 C   0  0  0  0  0  2  0  0  0  0  0  0
  185.7320  179.0560  144.1420 C   0  0  0  0  0  2  0  0  0  0  0  0
  183.9490  178.8370  145.5840 N   0  0  0  0  0  0  0  0  0  0  0  0
  187.1600  177.5790  145.4390 C   0  0  0  0  0  0  0  0  0  0  0  0
  186.5950  176.7220  146.2990 C   0  0  0  0  0  3  0  0  0  0  0  0
  185.1870  178.6380  147.6200 N   0  0  0  0  0  2  0  0  0  0  0  0
  186.3270  178.8330  145.3110 C   0  0  2  0  0  3  0  0  0  0  0  0
  184.2700  179.0540  144.3460 C   0  0  0  0  0  3  0  0  0  0  0  0
  185.5440  177.5090  146.7730 N   0  0  0  0  0  0  0  0  0  0  0  0
  185.2040  178.8230  146.2930 C   0  0  2  0  0  0  0  0  0  0  0  0
  191.6430  176.3240  142.2650 O   0  0  0  0  0  0  0  0  0  0  0  0
  194.5030  175.1890  144.3970 C   0  0  0  0  0  2  0  0  0  0  0  0
  195.3430  175.7130  142.2330 C   0  0  0  0  0  2  0  0  0  0  0  0
  193.9380  175.8590  141.6540 C   0  0  0  0  0  2  0  0  0  0  0  0
  193.0540  175.3140  143.9310 C   0  0  0  0  0  2  0  0  0  0  0  0
  192.9750  176.2880  142.7590 C   0  0  0  0  0  3  0  0  0  0  0  0
  195.3420  174.7090  143.2980 N   0  0  0  0  0  0  0  0  0  0  0  0
  197.7680  173.1270  143.2190 C   0  0  0  0  0  1  0  0  0  0  0  0
  197.7500  175.7930  143.5120 O   0  0  0  0  0  0  0  0  0  0  0  0
  196.9390  174.4560  145.3940 O   0  0  0  0  0  0  0  0  0  0  0  0
  196.9660  174.5680  143.8950 S   0  0  0  0  0  0  0  0  0  0  0  0
  190.5940  173.1360  141.2970 C   0  0  0  0  0  2  0  0  0  0  0  0
  189.7440  171.9640  141.7580 C   0  0  0  0  0  2  0  0  0  0  0  0
  190.4750  171.1500  142.6420 O   0  0  0  0  0  0  0  0  0  0  0  0
  190.9920  171.9420  143.6930 C   0  0  1  0  0  3  0  0  0  0  0  0
  189.2750  171.6630  145.3950 O   0  0  0  0  0  1  0  0  0  0  0  0
  189.8990  172.5920  144.5570 C   0  0  1  0  0  3  0  0  0  0  0  0
  190.4210  173.7910  145.3490 C   0  0  0  0  0  2  0  0  0  0  0  0
  189.4690  174.2540  146.4430 C   0  0  0  0  0  2  0  0  0  0  0  0
  190.0010  175.3610  147.1040 O   0  0  0  0  0  1  0  0  0  0  0  0
  191.9920  171.2320  144.4870 N   0  0  0  0  0  2  0  0  0  0  0  0
  194.2640  171.7110  145.1790 C   0  0  0  0  0  1  0  0  0  0  0  0
  193.2960  171.6590  144.0160 C   0  0  0  0  0  2  0  0  0  0  0  0
  1  6  1  0  0  0  0
  1 12  1  0  0  0  0
  2  6  2  0  0  0  0
  3  2  1  0  0  0  0
  4  1  2  0  0  0  0
  5  7  1  0  0  0  0
  7  3  2  0  0  0  0
  7  4  1  0  0  0  0
  8  9  1  0  0  0  0
  8 30  1  1  0  0  0
  8  5  1  0  0  0  0
  9  5  1  0  0  0  0
 10 16  1  0  0  0  0
 12 13  2  0  0  0  0
 13 17  1  0  0  0  0
 15 10  1  6  0  0  0
 15 12  1  0  0  0  0
 15 18  1  0  0  0  0
 16 11  2  0  0  0  0
 17 14  1  0  0  0  0
 18 11  1  6  0  0  0
 18 17  1  0  0  0  0
 18 14  1  0  0  0  0
 19 24  1  0  0  0  0
 19  3  1  0  0  0  0
 21 25  1  0  0  0  0
 22 21  1  0  0  0  0
 22 24  1  0  0  0  0
 23 20  1  0  0  0  0
 24 23  1  0  0  0  0
 25 29  1  0  0  0  0
 25 20  1  0  0  0  0
 26 29  1  0  0  0  0
 27 29  2  0  0  0  0
 29 28  2  0  0  0  0
 30 31  1  0  0  0  0
 31 32  1  0  0  0  0
 33 32  1  6  0  0  0
 33 39  1  0  0  0  0
 33 35  1  0  0  0  0
 35 36  1  0  0  0  0
 35 34  1  1  0  0  0
 36 37  1  0  0  0  0
 37 38  1  0  0  0  0
 41 39  1  0  0  0  0
 41 40  1  0  0  0  0
M  END
>  <MODEL>
1

>  <REMARK>
 VINA RESULT:      -6.6      0.000      0.000
  Name = 
  13 active torsions:
  status: ('A' for Active; 'I' for Inactive)
    1  A    between atoms: O_2  and  C_11
    2  A    between atoms: O_2  and  C_35
    3  A    between atoms: C_3  and  N_21
    4  A    between atoms: C_3  and  O_23
    5  A    between atoms: C_3  and  C_27
    6  A    between atoms: C_5  and  C_6
    7  A    between atoms: C_14  and  C_19
    8  A    between atoms: C_15  and  O_23
    9  A    between atoms: C_15  and  C_37
   10  A    between atoms: C_19  and  C_27
   11  A    between atoms: N_21  and  C_30
   12  A    between atoms: S_34  and  N_40
   13  A    between atoms: C_37  and  C_38
                            x       y       z     vdW  Elec       q    Type
                         _______ _______ _______ _____ _____    ______ ____

>  <TORSDO>
F 13

$$$$
=
 OpenBabel11042419013D

 41 46  0  0  1  0  0  0  0  0999 V2000
  187.2100  176.4880  143.2300 C   0  0  0  0  0  0  0  0  0  0  0  0
  187.8970  175.7410  141.0920 C   0  0  0  0  0  3  0  0  0  0  0  0
  188.6870  174.7460  141.6770 C   0  0  0  0  0  0  0  0  0  0  0  0
  187.9710  175.5250  143.8170 N   0  0  0  0  0  0  0  0  0  0  0  0
  189.5020  173.6690  143.7190 N   0  0  0  0  0  0  0  0  0  0  0  0
  187.1770  176.5860  141.8730 N   0  0  0  0  0  0  0  0  0  0  0  0
  188.7050  174.6570  143.0720 C   0  0  0  0  0  0  0  0  0  0  0  0
  190.4640  172.5300  143.6960 C   0  0  2  0  0  3  0  0  0  0  0  0
  190.0630  173.0010  144.9290 C   0  0  0  0  0  2  0  0  0  0  0  0
  186.7760  176.7950  146.3840 C   0  0  0  0  0  2  0  0  0  0  0  0
  185.8140  178.7250  147.1950 N   0  0  0  0  0  0  0  0  0  0  0  0
  186.4230  177.4130  144.0610 C   0  0  0  0  0  0  0  0  0  0  0  0
  186.2190  178.7020  143.7570 C   0  0  0  0  0  3  0  0  0  0  0  0
  184.1530  179.0110  145.4990 N   0  0  0  0  0  2  0  0  0  0  0  0
  185.8890  177.1000  145.4400 C   0  0  2  0  0  3  0  0  0  0  0  0
  186.7010  177.8140  147.4500 C   0  0  0  0  0  3  0  0  0  0  0  0
  185.4580  179.0950  144.8580 N   0  0  0  0  0  0  0  0  0  0  0  0
  185.1520  178.2700  145.9980 C   0  0  2  0  0  0  0  0  0  0  0  0
  189.4520  173.8600  140.9080 O   0  0  0  0  0  0  0  0  0  0  0  0
  191.0720  173.5180  137.5500 C   0  0  0  0  0  2  0  0  0  0  0  0
  188.7430  173.0950  137.3060 C   0  0  0  0  0  2  0  0  0  0  0  0
  188.5240  173.0710  138.8160 C   0  0  0  0  0  2  0  0  0  0  0  0
  190.9730  173.5230  139.0740 C   0  0  0  0  0  2  0  0  0  0  0  0
  189.5710  173.9540  139.4940 C   0  0  0  0  0  3  0  0  0  0  0  0
  190.0830  172.5980  136.9880 N   0  0  0  0  0  0  0  0  0  0  0  0
  191.9790  172.7350  134.8010 C   0  0  0  0  0  1  0  0  0  0  0  0
  189.6770  171.3630  134.6790 O   0  0  0  0  0  0  0  0  0  0  0  0
  189.5240  173.8050  134.6990 O   0  0  0  0  0  0  0  0  0  0  0  0
  190.2610  172.6210  135.2610 S   0  0  0  0  0  0  0  0  0  0  0  0
  191.8350  173.0690  143.3370 C   0  0  0  0  0  2  0  0  0  0  0  0
  192.6050  173.4450  144.5910 C   0  0  0  0  0  2  0  0  0  0  0  0
  193.2780  174.6660  144.4040 O   0  0  0  0  0  0  0  0  0  0  0  0
  192.6020  175.6890  145.1100 C   0  0  1  0  0  3  0  0  0  0  0  0
  193.6770  176.8340  146.9690 O   0  0  0  0  0  1  0  0  0  0  0  0
  192.9300  175.7080  146.6120 C   0  0  1  0  0  3  0  0  0  0  0  0
  191.6800  175.5720  147.4810 C   0  0  0  0  0  2  0  0  0  0  0  0
  191.2620  176.8760  148.1470 C   0  0  0  0  0  2  0  0  0  0  0  0
  190.1440  177.4050  147.5040 O   0  0  0  0  0  1  0  0  0  0  0  0
  192.7590  176.9990  144.4810 N   0  0  0  0  0  2  0  0  0  0  0  0
  190.5900  177.9970  144.0730 C   0  0  0  0  0  1  0  0  0  0  0  0
  191.6960  177.1350  143.5030 C   0  0  0  0  0  2  0  0  0  0  0  0
  1  4  2  0  0  0  0
  1 12  1  0  0  0  0
  2  3  1  0  0  0  0
  2  6  2  0  0  0  0
  3  7  2  0  0  0  0
  5  9  1  0  0  0  0
  6  1  1  0  0  0  0
  7  5  1  0  0  0  0
  7  4  1  0  0  0  0
  8 30  1  1  0  0  0
  8  5  1  0  0  0  0
  8  9  1  0  0  0  0
 10 16  1  0  0  0  0
 11 16  2  0  0  0  0
 12 15  1  0  0  0  0
 13 12  2  0  0  0  0
 13 17  1  0  0  0  0
 15 18  1  0  0  0  0
 15 10  1  1  0  0  0
 17 14  1  0  0  0  0
 17 18  1  0  0  0  0
 18 14  1  1  0  0  0
 18 11  1  0  0  0  0
 19  3  1  0  0  0  0
 20 23  1  0  0  0  0
 21 22  1  0  0  0  0
 22 24  1  0  0  0  0
 23 24  1  0  0  0  0
 24 19  1  0  0  0  0
 25 21  1  0  0  0  0
 25 20  1  0  0  0  0
 26 29  1  0  0  0  0
 27 29  2  0  0  0  0
 28 29  2  0  0  0  0
 29 25  1  0  0  0  0
 30 31  1  0  0  0  0
 32 31  1  0  0  0  0
 33 32  1  6  0  0  0
 33 35  1  0  0  0  0
 35 34  1  1  0  0  0
 35 36  1  0  0  0  0
 36 37  1  0  0  0  0
 38 37  1  0  0  0  0
 39 33  1  0  0  0  0
 41 40  1  0  0  0  0
 41 39  1  0  0  0  0
M  END
>  <MODEL>
2

>  <REMARK>
 VINA RESULT:      -6.4      3.454      5.678
  Name = 
  13 active torsions:
  status: ('A' for Active; 'I' for Inactive)
    1  A    between atoms: O_2  and  C_11
    2  A    between atoms: O_2  and  C_35
    3  A    between atoms: C_3  and  N_21
    4  A    between atoms: C_3  and  O_23
    5  A    between atoms: C_3  and  C_27
    6  A    between atoms: C_5  and  C_6
    7  A    between atoms: C_14  and  C_19
    8  A    between atoms: C_15  and  O_23
    9  A    between atoms: C_15  and  C_37
   10  A    between atoms: C_19  and  C_27
   11  A    between atoms: N_21  and  C_30
   12  A    between atoms: S_34  and  N_40
   13  A    between atoms: C_37  and  C_38
                            x       y       z     vdW  Elec       q    Type
                         _______ _______ _______ _____ _____    ______ ____

>  <TORSDO>
F 13

$$$$
=
 OpenBabel11042419013D

 41 46  0  0  1  0  0  0  0  0999 V2000
  187.8350  176.5590  145.1360 C   0  0  0  0  0  0  0  0  0  0  0  0
  189.1630  175.7080  143.3720 C   0  0  0  0  0  3  0  0  0  0  0  0
  190.2150  175.4630  144.2620 C   0  0  0  0  0  0  0  0  0  0  0  0
  188.8460  176.3270  146.0160 N   0  0  0  0  0  0  0  0  0  0  0  0
  191.0680  175.5700  146.5530 N   0  0  0  0  0  0  0  0  0  0  0  0
  188.0010  176.2450  143.8220 N   0  0  0  0  0  0  0  0  0  0  0  0
  190.0250  175.7880  145.6070 C   0  0  0  0  0  0  0  0  0  0  0  0
  192.4440  175.1270  146.9180 C   0  0  2  0  0  3  0  0  0  0  0  0
  191.6560  175.6490  147.9220 C   0  0  0  0  0  2  0  0  0  0  0  0
  186.0070  178.9800  144.1200 C   0  0  0  0  0  2  0  0  0  0  0  0
  183.8610  179.1750  144.9340 N   0  0  0  0  0  0  0  0  0  0  0  0
  186.5680  177.1420  145.6070 C   0  0  0  0  0  0  0  0  0  0  0  0
  185.5770  176.4290  146.1580 C   0  0  0  0  0  3  0  0  0  0  0  0
  184.3120  178.5940  147.2100 N   0  0  0  0  0  2  0  0  0  0  0  0
  186.1340  178.5720  145.3810 C   0  0  2  0  0  3  0  0  0  0  0  0
  184.5980  179.3460  143.8810 C   0  0  0  0  0  3  0  0  0  0  0  0
  184.6440  177.4420  146.3850 N   0  0  0  0  0  0  0  0  0  0  0  0
  184.7890  178.8150  145.9770 C   0  0  2  0  0  0  0  0  0  0  0  0
  191.4330  174.9190  143.8360 O   0  0  0  0  0  0  0  0  0  0  0  0
  192.8310  172.1710  141.7120 C   0  0  0  0  0  2  0  0  0  0  0  0
  192.2050  171.2490  143.8150 C   0  0  0  0  0  2  0  0  0  0  0  0
  191.9590  172.6290  144.4180 C   0  0  0  0  0  2  0  0  0  0  0  0
  192.6110  173.5990  142.2050 C   0  0  0  0  0  2  0  0  0  0  0  0
  191.5600  173.6040  143.3120 C   0  0  0  0  0  3  0  0  0  0  0  0
  193.2750  171.3230  142.8190 N   0  0  0  0  0  0  0  0  0  0  0  0
  192.3490  168.5780  142.8820 C   0  0  0  0  0  1  0  0  0  0  0  0
  193.3780  169.7430  140.6950 O   0  0  0  0  0  0  0  0  0  0  0  0
  194.9160  169.2640  142.5360 O   0  0  0  0  0  0  0  0  0  0  0  0
  193.5270  169.7240  142.1910 S   0  0  0  0  0  0  0  0  0  0  0  0
  193.4290  176.1660  146.4170 C   0  0  0  0  0  2  0  0  0  0  0  0
  194.7340  175.5070  146.0020 C   0  0  0  0  0  2  0  0  0  0  0  0
  194.5800  174.8570  144.7650 O   0  0  0  0  0  0  0  0  0  0  0  0
  195.6310  173.9270  144.5880 C   0  0  1  0  0  3  0  0  0  0  0  0
  196.3160  172.9050  142.4880 O   0  0  0  0  0  1  0  0  0  0  0  0
  196.3590  174.0820  143.2420 C   0  0  1  0  0  3  0  0  0  0  0  0
  195.8460  175.2760  142.4380 C   0  0  0  0  0  2  0  0  0  0  0  0
  196.8230  176.4430  142.3990 C   0  0  0  0  0  2  0  0  0  0  0  0
  196.7400  177.1770  143.5810 O   0  0  0  0  0  1  0  0  0  0  0  0
  196.5470  173.8980  145.7260 N   0  0  0  0  0  2  0  0  0  0  0  0
  195.6010  171.6680  145.7230 C   0  0  0  0  0  1  0  0  0  0  0  0
  196.8290  172.5040  146.0140 C   0  0  0  0  0  2  0  0  0  0  0  0
  1 12  1  0  0  0  0
  1  4  2  0  0  0  0
  2  6  2  0  0  0  0
  2  3  1  0  0  0  0
  3  7  2  0  0  0  0
  5  8  1  0  0  0  0
  5  9  1  0  0  0  0
  6  1  1  0  0  0  0
  7  4  1  0  0  0  0
  7  5  1  0  0  0  0
  8 30  1  6  0  0  0
  8  9  1  0  0  0  0
 12 13  2  0  0  0  0
 13 17  1  0  0  0  0
 15 10  1  6  0  0  0
 15 12  1  0  0  0  0
 15 18  1  0  0  0  0
 16 10  1  0  0  0  0
 16 11  2  0  0  0  0
 17 14  1  0  0  0  0
 18 11  1  6  0  0  0
 18 17  1  0  0  0  0
 18 14  1  0  0  0  0
 19  3  1  0  0  0  0
 20 23  1  0  0  0  0
 20 25  1  0  0  0  0
 21 22  1  0  0  0  0
 23 24  1  0  0  0  0
 24 19  1  0  0  0  0
 24 22  1  0  0  0  0
 25 21  1  0  0  0  0
 27 29  2  0  0  0  0
 29 28  2  0  0  0  0
 29 25  1  0  0  0  0
 29 26  1  0  0  0  0
 31 30  1  0  0  0  0
 32 31  1  0  0  0  0
 33 32  1  1  0  0  0
 33 39  1  0  0  0  0
 35 34  1  6  0  0  0
 35 33  1  0  0  0  0
 36 35  1  0  0  0  0
 37 36  1  0  0  0  0
 37 38  1  0  0  0  0
 39 41  1  0  0  0  0
 40 41  1  0  0  0  0
M  END
>  <MODEL>
3

>  <REMARK>
 VINA RESULT:      -6.4      2.290      4.841
  Name = 
  13 active torsions:
  status: ('A' for Active; 'I' for Inactive)
    1  A    between atoms: O_2  and  C_11
    2  A    between atoms: O_2  and  C_35
    3  A    between atoms: C_3  and  N_21
    4  A    between atoms: C_3  and  O_23
    5  A    between atoms: C_3  and  C_27
    6  A    between atoms: C_5  and  C_6
    7  A    between atoms: C_14  and  C_19
    8  A    between atoms: C_15  and  O_23
    9  A    between atoms: C_15  and  C_37
   10  A    between atoms: C_19  and  C_27
   11  A    between atoms: N_21  and  C_30
   12  A    between atoms: S_34  and  N_40
   13  A    between atoms: C_37  and  C_38
                            x       y       z     vdW  Elec       q    Type
                         _______ _______ _______ _____ _____    ______ ____

>  <TORSDO>
F 13

$$$$
=
 OpenBabel11042419013D

 41 46  0  0  1  0  0  0  0  0999 V2000
  187.3370  176.7500  143.7980 C   0  0  0  0  0  0  0  0  0  0  0  0
  187.8790  175.3030  142.0060 C   0  0  0  0  0  3  0  0  0  0  0  0
  189.2050  175.2290  142.4460 C   0  0  0  0  0  0  0  0  0  0  0  0
  188.6210  176.6900  144.2420 N   0  0  0  0  0  0  0  0  0  0  0  0
  190.8960  175.9150  144.0780 N   0  0  0  0  0  0  0  0  0  0  0  0
  186.9760  176.0540  142.6850 N   0  0  0  0  0  0  0  0  0  0  0  0
  189.5560  175.9470  143.5930 C   0  0  0  0  0  0  0  0  0  0  0  0
  192.3170  175.4700  143.9960 C   0  0  2  0  0  3  0  0  0  0  0  0
  191.9770  176.3320  145.0170 C   0  0  0  0  0  2  0  0  0  0  0  0
  186.3360  176.8170  146.8360 C   0  0  0  0  0  2  0  0  0  0  0  0
  185.0940  178.6160  147.5610 N   0  0  0  0  0  0  0  0  0  0  0  0
  186.3450  177.5600  144.5220 C   0  0  0  0  0  0  0  0  0  0  0  0
  186.0930  178.8480  144.2550 C   0  0  0  0  0  3  0  0  0  0  0  0
  183.7370  178.8950  145.6130 N   0  0  0  0  0  2  0  0  0  0  0  0
  185.6050  177.1200  145.7650 C   0  0  2  0  0  3  0  0  0  0  0  0
  185.9940  177.7550  147.9220 C   0  0  0  0  0  3  0  0  0  0  0  0
  185.1220  179.1140  145.2210 N   0  0  0  0  0  0  0  0  0  0  0  0
  184.6900  178.1960  146.2430 C   0  0  2  0  0  0  0  0  0  0  0  0
  190.1690  174.4730  141.7690 O   0  0  0  0  0  0  0  0  0  0  0  0
  190.3930  171.1790  140.0030 C   0  0  0  0  0  2  0  0  0  0  0  0
  191.0660  170.8650  142.2630 C   0  0  0  0  0  2  0  0  0  0  0  0
  191.0870  172.3670  142.5320 C   0  0  0  0  0  2  0  0  0  0  0  0
  190.3730  172.6980  140.1560 C   0  0  0  0  0  2  0  0  0  0  0  0
  190.0870  173.0620  141.6100 C   0  0  0  0  0  3  0  0  0  0  0  0
  191.4220  170.6030  140.8680 N   0  0  0  0  0  0  0  0  0  0  0  0
  190.7020  168.4650  139.0500 C   0  0  0  0  0  1  0  0  0  0  0  0
  192.8160  168.3560  140.6980 O   0  0  0  0  0  0  0  0  0  0  0  0
  190.5950  168.2360  141.7170 O   0  0  0  0  0  0  0  0  0  0  0  0
  191.4090  168.8820  140.6320 S   0  0  0  0  0  0  0  0  0  0  0  0
  192.9880  176.2220  142.8630 C   0  0  0  0  0  2  0  0  0  0  0  0
  194.0240  175.3440  142.1810 C   0  0  0  0  0  2  0  0  0  0  0  0
  194.5760  174.4350  143.1020 O   0  0  0  0  0  0  0  0  0  0  0  0
  195.8800  174.8560  143.4530 C   0  0  1  0  0  3  0  0  0  0  0  0
  196.9370  176.9650  142.8550 O   0  0  0  0  0  1  0  0  0  0  0  0
  196.5560  175.7110  142.3690 C   0  0  1  0  0  3  0  0  0  0  0  0
  197.7300  174.9900  141.7080 C   0  0  0  0  0  2  0  0  0  0  0  0
  197.7270  175.0940  140.1890 C   0  0  0  0  0  2  0  0  0  0  0  0
  196.5030  175.5910  139.7460 O   0  0  0  0  0  1  0  0  0  0  0  0
  195.9290  175.4780  144.7750 N   0  0  0  0  0  2  0  0  0  0  0  0
  196.9110  173.6820  146.0690 C   0  0  0  0  0  1  0  0  0  0  0  0
  195.6420  174.4410  145.7480 C   0  0  0  0  0  2  0  0  0  0  0  0
  1  4  2  0  0  0  0
  1 12  1  0  0  0  0
  2  3  1  0  0  0  0
  2  6  2  0  0  0  0
  3  7  2  0  0  0  0
  5  9  1  0  0  0  0
  6  1  1  0  0  0  0
  7  5  1  0  0  0  0
  7  4  1  0  0  0  0
  8 30  1  6  0  0  0
  8  5  1  0  0  0  0
  8  9  1  0  0  0  0
 10 16  1  0  0  0  0
 11 16  2  0  0  0  0
 12 15  1  0  0  0  0
 13 12  2  0  0  0  0
 13 17  1  0  0  0  0
 15 18  1  0  0  0  0
 15 10  1  1  0  0  0
 17 14  1  0  0  0  0
 17 18  1  0  0  0  0
 18 14  1  6  0  0  0
 18 11  1  0  0  0  0
 19  3  1  0  0  0  0
 20 23  1  0  0  0  0
 20 25  1  0  0  0  0
 21 22  1  0  0  0  0
 23 24  1  0  0  0  0
 24 19  1  0  0  0  0
 24 22  1  0  0  0  0
 25 21  1  0  0  0  0
 26 29  1  0  0  0  0
 29 27  2  0  0  0  0
 29 25  1  0  0  0  0
 29 28  2  0  0  0  0
 31 30  1  0  0  0  0
 31 32  1  0  0  0  0
 33 32  1  6  0  0  0
 33 39  1  0  0  0  0
 35 34  1  1  0  0  0
 35 33  1  0  0  0  0
 36 35  1  0  0  0  0
 37 36  1  0  0  0  0
 38 37  1  0  0  0  0
 39 41  1  0  0  0  0
 41 40  1  0  0  0  0
M  END
>  <MODEL>
4

>  <REMARK>
 VINA RESULT:      -6.3      2.517      5.646
  Name = 
  13 active torsions:
  status: ('A' for Active; 'I' for Inactive)
    1  A    between atoms: O_2  and  C_11
    2  A    between atoms: O_2  and  C_35
    3  A    between atoms: C_3  and  N_21
    4  A    between atoms: C_3  and  O_23
    5  A    between atoms: C_3  and  C_27
    6  A    between atoms: C_5  and  C_6
    7  A    between atoms: C_14  and  C_19
    8  A    between atoms: C_15  and  O_23
    9  A    between atoms: C_15  and  C_37
   10  A    between atoms: C_19  and  C_27
   11  A    between atoms: N_21  and  C_30
   12  A    between atoms: S_34  and  N_40
   13  A    between atoms: C_37  and  C_38
                            x       y       z     vdW  Elec       q    Type
                         _______ _______ _______ _____ _____    ______ ____

>  <TORSDO>
F 13

$$$$
=
 OpenBabel11042419013D

 41 46  0  0  1  0  0  0  0  0999 V2000
  187.9240  176.9250  145.0410 C   0  0  0  0  0  0  0  0  0  0  0  0
  189.3960  176.4550  143.2490 C   0  0  0  0  0  3  0  0  0  0  0  0
  190.3890  176.0560  144.1490 C   0  0  0  0  0  0  0  0  0  0  0  0
  188.8770  176.5390  145.9320 N   0  0  0  0  0  0  0  0  0  0  0  0
  191.0770  175.7230  146.4740 N   0  0  0  0  0  0  0  0  0  0  0  0
  188.1900  176.8770  143.7070 N   0  0  0  0  0  0  0  0  0  0  0  0
  190.0960  176.1080  145.5140 C   0  0  0  0  0  0  0  0  0  0  0  0
  192.4370  175.2370  146.8470 C   0  0  2  0  0  3  0  0  0  0  0  0
  191.5650  175.5400  147.8720 C   0  0  0  0  0  2  0  0  0  0  0  0
  185.7920  179.0420  143.9440 C   0  0  0  0  0  2  0  0  0  0  0  0
  183.6630  179.0390  144.8230 N   0  0  0  0  0  0  0  0  0  0  0  0
  186.6110  177.3860  145.5210 C   0  0  0  0  0  0  0  0  0  0  0  0
  185.7290  176.6000  146.1520 C   0  0  0  0  0  3  0  0  0  0  0  0
  184.2460  178.6690  147.1120 N   0  0  0  0  0  2  0  0  0  0  0  0
  186.0030  178.7370  145.2220 C   0  0  2  0  0  3  0  0  0  0  0  0
  184.3420  179.2250  143.7340 C   0  0  0  0  0  3  0  0  0  0  0  0
  184.6890  177.5100  146.3500 N   0  0  0  0  0  0  0  0  0  0  0  0
  184.6570  178.8610  145.8520 C   0  0  2  0  0  0  0  0  0  0  0  0
  191.6490  175.6240  143.7170 O   0  0  0  0  0  0  0  0  0  0  0  0
  190.8910  172.0990  142.7080 C   0  0  0  0  0  2  0  0  0  0  0  0
  192.1640  173.1180  140.9750 C   0  0  0  0  0  2  0  0  0  0  0  0
  192.0380  174.5000  141.6090 C   0  0  0  0  0  2  0  0  0  0  0  0
  190.7040  173.4290  143.4350 C   0  0  0  0  0  2  0  0  0  0  0  0
  191.8770  174.3530  143.1210 C   0  0  0  0  0  3  0  0  0  0  0  0
  190.9680  172.3250  141.2650 N   0  0  0  0  0  0  0  0  0  0  0  0
  190.8180  169.4560  141.6410 C   0  0  0  0  0  1  0  0  0  0  0  0
  190.2110  170.6780  139.3320 O   0  0  0  0  0  0  0  0  0  0  0  0
  192.5660  170.6410  139.9920 O   0  0  0  0  0  0  0  0  0  0  0  0
  191.1570  170.7790  140.4960 S   0  0  0  0  0  0  0  0  0  0  0  0
  193.4240  176.3680  146.6330 C   0  0  0  0  0  2  0  0  0  0  0  0
  194.7510  175.8280  146.1280 C   0  0  0  0  0  2  0  0  0  0  0  0
  194.5390  174.9000  145.0920 O   0  0  0  0  0  0  0  0  0  0  0  0
  195.7600  174.2610  144.7760 C   0  0  1  0  0  3  0  0  0  0  0  0
  196.7050  172.4780  146.1370 O   0  0  0  0  0  1  0  0  0  0  0  0
  195.7740  172.7660  145.1340 C   0  0  1  0  0  3  0  0  0  0  0  0
  194.3840  172.2440  145.5000 C   0  0  0  0  0  2  0  0  0  0  0  0
  193.8980  171.1270  144.5860 C   0  0  0  0  0  2  0  0  0  0  0  0
  194.2460  171.4030  143.2650 O   0  0  0  0  0  1  0  0  0  0  0  0
  196.1840  174.5160  143.4000 N   0  0  0  0  0  2  0  0  0  0  0  0
  196.8370  176.7900  142.8830 C   0  0  0  0  0  1  0  0  0  0  0  0
  197.2810  175.4630  143.4580 C   0  0  0  0  0  2  0  0  0  0  0  0
  1 12  1  0  0  0  0
  1  4  2  0  0  0  0
  2  6  2  0  0  0  0
  2  3  1  0  0  0  0
  3  7  2  0  0  0  0
  5  8  1  0  0  0  0
  5  9  1  0  0  0  0
  6  1  1  0  0  0  0
  7  4  1  0  0  0  0
  7  5  1  0  0  0  0
  8 30  1  1  0  0  0
  8  9  1  0  0  0  0
 12 13  2  0  0  0  0
 13 17  1  0  0  0  0
 15 10  1  6  0  0  0
 15 12  1  0  0  0  0
 15 18  1  0  0  0  0
 16 10  1  0  0  0  0
 16 11  2  0  0  0  0
 17 14  1  0  0  0  0
 18 11  1  6  0  0  0
 18 17  1  0  0  0  0
 18 14  1  0  0  0  0
 19  3  1  0  0  0  0
 20 23  1  0  0  0  0
 21 25  1  0  0  0  0
 21 22  1  0  0  0  0
 22 24  1  0  0  0  0
 24 23  1  0  0  0  0
 24 19  1  0  0  0  0
 25 20  1  0  0  0  0
 27 29  2  0  0  0  0
 28 29  2  0  0  0  0
 29 25  1  0  0  0  0
 29 26  1  0  0  0  0
 31 30  1  0  0  0  0
 32 31  1  0  0  0  0
 33 39  1  6  0  0  0
 33 32  1  0  0  0  0
 33 35  1  0  0  0  0
 35 36  1  0  0  0  0
 35 34  1  1  0  0  0
 37 36  1  0  0  0  0
 38 37  1  0  0  0  0
 39 41  1  0  0  0  0
 40 41  1  0  0  0  0
M  END
>  <MODEL>
5

>  <REMARK>
 VINA RESULT:      -6.2      2.349      4.944
  Name = 
  13 active torsions:
  status: ('A' for Active; 'I' for Inactive)
    1  A    between atoms: O_2  and  C_11
    2  A    between atoms: O_2  and  C_35
    3  A    between atoms: C_3  and  N_21
    4  A    between atoms: C_3  and  O_23
    5  A    between atoms: C_3  and  C_27
    6  A    between atoms: C_5  and  C_6
    7  A    between atoms: C_14  and  C_19
    8  A    between atoms: C_15  and  O_23
    9  A    between atoms: C_15  and  C_37
   10  A    between atoms: C_19  and  C_27
   11  A    between atoms: N_21  and  C_30
   12  A    between atoms: S_34  and  N_40
   13  A    between atoms: C_37  and  C_38
                            x       y       z     vdW  Elec       q    Type
                         _______ _______ _______ _____ _____    ______ ____

>  <TORSDO>
F 13

$$$$
=
 OpenBabel11042419013D

 41 46  0  0  1  0  0  0  0  0999 V2000
  187.8640  176.7030  144.1960 C   0  0  0  0  0  0  0  0  0  0  0  0
  189.1610  175.1380  142.9840 C   0  0  0  0  0  3  0  0  0  0  0  0
  190.1190  175.1200  144.0040 C   0  0  0  0  0  0  0  0  0  0  0  0
  188.7840  176.6970  145.1990 N   0  0  0  0  0  0  0  0  0  0  0  0
  190.8490  175.9520  146.1870 N   0  0  0  0  0  0  0  0  0  0  0  0
  188.0590  175.9220  143.0990 N   0  0  0  0  0  0  0  0  0  0  0  0
  189.9000  175.9250  145.1250 C   0  0  0  0  0  0  0  0  0  0  0  0
  192.1310  175.5260  146.8200 C   0  0  2  0  0  3  0  0  0  0  0  0
  191.3650  176.4540  147.4940 C   0  0  0  0  0  2  0  0  0  0  0  0
  185.6440  177.1040  146.4650 C   0  0  0  0  0  2  0  0  0  0  0  0
  184.2270  178.9150  146.3310 N   0  0  0  0  0  0  0  0  0  0  0  0
  186.6630  177.5470  144.3040 C   0  0  0  0  0  0  0  0  0  0  0  0
  186.5640  178.7760  143.7810 C   0  0  0  0  0  3  0  0  0  0  0  0
  183.8520  178.8730  143.9690 N   0  0  0  0  0  2  0  0  0  0  0  0
  185.4540  177.2310  145.1530 C   0  0  2  0  0  3  0  0  0  0  0  0
  184.8730  178.1530  147.1580 C   0  0  0  0  0  3  0  0  0  0  0  0
  185.2720  179.1120  144.1880 N   0  0  0  0  0  0  0  0  0  0  0  0
  184.4310  178.3100  145.0380 C   0  0  2  0  0  0  0  0  0  0  0  0
  191.2740  174.3330  143.9210 O   0  0  0  0  0  0  0  0  0  0  0  0
  193.7950  174.8010  141.1920 C   0  0  0  0  0  2  0  0  0  0  0  0
  193.4320  172.4670  141.4860 C   0  0  0  0  0  2  0  0  0  0  0  0
  192.6180  172.6900  142.7570 C   0  0  0  0  0  2  0  0  0  0  0  0
  192.9940  175.1440  142.4460 C   0  0  0  0  0  2  0  0  0  0  0  0
  191.9490  174.0620  142.6980 C   0  0  0  0  0  3  0  0  0  0  0  0
  194.4560  173.5060  141.3600 N   0  0  0  0  0  0  0  0  0  0  0  0
  195.6370  174.6830  138.9910 C   0  0  0  0  0  1  0  0  0  0  0  0
  196.6920  172.5810  140.2810 O   0  0  0  0  0  0  0  0  0  0  0  0
  194.6070  172.2110  139.0560 O   0  0  0  0  0  0  0  0  0  0  0  0
  195.3640  173.1840  139.9150 S   0  0  0  0  0  0  0  0  0  0  0  0
  193.2730  176.2050  146.0890 C   0  0  0  0  0  2  0  0  0  0  0  0
  194.5300  175.3540  146.1590 C   0  0  0  0  0  2  0  0  0  0  0  0
  194.2710  174.0590  145.6760 O   0  0  0  0  0  0  0  0  0  0  0  0
  195.4130  173.5720  144.9990 C   0  0  1  0  0  3  0  0  0  0  0  0
  197.7370  174.1270  145.4640 O   0  0  0  0  0  1  0  0  0  0  0  0
  196.5490  174.6050  144.9030 C   0  0  1  0  0  3  0  0  0  0  0  0
  196.7680  175.0960  143.4730 C   0  0  0  0  0  2  0  0  0  0  0  0
  196.4830  176.5810  143.2930 C   0  0  0  0  0  2  0  0  0  0  0  0
  196.4640  176.9050  141.9380 O   0  0  0  0  0  1  0  0  0  0  0  0
  195.8640  172.2830  145.5200 N   0  0  0  0  0  2  0  0  0  0  0  0
  196.5870  171.1670  143.4950 C   0  0  0  0  0  1  0  0  0  0  0  0
  195.4990  171.2750  144.5430 C   0  0  0  0  0  2  0  0  0  0  0  0
  1 12  1  0  0  0  0
  1  4  2  0  0  0  0
  2  6  2  0  0  0  0
  2  3  1  0  0  0  0
  3  7  2  0  0  0  0
  5  8  1  0  0  0  0
  5  9  1  0  0  0  0
  6  1  1  0  0  0  0
  7  4  1  0  0  0  0
  7  5  1  0  0  0  0
  8 30  1  6  0  0  0
  8  9  1  0  0  0  0
 10 16  1  0  0  0  0
 11 16  2  0  0  0  0
 12 15  1  0  0  0  0
 13 17  1  0  0  0  0
 13 12  2  0  0  0  0
 14 17  1  0  0  0  0
 15 10  1  1  0  0  0
 17 18  1  0  0  0  0
 18 14  1  6  0  0  0
 18 15  1  0  0  0  0
 18 11  1  0  0  0  0
 19  3  1  0  0  0  0
 20 25  1  0  0  0  0
 20 23  1  0  0  0  0
 21 22  1  0  0  0  0
 23 24  1  0  0  0  0
 24 22  1  0  0  0  0
 24 19  1  0  0  0  0
 25 21  1  0  0  0  0
 26 29  1  0  0  0  0
 28 29  2  0  0  0  0
 29 27  2  0  0  0  0
 29 25  1  0  0  0  0
 30 31  1  0  0  0  0
 32 31  1  0  0  0  0
 33 39  1  1  0  0  0
 33 32  1  0  0  0  0
 35 33  1  0  0  0  0
 35 34  1  6  0  0  0
 36 35  1  0  0  0  0
 37 36  1  0  0  0  0
 38 37  1  0  0  0  0
 40 41  1  0  0  0  0
 41 39  1  0  0  0  0
M  END
>  <MODEL>
6

>  <REMARK>
 VINA RESULT:      -6.2      2.332      4.636
  Name = 
  13 active torsions:
  status: ('A' for Active; 'I' for Inactive)
    1  A    between atoms: O_2  and  C_11
    2  A    between atoms: O_2  and  C_35
    3  A    between atoms: C_3  and  N_21
    4  A    between atoms: C_3  and  O_23
    5  A    between atoms: C_3  and  C_27
    6  A    between atoms: C_5  and  C_6
    7  A    between atoms: C_14  and  C_19
    8  A    between atoms: C_15  and  O_23
    9  A    between atoms: C_15  and  C_37
   10  A    between atoms: C_19  and  C_27
   11  A    between atoms: N_21  and  C_30
   12  A    between atoms: S_34  and  N_40
   13  A    between atoms: C_37  and  C_38
                            x       y       z     vdW  Elec       q    Type
                         _______ _______ _______ _____ _____    ______ ____

>  <TORSDO>
F 13

$$$$
=
 OpenBabel11042419013D

 41 46  0  0  1  0  0  0  0  0999 V2000
  187.4930  176.4530  144.0710 C   0  0  0  0  0  0  0  0  0  0  0  0
  188.1340  174.9810  142.3330 C   0  0  0  0  0  3  0  0  0  0  0  0
  189.3600  174.7440  142.9650 C   0  0  0  0  0  0  0  0  0  0  0  0
  188.6780  176.2340  144.7010 N   0  0  0  0  0  0  0  0  0  0  0  0
  190.8470  175.1990  144.8540 N   0  0  0  0  0  0  0  0  0  0  0  0
  187.2290  175.8230  142.8940 N   0  0  0  0  0  0  0  0  0  0  0  0
  189.6110  175.3970  144.1750 C   0  0  0  0  0  0  0  0  0  0  0  0
  192.2040  174.5910  144.9720 C   0  0  2  0  0  3  0  0  0  0  0  0
  191.8120  175.4700  145.9600 C   0  0  0  0  0  2  0  0  0  0  0  0
  186.3100  176.8060  147.0220 C   0  0  0  0  0  2  0  0  0  0  0  0
  185.1200  178.7130  147.5260 N   0  0  0  0  0  0  0  0  0  0  0  0
  186.5010  177.3630  144.6650 C   0  0  0  0  0  0  0  0  0  0  0  0
  186.3330  178.6370  144.2850 C   0  0  0  0  0  3  0  0  0  0  0  0
  183.9020  178.9000  145.4770 N   0  0  0  0  0  2  0  0  0  0  0  0
  185.6640  177.0570  145.8860 C   0  0  2  0  0  3  0  0  0  0  0  0
  185.9500  177.8410  148.0100 C   0  0  0  0  0  3  0  0  0  0  0  0
  185.3180  179.0220  145.1620 N   0  0  0  0  0  0  0  0  0  0  0  0
  184.7770  178.2090  146.2200 C   0  0  2  0  0  0  0  0  0  0  0  0
  190.3240  173.8900  142.4150 O   0  0  0  0  0  0  0  0  0  0  0  0
  191.8530  173.3160  139.0460 C   0  0  0  0  0  2  0  0  0  0  0  0
  190.1410  171.6970  139.3780 C   0  0  0  0  0  2  0  0  0  0  0  0
  189.9770  172.0800  140.8460 C   0  0  0  0  0  2  0  0  0  0  0  0
  191.7730  173.7870  140.4970 C   0  0  0  0  0  2  0  0  0  0  0  0
  190.3660  173.5440  141.0360 C   0  0  0  0  0  3  0  0  0  0  0  0
  191.5330  171.8910  138.9650 N   0  0  0  0  0  0  0  0  0  0  0  0
  193.3710  171.2670  136.8140 C   0  0  0  0  0  1  0  0  0  0  0  0
  190.9780  170.0900  137.1030 O   0  0  0  0  0  0  0  0  0  0  0  0
  190.9930  172.4420  136.4320 O   0  0  0  0  0  0  0  0  0  0  0  0
  191.6630  171.4140  137.3000 S   0  0  0  0  0  0  0  0  0  0  0  0
  193.1230  175.2750  143.9790 C   0  0  0  0  0  2  0  0  0  0  0  0
  193.8400  176.4430  144.6350 C   0  0  0  0  0  2  0  0  0  0  0  0
  195.1240  176.0530  145.0560 O   0  0  0  0  0  0  0  0  0  0  0  0
  195.8500  175.5520  143.9510 C   0  0  1  0  0  3  0  0  0  0  0  0
  197.8410  176.6910  143.1380 O   0  0  0  0  0  1  0  0  0  0  0  0
  196.4460  176.6580  143.0640 C   0  0  1  0  0  3  0  0  0  0  0  0
  195.9680  176.5600  141.6150 C   0  0  0  0  0  2  0  0  0  0  0  0
  196.9790  175.8970  140.6890 C   0  0  0  0  0  2  0  0  0  0  0  0
  196.8380  174.5110  140.7410 O   0  0  0  0  0  1  0  0  0  0  0  0
  196.8380  174.5470  144.3410 N   0  0  0  0  0  2  0  0  0  0  0  0
  196.7190  172.7120  145.9170 C   0  0  0  0  0  1  0  0  0  0  0  0
  196.5780  174.2070  145.7270 C   0  0  0  0  0  2  0  0  0  0  0  0
  1 12  1  0  0  0  0
  1  4  2  0  0  0  0
  2  6  2  0  0  0  0
  2  3  1  0  0  0  0
  3  7  2  0  0  0  0
  5  8  1  0  0  0  0
  5  9  1  0  0  0  0
  6  1  1  0  0  0  0
  7  4  1  0  0  0  0
  7  5  1  0  0  0  0
  8 30  1  6  0  0  0
  8  9  1  0  0  0  0
 10 16  1  0  0  0  0
 11 16  2  0  0  0  0
 12 15  1  0  0  0  0
 13 12  2  0  0  0  0
 13 17  1  0  0  0  0
 15 18  1  0  0  0  0
 15 10  1  1  0  0  0
 17 14  1  0  0  0  0
 17 18  1  0  0  0  0
 18 14  1  6  0  0  0
 18 11  1  0  0  0  0
 19  3  1  0  0  0  0
 20 23  1  0  0  0  0
 21 22  1  0  0  0  0
 22 24  1  0  0  0  0
 23 24  1  0  0  0  0
 24 19  1  0  0  0  0
 25 20  1  0  0  0  0
 25 21  1  0  0  0  0
 26 29  1  0  0  0  0
 27 29  2  0  0  0  0
 28 29  2  0  0  0  0
 29 25  1  0  0  0  0
 30 31  1  0  0  0  0
 31 32  1  0  0  0  0
 33 39  1  1  0  0  0
 33 32  1  0  0  0  0
 35 34  1  6  0  0  0
 35 33  1  0  0  0  0
 36 35  1  0  0  0  0
 37 38  1  0  0  0  0
 37 36  1  0  0  0  0
 39 41  1  0  0  0  0
 41 40  1  0  0  0  0
M  END
>  <MODEL>
7

>  <REMARK>
 VINA RESULT:      -6.2      2.793      5.791
  Name = 
  13 active torsions:
  status: ('A' for Active; 'I' for Inactive)
    1  A    between atoms: O_2  and  C_11
    2  A    between atoms: O_2  and  C_35
    3  A    between atoms: C_3  and  N_21
    4  A    between atoms: C_3  and  O_23
    5  A    between atoms: C_3  and  C_27
    6  A    between atoms: C_5  and  C_6
    7  A    between atoms: C_14  and  C_19
    8  A    between atoms: C_15  and  O_23
    9  A    between atoms: C_15  and  C_37
   10  A    between atoms: C_19  and  C_27
   11  A    between atoms: N_21  and  C_30
   12  A    between atoms: S_34  and  N_40
   13  A    between atoms: C_37  and  C_38
                            x       y       z     vdW  Elec       q    Type
                         _______ _______ _______ _____ _____    ______ ____

>  <TORSDO>
F 13

$$$$
=
 OpenBabel11042419013D

 41 46  0  0  1  0  0  0  0  0999 V2000
  188.0780  176.7760  144.0550 C   0  0  0  0  0  0  0  0  0  0  0  0
  189.5450  175.3790  142.8320 C   0  0  0  0  0  3  0  0  0  0  0  0
  190.4140  175.3080  143.9260 C   0  0  0  0  0  0  0  0  0  0  0  0
  188.9100  176.7170  145.1300 N   0  0  0  0  0  0  0  0  0  0  0  0
  190.9190  175.9690  146.2270 N   0  0  0  0  0  0  0  0  0  0  0  0
  188.4010  176.1040  142.9160 N   0  0  0  0  0  0  0  0  0  0  0  0
  190.0640  176.0000  145.0880 C   0  0  0  0  0  0  0  0  0  0  0  0
  192.1620  175.5410  146.9310 C   0  0  2  0  0  3  0  0  0  0  0  0
  191.2990  176.3730  147.6130 C   0  0  0  0  0  2  0  0  0  0  0  0
  185.7010  176.9440  146.1890 C   0  0  0  0  0  2  0  0  0  0  0  0
  184.2100  178.6950  146.0620 N   0  0  0  0  0  0  0  0  0  0  0  0
  186.8330  177.5580  144.1290 C   0  0  0  0  0  0  0  0  0  0  0  0
  186.7090  178.8100  143.6700 C   0  0  0  0  0  3  0  0  0  0  0  0
  183.9900  178.7760  143.6830 N   0  0  0  0  0  2  0  0  0  0  0  0
  185.5890  177.1390  144.8770 C   0  0  2  0  0  3  0  0  0  0  0  0
  184.8370  177.9160  146.8870 C   0  0  0  0  0  3  0  0  0  0  0  0
  185.3790  179.0640  144.0080 N   0  0  0  0  0  0  0  0  0  0  0  0
  184.5250  178.1770  144.7540 C   0  0  2  0  0  0  0  0  0  0  0  0
  191.6080  174.5780  143.8760 O   0  0  0  0  0  0  0  0  0  0  0  0
  192.3930  171.4690  141.9440 C   0  0  0  0  0  2  0  0  0  0  0  0
  192.6690  171.0020  144.2610 C   0  0  0  0  0  2  0  0  0  0  0  0
  192.5290  172.4730  144.6390 C   0  0  0  0  0  2  0  0  0  0  0  0
  192.2320  172.9650  142.2030 C   0  0  0  0  0  2  0  0  0  0  0  0
  191.6620  173.1840  143.6020 C   0  0  0  0  0  3  0  0  0  0  0  0
  193.2900  170.8830  142.9400 N   0  0  0  0  0  0  0  0  0  0  0  0
  192.6110  168.7860  141.0590 C   0  0  0  0  0  1  0  0  0  0  0  0
  194.9050  168.8410  142.4470 O   0  0  0  0  0  0  0  0  0  0  0  0
  192.8530  168.3840  143.6970 O   0  0  0  0  0  0  0  0  0  0  0  0
  193.4490  169.1920  142.5790 S   0  0  0  0  0  0  0  0  0  0  0  0
  193.3270  176.3270  146.3640 C   0  0  0  0  0  2  0  0  0  0  0  0
  194.5360  175.4260  146.1740 C   0  0  0  0  0  2  0  0  0  0  0  0
  195.0000  175.5040  144.8490 O   0  0  0  0  0  0  0  0  0  0  0  0
  196.2490  174.8490  144.7480 C   0  0  1  0  0  3  0  0  0  0  0  0
  195.8240  172.9900  143.2360 O   0  0  0  0  0  1  0  0  0  0  0  0
  196.1230  173.3280  144.5580 C   0  0  1  0  0  3  0  0  0  0  0  0
  197.3570  172.5770  145.0590 C   0  0  0  0  0  2  0  0  0  0  0  0
  197.0590  171.1500  145.5000 C   0  0  0  0  0  2  0  0  0  0  0  0
  195.7440  171.0540  145.9530 O   0  0  0  0  0  1  0  0  0  0  0  0
  197.1270  175.4710  143.7580 N   0  0  0  0  0  2  0  0  0  0  0  0
  196.3370  176.6580  141.8000 C   0  0  0  0  0  1  0  0  0  0  0  0
  196.4730  176.6840  143.3070 C   0  0  0  0  0  2  0  0  0  0  0  0
  1 12  1  0  0  0  0
  1  4  2  0  0  0  0
  2  6  2  0  0  0  0
  2  3  1  0  0  0  0
  3  7  2  0  0  0  0
  5  8  1  0  0  0  0
  5  9  1  0  0  0  0
  6  1  1  0  0  0  0
  7  4  1  0  0  0  0
  7  5  1  0  0  0  0
  8 30  1  6  0  0  0
  8  9  1  0  0  0  0
 10 16  1  0  0  0  0
 11 16  2  0  0  0  0
 12 15  1  0  0  0  0
 13 17  1  0  0  0  0
 13 12  2  0  0  0  0
 14 17  1  0  0  0  0
 15 10  1  1  0  0  0
 17 18  1  0  0  0  0
 18 14  1  6  0  0  0
 18 15  1  0  0  0  0
 18 11  1  0  0  0  0
 19  3  1  0  0  0  0
 20 23  1  0  0  0  0
 20 25  1  0  0  0  0
 21 22  1  0  0  0  0
 23 24  1  0  0  0  0
 24 19  1  0  0  0  0
 24 22  1  0  0  0  0
 25 21  1  0  0  0  0
 26 29  1  0  0  0  0
 27 29  2  0  0  0  0
 29 25  1  0  0  0  0
 29 28  2  0  0  0  0
 31 30  1  0  0  0  0
 32 31  1  0  0  0  0
 33 39  1  6  0  0  0
 33 32  1  0  0  0  0
 35 34  1  6  0  0  0
 35 33  1  0  0  0  0
 35 36  1  0  0  0  0
 36 37  1  0  0  0  0
 37 38  1  0  0  0  0
 40 41  1  0  0  0  0
 41 39  1  0  0  0  0
M  END
>  <MODEL>
8

>  <REMARK>
 VINA RESULT:      -6.1      2.427      5.206
  Name = 
  13 active torsions:
  status: ('A' for Active; 'I' for Inactive)
    1  A    between atoms: O_2  and  C_11
    2  A    between atoms: O_2  and  C_35
    3  A    between atoms: C_3  and  N_21
    4  A    between atoms: C_3  and  O_23
    5  A    between atoms: C_3  and  C_27
    6  A    between atoms: C_5  and  C_6
    7  A    between atoms: C_14  and  C_19
    8  A    between atoms: C_15  and  O_23
    9  A    between atoms: C_15  and  C_37
   10  A    between atoms: C_19  and  C_27
   11  A    between atoms: N_21  and  C_30
   12  A    between atoms: S_34  and  N_40
   13  A    between atoms: C_37  and  C_38
                            x       y       z     vdW  Elec       q    Type
                         _______ _______ _______ _____ _____    ______ ____

>  <TORSDO>
F 13

$$$$
=
 OpenBabel11042419013D

 41 46  0  0  1  0  0  0  0  0999 V2000
  187.2690  176.7800  143.8280 C   0  0  0  0  0  0  0  0  0  0  0  0
  187.7600  175.2240  142.1140 C   0  0  0  0  0  3  0  0  0  0  0  0
  189.1200  175.2700  142.4420 C   0  0  0  0  0  0  0  0  0  0  0  0
  188.5860  176.8360  144.1630 N   0  0  0  0  0  0  0  0  0  0  0  0
  190.8870  176.1920  143.8620 N   0  0  0  0  0  0  0  0  0  0  0  0
  186.8660  175.9720  142.8090 N   0  0  0  0  0  0  0  0  0  0  0  0
  189.5130  176.1000  143.4940 C   0  0  0  0  0  0  0  0  0  0  0  0
  192.3240  175.8300  143.6920 C   0  0  2  0  0  3  0  0  0  0  0  0
  192.0100  176.7520  144.6690 C   0  0  0  0  0  2  0  0  0  0  0  0
  186.3010  176.8210  146.8770 C   0  0  0  0  0  2  0  0  0  0  0  0
  185.0700  178.6160  147.6320 N   0  0  0  0  0  0  0  0  0  0  0  0
  186.2850  177.5850  144.5700 C   0  0  0  0  0  0  0  0  0  0  0  0
  186.0330  178.8760  144.3170 C   0  0  0  0  0  3  0  0  0  0  0  0
  183.6920  178.9130  145.7010 N   0  0  0  0  0  2  0  0  0  0  0  0
  185.5590  177.1350  145.8170 C   0  0  2  0  0  3  0  0  0  0  0  0
  185.9730  177.7500  147.9760 C   0  0  0  0  0  3  0  0  0  0  0  0
  185.0730  179.1340  145.2970 N   0  0  0  0  0  0  0  0  0  0  0  0
  184.6500  178.2080  146.3150 C   0  0  2  0  0  0  0  0  0  0  0  0
  190.0750  174.5200  141.7450 O   0  0  0  0  0  0  0  0  0  0  0  0
  190.8140  171.0880  140.4450 C   0  0  0  0  0  2  0  0  0  0  0  0
  191.0540  171.0610  142.8130 C   0  0  0  0  0  2  0  0  0  0  0  0
  190.9410  172.5800  142.9040 C   0  0  0  0  0  2  0  0  0  0  0  0
  190.6820  172.6090  140.4150 C   0  0  0  0  0  2  0  0  0  0  0  0
  190.1010  173.0990  141.7380 C   0  0  0  0  0  3  0  0  0  0  0  0
  191.6870  170.6830  141.5480 N   0  0  0  0  0  0  0  0  0  0  0  0
  192.5450  168.3970  139.9870 C   0  0  0  0  0  1  0  0  0  0  0  0
  192.6620  168.4880  142.6650 O   0  0  0  0  0  0  0  0  0  0  0  0
  190.4420  168.3490  141.6470 O   0  0  0  0  0  0  0  0  0  0  0  0
  191.8120  168.9510  141.5150 S   0  0  0  0  0  0  0  0  0  0  0  0
  192.8480  176.5240  142.4500 C   0  0  0  0  0  2  0  0  0  0  0  0
  193.6990  175.5730  141.6270 C   0  0  0  0  0  2  0  0  0  0  0  0
  194.5850  174.8660  142.4590 O   0  0  0  0  0  0  0  0  0  0  0  0
  195.8630  175.4720  142.4070 C   0  0  1  0  0  3  0  0  0  0  0  0
  195.7430  177.0130  144.2870 O   0  0  0  0  0  1  0  0  0  0  0  0
  196.3970  175.8820  143.7890 C   0  0  1  0  0  3  0  0  0  0  0  0
  196.3550  174.7300  144.7930 C   0  0  0  0  0  2  0  0  0  0  0  0
  195.3060  174.9140  145.8810 C   0  0  0  0  0  2  0  0  0  0  0  0
  194.3070  173.9510  145.7500 O   0  0  0  0  0  1  0  0  0  0  0  0
  196.8240  174.6810  141.6420 N   0  0  0  0  0  2  0  0  0  0  0  0
  197.3540  175.1190  139.3190 C   0  0  0  0  0  1  0  0  0  0  0  0
  197.5140  175.5920  140.7480 C   0  0  0  0  0  2  0  0  0  0  0  0
  1  4  2  0  0  0  0
  1 12  1  0  0  0  0
  2  3  1  0  0  0  0
  2  6  2  0  0  0  0
  3  7  2  0  0  0  0
  5  9  1  0  0  0  0
  6  1  1  0  0  0  0
  7  5  1  0  0  0  0
  7  4  1  0  0  0  0
  8 30  1  6  0  0  0
  8  5  1  0  0  0  0
  8  9  1  0  0  0  0
 10 16  1  0  0  0  0
 11 16  2  0  0  0  0
 12 15  1  0  0  0  0
 13 12  2  0  0  0  0
 13 17  1  0  0  0  0
 15 18  1  0  0  0  0
 15 10  1  1  0  0  0
 17 14  1  0  0  0  0
 17 18  1  0  0  0  0
 18 14  1  6  0  0  0
 18 11  1  0  0  0  0
 19  3  1  0  0  0  0
 20 25  1  0  0  0  0
 21 22  1  0  0  0  0
 23 20  1  0  0  0  0
 23 24  1  0  0  0  0
 24 19  1  0  0  0  0
 24 22  1  0  0  0  0
 25 21  1  0  0  0  0
 26 29  1  0  0  0  0
 29 25  1  0  0  0  0
 29 28  2  0  0  0  0
 29 27  2  0  0  0  0
 31 30  1  0  0  0  0
 31 32  1  0  0  0  0
 33 39  1  1  0  0  0
 33 32  1  0  0  0  0
 33 35  1  0  0  0  0
 35 34  1  1  0  0  0
 35 36  1  0  0  0  0
 36 37  1  0  0  0  0
 38 37  1  0  0  0  0
 40 41  1  0  0  0  0
 41 39  1  0  0  0  0
M  END
>  <MODEL>
9

>  <REMARK>
 VINA RESULT:      -6.1      2.415      5.244
  Name = 
  13 active torsions:
  status: ('A' for Active; 'I' for Inactive)
    1  A    between atoms: O_2  and  C_11
    2  A    between atoms: O_2  and  C_35
    3  A    between atoms: C_3  and  N_21
    4  A    between atoms: C_3  and  O_23
    5  A    between atoms: C_3  and  C_27
    6  A    between atoms: C_5  and  C_6
    7  A    between atoms: C_14  and  C_19
    8  A    between atoms: C_15  and  O_23
    9  A    between atoms: C_15  and  C_37
   10  A    between atoms: C_19  and  C_27
   11  A    between atoms: N_21  and  C_30
   12  A    between atoms: S_34  and  N_40
   13  A    between atoms: C_37  and  C_38
                            x       y       z     vdW  Elec       q    Type
                         _______ _______ _______ _____ _____    ______ ____

>  <TORSDO>
F 13

$$$$
