=
 OpenBabel11042419073D

 57 62  0  0  1  0  0  0  0  0999 V2000
  191.8430  173.2460  144.8420 N   0  0  0  0  0  2  0  0  0  0  0  0
  190.4030  172.5950  143.1090 C   0  0  1  0  0  3  0  0  0  0  0  0
  189.9080  172.8770  141.7670 N   0  0  0  0  0  0  0  0  0  0  0  0
  191.7040  171.9090  143.0130 C   0  0  1  0  0  3  0  0  0  0  0  0
  189.9680  171.9270  140.8700 C   0  0  0  0  0  0  0  0  0  0  0  0
  192.2220  171.9670  144.3630 N   0  0  0  0  0  2  0  0  0  0  0  0
  190.7090  170.7150  141.1640 N   0  0  0  0  0  2  0  0  0  0  0  0
  191.4110  170.5300  142.4480 C   0  0  1  0  0  3  0  0  0  0  0  0
  190.7940  173.7700  143.9470 C   0  0  1  0  0  3  0  0  0  0  0  0
  189.2730  175.7180  144.3720 C   0  0  0  0  0  2  0  0  0  0  0  0
  190.0200  175.6190  146.5970 N   0  0  0  0  0  0  0  0  0  0  0  0
  189.7200  176.5640  145.5600 C   0  0  2  0  0  3  0  0  0  0  0  0
  189.6020  174.2790  144.7590 C   0  0  2  0  0  3  0  0  0  0  0  0
  189.9710  174.4070  146.1960 C   0  0  0  0  0  3  0  0  0  0  0  0
  188.6030  177.4910  146.0090 C   0  0  0  0  0  2  0  0  0  0  0  0
  185.5420  178.4950  146.1190 N   0  0  0  0  0  0  0  0  0  0  0  0
  186.6320  176.6720  147.2730 C   0  0  0  0  0  2  0  0  0  0  0  0
  186.2120  177.6330  145.1480 C   0  0  2  0  0  3  0  0  0  0  0  0
  185.7950  177.9250  147.4430 C   0  0  0  0  0  2  0  0  0  0  0  0
  187.2440  176.7960  145.8990 C   0  0  1  0  0  3  0  0  0  0  0  0
  183.7910  179.1080  144.6450 O   0  0  0  0  0  1  0  0  0  0  0  0
  184.0990  178.4890  145.8610 C   0  0  0  0  0  2  0  0  0  0  0  0
  186.7680  178.4580  143.9810 C   0  0  0  0  0  2  0  0  0  0  0  0
  185.7050  178.5430  141.7720 O   0  0  0  0  0  0  0  0  0  0  0  0
  186.5570  177.8080  142.6070 C   0  0  1  0  0  3  0  0  0  0  0  0
  187.8050  177.4280  141.8280 C   0  0  1  0  0  3  0  0  0  0  0  0
  187.2850  177.3600  140.4230 C   0  0  2  0  0  3  0  0  0  0  0  0
  185.9140  178.0130  140.4850 C   0  0  0  0  0  2  0  0  0  0  0  0
  187.1430  176.0250  140.0410 O   0  0  0  0  0  1  0  0  0  0  0  0
  188.8930  178.4910  141.8800 C   0  0  0  0  0  1  0  0  0  0  0  0
  189.7490  171.0250  138.5810 C   0  0  0  0  0  3  0  0  0  0  0  0
  190.1670  173.3010  138.8080 C   0  0  0  0  0  3  0  0  0  0  0  0
  190.5120  171.4470  137.5870 C   0  0  0  0  0  0  0  0  0  0  0  0
  190.7800  172.8680  137.7170 C   0  0  0  0  0  3  0  0  0  0  0  0
  189.4400  172.1770  139.4840 C   0  0  2  0  0  3  0  0  0  0  0  0
  191.4680  171.1060  135.4520 O   0  0  0  0  0  0  0  0  0  0  0  0
  191.0220  170.5890  136.5100 C   0  0  0  0  0  0  0  0  0  0  0  0
  191.0270  169.1720  136.6560 N   0  0  0  0  0  1  0  0  0  0  0  0
  192.7030  169.7650  142.2300 C   0  0  0  0  0  2  0  0  0  0  0  0
  193.4750  170.3620  141.0690 C   0  0  0  0  0  2  0  0  0  0  0  0
  194.9520  170.3920  141.4140 C   0  0  0  0  0  2  0  0  0  0  0  0
  195.1570  170.4300  142.9210 C   0  0  0  0  0  2  0  0  0  0  0  0
  196.6560  172.2410  142.5460 O   0  0  0  0  0  0  0  0  0  0  0  0
  195.6620  172.2020  144.6600 N   0  0  0  0  0  2  0  0  0  0  0  0
  195.8790  171.6650  143.3540 C   0  0  0  0  0  0  0  0  0  0  0  0
  196.3180  173.4200  145.1060 C   0  0  0  0  0  2  0  0  0  0  0  0
  195.2670  174.4240  145.5540 C   0  0  0  0  0  2  0  0  0  0  0  0
  195.3850  175.7660  144.8300 C   0  0  2  0  0  3  0  0  0  0  0  0
  194.4480  176.8090  145.3590 C   0  0  0  0  0  0  0  0  0  0  0  0
  193.0800  176.5670  145.4440 O   0  0  0  0  0  0  0  0  0  0  0  0
  194.9060  177.9180  145.7360 O   0  0  0  0  0  1  0  0  0  0  0  0
  195.4310  175.6330  143.2970 C   0  0  2  0  0  3  0  0  0  0  0  0
  196.4080  176.5520  142.6230 C   0  0  0  0  0  0  0  0  0  0  0  0
  197.4970  176.8250  143.1910 O   0  0  0  0  0  1  0  0  0  0  0  0
  196.1370  177.0790  141.3660 O   0  0  0  0  0  0  0  0  0  0  0  0
  194.1680  175.5650  142.6700 O   0  0  0  0  0  0  0  0  0  0  0  0
  194.0400  174.3490  142.1710 O   0  0  0  0  0  1  0  0  0  0  0  0
  2  3  1  6  0  0  0
  2  9  1  0  0  0  0
  4  2  1  0  0  0  0
  4  6  1  1  0  0  0
  5  7  1  0  0  0  0
  5  3  2  0  0  0  0
  6  1  1  0  0  0  0
  7  8  1  0  0  0  0
  8 39  1  6  0  0  0
  8  4  1  0  0  0  0
  9 13  1  0  0  0  0
  9  1  1  1  0  0  0
 10 12  1  0  0  0  0
 12 15  1  1  0  0  0
 12 11  1  0  0  0  0
 13 10  1  6  0  0  0
 13 14  1  0  0  0  0
 14 11  2  0  0  0  0
 16 19  1  0  0  0  0
 17 19  1  0  0  0  0
 18 23  1  6  0  0  0
 18 20  1  0  0  0  0
 18 16  1  0  0  0  0
 20 15  1  1  0  0  0
 20 17  1  0  0  0  0
 21 22  1  0  0  0  0
 22 16  1  0  0  0  0
 24 25  1  0  0  0  0
 25 23  1  1  0  0  0
 26 30  1  6  0  0  0
 26 25  1  0  0  0  0
 27 29  1  1  0  0  0
 27 28  1  0  0  0  0
 27 26  1  0  0  0  0
 28 24  1  0  0  0  0
 31 35  1  0  0  0  0
 32 35  1  0  0  0  0
 33 34  1  0  0  0  0
 33 31  2  0  0  0  0
 34 32  2  0  0  0  0
 35  5  1  1  0  0  0
 36 37  2  0  0  0  0
 37 38  1  0  0  0  0
 37 33  1  0  0  0  0
 40 41  1  0  0  0  0
 40 39  1  0  0  0  0
 41 42  1  0  0  0  0
 42 45  1  0  0  0  0
 43 45  2  0  0  0  0
 44 46  1  0  0  0  0
 45 44  1  0  0  0  0
 46 47  1  0  0  0  0
 48 49  1  0  0  0  0
 48 47  1  1  0  0  0
 49 50  2  0  0  0  0
 49 51  1  0  0  0  0
 52 53  1  6  0  0  0
 52 48  1  0  0  0  0
 53 54  1  0  0  0  0
 55 53  2  0  0  0  0
 56 52  1  0  0  0  0
 57 56  1  0  0  0  0
M  END
>  <MODEL>
1

>  <REMARK>
 VINA RESULT:      -6.8      0.000      0.000
  Name = 
  20 active torsions:
  status: ('A' for Active; 'I' for Inactive)
    1  A    between atoms: C_2  and  C_10
    2  A    between atoms: C_2  and  C_29
    3  A    between atoms: C_2  and  C_51
    4  A    between atoms: N_3  and  C_31
    5  A    between atoms: N_4  and  C_36
    6  A    between atoms: O_7  and  C_51
    7  A    between atoms: C_8  and  C_51
    8  A    between atoms: C_13  and  C_52
    9  A    between atoms: C_13  and  C_55
   10  A    between atoms: C_14  and  C_38
   11  A    between atoms: C_16  and  C_38
   12  A    between atoms: C_21  and  C_41
   13  A    between atoms: C_24  and  C_39
   14  A    between atoms: C_24  and  C_53
   15  A    between atoms: C_29  and  C_31
   16  A    between atoms: C_33  and  C_40
   17  A    between atoms: C_33  and  C_57
   18  A    between atoms: C_35  and  C_47
   19  A    between atoms: C_39  and  C_52
   20  A    between atoms: C_48  and  C_54
                            x       y       z     vdW  Elec       q    Type
                         _______ _______ _______ _____ _____    ______ ____

>  <TORSDO>
F 20

$$$$
=
 OpenBabel11042419073D

 57 62  0  0  1  0  0  0  0  0999 V2000
  191.9050  175.7070  146.7770 N   0  0  0  0  0  2  0  0  0  0  0  0
  192.6120  175.7230  144.5420 C   0  0  1  0  0  3  0  0  0  0  0  0
  193.4020  176.4000  143.5190 N   0  0  0  0  0  0  0  0  0  0  0  0
  193.5050  174.9050  145.3820 C   0  0  1  0  0  3  0  0  0  0  0  0
  194.2970  175.7060  142.8650 C   0  0  0  0  0  0  0  0  0  0  0  0
  192.6770  174.5490  146.5150 N   0  0  0  0  0  2  0  0  0  0  0  0
  194.6270  174.3670  143.3120 N   0  0  0  0  0  2  0  0  0  0  0  0
  193.9890  173.7680  144.4990 C   0  0  1  0  0  3  0  0  0  0  0  0
  191.9860  176.5820  145.5930 C   0  0  1  0  0  3  0  0  0  0  0  0
  189.8970  175.9350  144.3660 C   0  0  0  0  0  2  0  0  0  0  0  0
  190.3020  177.8050  143.0030 N   0  0  0  0  0  0  0  0  0  0  0  0
  189.8830  176.4350  142.9250 C   0  0  2  0  0  3  0  0  0  0  0  0
  190.5900  177.0360  145.1640 C   0  0  2  0  0  3  0  0  0  0  0  0
  190.6860  178.1430  144.1730 C   0  0  0  0  0  3  0  0  0  0  0  0
  188.4830  176.3520  142.3410 C   0  0  0  0  0  2  0  0  0  0  0  0
  185.5290  177.4880  141.7300 N   0  0  0  0  0  0  0  0  0  0  0  0
  187.6460  177.9910  140.6780 C   0  0  0  0  0  2  0  0  0  0  0  0
  186.4970  177.8920  142.7480 C   0  0  2  0  0  3  0  0  0  0  0  0
  186.2190  177.5340  140.4410 C   0  0  0  0  0  2  0  0  0  0  0  0
  187.8930  177.7510  142.1470 C   0  0  1  0  0  3  0  0  0  0  0  0
  183.2840  177.9240  142.3540 O   0  0  0  0  0  1  0  0  0  0  0  0
  184.4150  178.4410  141.7130 C   0  0  0  0  0  2  0  0  0  0  0  0
  186.2690  177.1180  144.0520 C   0  0  0  0  0  2  0  0  0  0  0  0
  184.5100  177.8080  145.6160 O   0  0  0  0  0  0  0  0  0  0  0  0
  185.8420  178.0020  145.2320 C   0  0  1  0  0  3  0  0  0  0  0  0
  186.7240  177.9690  146.4690 C   0  0  1  0  0  3  0  0  0  0  0  0
  185.7850  178.4570  147.5320 C   0  0  2  0  0  3  0  0  0  0  0  0
  184.4090  178.4040  146.8870 C   0  0  0  0  0  2  0  0  0  0  0  0
  186.0920  179.7780  147.8570 O   0  0  0  0  0  1  0  0  0  0  0  0
  187.1790  176.5660  146.8440 C   0  0  0  0  0  1  0  0  0  0  0  0
  194.8120  175.7610  140.4500 C   0  0  0  0  0  3  0  0  0  0  0  0
  196.5710  176.0830  141.9350 C   0  0  0  0  0  3  0  0  0  0  0  0
  195.9210  175.2350  139.9590 C   0  0  0  0  0  0  0  0  0  0  0  0
  197.0290  175.4300  140.8780 C   0  0  0  0  0  3  0  0  0  0  0  0
  195.1070  176.3690  141.7850 C   0  0  2  0  0  3  0  0  0  0  0  0
  195.6640  173.3350  138.5750 O   0  0  0  0  0  0  0  0  0  0  0  0
  196.0120  174.5420  138.6680 C   0  0  0  0  0  0  0  0  0  0  0  0
  196.4820  175.2280  137.5110 N   0  0  0  0  0  1  0  0  0  0  0  0
  194.9870  172.9070  145.2490 C   0  0  0  0  0  2  0  0  0  0  0  0
  194.3860  171.5460  145.5450 C   0  0  0  0  0  2  0  0  0  0  0  0
  195.2260  170.4720  144.8800 C   0  0  0  0  0  2  0  0  0  0  0  0
  195.0420  170.4980  143.3700 C   0  0  0  0  0  2  0  0  0  0  0  0
  193.2350  168.9500  143.2780 O   0  0  0  0  0  0  0  0  0  0  0  0
  192.8150  171.0190  142.2790 N   0  0  0  0  0  2  0  0  0  0  0  0
  193.6580  170.0970  142.9710 C   0  0  0  0  0  0  0  0  0  0  0  0
  191.4520  170.6800  141.9050 C   0  0  0  0  0  2  0  0  0  0  0  0
  190.5640  171.9030  142.0710 C   0  0  0  0  0  2  0  0  0  0  0  0
  190.2460  172.5890  140.7420 C   0  0  2  0  0  3  0  0  0  0  0  0
  188.8520  173.1360  140.6750 C   0  0  0  0  0  0  0  0  0  0  0  0
  187.8950  172.7750  141.6190 O   0  0  0  0  0  1  0  0  0  0  0  0
  188.5450  173.9380  139.7560 O   0  0  0  0  0  0  0  0  0  0  0  0
  190.7010  171.7840  139.5120 C   0  0  2  0  0  3  0  0  0  0  0  0
  191.6510  172.5150  138.6080 C   0  0  0  0  0  0  0  0  0  0  0  0
  191.8200  172.1110  137.4290 O   0  0  0  0  0  0  0  0  0  0  0  0
  192.3200  173.6500  139.0490 O   0  0  0  0  0  1  0  0  0  0  0  0
  189.6680  171.0970  138.8380 O   0  0  0  0  0  0  0  0  0  0  0  0
  189.9760  169.8130  138.8500 O   0  0  0  0  0  1  0  0  0  0  0  0
  2  3  1  6  0  0  0
  2  4  1  0  0  0  0
  2  9  1  0  0  0  0
  4  6  1  1  0  0  0
  5  7  1  0  0  0  0
  5  3  2  0  0  0  0
  6  1  1  0  0  0  0
  7  8  1  0  0  0  0
  8 39  1  1  0  0  0
  8  4  1  0  0  0  0
  9  1  1  1  0  0  0
 10 13  1  0  0  0  0
 11 14  2  0  0  0  0
 12 15  1  1  0  0  0
 12 11  1  0  0  0  0
 12 10  1  0  0  0  0
 13 14  1  6  0  0  0
 13  9  1  0  0  0  0
 16 18  1  0  0  0  0
 17 20  1  0  0  0  0
 18 23  1  1  0  0  0
 19 17  1  0  0  0  0
 19 16  1  0  0  0  0
 20 15  1  6  0  0  0
 20 18  1  0  0  0  0
 22 16  1  0  0  0  0
 22 21  1  0  0  0  0
 24 28  1  0  0  0  0
 25 23  1  6  0  0  0
 25 24  1  0  0  0  0
 25 26  1  0  0  0  0
 26 30  1  1  0  0  0
 26 27  1  0  0  0  0
 27 29  1  6  0  0  0
 28 27  1  0  0  0  0
 31 35  1  0  0  0  0
 33 31  2  0  0  0  0
 33 34  1  0  0  0  0
 34 32  2  0  0  0  0
 35 32  1  0  0  0  0
 35  5  1  1  0  0  0
 36 37  2  0  0  0  0
 37 33  1  0  0  0  0
 38 37  1  0  0  0  0
 39 40  1  0  0  0  0
 41 40  1  0  0  0  0
 42 41  1  0  0  0  0
 44 45  1  0  0  0  0
 45 43  2  0  0  0  0
 45 42  1  0  0  0  0
 46 47  1  0  0  0  0
 46 44  1  0  0  0  0
 48 47  1  1  0  0  0
 49 48  1  0  0  0  0
 49 50  1  0  0  0  0
 51 49  2  0  0  0  0
 52 53  1  6  0  0  0
 52 48  1  0  0  0  0
 53 55  1  0  0  0  0
 54 53  2  0  0  0  0
 56 57  1  0  0  0  0
 56 52  1  0  0  0  0
M  END
>  <MODEL>
2

>  <REMARK>
 VINA RESULT:      -6.6      2.744      5.725
  Name = 
  20 active torsions:
  status: ('A' for Active; 'I' for Inactive)
    1  A    between atoms: C_2  and  C_10
    2  A    between atoms: C_2  and  C_29
    3  A    between atoms: C_2  and  C_51
    4  A    between atoms: N_3  and  C_31
    5  A    between atoms: N_4  and  C_36
    6  A    between atoms: O_7  and  C_51
    7  A    between atoms: C_8  and  C_51
    8  A    between atoms: C_13  and  C_52
    9  A    between atoms: C_13  and  C_55
   10  A    between atoms: C_14  and  C_38
   11  A    between atoms: C_16  and  C_38
   12  A    between atoms: C_21  and  C_41
   13  A    between atoms: C_24  and  C_39
   14  A    between atoms: C_24  and  C_53
   15  A    between atoms: C_29  and  C_31
   16  A    between atoms: C_33  and  C_40
   17  A    between atoms: C_33  and  C_57
   18  A    between atoms: C_35  and  C_47
   19  A    between atoms: C_39  and  C_52
   20  A    between atoms: C_48  and  C_54
                            x       y       z     vdW  Elec       q    Type
                         _______ _______ _______ _____ _____    ______ ____

>  <TORSDO>
F 20

$$$$
=
 OpenBabel11042419073D

 57 62  0  0  1  0  0  0  0  0999 V2000
  190.9930  174.9110  143.3930 N   0  0  0  0  0  2  0  0  0  0  0  0
  193.1610  175.2490  144.2210 C   0  0  1  0  0  3  0  0  0  0  0  0
  194.3750  174.6330  144.7400 N   0  0  0  0  0  0  0  0  0  0  0  0
  193.1570  175.1500  142.7500 C   0  0  1  0  0  3  0  0  0  0  0  0
  195.5140  174.9180  144.1630 C   0  0  0  0  0  0  0  0  0  0  0  0
  191.8000  175.4990  142.3870 N   0  0  0  0  0  2  0  0  0  0  0  0
  195.5140  175.6520  142.9120 N   0  0  0  0  0  2  0  0  0  0  0  0
  194.2590  176.0750  142.2630 C   0  0  1  0  0  3  0  0  0  0  0  0
  191.8680  174.5640  144.5280 C   0  0  1  0  0  3  0  0  0  0  0  0
  189.7840  175.3600  145.6730 C   0  0  0  0  0  2  0  0  0  0  0  0
  190.9510  177.3600  146.0710 N   0  0  0  0  0  0  0  0  0  0  0  0
  189.6590  176.8800  145.6750 C   0  0  2  0  0  3  0  0  0  0  0  0
  191.2760  175.0820  145.8390 C   0  0  2  0  0  3  0  0  0  0  0  0
  191.8220  176.4300  146.1580 C   0  0  0  0  0  3  0  0  0  0  0  0
  188.6070  177.3310  146.6750 C   0  0  0  0  0  2  0  0  0  0  0  0
  185.5730  178.3760  146.3690 N   0  0  0  0  0  0  0  0  0  0  0  0
  186.4760  176.5530  147.6750 C   0  0  0  0  0  2  0  0  0  0  0  0
  186.3530  177.4930  145.5040 C   0  0  2  0  0  3  0  0  0  0  0  0
  185.6410  177.8190  147.7210 C   0  0  0  0  0  2  0  0  0  0  0  0
  187.2650  176.6530  146.3930 C   0  0  1  0  0  3  0  0  0  0  0  0
  184.0800  178.5800  144.5400 O   0  0  0  0  0  1  0  0  0  0  0  0
  184.1780  178.3850  145.9230 C   0  0  0  0  0  2  0  0  0  0  0  0
  187.0700  178.2970  144.4130 C   0  0  0  0  0  2  0  0  0  0  0  0
  186.0660  178.6860  142.2080 O   0  0  0  0  0  0  0  0  0  0  0  0
  186.8030  177.7870  142.9900 C   0  0  1  0  0  3  0  0  0  0  0  0
  188.0070  177.3100  142.1940 C   0  0  1  0  0  3  0  0  0  0  0  0
  187.5070  177.4160  140.7840 C   0  0  2  0  0  3  0  0  0  0  0  0
  186.2290  178.2330  140.8860 C   0  0  0  0  0  2  0  0  0  0  0  0
  187.2040  176.1440  140.2980 O   0  0  0  0  0  1  0  0  0  0  0  0
  189.2190  178.2180  142.3370 C   0  0  0  0  0  1  0  0  0  0  0  0
  197.1170  173.0490  143.9760 C   0  0  0  0  0  3  0  0  0  0  0  0
  196.6300  173.8430  146.1070 C   0  0  0  0  0  3  0  0  0  0  0  0
  197.1350  172.0540  144.8460 C   0  0  0  0  0  0  0  0  0  0  0  0
  196.8330  172.5370  146.1820 C   0  0  0  0  0  3  0  0  0  0  0  0
  196.7880  174.3200  144.6940 C   0  0  2  0  0  3  0  0  0  0  0  0
  197.1860  169.7420  145.3380 O   0  0  0  0  0  0  0  0  0  0  0  0
  197.4130  170.6540  144.5010 C   0  0  0  0  0  0  0  0  0  0  0  0
  197.9310  170.3150  143.2170 N   0  0  0  0  0  1  0  0  0  0  0  0
  194.3950  175.9830  140.7550 C   0  0  0  0  0  2  0  0  0  0  0  0
  195.7910  175.5190  140.3830 C   0  0  0  0  0  2  0  0  0  0  0  0
  195.7670  174.9350  138.9830 C   0  0  0  0  0  2  0  0  0  0  0  0
  196.3470  173.5280  138.9730 C   0  0  0  0  0  2  0  0  0  0  0  0
  196.1580  171.9550  140.7510 O   0  0  0  0  0  0  0  0  0  0  0  0
  194.1520  172.4690  139.6700 N   0  0  0  0  0  2  0  0  0  0  0  0
  195.5640  172.5990  139.8450 C   0  0  0  0  0  0  0  0  0  0  0  0
  193.3510  171.6030  140.5180 C   0  0  0  0  0  2  0  0  0  0  0  0
  191.9910  172.2430  140.7510 C   0  0  0  0  0  2  0  0  0  0  0  0
  190.8410  171.2400  140.6590 C   0  0  2  0  0  3  0  0  0  0  0  0
  190.8170  170.4820  139.3650 C   0  0  0  0  0  0  0  0  0  0  0  0
  190.8110  171.1500  138.1450 O   0  0  0  0  0  0  0  0  0  0  0  0
  190.8080  169.2250  139.3850 O   0  0  0  0  0  1  0  0  0  0  0  0
  189.4880  171.8140  141.1150 C   0  0  2  0  0  3  0  0  0  0  0  0
  188.9440  172.8990  140.2320 C   0  0  0  0  0  0  0  0  0  0  0  0
  189.4240  174.0600  140.3070 O   0  0  0  0  0  1  0  0  0  0  0  0
  187.9390  172.6290  139.3110 O   0  0  0  0  0  0  0  0  0  0  0  0
  189.3970  172.0880  142.4970 O   0  0  0  0  0  0  0  0  0  0  0  0
  190.0930  171.1610  143.1300 O   0  0  0  0  0  1  0  0  0  0  0  0
  2  9  1  0  0  0  0
  2  3  1  1  0  0  0
  4  6  1  6  0  0  0
  4  2  1  0  0  0  0
  5  3  2  0  0  0  0
  6  1  1  0  0  0  0
  7  5  1  0  0  0  0
  8 39  1  6  0  0  0
  8  4  1  0  0  0  0
  8  7  1  0  0  0  0
  9  1  1  6  0  0  0
  9 13  1  0  0  0  0
 10 12  1  0  0  0  0
 11 14  2  0  0  0  0
 12 11  1  0  0  0  0
 12 15  1  1  0  0  0
 13 10  1  6  0  0  0
 13 14  1  0  0  0  0
 16 19  1  0  0  0  0
 17 19  1  0  0  0  0
 18 23  1  6  0  0  0
 18 16  1  0  0  0  0
 18 20  1  0  0  0  0
 20 15  1  1  0  0  0
 20 17  1  0  0  0  0
 21 22  1  0  0  0  0
 22 16  1  0  0  0  0
 24 25  1  0  0  0  0
 25 23  1  1  0  0  0
 26 30  1  6  0  0  0
 26 25  1  0  0  0  0
 27 29  1  1  0  0  0
 27 28  1  0  0  0  0
 27 26  1  0  0  0  0
 28 24  1  0  0  0  0
 31 35  1  0  0  0  0
 31 33  2  0  0  0  0
 32 34  2  0  0  0  0
 33 34  1  0  0  0  0
 35  5  1  6  0  0  0
 35 32  1  0  0  0  0
 37 33  1  0  0  0  0
 37 36  2  0  0  0  0
 38 37  1  0  0  0  0
 40 39  1  0  0  0  0
 41 40  1  0  0  0  0
 42 41  1  0  0  0  0
 42 45  1  0  0  0  0
 44 45  1  0  0  0  0
 44 46  1  0  0  0  0
 45 43  2  0  0  0  0
 46 47  1  0  0  0  0
 48 47  1  6  0  0  0
 48 52  1  0  0  0  0
 49 51  1  0  0  0  0
 49 48  1  0  0  0  0
 50 49  2  0  0  0  0
 52 53  1  6  0  0  0
 52 56  1  0  0  0  0
 53 54  1  0  0  0  0
 55 53  2  0  0  0  0
 56 57  1  0  0  0  0
M  END
>  <MODEL>
3

>  <REMARK>
 VINA RESULT:      -6.0      2.599      5.963
  Name = 
  20 active torsions:
  status: ('A' for Active; 'I' for Inactive)
    1  A    between atoms: C_2  and  C_10
    2  A    between atoms: C_2  and  C_29
    3  A    between atoms: C_2  and  C_51
    4  A    between atoms: N_3  and  C_31
    5  A    between atoms: N_4  and  C_36
    6  A    between atoms: O_7  and  C_51
    7  A    between atoms: C_8  and  C_51
    8  A    between atoms: C_13  and  C_52
    9  A    between atoms: C_13  and  C_55
   10  A    between atoms: C_14  and  C_38
   11  A    between atoms: C_16  and  C_38
   12  A    between atoms: C_21  and  C_41
   13  A    between atoms: C_24  and  C_39
   14  A    between atoms: C_24  and  C_53
   15  A    between atoms: C_29  and  C_31
   16  A    between atoms: C_33  and  C_40
   17  A    between atoms: C_33  and  C_57
   18  A    between atoms: C_35  and  C_47
   19  A    between atoms: C_39  and  C_52
   20  A    between atoms: C_48  and  C_54
                            x       y       z     vdW  Elec       q    Type
                         _______ _______ _______ _____ _____    ______ ____

>  <TORSDO>
F 20

$$$$
=
 OpenBabel11042419073D

 57 62  0  0  1  0  0  0  0  0999 V2000
  196.8150  176.7970  142.6550 N   0  0  0  0  0  2  0  0  0  0  0  0
  196.0020  174.5990  142.7220 C   0  0  1  0  0  3  0  0  0  0  0  0
  196.3300  173.1820  142.8170 N   0  0  0  0  0  0  0  0  0  0  0  0
  196.0420  175.1980  144.0680 C   0  0  1  0  0  3  0  0  0  0  0  0
  195.7590  172.4730  143.7560 C   0  0  0  0  0  0  0  0  0  0  0  0
  196.0130  176.6220  143.8100 N   0  0  0  0  0  2  0  0  0  0  0  0
  194.9990  173.1440  144.7930 N   0  0  0  0  0  2  0  0  0  0  0  0
  194.8630  174.6120  144.8250 C   0  0  1  0  0  3  0  0  0  0  0  0
  196.9870  175.4770  142.0200 C   0  0  1  0  0  3  0  0  0  0  0  0
  195.3420  174.8810  140.2240 C   0  0  0  0  0  2  0  0  0  0  0  0
  197.1050  173.7000  139.2160 N   0  0  0  0  0  0  0  0  0  0  0  0
  195.7050  173.5870  139.5020 C   0  0  2  0  0  3  0  0  0  0  0  0
  196.6770  175.5570  140.5250 C   0  0  2  0  0  3  0  0  0  0  0  0
  197.6420  174.7290  139.7500 C   0  0  0  0  0  3  0  0  0  0  0  0
  194.9190  173.4550  138.2080 C   0  0  0  0  0  2  0  0  0  0  0  0
  192.0420  173.1450  136.7880 N   0  0  0  0  0  0  0  0  0  0  0  0
  193.4350  175.0970  137.0890 C   0  0  0  0  0  2  0  0  0  0  0  0
  192.3780  173.2920  138.2030 C   0  0  2  0  0  3  0  0  0  0  0  0
  192.6910  174.2460  136.0770 C   0  0  0  0  0  2  0  0  0  0  0  0
  193.5920  174.2120  138.3010 C   0  0  1  0  0  3  0  0  0  0  0  0
  190.0200  174.0920  137.5850 O   0  0  0  0  0  1  0  0  0  0  0  0
  190.5900  173.2540  136.6210 C   0  0  0  0  0  2  0  0  0  0  0  0
  192.5470  171.9200  138.8670 C   0  0  0  0  0  2  0  0  0  0  0  0
  191.2600  172.8860  140.7190 O   0  0  0  0  0  0  0  0  0  0  0  0
  192.1960  171.9080  140.3610 C   0  0  1  0  0  3  0  0  0  0  0  0
  191.7710  170.5750  140.9550 C   0  0  1  0  0  3  0  0  0  0  0  0
  191.0180  171.0070  142.1780 C   0  0  2  0  0  3  0  0  0  0  0  0
  190.8030  172.5000  141.9930 C   0  0  0  0  0  2  0  0  0  0  0  0
  191.8020  170.7910  143.3120 O   0  0  0  0  0  1  0  0  0  0  0  0
  190.8170  169.7960  140.0610 C   0  0  0  0  0  1  0  0  0  0  0  0
  195.3410  170.3980  145.0290 C   0  0  0  0  0  3  0  0  0  0  0  0
  197.4910  170.7490  144.2170 C   0  0  0  0  0  3  0  0  0  0  0  0
  196.2310  169.9040  145.8730 C   0  0  0  0  0  0  0  0  0  0  0  0
  197.5790  170.1170  145.3770 C   0  0  0  0  0  3  0  0  0  0  0  0
  196.0570  171.0020  143.8620 C   0  0  2  0  0  3  0  0  0  0  0  0
  196.8100  168.9300  147.9480 O   0  0  0  0  0  0  0  0  0  0  0  0
  195.8960  169.2420  147.1400 C   0  0  0  0  0  0  0  0  0  0  0  0
  194.5390  168.9580  147.4700 N   0  0  0  0  0  1  0  0  0  0  0  0
  194.8610  175.1040  146.2600 C   0  0  0  0  0  2  0  0  0  0  0  0
  193.6520  175.9850  146.5100 C   0  0  0  0  0  2  0  0  0  0  0  0
  192.3950  175.1390  146.4450 C   0  0  0  0  0  2  0  0  0  0  0  0
  191.4950  175.4150  147.6410 C   0  0  0  0  0  2  0  0  0  0  0  0
  189.3140  174.5250  147.2920 O   0  0  0  0  0  0  0  0  0  0  0  0
  189.5360  176.8050  146.8360 N   0  0  0  0  0  2  0  0  0  0  0  0
  190.0600  175.5390  147.2410 C   0  0  0  0  0  0  0  0  0  0  0  0
  188.1400  176.9750  146.4710 C   0  0  0  0  0  2  0  0  0  0  0  0
  188.0470  177.8200  145.2100 C   0  0  0  0  0  2  0  0  0  0  0  0
  187.7620  176.9880  143.9590 C   0  0  2  0  0  3  0  0  0  0  0  0
  188.9590  176.2320  143.4650 C   0  0  0  0  0  0  0  0  0  0  0  0
  190.0300  176.8950  142.8720 O   0  0  0  0  0  0  0  0  0  0  0  0
  188.9970  174.9820  143.5930 O   0  0  0  0  0  1  0  0  0  0  0  0
  186.9690  177.7500  142.8830 C   0  0  2  0  0  3  0  0  0  0  0  0
  185.7490  178.4590  143.3960 C   0  0  0  0  0  0  0  0  0  0  0  0
  184.6560  177.8410  143.4680 O   0  0  0  0  0  0  0  0  0  0  0  0
  185.8220  179.7800  143.8220 O   0  0  0  0  0  1  0  0  0  0  0  0
  186.7660  177.0370  141.6810 O   0  0  0  0  0  0  0  0  0  0  0  0
  186.8800  177.8990  140.6870 O   0  0  0  0  0  1  0  0  0  0  0  0
  1  6  1  0  0  0  0
  2  3  1  1  0  0  0
  2  4  1  0  0  0  0
  3  5  2  0  0  0  0
  4  6  1  6  0  0  0
  4  8  1  0  0  0  0
  5  7  1  0  0  0  0
  7  8  1  0  0  0  0
  8 39  1  1  0  0  0
  9  1  1  1  0  0  0
  9  2  1  0  0  0  0
 10 13  1  0  0  0  0
 11 12  1  0  0  0  0
 11 14  2  0  0  0  0
 12 15  1  6  0  0  0
 12 10  1  0  0  0  0
 13 14  1  6  0  0  0
 13  9  1  0  0  0  0
 16 18  1  0  0  0  0
 17 20  1  0  0  0  0
 18 20  1  0  0  0  0
 18 23  1  6  0  0  0
 19 16  1  0  0  0  0
 19 17  1  0  0  0  0
 20 15  1  6  0  0  0
 22 16  1  0  0  0  0
 22 21  1  0  0  0  0
 24 28  1  0  0  0  0
 25 23  1  6  0  0  0
 25 24  1  0  0  0  0
 25 26  1  0  0  0  0
 26 30  1  6  0  0  0
 26 27  1  0  0  0  0
 27 29  1  1  0  0  0
 28 27  1  0  0  0  0
 31 33  2  0  0  0  0
 32 34  2  0  0  0  0
 33 37  1  0  0  0  0
 34 33  1  0  0  0  0
 35  5  1  1  0  0  0
 35 32  1  0  0  0  0
 35 31  1  0  0  0  0
 37 38  1  0  0  0  0
 37 36  2  0  0  0  0
 39 40  1  0  0  0  0
 41 40  1  0  0  0  0
 41 42  1  0  0  0  0
 44 45  1  0  0  0  0
 45 43  2  0  0  0  0
 45 42  1  0  0  0  0
 46 44  1  0  0  0  0
 47 46  1  0  0  0  0
 48 47  1  1  0  0  0
 49 51  1  0  0  0  0
 49 48  1  0  0  0  0
 50 49  2  0  0  0  0
 52 56  1  6  0  0  0
 52 53  1  0  0  0  0
 52 48  1  0  0  0  0
 53 54  2  0  0  0  0
 53 55  1  0  0  0  0
 57 56  1  0  0  0  0
M  END
>  <MODEL>
4

>  <REMARK>
 VINA RESULT:      -6.0      2.892      9.039
  Name = 
  20 active torsions:
  status: ('A' for Active; 'I' for Inactive)
    1  A    between atoms: C_2  and  C_10
    2  A    between atoms: C_2  and  C_29
    3  A    between atoms: C_2  and  C_51
    4  A    between atoms: N_3  and  C_31
    5  A    between atoms: N_4  and  C_36
    6  A    between atoms: O_7  and  C_51
    7  A    between atoms: C_8  and  C_51
    8  A    between atoms: C_13  and  C_52
    9  A    between atoms: C_13  and  C_55
   10  A    between atoms: C_14  and  C_38
   11  A    between atoms: C_16  and  C_38
   12  A    between atoms: C_21  and  C_41
   13  A    between atoms: C_24  and  C_39
   14  A    between atoms: C_24  and  C_53
   15  A    between atoms: C_29  and  C_31
   16  A    between atoms: C_33  and  C_40
   17  A    between atoms: C_33  and  C_57
   18  A    between atoms: C_35  and  C_47
   19  A    between atoms: C_39  and  C_52
   20  A    between atoms: C_48  and  C_54
                            x       y       z     vdW  Elec       q    Type
                         _______ _______ _______ _____ _____    ______ ____

>  <TORSDO>
F 20

$$$$
=
 OpenBabel11042419073D

 57 62  0  0  1  0  0  0  0  0999 V2000
  193.4970  175.9750  145.4770 N   0  0  0  0  0  2  0  0  0  0  0  0
  194.0920  175.2020  143.3450 C   0  0  1  0  0  3  0  0  0  0  0  0
  194.8990  175.4230  142.1510 N   0  0  0  0  0  0  0  0  0  0  0  0
  194.9300  174.5900  144.3920 C   0  0  1  0  0  3  0  0  0  0  0  0
  195.6800  174.4570  141.7410 C   0  0  0  0  0  0  0  0  0  0  0  0
  194.1250  174.7100  145.5880 N   0  0  0  0  0  2  0  0  0  0  0  0
  195.8840  173.2980  142.5880 N   0  0  0  0  0  2  0  0  0  0  0  0
  195.2430  173.1840  143.9110 C   0  0  1  0  0  3  0  0  0  0  0  0
  193.6160  176.4160  144.0750 C   0  0  1  0  0  3  0  0  0  0  0  0
  191.5680  177.7830  144.5560 C   0  0  0  0  0  2  0  0  0  0  0  0
  190.3610  175.7850  144.2890 N   0  0  0  0  0  0  0  0  0  0  0  0
  190.4260  176.9480  145.1260 C   0  0  2  0  0  3  0  0  0  0  0  0
  192.2580  176.8750  143.5410 C   0  0  2  0  0  3  0  0  0  0  0  0
  191.3210  175.7210  143.4490 C   0  0  0  0  0  3  0  0  0  0  0  0
  189.1150  177.7130  145.0570 C   0  0  0  0  0  2  0  0  0  0  0  0
  186.0870  178.0980  146.0920 N   0  0  0  0  0  0  0  0  0  0  0  0
  187.7660  176.4830  146.7360 C   0  0  0  0  0  2  0  0  0  0  0  0
  186.5910  177.4160  144.9020 C   0  0  2  0  0  3  0  0  0  0  0  0
  186.8050  177.5430  147.2400 C   0  0  0  0  0  2  0  0  0  0  0  0
  187.9270  176.7710  145.2640 C   0  0  1  0  0  3  0  0  0  0  0  0
  184.4300  176.5720  146.8320 O   0  0  0  0  0  1  0  0  0  0  0  0
  184.6550  177.8200  146.2410 C   0  0  0  0  0  2  0  0  0  0  0  0
  186.6350  178.3730  143.7050 C   0  0  0  0  0  2  0  0  0  0  0  0
  185.6200  178.3450  141.4710 O   0  0  0  0  0  0  0  0  0  0  0  0
  186.4840  177.6740  142.3460 C   0  0  1  0  0  3  0  0  0  0  0  0
  187.7650  177.3260  141.6070 C   0  0  1  0  0  3  0  0  0  0  0  0
  187.2800  177.1920  140.1940 C   0  0  2  0  0  3  0  0  0  0  0  0
  185.8820  177.7860  140.2060 C   0  0  0  0  0  2  0  0  0  0  0  0
  187.2050  175.8420  139.8510 O   0  0  0  0  0  1  0  0  0  0  0  0
  188.8040  178.4360  141.6500 C   0  0  0  0  0  1  0  0  0  0  0  0
  195.6490  175.1050  139.3580 C   0  0  0  0  0  3  0  0  0  0  0  0
  197.0300  173.3400  139.9780 C   0  0  0  0  0  3  0  0  0  0  0  0
  195.7010  174.2080  138.3880 C   0  0  0  0  0  0  0  0  0  0  0  0
  196.5610  173.1000  138.7630 C   0  0  0  0  0  3  0  0  0  0  0  0
  196.5040  174.6450  140.4960 C   0  0  2  0  0  3  0  0  0  0  0  0
  195.5870  174.1440  136.0270 O   0  0  0  0  0  0  0  0  0  0  0  0
  194.9780  174.3170  137.1160 C   0  0  0  0  0  0  0  0  0  0  0  0
  193.5830  174.6100  137.1000 N   0  0  0  0  0  1  0  0  0  0  0  0
  196.1770  172.4900  144.8850 C   0  0  0  0  0  2  0  0  0  0  0  0
  195.4550  171.3530  145.5820 C   0  0  0  0  0  2  0  0  0  0  0  0
  196.1160  170.0380  145.2120 C   0  0  0  0  0  2  0  0  0  0  0  0
  195.6720  169.5790  143.8310 C   0  0  0  0  0  2  0  0  0  0  0  0
  193.6030  168.6290  144.5290 O   0  0  0  0  0  0  0  0  0  0  0  0
  193.4380  170.2030  142.8110 N   0  0  0  0  0  2  0  0  0  0  0  0
  194.1870  169.4260  143.7470 C   0  0  0  0  0  0  0  0  0  0  0  0
  191.9900  170.1090  142.7220 C   0  0  0  0  0  2  0  0  0  0  0  0
  191.5870  169.9070  141.2700 C   0  0  0  0  0  2  0  0  0  0  0  0
  190.5380  170.9150  140.8000 C   0  0  2  0  0  3  0  0  0  0  0  0
  190.3760  170.9530  139.3100 C   0  0  0  0  0  0  0  0  0  0  0  0
  191.3510  170.4210  138.4710 O   0  0  0  0  0  0  0  0  0  0  0  0
  189.3430  171.4690  138.8130 O   0  0  0  0  0  1  0  0  0  0  0  0
  190.6550  172.2870  141.4890 C   0  0  2  0  0  3  0  0  0  0  0  0
  189.4390  172.6970  142.2670 C   0  0  0  0  0  0  0  0  0  0  0  0
  188.7700  173.6940  141.8930 O   0  0  0  0  0  0  0  0  0  0  0  0
  189.0260  171.9690  143.3760 O   0  0  0  0  0  1  0  0  0  0  0  0
  191.2040  173.3090  140.6840 O   0  0  0  0  0  0  0  0  0  0  0  0
  192.5170  173.2400  140.8000 O   0  0  0  0  0  1  0  0  0  0  0  0
  1  6  1  0  0  0  0
  2  3  1  6  0  0  0
  2  9  1  0  0  0  0
  2  4  1  0  0  0  0
  4  6  1  1  0  0  0
  5  3  2  0  0  0  0
  5  7  1  0  0  0  0
  7  8  1  0  0  0  0
  8  4  1  0  0  0  0
  8 39  1  1  0  0  0
  9  1  1  1  0  0  0
 10 12  1  0  0  0  0
 11 12  1  0  0  0  0
 12 15  1  6  0  0  0
 13 14  1  1  0  0  0
 13  9  1  0  0  0  0
 13 10  1  0  0  0  0
 14 11  2  0  0  0  0
 16 22  1  0  0  0  0
 16 19  1  0  0  0  0
 17 19  1  0  0  0  0
 18 23  1  6  0  0  0
 18 20  1  0  0  0  0
 18 16  1  0  0  0  0
 20 15  1  1  0  0  0
 20 17  1  0  0  0  0
 22 21  1  0  0  0  0
 24 25  1  0  0  0  0
 25 23  1  1  0  0  0
 26 30  1  6  0  0  0
 26 25  1  0  0  0  0
 27 29  1  1  0  0  0
 27 28  1  0  0  0  0
 27 26  1  0  0  0  0
 28 24  1  0  0  0  0
 31 35  1  0  0  0  0
 32 35  1  0  0  0  0
 33 34  1  0  0  0  0
 33 31  2  0  0  0  0
 34 32  2  0  0  0  0
 35  5  1  1  0  0  0
 36 37  2  0  0  0  0
 37 33  1  0  0  0  0
 38 37  1  0  0  0  0
 39 40  1  0  0  0  0
 41 40  1  0  0  0  0
 42 41  1  0  0  0  0
 44 45  1  0  0  0  0
 45 42  1  0  0  0  0
 45 43  2  0  0  0  0
 46 44  1  0  0  0  0
 47 46  1  0  0  0  0
 48 47  1  6  0  0  0
 48 52  1  0  0  0  0
 49 48  1  0  0  0  0
 50 49  2  0  0  0  0
 51 49  1  0  0  0  0
 52 56  1  6  0  0  0
 52 53  1  0  0  0  0
 53 55  1  0  0  0  0
 54 53  2  0  0  0  0
 56 57  1  0  0  0  0
M  END
>  <MODEL>
5

>  <REMARK>
 VINA RESULT:      -5.9      2.646      5.038
  Name = 
  20 active torsions:
  status: ('A' for Active; 'I' for Inactive)
    1  A    between atoms: C_2  and  C_10
    2  A    between atoms: C_2  and  C_29
    3  A    between atoms: C_2  and  C_51
    4  A    between atoms: N_3  and  C_31
    5  A    between atoms: N_4  and  C_36
    6  A    between atoms: O_7  and  C_51
    7  A    between atoms: C_8  and  C_51
    8  A    between atoms: C_13  and  C_52
    9  A    between atoms: C_13  and  C_55
   10  A    between atoms: C_14  and  C_38
   11  A    between atoms: C_16  and  C_38
   12  A    between atoms: C_21  and  C_41
   13  A    between atoms: C_24  and  C_39
   14  A    between atoms: C_24  and  C_53
   15  A    between atoms: C_29  and  C_31
   16  A    between atoms: C_33  and  C_40
   17  A    between atoms: C_33  and  C_57
   18  A    between atoms: C_35  and  C_47
   19  A    between atoms: C_39  and  C_52
   20  A    between atoms: C_48  and  C_54
                            x       y       z     vdW  Elec       q    Type
                         _______ _______ _______ _____ _____    ______ ____

>  <TORSDO>
F 20

$$$$
=
 OpenBabel11042419073D

 57 62  0  0  1  0  0  0  0  0999 V2000
  190.3280  172.3440  143.2210 N   0  0  0  0  0  2  0  0  0  0  0  0
  189.7430  174.6070  143.0310 C   0  0  1  0  0  3  0  0  0  0  0  0
  188.6770  175.5730  142.7970 N   0  0  0  0  0  0  0  0  0  0  0  0
  189.6900  174.1540  144.4330 C   0  0  1  0  0  3  0  0  0  0  0  0
  188.4930  176.5210  143.6790 C   0  0  0  0  0  0  0  0  0  0  0  0
  190.5650  173.0020  144.4540 N   0  0  0  0  0  2  0  0  0  0  0  0
  189.1940  176.4610  144.9470 N   0  0  0  0  0  2  0  0  0  0  0  0
  190.1030  175.3470  145.2770 C   0  0  1  0  0  3  0  0  0  0  0  0
  189.6300  173.2900  142.3320 C   0  0  1  0  0  3  0  0  0  0  0  0
  189.3880  172.7700  139.8900 C   0  0  0  0  0  2  0  0  0  0  0  0
  191.2830  171.4070  140.1500 N   0  0  0  0  0  0  0  0  0  0  0  0
  189.9990  171.4240  139.5130 C   0  0  2  0  0  3  0  0  0  0  0  0
  190.3110  173.3410  140.9630 C   0  0  2  0  0  3  0  0  0  0  0  0
  191.4690  172.4050  140.9250 C   0  0  0  0  0  3  0  0  0  0  0  0
  190.1640  171.3120  138.0070 C   0  0  0  0  0  2  0  0  0  0  0  0
  191.9770  171.0680  135.3540 N   0  0  0  0  0  0  0  0  0  0  0  0
  191.1190  169.3530  136.8240 C   0  0  0  0  0  2  0  0  0  0  0  0
  192.3650  171.3660  136.7310 C   0  0  2  0  0  3  0  0  0  0  0  0
  191.1970  169.8300  135.3870 C   0  0  0  0  0  2  0  0  0  0  0  0
  191.4530  170.5660  137.6570 C   0  0  1  0  0  3  0  0  0  0  0  0
  193.9920  169.8500  135.0800 O   0  0  0  0  0  1  0  0  0  0  0  0
  193.1810  170.8570  134.5450 C   0  0  0  0  0  2  0  0  0  0  0  0
  192.3770  172.8790  136.9770 C   0  0  0  0  0  2  0  0  0  0  0  0
  194.7890  172.8350  137.4250 O   0  0  0  0  0  0  0  0  0  0  0  0
  193.5560  173.3580  137.8360 C   0  0  1  0  0  3  0  0  0  0  0  0
  193.6960  174.8590  138.0320 C   0  0  1  0  0  3  0  0  0  0  0  0
  195.1440  174.9890  138.4020 C   0  0  2  0  0  3  0  0  0  0  0  0
  195.7520  173.6380  138.0640 C   0  0  0  0  0  2  0  0  0  0  0  0
  195.2590  175.2170  139.7730 O   0  0  0  0  0  1  0  0  0  0  0  0
  193.4570  175.6570  136.7580 C   0  0  0  0  0  1  0  0  0  0  0  0
  187.1050  178.2790  144.7200 C   0  0  0  0  0  3  0  0  0  0  0  0
  186.1000  176.9140  143.1300 C   0  0  0  0  0  3  0  0  0  0  0  0
  185.8380  178.0750  145.0340 C   0  0  0  0  0  0  0  0  0  0  0  0
  185.1980  177.2230  144.0470 C   0  0  0  0  0  3  0  0  0  0  0  0
  187.4190  177.5500  143.4520 C   0  0  2  0  0  3  0  0  0  0  0  0
  185.8010  179.4160  146.9810 O   0  0  0  0  0  0  0  0  0  0  0  0
  185.1770  178.6280  146.2230 C   0  0  0  0  0  0  0  0  0  0  0  0
  183.8260  178.2880  146.5230 N   0  0  0  0  0  1  0  0  0  0  0  0
  190.0000  175.0100  146.7520 C   0  0  0  0  0  2  0  0  0  0  0  0
  191.1590  175.6280  147.5120 C   0  0  0  0  0  2  0  0  0  0  0  0
  192.4640  175.2110  146.8610 C   0  0  0  0  0  2  0  0  0  0  0  0
  193.3890  176.4070  146.6880 C   0  0  0  0  0  2  0  0  0  0  0  0
  194.9370  176.8490  144.9350 O   0  0  0  0  0  0  0  0  0  0  0  0
  195.3410  174.8880  146.1380 N   0  0  0  0  0  2  0  0  0  0  0  0
  194.5860  176.0690  145.8590 C   0  0  0  0  0  0  0  0  0  0  0  0
  196.5300  174.5420  145.3780 C   0  0  0  0  0  2  0  0  0  0  0  0
  197.0420  173.1840  145.8340 C   0  0  0  0  0  2  0  0  0  0  0  0
  196.2330  172.0220  145.2570 C   0  0  2  0  0  3  0  0  0  0  0  0
  196.8130  170.6770  145.5790 C   0  0  0  0  0  0  0  0  0  0  0  0
  196.7510  170.1630  146.8710 O   0  0  0  0  0  1  0  0  0  0  0  0
  197.3570  170.0040  144.6680 O   0  0  0  0  0  0  0  0  0  0  0  0
  195.8210  172.2310  143.7890 C   0  0  2  0  0  3  0  0  0  0  0  0
  194.5990  171.4670  143.3710 C   0  0  0  0  0  0  0  0  0  0  0  0
  193.6010  171.4250  144.1360 O   0  0  0  0  0  1  0  0  0  0  0  0
  194.5460  170.8320  142.1360 O   0  0  0  0  0  0  0  0  0  0  0  0
  196.8860  172.1790  142.8620 O   0  0  0  0  0  0  0  0  0  0  0  0
  196.7870  173.2440  142.0880 O   0  0  0  0  0  1  0  0  0  0  0  0
  1  6  1  0  0  0  0
  2  3  1  6  0  0  0
  2  4  1  0  0  0  0
  3  5  2  0  0  0  0
  4  6  1  6  0  0  0
  4  8  1  0  0  0  0
  5  7  1  0  0  0  0
  7  8  1  0  0  0  0
  8 39  1  1  0  0  0
  9  2  1  0  0  0  0
  9  1  1  1  0  0  0
 11 14  2  0  0  0  0
 12 15  1  6  0  0  0
 12 10  1  0  0  0  0
 12 11  1  0  0  0  0
 13 10  1  6  0  0  0
 13  9  1  0  0  0  0
 14 13  1  0  0  0  0
 16 19  1  0  0  0  0
 16 18  1  0  0  0  0
 17 20  1  0  0  0  0
 18 23  1  1  0  0  0
 18 20  1  0  0  0  0
 19 17  1  0  0  0  0
 20 15  1  6  0  0  0
 22 21  1  0  0  0  0
 22 16  1  0  0  0  0
 24 25  1  0  0  0  0
 24 28  1  0  0  0  0
 25 23  1  6  0  0  0
 25 26  1  0  0  0  0
 26 30  1  6  0  0  0
 26 27  1  0  0  0  0
 27 29  1  1  0  0  0
 28 27  1  0  0  0  0
 31 33  2  0  0  0  0
 32 35  1  0  0  0  0
 32 34  2  0  0  0  0
 33 37  1  0  0  0  0
 34 33  1  0  0  0  0
 35  5  1  1  0  0  0
 35 31  1  0  0  0  0
 37 38  1  0  0  0  0
 37 36  2  0  0  0  0
 39 40  1  0  0  0  0
 41 40  1  0  0  0  0
 42 41  1  0  0  0  0
 43 45  2  0  0  0  0
 45 44  1  0  0  0  0
 45 42  1  0  0  0  0
 46 47  1  0  0  0  0
 46 44  1  0  0  0  0
 48 49  1  0  0  0  0
 48 47  1  6  0  0  0
 49 50  1  0  0  0  0
 51 49  2  0  0  0  0
 52 56  1  6  0  0  0
 52 48  1  0  0  0  0
 53 52  1  0  0  0  0
 53 54  1  0  0  0  0
 55 53  2  0  0  0  0
 57 56  1  0  0  0  0
M  END
>  <MODEL>
6

>  <REMARK>
 VINA RESULT:      -5.8      2.289      8.733
  Name = 
  20 active torsions:
  status: ('A' for Active; 'I' for Inactive)
    1  A    between atoms: C_2  and  C_10
    2  A    between atoms: C_2  and  C_29
    3  A    between atoms: C_2  and  C_51
    4  A    between atoms: N_3  and  C_31
    5  A    between atoms: N_4  and  C_36
    6  A    between atoms: O_7  and  C_51
    7  A    between atoms: C_8  and  C_51
    8  A    between atoms: C_13  and  C_52
    9  A    between atoms: C_13  and  C_55
   10  A    between atoms: C_14  and  C_38
   11  A    between atoms: C_16  and  C_38
   12  A    between atoms: C_21  and  C_41
   13  A    between atoms: C_24  and  C_39
   14  A    between atoms: C_24  and  C_53
   15  A    between atoms: C_29  and  C_31
   16  A    between atoms: C_33  and  C_40
   17  A    between atoms: C_33  and  C_57
   18  A    between atoms: C_35  and  C_47
   19  A    between atoms: C_39  and  C_52
   20  A    between atoms: C_48  and  C_54
                            x       y       z     vdW  Elec       q    Type
                         _______ _______ _______ _____ _____    ______ ____

>  <TORSDO>
F 20

$$$$
=
 OpenBabel11042419073D

 57 62  0  0  1  0  0  0  0  0999 V2000
  189.8700  172.3160  144.9270 N   0  0  0  0  0  2  0  0  0  0  0  0
  190.9520  174.2840  144.2510 C   0  0  1  0  0  3  0  0  0  0  0  0
  192.1800  175.0690  144.2780 N   0  0  0  0  0  0  0  0  0  0  0  0
  191.0750  173.2250  143.2320 C   0  0  1  0  0  3  0  0  0  0  0  0
  192.6990  175.4520  143.1410 C   0  0  0  0  0  0  0  0  0  0  0  0
  189.9590  172.3480  143.5140 N   0  0  0  0  0  2  0  0  0  0  0  0
  192.1730  174.9140  141.9010 N   0  0  0  0  0  2  0  0  0  0  0  0
  191.0730  173.9320  141.8880 C   0  0  1  0  0  3  0  0  0  0  0  0
  190.6540  173.4480  145.4540 C   0  0  1  0  0  3  0  0  0  0  0  0
  188.9110  175.2250  145.7650 C   0  0  0  0  0  2  0  0  0  0  0  0
  190.5300  176.3760  147.0200 N   0  0  0  0  0  0  0  0  0  0  0  0
  189.5160  176.6000  146.0310 C   0  0  2  0  0  3  0  0  0  0  0  0
  189.8350  174.2390  146.4760 C   0  0  2  0  0  3  0  0  0  0  0  0
  190.7210  175.1370  147.2670 C   0  0  0  0  0  3  0  0  0  0  0  0
  188.4630  177.5530  146.5720 C   0  0  0  0  0  2  0  0  0  0  0  0
  185.5480  178.8100  146.0130 N   0  0  0  0  0  0  0  0  0  0  0  0
  186.2640  177.1930  147.6600 C   0  0  0  0  0  2  0  0  0  0  0  0
  186.2370  177.7060  145.3470 C   0  0  2  0  0  3  0  0  0  0  0  0
  185.5590  178.5190  147.4470 C   0  0  0  0  0  2  0  0  0  0  0  0
  187.0600  176.9670  146.3990 C   0  0  1  0  0  3  0  0  0  0  0  0
  184.0790  179.3410  144.2300 O   0  0  0  0  0  1  0  0  0  0  0  0
  184.1600  178.8690  145.5440 C   0  0  0  0  0  2  0  0  0  0  0  0
  187.0310  178.2110  144.1370 C   0  0  0  0  0  2  0  0  0  0  0  0
  186.7100  175.9190  143.3230 O   0  0  0  0  0  0  0  0  0  0  0  0
  187.4390  177.1030  143.1560 C   0  0  1  0  0  3  0  0  0  0  0  0
  187.4620  177.4660  141.6810 C   0  0  1  0  0  3  0  0  0  0  0  0
  187.3510  176.1200  141.0290 C   0  0  2  0  0  3  0  0  0  0  0  0
  186.9510  175.1770  142.1520 C   0  0  0  0  0  2  0  0  0  0  0  0
  188.5960  175.7390  140.5280 O   0  0  0  0  0  1  0  0  0  0  0  0
  186.2650  178.3030  141.2500 C   0  0  0  0  0  1  0  0  0  0  0  0
  194.5810  176.2930  141.7810 C   0  0  0  0  0  3  0  0  0  0  0  0
  195.0300  175.6720  143.9760 C   0  0  0  0  0  3  0  0  0  0  0  0
  195.7930  175.7710  141.8650 C   0  0  0  0  0  0  0  0  0  0  0  0
  196.0860  175.3790  143.2330 C   0  0  0  0  0  3  0  0  0  0  0  0
  193.9500  176.2870  143.1370 C   0  0  2  0  0  3  0  0  0  0  0  0
  197.9110  175.9600  140.8310 O   0  0  0  0  0  0  0  0  0  0  0  0
  196.7070  175.6050  140.7290 C   0  0  0  0  0  0  0  0  0  0  0  0
  196.2450  175.0330  139.5080 N   0  0  0  0  0  1  0  0  0  0  0  0
  191.2810  172.9310  140.7670 C   0  0  0  0  0  2  0  0  0  0  0  0
  192.7630  172.7130  140.5280 C   0  0  0  0  0  2  0  0  0  0  0  0
  193.0010  171.2620  140.1560 C   0  0  0  0  0  2  0  0  0  0  0  0
  191.9830  170.3550  140.8320 C   0  0  0  0  0  2  0  0  0  0  0  0
  191.8900  168.7360  142.5750 O   0  0  0  0  0  0  0  0  0  0  0  0
  194.0380  169.4640  142.0160 N   0  0  0  0  0  2  0  0  0  0  0  0
  192.6180  169.4790  141.8640 C   0  0  0  0  0  0  0  0  0  0  0  0
  194.6960  168.6020  142.9840 C   0  0  0  0  0  2  0  0  0  0  0  0
  195.9450  169.2930  143.5090 C   0  0  0  0  0  2  0  0  0  0  0  0
  195.6820  170.7340  143.9500 C   0  0  2  0  0  3  0  0  0  0  0  0
  196.6140  171.7260  143.3200 C   0  0  0  0  0  0  0  0  0  0  0  0
  197.6150  172.3410  144.0660 O   0  0  0  0  0  1  0  0  0  0  0  0
  196.4900  172.0020  142.1000 O   0  0  0  0  0  0  0  0  0  0  0  0
  195.4830  170.8830  145.4680 C   0  0  2  0  0  3  0  0  0  0  0  0
  195.9340  169.6990  146.2740 C   0  0  0  0  0  0  0  0  0  0  0  0
  195.0820  168.8830  146.7080 O   0  0  0  0  0  1  0  0  0  0  0  0
  197.2840  169.4790  146.5170 O   0  0  0  0  0  0  0  0  0  0  0  0
  194.2290  171.4050  145.8530 O   0  0  0  0  0  0  0  0  0  0  0  0
  193.4370  171.3470  144.7970 O   0  0  0  0  0  1  0  0  0  0  0  0
  2  3  1  1  0  0  0
  2  9  1  0  0  0  0
  4  6  1  6  0  0  0
  4  2  1  0  0  0  0
  5  3  2  0  0  0  0
  6  1  1  0  0  0  0
  7  5  1  0  0  0  0
  8 39  1  6  0  0  0
  8  7  1  0  0  0  0
  8  4  1  0  0  0  0
  9  1  1  6  0  0  0
  9 13  1  0  0  0  0
 10 12  1  0  0  0  0
 11 14  2  0  0  0  0
 12 15  1  1  0  0  0
 12 11  1  0  0  0  0
 13 10  1  6  0  0  0
 13 14  1  0  0  0  0
 16 19  1  0  0  0  0
 18 23  1  6  0  0  0
 18 16  1  0  0  0  0
 18 20  1  0  0  0  0
 19 17  1  0  0  0  0
 20 15  1  1  0  0  0
 20 17  1  0  0  0  0
 21 22  1  0  0  0  0
 22 16  1  0  0  0  0
 25 24  1  0  0  0  0
 25 23  1  1  0  0  0
 26 30  1  1  0  0  0
 26 25  1  0  0  0  0
 27 29  1  1  0  0  0
 27 26  1  0  0  0  0
 27 28  1  0  0  0  0
 28 24  1  0  0  0  0
 31 33  2  0  0  0  0
 31 35  1  0  0  0  0
 33 34  1  0  0  0  0
 34 32  2  0  0  0  0
 35  5  1  6  0  0  0
 35 32  1  0  0  0  0
 37 36  2  0  0  0  0
 37 33  1  0  0  0  0
 38 37  1  0  0  0  0
 40 39  1  0  0  0  0
 41 40  1  0  0  0  0
 41 42  1  0  0  0  0
 42 45  1  0  0  0  0
 44 46  1  0  0  0  0
 45 44  1  0  0  0  0
 45 43  2  0  0  0  0
 46 47  1  0  0  0  0
 48 47  1  1  0  0  0
 48 52  1  0  0  0  0
 49 48  1  0  0  0  0
 49 50  1  0  0  0  0
 51 49  2  0  0  0  0
 52 56  1  6  0  0  0
 52 53  1  0  0  0  0
 53 55  2  0  0  0  0
 53 54  1  0  0  0  0
 57 56  1  0  0  0  0
M  END
>  <MODEL>
7

>  <REMARK>
 VINA RESULT:      -5.7      2.519      4.775
  Name = 
  20 active torsions:
  status: ('A' for Active; 'I' for Inactive)
    1  A    between atoms: C_2  and  C_10
    2  A    between atoms: C_2  and  C_29
    3  A    between atoms: C_2  and  C_51
    4  A    between atoms: N_3  and  C_31
    5  A    between atoms: N_4  and  C_36
    6  A    between atoms: O_7  and  C_51
    7  A    between atoms: C_8  and  C_51
    8  A    between atoms: C_13  and  C_52
    9  A    between atoms: C_13  and  C_55
   10  A    between atoms: C_14  and  C_38
   11  A    between atoms: C_16  and  C_38
   12  A    between atoms: C_21  and  C_41
   13  A    between atoms: C_24  and  C_39
   14  A    between atoms: C_24  and  C_53
   15  A    between atoms: C_29  and  C_31
   16  A    between atoms: C_33  and  C_40
   17  A    between atoms: C_33  and  C_57
   18  A    between atoms: C_35  and  C_47
   19  A    between atoms: C_39  and  C_52
   20  A    between atoms: C_48  and  C_54
                            x       y       z     vdW  Elec       q    Type
                         _______ _______ _______ _____ _____    ______ ____

>  <TORSDO>
F 20

$$$$
=
 OpenBabel11042419073D

 57 62  0  0  1  0  0  0  0  0999 V2000
  190.1270  173.0890  142.6190 N   0  0  0  0  0  2  0  0  0  0  0  0
  189.1540  175.1420  142.0400 C   0  0  1  0  0  3  0  0  0  0  0  0
  188.0210  176.0440  142.2100 N   0  0  0  0  0  0  0  0  0  0  0  0
  190.0650  175.2840  143.1900 C   0  0  1  0  0  3  0  0  0  0  0  0
  188.2570  177.2750  142.5810 C   0  0  0  0  0  0  0  0  0  0  0  0
  190.9540  174.1490  143.0640 N   0  0  0  0  0  2  0  0  0  0  0  0
  189.5900  177.6460  143.0160 N   0  0  0  0  0  2  0  0  0  0  0  0
  190.6880  176.6640  143.0640 C   0  0  1  0  0  3  0  0  0  0  0  0
  188.8710  173.6760  142.1160 C   0  0  1  0  0  3  0  0  0  0  0  0
  189.4770  171.9700  140.3810 C   0  0  0  0  0  2  0  0  0  0  0  0
  189.8140  173.7890  138.9320 N   0  0  0  0  0  0  0  0  0  0  0  0
  190.3970  172.5320  139.3010 C   0  0  2  0  0  3  0  0  0  0  0  0
  188.5320  173.1150  140.7350 C   0  0  2  0  0  3  0  0  0  0  0  0
  188.8310  174.1210  139.6780 C   0  0  0  0  0  3  0  0  0  0  0  0
  190.4410  171.6050  138.0980 C   0  0  0  0  0  2  0  0  0  0  0  0
  192.1540  170.3180  135.6900 N   0  0  0  0  0  0  0  0  0  0  0  0
  191.5790  169.4150  137.8560 C   0  0  0  0  0  2  0  0  0  0  0  0
  192.5620  171.2560  136.7340 C   0  0  2  0  0  3  0  0  0  0  0  0
  191.5350  169.1740  136.3590 C   0  0  0  0  0  2  0  0  0  0  0  0
  191.7960  170.9000  138.0060 C   0  0  1  0  0  3  0  0  0  0  0  0
  194.4790  169.8610  135.7670 O   0  0  0  0  0  1  0  0  0  0  0  0
  193.3390  169.8630  134.9560 C   0  0  0  0  0  2  0  0  0  0  0  0
  192.3970  172.7040  136.2600 C   0  0  0  0  0  2  0  0  0  0  0  0
  193.6580  174.5500  135.2480 O   0  0  0  0  0  0  0  0  0  0  0  0
  193.7210  173.4720  136.1400 C   0  0  1  0  0  3  0  0  0  0  0  0
  194.3630  173.9390  137.4370 C   0  0  1  0  0  3  0  0  0  0  0  0
  195.2530  175.0490  136.9590 C   0  0  2  0  0  3  0  0  0  0  0  0
  194.7980  175.3240  135.5350 C   0  0  0  0  0  2  0  0  0  0  0  0
  196.5780  174.6120  136.9450 O   0  0  0  0  0  1  0  0  0  0  0  0
  193.3640  174.5230  138.4250 C   0  0  0  0  0  1  0  0  0  0  0  0
  186.7120  178.3580  144.1750 C   0  0  0  0  0  3  0  0  0  0  0  0
  185.8540  177.7100  142.1150 C   0  0  0  0  0  3  0  0  0  0  0  0
  185.4580  177.9650  144.3110 C   0  0  0  0  0  0  0  0  0  0  0  0
  184.9090  177.5570  143.0300 C   0  0  0  0  0  3  0  0  0  0  0  0
  187.1110  178.2370  142.7380 C   0  0  2  0  0  3  0  0  0  0  0  0
  184.8470  176.9470  146.3560 O   0  0  0  0  0  0  0  0  0  0  0  0
  184.7290  177.9360  145.5850 C   0  0  0  0  0  0  0  0  0  0  0  0
  183.8920  179.0260  145.9640 N   0  0  0  0  0  1  0  0  0  0  0  0
  191.5880  176.9450  144.2530 C   0  0  0  0  0  2  0  0  0  0  0  0
  190.8270  176.7250  145.5480 C   0  0  0  0  0  2  0  0  0  0  0  0
  191.8080  176.3860  146.6530 C   0  0  0  0  0  2  0  0  0  0  0  0
  192.5520  175.0960  146.3400 C   0  0  0  0  0  2  0  0  0  0  0  0
  194.5170  176.4380  146.4170 O   0  0  0  0  0  0  0  0  0  0  0  0
  194.8000  174.3260  145.4590 N   0  0  0  0  0  2  0  0  0  0  0  0
  194.0020  175.3410  146.0710 C   0  0  0  0  0  0  0  0  0  0  0  0
  196.2200  174.5130  145.2130 C   0  0  0  0  0  2  0  0  0  0  0  0
  196.5890  173.8720  143.8840 C   0  0  0  0  0  2  0  0  0  0  0  0
  196.8450  174.9010  142.7810 C   0  0  2  0  0  3  0  0  0  0  0  0
  196.1880  176.2230  143.0390 C   0  0  0  0  0  0  0  0  0  0  0  0
  194.8380  176.4180  142.7600 O   0  0  0  0  0  0  0  0  0  0  0  0
  196.8640  177.1670  143.5200 O   0  0  0  0  0  1  0  0  0  0  0  0
  196.6640  174.3360  141.3620 C   0  0  2  0  0  3  0  0  0  0  0  0
  195.7890  173.1180  141.2850 C   0  0  0  0  0  0  0  0  0  0  0  0
  194.5400  173.2450  141.3620 O   0  0  0  0  0  1  0  0  0  0  0  0
  196.3420  171.8570  141.0970 O   0  0  0  0  0  0  0  0  0  0  0  0
  197.8510  174.2490  140.6020 O   0  0  0  0  0  0  0  0  0  0  0  0
  197.9410  175.3530  139.8840 O   0  0  0  0  0  1  0  0  0  0  0  0
  1  6  1  0  0  0  0
  2  9  1  0  0  0  0
  2  3  1  1  0  0  0
  2  4  1  0  0  0  0
  3  5  2  0  0  0  0
  4  6  1  6  0  0  0
  5  7  1  0  0  0  0
  7  8  1  0  0  0  0
  8  4  1  0  0  0  0
  8 39  1  1  0  0  0
  9  1  1  6  0  0  0
 10 13  1  0  0  0  0
 11 12  1  0  0  0  0
 11 14  2  0  0  0  0
 12 15  1  6  0  0  0
 12 10  1  0  0  0  0
 13 14  1  6  0  0  0
 13  9  1  0  0  0  0
 16 19  1  0  0  0  0
 16 18  1  0  0  0  0
 17 20  1  0  0  0  0
 18 23  1  6  0  0  0
 18 20  1  0  0  0  0
 19 17  1  0  0  0  0
 20 15  1  6  0  0  0
 22 16  1  0  0  0  0
 22 21  1  0  0  0  0
 24 28  1  0  0  0  0
 24 25  1  0  0  0  0
 25 23  1  1  0  0  0
 25 26  1  0  0  0  0
 26 30  1  1  0  0  0
 27 29  1  6  0  0  0
 27 26  1  0  0  0  0
 28 27  1  0  0  0  0
 31 33  2  0  0  0  0
 32 35  1  0  0  0  0
 32 34  2  0  0  0  0
 33 37  1  0  0  0  0
 34 33  1  0  0  0  0
 35  5  1  1  0  0  0
 35 31  1  0  0  0  0
 37 38  1  0  0  0  0
 37 36  2  0  0  0  0
 39 40  1  0  0  0  0
 40 41  1  0  0  0  0
 42 41  1  0  0  0  0
 44 45  1  0  0  0  0
 45 42  1  0  0  0  0
 45 43  2  0  0  0  0
 46 44  1  0  0  0  0
 47 46  1  0  0  0  0
 48 49  1  0  0  0  0
 48 47  1  1  0  0  0
 49 51  1  0  0  0  0
 50 49  2  0  0  0  0
 52 56  1  1  0  0  0
 52 48  1  0  0  0  0
 53 54  1  0  0  0  0
 53 52  1  0  0  0  0
 55 53  2  0  0  0  0
 57 56  1  0  0  0  0
M  END
>  <MODEL>
8

>  <REMARK>
 VINA RESULT:      -5.7      2.410      8.560
  Name = 
  20 active torsions:
  status: ('A' for Active; 'I' for Inactive)
    1  A    between atoms: C_2  and  C_10
    2  A    between atoms: C_2  and  C_29
    3  A    between atoms: C_2  and  C_51
    4  A    between atoms: N_3  and  C_31
    5  A    between atoms: N_4  and  C_36
    6  A    between atoms: O_7  and  C_51
    7  A    between atoms: C_8  and  C_51
    8  A    between atoms: C_13  and  C_52
    9  A    between atoms: C_13  and  C_55
   10  A    between atoms: C_14  and  C_38
   11  A    between atoms: C_16  and  C_38
   12  A    between atoms: C_21  and  C_41
   13  A    between atoms: C_24  and  C_39
   14  A    between atoms: C_24  and  C_53
   15  A    between atoms: C_29  and  C_31
   16  A    between atoms: C_33  and  C_40
   17  A    between atoms: C_33  and  C_57
   18  A    between atoms: C_35  and  C_47
   19  A    between atoms: C_39  and  C_52
   20  A    between atoms: C_48  and  C_54
                            x       y       z     vdW  Elec       q    Type
                         _______ _______ _______ _____ _____    ______ ____

>  <TORSDO>
F 20

$$$$
=
 OpenBabel11042419073D

 57 62  0  0  1  0  0  0  0  0999 V2000
  190.3910  172.2490  143.9320 N   0  0  0  0  0  2  0  0  0  0  0  0
  189.3780  174.3290  143.5480 C   0  0  1  0  0  3  0  0  0  0  0  0
  188.1280  175.0670  143.4100 N   0  0  0  0  0  0  0  0  0  0  0  0
  189.6670  174.1270  144.9800 C   0  0  1  0  0  3  0  0  0  0  0  0
  187.9390  176.1170  144.1660 C   0  0  0  0  0  0  0  0  0  0  0  0
  190.7260  173.1410  144.9790 N   0  0  0  0  0  2  0  0  0  0  0  0
  188.8610  176.3870  145.2530 N   0  0  0  0  0  2  0  0  0  0  0  0
  190.0030  175.4990  145.5380 C   0  0  1  0  0  3  0  0  0  0  0  0
  189.3800  172.9080  143.0830 C   0  0  1  0  0  3  0  0  0  0  0  0
  190.5040  171.5040  141.3340 C   0  0  0  0  0  2  0  0  0  0  0  0
  191.9570  173.3240  141.0280 N   0  0  0  0  0  0  0  0  0  0  0  0
  191.9630  171.8930  141.1180 C   0  0  2  0  0  3  0  0  0  0  0  0
  189.7770  172.8190  141.6090 C   0  0  2  0  0  3  0  0  0  0  0  0
  190.8160  173.8360  141.2890 C   0  0  0  0  0  3  0  0  0  0  0  0
  192.4920  171.2930  139.8260 C   0  0  0  0  0  2  0  0  0  0  0  0
  194.4820  171.0640  137.3010 N   0  0  0  0  0  0  0  0  0  0  0  0
  194.8830  171.8860  139.5380 C   0  0  0  0  0  2  0  0  0  0  0  0
  193.4960  172.0920  137.6280 C   0  0  2  0  0  3  0  0  0  0  0  0
  195.3470  170.9130  138.4720 C   0  0  0  0  0  2  0  0  0  0  0  0
  193.4720  172.2510  139.1460 C   0  0  1  0  0  3  0  0  0  0  0  0
  195.4410  172.9000  136.1490 O   0  0  0  0  0  1  0  0  0  0  0  0
  195.2890  171.5090  136.1610 C   0  0  0  0  0  2  0  0  0  0  0  0
  192.1410  171.7690  136.9870 C   0  0  0  0  0  2  0  0  0  0  0  0
  191.7150  173.9490  135.9450 O   0  0  0  0  0  0  0  0  0  0  0  0
  191.2210  172.9880  136.8360 C   0  0  1  0  0  3  0  0  0  0  0  0
  189.7630  172.7100  136.5060 C   0  0  1  0  0  3  0  0  0  0  0  0
  189.3250  174.0180  135.9160 C   0  0  2  0  0  3  0  0  0  0  0  0
  190.6150  174.7810  135.6640 C   0  0  0  0  0  2  0  0  0  0  0  0
  188.5510  174.7150  136.8450 O   0  0  0  0  0  1  0  0  0  0  0  0
  189.5820  171.6290  135.4510 C   0  0  0  0  0  1  0  0  0  0  0  0
  186.0590  176.7090  142.6780 C   0  0  0  0  0  3  0  0  0  0  0  0
  186.9440  178.3900  144.0170 C   0  0  0  0  0  3  0  0  0  0  0  0
  186.0070  177.8670  142.0440 C   0  0  0  0  0  0  0  0  0  0  0  0
  186.5570  178.9270  142.8700 C   0  0  0  0  0  3  0  0  0  0  0  0
  186.6730  176.9160  144.0270 C   0  0  2  0  0  3  0  0  0  0  0  0
  184.3910  178.6660  140.5130 O   0  0  0  0  0  0  0  0  0  0  0  0
  185.4750  178.0490  140.6880 C   0  0  0  0  0  0  0  0  0  0  0  0
  186.1810  177.5390  139.5600 N   0  0  0  0  0  1  0  0  0  0  0  0
  190.2370  175.4150  147.0350 C   0  0  0  0  0  2  0  0  0  0  0  0
  191.5040  176.1610  147.4090 C   0  0  0  0  0  2  0  0  0  0  0  0
  192.7020  175.4330  146.8310 C   0  0  0  0  0  2  0  0  0  0  0  0
  193.7490  176.4200  146.3360 C   0  0  0  0  0  2  0  0  0  0  0  0
  194.9120  176.0230  144.2970 O   0  0  0  0  0  0  0  0  0  0  0  0
  195.7080  174.8260  146.1380 N   0  0  0  0  0  2  0  0  0  0  0  0
  194.8070  175.7470  145.5220 C   0  0  0  0  0  0  0  0  0  0  0  0
  196.7710  174.1770  145.3890 C   0  0  0  0  0  2  0  0  0  0  0  0
  196.9380  172.7490  145.8850 C   0  0  0  0  0  2  0  0  0  0  0  0
  196.3770  171.7150  144.9080 C   0  0  2  0  0  3  0  0  0  0  0  0
  194.9100  171.8780  144.6480 C   0  0  0  0  0  0  0  0  0  0  0  0
  193.9980  171.9220  145.6980 O   0  0  0  0  0  1  0  0  0  0  0  0
  194.4990  171.9810  143.4640 O   0  0  0  0  0  0  0  0  0  0  0  0
  196.8420  170.2780  145.2030 C   0  0  2  0  0  3  0  0  0  0  0  0
  197.2880  169.5080  143.9940 C   0  0  0  0  0  0  0  0  0  0  0  0
  197.6840  168.3210  144.1250 O   0  0  0  0  0  1  0  0  0  0  0  0
  197.2370  170.0800  142.7290 O   0  0  0  0  0  0  0  0  0  0  0  0
  196.0050  169.5530  146.0800 O   0  0  0  0  0  0  0  0  0  0  0  0
  196.6050  169.5130  147.2560 O   0  0  0  0  0  1  0  0  0  0  0  0
  1  6  1  0  0  0  0
  2  3  1  1  0  0  0
  2  4  1  0  0  0  0
  3  5  2  0  0  0  0
  4  6  1  6  0  0  0
  4  8  1  0  0  0  0
  5  7  1  0  0  0  0
  7  8  1  0  0  0  0
  8 39  1  1  0  0  0
  9  2  1  0  0  0  0
  9  1  1  1  0  0  0
 10 13  1  0  0  0  0
 11 12  1  0  0  0  0
 11 14  2  0  0  0  0
 12 15  1  6  0  0  0
 12 10  1  0  0  0  0
 13 14  1  1  0  0  0
 13  9  1  0  0  0  0
 16 18  1  0  0  0  0
 16 19  1  0  0  0  0
 18 23  1  1  0  0  0
 18 20  1  0  0  0  0
 19 17  1  0  0  0  0
 20 17  1  0  0  0  0
 20 15  1  1  0  0  0
 21 22  1  0  0  0  0
 22 16  1  0  0  0  0
 24 25  1  0  0  0  0
 25 23  1  6  0  0  0
 26 30  1  6  0  0  0
 26 25  1  0  0  0  0
 27 26  1  0  0  0  0
 27 29  1  1  0  0  0
 28 27  1  0  0  0  0
 28 24  1  0  0  0  0
 31 35  1  0  0  0  0
 32 35  1  0  0  0  0
 33 31  2  0  0  0  0
 33 34  1  0  0  0  0
 34 32  2  0  0  0  0
 35  5  1  6  0  0  0
 36 37  2  0  0  0  0
 37 33  1  0  0  0  0
 38 37  1  0  0  0  0
 39 40  1  0  0  0  0
 41 40  1  0  0  0  0
 42 41  1  0  0  0  0
 43 45  2  0  0  0  0
 45 44  1  0  0  0  0
 45 42  1  0  0  0  0
 46 47  1  0  0  0  0
 46 44  1  0  0  0  0
 48 52  1  0  0  0  0
 48 47  1  1  0  0  0
 49 48  1  0  0  0  0
 49 50  1  0  0  0  0
 51 49  2  0  0  0  0
 52 53  1  6  0  0  0
 52 56  1  0  0  0  0
 53 54  1  0  0  0  0
 55 53  2  0  0  0  0
 56 57  1  0  0  0  0
M  END
>  <MODEL>
9

>  <REMARK>
 VINA RESULT:      -5.6      2.558      8.055
  Name = 
  20 active torsions:
  status: ('A' for Active; 'I' for Inactive)
    1  A    between atoms: C_2  and  C_10
    2  A    between atoms: C_2  and  C_29
    3  A    between atoms: C_2  and  C_51
    4  A    between atoms: N_3  and  C_31
    5  A    between atoms: N_4  and  C_36
    6  A    between atoms: O_7  and  C_51
    7  A    between atoms: C_8  and  C_51
    8  A    between atoms: C_13  and  C_52
    9  A    between atoms: C_13  and  C_55
   10  A    between atoms: C_14  and  C_38
   11  A    between atoms: C_16  and  C_38
   12  A    between atoms: C_21  and  C_41
   13  A    between atoms: C_24  and  C_39
   14  A    between atoms: C_24  and  C_53
   15  A    between atoms: C_29  and  C_31
   16  A    between atoms: C_33  and  C_40
   17  A    between atoms: C_33  and  C_57
   18  A    between atoms: C_35  and  C_47
   19  A    between atoms: C_39  and  C_52
   20  A    between atoms: C_48  and  C_54
                            x       y       z     vdW  Elec       q    Type
                         _______ _______ _______ _____ _____    ______ ____

>  <TORSDO>
F 20

$$$$
