=
 OpenBabel11042414513D

 32 35  0  0  1  0  0  0  0  0999 V2000
  185.9740  177.0870  142.0150 N   0  0  0  0  0  0  0  0  0  0  0  0
  186.3760  177.6900  144.7890 C   0  0  2  0  0  3  0  0  0  0  0  0
  192.1740  175.1730  146.4030 C   0  0  0  0  0  2  0  0  0  0  0  0
  188.5290  176.6430  144.4350 C   0  0  0  0  0  0  0  0  0  0  0  0
  193.9120  174.4530  144.5720 C   0  0  1  0  0  3  0  0  0  0  0  0
  186.9090  176.4130  142.6240 C   0  0  0  0  0  0  0  0  0  0  0  0
  191.5030  175.0920  143.9260 N   0  0  0  0  0  0  0  0  0  0  0  0
  190.8580  176.3990  143.8710 C   0  0  0  0  0  2  0  0  0  0  0  0
  189.7460  176.4700  144.8680 C   0  0  0  0  0  0  0  0  0  0  0  0
  189.9800  176.4040  146.3500 C   0  0  0  0  0  2  0  0  0  0  0  0
  185.3140  178.2160  142.6110 C   0  0  0  0  0  3  0  0  0  0  0  0
  187.3140  176.8310  143.9920 C   0  0  0  0  0  0  0  0  0  0  0  0
  191.4520  176.4680  146.7520 C   0  0  1  0  0  3  0  0  0  0  0  0
  191.5390  176.6880  148.2470 C   0  0  0  0  0  1  0  0  0  0  0  0
  192.5920  175.1410  144.9300 C   0  0  1  0  0  0  0  0  0  0  0  0
  185.5640  176.8780  145.5580 F   0  0  0  0  0  0  0  0  0  0  0  0
  193.8040  175.9780  144.5590 C   0  0  0  0  0  2  0  0  0  0  0  0
  194.6430  174.0350  145.7580 N   0  0  0  0  0  1  0  0  0  0  0  0
  185.5120  178.5360  143.8930 C   0  0  0  0  0  3  0  0  0  0  0  0
  187.4200  174.0050  142.4520 N   0  0  0  0  0  0  0  0  0  0  0  0
  188.6290  173.1100  140.6000 C   0  0  0  0  0  0  0  0  0  0  0  0
  188.1710  175.4440  140.7490 N   0  0  0  0  0  0  0  0  0  0  0  0
  187.9560  172.9340  141.8110 C   0  0  0  0  0  3  0  0  0  0  0  0
  188.7250  174.3990  140.0810 C   0  0  0  0  0  3  0  0  0  0  0  0
  187.5260  175.2600  141.9340 C   0  0  0  0  0  0  0  0  0  0  0  0
  189.6250  172.0990  138.5020 C   0  0  0  0  0  1  0  0  0  0  0  0
  189.2070  172.0120  139.8930 N   0  0  0  0  0  2  0  0  0  0  0  0
  191.4230  172.5790  142.6890 O   0  0  0  0  0  0  0  0  0  0  0  0
  192.9590  174.3910  139.9150 C   0  0  0  0  0  1  0  0  0  0  0  0
  191.9190  173.5390  142.0420 C   0  0  0  0  0  0  0  0  0  0  0  0
  192.3930  173.3200  140.7160 N   0  0  0  0  0  2  0  0  0  0  0  0
  192.0020  174.8370  142.6350 N   0  0  0  0  0  2  0  0  0  0  0  0
  1 11  1  0  0  0  0
  1  6  2  0  0  0  0
  2 16  1  6  0  0  0
  3 13  1  0  0  0  0
  4  9  2  0  0  0  0
  5 15  1  0  0  0  0
  5 18  1  1  0  0  0
  6 12  1  0  0  0  0
  7 15  1  0  0  0  0
  8  7  1  0  0  0  0
  8  9  1  0  0  0  0
  9 10  1  0  0  0  0
 10 13  1  0  0  0  0
 11 19  2  0  0  0  0
 12  4  2  0  0  0  0
 12  2  1  0  0  0  0
 13 14  1  1  0  0  0
 15 17  1  6  0  0  0
 15  3  1  0  0  0  0
 17  5  1  0  0  0  0
 19  2  1  0  0  0  0
 21 23  2  0  0  0  0
 22 25  1  0  0  0  0
 23 20  1  0  0  0  0
 24 21  1  0  0  0  0
 24 22  2  0  0  0  0
 25 20  2  0  0  0  0
 25  6  1  0  0  0  0
 26 27  1  0  0  0  0
 27 21  1  0  0  0  0
 29 31  1  0  0  0  0
 30 32  1  0  0  0  0
 30 28  2  0  0  0  0
 31 30  1  0  0  0  0
 32  7  1  0  0  0  0
M  END
>  <MODEL>
1

>  <REMARK>
 VINA RESULT:      -7.3      0.000      0.000
  Name = 
  3 active torsions:
  status: ('A' for Active; 'I' for Inactive)
    1  A    between atoms: C_10  and  N_13
    2  A    between atoms: C_14  and  C_32
    3  A    between atoms: N_15  and  N_29
                            x       y       z     vdW  Elec       q    Type
                         _______ _______ _______ _____ _____    ______ ____

>  <TORSDO>
F 3

$$$$
=
 OpenBabel11042414513D

 32 35  0  0  1  0  0  0  0  0999 V2000
  188.2050  173.4670  140.2000 N   0  0  0  0  0  0  0  0  0  0  0  0
  191.0170  173.0540  140.5750 C   0  0  2  0  0  3  0  0  0  0  0  0
  192.5970  176.0640  146.1430 C   0  0  0  0  0  2  0  0  0  0  0  0
  190.6450  174.2290  142.6580 C   0  0  0  0  0  0  0  0  0  0  0  0
  190.7630  176.7990  147.8710 C   0  0  1  0  0  3  0  0  0  0  0  0
  188.7910  174.2390  141.0710 C   0  0  0  0  0  0  0  0  0  0  0  0
  190.1060  175.9540  145.5290 N   0  0  0  0  0  0  0  0  0  0  0  0
  190.1160  174.6040  144.9780 C   0  0  0  0  0  2  0  0  0  0  0  0
  191.0920  174.5120  143.8480 C   0  0  0  0  0  0  0  0  0  0  0  0
  192.5720  174.6790  144.0420 C   0  0  0  0  0  2  0  0  0  0  0  0
  188.8520  172.3300  139.6050 C   0  0  0  0  0  3  0  0  0  0  0  0
  190.1890  173.9300  141.4690 C   0  0  0  0  0  0  0  0  0  0  0  0
  193.0070  174.7430  145.5040 C   0  0  1  0  0  3  0  0  0  0  0  0
  194.5130  174.6160  145.5700 C   0  0  0  0  0  1  0  0  0  0  0  0
  191.1330  176.0410  146.5930 C   0  0  1  0  0  0  0  0  0  0  0  0
  191.7200  173.8500  139.6900 F   0  0  0  0  0  0  0  0  0  0  0  0
  190.8370  175.2720  147.8700 C   0  0  0  0  0  2  0  0  0  0  0  0
  191.9360  177.3350  148.5410 N   0  0  0  0  0  1  0  0  0  0  0  0
  190.1550  172.0990  139.7940 C   0  0  0  0  0  3  0  0  0  0  0  0
  188.3790  176.6640  141.2690 N   0  0  0  0  0  0  0  0  0  0  0  0
  186.6070  177.5280  142.6130 C   0  0  0  0  0  0  0  0  0  0  0  0
  186.9940  175.1810  142.4590 N   0  0  0  0  0  0  0  0  0  0  0  0
  187.6830  177.7280  141.7450 C   0  0  0  0  0  3  0  0  0  0  0  0
  186.2770  176.2200  142.9610 C   0  0  0  0  0  3  0  0  0  0  0  0
  188.0470  175.3920  141.6220 C   0  0  0  0  0  0  0  0  0  0  0  0
  184.4640  178.4840  143.5650 C   0  0  0  0  0  1  0  0  0  0  0  0
  185.8480  178.6190  143.1360 N   0  0  0  0  0  2  0  0  0  0  0  0
  188.6530  178.3210  145.1540 O   0  0  0  0  0  0  0  0  0  0  0  0
  186.0930  176.5210  147.0370 C   0  0  0  0  0  1  0  0  0  0  0  0
  188.1060  177.3900  145.8040 C   0  0  0  0  0  0  0  0  0  0  0  0
  186.7800  177.5640  146.2970 N   0  0  0  0  0  2  0  0  0  0  0  0
  188.8130  176.1700  146.0390 N   0  0  0  0  0  2  0  0  0  0  0  0
  1  6  2  0  0  0  0
  2 16  1  6  0  0  0
  2 12  1  0  0  0  0
  4  9  2  0  0  0  0
  5 18  1  1  0  0  0
  6 12  1  0  0  0  0
  6 25  1  0  0  0  0
  7 32  1  0  0  0  0
  7 15  1  0  0  0  0
  8  7  1  0  0  0  0
  9 10  1  0  0  0  0
  9  8  1  0  0  0  0
 10 13  1  0  0  0  0
 11 19  2  0  0  0  0
 11  1  1  0  0  0  0
 12  4  2  0  0  0  0
 13 14  1  6  0  0  0
 13  3  1  0  0  0  0
 15  3  1  6  0  0  0
 15 17  1  0  0  0  0
 15  5  1  0  0  0  0
 17  5  1  0  0  0  0
 19  2  1  0  0  0  0
 20 25  2  0  0  0  0
 20 23  1  0  0  0  0
 21 24  1  0  0  0  0
 21 27  1  0  0  0  0
 22 24  2  0  0  0  0
 23 21  2  0  0  0  0
 25 22  1  0  0  0  0
 27 26  1  0  0  0  0
 28 30  2  0  0  0  0
 30 32  1  0  0  0  0
 30 31  1  0  0  0  0
 31 29  1  0  0  0  0
M  END
>  <MODEL>
2

>  <REMARK>
 VINA RESULT:      -7.2      2.774      5.654
  Name = 
  3 active torsions:
  status: ('A' for Active; 'I' for Inactive)
    1  A    between atoms: C_10  and  N_13
    2  A    between atoms: C_14  and  C_32
    3  A    between atoms: N_15  and  N_29
                            x       y       z     vdW  Elec       q    Type
                         _______ _______ _______ _____ _____    ______ ____

>  <TORSDO>
F 3

$$$$
=
 OpenBabel11042414513D

 32 35  0  0  1  0  0  0  0  0999 V2000
  188.2340  176.5860  146.5390 N   0  0  0  0  0  0  0  0  0  0  0  0
  186.8250  176.7860  144.0510 C   0  0  2  0  0  3  0  0  0  0  0  0
  190.3700  173.5150  139.6570 C   0  0  0  0  0  2  0  0  0  0  0  0
  188.5900  175.3430  143.2370 C   0  0  0  0  0  0  0  0  0  0  0  0
  192.2550  171.8420  140.3900 C   0  0  1  0  0  3  0  0  0  0  0  0
  188.9090  176.2820  145.4670 C   0  0  0  0  0  0  0  0  0  0  0  0
  191.1260  173.3920  142.1080 N   0  0  0  0  0  0  0  0  0  0  0  0
  189.7960  173.3270  142.7040 C   0  0  0  0  0  2  0  0  0  0  0  0
  188.9910  174.5240  142.3070 C   0  0  0  0  0  0  0  0  0  0  0  0
  188.5820  174.7890  140.8870 C   0  0  0  0  0  2  0  0  0  0  0  0
  186.8140  176.8050  146.5300 C   0  0  0  0  0  3  0  0  0  0  0  0
  188.1800  176.1520  144.1790 C   0  0  0  0  0  0  0  0  0  0  0  0
  188.8760  173.6390  139.9270 C   0  0  1  0  0  3  0  0  0  0  0  0
  188.1640  173.9020  138.6180 C   0  0  0  0  0  1  0  0  0  0  0  0
  191.0810  172.7470  140.7750 C   0  0  1  0  0  0  0  0  0  0  0  0
  186.9710  178.0620  143.5410 F   0  0  0  0  0  0  0  0  0  0  0  0
  190.9030  171.2380  140.7690 C   0  0  0  0  0  2  0  0  0  0  0  0
  192.4270  171.7630  138.9480 N   0  0  0  0  0  1  0  0  0  0  0  0
  186.1310  176.8680  145.3830 C   0  0  0  0  0  3  0  0  0  0  0  0
  191.2320  176.9370  144.9550 N   0  0  0  0  0  0  0  0  0  0  0  0
  193.0960  175.7340  145.8330 C   0  0  0  0  0  0  0  0  0  0  0  0
  190.8640  175.0620  146.3270 N   0  0  0  0  0  0  0  0  0  0  0  0
  192.5770  176.7830  145.0710 C   0  0  0  0  0  3  0  0  0  0  0  0
  192.2010  174.8710  146.4620 C   0  0  0  0  0  3  0  0  0  0  0  0
  190.3710  176.0830  145.5730 C   0  0  0  0  0  0  0  0  0  0  0  0
  195.4750  176.0030  145.0060 C   0  0  0  0  0  1  0  0  0  0  0  0
  194.5030  175.5350  145.9820 N   0  0  0  0  0  2  0  0  0  0  0  0
  193.7420  174.2190  142.6770 O   0  0  0  0  0  0  0  0  0  0  0  0
  193.7040  171.3120  144.8880 C   0  0  0  0  0  1  0  0  0  0  0  0
  193.3120  173.1850  143.2550 C   0  0  0  0  0  0  0  0  0  0  0  0
  194.1510  172.4980  144.1800 N   0  0  0  0  0  2  0  0  0  0  0  0
  191.9910  172.7100  142.9840 N   0  0  0  0  0  2  0  0  0  0  0  0
  2 16  1  1  0  0  0
  2 12  1  0  0  0  0
  2 19  1  0  0  0  0
  3 13  1  0  0  0  0
  4 12  2  0  0  0  0
  5 18  1  6  0  0  0
  5 17  1  0  0  0  0
  5 15  1  0  0  0  0
  6 25  1  0  0  0  0
  6  1  2  0  0  0  0
  7  8  1  0  0  0  0
  7 32  1  0  0  0  0
  9  8  1  0  0  0  0
  9  4  2  0  0  0  0
 10  9  1  0  0  0  0
 11  1  1  0  0  0  0
 12  6  1  0  0  0  0
 13 14  1  6  0  0  0
 13 10  1  0  0  0  0
 15  3  1  6  0  0  0
 15  7  1  0  0  0  0
 17 15  1  0  0  0  0
 19 11  2  0  0  0  0
 20 23  1  0  0  0  0
 20 25  2  0  0  0  0
 21 27  1  0  0  0  0
 21 24  1  0  0  0  0
 22 24  2  0  0  0  0
 23 21  2  0  0  0  0
 25 22  1  0  0  0  0
 26 27  1  0  0  0  0
 28 30  2  0  0  0  0
 30 31  1  0  0  0  0
 31 29  1  0  0  0  0
 32 30  1  0  0  0  0
M  END
>  <MODEL>
3

>  <REMARK>
 VINA RESULT:      -6.9      2.188      5.586
  Name = 
  3 active torsions:
  status: ('A' for Active; 'I' for Inactive)
    1  A    between atoms: C_10  and  N_13
    2  A    between atoms: C_14  and  C_32
    3  A    between atoms: N_15  and  N_29
                            x       y       z     vdW  Elec       q    Type
                         _______ _______ _______ _____ _____    ______ ____

>  <TORSDO>
F 3

$$$$
=
 OpenBabel11042414513D

 32 35  0  0  1  0  0  0  0  0999 V2000
  186.0360  177.8540  147.1460 N   0  0  0  0  0  0  0  0  0  0  0  0
  185.0640  178.9680  144.6900 C   0  0  2  0  0  3  0  0  0  0  0  0
  188.1910  175.8530  139.8870 C   0  0  0  0  0  2  0  0  0  0  0  0
  186.4890  177.2980  143.6730 C   0  0  0  0  0  0  0  0  0  0  0  0
  189.4710  173.6030  140.3190 C   0  0  1  0  0  3  0  0  0  0  0  0
  186.7450  177.6100  146.0800 C   0  0  0  0  0  0  0  0  0  0  0  0
  188.5630  175.0020  142.2800 N   0  0  0  0  0  0  0  0  0  0  0  0
  187.1960  175.1870  142.7520 C   0  0  0  0  0  2  0  0  0  0  0  0
  186.7850  176.6170  142.6020 C   0  0  0  0  0  0  0  0  0  0  0  0
  186.6460  177.2840  141.2640 C   0  0  0  0  0  2  0  0  0  0  0  0
  184.7340  178.4600  147.0950 C   0  0  0  0  0  3  0  0  0  0  0  0
  186.1820  177.9680  144.7530 C   0  0  0  0  0  0  0  0  0  0  0  0
  186.7570  176.3300  140.0770 C   0  0  1  0  0  3  0  0  0  0  0  0
  186.3140  177.0570  138.8250 C   0  0  0  0  0  1  0  0  0  0  0  0
  188.5290  174.6960  140.8310 C   0  0  1  0  0  0  0  0  0  0  0  0
  185.5980  180.2310  144.5150 F   0  0  0  0  0  0  0  0  0  0  0  0
  187.9710  173.3360  140.4490 C   0  0  0  0  0  2  0  0  0  0  0  0
  189.8040  173.7890  138.9160 N   0  0  0  0  0  1  0  0  0  0  0  0
  184.2470  178.9550  145.9540 C   0  0  0  0  0  3  0  0  0  0  0  0
  189.2000  177.6560  145.8390 N   0  0  0  0  0  0  0  0  0  0  0  0
  190.5670  175.8480  146.5830 C   0  0  0  0  0  0  0  0  0  0  0  0
  188.1960  175.7640  146.8100 N   0  0  0  0  0  0  0  0  0  0  0  0
  190.4330  177.1120  146.0020 C   0  0  0  0  0  3  0  0  0  0  0  0
  189.4110  175.1830  146.9860 C   0  0  0  0  0  3  0  0  0  0  0  0
  188.0800  176.9920  146.2340 C   0  0  0  0  0  0  0  0  0  0  0  0
  193.0690  175.7720  146.2010 C   0  0  0  0  0  1  0  0  0  0  0  0
  191.8450  175.2390  146.7750 N   0  0  0  0  0  2  0  0  0  0  0  0
  191.1970  174.9360  143.2360 O   0  0  0  0  0  0  0  0  0  0  0  0
  190.1340  171.7380  144.6420 C   0  0  0  0  0  1  0  0  0  0  0  0
  190.4480  173.9590  143.5020 C   0  0  0  0  0  0  0  0  0  0  0  0
  190.9540  172.8820  144.2880 N   0  0  0  0  0  2  0  0  0  0  0  0
  189.1020  173.9350  143.0220 N   0  0  0  0  0  2  0  0  0  0  0  0
  2 16  1  1  0  0  0
  2 12  1  0  0  0  0
  2 19  1  0  0  0  0
  3 13  1  0  0  0  0
  4 12  2  0  0  0  0
  5 18  1  6  0  0  0
  5 17  1  0  0  0  0
  5 15  1  0  0  0  0
  6 25  1  0  0  0  0
  6  1  2  0  0  0  0
  7  8  1  0  0  0  0
  7 32  1  0  0  0  0
  9  8  1  0  0  0  0
  9  4  2  0  0  0  0
 10  9  1  0  0  0  0
 11  1  1  0  0  0  0
 12  6  1  0  0  0  0
 13 14  1  6  0  0  0
 13 10  1  0  0  0  0
 15  3  1  6  0  0  0
 15  7  1  0  0  0  0
 17 15  1  0  0  0  0
 19 11  2  0  0  0  0
 20 23  1  0  0  0  0
 20 25  2  0  0  0  0
 21 27  1  0  0  0  0
 21 24  1  0  0  0  0
 22 24  2  0  0  0  0
 23 21  2  0  0  0  0
 25 22  1  0  0  0  0
 26 27  1  0  0  0  0
 28 30  2  0  0  0  0
 30 31  1  0  0  0  0
 31 29  1  0  0  0  0
 32 30  1  0  0  0  0
M  END
>  <MODEL>
4

>  <REMARK>
 VINA RESULT:      -6.8      2.348      5.747
  Name = 
  3 active torsions:
  status: ('A' for Active; 'I' for Inactive)
    1  A    between atoms: C_10  and  N_13
    2  A    between atoms: C_14  and  C_32
    3  A    between atoms: N_15  and  N_29
                            x       y       z     vdW  Elec       q    Type
                         _______ _______ _______ _____ _____    ______ ____

>  <TORSDO>
F 3

$$$$
=
 OpenBabel11042414513D

 32 35  0  0  1  0  0  0  0  0999 V2000
  187.2930  177.7170  145.0020 N   0  0  0  0  0  0  0  0  0  0  0  0
  186.1390  177.2730  142.4160 C   0  0  2  0  0  3  0  0  0  0  0  0
  190.2950  173.4280  139.1760 C   0  0  0  0  0  2  0  0  0  0  0  0
  188.0570  175.8310  142.0970 C   0  0  0  0  0  0  0  0  0  0  0  0
  192.1870  172.1000  140.4210 C   0  0  1  0  0  3  0  0  0  0  0  0
  188.0910  177.2450  144.0860 C   0  0  0  0  0  0  0  0  0  0  0  0
  190.8010  173.8880  141.6520 N   0  0  0  0  0  0  0  0  0  0  0  0
  189.4230  173.8480  142.1270 C   0  0  0  0  0  2  0  0  0  0  0  0
  188.5970  174.8670  141.4080 C   0  0  0  0  0  0  0  0  0  0  0  0
  188.3210  174.7920  139.9340 C   0  0  0  0  0  2  0  0  0  0  0  0
  185.8710  177.8190  144.8200 C   0  0  0  0  0  3  0  0  0  0  0  0
  187.5070  176.7880  142.7990 C   0  0  0  0  0  0  0  0  0  0  0  0
  188.7770  173.4900  139.2800 C   0  0  1  0  0  3  0  0  0  0  0  0
  188.1900  173.4130  137.8870 C   0  0  0  0  0  1  0  0  0  0  0  0
  190.9310  172.9720  140.4930 C   0  0  1  0  0  0  0  0  0  0  0  0
  186.2630  178.4190  141.6540 F   0  0  0  0  0  0  0  0  0  0  0  0
  190.8400  171.4880  140.8030 C   0  0  0  0  0  2  0  0  0  0  0  0
  192.5110  171.7300  139.0530 N   0  0  0  0  0  1  0  0  0  0  0  0
  185.3080  177.5830  143.6310 C   0  0  0  0  0  3  0  0  0  0  0  0
  190.4160  177.9330  143.6300 N   0  0  0  0  0  0  0  0  0  0  0  0
  192.2430  177.1160  144.9300 C   0  0  0  0  0  0  0  0  0  0  0  0
  190.0100  176.4150  145.3810 N   0  0  0  0  0  0  0  0  0  0  0  0
  191.7480  177.9120  143.8940 C   0  0  0  0  0  3  0  0  0  0  0  0
  191.3350  176.3630  145.6720 C   0  0  0  0  0  3  0  0  0  0  0  0
  189.5430  177.1880  144.3620 C   0  0  0  0  0  0  0  0  0  0  0  0
  194.1460  176.5140  146.4870 C   0  0  0  0  0  1  0  0  0  0  0  0
  193.6360  177.0640  145.2420 N   0  0  0  0  0  2  0  0  0  0  0  0
  193.2600  175.0660  142.2980 O   0  0  0  0  0  0  0  0  0  0  0  0
  193.1930  172.6500  145.0350 C   0  0  0  0  0  1  0  0  0  0  0  0
  192.8480  174.1250  143.0260 C   0  0  0  0  0  0  0  0  0  0  0  0
  193.6250  173.7160  144.1490 N   0  0  0  0  0  2  0  0  0  0  0  0
  191.6090  173.4770  142.7280 N   0  0  0  0  0  2  0  0  0  0  0  0
  2 16  1  6  0  0  0
  2 12  1  0  0  0  0
  2 19  1  0  0  0  0
  3 13  1  0  0  0  0
  4 12  2  0  0  0  0
  5 18  1  6  0  0  0
  5 15  1  0  0  0  0
  5 17  1  0  0  0  0
  6 25  1  0  0  0  0
  6  1  2  0  0  0  0
  7  8  1  0  0  0  0
  7 32  1  0  0  0  0
  9  4  2  0  0  0  0
  9  8  1  0  0  0  0
 10  9  1  0  0  0  0
 11  1  1  0  0  0  0
 12  6  1  0  0  0  0
 13 14  1  6  0  0  0
 13 10  1  0  0  0  0
 15  3  1  6  0  0  0
 15 17  1  0  0  0  0
 15  7  1  0  0  0  0
 19 11  2  0  0  0  0
 20 23  1  0  0  0  0
 20 25  2  0  0  0  0
 21 27  1  0  0  0  0
 21 24  1  0  0  0  0
 22 24  2  0  0  0  0
 23 21  2  0  0  0  0
 25 22  1  0  0  0  0
 27 26  1  0  0  0  0
 28 30  2  0  0  0  0
 30 31  1  0  0  0  0
 31 29  1  0  0  0  0
 32 30  1  0  0  0  0
M  END
>  <MODEL>
5

>  <REMARK>
 VINA RESULT:      -6.8      2.038      5.528
  Name = 
  3 active torsions:
  status: ('A' for Active; 'I' for Inactive)
    1  A    between atoms: C_10  and  N_13
    2  A    between atoms: C_14  and  C_32
    3  A    between atoms: N_15  and  N_29
                            x       y       z     vdW  Elec       q    Type
                         _______ _______ _______ _____ _____    ______ ____

>  <TORSDO>
F 3

$$$$
=
 OpenBabel11042414513D

 32 35  0  0  1  0  0  0  0  0999 V2000
  187.9410  173.3770  139.7670 N   0  0  0  0  0  0  0  0  0  0  0  0
  190.7490  173.0440  139.2960 C   0  0  2  0  0  3  0  0  0  0  0  0
  193.8090  175.8430  144.3320 C   0  0  0  0  0  2  0  0  0  0  0  0
  190.9720  174.1060  141.4590 C   0  0  0  0  0  0  0  0  0  0  0  0
  192.5380  176.4320  146.5510 C   0  0  1  0  0  3  0  0  0  0  0  0
  188.7390  174.1270  140.4740 C   0  0  0  0  0  0  0  0  0  0  0  0
  191.2500  175.6770  144.4540 N   0  0  0  0  0  0  0  0  0  0  0  0
  191.1270  174.3550  143.8500 C   0  0  0  0  0  2  0  0  0  0  0  0
  191.7370  174.3490  142.4850 C   0  0  0  0  0  0  0  0  0  0  0  0
  193.2060  174.5580  142.2540 C   0  0  0  0  0  2  0  0  0  0  0  0
  188.4110  172.2920  138.9500 C   0  0  0  0  0  3  0  0  0  0  0  0
  190.1980  173.8480  140.4370 C   0  0  0  0  0  0  0  0  0  0  0  0
  194.0430  174.5690  143.5310 C   0  0  1  0  0  3  0  0  0  0  0  0
  195.5070  174.4900  143.1550 C   0  0  0  0  0  1  0  0  0  0  0  0
  192.5390  175.7480  145.1810 C   0  0  1  0  0  0  0  0  0  0  0  0
  191.1520  173.9040  138.2910 F   0  0  0  0  0  0  0  0  0  0  0  0
  192.6390  174.9110  146.4450 C   0  0  0  0  0  2  0  0  0  0  0  0
  193.8440  176.9770  146.8850 N   0  0  0  0  0  1  0  0  0  0  0  0
  189.7170  172.0980  138.7450 C   0  0  0  0  0  3  0  0  0  0  0  0
  188.3130  176.5220  140.8880 N   0  0  0  0  0  0  0  0  0  0  0  0
  187.0280  177.2620  142.7570 C   0  0  0  0  0  0  0  0  0  0  0  0
  187.4410  174.9420  142.3970 N   0  0  0  0  0  0  0  0  0  0  0  0
  187.7630  177.5380  141.6020 C   0  0  0  0  0  3  0  0  0  0  0  0
  186.8800  175.9300  143.1400 C   0  0  0  0  0  3  0  0  0  0  0  0
  188.1630  175.2260  141.2780 C   0  0  0  0  0  0  0  0  0  0  0  0
  185.3070  178.0690  144.4300 C   0  0  0  0  0  1  0  0  0  0  0  0
  186.4310  178.2990  143.5370 N   0  0  0  0  0  2  0  0  0  0  0  0
  189.8260  178.0670  144.7850 O   0  0  0  0  0  0  0  0  0  0  0  0
  187.8280  176.0400  147.0720 C   0  0  0  0  0  1  0  0  0  0  0  0
  189.4500  177.0610  145.4430 C   0  0  0  0  0  0  0  0  0  0  0  0
  188.3180  177.1690  146.3020 N   0  0  0  0  0  2  0  0  0  0  0  0
  190.1550  175.8230  145.3250 N   0  0  0  0  0  2  0  0  0  0  0  0
  1  6  2  0  0  0  0
  2 16  1  6  0  0  0
  2 12  1  0  0  0  0
  4  9  2  0  0  0  0
  5 18  1  6  0  0  0
  6 25  1  0  0  0  0
  7 15  1  0  0  0  0
  7 32  1  0  0  0  0
  8  7  1  0  0  0  0
  9  8  1  0  0  0  0
 10  9  1  0  0  0  0
 10 13  1  0  0  0  0
 11  1  1  0  0  0  0
 12  6  1  0  0  0  0
 12  4  2  0  0  0  0
 13 14  1  6  0  0  0
 13  3  1  0  0  0  0
 15  3  1  6  0  0  0
 15 17  1  0  0  0  0
 15  5  1  0  0  0  0
 17  5  1  0  0  0  0
 19 11  2  0  0  0  0
 19  2  1  0  0  0  0
 20 25  2  0  0  0  0
 20 23  1  0  0  0  0
 21 24  1  0  0  0  0
 21 27  1  0  0  0  0
 22 24  2  0  0  0  0
 23 21  2  0  0  0  0
 25 22  1  0  0  0  0
 27 26  1  0  0  0  0
 28 30  2  0  0  0  0
 30 31  1  0  0  0  0
 31 29  1  0  0  0  0
 32 30  1  0  0  0  0
M  END
>  <MODEL>
6

>  <REMARK>
 VINA RESULT:      -6.8      2.572      5.567
  Name = 
  3 active torsions:
  status: ('A' for Active; 'I' for Inactive)
    1  A    between atoms: C_10  and  N_13
    2  A    between atoms: C_14  and  C_32
    3  A    between atoms: N_15  and  N_29
                            x       y       z     vdW  Elec       q    Type
                         _______ _______ _______ _____ _____    ______ ____

>  <TORSDO>
F 3

$$$$
=
 OpenBabel11042414513D

 32 35  0  0  1  0  0  0  0  0999 V2000
  186.9430  176.0470  142.8410 N   0  0  0  0  0  0  0  0  0  0  0  0
  188.0960  176.9740  145.2960 C   0  0  2  0  0  3  0  0  0  0  0  0
  194.4550  175.5460  145.0020 C   0  0  0  0  0  2  0  0  0  0  0  0
  190.1730  176.2400  144.2930 C   0  0  0  0  0  0  0  0  0  0  0  0
  195.6150  174.9250  142.7300 C   0  0  1  0  0  3  0  0  0  0  0  0
  188.1270  175.5880  143.1330 C   0  0  0  0  0  0  0  0  0  0  0  0
  193.0530  175.1210  142.8920 N   0  0  0  0  0  0  0  0  0  0  0  0
  192.2040  176.3020  143.0000 C   0  0  0  0  0  2  0  0  0  0  0  0
  191.4740  176.2980  144.3050 C   0  0  0  0  0  0  0  0  0  0  0  0
  192.1770  176.4150  145.6270 C   0  0  0  0  0  2  0  0  0  0  0  0
  186.3180  177.1140  143.5730 C   0  0  0  0  0  3  0  0  0  0  0  0
  188.8660  176.1940  144.2700 C   0  0  0  0  0  0  0  0  0  0  0  0
  193.6650  176.7420  145.5150 C   0  0  1  0  0  3  0  0  0  0  0  0
  194.1850  177.1190  146.8850 C   0  0  0  0  0  1  0  0  0  0  0  0
  194.3790  175.4340  143.4760 C   0  0  1  0  0  0  0  0  0  0  0  0
  187.7300  176.1260  146.3250 F   0  0  0  0  0  0  0  0  0  0  0  0
  195.2410  176.4060  142.6890 C   0  0  0  0  0  2  0  0  0  0  0  0
  196.7480  174.7420  143.6240 N   0  0  0  0  0  1  0  0  0  0  0  0
  186.8560  177.5850  144.7020 C   0  0  0  0  0  3  0  0  0  0  0  0
  188.8600  173.2460  142.8740 N   0  0  0  0  0  0  0  0  0  0  0  0
  189.6680  172.4090  140.7900 C   0  0  0  0  0  0  0  0  0  0  0  0
  188.9870  174.6820  141.0150 N   0  0  0  0  0  0  0  0  0  0  0  0
  189.3430  172.2140  142.1350 C   0  0  0  0  0  3  0  0  0  0  0  0
  189.4770  173.6770  140.2450 C   0  0  0  0  0  3  0  0  0  0  0  0
  188.6840  174.4800  142.3270 C   0  0  0  0  0  0  0  0  0  0  0  0
  190.8210  170.1700  140.5280 C   0  0  0  0  0  1  0  0  0  0  0  0
  190.1770  171.3510  139.9770 N   0  0  0  0  0  2  0  0  0  0  0  0
  193.0260  172.5160  141.8600 O   0  0  0  0  0  0  0  0  0  0  0  0
  193.2510  174.2610  138.6600 C   0  0  0  0  0  1  0  0  0  0  0  0
  193.1120  173.4730  141.0450 C   0  0  0  0  0  0  0  0  0  0  0  0
  193.1680  173.1990  139.6470 N   0  0  0  0  0  2  0  0  0  0  0  0
  193.1500  174.8200  141.5210 N   0  0  0  0  0  2  0  0  0  0  0  0
  1  6  2  0  0  0  0
  1 11  1  0  0  0  0
  2 16  1  1  0  0  0
  3 13  1  0  0  0  0
  4  9  2  0  0  0  0
  5 15  1  0  0  0  0
  5 18  1  1  0  0  0
  6 12  1  0  0  0  0
  7  8  1  0  0  0  0
  7 15  1  0  0  0  0
  8  9  1  0  0  0  0
  9 10  1  0  0  0  0
 11 19  2  0  0  0  0
 12  4  2  0  0  0  0
 12  2  1  0  0  0  0
 13 10  1  0  0  0  0
 13 14  1  1  0  0  0
 15 17  1  6  0  0  0
 15  3  1  0  0  0  0
 17  5  1  0  0  0  0
 19  2  1  0  0  0  0
 21 23  2  0  0  0  0
 22 25  1  0  0  0  0
 23 20  1  0  0  0  0
 24 21  1  0  0  0  0
 24 22  2  0  0  0  0
 25 20  2  0  0  0  0
 25  6  1  0  0  0  0
 27 26  1  0  0  0  0
 27 21  1  0  0  0  0
 29 31  1  0  0  0  0
 30 32  1  0  0  0  0
 30 28  2  0  0  0  0
 31 30  1  0  0  0  0
 32  7  1  0  0  0  0
M  END
>  <MODEL>
7

>  <REMARK>
 VINA RESULT:      -6.8      1.643      1.981
  Name = 
  3 active torsions:
  status: ('A' for Active; 'I' for Inactive)
    1  A    between atoms: C_10  and  N_13
    2  A    between atoms: C_14  and  C_32
    3  A    between atoms: N_15  and  N_29
                            x       y       z     vdW  Elec       q    Type
                         _______ _______ _______ _____ _____    ______ ____

>  <TORSDO>
F 3

$$$$
=
 OpenBabel11042414513D

 32 35  0  0  1  0  0  0  0  0999 V2000
  192.8780  176.7760  146.3330 N   0  0  0  0  0  0  0  0  0  0  0  0
  194.0700  174.2940  145.5340 C   0  0  2  0  0  3  0  0  0  0  0  0
  190.2560  171.8420  140.8430 C   0  0  0  0  0  2  0  0  0  0  0  0
  192.2800  174.2610  143.9050 C   0  0  0  0  0  0  0  0  0  0  0  0
  188.4800  173.3280  139.6060 C   0  0  1  0  0  3  0  0  0  0  0  0
  192.1240  175.9690  145.6410 C   0  0  0  0  0  0  0  0  0  0  0  0
  189.7090  174.2040  141.6920 N   0  0  0  0  0  0  0  0  0  0  0  0
  191.0850  174.6600  141.8520 C   0  0  0  0  0  2  0  0  0  0  0  0
  191.8240  173.7610  142.7920 C   0  0  0  0  0  0  0  0  0  0  0  0
  192.1070  172.3200  142.4790 C   0  0  0  0  0  2  0  0  0  0  0  0
  194.2870  176.5600  146.5180 C   0  0  0  0  0  3  0  0  0  0  0  0
  192.7470  174.7750  145.0130 C   0  0  0  0  0  0  0  0  0  0  0  0
  191.7630  171.9130  141.0480 C   0  0  1  0  0  3  0  0  0  0  0  0
  192.3570  170.5480  140.7740 C   0  0  0  0  0  1  0  0  0  0  0  0
  189.6590  173.2270  140.5780 C   0  0  1  0  0  0  0  0  0  0  0  0
  193.8510  173.3430  146.5130 F   0  0  0  0  0  0  0  0  0  0  0  0
  189.8740  173.7940  139.1850 C   0  0  0  0  0  2  0  0  0  0  0  0
  188.1910  172.0510  138.9730 N   0  0  0  0  0  1  0  0  0  0  0  0
  194.8700  175.4250  146.1220 C   0  0  0  0  0  3  0  0  0  0  0  0
  189.7610  175.5530  146.2150 N   0  0  0  0  0  0  0  0  0  0  0  0
  187.9990  176.8840  145.3110 C   0  0  0  0  0  0  0  0  0  0  0  0
  190.2710  177.2970  144.7210 N   0  0  0  0  0  0  0  0  0  0  0  0
  188.4360  175.8400  146.1290 C   0  0  0  0  0  3  0  0  0  0  0  0
  188.9550  177.6100  144.6040 C   0  0  0  0  0  3  0  0  0  0  0  0
  190.6820  176.2700  145.5140 C   0  0  0  0  0  0  0  0  0  0  0  0
  185.6120  176.7910  146.1530 C   0  0  0  0  0  1  0  0  0  0  0  0
  186.6160  177.2210  145.1920 N   0  0  0  0  0  2  0  0  0  0  0  0
  187.1350  174.6360  142.7120 O   0  0  0  0  0  0  0  0  0  0  0  0
  187.4240  177.7840  140.8830 C   0  0  0  0  0  1  0  0  0  0  0  0
  187.6350  175.5270  141.9750 C   0  0  0  0  0  0  0  0  0  0  0  0
  186.8930  176.7150  141.7100 N   0  0  0  0  0  2  0  0  0  0  0  0
  188.9370  175.3460  141.4140 N   0  0  0  0  0  2  0  0  0  0  0  0
  1 11  1  0  0  0  0
  2 19  1  0  0  0  0
  2 16  1  1  0  0  0
  3 13  1  0  0  0  0
  4 12  2  0  0  0  0
  5 18  1  6  0  0  0
  5 15  1  0  0  0  0
  6  1  2  0  0  0  0
  7  8  1  0  0  0  0
  8  9  1  0  0  0  0
  9  4  2  0  0  0  0
 10  9  1  0  0  0  0
 12  2  1  0  0  0  0
 12  6  1  0  0  0  0
 13 14  1  1  0  0  0
 13 10  1  0  0  0  0
 15 17  1  6  0  0  0
 15  3  1  0  0  0  0
 15  7  1  0  0  0  0
 17  5  1  0  0  0  0
 19 11  2  0  0  0  0
 21 23  2  0  0  0  0
 22 25  1  0  0  0  0
 23 20  1  0  0  0  0
 24 22  2  0  0  0  0
 24 21  1  0  0  0  0
 25  6  1  0  0  0  0
 25 20  2  0  0  0  0
 27 21  1  0  0  0  0
 27 26  1  0  0  0  0
 29 31  1  0  0  0  0
 30 28  2  0  0  0  0
 31 30  1  0  0  0  0
 32  7  1  0  0  0  0
 32 30  1  0  0  0  0
M  END
>  <MODEL>
8

>  <REMARK>
 VINA RESULT:      -6.7      2.561      6.768
  Name = 
  3 active torsions:
  status: ('A' for Active; 'I' for Inactive)
    1  A    between atoms: C_10  and  N_13
    2  A    between atoms: C_14  and  C_32
    3  A    between atoms: N_15  and  N_29
                            x       y       z     vdW  Elec       q    Type
                         _______ _______ _______ _____ _____    ______ ____

>  <TORSDO>
F 3

$$$$
=
 OpenBabel11042414513D

 32 35  0  0  1  0  0  0  0  0999 V2000
  191.1460  172.6760  138.5370 N   0  0  0  0  0  0  0  0  0  0  0  0
  188.4010  173.4010  138.9300 C   0  0  2  0  0  3  0  0  0  0  0  0
  188.0670  176.2500  144.7900 C   0  0  0  0  0  2  0  0  0  0  0  0
  189.2260  174.3760  140.9860 C   0  0  0  0  0  0  0  0  0  0  0  0
  190.2220  177.1010  146.0230 C   0  0  1  0  0  3  0  0  0  0  0  0
  190.7940  172.9670  139.7570 C   0  0  0  0  0  0  0  0  0  0  0  0
  190.4010  175.6560  143.8990 N   0  0  0  0  0  0  0  0  0  0  0  0
  190.1540  176.0000  142.5040 C   0  0  0  0  0  2  0  0  0  0  0  0
  189.0070  175.2030  141.9690 C   0  0  0  0  0  0  0  0  0  0  0  0
  187.6050  175.3560  142.4830 C   0  0  0  0  0  2  0  0  0  0  0  0
  190.2900  172.9000  137.4040 C   0  0  0  0  0  3  0  0  0  0  0  0
  189.4520  173.5600  139.9900 C   0  0  0  0  0  0  0  0  0  0  0  0
  187.4170  176.5300  143.4410 C   0  0  1  0  0  3  0  0  0  0  0  0
  185.9350  176.7550  143.6510 C   0  0  0  0  0  1  0  0  0  0  0  0
  189.5710  176.5330  144.7590 C   0  0  1  0  0  0  0  0  0  0  0  0
  187.6590  172.2650  139.1970 F   0  0  0  0  0  0  0  0  0  0  0  0
  189.9780  177.9960  144.8090 C   0  0  0  0  0  2  0  0  0  0  0  0
  189.2360  177.4050  147.0490 N   0  0  0  0  0  1  0  0  0  0  0  0
  189.0170  173.2710  137.5630 C   0  0  0  0  0  3  0  0  0  0  0  0
  191.5210  171.6590  141.7200 N   0  0  0  0  0  0  0  0  0  0  0  0
  193.5480  172.1550  142.8750 C   0  0  0  0  0  0  0  0  0  0  0  0
  192.8630  173.4510  140.9970 N   0  0  0  0  0  0  0  0  0  0  0  0
  192.3980  171.3780  142.7170 C   0  0  0  0  0  3  0  0  0  0  0  0
  193.7610  173.2050  141.9850 C   0  0  0  0  0  3  0  0  0  0  0  0
  191.7410  172.6920  140.8600 C   0  0  0  0  0  0  0  0  0  0  0  0
  194.1450  171.2410  145.1610 C   0  0  0  0  0  1  0  0  0  0  0  0
  194.4980  171.8940  143.9100 N   0  0  0  0  0  2  0  0  0  0  0  0
  191.9850  173.9910  145.5020 O   0  0  0  0  0  0  0  0  0  0  0  0
  194.6420  176.2770  144.4760 C   0  0  0  0  0  1  0  0  0  0  0  0
  192.5420  174.9690  144.9380 C   0  0  0  0  0  0  0  0  0  0  0  0
  193.9420  175.1770  145.1140 N   0  0  0  0  0  2  0  0  0  0  0  0
  191.7750  175.8610  144.1250 N   0  0  0  0  0  2  0  0  0  0  0  0
  1  6  2  0  0  0  0
  2 16  1  1  0  0  0
  2 12  1  0  0  0  0
  4  9  2  0  0  0  0
  5 18  1  1  0  0  0
  6 12  1  0  0  0  0
  6 25  1  0  0  0  0
  7 32  1  0  0  0  0
  7 15  1  0  0  0  0
  8  7  1  0  0  0  0
  9 10  1  0  0  0  0
  9  8  1  0  0  0  0
 10 13  1  0  0  0  0
 11 19  2  0  0  0  0
 11  1  1  0  0  0  0
 12  4  2  0  0  0  0
 13 14  1  1  0  0  0
 13  3  1  0  0  0  0
 15  3  1  1  0  0  0
 15 17  1  0  0  0  0
 15  5  1  0  0  0  0
 17  5  1  0  0  0  0
 19  2  1  0  0  0  0
 20 23  1  0  0  0  0
 21 27  1  0  0  0  0
 22 24  2  0  0  0  0
 23 21  2  0  0  0  0
 24 21  1  0  0  0  0
 25 22  1  0  0  0  0
 25 20  2  0  0  0  0
 27 26  1  0  0  0  0
 29 31  1  0  0  0  0
 30 31  1  0  0  0  0
 30 28  2  0  0  0  0
 32 30  1  0  0  0  0
M  END
>  <MODEL>
9

>  <REMARK>
 VINA RESULT:      -6.6      2.428      5.594
  Name = 
  3 active torsions:
  status: ('A' for Active; 'I' for Inactive)
    1  A    between atoms: C_10  and  N_13
    2  A    between atoms: C_14  and  C_32
    3  A    between atoms: N_15  and  N_29
                            x       y       z     vdW  Elec       q    Type
                         _______ _______ _______ _____ _____    ______ ____

>  <TORSDO>
F 3

$$$$
