=
 OpenBabel11042415463D

 54 57  0  0  1  0  0  0  0  0999 V2000
  188.4580  176.7690  142.5910 C   0  0  0  0  0  0  0  0  0  0  0  0
  190.0630  174.1340  144.7860 C   0  0  0  0  0  0  0  0  0  0  0  0
  190.8440  174.0750  145.8220 N   0  0  0  0  0  0  0  0  0  0  0  0
  192.1050  175.1130  147.4750 O   0  0  0  0  0  0  0  0  0  0  0  0
  191.4640  175.2310  146.3980 C   0  0  0  0  0  0  0  0  0  0  0  0
  190.3270  176.6150  144.6540 C   0  0  0  0  0  0  0  0  0  0  0  0
  189.0730  177.9160  143.1050 C   0  0  0  0  0  3  0  0  0  0  0  0
  191.3820  176.5760  145.7250 C   0  0  2  0  0  3  0  0  0  0  0  0
  188.7890  175.5300  143.1400 C   0  0  0  0  0  3  0  0  0  0  0  0
  189.9860  177.8140  144.1080 N   0  0  0  0  0  0  0  0  0  0  0  0
  189.7270  175.4390  144.1740 C   0  0  0  0  0  0  0  0  0  0  0  0
  194.6120  176.5120  143.6850 N   0  0  0  0  0  2  0  0  0  0  0  0
  192.6720  176.9240  145.1450 N   0  0  0  0  0  2  0  0  0  0  0  0
  193.3620  176.0780  144.2250 C   0  0  0  0  0  0  0  0  0  0  0  0
  192.8760  174.9580  143.9060 O   0  0  0  0  0  0  0  0  0  0  0  0
  196.3020  174.8810  143.0510 C   0  0  0  0  0  0  0  0  0  0  0  0
  195.3840  175.9810  141.2520 C   0  0  0  0  0  2  0  0  0  0  0  0
  195.3990  175.7890  142.7310 C   0  0  0  0  0  0  0  0  0  0  0  0
  196.4180  175.0630  140.7900 N   0  0  0  0  0  0  0  0  0  0  0  0
  196.9240  174.4500  141.8030 C   0  0  0  0  0  0  0  0  0  0  0  0
  197.7090  172.1870  141.1820 C   0  0  0  0  0  1  0  0  0  0  0  0
  197.9410  173.5050  141.6510 O   0  0  0  0  0  0  0  0  0  0  0  0
  196.2500  173.0500  144.7050 C   0  0  0  0  0  1  0  0  0  0  0  0
  196.6730  174.4840  144.4430 C   0  0  0  0  0  2  0  0  0  0  0  0
  187.4260  176.8230  141.5020 C   0  0  0  0  0  2  0  0  0  0  0  0
  186.4190  177.8460  141.7540 N   0  0  0  0  0  0  0  0  0  0  0  0
  186.3800  177.4990  139.4520 O   0  0  0  0  0  1  0  0  0  0  0  0
  185.6380  177.9770  140.5350 C   0  0  0  0  0  2  0  0  0  0  0  0
  185.5340  177.3030  142.7690 C   0  0  0  0  0  2  0  0  0  0  0  0
  185.0050  178.4190  143.6470 C   0  0  0  0  0  2  0  0  0  0  0  0
  185.8660  178.6270  144.7240 O   0  0  0  0  0  0  0  0  0  0  0  0
  185.4090  177.4220  145.8870 P   0  0  1  0  0  0  0  0  0  0  0  0
  187.0080  176.7620  146.0540 O   0  0  0  0  0  1  0  0  0  0  0  0
  185.5310  178.5450  147.3630 C   0  0  0  0  0  1  0  0  0  0  0  0
  189.4410  172.8740  144.2820 C   0  0  0  0  0  2  0  0  0  0  0  0
  190.3590  172.2120  143.2750 C   0  0  0  0  0  2  0  0  0  0  0  0
  189.5870  171.8430  142.0610 C   0  0  0  0  0  3  0  0  0  0  0  0
  189.3510  172.7570  141.1310 C   0  0  0  0  0  3  0  0  0  0  0  0
  188.6330  172.4060  139.9530 N   0  0  0  0  0  2  0  0  0  0  0  0
  190.6260  172.5960  138.7480 O   0  0  0  0  0  0  0  0  0  0  0  0
  190.1670  173.5780  135.8530 C   0  0  0  0  0  2  0  0  0  0  0  0
  192.3660  171.1350  137.8920 C   0  0  2  0  0  3  0  0  0  0  0  0
  192.4880  171.9780  136.6260 C   0  0  0  0  0  2  0  0  0  0  0  0
  188.7340  173.8470  137.9640 C   0  0  0  0  0  0  0  0  0  0  0  0
  187.9630  174.6280  138.5870 O   0  0  0  0  0  0  0  0  0  0  0  0
  189.0600  174.1560  136.6020 N   0  0  0  0  0  2  0  0  0  0  0  0
  189.9030  171.7990  135.5550 S   0  0  0  0  0  0  0  0  0  0  0  0
  190.9980  171.2570  138.5570 C   0  0  0  0  0  2  0  0  0  0  0  0
  189.2330  172.5880  138.6360 C   0  0  2  0  0  3  0  0  0  0  0  0
  191.6880  171.4170  135.4510 C   0  0  0  0  0  2  0  0  0  0  0  0
  193.6840  171.5850  139.0600 P   0  0  0  0  0  0  0  0  0  0  0  0
  194.0800  173.0310  138.8620 O   0  0  0  0  0  1  0  0  0  0  0  0
  193.1360  171.3660  140.6450 O   0  0  0  0  0  1  0  0  0  0  0  0
  195.0280  170.5960  138.7940 O   0  0  0  0  0  0  0  0  0  0  0  0
  1  7  2  0  0  0  0
  1  9  1  0  0  0  0
  2  3  2  0  0  0  0
  3  5  1  0  0  0  0
  5  4  2  0  0  0  0
  6  8  1  0  0  0  0
  7 10  1  0  0  0  0
  8 13  1  6  0  0  0
  8  5  1  0  0  0  0
  9 11  2  0  0  0  0
 10  6  2  0  0  0  0
 11  6  1  0  0  0  0
 11  2  1  0  0  0  0
 12 14  1  0  0  0  0
 14 13  1  0  0  0  0
 15 14  2  0  0  0  0
 16 24  1  0  0  0  0
 17 18  1  0  0  0  0
 18 16  2  0  0  0  0
 18 12  1  0  0  0  0
 19 17  1  0  0  0  0
 19 20  2  0  0  0  0
 20 16  1  0  0  0  0
 21 22  1  0  0  0  0
 22 20  1  0  0  0  0
 24 23  1  0  0  0  0
 25 26  1  0  0  0  0
 25  1  1  0  0  0  0
 26 29  1  0  0  0  0
 27 28  1  0  0  0  0
 28 26  1  0  0  0  0
 29 30  1  0  0  0  0
 30 31  1  0  0  0  0
 31 32  1  0  0  0  0
 32 33  1  0  0  0  0
 32 34  1  1  0  0  0
 35  2  1  0  0  0  0
 36 35  1  0  0  0  0
 37 36  1  0  0  0  0
 38 37  2  0  0  0  0
 39 38  1  0  0  0  0
 41 46  1  0  0  0  0
 42 48  1  0  0  0  0
 42 51  1  1  0  0  0
 43 42  1  0  0  0  0
 44 45  2  0  0  0  0
 44 49  1  0  0  0  0
 46 44  1  0  0  0  0
 47 41  1  0  0  0  0
 48 40  1  0  0  0  0
 49 40  1  0  0  0  0
 49 39  1  1  0  0  0
 50 47  1  0  0  0  0
 50 43  1  0  0  0  0
 51 53  1  0  0  0  0
 52 51  1  0  0  0  0
 54 51  2  0  0  0  0
M  END
>  <MODEL>
1

>  <REMARK>
 VINA RESULT:      -6.3      0.000      0.000
  Name = 
  17 active torsions:
  status: ('A' for Active; 'I' for Inactive)
    1  A    between atoms: C_1  and  C_13
    2  A    between atoms: C_2  and  C_9
    3  A    between atoms: P_3  and  C_35
    4  A    between atoms: C_4  and  C_27
    5  A    between atoms: C_4  and  N_36
    6  A    between atoms: C_9  and  C_49
    7  A    between atoms: N_10  and  C_25
    8  A    between atoms: C_11  and  C_14
    9  A    between atoms: C_13  and  N_36
   10  A    between atoms: N_15  and  C_30
   11  A    between atoms: C_20  and  C_49
   12  A    between atoms: C_21  and  N_24
   13  A    between atoms: N_24  and  C_50
   14  A    between atoms: C_27  and  O_54
   15  A    between atoms: P_28  and  O_54
   16  A    between atoms: O_33  and  C_51
   17  A    between atoms: N_36  and  C_42
                            x       y       z     vdW  Elec       q    Type
                         _______ _______ _______ _____ _____    ______ ____

>  <TORSDO>
F 17

$$$$
=
 OpenBabel11042415463D

 54 57  0  0  1  0  0  0  0  0999 V2000
  188.7070  176.6430  142.3200 C   0  0  0  0  0  0  0  0  0  0  0  0
  190.1960  174.1530  144.7520 C   0  0  0  0  0  0  0  0  0  0  0  0
  190.9740  174.1540  145.7910 N   0  0  0  0  0  0  0  0  0  0  0  0
  192.2800  175.2830  147.3470 O   0  0  0  0  0  0  0  0  0  0  0  0
  191.6440  175.3300  146.2620 C   0  0  0  0  0  0  0  0  0  0  0  0
  190.5680  176.5970  144.3940 C   0  0  0  0  0  0  0  0  0  0  0  0
  189.3710  177.8040  142.7290 C   0  0  0  0  0  3  0  0  0  0  0  0
  191.6210  176.6100  145.4680 C   0  0  2  0  0  3  0  0  0  0  0  0
  188.9830  175.4460  142.9810 C   0  0  0  0  0  3  0  0  0  0  0  0
  190.2800  177.7550  143.7390 N   0  0  0  0  0  0  0  0  0  0  0  0
  189.9170  175.4090  144.0220 C   0  0  0  0  0  0  0  0  0  0  0  0
  194.9020  176.1710  143.5590 N   0  0  0  0  0  2  0  0  0  0  0  0
  192.9250  176.8470  144.8630 N   0  0  0  0  0  2  0  0  0  0  0  0
  193.6390  175.8410  144.1430 C   0  0  0  0  0  0  0  0  0  0  0  0
  193.1640  174.6780  144.0370 O   0  0  0  0  0  0  0  0  0  0  0  0
  195.5400  175.0470  141.4990 C   0  0  0  0  0  0  0  0  0  0  0  0
  196.8280  174.4320  143.3030 C   0  0  0  0  0  2  0  0  0  0  0  0
  195.7150  175.2800  142.7850 C   0  0  0  0  0  0  0  0  0  0  0  0
  197.2420  173.6780  142.1250 N   0  0  0  0  0  0  0  0  0  0  0  0
  196.5170  174.0310  141.1200 C   0  0  0  0  0  0  0  0  0  0  0  0
  196.6080  172.0730  139.6100 C   0  0  0  0  0  1  0  0  0  0  0  0
  196.7000  173.4660  139.8550 O   0  0  0  0  0  0  0  0  0  0  0  0
  193.4760  174.5610  140.2370 C   0  0  0  0  0  1  0  0  0  0  0  0
  194.4610  175.6380  140.6510 C   0  0  0  0  0  2  0  0  0  0  0  0
  187.6780  176.6420  141.2270 C   0  0  0  0  0  2  0  0  0  0  0  0
  186.6990  177.7080  141.3970 N   0  0  0  0  0  0  0  0  0  0  0  0
  186.6140  177.1650  139.1340 O   0  0  0  0  0  1  0  0  0  0  0  0
  185.8950  177.7400  140.1860 C   0  0  0  0  0  2  0  0  0  0  0  0
  185.8230  177.2870  142.4760 C   0  0  0  0  0  2  0  0  0  0  0  0
  185.2280  178.4990  143.1640 C   0  0  0  0  0  2  0  0  0  0  0  0
  185.8490  178.7000  144.3980 O   0  0  0  0  0  0  0  0  0  0  0  0
  185.9610  177.1120  145.0930 P   0  0  1  0  0  0  0  0  0  0  0  0
  187.4580  177.4170  145.9180 O   0  0  0  0  0  1  0  0  0  0  0  0
  184.8770  177.4840  146.5560 C   0  0  0  0  0  1  0  0  0  0  0  0
  189.5190  172.8800  144.3630 C   0  0  0  0  0  2  0  0  0  0  0  0
  190.4920  171.9810  143.6290 C   0  0  0  0  0  2  0  0  0  0  0  0
  189.9380  171.6260  142.2960 C   0  0  0  0  0  3  0  0  0  0  0  0
  190.3420  172.2880  141.2220 C   0  0  0  0  0  3  0  0  0  0  0  0
  189.8350  171.9380  139.9380 N   0  0  0  0  0  2  0  0  0  0  0  0
  190.2490  172.4030  137.6860 O   0  0  0  0  0  0  0  0  0  0  0  0
  192.4980  170.6370  136.5100 C   0  0  0  0  0  2  0  0  0  0  0  0
  191.1000  174.2390  136.3460 C   0  0  2  0  0  3  0  0  0  0  0  0
  191.8260  173.2650  135.4230 C   0  0  0  0  0  2  0  0  0  0  0  0
  190.9530  170.2660  138.5250 C   0  0  0  0  0  0  0  0  0  0  0  0
  190.3090  169.3990  139.1770 O   0  0  0  0  0  0  0  0  0  0  0  0
  191.9210  169.8180  137.5670 N   0  0  0  0  0  2  0  0  0  0  0  0
  193.5530  171.9540  137.2000 S   0  0  0  0  0  0  0  0  0  0  0  0
  190.8550  173.6670  137.7390 C   0  0  0  0  0  2  0  0  0  0  0  0
  190.7390  171.7350  138.8120 C   0  0  2  0  0  3  0  0  0  0  0  0
  193.2990  173.0810  135.7830 C   0  0  0  0  0  2  0  0  0  0  0  0
  189.5330  174.7570  135.5860 P   0  0  0  0  0  0  0  0  0  0  0  0
  189.1270  173.7710  134.5140 O   0  0  0  0  0  0  0  0  0  0  0  0
  188.3250  174.8290  136.7680 O   0  0  0  0  0  1  0  0  0  0  0  0
  189.7260  176.2870  134.8930 O   0  0  0  0  0  1  0  0  0  0  0  0
  1  7  2  0  0  0  0
  1  9  1  0  0  0  0
  2  3  2  0  0  0  0
  3  5  1  0  0  0  0
  5  4  2  0  0  0  0
  6  8  1  0  0  0  0
  7 10  1  0  0  0  0
  8 13  1  6  0  0  0
  8  5  1  0  0  0  0
  9 11  2  0  0  0  0
 10  6  2  0  0  0  0
 11  6  1  0  0  0  0
 11  2  1  0  0  0  0
 12 14  1  0  0  0  0
 14 13  1  0  0  0  0
 15 14  2  0  0  0  0
 16 18  2  0  0  0  0
 18 17  1  0  0  0  0
 18 12  1  0  0  0  0
 19 17  1  0  0  0  0
 20 16  1  0  0  0  0
 20 19  2  0  0  0  0
 21 22  1  0  0  0  0
 22 20  1  0  0  0  0
 23 24  1  0  0  0  0
 24 16  1  0  0  0  0
 25 26  1  0  0  0  0
 25  1  1  0  0  0  0
 26 29  1  0  0  0  0
 27 28  1  0  0  0  0
 28 26  1  0  0  0  0
 29 30  1  0  0  0  0
 30 31  1  0  0  0  0
 31 32  1  0  0  0  0
 32 33  1  0  0  0  0
 32 34  1  1  0  0  0
 35  2  1  0  0  0  0
 36 35  1  0  0  0  0
 37 36  1  0  0  0  0
 38 37  2  0  0  0  0
 39 38  1  0  0  0  0
 40 48  1  0  0  0  0
 40 49  1  0  0  0  0
 41 47  1  0  0  0  0
 41 46  1  0  0  0  0
 42 51  1  6  0  0  0
 42 48  1  0  0  0  0
 43 50  1  0  0  0  0
 43 42  1  0  0  0  0
 44 49  1  0  0  0  0
 44 45  2  0  0  0  0
 46 44  1  0  0  0  0
 49 39  1  1  0  0  0
 50 47  1  0  0  0  0
 51 53  1  0  0  0  0
 52 51  2  0  0  0  0
 54 51  1  0  0  0  0
M  END
>  <MODEL>
2

>  <REMARK>
 VINA RESULT:      -6.3      1.828      2.852
  Name = 
  17 active torsions:
  status: ('A' for Active; 'I' for Inactive)
    1  A    between atoms: C_1  and  C_13
    2  A    between atoms: C_2  and  C_9
    3  A    between atoms: P_3  and  C_35
    4  A    between atoms: C_4  and  C_27
    5  A    between atoms: C_4  and  N_36
    6  A    between atoms: C_9  and  C_49
    7  A    between atoms: N_10  and  C_25
    8  A    between atoms: C_11  and  C_14
    9  A    between atoms: C_13  and  N_36
   10  A    between atoms: N_15  and  C_30
   11  A    between atoms: C_20  and  C_49
   12  A    between atoms: C_21  and  N_24
   13  A    between atoms: N_24  and  C_50
   14  A    between atoms: C_27  and  O_54
   15  A    between atoms: P_28  and  O_54
   16  A    between atoms: O_33  and  C_51
   17  A    between atoms: N_36  and  C_42
                            x       y       z     vdW  Elec       q    Type
                         _______ _______ _______ _____ _____    ______ ____

>  <TORSDO>
F 17

$$$$
=
 OpenBabel11042415463D

 54 57  0  0  1  0  0  0  0  0999 V2000
  191.0500  172.9490  137.3400 C   0  0  0  0  0  0  0  0  0  0  0  0
  190.8540  171.3620  140.7720 C   0  0  0  0  0  0  0  0  0  0  0  0
  190.0690  171.3750  141.8060 N   0  0  0  0  0  0  0  0  0  0  0  0
  188.1530  172.1180  142.8910 O   0  0  0  0  0  0  0  0  0  0  0  0
  188.9410  172.2500  141.9180 C   0  0  0  0  0  0  0  0  0  0  0  0
  189.5160  173.1530  139.6580 C   0  0  0  0  0  0  0  0  0  0  0  0
  189.9770  173.8430  137.4280 C   0  0  0  0  0  3  0  0  0  0  0  0
  188.6970  173.3390  140.9060 C   0  0  2  0  0  3  0  0  0  0  0  0
  191.3390  172.1410  138.4400 C   0  0  0  0  0  3  0  0  0  0  0  0
  189.2470  173.9280  138.5720 N   0  0  0  0  0  0  0  0  0  0  0  0
  190.5780  172.2350  139.6100 C   0  0  0  0  0  0  0  0  0  0  0  0
  188.3860  176.7160  142.6660 N   0  0  0  0  0  2  0  0  0  0  0  0
  188.9950  174.6400  141.4900 N   0  0  0  0  0  2  0  0  0  0  0  0
  187.9980  175.4650  142.0940 C   0  0  0  0  0  0  0  0  0  0  0  0
  186.7930  175.0950  142.1100 O   0  0  0  0  0  0  0  0  0  0  0  0
  187.2630  177.6140  144.6280 C   0  0  0  0  0  0  0  0  0  0  0  0
  186.6850  178.6920  142.6800 C   0  0  0  0  0  2  0  0  0  0  0  0
  187.5080  177.6310  143.3320 C   0  0  0  0  0  0  0  0  0  0  0  0
  185.9330  179.2550  143.7950 N   0  0  0  0  0  0  0  0  0  0  0  0
  186.2650  178.6480  144.8810 C   0  0  0  0  0  0  0  0  0  0  0  0
  184.3650  178.6570  146.4670 C   0  0  0  0  0  1  0  0  0  0  0  0
  185.6970  178.9890  146.1110 O   0  0  0  0  0  0  0  0  0  0  0  0
  188.7850  177.3290  146.5510 C   0  0  0  0  0  1  0  0  0  0  0  0
  187.8290  176.6310  145.6010 C   0  0  0  0  0  2  0  0  0  0  0  0
  191.8750  172.7950  136.0960 C   0  0  0  0  0  2  0  0  0  0  0  0
  193.2420  172.3840  136.3920 N   0  0  0  0  0  0  0  0  0  0  0  0
  193.9840  170.3680  135.4960 O   0  0  0  0  0  1  0  0  0  0  0  0
  193.7480  171.7140  135.2060 C   0  0  0  0  0  2  0  0  0  0  0  0
  194.0090  173.6070  136.5490 C   0  0  0  0  0  2  0  0  0  0  0  0
  194.8640  173.5270  137.7980 C   0  0  0  0  0  2  0  0  0  0  0  0
  195.1930  174.8110  138.2340 O   0  0  0  0  0  0  0  0  0  0  0  0
  195.7500  174.5890  139.8630 P   0  0  1  0  0  0  0  0  0  0  0  0
  194.9370  175.9900  140.4910 O   0  0  0  0  0  1  0  0  0  0  0  0
  194.4180  173.3860  140.3430 C   0  0  0  0  0  1  0  0  0  0  0  0
  191.9850  170.3880  140.7400 C   0  0  0  0  0  2  0  0  0  0  0  0
  191.7830  169.3290  141.8040 C   0  0  0  0  0  2  0  0  0  0  0  0
  192.7680  169.5260  142.9000 C   0  0  0  0  0  3  0  0  0  0  0  0
  193.9260  170.1170  142.6410 C   0  0  0  0  0  3  0  0  0  0  0  0
  194.8650  170.3330  143.6890 N   0  0  0  0  0  2  0  0  0  0  0  0
  194.3180  172.6000  143.8240 O   0  0  0  0  0  0  0  0  0  0  0  0
  196.8140  174.4040  144.0820 C   0  0  0  0  0  2  0  0  0  0  0  0
  193.1770  174.0960  145.3590 C   0  0  2  0  0  3  0  0  0  0  0  0
  194.1820  175.2060  145.0670 C   0  0  0  0  0  2  0  0  0  0  0  0
  196.5460  172.0370  143.1290 C   0  0  0  0  0  0  0  0  0  0  0  0
  196.9390  171.2420  142.2320 O   0  0  0  0  0  0  0  0  0  0  0  0
  197.2930  173.2410  143.3490 N   0  0  0  0  0  2  0  0  0  0  0  0
  196.6010  174.0240  145.8520 S   0  0  0  0  0  0  0  0  0  0  0  0
  193.7400  172.7010  145.0980 C   0  0  0  0  0  2  0  0  0  0  0  0
  195.3530  171.6740  143.9850 C   0  0  2  0  0  3  0  0  0  0  0  0
  195.3040  175.2890  146.1010 C   0  0  0  0  0  2  0  0  0  0  0  0
  191.6650  174.3630  144.3880 P   0  0  0  0  0  0  0  0  0  0  0  0
  191.2170  175.8020  144.5120 O   0  0  0  0  0  1  0  0  0  0  0  0
  191.9640  174.0060  142.7620 O   0  0  0  0  0  0  0  0  0  0  0  0
  190.4430  173.3470  144.9650 O   0  0  0  0  0  1  0  0  0  0  0  0
  1  7  2  0  0  0  0
  1  9  1  0  0  0  0
  2  3  2  0  0  0  0
  3  5  1  0  0  0  0
  5  4  2  0  0  0  0
  6  8  1  0  0  0  0
  7 10  1  0  0  0  0
  8 13  1  1  0  0  0
  8  5  1  0  0  0  0
  9 11  2  0  0  0  0
 10  6  2  0  0  0  0
 11  6  1  0  0  0  0
 11  2  1  0  0  0  0
 12 18  1  0  0  0  0
 13 14  1  0  0  0  0
 14 15  2  0  0  0  0
 14 12  1  0  0  0  0
 16 20  1  0  0  0  0
 16 24  1  0  0  0  0
 17 18  1  0  0  0  0
 17 19  1  0  0  0  0
 18 16  2  0  0  0  0
 19 20  2  0  0  0  0
 20 22  1  0  0  0  0
 22 21  1  0  0  0  0
 24 23  1  0  0  0  0
 25 26  1  0  0  0  0
 25  1  1  0  0  0  0
 26 29  1  0  0  0  0
 28 27  1  0  0  0  0
 28 26  1  0  0  0  0
 29 30  1  0  0  0  0
 30 31  1  0  0  0  0
 31 32  1  0  0  0  0
 32 34  1  1  0  0  0
 32 33  1  0  0  0  0
 35  2  1  0  0  0  0
 35 36  1  0  0  0  0
 36 37  1  0  0  0  0
 38 37  2  0  0  0  0
 38 39  1  0  0  0  0
 40 49  1  0  0  0  0
 40 48  1  0  0  0  0
 41 47  1  0  0  0  0
 42 51  1  6  0  0  0
 43 42  1  0  0  0  0
 43 50  1  0  0  0  0
 44 46  1  0  0  0  0
 44 49  1  0  0  0  0
 45 44  2  0  0  0  0
 46 41  1  0  0  0  0
 47 50  1  0  0  0  0
 48 42  1  0  0  0  0
 49 39  1  6  0  0  0
 51 52  1  0  0  0  0
 51 54  1  0  0  0  0
 53 51  2  0  0  0  0
M  END
>  <MODEL>
3

>  <REMARK>
 VINA RESULT:      -6.3      3.197      8.912
  Name = 
  17 active torsions:
  status: ('A' for Active; 'I' for Inactive)
    1  A    between atoms: C_1  and  C_13
    2  A    between atoms: C_2  and  C_9
    3  A    between atoms: P_3  and  C_35
    4  A    between atoms: C_4  and  C_27
    5  A    between atoms: C_4  and  N_36
    6  A    between atoms: C_9  and  C_49
    7  A    between atoms: N_10  and  C_25
    8  A    between atoms: C_11  and  C_14
    9  A    between atoms: C_13  and  N_36
   10  A    between atoms: N_15  and  C_30
   11  A    between atoms: C_20  and  C_49
   12  A    between atoms: C_21  and  N_24
   13  A    between atoms: N_24  and  C_50
   14  A    between atoms: C_27  and  O_54
   15  A    between atoms: P_28  and  O_54
   16  A    between atoms: O_33  and  C_51
   17  A    between atoms: N_36  and  C_42
                            x       y       z     vdW  Elec       q    Type
                         _______ _______ _______ _____ _____    ______ ____

>  <TORSDO>
F 17

$$$$
=
 OpenBabel11042415463D

 54 57  0  0  1  0  0  0  0  0999 V2000
  190.8930  173.1210  143.1340 C   0  0  0  0  0  0  0  0  0  0  0  0
  192.0570  176.0890  145.1760 C   0  0  0  0  0  0  0  0  0  0  0  0
  191.9070  176.5630  146.3760 N   0  0  0  0  0  0  0  0  0  0  0  0
  191.0060  176.4290  148.5130 O   0  0  0  0  0  0  0  0  0  0  0  0
  191.0050  175.9950  147.3320 C   0  0  0  0  0  0  0  0  0  0  0  0
  190.3870  174.2840  145.6160 C   0  0  0  0  0  0  0  0  0  0  0  0
  189.9760  172.5590  144.0290 C   0  0  0  0  0  3  0  0  0  0  0  0
  190.0400  174.9060  146.9410 C   0  0  2  0  0  3  0  0  0  0  0  0
  191.5690  174.2810  143.5100 C   0  0  0  0  0  3  0  0  0  0  0  0
  189.7420  173.1480  145.2320 N   0  0  0  0  0  0  0  0  0  0  0  0
  191.3230  174.8760  144.7530 C   0  0  0  0  0  0  0  0  0  0  0  0
  186.8960  176.8050  145.8860 N   0  0  0  0  0  2  0  0  0  0  0  0
  188.6840  175.4360  146.8840 N   0  0  0  0  0  2  0  0  0  0  0  0
  188.2540  176.3570  145.8810 C   0  0  0  0  0  0  0  0  0  0  0  0
  189.0670  176.7740  145.0120 O   0  0  0  0  0  0  0  0  0  0  0  0
  185.9960  177.3570  143.6950 C   0  0  0  0  0  0  0  0  0  0  0  0
  186.0370  179.1490  145.1360 C   0  0  0  0  0  2  0  0  0  0  0  0
  186.3140  177.6980  144.9290 C   0  0  0  0  0  0  0  0  0  0  0  0
  185.5340  179.5760  143.8360 N   0  0  0  0  0  0  0  0  0  0  0  0
  185.5110  178.5660  143.0370 C   0  0  0  0  0  0  0  0  0  0  0  0
  183.7830  178.2670  141.2910 C   0  0  0  0  0  1  0  0  0  0  0  0
  185.0680  178.6880  141.7180 O   0  0  0  0  0  0  0  0  0  0  0  0
  187.3310  176.0790  142.0590 C   0  0  0  0  0  1  0  0  0  0  0  0
  186.2160  176.0100  143.0860 C   0  0  0  0  0  2  0  0  0  0  0  0
  191.2080  172.5010  141.8040 C   0  0  0  0  0  2  0  0  0  0  0  0
  190.0170  171.9790  141.1470 N   0  0  0  0  0  0  0  0  0  0  0  0
  188.1800  172.6900  139.9050 O   0  0  0  0  0  1  0  0  0  0  0  0
  189.4200  173.0840  140.4140 C   0  0  0  0  0  2  0  0  0  0  0  0
  190.4830  171.0190  140.1620 C   0  0  0  0  0  2  0  0  0  0  0  0
  191.4710  171.6780  139.2220 C   0  0  0  0  0  2  0  0  0  0  0  0
  191.7280  170.8410  138.1360 O   0  0  0  0  0  0  0  0  0  0  0  0
  190.1970  170.6870  137.3320 P   0  0  1  0  0  0  0  0  0  0  0  0
  190.0680  172.3740  136.9350 O   0  0  0  0  0  1  0  0  0  0  0  0
  190.9090  170.1780  135.6920 C   0  0  0  0  0  1  0  0  0  0  0  0
  193.0480  176.7360  144.2660 C   0  0  0  0  0  2  0  0  0  0  0  0
  194.4290  176.6820  144.8860 C   0  0  0  0  0  2  0  0  0  0  0  0
  194.8850  175.2700  144.9720 C   0  0  0  0  0  3  0  0  0  0  0  0
  195.5410  174.7310  143.9540 C   0  0  0  0  0  3  0  0  0  0  0  0
  196.0030  173.3870  144.0370 N   0  0  0  0  0  2  0  0  0  0  0  0
  195.2350  173.0160  141.8620 O   0  0  0  0  0  0  0  0  0  0  0  0
  194.1310  170.1550  141.4710 C   0  0  0  0  0  2  0  0  0  0  0  0
  196.1540  172.8810  139.6190 C   0  0  2  0  0  3  0  0  0  0  0  0
  195.1950  171.7480  139.2650 C   0  0  0  0  0  2  0  0  0  0  0  0
  194.4050  171.5740  143.5920 C   0  0  0  0  0  0  0  0  0  0  0  0
  193.8900  171.8590  144.7080 O   0  0  0  0  0  0  0  0  0  0  0  0
  193.9050  170.4320  142.8830 N   0  0  0  0  0  2  0  0  0  0  0  0
  195.8870  169.7880  141.1460 S   0  0  0  0  0  0  0  0  0  0  0  0
  196.4240  172.9840  141.1170 C   0  0  0  0  0  2  0  0  0  0  0  0
  195.5640  172.3900  143.0680 C   0  0  2  0  0  3  0  0  0  0  0  0
  195.8210  170.3630  139.4120 C   0  0  0  0  0  2  0  0  0  0  0  0
  195.5120  174.4560  138.9780 P   0  0  0  0  0  0  0  0  0  0  0  0
  196.1590  175.6130  139.7040 O   0  0  0  0  0  1  0  0  0  0  0  0
  195.8450  174.5730  137.3240 O   0  0  0  0  0  0  0  0  0  0  0  0
  193.8390  174.5140  139.2150 O   0  0  0  0  0  1  0  0  0  0  0  0
  1  9  2  0  0  0  0
  1  7  1  0  0  0  0
  2  3  2  0  0  0  0
  3  5  1  0  0  0  0
  5  4  2  0  0  0  0
  6  8  1  0  0  0  0
  7 10  2  0  0  0  0
  8 13  1  6  0  0  0
  8  5  1  0  0  0  0
  9 11  1  0  0  0  0
 10  6  1  0  0  0  0
 11  2  1  0  0  0  0
 11  6  2  0  0  0  0
 14 12  1  0  0  0  0
 14 13  1  0  0  0  0
 15 14  2  0  0  0  0
 16 18  2  0  0  0  0
 18 17  1  0  0  0  0
 18 12  1  0  0  0  0
 19 17  1  0  0  0  0
 20 16  1  0  0  0  0
 20 19  2  0  0  0  0
 21 22  1  0  0  0  0
 22 20  1  0  0  0  0
 23 24  1  0  0  0  0
 24 16  1  0  0  0  0
 25  1  1  0  0  0  0
 26 25  1  0  0  0  0
 27 28  1  0  0  0  0
 28 26  1  0  0  0  0
 29 26  1  0  0  0  0
 30 29  1  0  0  0  0
 31 30  1  0  0  0  0
 32 34  1  6  0  0  0
 32 31  1  0  0  0  0
 33 32  1  0  0  0  0
 35 36  1  0  0  0  0
 35  2  1  0  0  0  0
 36 37  1  0  0  0  0
 38 39  1  0  0  0  0
 38 37  2  0  0  0  0
 40 49  1  0  0  0  0
 41 46  1  0  0  0  0
 42 51  1  1  0  0  0
 42 48  1  0  0  0  0
 43 50  1  0  0  0  0
 43 42  1  0  0  0  0
 44 45  2  0  0  0  0
 46 44  1  0  0  0  0
 47 41  1  0  0  0  0
 48 40  1  0  0  0  0
 49 44  1  0  0  0  0
 49 39  1  1  0  0  0
 50 47  1  0  0  0  0
 51 54  1  0  0  0  0
 51 52  1  0  0  0  0
 53 51  2  0  0  0  0
M  END
>  <MODEL>
4

>  <REMARK>
 VINA RESULT:      -6.2      2.981      7.829
  Name = 
  17 active torsions:
  status: ('A' for Active; 'I' for Inactive)
    1  A    between atoms: C_1  and  C_13
    2  A    between atoms: C_2  and  C_9
    3  A    between atoms: P_3  and  C_35
    4  A    between atoms: C_4  and  C_27
    5  A    between atoms: C_4  and  N_36
    6  A    between atoms: C_9  and  C_49
    7  A    between atoms: N_10  and  C_25
    8  A    between atoms: C_11  and  C_14
    9  A    between atoms: C_13  and  N_36
   10  A    between atoms: N_15  and  C_30
   11  A    between atoms: C_20  and  C_49
   12  A    between atoms: C_21  and  N_24
   13  A    between atoms: N_24  and  C_50
   14  A    between atoms: C_27  and  O_54
   15  A    between atoms: P_28  and  O_54
   16  A    between atoms: O_33  and  C_51
   17  A    between atoms: N_36  and  C_42
                            x       y       z     vdW  Elec       q    Type
                         _______ _______ _______ _____ _____    ______ ____

>  <TORSDO>
F 17

$$$$
=
 OpenBabel11042415463D

 54 57  0  0  1  0  0  0  0  0999 V2000
  188.6230  176.7430  142.4210 C   0  0  0  0  0  0  0  0  0  0  0  0
  190.0900  174.6820  145.2370 C   0  0  0  0  0  0  0  0  0  0  0  0
  190.9230  174.8330  146.2220 N   0  0  0  0  0  0  0  0  0  0  0  0
  192.3800  176.1510  147.4630 O   0  0  0  0  0  0  0  0  0  0  0  0
  191.6880  176.0280  146.4180 C   0  0  0  0  0  0  0  0  0  0  0  0
  190.5900  176.9750  144.3820 C   0  0  0  0  0  0  0  0  0  0  0  0
  189.3790  177.9120  142.5600 C   0  0  0  0  0  3  0  0  0  0  0  0
  191.6990  177.1250  145.3860 C   0  0  2  0  0  3  0  0  0  0  0  0
  188.8620  175.6840  143.2960 C   0  0  0  0  0  3  0  0  0  0  0  0
  190.3370  177.9990  143.5210 N   0  0  0  0  0  0  0  0  0  0  0  0
  189.8480  175.7860  144.2830 C   0  0  0  0  0  0  0  0  0  0  0  0
  194.7660  176.1230  143.3390 N   0  0  0  0  0  2  0  0  0  0  0  0
  192.9800  177.1450  144.6910 N   0  0  0  0  0  2  0  0  0  0  0  0
  193.5140  176.0050  144.0170 C   0  0  0  0  0  0  0  0  0  0  0  0
  192.8900  174.9090  144.0340 O   0  0  0  0  0  0  0  0  0  0  0  0
  196.0430  174.0610  143.1440 C   0  0  0  0  0  0  0  0  0  0  0  0
  195.5250  175.0030  141.1100 C   0  0  0  0  0  2  0  0  0  0  0  0
  195.4080  175.0800  142.5950 C   0  0  0  0  0  0  0  0  0  0  0  0
  196.3310  173.8050  140.9050 N   0  0  0  0  0  0  0  0  0  0  0  0
  196.6130  173.2830  142.0490 C   0  0  0  0  0  0  0  0  0  0  0  0
  196.8490  170.8240  141.9120 C   0  0  0  0  0  1  0  0  0  0  0  0
  197.3770  172.1180  142.1500 O   0  0  0  0  0  0  0  0  0  0  0  0
  197.6530  174.1650  145.0110 C   0  0  0  0  0  1  0  0  0  0  0  0
  196.2250  173.8450  144.6110 C   0  0  0  0  0  2  0  0  0  0  0  0
  187.5360  176.6000  141.3940 C   0  0  0  0  0  2  0  0  0  0  0  0
  186.5990  177.7150  141.4310 N   0  0  0  0  0  0  0  0  0  0  0  0
  184.5690  177.9520  140.3150 O   0  0  0  0  0  1  0  0  0  0  0  0
  185.9410  177.7570  140.1360 C   0  0  0  0  0  2  0  0  0  0  0  0
  185.5850  177.3610  142.4100 C   0  0  0  0  0  2  0  0  0  0  0  0
  185.6540  178.3050  143.5930 C   0  0  0  0  0  2  0  0  0  0  0  0
  184.6840  177.9610  144.5350 O   0  0  0  0  0  0  0  0  0  0  0  0
  185.5670  177.1660  145.8010 P   0  0  1  0  0  0  0  0  0  0  0  0
  187.0800  177.9380  145.4350 O   0  0  0  0  0  1  0  0  0  0  0  0
  185.0800  178.3640  147.1350 C   0  0  0  0  0  1  0  0  0  0  0  0
  189.3160  173.4090  145.1400 C   0  0  0  0  0  2  0  0  0  0  0  0
  190.2130  172.2970  144.6380 C   0  0  0  0  0  2  0  0  0  0  0  0
  189.8150  171.9160  143.2580 C   0  0  0  0  0  3  0  0  0  0  0  0
  190.7490  171.6080  142.3690 C   0  0  0  0  0  3  0  0  0  0  0  0
  190.3760  171.2190  141.0510 N   0  0  0  0  0  2  0  0  0  0  0  0
  190.7100  171.7780  138.8070 O   0  0  0  0  0  0  0  0  0  0  0  0
  193.4150  170.7480  137.7240 C   0  0  0  0  0  2  0  0  0  0  0  0
  191.0290  173.7800  137.4710 C   0  0  2  0  0  3  0  0  0  0  0  0
  192.0390  173.0600  136.5840 C   0  0  0  0  0  2  0  0  0  0  0  0
  191.9810  169.9450  139.6940 C   0  0  0  0  0  0  0  0  0  0  0  0
  191.5990  168.9290  140.3370 O   0  0  0  0  0  0  0  0  0  0  0  0
  193.0700  169.7980  138.7730 N   0  0  0  0  0  2  0  0  0  0  0  0
  194.0140  172.3180  138.4300 S   0  0  0  0  0  0  0  0  0  0  0  0
  190.9160  173.1650  138.8630 C   0  0  0  0  0  2  0  0  0  0  0  0
  191.3370  171.2870  139.9560 C   0  0  2  0  0  3  0  0  0  0  0  0
  193.4890  173.3170  136.9910 C   0  0  0  0  0  2  0  0  0  0  0  0
  189.4050  173.8120  136.6570 P   0  0  0  0  0  0  0  0  0  0  0  0
  189.2870  175.0410  135.7840 O   0  0  0  0  0  1  0  0  0  0  0  0
  189.2200  172.4270  135.7040 O   0  0  0  0  0  0  0  0  0  0  0  0
  188.1900  173.8450  137.8330 O   0  0  0  0  0  1  0  0  0  0  0  0
  1  7  2  0  0  0  0
  1  9  1  0  0  0  0
  2  3  2  0  0  0  0
  3  5  1  0  0  0  0
  5  4  2  0  0  0  0
  6  8  1  0  0  0  0
  7 10  1  0  0  0  0
  8 13  1  6  0  0  0
  8  5  1  0  0  0  0
  9 11  2  0  0  0  0
 10  6  2  0  0  0  0
 11  6  1  0  0  0  0
 11  2  1  0  0  0  0
 12 14  1  0  0  0  0
 14 15  2  0  0  0  0
 14 13  1  0  0  0  0
 16 24  1  0  0  0  0
 17 18  1  0  0  0  0
 18 16  2  0  0  0  0
 18 12  1  0  0  0  0
 19 17  1  0  0  0  0
 19 20  2  0  0  0  0
 20 22  1  0  0  0  0
 20 16  1  0  0  0  0
 21 22  1  0  0  0  0
 24 23  1  0  0  0  0
 25 26  1  0  0  0  0
 25  1  1  0  0  0  0
 26 29  1  0  0  0  0
 28 27  1  0  0  0  0
 28 26  1  0  0  0  0
 29 30  1  0  0  0  0
 30 31  1  0  0  0  0
 31 32  1  0  0  0  0
 32 34  1  1  0  0  0
 33 32  1  0  0  0  0
 35  2  1  0  0  0  0
 36 35  1  0  0  0  0
 37 36  1  0  0  0  0
 38 37  2  0  0  0  0
 39 38  1  0  0  0  0
 40 48  1  0  0  0  0
 40 49  1  0  0  0  0
 41 47  1  0  0  0  0
 41 46  1  0  0  0  0
 42 51  1  6  0  0  0
 42 48  1  0  0  0  0
 43 50  1  0  0  0  0
 43 42  1  0  0  0  0
 44 49  1  0  0  0  0
 44 45  2  0  0  0  0
 46 44  1  0  0  0  0
 49 39  1  1  0  0  0
 50 47  1  0  0  0  0
 51 54  1  0  0  0  0
 52 51  1  0  0  0  0
 53 51  2  0  0  0  0
M  END
>  <MODEL>
5

>  <REMARK>
 VINA RESULT:      -6.1      1.859      2.743
  Name = 
  17 active torsions:
  status: ('A' for Active; 'I' for Inactive)
    1  A    between atoms: C_1  and  C_13
    2  A    between atoms: C_2  and  C_9
    3  A    between atoms: P_3  and  C_35
    4  A    between atoms: C_4  and  C_27
    5  A    between atoms: C_4  and  N_36
    6  A    between atoms: C_9  and  C_49
    7  A    between atoms: N_10  and  C_25
    8  A    between atoms: C_11  and  C_14
    9  A    between atoms: C_13  and  N_36
   10  A    between atoms: N_15  and  C_30
   11  A    between atoms: C_20  and  C_49
   12  A    between atoms: C_21  and  N_24
   13  A    between atoms: N_24  and  C_50
   14  A    between atoms: C_27  and  O_54
   15  A    between atoms: P_28  and  O_54
   16  A    between atoms: O_33  and  C_51
   17  A    between atoms: N_36  and  C_42
                            x       y       z     vdW  Elec       q    Type
                         _______ _______ _______ _____ _____    ______ ____

>  <TORSDO>
F 17

$$$$
=
 OpenBabel11042415463D

 54 57  0  0  1  0  0  0  0  0999 V2000
  187.6160  176.9610  143.0120 C   0  0  0  0  0  0  0  0  0  0  0  0
  190.1470  175.9290  145.6320 C   0  0  0  0  0  0  0  0  0  0  0  0
  191.4000  176.1310  145.9080 N   0  0  0  0  0  0  0  0  0  0  0  0
  193.4490  177.1180  145.4320 O   0  0  0  0  0  0  0  0  0  0  0  0
  192.2820  176.8530  145.0410 C   0  0  0  0  0  0  0  0  0  0  0  0
  190.3560  177.1810  143.4810 C   0  0  0  0  0  0  0  0  0  0  0  0
  188.4560  177.6410  142.1240 C   0  0  0  0  0  3  0  0  0  0  0  0
  191.8460  177.2760  143.6630 C   0  0  2  0  0  3  0  0  0  0  0  0
  188.1740  176.3960  144.1590 C   0  0  0  0  0  3  0  0  0  0  0  0
  189.7900  177.7300  142.3710 N   0  0  0  0  0  0  0  0  0  0  0  0
  189.5480  176.4970  144.4050 C   0  0  0  0  0  0  0  0  0  0  0  0
  192.6260  174.5560  141.0950 N   0  0  0  0  0  2  0  0  0  0  0  0
  192.5070  176.4570  142.6550 N   0  0  0  0  0  2  0  0  0  0  0  0
  191.9140  175.2840  142.0980 C   0  0  0  0  0  0  0  0  0  0  0  0
  190.7840  174.8930  142.4990 O   0  0  0  0  0  0  0  0  0  0  0  0
  192.9240  172.4260  139.9580 C   0  0  0  0  0  0  0  0  0  0  0  0
  190.7240  173.0850  140.0850 C   0  0  0  0  0  2  0  0  0  0  0  0
  192.1460  173.3840  140.4240 C   0  0  0  0  0  0  0  0  0  0  0  0
  190.8190  171.8300  139.3480 N   0  0  0  0  0  0  0  0  0  0  0  0
  192.0530  171.4680  139.2850 C   0  0  0  0  0  0  0  0  0  0  0  0
  191.7220  169.0740  138.7520 C   0  0  0  0  0  1  0  0  0  0  0  0
  192.4360  170.2930  138.6330 O   0  0  0  0  0  0  0  0  0  0  0  0
  194.9020  171.1650  140.7260 C   0  0  0  0  0  1  0  0  0  0  0  0
  194.4170  172.4180  140.0200 C   0  0  0  0  0  2  0  0  0  0  0  0
  186.1340  176.8520  142.8020 C   0  0  0  0  0  2  0  0  0  0  0  0
  185.5380  178.1310  142.4360 N   0  0  0  0  0  0  0  0  0  0  0  0
  184.0730  178.6620  140.7060 O   0  0  0  0  0  1  0  0  0  0  0  0
  185.3180  178.0980  141.0000 C   0  0  0  0  0  2  0  0  0  0  0  0
  184.2300  178.1640  143.0660 C   0  0  0  0  0  2  0  0  0  0  0  0
  184.2280  179.1630  144.2060 C   0  0  0  0  0  2  0  0  0  0  0  0
  185.3350  178.9500  145.0280 O   0  0  0  0  0  0  0  0  0  0  0  0
  184.6680  178.3260  146.5050 P   0  0  1  0  0  0  0  0  0  0  0  0
  185.1930  176.6940  146.2270 O   0  0  0  0  0  1  0  0  0  0  0  0
  186.1190  178.7970  147.5660 C   0  0  0  0  0  1  0  0  0  0  0  0
  189.3040  175.1920  146.6200 C   0  0  0  0  0  2  0  0  0  0  0  0
  189.3170  173.7100  146.3060 C   0  0  0  0  0  2  0  0  0  0  0  0
  190.3930  173.4170  145.3240 C   0  0  0  0  0  3  0  0  0  0  0  0
  190.3620  172.2830  144.6380 C   0  0  0  0  0  3  0  0  0  0  0  0
  191.3760  172.0040  143.6770 N   0  0  0  0  0  2  0  0  0  0  0  0
  193.6860  171.6890  143.8270 O   0  0  0  0  0  0  0  0  0  0  0  0
  194.4570  168.7070  144.0870 C   0  0  0  0  0  2  0  0  0  0  0  0
  195.4840  172.2060  145.3740 C   0  0  2  0  0  3  0  0  0  0  0  0
  196.1540  170.8660  145.0850 C   0  0  0  0  0  2  0  0  0  0  0  0
  192.3560  169.8190  143.1220 C   0  0  0  0  0  0  0  0  0  0  0  0
  191.4780  169.7430  142.2190 O   0  0  0  0  0  0  0  0  0  0  0  0
  193.2030  168.6840  143.3460 N   0  0  0  0  0  2  0  0  0  0  0  0
  194.1690  169.0430  145.8560 S   0  0  0  0  0  0  0  0  0  0  0  0
  193.9830  172.1890  145.1030 C   0  0  0  0  0  2  0  0  0  0  0  0
  192.4460  171.0610  143.9800 C   0  0  2  0  0  3  0  0  0  0  0  0
  195.8170  169.7910  146.1160 C   0  0  0  0  0  2  0  0  0  0  0  0
  196.2900  173.5180  144.4090 P   0  0  0  0  0  0  0  0  0  0  0  0
  196.8300  172.9530  143.1150 O   0  0  0  0  0  0  0  0  0  0  0  0
  195.1700  174.7380  144.0640 O   0  0  0  0  0  1  0  0  0  0  0  0
  197.5640  174.1710  145.3080 O   0  0  0  0  0  1  0  0  0  0  0  0
  1  9  1  0  0  0  0
  2  3  2  0  0  0  0
  2 35  1  0  0  0  0
  5  4  2  0  0  0  0
  5  3  1  0  0  0  0
  6  8  1  0  0  0  0
  6 11  1  0  0  0  0
  7 10  1  0  0  0  0
  7  1  2  0  0  0  0
  8 13  1  6  0  0  0
  8  5  1  0  0  0  0
  9 11  2  0  0  0  0
 10  6  2  0  0  0  0
 11  2  1  0  0  0  0
 12 14  1  0  0  0  0
 14 15  2  0  0  0  0
 14 13  1  0  0  0  0
 16 24  1  0  0  0  0
 16 18  2  0  0  0  0
 17 18  1  0  0  0  0
 18 12  1  0  0  0  0
 19 17  1  0  0  0  0
 20 19  2  0  0  0  0
 20 16  1  0  0  0  0
 22 21  1  0  0  0  0
 22 20  1  0  0  0  0
 24 23  1  0  0  0  0
 25  1  1  0  0  0  0
 26 25  1  0  0  0  0
 26 29  1  0  0  0  0
 27 28  1  0  0  0  0
 28 26  1  0  0  0  0
 29 30  1  0  0  0  0
 30 31  1  0  0  0  0
 31 32  1  0  0  0  0
 32 34  1  1  0  0  0
 33 32  1  0  0  0  0
 36 35  1  0  0  0  0
 37 36  1  0  0  0  0
 38 37  2  0  0  0  0
 39 38  1  0  0  0  0
 40 49  1  0  0  0  0
 40 48  1  0  0  0  0
 41 47  1  0  0  0  0
 42 51  1  6  0  0  0
 43 42  1  0  0  0  0
 43 50  1  0  0  0  0
 44 46  1  0  0  0  0
 44 49  1  0  0  0  0
 45 44  2  0  0  0  0
 46 41  1  0  0  0  0
 47 50  1  0  0  0  0
 48 42  1  0  0  0  0
 49 39  1  6  0  0  0
 51 54  1  0  0  0  0
 52 51  2  0  0  0  0
 53 51  1  0  0  0  0
M  END
>  <MODEL>
6

>  <REMARK>
 VINA RESULT:      -5.9      2.959      5.258
  Name = 
  17 active torsions:
  status: ('A' for Active; 'I' for Inactive)
    1  A    between atoms: C_1  and  C_13
    2  A    between atoms: C_2  and  C_9
    3  A    between atoms: P_3  and  C_35
    4  A    between atoms: C_4  and  C_27
    5  A    between atoms: C_4  and  N_36
    6  A    between atoms: C_9  and  C_49
    7  A    between atoms: N_10  and  C_25
    8  A    between atoms: C_11  and  C_14
    9  A    between atoms: C_13  and  N_36
   10  A    between atoms: N_15  and  C_30
   11  A    between atoms: C_20  and  C_49
   12  A    between atoms: C_21  and  N_24
   13  A    between atoms: N_24  and  C_50
   14  A    between atoms: C_27  and  O_54
   15  A    between atoms: P_28  and  O_54
   16  A    between atoms: O_33  and  C_51
   17  A    between atoms: N_36  and  C_42
                            x       y       z     vdW  Elec       q    Type
                         _______ _______ _______ _____ _____    ______ ____

>  <TORSDO>
F 17

$$$$
=
 OpenBabel11042415463D

 54 57  0  0  1  0  0  0  0  0999 V2000
  190.0290  172.5010  137.4150 C   0  0  0  0  0  0  0  0  0  0  0  0
  191.0430  171.2720  140.8490 C   0  0  0  0  0  0  0  0  0  0  0  0
  190.5900  171.3000  142.0660 N   0  0  0  0  0  0  0  0  0  0  0  0
  188.9740  171.9230  143.6150 O   0  0  0  0  0  0  0  0  0  0  0  0
  189.4260  172.0430  142.4470 C   0  0  0  0  0  0  0  0  0  0  0  0
  189.2010  172.7660  140.0640 C   0  0  0  0  0  0  0  0  0  0  0  0
  188.9080  173.2670  137.7560 C   0  0  0  0  0  3  0  0  0  0  0  0
  188.7520  172.9840  141.4820 C   0  0  2  0  0  3  0  0  0  0  0  0
  190.7290  171.8530  138.4310 C   0  0  0  0  0  3  0  0  0  0  0  0
  188.5280  173.3850  139.0560 N   0  0  0  0  0  0  0  0  0  0  0  0
  190.3260  171.9790  139.7650 C   0  0  0  0  0  0  0  0  0  0  0  0
  188.3520  176.5710  142.7370 N   0  0  0  0  0  2  0  0  0  0  0  0
  189.0140  174.3650  141.8640 N   0  0  0  0  0  2  0  0  0  0  0  0
  187.9990  175.2370  142.3620 C   0  0  0  0  0  0  0  0  0  0  0  0
  186.8070  174.8360  142.4540 O   0  0  0  0  0  0  0  0  0  0  0  0
  187.0790  177.5860  144.5450 C   0  0  0  0  0  0  0  0  0  0  0  0
  186.7470  178.6130  142.5130 C   0  0  0  0  0  2  0  0  0  0  0  0
  187.4520  177.5450  143.2800 C   0  0  0  0  0  0  0  0  0  0  0  0
  185.9120  179.2480  143.5260 N   0  0  0  0  0  0  0  0  0  0  0  0
  186.1070  178.6690  144.6600 C   0  0  0  0  0  0  0  0  0  0  0  0
  184.1340  178.6260  146.1530 C   0  0  0  0  0  1  0  0  0  0  0  0
  185.4340  179.0780  145.8140 O   0  0  0  0  0  0  0  0  0  0  0  0
  188.2060  177.3510  146.7280 C   0  0  0  0  0  1  0  0  0  0  0  0
  187.5000  176.6180  145.6020 C   0  0  0  0  0  2  0  0  0  0  0  0
  190.4800  172.3160  135.9950 C   0  0  0  0  0  2  0  0  0  0  0  0
  190.9920  173.5520  135.4180 N   0  0  0  0  0  0  0  0  0  0  0  0
  189.3740  174.9970  134.5720 O   0  0  0  0  0  1  0  0  0  0  0  0
  190.0320  174.5960  135.7380 C   0  0  0  0  0  2  0  0  0  0  0  0
  192.2130  173.8630  136.1400 C   0  0  0  0  0  2  0  0  0  0  0  0
  192.4850  175.3520  136.0850 C   0  0  0  0  0  2  0  0  0  0  0  0
  193.6640  175.6480  136.7690 O   0  0  0  0  0  0  0  0  0  0  0  0
  193.8490  174.3450  137.9010 P   0  0  1  0  0  0  0  0  0  0  0  0
  195.5190  174.0550  137.5230 O   0  0  0  0  0  1  0  0  0  0  0  0
  194.1900  175.4330  139.3690 C   0  0  0  0  0  1  0  0  0  0  0  0
  192.2450  170.4390  140.5490 C   0  0  0  0  0  2  0  0  0  0  0  0
  192.6030  169.5970  141.7570 C   0  0  0  0  0  2  0  0  0  0  0  0
  193.8610  170.1040  142.3650 C   0  0  0  0  0  3  0  0  0  0  0  0
  194.7790  170.6700  141.5950 C   0  0  0  0  0  3  0  0  0  0  0  0
  195.9760  171.1810  142.1720 N   0  0  0  0  0  2  0  0  0  0  0  0
  195.1030  173.3470  142.2410 O   0  0  0  0  0  0  0  0  0  0  0  0
  197.1580  175.4770  141.3510 C   0  0  0  0  0  2  0  0  0  0  0  0
  194.3090  174.9230  143.9070 C   0  0  2  0  0  3  0  0  0  0  0  0
  194.9290  176.0880  143.1400 C   0  0  0  0  0  2  0  0  0  0  0  0
  197.0160  172.9670  140.8410 C   0  0  0  0  0  0  0  0  0  0  0  0
  197.2140  172.0870  139.9590 O   0  0  0  0  0  0  0  0  0  0  0  0
  197.5590  174.2770  140.6310 N   0  0  0  0  0  2  0  0  0  0  0  0
  197.6430  175.3840  143.1060 S   0  0  0  0  0  0  0  0  0  0  0  0
  194.9930  173.5900  143.6180 C   0  0  0  0  0  2  0  0  0  0  0  0
  196.2810  172.6050  142.1120 C   0  0  2  0  0  3  0  0  0  0  0  0
  196.3030  176.4930  143.6710 C   0  0  0  0  0  2  0  0  0  0  0  0
  192.5320  174.8200  143.5390 P   0  0  0  0  0  0  0  0  0  0  0  0
  192.3240  174.4330  142.0930 O   0  0  0  0  0  0  0  0  0  0  0  0
  191.8120  173.6620  144.5390 O   0  0  0  0  0  1  0  0  0  0  0  0
  191.8150  176.3240  143.8240 O   0  0  0  0  0  1  0  0  0  0  0  0
  1  7  2  0  0  0  0
  1  9  1  0  0  0  0
  2  3  2  0  0  0  0
  3  5  1  0  0  0  0
  5  4  2  0  0  0  0
  6  8  1  0  0  0  0
  7 10  1  0  0  0  0
  8 13  1  1  0  0  0
  8  5  1  0  0  0  0
  9 11  2  0  0  0  0
 10  6  2  0  0  0  0
 11  6  1  0  0  0  0
 11  2  1  0  0  0  0
 12 18  1  0  0  0  0
 13 14  1  0  0  0  0
 14 15  2  0  0  0  0
 14 12  1  0  0  0  0
 16 20  1  0  0  0  0
 16 24  1  0  0  0  0
 17 18  1  0  0  0  0
 17 19  1  0  0  0  0
 18 16  2  0  0  0  0
 19 20  2  0  0  0  0
 20 22  1  0  0  0  0
 22 21  1  0  0  0  0
 24 23  1  0  0  0  0
 25  1  1  0  0  0  0
 26 28  1  0  0  0  0
 26 25  1  0  0  0  0
 26 29  1  0  0  0  0
 27 28  1  0  0  0  0
 30 29  1  0  0  0  0
 30 31  1  0  0  0  0
 31 32  1  0  0  0  0
 32 34  1  1  0  0  0
 33 32  1  0  0  0  0
 35  2  1  0  0  0  0
 35 36  1  0  0  0  0
 36 37  1  0  0  0  0
 38 39  1  0  0  0  0
 38 37  2  0  0  0  0
 40 48  1  0  0  0  0
 41 47  1  0  0  0  0
 42 51  1  6  0  0  0
 43 50  1  0  0  0  0
 43 42  1  0  0  0  0
 44 49  1  0  0  0  0
 45 44  2  0  0  0  0
 46 44  1  0  0  0  0
 46 41  1  0  0  0  0
 47 50  1  0  0  0  0
 48 42  1  0  0  0  0
 49 39  1  6  0  0  0
 49 40  1  0  0  0  0
 51 54  1  0  0  0  0
 51 53  1  0  0  0  0
 52 51  2  0  0  0  0
M  END
>  <MODEL>
7

>  <REMARK>
 VINA RESULT:      -5.8      3.061      8.474
  Name = 
  17 active torsions:
  status: ('A' for Active; 'I' for Inactive)
    1  A    between atoms: C_1  and  C_13
    2  A    between atoms: C_2  and  C_9
    3  A    between atoms: P_3  and  C_35
    4  A    between atoms: C_4  and  C_27
    5  A    between atoms: C_4  and  N_36
    6  A    between atoms: C_9  and  C_49
    7  A    between atoms: N_10  and  C_25
    8  A    between atoms: C_11  and  C_14
    9  A    between atoms: C_13  and  N_36
   10  A    between atoms: N_15  and  C_30
   11  A    between atoms: C_20  and  C_49
   12  A    between atoms: C_21  and  N_24
   13  A    between atoms: N_24  and  C_50
   14  A    between atoms: C_27  and  O_54
   15  A    between atoms: P_28  and  O_54
   16  A    between atoms: O_33  and  C_51
   17  A    between atoms: N_36  and  C_42
                            x       y       z     vdW  Elec       q    Type
                         _______ _______ _______ _____ _____    ______ ____

>  <TORSDO>
F 17

$$$$
=
 OpenBabel11042415463D

 54 57  0  0  1  0  0  0  0  0999 V2000
  192.4060  175.8020  145.1040 C   0  0  0  0  0  0  0  0  0  0  0  0
  193.6000  172.2150  144.9060 C   0  0  0  0  0  0  0  0  0  0  0  0
  194.6420  171.5160  145.2410 N   0  0  0  0  0  0  0  0  0  0  0  0
  196.7560  171.3530  146.1910 O   0  0  0  0  0  0  0  0  0  0  0  0
  195.8360  172.1030  145.7710 C   0  0  0  0  0  0  0  0  0  0  0  0
  194.7270  174.3360  145.5880 C   0  0  0  0  0  0  0  0  0  0  0  0
  193.5680  176.4140  145.5870 C   0  0  0  0  0  3  0  0  0  0  0  0
  196.0180  173.5970  145.8100 C   0  0  2  0  0  3  0  0  0  0  0  0
  192.4210  174.4260  144.8770 C   0  0  0  0  0  3  0  0  0  0  0  0
  194.6900  175.6790  145.8100 N   0  0  0  0  0  0  0  0  0  0  0  0
  193.5800  173.6790  145.1140 C   0  0  0  0  0  0  0  0  0  0  0  0
  197.7500  174.3380  142.4850 N   0  0  0  0  0  2  0  0  0  0  0  0
  196.9880  174.0090  144.8040 N   0  0  0  0  0  2  0  0  0  0  0  0
  196.7510  173.8840  143.4020 C   0  0  0  0  0  0  0  0  0  0  0  0
  195.6800  173.3670  142.9840 O   0  0  0  0  0  0  0  0  0  0  0  0
  197.2080  175.3160  140.3240 C   0  0  0  0  0  0  0  0  0  0  0  0
  197.9230  173.1350  140.1790 C   0  0  0  0  0  2  0  0  0  0  0  0
  197.6400  174.3070  141.0570 C   0  0  0  0  0  0  0  0  0  0  0  0
  197.5720  173.6260  138.8520 N   0  0  0  0  0  0  0  0  0  0  0  0
  197.1770  174.8480  138.9430 C   0  0  0  0  0  0  0  0  0  0  0  0
  197.4370  175.4770  136.5640 C   0  0  0  0  0  1  0  0  0  0  0  0
  196.7790  175.5720  137.8160 O   0  0  0  0  0  0  0  0  0  0  0  0
  195.2630  176.5530  141.2060 C   0  0  0  0  0  1  0  0  0  0  0  0
  196.7370  176.6310  140.8560 C   0  0  0  0  0  2  0  0  0  0  0  0
  191.1330  176.5590  144.8630 C   0  0  0  0  0  2  0  0  0  0  0  0
  190.0520  176.1020  145.7270 N   0  0  0  0  0  0  0  0  0  0  0  0
  190.7080  175.9090  147.9530 O   0  0  0  0  0  1  0  0  0  0  0  0
  190.2050  176.7940  146.9960 C   0  0  0  0  0  2  0  0  0  0  0  0
  188.8200  176.5830  145.1270 C   0  0  0  0  0  2  0  0  0  0  0  0
  187.9660  177.2690  146.1730 C   0  0  0  0  0  2  0  0  0  0  0  0
  186.9190  177.9570  145.5580 O   0  0  0  0  0  0  0  0  0  0  0  0
  185.4840  177.1460  146.1050 P   0  0  1  0  0  0  0  0  0  0  0  0
  185.9450  177.1430  147.7800 O   0  0  0  0  0  1  0  0  0  0  0  0
  184.4440  178.6830  146.2140 C   0  0  0  0  0  1  0  0  0  0  0  0
  192.3920  171.5020  144.3930 C   0  0  0  0  0  2  0  0  0  0  0  0
  192.7800  170.5810  143.2550 C   0  0  0  0  0  2  0  0  0  0  0  0
  192.9330  171.3680  142.0040 C   0  0  0  0  0  3  0  0  0  0  0  0
  192.6820  170.7950  140.8350 C   0  0  0  0  0  3  0  0  0  0  0  0
  192.8020  171.5490  139.6330 N   0  0  0  0  0  2  0  0  0  0  0  0
  190.5460  172.1570  139.6330 O   0  0  0  0  0  0  0  0  0  0  0  0
  189.2190  171.7700  136.8680 C   0  0  0  0  0  2  0  0  0  0  0  0
  189.2180  174.1710  139.9000 C   0  0  2  0  0  3  0  0  0  0  0  0
  188.2360  173.6970  138.8330 C   0  0  0  0  0  2  0  0  0  0  0  0
  191.2940  170.6700  137.9020 C   0  0  0  0  0  0  0  0  0  0  0  0
  191.9520  169.5970  137.9830 O   0  0  0  0  0  0  0  0  0  0  0  0
  190.2800  170.7730  136.8930 N   0  0  0  0  0  2  0  0  0  0  0  0
  189.8940  173.4410  136.5870 S   0  0  0  0  0  0  0  0  0  0  0  0
  190.6050  173.5540  139.7470 C   0  0  0  0  0  2  0  0  0  0  0  0
  191.6300  171.8300  138.8120 C   0  0  2  0  0  3  0  0  0  0  0  0
  188.5200  174.2830  137.4510 C   0  0  0  0  0  2  0  0  0  0  0  0
  188.5460  173.8230  141.5530 P   0  0  0  0  0  0  0  0  0  0  0  0
  187.7280  174.9990  142.0370 O   0  0  0  0  0  1  0  0  0  0  0  0
  187.5670  172.4460  141.4900 O   0  0  0  0  0  0  0  0  0  0  0  0
  189.8220  173.5510  142.6280 O   0  0  0  0  0  1  0  0  0  0  0  0
  1  7  1  0  0  0  0
  2 11  1  0  0  0  0
  2  3  2  0  0  0  0
  3  5  1  0  0  0  0
  5  8  1  0  0  0  0
  5  4  2  0  0  0  0
  6 10  1  0  0  0  0
  6  8  1  0  0  0  0
  7 10  2  0  0  0  0
  8 13  1  6  0  0  0
  9  1  2  0  0  0  0
  9 11  1  0  0  0  0
 11  6  2  0  0  0  0
 12 14  1  0  0  0  0
 14 13  1  0  0  0  0
 15 14  2  0  0  0  0
 16 24  1  0  0  0  0
 16 18  2  0  0  0  0
 17 18  1  0  0  0  0
 18 12  1  0  0  0  0
 19 20  2  0  0  0  0
 19 17  1  0  0  0  0
 20 16  1  0  0  0  0
 21 22  1  0  0  0  0
 22 20  1  0  0  0  0
 24 23  1  0  0  0  0
 25  1  1  0  0  0  0
 25 26  1  0  0  0  0
 26 28  1  0  0  0  0
 28 27  1  0  0  0  0
 29 26  1  0  0  0  0
 29 30  1  0  0  0  0
 31 32  1  0  0  0  0
 31 30  1  0  0  0  0
 32 34  1  1  0  0  0
 32 33  1  0  0  0  0
 35  2  1  0  0  0  0
 36 35  1  0  0  0  0
 37 36  1  0  0  0  0
 38 37  2  0  0  0  0
 39 38  1  0  0  0  0
 40 48  1  0  0  0  0
 41 46  1  0  0  0  0
 42 51  1  1  0  0  0
 43 42  1  0  0  0  0
 44 45  2  0  0  0  0
 44 49  1  0  0  0  0
 46 44  1  0  0  0  0
 47 41  1  0  0  0  0
 47 50  1  0  0  0  0
 48 42  1  0  0  0  0
 49 39  1  1  0  0  0
 49 40  1  0  0  0  0
 50 43  1  0  0  0  0
 51 52  1  0  0  0  0
 51 54  1  0  0  0  0
 53 51  2  0  0  0  0
M  END
>  <MODEL>
8

>  <REMARK>
 VINA RESULT:      -5.8      2.638      4.627
  Name = 
  17 active torsions:
  status: ('A' for Active; 'I' for Inactive)
    1  A    between atoms: C_1  and  C_13
    2  A    between atoms: C_2  and  C_9
    3  A    between atoms: P_3  and  C_35
    4  A    between atoms: C_4  and  C_27
    5  A    between atoms: C_4  and  N_36
    6  A    between atoms: C_9  and  C_49
    7  A    between atoms: N_10  and  C_25
    8  A    between atoms: C_11  and  C_14
    9  A    between atoms: C_13  and  N_36
   10  A    between atoms: N_15  and  C_30
   11  A    between atoms: C_20  and  C_49
   12  A    between atoms: C_21  and  N_24
   13  A    between atoms: N_24  and  C_50
   14  A    between atoms: C_27  and  O_54
   15  A    between atoms: P_28  and  O_54
   16  A    between atoms: O_33  and  C_51
   17  A    between atoms: N_36  and  C_42
                            x       y       z     vdW  Elec       q    Type
                         _______ _______ _______ _____ _____    ______ ____

>  <TORSDO>
F 17

$$$$
=
 OpenBabel11042415463D

 54 57  0  0  1  0  0  0  0  0999 V2000
  190.3880  170.8840  137.7710 C   0  0  0  0  0  0  0  0  0  0  0  0
  192.8080  170.7190  140.6780 C   0  0  0  0  0  0  0  0  0  0  0  0
  192.8260  170.9970  141.9460 N   0  0  0  0  0  0  0  0  0  0  0  0
  191.7750  171.7720  143.8680 O   0  0  0  0  0  0  0  0  0  0  0  0
  191.7410  171.6490  142.6160 C   0  0  0  0  0  0  0  0  0  0  0  0
  190.5250  171.7030  140.4320 C   0  0  0  0  0  0  0  0  0  0  0  0
  189.3240  171.5540  138.3830 C   0  0  0  0  0  3  0  0  0  0  0  0
  190.5760  172.2130  141.8460 C   0  0  2  0  0  3  0  0  0  0  0  0
  191.5310  170.6160  138.5240 C   0  0  0  0  0  3  0  0  0  0  0  0
  189.4170  171.9480  139.6810 N   0  0  0  0  0  0  0  0  0  0  0  0
  191.6140  171.0240  139.8600 C   0  0  0  0  0  0  0  0  0  0  0  0
  189.6750  175.9200  142.0790 N   0  0  0  0  0  2  0  0  0  0  0  0
  190.6430  173.6680  141.8300 N   0  0  0  0  0  2  0  0  0  0  0  0
  189.5110  174.4990  142.0890 C   0  0  0  0  0  0  0  0  0  0  0  0
  188.3820  173.9820  142.3100 O   0  0  0  0  0  0  0  0  0  0  0  0
  188.2490  177.2150  143.5640 C   0  0  0  0  0  0  0  0  0  0  0  0
  187.8100  177.5820  141.3360 C   0  0  0  0  0  2  0  0  0  0  0  0
  188.6430  176.8750  142.3510 C   0  0  0  0  0  0  0  0  0  0  0  0
  186.8820  178.3550  142.1530 N   0  0  0  0  0  0  0  0  0  0  0  0
  187.1370  178.1460  143.3970 C   0  0  0  0  0  0  0  0  0  0  0  0
  185.4720  179.8100  144.1600 C   0  0  0  0  0  1  0  0  0  0  0  0
  186.3970  178.7650  144.4080 O   0  0  0  0  0  0  0  0  0  0  0  0
  189.8300  177.5720  145.4250 C   0  0  0  0  0  1  0  0  0  0  0  0
  188.7820  176.6450  144.8380 C   0  0  0  0  0  2  0  0  0  0  0  0
  190.3320  170.4040  136.3500 C   0  0  0  0  0  2  0  0  0  0  0  0
  191.4400  170.9180  135.5550 N   0  0  0  0  0  0  0  0  0  0  0  0
  191.7150  168.6140  135.3640 O   0  0  0  0  0  1  0  0  0  0  0  0
  191.8850  169.8310  134.6980 C   0  0  0  0  0  2  0  0  0  0  0  0
  190.8780  171.9390  134.6870 C   0  0  0  0  0  2  0  0  0  0  0  0
  191.1670  173.3150  135.2510 C   0  0  0  0  0  2  0  0  0  0  0  0
  192.5440  173.4910  135.3970 O   0  0  0  0  0  0  0  0  0  0  0  0
  192.7830  175.2040  135.2390 P   0  0  1  0  0  0  0  0  0  0  0  0
  191.1290  175.6160  135.5700 O   0  0  0  0  0  1  0  0  0  0  0  0
  193.3770  175.4600  136.9820 C   0  0  0  0  0  1  0  0  0  0  0  0
  193.9770  170.0060  140.0820 C   0  0  0  0  0  2  0  0  0  0  0  0
  194.8000  170.9690  139.2510 C   0  0  0  0  0  2  0  0  0  0  0  0
  195.4820  171.9430  140.1420 C   0  0  0  0  0  3  0  0  0  0  0  0
  195.3420  173.2430  139.9210 C   0  0  0  0  0  3  0  0  0  0  0  0
  195.9720  174.1840  140.7840 N   0  0  0  0  0  2  0  0  0  0  0  0
  195.1700  173.6060  142.9010 O   0  0  0  0  0  0  0  0  0  0  0  0
  193.3420  175.7880  144.1060 C   0  0  0  0  0  2  0  0  0  0  0  0
  196.0560  173.2310  145.1290 C   0  0  2  0  0  3  0  0  0  0  0  0
  194.8340  173.8940  145.7570 C   0  0  0  0  0  2  0  0  0  0  0  0
  193.9520  175.2680  141.6690 C   0  0  0  0  0  0  0  0  0  0  0  0
  193.5140  175.2410  140.4850 O   0  0  0  0  0  0  0  0  0  0  0  0
  193.1740  175.9420  142.6680 N   0  0  0  0  0  2  0  0  0  0  0  0
  194.9390  176.4720  144.6590 S   0  0  0  0  0  0  0  0  0  0  0  0
  196.3180  173.7000  143.7010 C   0  0  0  0  0  2  0  0  0  0  0  0
  195.2970  174.6570  141.9870 C   0  0  2  0  0  3  0  0  0  0  0  0
  195.0600  175.3630  146.1080 C   0  0  0  0  0  2  0  0  0  0  0  0
  195.8730  171.4240  145.1830 P   0  0  0  0  0  0  0  0  0  0  0  0
  196.8930  170.8280  146.1260 O   0  0  0  0  0  1  0  0  0  0  0  0
  194.3180  171.0270  145.7140 O   0  0  0  0  0  1  0  0  0  0  0  0
  196.1100  170.7930  143.6320 O   0  0  0  0  0  0  0  0  0  0  0  0
  1  7  2  0  0  0  0
  1  9  1  0  0  0  0
  2  3  2  0  0  0  0
  3  5  1  0  0  0  0
  5  4  2  0  0  0  0
  6  8  1  0  0  0  0
  7 10  1  0  0  0  0
  8 13  1  6  0  0  0
  8  5  1  0  0  0  0
  9 11  2  0  0  0  0
 10  6  2  0  0  0  0
 11  6  1  0  0  0  0
 11  2  1  0  0  0  0
 12 14  1  0  0  0  0
 12 18  1  0  0  0  0
 13 14  1  0  0  0  0
 14 15  2  0  0  0  0
 16 24  1  0  0  0  0
 17 19  1  0  0  0  0
 17 18  1  0  0  0  0
 18 16  2  0  0  0  0
 19 20  2  0  0  0  0
 20 16  1  0  0  0  0
 20 22  1  0  0  0  0
 21 22  1  0  0  0  0
 24 23  1  0  0  0  0
 25  1  1  0  0  0  0
 26 25  1  0  0  0  0
 28 27  1  0  0  0  0
 28 26  1  0  0  0  0
 29 30  1  0  0  0  0
 29 26  1  0  0  0  0
 30 31  1  0  0  0  0
 32 31  1  0  0  0  0
 32 33  1  0  0  0  0
 32 34  1  1  0  0  0
 35  2  1  0  0  0  0
 36 35  1  0  0  0  0
 36 37  1  0  0  0  0
 38 37  2  0  0  0  0
 38 39  1  0  0  0  0
 40 48  1  0  0  0  0
 41 47  1  0  0  0  0
 42 51  1  6  0  0  0
 42 43  1  0  0  0  0
 43 50  1  0  0  0  0
 44 49  1  0  0  0  0
 44 46  1  0  0  0  0
 45 44  2  0  0  0  0
 46 41  1  0  0  0  0
 47 50  1  0  0  0  0
 48 42  1  0  0  0  0
 49 39  1  6  0  0  0
 49 40  1  0  0  0  0
 51 53  1  0  0  0  0
 51 52  1  0  0  0  0
 54 51  2  0  0  0  0
M  END
>  <MODEL>
9

>  <REMARK>
 VINA RESULT:      -5.6      3.347      8.606
  Name = 
  17 active torsions:
  status: ('A' for Active; 'I' for Inactive)
    1  A    between atoms: C_1  and  C_13
    2  A    between atoms: C_2  and  C_9
    3  A    between atoms: P_3  and  C_35
    4  A    between atoms: C_4  and  C_27
    5  A    between atoms: C_4  and  N_36
    6  A    between atoms: C_9  and  C_49
    7  A    between atoms: N_10  and  C_25
    8  A    between atoms: C_11  and  C_14
    9  A    between atoms: C_13  and  N_36
   10  A    between atoms: N_15  and  C_30
   11  A    between atoms: C_20  and  C_49
   12  A    between atoms: C_21  and  N_24
   13  A    between atoms: N_24  and  C_50
   14  A    between atoms: C_27  and  O_54
   15  A    between atoms: P_28  and  O_54
   16  A    between atoms: O_33  and  C_51
   17  A    between atoms: N_36  and  C_42
                            x       y       z     vdW  Elec       q    Type
                         _______ _______ _______ _____ _____    ______ ____

>  <TORSDO>
F 17

$$$$
