=
 OpenBabel11042415103D

 27 30  0  0  1  0  0  0  0  0999 V2000
  189.3040  175.7210  147.0390 C   0  0  1  0  0  0  0  0  0  0  0  0
  191.0590  177.9450  144.6520 N   0  0  0  0  0  0  0  0  0  0  0  0
  189.9710  177.1350  142.6750 C   0  0  0  0  0  3  0  0  0  0  0  0
  190.3320  176.8730  146.8390 C   0  0  2  0  0  3  0  0  0  0  0  0
  189.2500  176.2530  143.4270 N   0  0  0  0  0  0  0  0  0  0  0  0
  187.8650  175.9450  146.7650 N   0  0  0  0  0  0  0  0  0  0  0  0
  188.7410  175.3010  145.7340 C   0  0  1  0  0  3  0  0  0  0  0  0
  189.5590  174.6780  147.9120 F   0  0  0  0  0  0  0  0  0  0  0  0
  190.8910  177.9990  143.2990 C   0  0  0  0  0  3  0  0  0  0  0  0
  189.4280  176.2230  144.7710 C   0  0  0  0  0  0  0  0  0  0  0  0
  190.3380  177.0480  145.3720 C   0  0  0  0  0  0  0  0  0  0  0  0
  187.5530  177.3520  146.4820 C   0  0  0  0  0  2  0  0  0  0  0  0
  186.2630  177.7530  147.1770 C   0  0  0  0  0  2  0  0  0  0  0  0
  185.0440  177.2630  146.4080 C   0  0  0  0  0  2  0  0  0  0  0  0
  184.1500  178.4290  146.0330 C   0  0  0  0  0  2  0  0  0  0  0  0
  185.4070  180.1470  144.0780 O   0  0  0  0  0  0  0  0  0  0  0  0
  184.5170  178.9500  144.3340 P   0  0  1  0  0  4  0  0  0  0  0  0
  183.9700  178.0950  142.9800 O   0  0  0  0  0  1  0  0  0  0  0  0
  191.6290  176.5530  147.3570 O   0  0  0  0  0  0  0  0  0  0  0  0
  192.4170  174.4360  146.2340 C   0  0  0  0  0  3  0  0  0  0  0  0
  193.3970  173.7200  145.6850 C   0  0  0  0  0  3  0  0  0  0  0  0
  195.2110  176.5010  144.4690 C   0  0  0  0  0  1  0  0  0  0  0  0
  195.6780  173.5830  145.0980 O   0  0  0  0  0  0  0  0  0  0  0  0
  193.8150  176.4220  146.5000 C   0  0  0  0  0  3  0  0  0  0  0  0
  194.9670  175.7700  145.7770 C   0  0  1  0  0  3  0  0  0  0  0  0
  194.7320  174.3070  145.5060 C   0  0  0  0  0  0  0  0  0  0  0  0
  192.6340  175.8250  146.6960 C   0  0  0  0  0  0  0  0  0  0  0  0
  1  8  1  1  0  0  0
  2 11  1  0  0  0  0
  3  9  1  0  0  0  0
  3  5  2  0  0  0  0
  4  1  1  0  0  0  0
  4 19  1  6  0  0  0
  5 10  1  0  0  0  0
  6  1  1  0  0  0  0
  7 10  1  6  0  0  0
  7  6  1  0  0  0  0
  7  1  1  0  0  0  0
  9  2  2  0  0  0  0
 10 11  2  0  0  0  0
 11  4  1  0  0  0  0
 12  6  1  0  0  0  0
 12 13  1  0  0  0  0
 14 13  1  0  0  0  0
 15 14  1  0  0  0  0
 16 17  2  0  0  0  0
 17 18  1  6  0  0  0
 17 15  1  0  0  0  0
 20 27  1  0  0  0  0
 21 20  2  0  0  0  0
 23 26  2  0  0  0  0
 24 27  2  0  0  0  0
 25 22  1  6  0  0  0
 25 24  1  0  0  0  0
 26 21  1  0  0  0  0
 26 25  1  0  0  0  0
 27 19  1  0  0  0  0
M  END
>  <MODEL>
1

>  <REMARK>
 VINA RESULT:      -7.2      0.000      0.000
  Name = 
  7 active torsions:
  status: ('A' for Active; 'I' for Inactive)
    1  A    between atoms: C_3  and  C_11
    2  A    between atoms: C_3  and  N_18
    3  A    between atoms: C_8  and  O_24
    4  A    between atoms: C_11  and  C_13
    5  A    between atoms: C_12  and  C_13
    6  A    between atoms: C_12  and  P_17
    7  A    between atoms: O_24  and  C_27
                            x       y       z     vdW  Elec       q    Type
                         _______ _______ _______ _____ _____    ______ ____

>  <TORSDO>
F 7

$$$$
=
 OpenBabel11042415103D

 27 30  0  0  1  0  0  0  0  0999 V2000
  188.9480  175.4030  146.3280 C   0  0  1  0  0  0  0  0  0  0  0  0
  191.7090  177.1100  144.5450 N   0  0  0  0  0  0  0  0  0  0  0  0
  193.4460  176.4950  146.0810 C   0  0  0  0  0  3  0  0  0  0  0  0
  189.3840  176.2410  145.0920 C   0  0  2  0  0  3  0  0  0  0  0  0
  192.5370  175.8240  146.8460 N   0  0  0  0  0  0  0  0  0  0  0  0
  189.4180  174.0070  146.4900 N   0  0  0  0  0  0  0  0  0  0  0  0
  190.1130  175.1280  147.2010 C   0  0  1  0  0  3  0  0  0  0  0  0
  187.7780  175.6890  147.0100 F   0  0  0  0  0  0  0  0  0  0  0  0
  193.0250  177.1480  144.9070 C   0  0  0  0  0  3  0  0  0  0  0  0
  191.2360  175.7930  146.4630 C   0  0  0  0  0  0  0  0  0  0  0  0
  190.8270  176.4460  145.3340 C   0  0  0  0  0  0  0  0  0  0  0  0
  190.1440  173.5110  145.3140 C   0  0  0  0  0  2  0  0  0  0  0  0
  189.5110  172.2260  144.8100 C   0  0  0  0  0  2  0  0  0  0  0  0
  189.7970  172.0100  143.3310 C   0  0  0  0  0  2  0  0  0  0  0  0
  188.6540  172.5410  142.4870 C   0  0  0  0  0  2  0  0  0  0  0  0
  188.3330  174.6370  140.5210 O   0  0  0  0  0  0  0  0  0  0  0  0
  189.1920  174.0390  141.6140 P   0  0  1  0  0  4  0  0  0  0  0  0
  190.6050  174.8740  142.0240 O   0  0  0  0  0  1  0  0  0  0  0  0
  188.6680  177.4770  144.9800 O   0  0  0  0  0  0  0  0  0  0  0  0
  186.8190  176.8070  143.3980 C   0  0  0  0  0  3  0  0  0  0  0  0
  185.6080  177.0200  142.8870 C   0  0  0  0  0  3  0  0  0  0  0  0
  184.2520  178.4640  145.8160 C   0  0  0  0  0  1  0  0  0  0  0  0
  183.6650  178.3580  142.8540 O   0  0  0  0  0  0  0  0  0  0  0  0
  186.5950  178.5850  145.0580 C   0  0  0  0  0  3  0  0  0  0  0  0
  185.1630  178.8430  144.6630 C   0  0  1  0  0  3  0  0  0  0  0  0
  184.7560  178.0900  143.4240 C   0  0  0  0  0  0  0  0  0  0  0  0
  187.3570  177.6390  144.4980 C   0  0  0  0  0  0  0  0  0  0  0  0
  1  6  1  0  0  0  0
  1  8  1  1  0  0  0
  1  7  1  0  0  0  0
  2  9  2  0  0  0  0
  2 11  1  0  0  0  0
  3  5  2  0  0  0  0
  4 19  1  1  0  0  0
  4 11  1  0  0  0  0
  4  1  1  0  0  0  0
  6  7  1  0  0  0  0
  7 10  1  6  0  0  0
  9  3  1  0  0  0  0
 10  5  1  0  0  0  0
 11 10  2  0  0  0  0
 12  6  1  0  0  0  0
 13 12  1  0  0  0  0
 14 13  1  0  0  0  0
 15 14  1  0  0  0  0
 17 16  2  1  0  0  0
 17 18  1  0  0  0  0
 17 15  1  0  0  0  0
 20 27  1  0  0  0  0
 21 20  2  0  0  0  0
 21 26  1  0  0  0  0
 23 26  2  0  0  0  0
 25 24  1  0  0  0  0
 25 22  1  1  0  0  0
 26 25  1  0  0  0  0
 27 19  1  0  0  0  0
 27 24  2  0  0  0  0
M  END
>  <MODEL>
2

>  <REMARK>
 VINA RESULT:      -7.1      3.122      6.660
  Name = 
  7 active torsions:
  status: ('A' for Active; 'I' for Inactive)
    1  A    between atoms: C_3  and  C_11
    2  A    between atoms: C_3  and  N_18
    3  A    between atoms: C_8  and  O_24
    4  A    between atoms: C_11  and  C_13
    5  A    between atoms: C_12  and  C_13
    6  A    between atoms: C_12  and  P_17
    7  A    between atoms: O_24  and  C_27
                            x       y       z     vdW  Elec       q    Type
                         _______ _______ _______ _____ _____    ______ ____

>  <TORSDO>
F 7

$$$$
=
 OpenBabel11042415103D

 27 30  0  0  1  0  0  0  0  0999 V2000
  186.5340  177.8440  142.1020 C   0  0  1  0  0  0  0  0  0  0  0  0
  185.6640  176.5480  145.4610 N   0  0  0  0  0  0  0  0  0  0  0  0
  185.0720  178.6630  146.4230 C   0  0  0  0  0  3  0  0  0  0  0  0
  186.3840  176.6000  143.0240 C   0  0  2  0  0  3  0  0  0  0  0  0
  185.3580  179.2860  145.2430 N   0  0  0  0  0  0  0  0  0  0  0  0
  185.3390  178.6120  141.6790 N   0  0  0  0  0  0  0  0  0  0  0  0
  186.1680  179.0770  142.8370 C   0  0  1  0  0  3  0  0  0  0  0  0
  187.6240  177.9840  141.2590 F   0  0  0  0  0  0  0  0  0  0  0  0
  185.2250  177.2680  146.5340 C   0  0  0  0  0  3  0  0  0  0  0  0
  185.7860  178.5490  144.1880 C   0  0  0  0  0  0  0  0  0  0  0  0
  185.9540  177.1970  144.3050 C   0  0  0  0  0  0  0  0  0  0  0  0
  184.0810  177.9660  142.0730 C   0  0  0  0  0  2  0  0  0  0  0  0
  183.0220  178.1830  141.0050 C   0  0  0  0  0  2  0  0  0  0  0  0
  181.6940  178.6020  141.6190 C   0  0  0  0  0  2  0  0  0  0  0  0
  180.5540  178.3240  140.6570 C   0  0  0  0  0  2  0  0  0  0  0  0
  178.6940  178.7560  142.8270 O   0  0  0  0  0  0  0  0  0  0  0  0
  179.0490  177.9470  141.5990 P   0  0  1  0  0  4  0  0  0  0  0  0
  177.9460  176.7590  141.1160 O   0  0  0  0  0  1  0  0  0  0  0  0
  187.6010  175.8540  143.1500 O   0  0  0  0  0  0  0  0  0  0  0  0
  189.2630  177.3710  144.2930 C   0  0  0  0  0  3  0  0  0  0  0  0
  190.2730  177.5380  145.1450 C   0  0  0  0  0  3  0  0  0  0  0  0
  189.3390  174.8950  147.3000 C   0  0  0  0  0  1  0  0  0  0  0  0
  191.7850  176.5480  146.6610 O   0  0  0  0  0  0  0  0  0  0  0  0
  188.9720  175.0130  144.8650 C   0  0  0  0  0  3  0  0  0  0  0  0
  190.0120  175.0980  145.9550 C   0  0  1  0  0  3  0  0  0  0  0  0
  190.7550  176.4070  145.9500 C   0  0  0  0  0  0  0  0  0  0  0  0
  188.6070  176.0560  144.1110 C   0  0  0  0  0  0  0  0  0  0  0  0
  1  8  1  6  0  0  0
  1  7  1  0  0  0  0
  1  4  1  0  0  0  0
  2  9  1  0  0  0  0
  3  9  2  0  0  0  0
  4 19  1  1  0  0  0
  4 11  1  0  0  0  0
  5  3  1  0  0  0  0
  6 12  1  0  0  0  0
  6  1  1  0  0  0  0
  6  7  1  0  0  0  0
  7 10  1  1  0  0  0
 10 11  1  0  0  0  0
 10  5  2  0  0  0  0
 11  2  2  0  0  0  0
 13 14  1  0  0  0  0
 13 12  1  0  0  0  0
 15 17  1  0  0  0  0
 15 14  1  0  0  0  0
 17 18  1  6  0  0  0
 17 16  2  0  0  0  0
 19 27  1  0  0  0  0
 20 21  2  0  0  0  0
 21 26  1  0  0  0  0
 24 25  1  0  0  0  0
 25 22  1  1  0  0  0
 26 25  1  0  0  0  0
 26 23  2  0  0  0  0
 27 20  1  0  0  0  0
 27 24  2  0  0  0  0
M  END
>  <MODEL>
3

>  <REMARK>
 VINA RESULT:      -7.0      3.878      5.815
  Name = 
  7 active torsions:
  status: ('A' for Active; 'I' for Inactive)
    1  A    between atoms: C_3  and  C_11
    2  A    between atoms: C_3  and  N_18
    3  A    between atoms: C_8  and  O_24
    4  A    between atoms: C_11  and  C_13
    5  A    between atoms: C_12  and  C_13
    6  A    between atoms: C_12  and  P_17
    7  A    between atoms: O_24  and  C_27
                            x       y       z     vdW  Elec       q    Type
                         _______ _______ _______ _____ _____    ______ ____

>  <TORSDO>
F 7

$$$$
=
 OpenBabel11042415103D

 27 30  0  0  1  0  0  0  0  0999 V2000
  189.5510  174.3040  145.6480 C   0  0  1  0  0  0  0  0  0  0  0  0
  190.6940  177.5800  144.3520 N   0  0  0  0  0  0  0  0  0  0  0  0
  193.0030  176.9840  144.1020 C   0  0  0  0  0  3  0  0  0  0  0  0
  189.1600  175.7460  145.2160 C   0  0  2  0  0  3  0  0  0  0  0  0
  192.7350  175.7300  144.5690 N   0  0  0  0  0  0  0  0  0  0  0  0
  190.0230  173.3220  144.6430 N   0  0  0  0  0  0  0  0  0  0  0  0
  191.0070  174.0890  145.4710 C   0  0  1  0  0  3  0  0  0  0  0  0
  189.0260  173.7310  146.7940 F   0  0  0  0  0  0  0  0  0  0  0  0
  191.9630  177.9260  143.9890 C   0  0  0  0  0  3  0  0  0  0  0  0
  191.4640  175.4060  144.9170 C   0  0  0  0  0  0  0  0  0  0  0  0
  190.4600  176.3300  144.8270 C   0  0  0  0  0  0  0  0  0  0  0  0
  189.8960  173.8150  143.2660 C   0  0  0  0  0  2  0  0  0  0  0  0
  188.6910  173.1830  142.5910 C   0  0  0  0  0  2  0  0  0  0  0  0
  187.6750  174.2360  142.1720 C   0  0  0  0  0  2  0  0  0  0  0  0
  188.2590  175.1410  141.1040 C   0  0  0  0  0  2  0  0  0  0  0  0
  186.1640  177.1270  141.2580 O   0  0  0  0  0  0  0  0  0  0  0  0
  187.6460  176.8320  141.3440 P   0  0  1  0  0  4  0  0  0  0  0  0
  188.6630  178.1210  141.7520 O   0  0  0  0  0  1  0  0  0  0  0  0
  188.5220  176.4840  146.2650 O   0  0  0  0  0  0  0  0  0  0  0  0
  186.5530  177.5960  147.3860 C   0  0  0  0  0  3  0  0  0  0  0  0
  185.3500  178.1600  147.3040 C   0  0  0  0  0  3  0  0  0  0  0  0
  185.8060  179.4650  144.0500 C   0  0  0  0  0  1  0  0  0  0  0  0
  183.5400  178.8050  145.9350 O   0  0  0  0  0  0  0  0  0  0  0  0
  186.7900  177.3970  144.9630 C   0  0  0  0  0  3  0  0  0  0  0  0
  185.5000  178.1410  144.7240 C   0  0  1  0  0  3  0  0  0  0  0  0
  184.7250  178.3830  145.9930 C   0  0  0  0  0  0  0  0  0  0  0  0
  187.2930  177.1600  146.1800 C   0  0  0  0  0  0  0  0  0  0  0  0
  1  8  1  1  0  0  0
  2 11  1  0  0  0  0
  3  5  2  0  0  0  0
  4  1  1  0  0  0  0
  4 19  1  1  0  0  0
  5 10  1  0  0  0  0
  6  7  1  0  0  0  0
  6  1  1  0  0  0  0
  7 10  1  6  0  0  0
  7  1  1  0  0  0  0
  9  3  1  0  0  0  0
  9  2  2  0  0  0  0
 11 10  2  0  0  0  0
 11  4  1  0  0  0  0
 12  6  1  0  0  0  0
 13 12  1  0  0  0  0
 14 13  1  0  0  0  0
 15 17  1  0  0  0  0
 15 14  1  0  0  0  0
 17 16  2  1  0  0  0
 17 18  1  0  0  0  0
 21 20  2  0  0  0  0
 23 26  2  0  0  0  0
 24 27  2  0  0  0  0
 25 22  1  1  0  0  0
 25 24  1  0  0  0  0
 25 26  1  0  0  0  0
 26 21  1  0  0  0  0
 27 19  1  0  0  0  0
 27 20  1  0  0  0  0
M  END
>  <MODEL>
4

>  <REMARK>
 VINA RESULT:      -7.0      2.726      6.106
  Name = 
  7 active torsions:
  status: ('A' for Active; 'I' for Inactive)
    1  A    between atoms: C_3  and  C_11
    2  A    between atoms: C_3  and  N_18
    3  A    between atoms: C_8  and  O_24
    4  A    between atoms: C_11  and  C_13
    5  A    between atoms: C_12  and  C_13
    6  A    between atoms: C_12  and  P_17
    7  A    between atoms: O_24  and  C_27
                            x       y       z     vdW  Elec       q    Type
                         _______ _______ _______ _____ _____    ______ ____

>  <TORSDO>
F 7

$$$$
=
 OpenBabel11042415103D

 27 30  0  0  1  0  0  0  0  0999 V2000
  191.0420  177.7900  143.9300 C   0  0  1  0  0  0  0  0  0  0  0  0
  188.9980  174.9520  142.7130 N   0  0  0  0  0  0  0  0  0  0  0  0
  190.7680  173.8150  141.5610 C   0  0  0  0  0  3  0  0  0  0  0  0
  189.6480  177.1020  143.9030 C   0  0  2  0  0  3  0  0  0  0  0  0
  191.6440  174.7930  141.9330 N   0  0  0  0  0  0  0  0  0  0  0  0
  192.1800  177.1530  144.6350 N   0  0  0  0  0  0  0  0  0  0  0  0
  192.0240  176.9960  143.1530 C   0  0  1  0  0  3  0  0  0  0  0  0
  191.1680  179.1600  143.7770 F   0  0  0  0  0  0  0  0  0  0  0  0
  189.4200  173.8940  141.9610 C   0  0  0  0  0  3  0  0  0  0  0  0
  191.2030  175.8310  142.6870 C   0  0  0  0  0  0  0  0  0  0  0  0
  189.8890  175.9170  143.0540 C   0  0  0  0  0  0  0  0  0  0  0  0
  191.7790  175.9660  145.4010 C   0  0  0  0  0  2  0  0  0  0  0  0
  192.7430  175.7340  146.5520 C   0  0  0  0  0  2  0  0  0  0  0  0
  194.0750  176.4290  146.3070 C   0  0  0  0  0  2  0  0  0  0  0  0
  195.1390  175.4170  145.9250 C   0  0  0  0  0  2  0  0  0  0  0  0
  194.9760  174.6840  143.1340 O   0  0  0  0  0  0  0  0  0  0  0  0
  195.5610  175.6180  144.1720 P   0  0  1  0  0  4  0  0  0  0  0  0
  196.5360  176.8800  143.6080 O   0  0  0  0  0  1  0  0  0  0  0  0
  188.6210  177.9510  143.3760 O   0  0  0  0  0  0  0  0  0  0  0  0
  186.2040  178.6230  143.1000 C   0  0  0  0  0  3  0  0  0  0  0  0
  185.0150  178.8880  143.6370 C   0  0  0  0  0  3  0  0  0  0  0  0
  185.3650  176.6590  146.3590 C   0  0  0  0  0  1  0  0  0  0  0  0
  183.7040  179.0620  145.5900 O   0  0  0  0  0  0  0  0  0  0  0  0
  187.1690  177.8990  145.2250 C   0  0  0  0  0  3  0  0  0  0  0  0
  185.8430  178.0340  145.9310 C   0  0  1  0  0  3  0  0  0  0  0  0
  184.7930  178.6950  145.0760 C   0  0  0  0  0  0  0  0  0  0  0  0
  187.3400  178.1470  143.9210 C   0  0  0  0  0  0  0  0  0  0  0  0
  1  8  1  6  0  0  0
  1  6  1  0  0  0  0
  2 11  1  0  0  0  0
  3  5  2  0  0  0  0
  3  9  1  0  0  0  0
  4 19  1  6  0  0  0
  4  1  1  0  0  0  0
  5 10  1  0  0  0  0
  6 12  1  0  0  0  0
  7 10  1  1  0  0  0
  7  1  1  0  0  0  0
  7  6  1  0  0  0  0
  9  2  2  0  0  0  0
 10 11  2  0  0  0  0
 11  4  1  0  0  0  0
 12 13  1  0  0  0  0
 14 13  1  0  0  0  0
 15 14  1  0  0  0  0
 17 16  2  6  0  0  0
 17 15  1  0  0  0  0
 18 17  1  0  0  0  0
 19 27  1  0  0  0  0
 20 21  2  0  0  0  0
 20 27  1  0  0  0  0
 21 26  1  0  0  0  0
 24 25  1  0  0  0  0
 25 22  1  6  0  0  0
 26 23  2  0  0  0  0
 26 25  1  0  0  0  0
 27 24  2  0  0  0  0
M  END
>  <MODEL>
5

>  <REMARK>
 VINA RESULT:      -6.9      3.316      7.805
  Name = 
  7 active torsions:
  status: ('A' for Active; 'I' for Inactive)
    1  A    between atoms: C_3  and  C_11
    2  A    between atoms: C_3  and  N_18
    3  A    between atoms: C_8  and  O_24
    4  A    between atoms: C_11  and  C_13
    5  A    between atoms: C_12  and  C_13
    6  A    between atoms: C_12  and  P_17
    7  A    between atoms: O_24  and  C_27
                            x       y       z     vdW  Elec       q    Type
                         _______ _______ _______ _____ _____    ______ ____

>  <TORSDO>
F 7

$$$$
=
 OpenBabel11042415103D

 27 30  0  0  1  0  0  0  0  0999 V2000
  190.3090  176.6430  146.4550 C   0  0  1  0  0  0  0  0  0  0  0  0
  189.2170  174.1370  143.9560 N   0  0  0  0  0  0  0  0  0  0  0  0
  190.6560  174.8730  142.1850 C   0  0  0  0  0  3  0  0  0  0  0  0
  189.4070  175.4130  146.1460 C   0  0  2  0  0  3  0  0  0  0  0  0
  191.1560  175.8530  142.9920 N   0  0  0  0  0  0  0  0  0  0  0  0
  191.7830  176.4970  146.5060 N   0  0  0  0  0  0  0  0  0  0  0  0
  191.1150  177.0030  145.2650 C   0  0  1  0  0  3  0  0  0  0  0  0
  189.8230  177.7280  147.1650 F   0  0  0  0  0  0  0  0  0  0  0  0
  189.6700  173.9960  142.6770 C   0  0  0  0  0  3  0  0  0  0  0  0
  190.6950  175.9690  144.2630 C   0  0  0  0  0  0  0  0  0  0  0  0
  189.7220  175.1310  144.7300 C   0  0  0  0  0  0  0  0  0  0  0  0
  192.2190  175.0980  146.4160 C   0  0  0  0  0  2  0  0  0  0  0  0
  193.6920  175.0300  146.0510 C   0  0  0  0  0  2  0  0  0  0  0  0
  194.4340  176.2780  146.5080 C   0  0  0  0  0  2  0  0  0  0  0  0
  194.8500  177.1140  145.3130 C   0  0  0  0  0  2  0  0  0  0  0  0
  194.4980  175.7140  142.8090 O   0  0  0  0  0  0  0  0  0  0  0  0
  195.4100  176.0220  143.9770 P   0  0  1  0  0  4  0  0  0  0  0  0
  196.9730  175.3750  143.9220 O   0  0  0  0  0  1  0  0  0  0  0  0
  188.0150  175.6810  146.3540 O   0  0  0  0  0  0  0  0  0  0  0  0
  187.2650  177.0460  144.3690 C   0  0  0  0  0  3  0  0  0  0  0  0
  186.6420  178.1150  143.8760 C   0  0  0  0  0  3  0  0  0  0  0  0
  184.2950  178.3830  146.5070 C   0  0  0  0  0  1  0  0  0  0  0  0
  185.4520  180.1050  144.3120 O   0  0  0  0  0  0  0  0  0  0  0  0
  186.6040  177.5350  146.6700 C   0  0  0  0  0  3  0  0  0  0  0  0
  185.7530  178.7000  146.2310 C   0  0  1  0  0  3  0  0  0  0  0  0
  185.9330  179.0380  144.7750 C   0  0  0  0  0  0  0  0  0  0  0  0
  187.2850  176.7570  145.8210 C   0  0  0  0  0  0  0  0  0  0  0  0
  1  6  1  0  0  0  0
  1  8  1  1  0  0  0
  2 11  1  0  0  0  0
  3  9  1  0  0  0  0
  3  5  2  0  0  0  0
  4 19  1  6  0  0  0
  4  1  1  0  0  0  0
  5 10  1  0  0  0  0
  7 10  1  6  0  0  0
  7  1  1  0  0  0  0
  7  6  1  0  0  0  0
  9  2  2  0  0  0  0
 10 11  2  0  0  0  0
 11  4  1  0  0  0  0
 12  6  1  0  0  0  0
 13 12  1  0  0  0  0
 13 14  1  0  0  0  0
 15 14  1  0  0  0  0
 17 16  2  6  0  0  0
 17 15  1  0  0  0  0
 18 17  1  0  0  0  0
 20 27  1  0  0  0  0
 21 20  2  0  0  0  0
 21 26  1  0  0  0  0
 23 26  2  0  0  0  0
 25 22  1  6  0  0  0
 25 24  1  0  0  0  0
 26 25  1  0  0  0  0
 27 19  1  0  0  0  0
 27 24  2  0  0  0  0
M  END
>  <MODEL>
6

>  <REMARK>
 VINA RESULT:      -6.7      2.918      7.378
  Name = 
  7 active torsions:
  status: ('A' for Active; 'I' for Inactive)
    1  A    between atoms: C_3  and  C_11
    2  A    between atoms: C_3  and  N_18
    3  A    between atoms: C_8  and  O_24
    4  A    between atoms: C_11  and  C_13
    5  A    between atoms: C_12  and  C_13
    6  A    between atoms: C_12  and  P_17
    7  A    between atoms: O_24  and  C_27
                            x       y       z     vdW  Elec       q    Type
                         _______ _______ _______ _____ _____    ______ ____

>  <TORSDO>
F 7

$$$$
=
 OpenBabel11042415103D

 27 30  0  0  1  0  0  0  0  0999 V2000
  189.3970  174.5970  146.3250 C   0  0  1  0  0  0  0  0  0  0  0  0
  190.2460  177.6280  144.3730 N   0  0  0  0  0  0  0  0  0  0  0  0
  192.5850  177.1550  144.1380 C   0  0  0  0  0  3  0  0  0  0  0  0
  188.8840  175.8980  145.6420 C   0  0  2  0  0  3  0  0  0  0  0  0
  192.4280  176.0000  144.8490 N   0  0  0  0  0  0  0  0  0  0  0  0
  189.9100  173.4730  145.5060 N   0  0  0  0  0  0  0  0  0  0  0  0
  190.8590  174.4530  146.1260 C   0  0  1  0  0  3  0  0  0  0  0  0
  188.9520  174.2240  147.5820 F   0  0  0  0  0  0  0  0  0  0  0  0
  191.4740  177.9830  143.8930 C   0  0  0  0  0  3  0  0  0  0  0  0
  191.1970  175.6640  145.3100 C   0  0  0  0  0  0  0  0  0  0  0  0
  190.1240  176.4820  145.0890 C   0  0  0  0  0  0  0  0  0  0  0  0
  189.7040  173.6780  144.0670 C   0  0  0  0  0  2  0  0  0  0  0  0
  189.1900  172.4020  143.4230 C   0  0  0  0  0  2  0  0  0  0  0  0
  188.5170  172.6870  142.0880 C   0  0  0  0  0  2  0  0  0  0  0  0
  189.4110  173.5500  141.2170 C   0  0  0  0  0  2  0  0  0  0  0  0
  189.2320  172.0710  138.7400 O   0  0  0  0  0  0  0  0  0  0  0  0
  188.9290  173.3570  139.4790 P   0  0  1  0  0  4  0  0  0  0  0  0
  188.0600  174.5400  138.6370 O   0  0  0  0  0  1  0  0  0  0  0  0
  188.2250  176.7810  146.5570 O   0  0  0  0  0  0  0  0  0  0  0  0
  186.2250  178.0280  147.4590 C   0  0  0  0  0  3  0  0  0  0  0  0
  185.0270  178.5770  147.2650 C   0  0  0  0  0  3  0  0  0  0  0  0
  185.5970  179.4510  143.8860 C   0  0  0  0  0  1  0  0  0  0  0  0
  183.2670  179.0400  145.7640 O   0  0  0  0  0  0  0  0  0  0  0  0
  186.5410  177.5180  145.0900 C   0  0  0  0  0  3  0  0  0  0  0  0
  185.2630  178.2250  144.7150 C   0  0  1  0  0  3  0  0  0  0  0  0
  184.4470  178.6290  145.9150 C   0  0  0  0  0  0  0  0  0  0  0  0
  187.0020  177.4400  146.3440 C   0  0  0  0  0  0  0  0  0  0  0  0
  1  8  1  1  0  0  0
  2 11  1  0  0  0  0
  3  5  2  0  0  0  0
  4  1  1  0  0  0  0
  4 19  1  1  0  0  0
  5 10  1  0  0  0  0
  6  7  1  0  0  0  0
  6  1  1  0  0  0  0
  7 10  1  6  0  0  0
  7  1  1  0  0  0  0
  9  3  1  0  0  0  0
  9  2  2  0  0  0  0
 11 10  2  0  0  0  0
 11  4  1  0  0  0  0
 12  6  1  0  0  0  0
 13 12  1  0  0  0  0
 14 13  1  0  0  0  0
 15 14  1  0  0  0  0
 16 17  2  0  0  0  0
 17 18  1  1  0  0  0
 17 15  1  0  0  0  0
 21 20  2  0  0  0  0
 23 26  2  0  0  0  0
 24 27  2  0  0  0  0
 25 22  1  1  0  0  0
 25 24  1  0  0  0  0
 25 26  1  0  0  0  0
 26 21  1  0  0  0  0
 27 19  1  0  0  0  0
 27 20  1  0  0  0  0
M  END
>  <MODEL>
7

>  <REMARK>
 VINA RESULT:      -6.7      3.491      6.796
  Name = 
  7 active torsions:
  status: ('A' for Active; 'I' for Inactive)
    1  A    between atoms: C_3  and  C_11
    2  A    between atoms: C_3  and  N_18
    3  A    between atoms: C_8  and  O_24
    4  A    between atoms: C_11  and  C_13
    5  A    between atoms: C_12  and  C_13
    6  A    between atoms: C_12  and  P_17
    7  A    between atoms: O_24  and  C_27
                            x       y       z     vdW  Elec       q    Type
                         _______ _______ _______ _____ _____    ______ ____

>  <TORSDO>
F 7

$$$$
=
 OpenBabel11042415103D

 27 30  0  0  1  0  0  0  0  0999 V2000
  188.5620  177.6930  142.6610 C   0  0  1  0  0  0  0  0  0  0  0  0
  186.6930  177.9690  145.8470 N   0  0  0  0  0  0  0  0  0  0  0  0
  184.7550  179.0470  144.9330 C   0  0  0  0  0  3  0  0  0  0  0  0
  188.5270  177.3880  144.1860 C   0  0  2  0  0  3  0  0  0  0  0  0
  185.3200  179.0200  143.6910 N   0  0  0  0  0  0  0  0  0  0  0  0
  187.6240  177.0110  141.7380 N   0  0  0  0  0  0  0  0  0  0  0  0
  187.3200  178.3870  142.2460 C   0  0  1  0  0  3  0  0  0  0  0  0
  189.7110  178.1670  142.0510 F   0  0  0  0  0  0  0  0  0  0  0  0
  185.4540  178.5090  146.0310 C   0  0  0  0  0  3  0  0  0  0  0  0
  186.5500  178.4710  143.5300 C   0  0  0  0  0  0  0  0  0  0  0  0
  187.2350  177.9700  144.6020 C   0  0  0  0  0  0  0  0  0  0  0  0
  186.8500  175.9520  142.3980 C   0  0  0  0  0  2  0  0  0  0  0  0
  187.5260  174.6060  142.2000 C   0  0  0  0  0  2  0  0  0  0  0  0
  188.4910  174.6400  141.0230 C   0  0  0  0  0  2  0  0  0  0  0  0
  189.8940  174.2810  141.4770 C   0  0  0  0  0  2  0  0  0  0  0  0
  190.1140  174.0080  144.3460 O   0  0  0  0  0  0  0  0  0  0  0  0
  189.8050  173.3380  143.0250 P   0  0  1  0  0  4  0  0  0  0  0  0
  189.3000  171.7240  143.0810 O   0  0  0  0  0  1  0  0  0  0  0  0
  189.6360  177.9600  144.8910 O   0  0  0  0  0  0  0  0  0  0  0  0
  190.9260  176.6100  146.5890 C   0  0  0  0  0  3  0  0  0  0  0  0
  192.0660  176.0510  146.9890 C   0  0  0  0  0  3  0  0  0  0  0  0
  193.3030  175.4320  143.7350 C   0  0  0  0  0  1  0  0  0  0  0  0
  194.3520  175.6590  146.5580 O   0  0  0  0  0  0  0  0  0  0  0  0
  191.8440  177.2940  144.4310 C   0  0  0  0  0  3  0  0  0  0  0  0
  193.1490  176.5880  144.7050 C   0  0  1  0  0  3  0  0  0  0  0  0
  193.2510  176.0830  146.1200 C   0  0  0  0  0  0  0  0  0  0  0  0
  190.8100  177.2920  145.2800 C   0  0  0  0  0  0  0  0  0  0  0  0
  1  8  1  6  0  0  0
  1  4  1  0  0  0  0
  2  9  1  0  0  0  0
  3  9  2  0  0  0  0
  4 11  1  0  0  0  0
  4 19  1  1  0  0  0
  5  3  1  0  0  0  0
  6  7  1  0  0  0  0
  6 12  1  0  0  0  0
  6  1  1  0  0  0  0
  7  1  1  0  0  0  0
  7 10  1  1  0  0  0
 10  5  2  0  0  0  0
 10 11  1  0  0  0  0
 11  2  2  0  0  0  0
 13 12  1  0  0  0  0
 14 15  1  0  0  0  0
 14 13  1  0  0  0  0
 15 17  1  0  0  0  0
 17 18  1  1  0  0  0
 17 16  2  0  0  0  0
 19 27  1  0  0  0  0
 20 21  2  0  0  0  0
 24 25  1  0  0  0  0
 24 27  2  0  0  0  0
 25 22  1  6  0  0  0
 25 26  1  0  0  0  0
 26 23  2  0  0  0  0
 26 21  1  0  0  0  0
 27 20  1  0  0  0  0
M  END
>  <MODEL>
8

>  <REMARK>
 VINA RESULT:      -6.6      3.435      5.116
  Name = 
  7 active torsions:
  status: ('A' for Active; 'I' for Inactive)
    1  A    between atoms: C_3  and  C_11
    2  A    between atoms: C_3  and  N_18
    3  A    between atoms: C_8  and  O_24
    4  A    between atoms: C_11  and  C_13
    5  A    between atoms: C_12  and  C_13
    6  A    between atoms: C_12  and  P_17
    7  A    between atoms: O_24  and  C_27
                            x       y       z     vdW  Elec       q    Type
                         _______ _______ _______ _____ _____    ______ ____

>  <TORSDO>
F 7

$$$$
=
 OpenBabel11042415103D

 27 30  0  0  1  0  0  0  0  0999 V2000
  190.4210  176.4920  146.6930 C   0  0  1  0  0  0  0  0  0  0  0  0
  190.4030  174.9080  143.3450 N   0  0  0  0  0  0  0  0  0  0  0  0
  189.7360  172.7250  144.0810 C   0  0  0  0  0  3  0  0  0  0  0  0
  190.6200  176.6730  145.1600 C   0  0  2  0  0  3  0  0  0  0  0  0
  189.7020  173.1650  145.3720 N   0  0  0  0  0  0  0  0  0  0  0  0
  189.0750  176.2070  147.2460 N   0  0  0  0  0  0  0  0  0  0  0  0
  190.0460  175.0920  147.0020 C   0  0  1  0  0  3  0  0  0  0  0  0
  191.2970  177.0620  147.6020 F   0  0  0  0  0  0  0  0  0  0  0  0
  190.0910  173.6130  143.0470 C   0  0  0  0  0  3  0  0  0  0  0  0
  190.0080  174.4590  145.6430 C   0  0  0  0  0  0  0  0  0  0  0  0
  190.3730  175.3130  144.6400 C   0  0  0  0  0  0  0  0  0  0  0  0
  188.0150  176.3010  146.2350 C   0  0  0  0  0  2  0  0  0  0  0  0
  186.7670  176.9220  146.8390 C   0  0  0  0  0  2  0  0  0  0  0  0
  185.5760  176.7970  145.8990 C   0  0  0  0  0  2  0  0  0  0  0  0
  186.0380  176.8000  144.4540 C   0  0  0  0  0  2  0  0  0  0  0  0
  184.3070  177.9180  142.4270 O   0  0  0  0  0  0  0  0  0  0  0  0
  185.2580  178.1820  143.5740 P   0  0  1  0  0  4  0  0  0  0  0  0
  185.4800  179.7960  144.0320 O   0  0  0  0  0  1  0  0  0  0  0  0
  191.9260  177.1590  144.8250 O   0  0  0  0  0  0  0  0  0  0  0  0
  193.7390  175.9710  146.1160 C   0  0  0  0  0  3  0  0  0  0  0  0
  194.9150  175.3440  146.1390 C   0  0  0  0  0  3  0  0  0  0  0  0
  194.6450  173.9980  142.8800 C   0  0  0  0  0  1  0  0  0  0  0  0
  196.7890  174.5790  144.9270 O   0  0  0  0  0  0  0  0  0  0  0  0
  193.7030  176.1320  143.6780 C   0  0  0  0  0  3  0  0  0  0  0  0
  194.9670  175.3180  143.5550 C   0  0  1  0  0  3  0  0  0  0  0  0
  195.6270  175.0620  144.8840 C   0  0  0  0  0  0  0  0  0  0  0  0
  193.1210  176.4190  144.8480 C   0  0  0  0  0  0  0  0  0  0  0  0
  1  7  1  0  0  0  0
  1  6  1  0  0  0  0
  1  8  1  1  0  0  0
  2 11  1  0  0  0  0
  3  5  2  0  0  0  0
  4 19  1  1  0  0  0
  4  1  1  0  0  0  0
  5 10  1  0  0  0  0
  7 10  1  6  0  0  0
  7  6  1  0  0  0  0
  9  2  2  0  0  0  0
  9  3  1  0  0  0  0
 11  4  1  0  0  0  0
 11 10  2  0  0  0  0
 12 13  1  0  0  0  0
 12  6  1  0  0  0  0
 14 13  1  0  0  0  0
 15 14  1  0  0  0  0
 17 16  2  1  0  0  0
 17 18  1  0  0  0  0
 17 15  1  0  0  0  0
 19 27  1  0  0  0  0
 20 21  2  0  0  0  0
 24 27  2  0  0  0  0
 25 22  1  1  0  0  0
 25 24  1  0  0  0  0
 25 26  1  0  0  0  0
 26 23  2  0  0  0  0
 26 21  1  0  0  0  0
 27 20  1  0  0  0  0
M  END
>  <MODEL>
9

>  <REMARK>
 VINA RESULT:      -6.4      1.828      2.496
  Name = 
  7 active torsions:
  status: ('A' for Active; 'I' for Inactive)
    1  A    between atoms: C_3  and  C_11
    2  A    between atoms: C_3  and  N_18
    3  A    between atoms: C_8  and  O_24
    4  A    between atoms: C_11  and  C_13
    5  A    between atoms: C_12  and  C_13
    6  A    between atoms: C_12  and  P_17
    7  A    between atoms: O_24  and  C_27
                            x       y       z     vdW  Elec       q    Type
                         _______ _______ _______ _____ _____    ______ ____

>  <TORSDO>
F 7

$$$$
