=
 OpenBabel11042414043D

 31 34  0  0  0  0  0  0  0  0999 V2000
  185.2480  177.9520  140.9030 C   0  0  0  0  0  0  0  0  0  0  0  0
  187.3290  176.8620  143.8560 C   0  0  0  0  0  0  0  0  0  0  0  0
  186.6170  177.2870  145.0350 C   0  0  0  0  0  0  0  0  0  0  0  0
  185.0300  179.0910  145.8550 C   0  0  0  0  0  2  0  0  0  0  0  0
  186.8670  177.0770  142.5160 C   0  0  0  0  0  0  0  0  0  0  0  0
  186.0260  177.4890  139.8450 C   0  0  0  0  0  3  0  0  0  0  0  0
  185.2330  177.8930  144.9370 C   0  0  0  0  0  2  0  0  0  0  0  0
  189.3370  175.7510  142.9160 C   0  0  0  0  0  0  0  0  0  0  0  0
  184.0310  178.6380  140.6410 N   0  0  0  0  0  1  0  0  0  0  0  0
  188.4100  176.3860  146.4270 C   0  0  0  0  0  3  0  0  0  0  0  0
  184.5310  178.6340  147.2290 C   0  0  0  0  0  2  0  0  0  0  0  0
  188.8560  175.9730  141.6290 C   0  0  0  0  0  3  0  0  0  0  0  0
  188.5840  176.1930  144.0230 C   0  0  0  0  0  0  0  0  0  0  0  0
  185.6650  177.7460  142.2180 C   0  0  0  0  0  3  0  0  0  0  0  0
  185.1520  177.3800  147.6570 N   0  0  0  0  0  2  0  0  0  0  0  0
  187.6480  176.6210  141.4200 C   0  0  0  0  0  0  0  0  0  0  0  0
  187.2220  176.8250  140.1030 C   0  0  0  0  0  3  0  0  0  0  0  0
  189.0940  175.9670  145.3020 C   0  0  0  0  0  3  0  0  0  0  0  0
  187.1820  177.0310  146.3200 C   0  0  0  0  0  0  0  0  0  0  0  0
  186.6010  177.5380  147.6150 C   0  0  0  0  0  2  0  0  0  0  0  0
  195.3630  174.2630  145.3510 C   0  0  0  0  0  0  0  0  0  0  0  0
  192.8690  173.6280  143.7700 O   0  0  0  0  0  1  0  0  0  0  0  0
  194.6710  176.2930  142.4120 O   0  0  0  0  0  0  0  0  0  0  0  0
  192.0570  176.8600  142.5570 O   0  0  0  0  0  0  0  0  0  0  0  0
  196.5650  173.6370  145.9630 C   0  0  0  0  0  1  0  0  0  0  0  0
  191.9150  175.6870  143.0010 C   0  0  0  0  0  0  0  0  0  0  0  0
  194.2750  174.2580  145.9850 O   0  0  0  0  0  0  0  0  0  0  0  0
  194.4060  175.4180  143.2780 C   0  0  0  0  0  0  0  0  0  0  0  0
  193.0620  174.9190  143.4070 N   0  0  0  0  0  0  0  0  0  0  0  0
  190.6090  175.1090  143.1270 N   0  0  0  0  0  2  0  0  0  0  0  0
  195.4810  174.9050  144.0770 N   0  0  0  0  0  2  0  0  0  0  0  0
  1 14  1  0  0  0  0
  2 13  2  0  0  0  0
  2  3  1  0  0  0  0
  3 19  2  0  0  0  0
  4 11  1  0  0  0  0
  5  2  1  0  0  0  0
  6 17  1  0  0  0  0
  6  1  2  0  0  0  0
  7  3  1  0  0  0  0
  7  4  1  0  0  0  0
  8 30  1  0  0  0  0
  8 13  1  0  0  0  0
  9  1  1  0  0  0  0
 11 15  1  0  0  0  0
 12  8  2  0  0  0  0
 13 18  1  0  0  0  0
 14  5  2  0  0  0  0
 16 12  1  0  0  0  0
 16  5  1  0  0  0  0
 17 16  2  0  0  0  0
 18 10  2  0  0  0  0
 19 10  1  0  0  0  0
 19 20  1  0  0  0  0
 20 15  1  0  0  0  0
 21 25  1  0  0  0  0
 21 27  2  0  0  0  0
 23 28  2  0  0  0  0
 24 26  2  0  0  0  0
 26 30  1  0  0  0  0
 26 29  1  0  0  0  0
 28 29  1  0  0  0  0
 28 31  1  0  0  0  0
 29 22  1  0  0  0  0
 31 21  1  0  0  0  0
M  END
>  <MODEL>
1

>  <REMARK>
 VINA RESULT:      -9.0      0.000      0.000
  Name = 
  1 active torsions:
  status: ('A' for Active; 'I' for Inactive)
    1  A    between atoms: C_15  and  N_23
                            x       y       z     vdW  Elec       q    Type
                         _______ _______ _______ _____ _____    ______ ____

>  <TORSDO>
F 1

$$$$
=
 OpenBabel11042414043D

 31 34  0  0  0  0  0  0  0  0999 V2000
  185.1570  177.9490  146.7590 C   0  0  0  0  0  0  0  0  0  0  0  0
  187.0260  176.8650  143.6660 C   0  0  0  0  0  0  0  0  0  0  0  0
  186.2480  177.3170  142.5400 C   0  0  0  0  0  0  0  0  0  0  0  0
  183.8530  177.7980  141.8460 C   0  0  0  0  0  2  0  0  0  0  0  0
  186.6640  177.0860  145.0360 C   0  0  0  0  0  0  0  0  0  0  0  0
  185.9970  177.4660  147.7600 C   0  0  0  0  0  3  0  0  0  0  0  0
  185.0260  178.1900  142.7340 C   0  0  0  0  0  2  0  0  0  0  0  0
  189.0450  175.6650  144.4620 C   0  0  0  0  0  0  0  0  0  0  0  0
  183.9590  178.6310  147.1070 N   0  0  0  0  0  1  0  0  0  0  0  0
  187.8750  176.3080  141.0250 C   0  0  0  0  0  3  0  0  0  0  0  0
  183.9330  178.5270  140.5010 C   0  0  0  0  0  2  0  0  0  0  0  0
  188.6640  175.9000  145.7800 C   0  0  0  0  0  3  0  0  0  0  0  0
  188.2340  176.1390  143.4100 C   0  0  0  0  0  0  0  0  0  0  0  0
  185.4900  177.7610  145.4180 C   0  0  0  0  0  3  0  0  0  0  0  0
  185.3080  178.6560  140.0190 N   0  0  0  0  0  2  0  0  0  0  0  0
  187.5010  176.5950  146.0740 C   0  0  0  0  0  0  0  0  0  0  0  0
  187.1660  176.7920  147.4170 C   0  0  0  0  0  3  0  0  0  0  0  0
  188.6320  175.8800  142.0990 C   0  0  0  0  0  3  0  0  0  0  0  0
  186.7000  177.0270  141.2190 C   0  0  0  0  0  0  0  0  0  0  0  0
  185.9130  177.3290  139.9700 C   0  0  0  0  0  2  0  0  0  0  0  0
  194.9520  172.6320  145.0700 C   0  0  0  0  0  0  0  0  0  0  0  0
  192.3210  173.1430  143.6760 O   0  0  0  0  0  1  0  0  0  0  0  0
  194.3730  175.9680  143.7400 O   0  0  0  0  0  0  0  0  0  0  0  0
  191.8610  176.5740  144.4470 O   0  0  0  0  0  0  0  0  0  0  0  0
  196.0950  171.6820  145.1250 C   0  0  0  0  0  1  0  0  0  0  0  0
  191.5960  175.3610  144.2190 C   0  0  0  0  0  0  0  0  0  0  0  0
  193.9050  172.3740  145.7210 O   0  0  0  0  0  0  0  0  0  0  0  0
  194.0440  174.7900  144.0380 C   0  0  0  0  0  0  0  0  0  0  0  0
  192.6560  174.4070  144.0300 N   0  0  0  0  0  0  0  0  0  0  0  0
  190.2350  174.9110  144.1620 N   0  0  0  0  0  2  0  0  0  0  0  0
  195.0850  173.8450  144.3220 N   0  0  0  0  0  2  0  0  0  0  0  0
  1  9  1  0  0  0  0
  1  6  1  0  0  0  0
  2  5  1  0  0  0  0
  3  7  1  0  0  0  0
  3  2  1  0  0  0  0
  4  7  1  0  0  0  0
  5 14  1  0  0  0  0
  5 16  2  0  0  0  0
  8 12  2  0  0  0  0
 10 19  1  0  0  0  0
 10 18  2  0  0  0  0
 11  4  1  0  0  0  0
 12 16  1  0  0  0  0
 13  2  2  0  0  0  0
 13  8  1  0  0  0  0
 14  1  2  0  0  0  0
 15 11  1  0  0  0  0
 16 17  1  0  0  0  0
 17  6  2  0  0  0  0
 18 13  1  0  0  0  0
 19  3  2  0  0  0  0
 20 15  1  0  0  0  0
 20 19  1  0  0  0  0
 21 25  1  0  0  0  0
 21 27  2  0  0  0  0
 22 29  1  0  0  0  0
 23 28  2  0  0  0  0
 26 24  2  0  0  0  0
 28 31  1  0  0  0  0
 29 28  1  0  0  0  0
 29 26  1  0  0  0  0
 30 26  1  0  0  0  0
 30  8  1  0  0  0  0
 31 21  1  0  0  0  0
M  END
>  <MODEL>
2

>  <REMARK>
 VINA RESULT:      -8.6      1.165      4.159
  Name = 
  1 active torsions:
  status: ('A' for Active; 'I' for Inactive)
    1  A    between atoms: C_15  and  N_23
                            x       y       z     vdW  Elec       q    Type
                         _______ _______ _______ _____ _____    ______ ____

>  <TORSDO>
F 1

$$$$
=
 OpenBabel11042414043D

 31 34  0  0  0  0  0  0  0  0999 V2000
  184.9220  177.9430  141.1470 C   0  0  0  0  0  0  0  0  0  0  0  0
  187.3890  177.4550  143.9600 C   0  0  0  0  0  0  0  0  0  0  0  0
  186.6660  177.6950  145.1830 C   0  0  0  0  0  0  0  0  0  0  0  0
  184.7210  179.0410  146.1100 C   0  0  0  0  0  2  0  0  0  0  0  0
  186.8070  177.5300  142.6520 C   0  0  0  0  0  0  0  0  0  0  0  0
  185.7270  177.6840  140.0410 C   0  0  0  0  0  3  0  0  0  0  0  0
  185.1690  177.9250  145.1750 C   0  0  0  0  0  2  0  0  0  0  0  0
  189.5540  176.8850  142.8920 C   0  0  0  0  0  0  0  0  0  0  0  0
  183.5560  178.2910  140.9650 N   0  0  0  0  0  1  0  0  0  0  0  0
  188.7110  177.2990  146.4570 C   0  0  0  0  0  3  0  0  0  0  0  0
  184.4410  178.4850  147.5090 C   0  0  0  0  0  2  0  0  0  0  0  0
  188.9540  176.9630  141.6380 C   0  0  0  0  0  3  0  0  0  0  0  0
  188.7820  177.1310  144.0460 C   0  0  0  0  0  0  0  0  0  0  0  0
  185.4570  177.8650  142.4330 C   0  0  0  0  0  3  0  0  0  0  0  0
  185.3890  177.4380  147.8910 N   0  0  0  0  0  2  0  0  0  0  0  0
  187.6100  177.2780  141.5070 C   0  0  0  0  0  0  0  0  0  0  0  0
  187.0660  177.3510  140.2210 C   0  0  0  0  0  3  0  0  0  0  0  0
  189.4090  177.0570  145.2890 C   0  0  0  0  0  3  0  0  0  0  0  0
  187.3540  177.6060  146.4290 C   0  0  0  0  0  0  0  0  0  0  0  0
  186.7430  177.9610  147.7610 C   0  0  0  0  0  2  0  0  0  0  0  0
  195.9280  175.6140  141.4070 C   0  0  0  0  0  0  0  0  0  0  0  0
  193.7160  176.4160  143.3000 O   0  0  0  0  0  1  0  0  0  0  0  0
  193.3530  173.1470  142.1280 O   0  0  0  0  0  0  0  0  0  0  0  0
  191.0410  174.4910  141.9880 O   0  0  0  0  0  0  0  0  0  0  0  0
  197.4080  175.6070  141.2530 C   0  0  0  0  0  1  0  0  0  0  0  0
  191.6660  175.4500  142.5220 C   0  0  0  0  0  0  0  0  0  0  0  0
  195.2840  176.6560  141.1170 O   0  0  0  0  0  0  0  0  0  0  0  0
  193.8770  174.2910  142.1740 C   0  0  0  0  0  0  0  0  0  0  0  0
  193.1010  175.4190  142.6200 N   0  0  0  0  0  0  0  0  0  0  0  0
  190.9580  176.5930  143.0200 N   0  0  0  0  0  2  0  0  0  0  0  0
  195.2630  174.4190  141.8290 N   0  0  0  0  0  2  0  0  0  0  0  0
  1 14  1  0  0  0  0
  2 13  2  0  0  0  0
  2  3  1  0  0  0  0
  3 19  2  0  0  0  0
  4 11  1  0  0  0  0
  5  2  1  0  0  0  0
  6 17  1  0  0  0  0
  6  1  2  0  0  0  0
  7  3  1  0  0  0  0
  7  4  1  0  0  0  0
  8 30  1  0  0  0  0
  8 13  1  0  0  0  0
  9  1  1  0  0  0  0
 11 15  1  0  0  0  0
 12  8  2  0  0  0  0
 13 18  1  0  0  0  0
 14  5  2  0  0  0  0
 16 12  1  0  0  0  0
 16  5  1  0  0  0  0
 17 16  2  0  0  0  0
 18 10  2  0  0  0  0
 19 10  1  0  0  0  0
 19 20  1  0  0  0  0
 20 15  1  0  0  0  0
 21 31  1  0  0  0  0
 23 28  2  0  0  0  0
 24 26  2  0  0  0  0
 25 21  1  0  0  0  0
 26 29  1  0  0  0  0
 26 30  1  0  0  0  0
 27 21  2  0  0  0  0
 28 29  1  0  0  0  0
 29 22  1  0  0  0  0
 31 28  1  0  0  0  0
M  END
>  <MODEL>
3

>  <REMARK>
 VINA RESULT:      -8.5      1.560      1.991
  Name = 
  1 active torsions:
  status: ('A' for Active; 'I' for Inactive)
    1  A    between atoms: C_15  and  N_23
                            x       y       z     vdW  Elec       q    Type
                         _______ _______ _______ _____ _____    ______ ____

>  <TORSDO>
F 1

$$$$
=
 OpenBabel11042414043D

 31 34  0  0  0  0  0  0  0  0999 V2000
  191.1920  176.5070  147.5610 C   0  0  0  0  0  0  0  0  0  0  0  0
  188.6470  176.1990  144.7920 C   0  0  0  0  0  0  0  0  0  0  0  0
  187.5300  177.0270  145.1710 C   0  0  0  0  0  0  0  0  0  0  0  0
  186.3140  177.9070  147.2190 C   0  0  0  0  0  2  0  0  0  0  0  0
  189.8380  176.0450  145.5760 C   0  0  0  0  0  0  0  0  0  0  0  0
  192.2050  175.6800  147.0830 C   0  0  0  0  0  3  0  0  0  0  0  0
  187.5950  177.9160  146.3960 C   0  0  0  0  0  2  0  0  0  0  0  0
  189.6200  174.6380  143.1280 C   0  0  0  0  0  0  0  0  0  0  0  0
  191.3450  177.1660  148.8110 N   0  0  0  0  0  1  0  0  0  0  0  0
  186.3570  176.3550  143.1380 C   0  0  0  0  0  3  0  0  0  0  0  0
  185.3480  178.9850  146.7170 C   0  0  0  0  0  2  0  0  0  0  0  0
  190.7630  174.5150  143.9130 C   0  0  0  0  0  3  0  0  0  0  0  0
  188.5660  175.4690  143.5620 C   0  0  0  0  0  0  0  0  0  0  0  0
  190.0270  176.6860  146.8140 C   0  0  0  0  0  3  0  0  0  0  0  0
  185.3750  179.1200  145.2610 N   0  0  0  0  0  2  0  0  0  0  0  0
  190.8820  175.2000  145.1130 C   0  0  0  0  0  0  0  0  0  0  0  0
  192.0500  175.0290  145.8620 C   0  0  0  0  0  3  0  0  0  0  0  0
  187.4270  175.5660  142.7630 C   0  0  0  0  0  3  0  0  0  0  0  0
  186.3890  177.0920  144.3170 C   0  0  0  0  0  0  0  0  0  0  0  0
  185.1130  177.8150  144.6640 C   0  0  0  0  0  2  0  0  0  0  0  0
  190.6720  170.2420  138.2270 C   0  0  0  0  0  0  0  0  0  0  0  0
  188.9780  172.2420  139.7280 O   0  0  0  0  0  1  0  0  0  0  0  0
  191.8170  173.6940  138.3040 O   0  0  0  0  0  0  0  0  0  0  0  0
  191.4950  174.4790  140.8440 O   0  0  0  0  0  0  0  0  0  0  0  0
  190.5980  169.1580  137.2110 C   0  0  0  0  0  1  0  0  0  0  0  0
  190.4360  173.7910  140.8320 C   0  0  0  0  0  0  0  0  0  0  0  0
  190.4130  169.9760  139.4300 O   0  0  0  0  0  0  0  0  0  0  0  0
  191.0670  172.7370  138.6310 C   0  0  0  0  0  0  0  0  0  0  0  0
  190.1770  172.8740  139.7540 N   0  0  0  0  0  0  0  0  0  0  0  0
  189.4860  173.8980  141.9000 N   0  0  0  0  0  2  0  0  0  0  0  0
  191.0870  171.5510  137.8240 N   0  0  0  0  0  2  0  0  0  0  0  0
  1  9  1  0  0  0  0
  2  3  1  0  0  0  0
  2  5  1  0  0  0  0
  3  7  1  0  0  0  0
  5 14  1  0  0  0  0
  6  1  1  0  0  0  0
  7  4  1  0  0  0  0
  8 13  1  0  0  0  0
  8 12  2  0  0  0  0
 10 19  1  0  0  0  0
 11  4  1  0  0  0  0
 12 16  1  0  0  0  0
 13  2  2  0  0  0  0
 14  1  2  0  0  0  0
 15 11  1  0  0  0  0
 16  5  2  0  0  0  0
 16 17  1  0  0  0  0
 17  6  2  0  0  0  0
 18 10  2  0  0  0  0
 18 13  1  0  0  0  0
 19 20  1  0  0  0  0
 19  3  2  0  0  0  0
 20 15  1  0  0  0  0
 21 27  2  0  0  0  0
 22 29  1  0  0  0  0
 23 28  2  0  0  0  0
 25 21  1  0  0  0  0
 26 24  2  0  0  0  0
 26 30  1  0  0  0  0
 28 29  1  0  0  0  0
 29 26  1  0  0  0  0
 30  8  1  0  0  0  0
 31 21  1  0  0  0  0
 31 28  1  0  0  0  0
M  END
>  <MODEL>
4

>  <REMARK>
 VINA RESULT:      -8.4      3.668      5.808
  Name = 
  1 active torsions:
  status: ('A' for Active; 'I' for Inactive)
    1  A    between atoms: C_15  and  N_23
                            x       y       z     vdW  Elec       q    Type
                         _______ _______ _______ _____ _____    ______ ____

>  <TORSDO>
F 1

$$$$
=
 OpenBabel11042414043D

 31 34  0  0  0  0  0  0  0  0999 V2000
  185.7930  178.3890  146.1040 C   0  0  0  0  0  0  0  0  0  0  0  0
  188.5130  176.1070  144.8260 C   0  0  0  0  0  0  0  0  0  0  0  0
  189.5520  176.1130  145.8250 C   0  0  0  0  0  0  0  0  0  0  0  0
  190.5870  177.5960  147.6080 C   0  0  0  0  0  2  0  0  0  0  0  0
  187.2890  176.8460  144.9340 C   0  0  0  0  0  0  0  0  0  0  0  0
  184.8640  178.2970  145.0710 C   0  0  0  0  0  3  0  0  0  0  0  0
  189.3600  176.8190  147.1510 C   0  0  0  0  0  2  0  0  0  0  0  0
  187.7410  175.2750  142.6220 C   0  0  0  0  0  0  0  0  0  0  0  0
  185.5250  179.2170  147.2270 N   0  0  0  0  0  1  0  0  0  0  0  0
  190.8850  174.6140  144.4310 C   0  0  0  0  0  3  0  0  0  0  0  0
  191.5130  176.6970  148.4330 C   0  0  0  0  0  2  0  0  0  0  0  0
  186.5630  176.0020  142.7610 C   0  0  0  0  0  3  0  0  0  0  0  0
  188.7130  175.3260  143.6420 C   0  0  0  0  0  0  0  0  0  0  0  0
  186.9880  177.6710  146.0330 C   0  0  0  0  0  3  0  0  0  0  0  0
  191.5650  175.3290  147.9150 N   0  0  0  0  0  2  0  0  0  0  0  0
  186.3300  176.7750  143.8880 C   0  0  0  0  0  0  0  0  0  0  0  0
  185.1310  177.4920  143.9670 C   0  0  0  0  0  3  0  0  0  0  0  0
  189.8890  174.5970  143.4730 C   0  0  0  0  0  3  0  0  0  0  0  0
  190.7360  175.3480  145.6040 C   0  0  0  0  0  0  0  0  0  0  0  0
  191.9420  175.3750  146.5080 C   0  0  0  0  0  2  0  0  0  0  0  0
  190.3900  173.1470  136.8850 C   0  0  0  0  0  0  0  0  0  0  0  0
  188.7070  172.7880  139.3670 O   0  0  0  0  0  1  0  0  0  0  0  0
  187.4500  175.2600  137.2440 O   0  0  0  0  0  0  0  0  0  0  0  0
  187.5000  176.0960  139.7880 O   0  0  0  0  0  0  0  0  0  0  0  0
  191.0410  172.3940  135.7800 C   0  0  0  0  0  1  0  0  0  0  0  0
  187.9250  174.9410  140.0700 C   0  0  0  0  0  0  0  0  0  0  0  0
  190.9810  173.2520  137.9910 O   0  0  0  0  0  0  0  0  0  0  0  0
  188.2950  174.4110  137.6330 C   0  0  0  0  0  0  0  0  0  0  0  0
  188.3660  174.0540  139.0260 N   0  0  0  0  0  0  0  0  0  0  0  0
  187.9930  174.5020  141.4330 N   0  0  0  0  0  2  0  0  0  0  0  0
  189.1290  173.7820  136.6500 N   0  0  0  0  0  2  0  0  0  0  0  0
  1  9  1  0  0  0  0
  2  5  1  0  0  0  0
  2  3  1  0  0  0  0
  3  7  1  0  0  0  0
  4 11  1  0  0  0  0
  5 14  2  0  0  0  0
  6  1  2  0  0  0  0
  7  4  1  0  0  0  0
  8 12  2  0  0  0  0
  8 13  1  0  0  0  0
 10 19  1  0  0  0  0
 12 16  1  0  0  0  0
 13  2  2  0  0  0  0
 14  1  1  0  0  0  0
 15 11  1  0  0  0  0
 16 17  2  0  0  0  0
 16  5  1  0  0  0  0
 17  6  1  0  0  0  0
 18 13  1  0  0  0  0
 18 10  2  0  0  0  0
 19  3  2  0  0  0  0
 19 20  1  0  0  0  0
 20 15  1  0  0  0  0
 21 27  2  0  0  0  0
 23 28  2  0  0  0  0
 24 26  2  0  0  0  0
 25 21  1  0  0  0  0
 26 30  1  0  0  0  0
 28 29  1  0  0  0  0
 29 22  1  0  0  0  0
 29 26  1  0  0  0  0
 30  8  1  0  0  0  0
 31 21  1  0  0  0  0
 31 28  1  0  0  0  0
M  END
>  <MODEL>
5

>  <REMARK>
 VINA RESULT:      -8.3      3.653      5.969
  Name = 
  1 active torsions:
  status: ('A' for Active; 'I' for Inactive)
    1  A    between atoms: C_15  and  N_23
                            x       y       z     vdW  Elec       q    Type
                         _______ _______ _______ _____ _____    ______ ____

>  <TORSDO>
F 1

$$$$
=
 OpenBabel11042414043D

 31 34  0  0  0  0  0  0  0  0999 V2000
  185.4520  177.8730  140.8510 C   0  0  0  0  0  0  0  0  0  0  0  0
  187.3440  176.7850  143.9290 C   0  0  0  0  0  0  0  0  0  0  0  0
  186.5780  177.2420  145.0610 C   0  0  0  0  0  0  0  0  0  0  0  0
  184.9880  179.0920  145.7680 C   0  0  0  0  0  2  0  0  0  0  0  0
  186.9610  176.9890  142.5620 C   0  0  0  0  0  0  0  0  0  0  0  0
  186.2760  177.3780  139.8440 C   0  0  0  0  0  3  0  0  0  0  0  0
  185.2150  177.8760  144.8790 C   0  0  0  0  0  2  0  0  0  0  0  0
  189.3750  175.6170  143.1160 C   0  0  0  0  0  0  0  0  0  0  0  0
  184.2660  178.5800  140.5130 N   0  0  0  0  0  1  0  0  0  0  0  0
  188.2720  176.3250  146.5630 C   0  0  0  0  0  3  0  0  0  0  0  0
  184.4050  178.6660  147.1180 C   0  0  0  0  0  2  0  0  0  0  0  0
  188.9710  175.8300  141.8020 C   0  0  0  0  0  3  0  0  0  0  0  0
  188.5730  176.0910  144.1750 C   0  0  0  0  0  0  0  0  0  0  0  0
  185.7920  177.6780  142.1900 C   0  0  0  0  0  3  0  0  0  0  0  0
  184.9740  177.4060  147.5970 N   0  0  0  0  0  2  0  0  0  0  0  0
  187.7910  176.5000  141.5180 C   0  0  0  0  0  0  0  0  0  0  0  0
  187.4410  176.6930  140.1770 C   0  0  0  0  0  3  0  0  0  0  0  0
  189.0070  175.8750  145.4820 C   0  0  0  0  0  3  0  0  0  0  0  0
  187.0660  176.9940  146.3790 C   0  0  0  0  0  0  0  0  0  0  0  0
  186.4260  177.5330  147.6330 C   0  0  0  0  0  2  0  0  0  0  0  0
  194.8950  171.9320  142.4760 C   0  0  0  0  0  0  0  0  0  0  0  0
  193.1910  174.0050  143.8620 O   0  0  0  0  0  1  0  0  0  0  0  0
  191.7270  170.8340  143.8880 O   0  0  0  0  0  0  0  0  0  0  0  0
  189.9580  172.7160  143.1770 O   0  0  0  0  0  0  0  0  0  0  0  0
  196.2810  171.3960  142.4060 C   0  0  0  0  0  1  0  0  0  0  0  0
  190.8900  173.5440  143.3720 C   0  0  0  0  0  0  0  0  0  0  0  0
  194.5960  172.9580  141.8100 O   0  0  0  0  0  0  0  0  0  0  0  0
  192.5880  171.6910  143.5570 C   0  0  0  0  0  0  0  0  0  0  0  0
  192.2440  173.0890  143.5440 N   0  0  0  0  0  0  0  0  0  0  0  0
  190.6200  174.9520  143.4060 N   0  0  0  0  0  2  0  0  0  0  0  0
  193.9160  171.2380  143.2560 N   0  0  0  0  0  2  0  0  0  0  0  0
  1 14  1  0  0  0  0
  2 13  2  0  0  0  0
  2  3  1  0  0  0  0
  3 19  2  0  0  0  0
  4 11  1  0  0  0  0
  5  2  1  0  0  0  0
  6 17  1  0  0  0  0
  6  1  2  0  0  0  0
  7  3  1  0  0  0  0
  7  4  1  0  0  0  0
  8 30  1  0  0  0  0
  8 13  1  0  0  0  0
  9  1  1  0  0  0  0
 11 15  1  0  0  0  0
 12  8  2  0  0  0  0
 13 18  1  0  0  0  0
 14  5  2  0  0  0  0
 15 20  1  0  0  0  0
 16 12  1  0  0  0  0
 16  5  1  0  0  0  0
 17 16  2  0  0  0  0
 18 10  2  0  0  0  0
 19 10  1  0  0  0  0
 19 20  1  0  0  0  0
 21 31  1  0  0  0  0
 24 26  2  0  0  0  0
 25 21  1  0  0  0  0
 26 30  1  0  0  0  0
 26 29  1  0  0  0  0
 27 21  2  0  0  0  0
 28 23  2  0  0  0  0
 29 28  1  0  0  0  0
 29 22  1  0  0  0  0
 31 28  1  0  0  0  0
M  END
>  <MODEL>
6

>  <REMARK>
 VINA RESULT:      -8.1      1.785      2.260
  Name = 
  1 active torsions:
  status: ('A' for Active; 'I' for Inactive)
    1  A    between atoms: C_15  and  N_23
                            x       y       z     vdW  Elec       q    Type
                         _______ _______ _______ _____ _____    ______ ____

>  <TORSDO>
F 1

$$$$
=
 OpenBabel11042414043D

 31 34  0  0  0  0  0  0  0  0999 V2000
  185.3480  177.9040  146.7830 C   0  0  0  0  0  0  0  0  0  0  0  0
  186.9590  176.9690  143.5020 C   0  0  0  0  0  0  0  0  0  0  0  0
  186.0740  177.4380  142.4650 C   0  0  0  0  0  0  0  0  0  0  0  0
  183.6170  177.8800  142.0000 C   0  0  0  0  0  2  0  0  0  0  0  0
  186.7150  177.1360  144.9050 C   0  0  0  0  0  0  0  0  0  0  0  0
  186.2840  177.4100  147.6880 C   0  0  0  0  0  3  0  0  0  0  0  0
  184.8550  178.2730  142.7950 C   0  0  0  0  0  2  0  0  0  0  0  0
  189.0670  175.7950  144.0740 C   0  0  0  0  0  0  0  0  0  0  0  0
  184.1700  178.5420  147.2580 N   0  0  0  0  0  1  0  0  0  0  0  0
  187.5830  176.5210  140.7780 C   0  0  0  0  0  3  0  0  0  0  0  0
  183.5610  178.6550  140.6800 C   0  0  0  0  0  2  0  0  0  0  0  0
  188.8000  175.9770  145.4280 C   0  0  0  0  0  3  0  0  0  0  0  0
  188.1560  176.2830  143.1150 C   0  0  0  0  0  0  0  0  0  0  0  0
  185.5640  177.7680  145.4110 C   0  0  0  0  0  3  0  0  0  0  0  0
  184.8850  178.8340  140.0840 N   0  0  0  0  0  2  0  0  0  0  0  0
  187.6520  176.6330  145.8470 C   0  0  0  0  0  0  0  0  0  0  0  0
  187.4320  176.7770  147.2210 C   0  0  0  0  0  3  0  0  0  0  0  0
  188.4420  176.0770  141.7660 C   0  0  0  0  0  3  0  0  0  0  0  0
  186.4140  177.2030  141.0990 C   0  0  0  0  0  0  0  0  0  0  0  0
  185.5120  177.5260  139.9360 C   0  0  0  0  0  2  0  0  0  0  0  0
  193.0980  171.5550  140.8760 C   0  0  0  0  0  0  0  0  0  0  0  0
  192.5620  174.0020  142.5640 O   0  0  0  0  0  1  0  0  0  0  0  0
  191.6000  171.0430  144.1510 O   0  0  0  0  0  0  0  0  0  0  0  0
  189.6940  172.9150  144.3460 O   0  0  0  0  0  0  0  0  0  0  0  0
  194.1490  170.8890  140.0610 C   0  0  0  0  0  1  0  0  0  0  0  0
  190.4980  173.6750  143.7370 C   0  0  0  0  0  0  0  0  0  0  0  0
  192.3970  172.4610  140.3550 O   0  0  0  0  0  0  0  0  0  0  0  0
  192.0150  171.7380  143.1870 C   0  0  0  0  0  0  0  0  0  0  0  0
  191.6740  173.1350  143.1080 N   0  0  0  0  0  0  0  0  0  0  0  0
  190.2430  175.0820  143.6450 N   0  0  0  0  0  2  0  0  0  0  0  0
  192.8710  171.1150  142.2180 N   0  0  0  0  0  2  0  0  0  0  0  0
  1  9  1  0  0  0  0
  1  6  1  0  0  0  0
  2  5  1  0  0  0  0
  3  7  1  0  0  0  0
  3  2  1  0  0  0  0
  4  7  1  0  0  0  0
  5 14  1  0  0  0  0
  5 16  2  0  0  0  0
  8 12  2  0  0  0  0
 10 19  1  0  0  0  0
 10 18  2  0  0  0  0
 11  4  1  0  0  0  0
 12 16  1  0  0  0  0
 13  2  2  0  0  0  0
 13  8  1  0  0  0  0
 14  1  2  0  0  0  0
 15 11  1  0  0  0  0
 16 17  1  0  0  0  0
 17  6  2  0  0  0  0
 18 13  1  0  0  0  0
 19  3  2  0  0  0  0
 20 15  1  0  0  0  0
 20 19  1  0  0  0  0
 21 31  1  0  0  0  0
 22 29  1  0  0  0  0
 25 21  1  0  0  0  0
 26 24  2  0  0  0  0
 27 21  2  0  0  0  0
 28 23  2  0  0  0  0
 29 28  1  0  0  0  0
 29 26  1  0  0  0  0
 30 26  1  0  0  0  0
 30  8  1  0  0  0  0
 31 28  1  0  0  0  0
M  END
>  <MODEL>
7

>  <REMARK>
 VINA RESULT:      -7.9      2.225      4.924
  Name = 
  1 active torsions:
  status: ('A' for Active; 'I' for Inactive)
    1  A    between atoms: C_15  and  N_23
                            x       y       z     vdW  Elec       q    Type
                         _______ _______ _______ _____ _____    ______ ____

>  <TORSDO>
F 1

$$$$
=
 OpenBabel11042414043D

 31 34  0  0  0  0  0  0  0  0999 V2000
  185.7790  177.7900  145.1920 C   0  0  0  0  0  0  0  0  0  0  0  0
  189.0780  176.1200  144.4430 C   0  0  0  0  0  0  0  0  0  0  0  0
  189.8920  176.2780  145.6220 C   0  0  0  0  0  0  0  0  0  0  0  0
  190.2690  177.8500  147.5800 C   0  0  0  0  0  2  0  0  0  0  0  0
  187.7370  176.6100  144.3190 C   0  0  0  0  0  0  0  0  0  0  0  0
  185.0940  177.5700  144.0000 C   0  0  0  0  0  3  0  0  0  0  0  0
  189.3230  176.8770  146.8910 C   0  0  0  0  0  2  0  0  0  0  0  0
  188.9060  175.2540  142.1260 C   0  0  0  0  0  0  0  0  0  0  0  0
  185.1510  178.5030  146.2490 N   0  0  0  0  0  1  0  0  0  0  0  0
  191.7250  175.1200  144.4980 C   0  0  0  0  0  3  0  0  0  0  0  0
  191.1820  177.1070  148.5610 C   0  0  0  0  0  2  0  0  0  0  0  0
  187.6050  175.7400  142.0420 C   0  0  0  0  0  3  0  0  0  0  0  0
  189.6420  175.4430  143.3130 C   0  0  0  0  0  0  0  0  0  0  0  0
  187.0810  177.3140  145.3460 C   0  0  0  0  0  3  0  0  0  0  0  0
  191.5920  175.7970  148.0530 N   0  0  0  0  0  2  0  0  0  0  0  0
  187.0210  176.4050  143.1090 C   0  0  0  0  0  0  0  0  0  0  0  0
  185.7130  176.8790  142.9620 C   0  0  0  0  0  3  0  0  0  0  0  0
  190.9480  174.9570  143.3670 C   0  0  0  0  0  3  0  0  0  0  0  0
  191.2220  175.7610  145.6260 C   0  0  0  0  0  0  0  0  0  0  0  0
  192.2090  175.9750  146.7440 C   0  0  0  0  0  2  0  0  0  0  0  0
  189.7940  171.5310  136.6660 C   0  0  0  0  0  0  0  0  0  0  0  0
  190.6390  173.6560  138.6390 O   0  0  0  0  0  1  0  0  0  0  0  0
  190.4000  170.4930  140.1000 O   0  0  0  0  0  0  0  0  0  0  0  0
  189.2060  172.3550  141.6120 O   0  0  0  0  0  0  0  0  0  0  0  0
  190.0920  170.9890  135.3130 C   0  0  0  0  0  1  0  0  0  0  0  0
  189.6020  173.1870  140.7480 C   0  0  0  0  0  0  0  0  0  0  0  0
  189.0410  172.5340  136.7760 O   0  0  0  0  0  0  0  0  0  0  0  0
  190.2680  171.3350  139.1730 C   0  0  0  0  0  0  0  0  0  0  0  0
  190.1230  172.7330  139.4860 N   0  0  0  0  0  0  0  0  0  0  0  0
  189.5210  174.5950  141.0020 N   0  0  0  0  0  2  0  0  0  0  0  0
  190.3260  170.8680  137.8180 N   0  0  0  0  0  2  0  0  0  0  0  0
  1 14  1  0  0  0  0
  1  9  1  0  0  0  0
  2  3  1  0  0  0  0
  3 19  2  0  0  0  0
  3  7  1  0  0  0  0
  4 11  1  0  0  0  0
  5  2  1  0  0  0  0
  5 14  2  0  0  0  0
  6  1  2  0  0  0  0
  7  4  1  0  0  0  0
  8 13  1  0  0  0  0
 10 19  1  0  0  0  0
 12  8  2  0  0  0  0
 12 16  1  0  0  0  0
 13 18  1  0  0  0  0
 13  2  2  0  0  0  0
 15 11  1  0  0  0  0
 16  5  1  0  0  0  0
 17 16  2  0  0  0  0
 17  6  1  0  0  0  0
 18 10  2  0  0  0  0
 19 20  1  0  0  0  0
 20 15  1  0  0  0  0
 21 27  2  0  0  0  0
 21 31  1  0  0  0  0
 22 29  1  0  0  0  0
 25 21  1  0  0  0  0
 26 30  1  0  0  0  0
 26 24  2  0  0  0  0
 28 29  1  0  0  0  0
 28 23  2  0  0  0  0
 29 26  1  0  0  0  0
 30  8  1  0  0  0  0
 31 28  1  0  0  0  0
M  END
>  <MODEL>
8

>  <REMARK>
 VINA RESULT:      -7.8      3.749      5.785
  Name = 
  1 active torsions:
  status: ('A' for Active; 'I' for Inactive)
    1  A    between atoms: C_15  and  N_23
                            x       y       z     vdW  Elec       q    Type
                         _______ _______ _______ _____ _____    ______ ____

>  <TORSDO>
F 1

$$$$
=
 OpenBabel11042414043D

 31 34  0  0  0  0  0  0  0  0999 V2000
  192.2810  170.0350  142.3450 C   0  0  0  0  0  0  0  0  0  0  0  0
  192.6410  173.2370  144.3090 C   0  0  0  0  0  0  0  0  0  0  0  0
  194.0150  173.2980  144.7400 C   0  0  0  0  0  0  0  0  0  0  0  0
  195.9680  171.8020  145.3700 C   0  0  0  0  0  2  0  0  0  0  0  0
  192.0910  172.1720  143.5210 C   0  0  0  0  0  0  0  0  0  0  0  0
  190.9370  170.0930  141.9870 C   0  0  0  0  0  3  0  0  0  0  0  0
  195.0290  172.2770  144.2700 C   0  0  0  0  0  2  0  0  0  0  0  0
  190.4020  174.3020  144.3140 C   0  0  0  0  0  0  0  0  0  0  0  0
  193.0740  168.9260  141.9430 N   0  0  0  0  0  1  0  0  0  0  0  0
  193.5470  175.3990  145.8940 C   0  0  0  0  0  3  0  0  0  0  0  0
  197.1980  172.7120  145.4540 C   0  0  0  0  0  2  0  0  0  0  0  0
  189.9030  173.2540  143.5460 C   0  0  0  0  0  3  0  0  0  0  0  0
  191.7590  174.2960  144.6970 C   0  0  0  0  0  0  0  0  0  0  0  0
  192.8470  171.0620  143.1000 C   0  0  0  0  0  3  0  0  0  0  0  0
  196.8660  174.1170  145.2200 N   0  0  0  0  0  2  0  0  0  0  0  0
  190.7200  172.2060  143.1510 C   0  0  0  0  0  0  0  0  0  0  0  0
  190.1590  171.1760  142.3880 C   0  0  0  0  0  3  0  0  0  0  0  0
  192.2310  175.3520  145.4760 C   0  0  0  0  0  3  0  0  0  0  0  0
  194.4480  174.4010  145.5350 C   0  0  0  0  0  0  0  0  0  0  0  0
  195.8180  174.5120  146.1530 C   0  0  0  0  0  2  0  0  0  0  0  0
  184.9760  177.9920  145.4990 C   0  0  0  0  0  0  0  0  0  0  0  0
  187.8700  177.2450  145.9380 O   0  0  0  0  0  1  0  0  0  0  0  0
  187.2540  178.3560  142.6850 O   0  0  0  0  0  0  0  0  0  0  0  0
  188.7250  176.1180  142.6860 O   0  0  0  0  0  0  0  0  0  0  0  0
  183.8580  178.7800  146.0820 C   0  0  0  0  0  1  0  0  0  0  0  0
  188.6920  176.1990  143.9450 C   0  0  0  0  0  0  0  0  0  0  0  0
  185.2030  176.8320  145.9300 O   0  0  0  0  0  0  0  0  0  0  0  0
  186.9330  178.0020  143.8500 C   0  0  0  0  0  0  0  0  0  0  0  0
  187.7890  177.1130  144.5920 N   0  0  0  0  0  0  0  0  0  0  0  0
  189.5400  175.3700  144.7510 N   0  0  0  0  0  2  0  0  0  0  0  0
  185.7370  178.5500  144.4220 N   0  0  0  0  0  2  0  0  0  0  0  0
  1 14  1  0  0  0  0
  2 13  2  0  0  0  0
  2  3  1  0  0  0  0
  3 19  2  0  0  0  0
  4 11  1  0  0  0  0
  5  2  1  0  0  0  0
  6  1  2  0  0  0  0
  6 17  1  0  0  0  0
  7  3  1  0  0  0  0
  7  4  1  0  0  0  0
  8 13  1  0  0  0  0
  8 30  1  0  0  0  0
  9  1  1  0  0  0  0
 12  8  2  0  0  0  0
 13 18  1  0  0  0  0
 14  5  2  0  0  0  0
 15 11  1  0  0  0  0
 15 20  1  0  0  0  0
 16  5  1  0  0  0  0
 16 12  1  0  0  0  0
 17 16  2  0  0  0  0
 18 10  2  0  0  0  0
 19 10  1  0  0  0  0
 19 20  1  0  0  0  0
 21 27  2  0  0  0  0
 21 25  1  0  0  0  0
 23 28  2  0  0  0  0
 24 26  2  0  0  0  0
 26 29  1  0  0  0  0
 26 30  1  0  0  0  0
 28 31  1  0  0  0  0
 28 29  1  0  0  0  0
 29 22  1  0  0  0  0
 31 21  1  0  0  0  0
M  END
>  <MODEL>
9

>  <REMARK>
 VINA RESULT:      -7.7      3.535      8.665
  Name = 
  1 active torsions:
  status: ('A' for Active; 'I' for Inactive)
    1  A    between atoms: C_15  and  N_23
                            x       y       z     vdW  Elec       q    Type
                         _______ _______ _______ _____ _____    ______ ____

>  <TORSDO>
F 1

$$$$
