=
 OpenBabel11042417003D

 38 42  0  0  1  0  0  0  0  0999 V2000
  190.1900  173.7300  142.1080 C   0  0  0  0  0  0  0  0  0  0  0  0
  191.6850  173.1090  143.8800 N   0  0  0  0  0  0  0  0  0  0  0  0
  188.9150  173.4990  139.5730 C   0  0  0  0  0  3  0  0  0  0  0  0
  192.1220  173.7120  145.0150 C   0  0  0  0  0  3  0  0  0  0  0  0
  189.1830  175.9360  142.3780 C   0  0  0  0  0  0  0  0  0  0  0  0
  190.7340  175.0750  143.9820 C   0  0  0  0  0  0  0  0  0  0  0  0
  189.3270  174.7420  141.6330 C   0  0  0  0  0  0  0  0  0  0  0  0
  190.2700  172.4150  141.3850 C   0  0  0  0  0  2  0  0  0  0  0  0
  189.9000  176.1120  143.5730 C   0  0  0  0  0  3  0  0  0  0  0  0
  190.8540  173.9440  143.2740 N   0  0  0  0  0  0  0  0  0  0  0  0
  190.1140  172.6180  139.8640 C   0  0  1  0  0  3  0  0  0  0  0  0
  191.5260  174.9680  145.0940 C   0  0  0  0  0  0  0  0  0  0  0  0
  188.5870  174.5140  140.3780 C   0  0  0  0  0  3  0  0  0  0  0  0
  191.1440  169.1510  138.7900 C   0  0  0  0  0  2  0  0  0  0  0  0
  191.2180  170.5410  139.4390 C   0  0  0  0  0  2  0  0  0  0  0  0
  189.9120  170.2840  136.8990 C   0  0  0  0  0  2  0  0  0  0  0  0
  190.0080  171.5860  137.7120 C   0  0  0  0  0  2  0  0  0  0  0  0
  190.0120  171.3310  139.1590 N   0  0  0  0  0  0  0  0  0  0  0  0
  189.9990  169.0380  137.7820 C   0  0  0  0  0  2  0  0  0  0  0  0
  190.1620  175.0560  147.6600 O   0  0  0  0  0  0  0  0  0  0  0  0
  191.6830  175.9550  146.1190 N   0  0  0  0  0  2  0  0  0  0  0  0
  190.9900  175.9590  147.3710 C   0  0  0  0  0  0  0  0  0  0  0  0
  191.2530  177.0490  148.3460 C   0  0  0  0  0  1  0  0  0  0  0  0
  187.2740  178.0220  142.1800 C   0  0  1  0  0  3  0  0  0  0  0  0
  188.3120  176.9740  141.9330 N   0  0  0  0  0  0  0  0  0  0  0  0
  186.8200  177.0380  140.1040 O   0  0  0  0  0  1  0  0  0  0  0  0
  187.6910  177.8220  140.8690 C   0  0  1  0  0  3  0  0  0  0  0  0
  185.9600  177.3450  142.5830 C   0  0  0  0  0  2  0  0  0  0  0  0
  183.8670  178.1060  141.6890 O   0  0  0  0  0  1  0  0  0  0  0  0
  184.8080  178.3420  142.6910 C   0  0  1  0  0  3  0  0  0  0  0  0
  184.1340  178.2930  144.0570 C   0  0  0  0  0  2  0  0  0  0  0  0
  185.6050  180.1590  144.3140 O   0  0  0  0  0  1  0  0  0  0  0  0
  184.7370  179.3140  145.0070 C   0  0  2  0  0  3  0  0  0  0  0  0
  184.8680  177.2450  146.7660 O   0  0  0  0  0  0  0  0  0  0  0  0
  185.6550  178.4580  146.3190 P   0  0  2  0  0  0  0  0  0  0  0  0
  185.8550  179.5130  147.6270 O   0  0  0  0  0  1  0  0  0  0  0  0
  187.1680  177.9810  145.7180 O   0  0  0  0  0  0  0  0  0  0  0  0
  187.3250  176.6530  146.1190 C   0  0  0  0  0  1  0  0  0  0  0  0
  1 10  1  0  0  0  0
  2  4  2  0  0  0  0
  3 11  1  0  0  0  0
  3 13  2  0  0  0  0
  4 12  1  0  0  0  0
  5  9  2  0  0  0  0
  6 12  2  0  0  0  0
  7  1  2  0  0  0  0
  7  5  1  0  0  0  0
  8  1  1  0  0  0  0
  9  6  1  0  0  0  0
 10  2  1  0  0  0  0
 10  6  1  0  0  0  0
 11 18  1  6  0  0  0
 11  8  1  0  0  0  0
 12 21  1  0  0  0  0
 13  7  1  0  0  0  0
 14 15  1  0  0  0  0
 16 17  1  0  0  0  0
 16 19  1  0  0  0  0
 17 18  1  0  0  0  0
 18 15  1  0  0  0  0
 19 14  1  0  0  0  0
 21 22  1  0  0  0  0
 22 20  2  0  0  0  0
 22 23  1  0  0  0  0
 24 28  1  6  0  0  0
 25 24  1  0  0  0  0
 25  5  1  0  0  0  0
 27 26  1  6  0  0  0
 27 25  1  0  0  0  0
 27 24  1  0  0  0  0
 28 30  1  0  0  0  0
 30 29  1  6  0  0  0
 30 31  1  0  0  0  0
 31 33  1  0  0  0  0
 33 32  1  6  0  0  0
 33 35  1  0  0  0  0
 35 34  2  1  0  0  0
 35 36  1  0  0  0  0
 37 38  1  0  0  0  0
 37 35  1  0  0  0  0
M  END
>  <MODEL>
1

>  <REMARK>
 VINA RESULT:      -7.0      0.000      0.000
  Name = 
  9 active torsions:
  status: ('A' for Active; 'I' for Inactive)
    1  A    between atoms: C_2  and  C_18
    2  A    between atoms: C_2  and  C_23
    3  A    between atoms: N_7  and  C_36
    4  A    between atoms: O_8  and  P_16
    5  A    between atoms: CA_12  and  C_20
    6  A    between atoms: C_13  and  N_19
    7  A    between atoms: P_16  and  C_18
    8  A    between atoms: C_20  and  C_23
    9  A    between atoms: N_30  and  C_35
                            x       y       z     vdW  Elec       q    Type
                         _______ _______ _______ _____ _____    ______ ____

>  <TORSDO>
F 9

$$$$
=
 OpenBabel11042417003D

 38 42  0  0  1  0  0  0  0  0999 V2000
  188.7300  174.5900  141.2610 C   0  0  0  0  0  0  0  0  0  0  0  0
  188.1020  174.2720  138.9670 N   0  0  0  0  0  0  0  0  0  0  0  0
  188.9070  175.9660  143.7480 C   0  0  0  0  0  3  0  0  0  0  0  0
  188.4260  173.3710  138.0050 C   0  0  0  0  0  3  0  0  0  0  0  0
  190.2900  172.9180  142.1110 C   0  0  0  0  0  0  0  0  0  0  0  0
  189.5180  172.8600  139.8480 C   0  0  0  0  0  0  0  0  0  0  0  0
  189.5030  174.0750  142.3230 C   0  0  0  0  0  0  0  0  0  0  0  0
  187.8080  175.7530  141.5020 C   0  0  0  0  0  2  0  0  0  0  0  0
  190.3040  172.2980  140.8510 C   0  0  0  0  0  3  0  0  0  0  0  0
  188.7690  173.9490  140.0640 N   0  0  0  0  0  0  0  0  0  0  0  0
  188.4150  176.7270  142.5320 C   0  0  1  0  0  3  0  0  0  0  0  0
  189.3300  172.4630  138.5500 C   0  0  0  0  0  0  0  0  0  0  0  0
  189.4550  174.7530  143.6330 C   0  0  0  0  0  3  0  0  0  0  0  0
  186.2350  178.7750  144.8310 C   0  0  0  0  0  2  0  0  0  0  0  0
  187.1780  177.6620  144.3500 C   0  0  0  0  0  2  0  0  0  0  0  0
  185.1160  178.5680  142.5770 C   0  0  0  0  0  2  0  0  0  0  0  0
  186.1820  177.5180  142.2240 C   0  0  0  0  0  2  0  0  0  0  0  0
  187.4550  177.7730  142.9120 N   0  0  0  0  0  0  0  0  0  0  0  0
  185.5840  179.5300  143.6700 C   0  0  0  0  0  2  0  0  0  0  0  0
  191.9140  172.3950  137.2200 O   0  0  0  0  0  0  0  0  0  0  0  0
  189.9410  171.3360  137.9130 N   0  0  0  0  0  2  0  0  0  0  0  0
  191.2190  171.3460  137.2690 C   0  0  0  0  0  0  0  0  0  0  0  0
  191.7330  170.0980  136.6480 C   0  0  0  0  0  1  0  0  0  0  0  0
  191.9180  172.4980  144.3930 C   0  0  1  0  0  3  0  0  0  0  0  0
  191.0760  172.3650  143.1650 N   0  0  0  0  0  0  0  0  0  0  0  0
  192.8070  170.7600  143.1000 O   0  0  0  0  0  1  0  0  0  0  0  0
  191.7350  171.2230  143.8710 C   0  0  1  0  0  3  0  0  0  0  0  0
  193.2320  173.1970  144.0290 C   0  0  0  0  0  2  0  0  0  0  0  0
  192.8520  175.5250  143.5890 O   0  0  0  0  0  1  0  0  0  0  0  0
  193.2900  174.6270  144.5620 C   0  0  1  0  0  3  0  0  0  0  0  0
  192.4680  174.7990  145.8330 C   0  0  0  0  0  2  0  0  0  0  0  0
  193.4980  176.7220  146.8110 O   0  0  0  0  0  1  0  0  0  0  0  0
  192.3260  176.2660  146.2040 C   0  0  2  0  0  3  0  0  0  0  0  0
  189.8890  177.3580  146.7150 O   0  0  0  0  0  0  0  0  0  0  0  0
  190.9360  176.4730  147.3540 P   0  0  2  0  0  0  0  0  0  0  0  0
  191.5020  177.2020  148.7720 O   0  0  0  0  0  1  0  0  0  0  0  0
  190.2750  174.9510  147.7060 O   0  0  0  0  0  0  0  0  0  0  0  0
  188.9420  175.0210  147.2980 C   0  0  0  0  0  1  0  0  0  0  0  0
  1  8  1  0  0  0  0
  1  7  2  0  0  0  0
  2 10  1  0  0  0  0
  4 12  1  0  0  0  0
  4  2  2  0  0  0  0
  5  7  1  0  0  0  0
  5 25  1  0  0  0  0
  6 10  1  0  0  0  0
  6  9  1  0  0  0  0
  7 13  1  0  0  0  0
  9  5  2  0  0  0  0
 10  1  1  0  0  0  0
 11  8  1  6  0  0  0
 11 18  1  0  0  0  0
 11  3  1  0  0  0  0
 12  6  2  0  0  0  0
 13  3  2  0  0  0  0
 15 14  1  0  0  0  0
 16 19  1  0  0  0  0
 17 16  1  0  0  0  0
 17 18  1  0  0  0  0
 18 15  1  0  0  0  0
 19 14  1  0  0  0  0
 20 22  2  0  0  0  0
 21 12  1  0  0  0  0
 22 21  1  0  0  0  0
 23 22  1  0  0  0  0
 24 28  1  6  0  0  0
 25 27  1  0  0  0  0
 25 24  1  0  0  0  0
 27 26  1  6  0  0  0
 27 24  1  0  0  0  0
 28 30  1  0  0  0  0
 30 29  1  6  0  0  0
 30 31  1  0  0  0  0
 31 33  1  0  0  0  0
 33 32  1  1  0  0  0
 33 35  1  0  0  0  0
 35 34  2  6  0  0  0
 35 37  1  0  0  0  0
 35 36  1  0  0  0  0
 38 37  1  0  0  0  0
M  END
>  <MODEL>
2

>  <REMARK>
 VINA RESULT:      -7.0      2.908      7.858
  Name = 
  9 active torsions:
  status: ('A' for Active; 'I' for Inactive)
    1  A    between atoms: C_2  and  C_18
    2  A    between atoms: C_2  and  C_23
    3  A    between atoms: N_7  and  C_36
    4  A    between atoms: O_8  and  P_16
    5  A    between atoms: CA_12  and  C_20
    6  A    between atoms: C_13  and  N_19
    7  A    between atoms: P_16  and  C_18
    8  A    between atoms: C_20  and  C_23
    9  A    between atoms: N_30  and  C_35
                            x       y       z     vdW  Elec       q    Type
                         _______ _______ _______ _____ _____    ______ ____

>  <TORSDO>
F 9

$$$$
=
 OpenBabel11042417003D

 38 42  0  0  1  0  0  0  0  0999 V2000
  188.3520  174.9040  140.7810 C   0  0  0  0  0  0  0  0  0  0  0  0
  187.0540  176.8390  140.2080 N   0  0  0  0  0  0  0  0  0  0  0  0
  189.5320  172.3440  140.3780 C   0  0  0  0  0  3  0  0  0  0  0  0
  186.5800  177.9090  140.8970 C   0  0  0  0  0  3  0  0  0  0  0  0
  189.0140  174.8040  143.1280 C   0  0  0  0  0  0  0  0  0  0  0  0
  187.6900  176.6100  142.2860 C   0  0  0  0  0  0  0  0  0  0  0  0
  189.0240  174.2400  141.8300 C   0  0  0  0  0  0  0  0  0  0  0  0
  188.4450  174.3730  139.3780 C   0  0  0  0  0  2  0  0  0  0  0  0
  188.3330  176.0090  143.3660 C   0  0  0  0  0  3  0  0  0  0  0  0
  187.7170  176.0720  141.0600 N   0  0  0  0  0  0  0  0  0  0  0  0
  188.5000  172.8320  139.3800 C   0  0  1  0  0  3  0  0  0  0  0  0
  186.9760  177.7770  142.2250 C   0  0  0  0  0  0  0  0  0  0  0  0
  189.7330  172.9800  141.5350 C   0  0  0  0  0  3  0  0  0  0  0  0
  189.9850  170.5370  136.7810 C   0  0  0  0  0  2  0  0  0  0  0  0
  189.7160  171.1860  138.1460 C   0  0  0  0  0  2  0  0  0  0  0  0
  189.7710  172.8630  135.8220 C   0  0  0  0  0  2  0  0  0  0  0  0
  189.4440  173.3420  137.2450 C   0  0  0  0  0  2  0  0  0  0  0  0
  188.7690  172.3030  138.0350 N   0  0  0  0  0  0  0  0  0  0  0  0
  189.4550  171.3800  135.6190 C   0  0  0  0  0  2  0  0  0  0  0  0
  184.8630  177.5370  144.2080 O   0  0  0  0  0  0  0  0  0  0  0  0
  186.7130  178.6660  143.3160 N   0  0  0  0  0  2  0  0  0  0  0  0
  185.6600  178.5090  144.2720 C   0  0  0  0  0  0  0  0  0  0  0  0
  185.5050  179.5120  145.3580 C   0  0  0  0  0  1  0  0  0  0  0  0
  190.9230  173.8710  145.0040 C   0  0  1  0  0  3  0  0  0  0  0  0
  189.6920  174.1650  144.2080 N   0  0  0  0  0  0  0  0  0  0  0  0
  189.6280  171.9200  144.9380 O   0  0  0  0  0  1  0  0  0  0  0  0
  189.7420  173.2420  145.3830 C   0  0  1  0  0  3  0  0  0  0  0  0
  191.8880  173.0410  144.1500 C   0  0  0  0  0  2  0  0  0  0  0  0
  194.2540  172.7020  143.9400 O   0  0  0  0  0  1  0  0  0  0  0  0
  193.2130  172.7850  144.8650 C   0  0  1  0  0  3  0  0  0  0  0  0
  193.5240  173.8610  145.8980 C   0  0  0  0  0  2  0  0  0  0  0  0
  195.6700  174.8860  146.1380 O   0  0  0  0  0  1  0  0  0  0  0  0
  194.5150  174.8780  145.3550 C   0  0  2  0  0  3  0  0  0  0  0  0
  194.8510  177.5680  145.5600 O   0  0  0  0  0  0  0  0  0  0  0  0
  193.7640  176.5310  145.3780 P   0  0  2  0  0  0  0  0  0  0  0  0
  192.6770  176.6220  146.6720 O   0  0  0  0  0  1  0  0  0  0  0  0
  192.9490  176.7920  143.9130 O   0  0  0  0  0  0  0  0  0  0  0  0
  191.7470  177.4090  144.2620 C   0  0  0  0  0  1  0  0  0  0  0  0
  1 10  1  0  0  0  0
  1  7  2  0  0  0  0
  2  4  2  0  0  0  0
  2 10  1  0  0  0  0
  3 13  2  0  0  0  0
  4 12  1  0  0  0  0
  5  9  2  0  0  0  0
  5 25  1  0  0  0  0
  6  9  1  0  0  0  0
  7  5  1  0  0  0  0
  8 11  1  0  0  0  0
  8  1  1  0  0  0  0
 10  6  1  0  0  0  0
 11 18  1  6  0  0  0
 11  3  1  0  0  0  0
 12  6  2  0  0  0  0
 12 21  1  0  0  0  0
 13  7  1  0  0  0  0
 14 15  1  0  0  0  0
 16 17  1  0  0  0  0
 17 18  1  0  0  0  0
 18 15  1  0  0  0  0
 19 16  1  0  0  0  0
 19 14  1  0  0  0  0
 20 22  2  0  0  0  0
 21 22  1  0  0  0  0
 22 23  1  0  0  0  0
 24 28  1  6  0  0  0
 24 27  1  0  0  0  0
 25 24  1  0  0  0  0
 25 27  1  0  0  0  0
 27 26  1  6  0  0  0
 28 30  1  0  0  0  0
 30 29  1  6  0  0  0
 30 31  1  0  0  0  0
 33 35  1  0  0  0  0
 33 31  1  0  0  0  0
 33 32  1  1  0  0  0
 35 34  2  1  0  0  0
 35 36  1  0  0  0  0
 37 38  1  0  0  0  0
 37 35  1  0  0  0  0
M  END
>  <MODEL>
3

>  <REMARK>
 VINA RESULT:      -7.0      2.824      6.371
  Name = 
  9 active torsions:
  status: ('A' for Active; 'I' for Inactive)
    1  A    between atoms: C_2  and  C_18
    2  A    between atoms: C_2  and  C_23
    3  A    between atoms: N_7  and  C_36
    4  A    between atoms: O_8  and  P_16
    5  A    between atoms: CA_12  and  C_20
    6  A    between atoms: C_13  and  N_19
    7  A    between atoms: P_16  and  C_18
    8  A    between atoms: C_20  and  C_23
    9  A    between atoms: N_30  and  C_35
                            x       y       z     vdW  Elec       q    Type
                         _______ _______ _______ _____ _____    ______ ____

>  <TORSDO>
F 9

$$$$
=
 OpenBabel11042417003D

 38 42  0  0  1  0  0  0  0  0999 V2000
  189.2600  175.8320  143.3710 C   0  0  0  0  0  0  0  0  0  0  0  0
  188.3950  174.5020  141.5700 N   0  0  0  0  0  0  0  0  0  0  0  0
  189.1700  177.7650  145.4600 C   0  0  0  0  0  3  0  0  0  0  0  0
  188.9480  173.7000  140.6260 C   0  0  0  0  0  3  0  0  0  0  0  0
  191.6860  175.7320  143.6110 C   0  0  0  0  0  0  0  0  0  0  0  0
  190.5580  174.5260  141.8810 C   0  0  0  0  0  0  0  0  0  0  0  0
  190.4340  176.2240  144.0500 C   0  0  0  0  0  0  0  0  0  0  0  0
  187.9160  176.2610  143.8910 C   0  0  0  0  0  2  0  0  0  0  0  0
  191.7550  174.8700  142.5050 C   0  0  0  0  0  3  0  0  0  0  0  0
  189.3780  174.9890  142.3120 N   0  0  0  0  0  0  0  0  0  0  0  0
  187.9940  177.6720  144.5070 C   0  0  1  0  0  3  0  0  0  0  0  0
  190.3280  173.7050  140.8090 C   0  0  0  0  0  0  0  0  0  0  0  0
  190.3170  177.1260  145.2120 C   0  0  0  0  0  3  0  0  0  0  0  0
  184.8100  177.1250  146.4560 C   0  0  0  0  0  2  0  0  0  0  0  0
  186.0960  176.8110  145.6770 C   0  0  0  0  0  2  0  0  0  0  0  0
  184.4710  179.0060  144.8060 C   0  0  0  0  0  2  0  0  0  0  0  0
  185.8190  178.6080  144.1840 C   0  0  0  0  0  2  0  0  0  0  0  0
  186.7370  178.0350  145.1780 N   0  0  0  0  0  0  0  0  0  0  0  0
  184.3540  178.5730  146.2680 C   0  0  0  0  0  2  0  0  0  0  0  0
  191.4910  171.1160  141.4410 O   0  0  0  0  0  0  0  0  0  0  0  0
  191.3200  172.9990  140.0550 N   0  0  0  0  0  2  0  0  0  0  0  0
  191.8650  171.7230  140.4030 C   0  0  0  0  0  0  0  0  0  0  0  0
  192.8920  171.1030  139.5260 C   0  0  0  0  0  1  0  0  0  0  0  0
  194.3820  176.1870  144.3610 C   0  0  1  0  0  3  0  0  0  0  0  0
  192.8910  176.0980  144.2810 N   0  0  0  0  0  0  0  0  0  0  0  0
  193.5740  175.7280  146.5100 O   0  0  0  0  0  1  0  0  0  0  0  0
  193.6480  176.6390  145.4520 C   0  0  1  0  0  3  0  0  0  0  0  0
  194.9640  174.7740  144.4760 C   0  0  0  0  0  2  0  0  0  0  0  0
  196.9390  174.0850  145.6530 O   0  0  0  0  0  1  0  0  0  0  0  0
  196.4900  174.7850  144.5330 C   0  0  1  0  0  3  0  0  0  0  0  0
  197.1150  174.1990  143.2730 C   0  0  0  0  0  2  0  0  0  0  0  0
  197.9300  176.4430  143.1590 O   0  0  0  0  0  1  0  0  0  0  0  0
  197.7320  175.2840  142.4060 C   0  0  2  0  0  3  0  0  0  0  0  0
  195.9740  177.0020  141.2440 O   0  0  0  0  0  1  0  0  0  0  0  0
  196.6260  175.6560  141.0150 P   0  0  2  0  0  0  0  0  0  0  0  0
  195.4330  174.4590  140.9280 O   0  0  0  0  0  0  0  0  0  0  0  0
  197.5290  175.6830  139.5790 O   0  0  0  0  0  0  0  0  0  0  0  0
  196.8290  174.8720  138.6840 C   0  0  0  0  0  1  0  0  0  0  0  0
  1  8  1  0  0  0  0
  1  7  2  0  0  0  0
  2 10  1  0  0  0  0
  4 12  1  0  0  0  0
  4  2  2  0  0  0  0
  5  7  1  0  0  0  0
  5 25  1  0  0  0  0
  6 10  1  0  0  0  0
  6  9  1  0  0  0  0
  7 13  1  0  0  0  0
  9  5  2  0  0  0  0
 10  1  1  0  0  0  0
 11  8  1  1  0  0  0
 11 18  1  0  0  0  0
 11  3  1  0  0  0  0
 12  6  2  0  0  0  0
 13  3  2  0  0  0  0
 15 14  1  0  0  0  0
 16 19  1  0  0  0  0
 17 16  1  0  0  0  0
 17 18  1  0  0  0  0
 18 15  1  0  0  0  0
 19 14  1  0  0  0  0
 21 22  1  0  0  0  0
 21 12  1  0  0  0  0
 22 20  2  0  0  0  0
 23 22  1  0  0  0  0
 24 28  1  1  0  0  0
 24 27  1  0  0  0  0
 25 24  1  0  0  0  0
 25 27  1  0  0  0  0
 27 26  1  1  0  0  0
 28 30  1  0  0  0  0
 30 29  1  1  0  0  0
 31 30  1  0  0  0  0
 33 32  1  1  0  0  0
 33 31  1  0  0  0  0
 35 36  2  6  0  0  0
 35 34  1  0  0  0  0
 35 33  1  0  0  0  0
 37 35  1  0  0  0  0
 38 37  1  0  0  0  0
M  END
>  <MODEL>
4

>  <REMARK>
 VINA RESULT:      -6.9      4.800      9.435
  Name = 
  9 active torsions:
  status: ('A' for Active; 'I' for Inactive)
    1  A    between atoms: C_2  and  C_18
    2  A    between atoms: C_2  and  C_23
    3  A    between atoms: N_7  and  C_36
    4  A    between atoms: O_8  and  P_16
    5  A    between atoms: CA_12  and  C_20
    6  A    between atoms: C_13  and  N_19
    7  A    between atoms: P_16  and  C_18
    8  A    between atoms: C_20  and  C_23
    9  A    between atoms: N_30  and  C_35
                            x       y       z     vdW  Elec       q    Type
                         _______ _______ _______ _____ _____    ______ ____

>  <TORSDO>
F 9

$$$$
=
 OpenBabel11042417003D

 38 42  0  0  1  0  0  0  0  0999 V2000
  189.6600  176.2880  143.4310 C   0  0  0  0  0  0  0  0  0  0  0  0
  191.5210  177.2120  144.6310 N   0  0  0  0  0  0  0  0  0  0  0  0
  186.9150  175.7840  142.8640 C   0  0  0  0  0  3  0  0  0  0  0  0
  192.8640  177.0190  144.6060 C   0  0  0  0  0  3  0  0  0  0  0  0
  190.2780  174.6300  141.7510 C   0  0  0  0  0  0  0  0  0  0  0  0
  191.9310  175.6930  143.1150 C   0  0  0  0  0  0  0  0  0  0  0  0
  189.2810  175.3810  142.4180 C   0  0  0  0  0  0  0  0  0  0  0  0
  188.6240  177.1690  144.0720 C   0  0  0  0  0  2  0  0  0  0  0  0
  191.6290  174.7820  142.1050 C   0  0  0  0  0  3  0  0  0  0  0  0
  190.9800  176.4070  143.7300 N   0  0  0  0  0  0  0  0  0  0  0  0
  187.2750  176.4310  144.1870 C   0  0  1  0  0  3  0  0  0  0  0  0
  193.1430  176.0510  143.6440 C   0  0  0  0  0  0  0  0  0  0  0  0
  187.8530  175.2560  142.0720 C   0  0  0  0  0  3  0  0  0  0  0  0
  185.1440  179.5430  144.2550 C   0  0  0  0  0  2  0  0  0  0  0  0
  186.2800  178.5810  143.8770 C   0  0  0  0  0  2  0  0  0  0  0  0
  185.3920  178.6450  146.6020 C   0  0  0  0  0  2  0  0  0  0  0  0
  186.4640  177.6920  146.0470 C   0  0  0  0  0  2  0  0  0  0  0  0
  186.2080  177.3320  144.6460 N   0  0  0  0  0  0  0  0  0  0  0  0
  184.4100  179.1080  145.5250 C   0  0  0  0  0  2  0  0  0  0  0  0
  194.6740  176.7420  141.2710 O   0  0  0  0  0  0  0  0  0  0  0  0
  194.4200  175.5300  143.2620 N   0  0  0  0  0  2  0  0  0  0  0  0
  195.1410  175.9000  142.0820 C   0  0  0  0  0  0  0  0  0  0  0  0
  196.4630  175.2790  141.8090 C   0  0  0  0  0  1  0  0  0  0  0  0
  189.5550  172.3490  140.2320 C   0  0  1  0  0  3  0  0  0  0  0  0
  189.9330  173.7120  140.7150 N   0  0  0  0  0  0  0  0  0  0  0  0
  190.9470  173.3220  138.6190 O   0  0  0  0  0  1  0  0  0  0  0  0
  189.7150  173.3500  139.2810 C   0  0  1  0  0  3  0  0  0  0  0  0
  190.7440  171.4010  140.4220 C   0  0  0  0  0  2  0  0  0  0  0  0
  190.5810  169.4930  141.8690 O   0  0  0  0  0  1  0  0  0  0  0  0
  190.8300  170.8650  141.8500 C   0  0  1  0  0  3  0  0  0  0  0  0
  192.1820  171.1550  142.4900 C   0  0  0  0  0  2  0  0  0  0  0  0
  191.0110  172.0630  144.3650 O   0  0  0  0  0  1  0  0  0  0  0  0
  192.0710  171.2300  144.0040 C   0  0  2  0  0  3  0  0  0  0  0  0
  193.3110  173.1550  145.4700 O   0  0  0  0  0  1  0  0  0  0  0  0
  193.6140  171.8910  144.6970 P   0  0  2  0  0  0  0  0  0  0  0  0
  194.6760  172.2470  143.4280 O   0  0  0  0  0  0  0  0  0  0  0  0
  194.3030  170.7310  145.7250 O   0  0  0  0  0  0  0  0  0  0  0  0
  195.6690  170.7420  145.4350 C   0  0  0  0  0  1  0  0  0  0  0  0
  1 10  1  0  0  0  0
  1  8  1  0  0  0  0
  4  2  2  0  0  0  0
  5  9  2  0  0  0  0
  5  7  1  0  0  0  0
  6 12  2  0  0  0  0
  6 10  1  0  0  0  0
  7  1  2  0  0  0  0
  8 11  1  0  0  0  0
  9  6  1  0  0  0  0
 10  2  1  0  0  0  0
 11  3  1  6  0  0  0
 11 18  1  0  0  0  0
 12  4  1  0  0  0  0
 13  7  1  0  0  0  0
 13  3  2  0  0  0  0
 14 19  1  0  0  0  0
 15 14  1  0  0  0  0
 15 18  1  0  0  0  0
 17 16  1  0  0  0  0
 18 17  1  0  0  0  0
 19 16  1  0  0  0  0
 20 22  2  0  0  0  0
 21 12  1  0  0  0  0
 22 21  1  0  0  0  0
 23 22  1  0  0  0  0
 24 28  1  6  0  0  0
 24 25  1  0  0  0  0
 25  5  1  0  0  0  0
 27 26  1  6  0  0  0
 27 24  1  0  0  0  0
 27 25  1  0  0  0  0
 28 30  1  0  0  0  0
 30 29  1  6  0  0  0
 30 31  1  0  0  0  0
 31 33  1  0  0  0  0
 33 32  1  6  0  0  0
 33 35  1  0  0  0  0
 35 36  2  6  0  0  0
 35 34  1  0  0  0  0
 35 37  1  0  0  0  0
 38 37  1  0  0  0  0
M  END
>  <MODEL>
5

>  <REMARK>
 VINA RESULT:      -6.9      4.329      8.108
  Name = 
  9 active torsions:
  status: ('A' for Active; 'I' for Inactive)
    1  A    between atoms: C_2  and  C_18
    2  A    between atoms: C_2  and  C_23
    3  A    between atoms: N_7  and  C_36
    4  A    between atoms: O_8  and  P_16
    5  A    between atoms: CA_12  and  C_20
    6  A    between atoms: C_13  and  N_19
    7  A    between atoms: P_16  and  C_18
    8  A    between atoms: C_20  and  C_23
    9  A    between atoms: N_30  and  C_35
                            x       y       z     vdW  Elec       q    Type
                         _______ _______ _______ _____ _____    ______ ____

>  <TORSDO>
F 9

$$$$
=
 OpenBabel11042417003D

 38 42  0  0  1  0  0  0  0  0999 V2000
  188.9570  174.8740  142.5240 C   0  0  0  0  0  0  0  0  0  0  0  0
  188.0690  174.9500  140.2960 N   0  0  0  0  0  0  0  0  0  0  0  0
  189.3380  175.7420  145.2100 C   0  0  0  0  0  3  0  0  0  0  0  0
  188.3400  174.2970  139.1380 C   0  0  0  0  0  3  0  0  0  0  0  0
  190.7480  173.2450  142.8310 C   0  0  0  0  0  0  0  0  0  0  0  0
  189.6990  173.5530  140.7030 C   0  0  0  0  0  0  0  0  0  0  0  0
  189.9010  174.2460  143.3650 C   0  0  0  0  0  0  0  0  0  0  0  0
  187.9810  175.8610  143.1020 C   0  0  0  0  0  2  0  0  0  0  0  0
  190.6510  172.8920  141.4750 C   0  0  0  0  0  3  0  0  0  0  0  0
  188.8960  174.4900  141.2220 N   0  0  0  0  0  0  0  0  0  0  0  0
  188.6320  176.6710  144.2410 C   0  0  1  0  0  3  0  0  0  0  0  0
  189.3800  173.4020  139.3800 C   0  0  0  0  0  0  0  0  0  0  0  0
  189.9660  174.6420  144.7840 C   0  0  0  0  0  3  0  0  0  0  0  0
  185.6610  177.4580  146.4280 C   0  0  0  0  0  2  0  0  0  0  0  0
  186.6810  176.6420  145.6200 C   0  0  0  0  0  2  0  0  0  0  0  0
  185.8160  179.1680  144.5770 C   0  0  0  0  0  2  0  0  0  0  0  0
  186.8810  178.2670  143.9310 C   0  0  0  0  0  2  0  0  0  0  0  0
  187.6450  177.5120  144.9340 N   0  0  0  0  0  0  0  0  0  0  0  0
  185.7040  178.9490  146.0860 C   0  0  0  0  0  2  0  0  0  0  0  0
  191.7350  173.8980  137.7490 O   0  0  0  0  0  0  0  0  0  0  0  0
  189.9950  172.4960  138.4580 N   0  0  0  0  0  2  0  0  0  0  0  0
  191.1580  172.7810  137.6750 C   0  0  0  0  0  0  0  0  0  0  0  0
  191.6920  171.7420  136.7570 C   0  0  0  0  0  1  0  0  0  0  0  0
  192.9180  172.5820  144.5300 C   0  0  1  0  0  3  0  0  0  0  0  0
  191.7060  172.5820  143.6540 N   0  0  0  0  0  0  0  0  0  0  0  0
  192.9400  170.6060  143.2740 O   0  0  0  0  0  1  0  0  0  0  0  0
  192.3090  171.3600  144.2690 C   0  0  1  0  0  3  0  0  0  0  0  0
  194.1510  172.9180  143.6840 C   0  0  0  0  0  2  0  0  0  0  0  0
  196.5500  172.9480  143.7160 O   0  0  0  0  0  1  0  0  0  0  0  0
  195.4190  173.0150  144.5290 C   0  0  1  0  0  3  0  0  0  0  0  0
  195.4560  174.2910  145.3620 C   0  0  0  0  0  2  0  0  0  0  0  0
  196.1190  176.2960  144.2430 O   0  0  0  0  0  1  0  0  0  0  0  0
  195.0160  175.4960  144.5470 C   0  0  2  0  0  3  0  0  0  0  0  0
  194.5430  177.5530  146.2610 O   0  0  0  0  0  0  0  0  0  0  0  0
  193.8140  176.4690  145.4980 P   0  0  2  0  0  0  0  0  0  0  0  0
  193.0220  175.4470  146.5900 O   0  0  0  0  0  1  0  0  0  0  0  0
  192.6920  177.1620  144.4310 O   0  0  0  0  0  0  0  0  0  0  0  0
  192.7970  176.4250  143.2500 C   0  0  0  0  0  1  0  0  0  0  0  0
  1  8  1  0  0  0  0
  1  7  2  0  0  0  0
  2 10  1  0  0  0  0
  4 12  1  0  0  0  0
  4  2  2  0  0  0  0
  5  7  1  0  0  0  0
  5 25  1  0  0  0  0
  6 10  1  0  0  0  0
  6  9  1  0  0  0  0
  7 13  1  0  0  0  0
  9  5  2  0  0  0  0
 10  1  1  0  0  0  0
 11  8  1  6  0  0  0
 11 18  1  0  0  0  0
 11  3  1  0  0  0  0
 12  6  2  0  0  0  0
 13  3  2  0  0  0  0
 15 14  1  0  0  0  0
 16 19  1  0  0  0  0
 17 16  1  0  0  0  0
 17 18  1  0  0  0  0
 18 15  1  0  0  0  0
 19 14  1  0  0  0  0
 21 12  1  0  0  0  0
 22 20  2  0  0  0  0
 22 21  1  0  0  0  0
 23 22  1  0  0  0  0
 24 28  1  6  0  0  0
 25 27  1  0  0  0  0
 25 24  1  0  0  0  0
 27 26  1  6  0  0  0
 27 24  1  0  0  0  0
 28 30  1  0  0  0  0
 30 29  1  6  0  0  0
 30 31  1  0  0  0  0
 33 32  1  1  0  0  0
 33 31  1  0  0  0  0
 33 35  1  0  0  0  0
 35 34  2  1  0  0  0
 35 36  1  0  0  0  0
 37 35  1  0  0  0  0
 38 37  1  0  0  0  0
M  END
>  <MODEL>
6

>  <REMARK>
 VINA RESULT:      -6.7      3.841      8.706
  Name = 
  9 active torsions:
  status: ('A' for Active; 'I' for Inactive)
    1  A    between atoms: C_2  and  C_18
    2  A    between atoms: C_2  and  C_23
    3  A    between atoms: N_7  and  C_36
    4  A    between atoms: O_8  and  P_16
    5  A    between atoms: CA_12  and  C_20
    6  A    between atoms: C_13  and  N_19
    7  A    between atoms: P_16  and  C_18
    8  A    between atoms: C_20  and  C_23
    9  A    between atoms: N_30  and  C_35
                            x       y       z     vdW  Elec       q    Type
                         _______ _______ _______ _____ _____    ______ ____

>  <TORSDO>
F 9

$$$$
=
 OpenBabel11042417003D

 38 42  0  0  1  0  0  0  0  0999 V2000
  188.3500  174.8960  140.7360 C   0  0  0  0  0  0  0  0  0  0  0  0
  186.9760  176.6740  139.8930 N   0  0  0  0  0  0  0  0  0  0  0  0
  189.6530  172.3650  140.6930 C   0  0  0  0  0  3  0  0  0  0  0  0
  186.4400  177.8010  140.4260 C   0  0  0  0  0  3  0  0  0  0  0  0
  188.9690  175.1400  143.0830 C   0  0  0  0  0  0  0  0  0  0  0  0
  187.5810  176.7530  141.9910 C   0  0  0  0  0  0  0  0  0  0  0  0
  189.0310  174.4100  141.8720 C   0  0  0  0  0  0  0  0  0  0  0  0
  188.4940  174.1890  139.4170 C   0  0  0  0  0  2  0  0  0  0  0  0
  188.2290  176.3320  143.1490 C   0  0  0  0  0  3  0  0  0  0  0  0
  187.6560  176.0590  140.8480 N   0  0  0  0  0  0  0  0  0  0  0  0
  188.6190  172.6660  139.6250 C   0  0  1  0  0  3  0  0  0  0  0  0
  186.8150  177.8660  141.7660 C   0  0  0  0  0  0  0  0  0  0  0  0
  189.8020  173.1570  141.7580 C   0  0  0  0  0  3  0  0  0  0  0  0
  190.3430  170.1950  137.3560 C   0  0  0  0  0  2  0  0  0  0  0  0
  190.0100  171.0050  138.6170 C   0  0  0  0  0  2  0  0  0  0  0  0
  189.8510  172.3120  136.0710 C   0  0  0  0  0  2  0  0  0  0  0  0
  189.4810  172.9580  137.4160 C   0  0  0  0  0  2  0  0  0  0  0  0
  188.9380  171.9770  138.3660 N   0  0  0  0  0  0  0  0  0  0  0  0
  189.7090  170.7900  136.0970 C   0  0  0  0  0  2  0  0  0  0  0  0
  184.4930  177.9410  143.5140 O   0  0  0  0  0  0  0  0  0  0  0  0
  186.4910  178.8790  142.7240 N   0  0  0  0  0  2  0  0  0  0  0  0
  185.3350  178.8750  143.5670 C   0  0  0  0  0  0  0  0  0  0  0  0
  185.1240  179.9940  144.5220 C   0  0  0  0  0  1  0  0  0  0  0  0
  190.7970  174.7320  145.2110 C   0  0  1  0  0  3  0  0  0  0  0  0
  189.6540  174.6830  144.2480 N   0  0  0  0  0  0  0  0  0  0  0  0
  190.1690  172.4900  144.9560 O   0  0  0  0  0  1  0  0  0  0  0  0
  189.8200  173.7640  145.4160 C   0  0  1  0  0  3  0  0  0  0  0  0
  192.0730  174.2650  144.5030 C   0  0  0  0  0  2  0  0  0  0  0  0
  192.7080  176.5300  144.0240 O   0  0  0  0  0  1  0  0  0  0  0  0
  192.5460  175.2680  143.4520 C   0  0  1  0  0  3  0  0  0  0  0  0
  193.8450  174.8300  142.7860 C   0  0  0  0  0  2  0  0  0  0  0  0
  194.8740  176.2070  141.1250 O   0  0  0  0  0  1  0  0  0  0  0  0
  194.7480  176.0200  142.5020 C   0  0  2  0  0  3  0  0  0  0  0  0
  197.1760  177.0170  143.2110 O   0  0  0  0  0  1  0  0  0  0  0  0
  196.3890  175.7250  143.2200 P   0  0  2  0  0  0  0  0  0  0  0  0
  197.1960  174.5680  142.2850 O   0  0  0  0  0  0  0  0  0  0  0  0
  196.2080  175.1650  144.8110 O   0  0  0  0  0  0  0  0  0  0  0  0
  197.1710  174.1660  144.9650 C   0  0  0  0  0  1  0  0  0  0  0  0
  1 10  1  0  0  0  0
  1  7  2  0  0  0  0
  2  4  2  0  0  0  0
  2 10  1  0  0  0  0
  3 13  2  0  0  0  0
  4 12  1  0  0  0  0
  5  9  2  0  0  0  0
  5 25  1  0  0  0  0
  6  9  1  0  0  0  0
  7  5  1  0  0  0  0
  8 11  1  0  0  0  0
  8  1  1  0  0  0  0
 10  6  1  0  0  0  0
 11 18  1  6  0  0  0
 11  3  1  0  0  0  0
 12  6  2  0  0  0  0
 12 21  1  0  0  0  0
 13  7  1  0  0  0  0
 14 15  1  0  0  0  0
 16 19  1  0  0  0  0
 16 17  1  0  0  0  0
 17 18  1  0  0  0  0
 18 15  1  0  0  0  0
 19 14  1  0  0  0  0
 20 22  2  0  0  0  0
 21 22  1  0  0  0  0
 22 23  1  0  0  0  0
 24 28  1  6  0  0  0
 24 27  1  0  0  0  0
 25 24  1  0  0  0  0
 25 27  1  0  0  0  0
 27 26  1  6  0  0  0
 30 29  1  1  0  0  0
 30 28  1  0  0  0  0
 31 30  1  0  0  0  0
 33 32  1  6  0  0  0
 33 31  1  0  0  0  0
 33 35  1  0  0  0  0
 34 35  1  0  0  0  0
 35 36  2  6  0  0  0
 35 37  1  0  0  0  0
 37 38  1  0  0  0  0
M  END
>  <MODEL>
7

>  <REMARK>
 VINA RESULT:      -6.7      3.763      6.943
  Name = 
  9 active torsions:
  status: ('A' for Active; 'I' for Inactive)
    1  A    between atoms: C_2  and  C_18
    2  A    between atoms: C_2  and  C_23
    3  A    between atoms: N_7  and  C_36
    4  A    between atoms: O_8  and  P_16
    5  A    between atoms: CA_12  and  C_20
    6  A    between atoms: C_13  and  N_19
    7  A    between atoms: P_16  and  C_18
    8  A    between atoms: C_20  and  C_23
    9  A    between atoms: N_30  and  C_35
                            x       y       z     vdW  Elec       q    Type
                         _______ _______ _______ _____ _____    ______ ____

>  <TORSDO>
F 9

$$$$
=
 OpenBabel11042417003D

 38 42  0  0  1  0  0  0  0  0999 V2000
  188.5240  175.4770  142.3230 C   0  0  0  0  0  0  0  0  0  0  0  0
  186.3600  176.4700  142.0270 N   0  0  0  0  0  0  0  0  0  0  0  0
  190.7120  173.7640  141.7020 C   0  0  0  0  0  3  0  0  0  0  0  0
  185.5590  177.2580  142.7890 C   0  0  0  0  0  3  0  0  0  0  0  0
  189.5770  175.9930  144.4620 C   0  0  0  0  0  0  0  0  0  0  0  0
  187.4040  176.8290  143.9130 C   0  0  0  0  0  0  0  0  0  0  0  0
  189.6200  175.3480  143.2030 C   0  0  0  0  0  0  0  0  0  0  0  0
  188.6010  174.8870  140.9420 C   0  0  0  0  0  2  0  0  0  0  0  0
  188.4490  176.7460  144.8300 C   0  0  0  0  0  3  0  0  0  0  0  0
  187.4610  176.2240  142.7200 N   0  0  0  0  0  0  0  0  0  0  0  0
  189.4070  173.5730  140.9540 C   0  0  1  0  0  3  0  0  0  0  0  0
  186.2100  177.4960  143.9970 C   0  0  0  0  0  0  0  0  0  0  0  0
  190.7880  174.5550  142.7760 C   0  0  0  0  0  3  0  0  0  0  0  0
  191.3650  172.8270  137.8170 C   0  0  0  0  0  2  0  0  0  0  0  0
  191.0270  173.3850  139.2070 C   0  0  0  0  0  2  0  0  0  0  0  0
  188.9740  173.3620  137.2060 C   0  0  0  0  0  2  0  0  0  0  0  0
  188.7800  173.8180  138.6610 C   0  0  0  0  0  2  0  0  0  0  0  0
  189.6430  173.0760  139.5900 N   0  0  0  0  0  0  0  0  0  0  0  0
  190.1210  172.3620  137.0570 C   0  0  0  0  0  2  0  0  0  0  0  0
  185.0920  176.5070  146.4920 O   0  0  0  0  0  0  0  0  0  0  0  0
  185.7540  178.2780  145.1060 N   0  0  0  0  0  2  0  0  0  0  0  0
  185.2100  177.7490  146.3190 C   0  0  0  0  0  0  0  0  0  0  0  0
  184.7760  178.6810  147.3920 C   0  0  0  0  0  1  0  0  0  0  0  0
  191.9150  176.4310  146.0050 C   0  0  1  0  0  3  0  0  0  0  0  0
  190.6710  175.8940  145.3720 N   0  0  0  0  0  0  0  0  0  0  0  0
  192.1750  174.1160  145.7650 O   0  0  0  0  0  1  0  0  0  0  0  0
  191.4900  175.1640  146.3890 C   0  0  1  0  0  3  0  0  0  0  0  0
  193.0310  176.4820  144.9560 C   0  0  0  0  0  2  0  0  0  0  0  0
  194.2300  177.1960  146.9080 O   0  0  0  0  0  1  0  0  0  0  0  0
  194.3860  176.8170  145.5750 C   0  0  1  0  0  3  0  0  0  0  0  0
  195.3650  175.6540  145.4790 C   0  0  0  0  0  2  0  0  0  0  0  0
  195.1960  173.5790  144.3040 O   0  0  0  0  0  1  0  0  0  0  0  0
  195.2700  174.9620  144.1290 C   0  0  2  0  0  3  0  0  0  0  0  0
  197.9410  174.6630  143.7210 O   0  0  0  0  0  1  0  0  0  0  0  0
  196.7350  175.3630  143.1350 P   0  0  2  0  0  0  0  0  0  0  0  0
  196.9820  177.0370  143.1720 O   0  0  0  0  0  0  0  0  0  0  0  0
  196.4820  174.8470  141.5390 O   0  0  0  0  0  0  0  0  0  0  0  0
  197.3040  175.6560  140.7520 C   0  0  0  0  0  1  0  0  0  0  0  0
  1 10  1  0  0  0  0
  1  7  2  0  0  0  0
  2 10  1  0  0  0  0
  2  4  2  0  0  0  0
  3 13  2  0  0  0  0
  4 12  1  0  0  0  0
  5  9  2  0  0  0  0
  5 25  1  0  0  0  0
  6 12  2  0  0  0  0
  6  9  1  0  0  0  0
  7  5  1  0  0  0  0
  8 11  1  0  0  0  0
  8  1  1  0  0  0  0
 10  6  1  0  0  0  0
 11 18  1  6  0  0  0
 11  3  1  0  0  0  0
 12 21  1  0  0  0  0
 13  7  1  0  0  0  0
 14 15  1  0  0  0  0
 15 18  1  0  0  0  0
 16 17  1  0  0  0  0
 17 18  1  0  0  0  0
 19 16  1  0  0  0  0
 19 14  1  0  0  0  0
 21 22  1  0  0  0  0
 22 20  2  0  0  0  0
 22 23  1  0  0  0  0
 24 28  1  6  0  0  0
 24 27  1  0  0  0  0
 25 24  1  0  0  0  0
 25 27  1  0  0  0  0
 27 26  1  6  0  0  0
 28 30  1  0  0  0  0
 30 29  1  1  0  0  0
 31 30  1  0  0  0  0
 33 32  1  1  0  0  0
 33 31  1  0  0  0  0
 35 36  2  1  0  0  0
 35 34  1  0  0  0  0
 35 33  1  0  0  0  0
 37 35  1  0  0  0  0
 38 37  1  0  0  0  0
M  END
>  <MODEL>
8

>  <REMARK>
 VINA RESULT:      -6.7      3.975      7.298
  Name = 
  9 active torsions:
  status: ('A' for Active; 'I' for Inactive)
    1  A    between atoms: C_2  and  C_18
    2  A    between atoms: C_2  and  C_23
    3  A    between atoms: N_7  and  C_36
    4  A    between atoms: O_8  and  P_16
    5  A    between atoms: CA_12  and  C_20
    6  A    between atoms: C_13  and  N_19
    7  A    between atoms: P_16  and  C_18
    8  A    between atoms: C_20  and  C_23
    9  A    between atoms: N_30  and  C_35
                            x       y       z     vdW  Elec       q    Type
                         _______ _______ _______ _____ _____    ______ ____

>  <TORSDO>
F 9

$$$$
=
 OpenBabel11042417003D

 38 42  0  0  1  0  0  0  0  0999 V2000
  189.1090  175.7000  143.2780 C   0  0  0  0  0  0  0  0  0  0  0  0
  188.1550  174.1780  141.6860 N   0  0  0  0  0  0  0  0  0  0  0  0
  189.1180  177.8390  145.1570 C   0  0  0  0  0  3  0  0  0  0  0  0
  188.6610  173.2890  140.7950 C   0  0  0  0  0  3  0  0  0  0  0  0
  191.5470  175.6570  143.3640 C   0  0  0  0  0  0  0  0  0  0  0  0
  190.3330  174.2620  141.8470 C   0  0  0  0  0  0  0  0  0  0  0  0
  190.3170  176.1760  143.8330 C   0  0  0  0  0  0  0  0  0  0  0  0
  187.7940  176.1630  143.8400 C   0  0  0  0  0  2  0  0  0  0  0  0
  191.5610  174.6850  142.3500 C   0  0  0  0  0  3  0  0  0  0  0  0
  189.1750  174.7520  142.3060 N   0  0  0  0  0  0  0  0  0  0  0  0
  187.8830  177.6310  144.3010 C   0  0  1  0  0  3  0  0  0  0  0  0
  190.0500  173.3310  140.8830 C   0  0  0  0  0  0  0  0  0  0  0  0
  190.2580  177.1920  144.9000 C   0  0  0  0  0  3  0  0  0  0  0  0
  184.8240  177.2390  146.4740 C   0  0  0  0  0  2  0  0  0  0  0  0
  186.0640  176.8650  145.6480 C   0  0  0  0  0  2  0  0  0  0  0  0
  184.3760  178.9790  144.7000 C   0  0  0  0  0  2  0  0  0  0  0  0
  185.6870  178.5330  144.0320 C   0  0  0  0  0  2  0  0  0  0  0  0
  186.6660  178.0450  145.0140 N   0  0  0  0  0  0  0  0  0  0  0  0
  184.3480  178.6660  146.1960 C   0  0  0  0  0  2  0  0  0  0  0  0
  190.8980  173.7770  138.1380 O   0  0  0  0  0  0  0  0  0  0  0  0
  191.0050  172.5640  140.1410 N   0  0  0  0  0  2  0  0  0  0  0  0
  191.3950  172.8200  138.7880 C   0  0  0  0  0  0  0  0  0  0  0  0
  192.4020  171.9400  138.1400 C   0  0  0  0  0  1  0  0  0  0  0  0
  194.2460  176.4070  143.7960 C   0  0  1  0  0  3  0  0  0  0  0  0
  192.7860  176.1080  143.9090 N   0  0  0  0  0  0  0  0  0  0  0  0
  193.8550  175.5490  145.9390 O   0  0  0  0  0  1  0  0  0  0  0  0
  193.6430  176.5940  145.0340 C   0  0  1  0  0  3  0  0  0  0  0  0
  195.0160  175.0950  143.6100 C   0  0  0  0  0  2  0  0  0  0  0  0
  196.8230  176.6730  143.5100 O   0  0  0  0  0  1  0  0  0  0  0  0
  196.4920  175.3340  143.2970 C   0  0  1  0  0  3  0  0  0  0  0  0
  197.4060  174.4380  144.1230 C   0  0  0  0  0  2  0  0  0  0  0  0
  197.1890  173.7810  146.4100 O   0  0  0  0  0  1  0  0  0  0  0  0
  196.6170  173.6370  145.1460 C   0  0  2  0  0  3  0  0  0  0  0  0
  197.1740  171.0660  145.8300 O   0  0  0  0  0  1  0  0  0  0  0  0
  196.6220  171.8820  144.6820 P   0  0  2  0  0  0  0  0  0  0  0  0
  197.6060  171.6770  143.3210 O   0  0  0  0  0  0  0  0  0  0  0  0
  195.0350  171.3940  144.3320 O   0  0  0  0  0  0  0  0  0  0  0  0
  194.2540  171.8940  145.3750 C   0  0  0  0  0  1  0  0  0  0  0  0
  1  7  2  0  0  0  0
  1  8  1  0  0  0  0
  2 10  1  0  0  0  0
  4 12  1  0  0  0  0
  4  2  2  0  0  0  0
  5  7  1  0  0  0  0
  5 25  1  0  0  0  0
  6 10  1  0  0  0  0
  6  9  1  0  0  0  0
  7 13  1  0  0  0  0
  9  5  2  0  0  0  0
 10  1  1  0  0  0  0
 11  8  1  1  0  0  0
 11 18  1  0  0  0  0
 11  3  1  0  0  0  0
 12  6  2  0  0  0  0
 13  3  2  0  0  0  0
 15 14  1  0  0  0  0
 16 19  1  0  0  0  0
 17 16  1  0  0  0  0
 17 18  1  0  0  0  0
 18 15  1  0  0  0  0
 19 14  1  0  0  0  0
 20 22  2  0  0  0  0
 21 12  1  0  0  0  0
 22 21  1  0  0  0  0
 23 22  1  0  0  0  0
 24 28  1  1  0  0  0
 24 25  1  0  0  0  0
 24 27  1  0  0  0  0
 25 27  1  0  0  0  0
 27 26  1  1  0  0  0
 30 29  1  1  0  0  0
 30 28  1  0  0  0  0
 30 31  1  0  0  0  0
 31 33  1  0  0  0  0
 33 32  1  1  0  0  0
 35 36  2  6  0  0  0
 35 33  1  0  0  0  0
 35 34  1  0  0  0  0
 37 35  1  0  0  0  0
 37 38  1  0  0  0  0
M  END
>  <MODEL>
9

>  <REMARK>
 VINA RESULT:      -6.6      4.431      9.421
  Name = 
  9 active torsions:
  status: ('A' for Active; 'I' for Inactive)
    1  A    between atoms: C_2  and  C_18
    2  A    between atoms: C_2  and  C_23
    3  A    between atoms: N_7  and  C_36
    4  A    between atoms: O_8  and  P_16
    5  A    between atoms: CA_12  and  C_20
    6  A    between atoms: C_13  and  N_19
    7  A    between atoms: P_16  and  C_18
    8  A    between atoms: C_20  and  C_23
    9  A    between atoms: N_30  and  C_35
                            x       y       z     vdW  Elec       q    Type
                         _______ _______ _______ _____ _____    ______ ____

>  <TORSDO>
F 9

$$$$
