=
 OpenBabel11042418283D

 30 33  0  0  1  0  0  0  0  0999 V2000
  190.0220  175.8540  144.3440 C   0  0  0  0  0  0  0  0  0  0  0  0
  190.5570  178.2130  144.1440 C   0  0  0  0  0  3  0  0  0  0  0  0
  189.6270  177.2090  144.4480 C   0  0  0  0  0  0  0  0  0  0  0  0
  192.2450  176.5500  143.6300 C   0  0  0  0  0  0  0  0  0  0  0  0
  191.8520  177.8880  143.7390 C   0  0  0  0  0  3  0  0  0  0  0  0
  191.3250  175.5400  143.9380 C   0  0  0  0  0  3  0  0  0  0  0  0
  187.3830  177.9440  142.5060 C   0  0  0  0  0  3  0  0  0  0  0  0
  186.0150  178.2430  144.4090 C   0  0  0  0  0  0  0  0  0  0  0  0
  185.6770  178.3050  145.7070 C   0  0  0  0  0  0  0  0  0  0  0  0
  184.9590  178.5800  143.6560 C   0  0  0  0  0  0  0  0  0  0  0  0
  185.0490  178.6210  142.3020 N   0  0  0  0  0  0  0  0  0  0  0  0
  187.9250  177.6580  146.2490 C   0  0  0  0  0  3  0  0  0  0  0  0
  183.8370  178.8880  144.4850 N   0  0  0  0  0  0  0  0  0  0  0  0
  186.2540  178.3040  141.7150 C   0  0  0  0  0  3  0  0  0  0  0  0
  186.6240  178.0130  146.6880 C   0  0  0  0  0  3  0  0  0  0  0  0
  187.2530  177.9130  143.9110 C   0  0  0  0  0  0  0  0  0  0  0  0
  188.2600  177.6060  144.8610 C   0  0  0  0  0  0  0  0  0  0  0  0
  184.2610  178.7240  145.7160 C   0  0  0  0  0  3  0  0  0  0  0  0
  193.6130  176.2070  143.2040 C   0  0  0  0  0  0  0  0  0  0  0  0
  194.7060  176.3560  144.1160 N   0  0  0  0  0  2  0  0  0  0  0  0
  193.8220  175.7870  142.0330 O   0  0  0  0  0  0  0  0  0  0  0  0
  196.0750  176.0060  143.7670 C   0  0  0  0  0  2  0  0  0  0  0  0
  196.3360  174.5430  144.0770 C   0  0  0  0  0  2  0  0  0  0  0  0
  194.7950  173.3110  145.4180 O   0  0  0  0  0  1  0  0  0  0  0  0
  195.8610  174.2110  145.4790 C   0  0  1  0  0  3  0  0  0  0  0  0
  196.9980  173.5870  146.2580 C   0  0  0  0  0  1  0  0  0  0  0  0
  189.0990  174.7300  144.6890 C   0  0  0  0  0  2  0  0  0  0  0  0
  189.6580  173.9260  145.8530 C   0  0  0  0  0  2  0  0  0  0  0  0
  190.6210  175.3150  147.6860 C   0  0  0  0  0  1  0  0  0  0  0  0
  189.3700  174.6290  147.1670 C   0  0  0  0  0  2  0  0  0  0  0  0
  1  3  1  0  0  0  0
  1 27  1  0  0  0  0
  2  3  2  0  0  0  0
  3 17  1  0  0  0  0
  4  5  2  0  0  0  0
  4  6  1  0  0  0  0
  5  2  1  0  0  0  0
  6  1  2  0  0  0  0
  7 16  1  0  0  0  0
  8  9  1  0  0  0  0
  9 18  1  0  0  0  0
  9 15  2  0  0  0  0
 10  8  1  0  0  0  0
 10 13  1  0  0  0  0
 11 10  2  0  0  0  0
 12 15  1  0  0  0  0
 13 18  2  0  0  0  0
 14 11  1  0  0  0  0
 14  7  2  0  0  0  0
 16  8  2  0  0  0  0
 16 17  1  0  0  0  0
 17 12  2  0  0  0  0
 19  4  1  0  0  0  0
 19 20  1  0  0  0  0
 21 19  2  0  0  0  0
 22 23  1  0  0  0  0
 22 20  1  0  0  0  0
 23 25  1  0  0  0  0
 24 25  1  0  0  0  0
 25 26  1  1  0  0  0
 27 28  1  0  0  0  0
 28 30  1  0  0  0  0
 30 29  1  0  0  0  0
M  END
>  <MODEL>
1

>  <REMARK>
 VINA RESULT:      -7.7      0.000      0.000
  Name = 
  8 active torsions:
  status: ('A' for Active; 'I' for Inactive)
    1  A    between atoms: C_2  and  C_4
    2  A    between atoms: C_2  and  C_21
    3  A    between atoms: C_3  and  C_9
    4  A    between atoms: C_3  and  C_19
    5  A    between atoms: C_4  and  N_27
    6  A    between atoms: C_11  and  C_19
    7  A    between atoms: C_16  and  C_18
    8  A    between atoms: C_17  and  C_29
                            x       y       z     vdW  Elec       q    Type
                         _______ _______ _______ _____ _____    ______ ____

>  <TORSDO>
F 8

$$$$
=
 OpenBabel11042418283D

 30 33  0  0  1  0  0  0  0  0999 V2000
  189.5180  175.7930  144.7860 C   0  0  0  0  0  0  0  0  0  0  0  0
  189.4790  174.7000  146.9520 C   0  0  0  0  0  3  0  0  0  0  0  0
  190.0560  174.8400  145.6820 C   0  0  0  0  0  0  0  0  0  0  0  0
  187.8510  176.4240  146.4470 C   0  0  0  0  0  0  0  0  0  0  0  0
  188.3880  175.4830  147.3310 C   0  0  0  0  0  3  0  0  0  0  0  0
  188.4240  176.5750  145.1780 C   0  0  0  0  0  3  0  0  0  0  0  0
  192.9810  175.5530  146.2110 C   0  0  0  0  0  3  0  0  0  0  0  0
  193.5250  173.4600  145.2610 C   0  0  0  0  0  0  0  0  0  0  0  0
  193.3360  172.2740  144.6590 C   0  0  0  0  0  0  0  0  0  0  0  0
  194.8370  173.6640  145.4440 C   0  0  0  0  0  0  0  0  0  0  0  0
  195.2940  174.8080  146.0120 N   0  0  0  0  0  0  0  0  0  0  0  0
  190.9760  172.7170  144.6890 C   0  0  0  0  0  3  0  0  0  0  0  0
  195.5860  172.5550  144.9420 N   0  0  0  0  0  0  0  0  0  0  0  0
  194.3780  175.7590  146.4010 C   0  0  0  0  0  3  0  0  0  0  0  0
  192.0450  171.8500  144.3460 C   0  0  0  0  0  3  0  0  0  0  0  0
  192.5410  174.3510  145.6160 C   0  0  0  0  0  0  0  0  0  0  0  0
  191.2050  173.9760  145.3230 C   0  0  0  0  0  0  0  0  0  0  0  0
  194.6910  171.7190  144.4710 C   0  0  0  0  0  3  0  0  0  0  0  0
  186.7000  177.2510  146.8480 C   0  0  0  0  0  0  0  0  0  0  0  0
  185.4320  177.0720  146.2080 N   0  0  0  0  0  2  0  0  0  0  0  0
  186.8310  178.1210  147.7530 O   0  0  0  0  0  0  0  0  0  0  0  0
  184.2490  177.8360  146.5780 C   0  0  0  0  0  2  0  0  0  0  0  0
  183.9340  178.8620  145.5030 C   0  0  0  0  0  2  0  0  0  0  0  0
  183.8610  178.4110  143.1620 O   0  0  0  0  0  1  0  0  0  0  0  0
  184.7280  178.5660  144.2460 C   0  0  1  0  0  3  0  0  0  0  0  0
  185.6730  179.7150  143.9690 C   0  0  0  0  0  1  0  0  0  0  0  0
  190.1030  176.0280  143.4300 C   0  0  0  0  0  2  0  0  0  0  0  0
  191.0600  177.2090  143.4640 C   0  0  0  0  0  2  0  0  0  0  0  0
  192.3040  175.4780  142.1710 C   0  0  0  0  0  1  0  0  0  0  0  0
  192.4030  176.8190  142.8750 C   0  0  0  0  0  2  0  0  0  0  0  0
  1  6  2  0  0  0  0
  1  3  1  0  0  0  0
  2  5  1  0  0  0  0
  3  2  2  0  0  0  0
  4 19  1  0  0  0  0
  4  5  2  0  0  0  0
  6  4  1  0  0  0  0
  7 14  2  0  0  0  0
  8 10  1  0  0  0  0
  8 16  1  0  0  0  0
  9  8  2  0  0  0  0
 10 11  2  0  0  0  0
 11 14  1  0  0  0  0
 12 17  1  0  0  0  0
 13 10  1  0  0  0  0
 15  9  1  0  0  0  0
 15 12  2  0  0  0  0
 16  7  1  0  0  0  0
 17 16  2  0  0  0  0
 17  3  1  0  0  0  0
 18  9  1  0  0  0  0
 18 13  2  0  0  0  0
 19 21  2  0  0  0  0
 20 22  1  0  0  0  0
 20 19  1  0  0  0  0
 23 22  1  0  0  0  0
 24 25  1  0  0  0  0
 25 26  1  6  0  0  0
 25 23  1  0  0  0  0
 27 28  1  0  0  0  0
 27  1  1  0  0  0  0
 29 30  1  0  0  0  0
 30 28  1  0  0  0  0
M  END
>  <MODEL>
2

>  <REMARK>
 VINA RESULT:      -7.6      3.201      8.776
  Name = 
  8 active torsions:
  status: ('A' for Active; 'I' for Inactive)
    1  A    between atoms: C_2  and  C_4
    2  A    between atoms: C_2  and  C_21
    3  A    between atoms: C_3  and  C_9
    4  A    between atoms: C_3  and  C_19
    5  A    between atoms: C_4  and  N_27
    6  A    between atoms: C_11  and  C_19
    7  A    between atoms: C_16  and  C_18
    8  A    between atoms: C_17  and  C_29
                            x       y       z     vdW  Elec       q    Type
                         _______ _______ _______ _____ _____    ______ ____

>  <TORSDO>
F 8

$$$$
=
 OpenBabel11042418283D

 30 33  0  0  1  0  0  0  0  0999 V2000
  186.0970  178.2760  144.3710 C   0  0  0  0  0  0  0  0  0  0  0  0
  186.8060  176.5140  142.8610 C   0  0  0  0  0  3  0  0  0  0  0  0
  186.9660  177.2010  144.0730 C   0  0  0  0  0  0  0  0  0  0  0  0
  184.9500  177.9470  142.2460 C   0  0  0  0  0  0  0  0  0  0  0  0
  185.8090  176.8830  141.9570 C   0  0  0  0  0  3  0  0  0  0  0  0
  185.0990  178.6360  143.4570 C   0  0  0  0  0  3  0  0  0  0  0  0
  189.9390  177.7330  143.6000 C   0  0  0  0  0  3  0  0  0  0  0  0
  190.3240  176.6580  145.6680 C   0  0  0  0  0  0  0  0  0  0  0  0
  190.0460  175.9920  146.8010 C   0  0  0  0  0  0  0  0  0  0  0  0
  191.6490  176.8360  145.5690 C   0  0  0  0  0  0  0  0  0  0  0  0
  192.1920  177.4630  144.4950 N   0  0  0  0  0  0  0  0  0  0  0  0
  187.7240  176.0770  146.1950 C   0  0  0  0  0  3  0  0  0  0  0  0
  192.3120  176.2630  146.6960 N   0  0  0  0  0  0  0  0  0  0  0  0
  191.3490  177.9180  143.5050 C   0  0  0  0  0  3  0  0  0  0  0  0
  188.7260  175.6710  147.1140 C   0  0  0  0  0  3  0  0  0  0  0  0
  189.4100  177.0760  144.7320 C   0  0  0  0  0  0  0  0  0  0  0  0
  188.0480  176.7790  144.9930 C   0  0  0  0  0  0  0  0  0  0  0  0
  191.3560  175.7550  147.4390 C   0  0  0  0  0  3  0  0  0  0  0  0
  183.8980  178.3360  141.2920 C   0  0  0  0  0  0  0  0  0  0  0  0
  182.5200  178.2520  141.6720 N   0  0  0  0  0  2  0  0  0  0  0  0
  184.2090  178.7400  140.1370 O   0  0  0  0  0  0  0  0  0  0  0  0
  181.4340  178.6490  140.7870 C   0  0  0  0  0  2  0  0  0  0  0  0
  180.4270  179.4950  141.5450 C   0  0  0  0  0  2  0  0  0  0  0  0
  178.7470  179.0070  139.9240 O   0  0  0  0  0  1  0  0  0  0  0  0
  179.0190  178.9890  141.2930 C   0  0  1  0  0  3  0  0  0  0  0  0
  178.8970  177.5720  141.8090 C   0  0  0  0  0  1  0  0  0  0  0  0
  186.1800  179.0310  145.6590 C   0  0  0  0  0  2  0  0  0  0  0  0
  185.0180  178.6570  146.5670 C   0  0  0  0  0  2  0  0  0  0  0  0
  186.8770  178.9870  148.1960 C   0  0  0  0  0  1  0  0  0  0  0  0
  185.5190  178.3490  147.9660 C   0  0  0  0  0  2  0  0  0  0  0  0
  1 27  1  0  0  0  0
  2  3  2  0  0  0  0
  3  1  1  0  0  0  0
  3 17  1  0  0  0  0
  4  6  1  0  0  0  0
  5  4  2  0  0  0  0
  5  2  1  0  0  0  0
  6  1  2  0  0  0  0
  7 16  1  0  0  0  0
  8  9  1  0  0  0  0
  9 15  2  0  0  0  0
  9 18  1  0  0  0  0
 10  8  1  0  0  0  0
 10 13  1  0  0  0  0
 11 10  2  0  0  0  0
 12 15  1  0  0  0  0
 13 18  2  0  0  0  0
 14  7  2  0  0  0  0
 14 11  1  0  0  0  0
 16 17  1  0  0  0  0
 16  8  2  0  0  0  0
 17 12  2  0  0  0  0
 19 20  1  0  0  0  0
 19  4  1  0  0  0  0
 21 19  2  0  0  0  0
 22 23  1  0  0  0  0
 22 20  1  0  0  0  0
 24 25  1  0  0  0  0
 25 23  1  0  0  0  0
 25 26  1  6  0  0  0
 27 28  1  0  0  0  0
 28 30  1  0  0  0  0
 30 29  1  0  0  0  0
M  END
>  <MODEL>
3

>  <REMARK>
 VINA RESULT:      -7.5      4.239      9.254
  Name = 
  8 active torsions:
  status: ('A' for Active; 'I' for Inactive)
    1  A    between atoms: C_2  and  C_4
    2  A    between atoms: C_2  and  C_21
    3  A    between atoms: C_3  and  C_9
    4  A    between atoms: C_3  and  C_19
    5  A    between atoms: C_4  and  N_27
    6  A    between atoms: C_11  and  C_19
    7  A    between atoms: C_16  and  C_18
    8  A    between atoms: C_17  and  C_29
                            x       y       z     vdW  Elec       q    Type
                         _______ _______ _______ _____ _____    ______ ____

>  <TORSDO>
F 8

$$$$
=
 OpenBabel11042418283D

 30 33  0  0  1  0  0  0  0  0999 V2000
  186.0820  177.1300  144.2760 C   0  0  0  0  0  0  0  0  0  0  0  0
  187.5890  177.6080  142.4360 C   0  0  0  0  0  3  0  0  0  0  0  0
  187.3970  177.1870  143.7590 C   0  0  0  0  0  0  0  0  0  0  0  0
  185.2030  177.9200  142.1450 C   0  0  0  0  0  0  0  0  0  0  0  0
  186.5040  177.9710  141.6370 C   0  0  0  0  0  3  0  0  0  0  0  0
  185.0000  177.4950  143.4640 C   0  0  0  0  0  3  0  0  0  0  0  0
  189.0160  174.6200  143.3950 C   0  0  0  0  0  3  0  0  0  0  0  0
  190.4070  175.4080  145.1340 C   0  0  0  0  0  0  0  0  0  0  0  0
  190.8490  176.2160  146.1110 C   0  0  0  0  0  0  0  0  0  0  0  0
  191.1900  174.3220  145.0650 C   0  0  0  0  0  0  0  0  0  0  0  0
  190.9370  173.3330  144.1700 N   0  0  0  0  0  0  0  0  0  0  0  0
  189.0360  177.7060  145.5990 C   0  0  0  0  0  3  0  0  0  0  0  0
  192.2260  174.3940  146.0460 N   0  0  0  0  0  0  0  0  0  0  0  0
  189.8560  173.4700  143.3290 C   0  0  0  0  0  3  0  0  0  0  0  0
  190.1780  177.4070  146.3870 C   0  0  0  0  0  3  0  0  0  0  0  0
  189.3090  175.6280  144.3380 C   0  0  0  0  0  0  0  0  0  0  0  0
  188.5830  176.8240  144.5700 C   0  0  0  0  0  0  0  0  0  0  0  0
  192.0270  175.5280  146.6760 C   0  0  0  0  0  3  0  0  0  0  0  0
  184.0580  178.3030  141.3010 C   0  0  0  0  0  0  0  0  0  0  0  0
  182.7260  178.2160  141.8190 N   0  0  0  0  0  2  0  0  0  0  0  0
  184.2490  178.7030  140.1200 O   0  0  0  0  0  0  0  0  0  0  0  0
  181.5540  178.6070  141.0470 C   0  0  0  0  0  2  0  0  0  0  0  0
  180.4340  179.0330  141.9800 C   0  0  0  0  0  2  0  0  0  0  0  0
  178.9220  177.2240  142.3390 O   0  0  0  0  0  1  0  0  0  0  0  0
  179.1320  178.3720  141.5720 C   0  0  1  0  0  3  0  0  0  0  0  0
  177.9890  179.3380  141.7960 C   0  0  0  0  0  1  0  0  0  0  0  0
  185.7930  176.6550  145.6640 C   0  0  0  0  0  2  0  0  0  0  0  0
  184.7680  177.5580  146.3300 C   0  0  0  0  0  2  0  0  0  0  0  0
  186.4330  178.5650  147.8890 C   0  0  0  0  0  1  0  0  0  0  0  0
  185.4200  178.8470  146.7940 C   0  0  0  0  0  2  0  0  0  0  0  0
  1 27  1  0  0  0  0
  2  3  2  0  0  0  0
  3  1  1  0  0  0  0
  3 17  1  0  0  0  0
  4  6  1  0  0  0  0
  5  4  2  0  0  0  0
  5  2  1  0  0  0  0
  6  1  2  0  0  0  0
  7 16  1  0  0  0  0
  8  9  1  0  0  0  0
  9 15  2  0  0  0  0
  9 18  1  0  0  0  0
 10  8  1  0  0  0  0
 10 13  1  0  0  0  0
 11 10  2  0  0  0  0
 12 15  1  0  0  0  0
 13 18  2  0  0  0  0
 14  7  2  0  0  0  0
 14 11  1  0  0  0  0
 16 17  1  0  0  0  0
 16  8  2  0  0  0  0
 17 12  2  0  0  0  0
 19 20  1  0  0  0  0
 19  4  1  0  0  0  0
 21 19  2  0  0  0  0
 22 20  1  0  0  0  0
 22 23  1  0  0  0  0
 25 26  1  1  0  0  0
 25 23  1  0  0  0  0
 25 24  1  0  0  0  0
 27 28  1  0  0  0  0
 28 30  1  0  0  0  0
 30 29  1  0  0  0  0
M  END
>  <MODEL>
4

>  <REMARK>
 VINA RESULT:      -7.2      4.257      9.253
  Name = 
  8 active torsions:
  status: ('A' for Active; 'I' for Inactive)
    1  A    between atoms: C_2  and  C_4
    2  A    between atoms: C_2  and  C_21
    3  A    between atoms: C_3  and  C_9
    4  A    between atoms: C_3  and  C_19
    5  A    between atoms: C_4  and  N_27
    6  A    between atoms: C_11  and  C_19
    7  A    between atoms: C_16  and  C_18
    8  A    between atoms: C_17  and  C_29
                            x       y       z     vdW  Elec       q    Type
                         _______ _______ _______ _____ _____    ______ ____

>  <TORSDO>
F 8

$$$$
=
 OpenBabel11042418283D

 30 33  0  0  1  0  0  0  0  0999 V2000
  190.1650  176.0060  144.3540 C   0  0  0  0  0  0  0  0  0  0  0  0
  190.6810  178.3340  143.9030 C   0  0  0  0  0  3  0  0  0  0  0  0
  189.7270  177.3210  144.0680 C   0  0  0  0  0  0  0  0  0  0  0  0
  192.4820  176.7580  144.2890 C   0  0  0  0  0  0  0  0  0  0  0  0
  192.0440  178.0570  144.0120 C   0  0  0  0  0  3  0  0  0  0  0  0
  191.5360  175.7400  144.4630 C   0  0  0  0  0  3  0  0  0  0  0  0
  187.8120  177.7070  146.4200 C   0  0  0  0  0  3  0  0  0  0  0  0
  186.1500  178.1960  144.8150 C   0  0  0  0  0  0  0  0  0  0  0  0
  185.5920  178.3590  143.6040 C   0  0  0  0  0  0  0  0  0  0  0  0
  185.2230  178.3920  145.7630 C   0  0  0  0  0  0  0  0  0  0  0  0
  185.5300  178.2580  147.0780 N   0  0  0  0  0  0  0  0  0  0  0  0
  187.7250  177.8390  142.6310 C   0  0  0  0  0  3  0  0  0  0  0  0
  183.9640  178.7090  145.1680 N   0  0  0  0  0  0  0  0  0  0  0  0
  186.8190  177.9190  147.4200 C   0  0  0  0  0  3  0  0  0  0  0  0
  186.3610  178.1860  142.4530 C   0  0  0  0  0  3  0  0  0  0  0  0
  187.4580  177.8540  145.0620 C   0  0  0  0  0  0  0  0  0  0  0  0
  188.2920  177.6640  143.9310 C   0  0  0  0  0  0  0  0  0  0  0  0
  184.1790  178.6910  143.8730 C   0  0  0  0  0  3  0  0  0  0  0  0
  193.9210  176.4660  144.4050 C   0  0  0  0  0  0  0  0  0  0  0  0
  194.6160  175.8480  143.3170 N   0  0  0  0  0  2  0  0  0  0  0  0
  194.5410  176.7560  145.4660 O   0  0  0  0  0  0  0  0  0  0  0  0
  196.0430  175.5600  143.3570 C   0  0  0  0  0  2  0  0  0  0  0  0
  196.2690  174.0660  143.5060 C   0  0  0  0  0  2  0  0  0  0  0  0
  196.5380  174.1580  145.8740 O   0  0  0  0  0  1  0  0  0  0  0  0
  197.1760  173.7870  144.6890 C   0  0  1  0  0  3  0  0  0  0  0  0
  197.4970  172.3090  144.7360 C   0  0  0  0  0  1  0  0  0  0  0  0
  189.2070  174.8810  144.5820 C   0  0  0  0  0  2  0  0  0  0  0  0
  189.6950  173.9930  145.7160 C   0  0  0  0  0  2  0  0  0  0  0  0
  190.4440  175.2820  147.7150 C   0  0  0  0  0  1  0  0  0  0  0  0
  189.2770  174.5690  147.0570 C   0  0  0  0  0  2  0  0  0  0  0  0
  1  6  1  0  0  0  0
  1 27  1  0  0  0  0
  2  5  2  0  0  0  0
  2  3  1  0  0  0  0
  3  1  2  0  0  0  0
  4 19  1  0  0  0  0
  4  6  2  0  0  0  0
  5  4  1  0  0  0  0
  7 14  2  0  0  0  0
  8 16  1  0  0  0  0
  8 10  1  0  0  0  0
  9 18  1  0  0  0  0
  9  8  2  0  0  0  0
 10 11  2  0  0  0  0
 11 14  1  0  0  0  0
 12 17  1  0  0  0  0
 13 10  1  0  0  0  0
 15 12  2  0  0  0  0
 15  9  1  0  0  0  0
 16  7  1  0  0  0  0
 17  3  1  0  0  0  0
 17 16  2  0  0  0  0
 18 13  2  0  0  0  0
 19 21  2  0  0  0  0
 20 22  1  0  0  0  0
 20 19  1  0  0  0  0
 22 23  1  0  0  0  0
 23 25  1  0  0  0  0
 25 26  1  1  0  0  0
 25 24  1  0  0  0  0
 27 28  1  0  0  0  0
 28 30  1  0  0  0  0
 30 29  1  0  0  0  0
M  END
>  <MODEL>
5

>  <REMARK>
 VINA RESULT:      -7.2      1.186      2.214
  Name = 
  8 active torsions:
  status: ('A' for Active; 'I' for Inactive)
    1  A    between atoms: C_2  and  C_4
    2  A    between atoms: C_2  and  C_21
    3  A    between atoms: C_3  and  C_9
    4  A    between atoms: C_3  and  C_19
    5  A    between atoms: C_4  and  N_27
    6  A    between atoms: C_11  and  C_19
    7  A    between atoms: C_16  and  C_18
    8  A    between atoms: C_17  and  C_29
                            x       y       z     vdW  Elec       q    Type
                         _______ _______ _______ _____ _____    ______ ____

>  <TORSDO>
F 8

$$$$
=
 OpenBabel11042418283D

 30 33  0  0  1  0  0  0  0  0999 V2000
  189.5580  175.8900  143.1320 C   0  0  0  0  0  0  0  0  0  0  0  0
  190.3800  178.0740  143.7970 C   0  0  0  0  0  3  0  0  0  0  0  0
  189.2990  177.2180  143.5450 C   0  0  0  0  0  0  0  0  0  0  0  0
  191.9540  176.3200  143.2290 C   0  0  0  0  0  0  0  0  0  0  0  0
  191.6940  177.6310  143.6400 C   0  0  0  0  0  3  0  0  0  0  0  0
  190.8800  175.4560  142.9800 C   0  0  0  0  0  3  0  0  0  0  0  0
  187.6730  176.9940  146.1240 C   0  0  0  0  0  3  0  0  0  0  0  0
  185.9660  178.1710  144.9930 C   0  0  0  0  0  0  0  0  0  0  0  0
  185.3340  178.7920  143.9830 C   0  0  0  0  0  0  0  0  0  0  0  0
  185.1630  178.1350  146.0660 C   0  0  0  0  0  0  0  0  0  0  0  0
  185.5600  177.5340  147.2160 N   0  0  0  0  0  0  0  0  0  0  0  0
  187.2760  178.4020  142.6250 C   0  0  0  0  0  3  0  0  0  0  0  0
  183.9160  178.7670  145.7750 N   0  0  0  0  0  0  0  0  0  0  0  0
  186.8120  176.9620  147.2590 C   0  0  0  0  0  3  0  0  0  0  0  0
  185.9660  178.9350  142.7490 C   0  0  0  0  0  3  0  0  0  0  0  0
  187.2260  177.6270  144.9440 C   0  0  0  0  0  0  0  0  0  0  0  0
  187.9220  177.7400  143.7130 C   0  0  0  0  0  0  0  0  0  0  0  0
  184.0130  179.1640  144.5270 C   0  0  0  0  0  3  0  0  0  0  0  0
  193.3410  175.8520  143.0640 C   0  0  0  0  0  0  0  0  0  0  0  0
  193.9590  175.8820  141.7730 N   0  0  0  0  0  2  0  0  0  0  0  0
  193.9840  175.4200  144.0610 O   0  0  0  0  0  0  0  0  0  0  0  0
  195.3350  175.4620  141.5500 C   0  0  0  0  0  2  0  0  0  0  0  0
  196.2570  176.6690  141.5610 C   0  0  0  0  0  2  0  0  0  0  0  0
  196.6120  177.2680  143.8420 O   0  0  0  0  0  1  0  0  0  0  0  0
  197.1890  176.6070  142.7560 C   0  0  1  0  0  3  0  0  0  0  0  0
  197.4350  175.1600  143.1240 C   0  0  0  0  0  1  0  0  0  0  0  0
  188.4590  174.9070  142.8830 C   0  0  0  0  0  2  0  0  0  0  0  0
  188.2420  174.7240  141.3890 C   0  0  0  0  0  2  0  0  0  0  0  0
  188.6500  172.4170  142.2390 C   0  0  0  0  0  1  0  0  0  0  0  0
  188.4070  173.2650  141.0040 C   0  0  0  0  0  2  0  0  0  0  0  0
  1  3  1  0  0  0  0
  3 17  1  0  0  0  0
  3  2  2  0  0  0  0
  4  5  2  0  0  0  0
  5  2  1  0  0  0  0
  6  1  2  0  0  0  0
  6  4  1  0  0  0  0
  7 14  2  0  0  0  0
  8 10  1  0  0  0  0
  9 18  1  0  0  0  0
  9  8  2  0  0  0  0
 10 11  2  0  0  0  0
 11 14  1  0  0  0  0
 12 15  2  0  0  0  0
 12 17  1  0  0  0  0
 13 10  1  0  0  0  0
 15  9  1  0  0  0  0
 16  8  1  0  0  0  0
 16  7  1  0  0  0  0
 17 16  2  0  0  0  0
 18 13  2  0  0  0  0
 19  4  1  0  0  0  0
 19 21  2  0  0  0  0
 20 19  1  0  0  0  0
 22 23  1  0  0  0  0
 22 20  1  0  0  0  0
 23 25  1  0  0  0  0
 25 26  1  1  0  0  0
 25 24  1  0  0  0  0
 27  1  1  0  0  0  0
 28 27  1  0  0  0  0
 30 28  1  0  0  0  0
 30 29  1  0  0  0  0
M  END
>  <MODEL>
6

>  <REMARK>
 VINA RESULT:      -7.1      1.913      3.207
  Name = 
  8 active torsions:
  status: ('A' for Active; 'I' for Inactive)
    1  A    between atoms: C_2  and  C_4
    2  A    between atoms: C_2  and  C_21
    3  A    between atoms: C_3  and  C_9
    4  A    between atoms: C_3  and  C_19
    5  A    between atoms: C_4  and  N_27
    6  A    between atoms: C_11  and  C_19
    7  A    between atoms: C_16  and  C_18
    8  A    between atoms: C_17  and  C_29
                            x       y       z     vdW  Elec       q    Type
                         _______ _______ _______ _____ _____    ______ ____

>  <TORSDO>
F 8

$$$$
=
 OpenBabel11042418283D

 30 33  0  0  1  0  0  0  0  0999 V2000
  190.0920  175.7690  144.1610 C   0  0  0  0  0  0  0  0  0  0  0  0
  190.6590  178.1200  144.3660 C   0  0  0  0  0  3  0  0  0  0  0  0
  189.7200  177.0880  144.5110 C   0  0  0  0  0  0  0  0  0  0  0  0
  192.3100  176.5540  143.5300 C   0  0  0  0  0  0  0  0  0  0  0  0
  191.9400  177.8560  143.8810 C   0  0  0  0  0  3  0  0  0  0  0  0
  191.3810  175.5160  143.6770 C   0  0  0  0  0  3  0  0  0  0  0  0
  187.4190  178.0880  142.7630 C   0  0  0  0  0  3  0  0  0  0  0  0
  186.1120  178.1140  144.7310 C   0  0  0  0  0  0  0  0  0  0  0  0
  185.8150  177.9930  146.0350 C   0  0  0  0  0  0  0  0  0  0  0  0
  185.0340  178.5540  144.0660 C   0  0  0  0  0  0  0  0  0  0  0  0
  185.0830  178.7850  142.7300 N   0  0  0  0  0  0  0  0  0  0  0  0
  188.0770  177.2770  146.4090 C   0  0  0  0  0  3  0  0  0  0  0  0
  183.9400  178.7410  144.9650 N   0  0  0  0  0  0  0  0  0  0  0  0
  186.2670  178.5550  142.0670 C   0  0  0  0  0  3  0  0  0  0  0  0
  186.7910  177.5660  146.9350 C   0  0  0  0  0  3  0  0  0  0  0  0
  187.3330  177.8590  144.1530 C   0  0  0  0  0  0  0  0  0  0  0  0
  188.3680  177.4220  145.0180 C   0  0  0  0  0  0  0  0  0  0  0  0
  184.4020  178.4050  146.1470 C   0  0  0  0  0  3  0  0  0  0  0  0
  193.6640  176.2760  143.0190 C   0  0  0  0  0  0  0  0  0  0  0  0
  194.7740  176.2270  143.9210 N   0  0  0  0  0  2  0  0  0  0  0  0
  193.8460  176.0850  141.7850 O   0  0  0  0  0  0  0  0  0  0  0  0
  196.1300  175.9280  143.4840 C   0  0  0  0  0  2  0  0  0  0  0  0
  196.3720  174.4290  143.5240 C   0  0  0  0  0  2  0  0  0  0  0  0
  196.5920  174.2520  145.8920 O   0  0  0  0  0  1  0  0  0  0  0  0
  197.2760  174.0730  144.6890 C   0  0  1  0  0  3  0  0  0  0  0  0
  197.7040  172.6270  144.5670 C   0  0  0  0  0  1  0  0  0  0  0  0
  189.1590  174.6110  144.3240 C   0  0  0  0  0  2  0  0  0  0  0  0
  188.9870  173.8800  143.0020 C   0  0  0  0  0  2  0  0  0  0  0  0
  188.3540  174.9850  140.8580 C   0  0  0  0  0  1  0  0  0  0  0  0
  187.8510  174.4930  142.2030 C   0  0  0  0  0  2  0  0  0  0  0  0
  1 27  1  0  0  0  0
  1  3  1  0  0  0  0
  2  3  2  0  0  0  0
  3 17  1  0  0  0  0
  4  6  1  0  0  0  0
  4  5  2  0  0  0  0
  5  2  1  0  0  0  0
  6  1  2  0  0  0  0
  7 16  1  0  0  0  0
  8  9  1  0  0  0  0
  9 18  1  0  0  0  0
  9 15  2  0  0  0  0
 10  8  1  0  0  0  0
 10 13  1  0  0  0  0
 11 10  2  0  0  0  0
 12 15  1  0  0  0  0
 13 18  2  0  0  0  0
 14 11  1  0  0  0  0
 14  7  2  0  0  0  0
 16  8  2  0  0  0  0
 16 17  1  0  0  0  0
 17 12  2  0  0  0  0
 19  4  1  0  0  0  0
 19 20  1  0  0  0  0
 21 19  2  0  0  0  0
 22 23  1  0  0  0  0
 22 20  1  0  0  0  0
 23 25  1  0  0  0  0
 25 26  1  6  0  0  0
 25 24  1  0  0  0  0
 28 27  1  0  0  0  0
 29 30  1  0  0  0  0
 30 28  1  0  0  0  0
M  END
>  <MODEL>
7

>  <REMARK>
 VINA RESULT:      -7.1      1.113      1.843
  Name = 
  8 active torsions:
  status: ('A' for Active; 'I' for Inactive)
    1  A    between atoms: C_2  and  C_4
    2  A    between atoms: C_2  and  C_21
    3  A    between atoms: C_3  and  C_9
    4  A    between atoms: C_3  and  C_19
    5  A    between atoms: C_4  and  N_27
    6  A    between atoms: C_11  and  C_19
    7  A    between atoms: C_16  and  C_18
    8  A    between atoms: C_17  and  C_29
                            x       y       z     vdW  Elec       q    Type
                         _______ _______ _______ _____ _____    ______ ____

>  <TORSDO>
F 8

$$$$
=
 OpenBabel11042418283D

 30 33  0  0  1  0  0  0  0  0999 V2000
  189.6870  175.7800  143.4010 C   0  0  0  0  0  0  0  0  0  0  0  0
  190.4550  177.9780  144.0850 C   0  0  0  0  0  3  0  0  0  0  0  0
  189.3970  177.1170  143.7610 C   0  0  0  0  0  0  0  0  0  0  0  0
  192.0670  176.2110  143.6910 C   0  0  0  0  0  0  0  0  0  0  0  0
  191.7760  177.5300  144.0510 C   0  0  0  0  0  3  0  0  0  0  0  0
  191.0170  175.3420  143.3720 C   0  0  0  0  0  3  0  0  0  0  0  0
  187.5720  176.9870  146.2100 C   0  0  0  0  0  3  0  0  0  0  0  0
  185.9610  178.1190  144.9050 C   0  0  0  0  0  0  0  0  0  0  0  0
  185.4130  178.7010  143.8250 C   0  0  0  0  0  0  0  0  0  0  0  0
  185.0770  178.1220  145.9110 C   0  0  0  0  0  0  0  0  0  0  0  0
  185.3800  177.5640  147.1110 N   0  0  0  0  0  0  0  0  0  0  0  0
  187.4560  178.2640  142.6410 C   0  0  0  0  0  3  0  0  0  0  0  0
  183.8580  178.7420  145.4990 N   0  0  0  0  0  0  0  0  0  0  0  0
  186.6230  176.9960  147.2740 C   0  0  0  0  0  3  0  0  0  0  0  0
  186.1410  178.7990  142.6410 C   0  0  0  0  0  3  0  0  0  0  0  0
  187.2210  177.5750  144.9760 C   0  0  0  0  0  0  0  0  0  0  0  0
  188.0130  177.6430  143.8010 C   0  0  0  0  0  0  0  0  0  0  0  0
  184.0530  179.0920  144.2490 C   0  0  0  0  0  3  0  0  0  0  0  0
  193.4620  175.7380  143.6560 C   0  0  0  0  0  0  0  0  0  0  0  0
  194.3150  175.9390  144.7870 N   0  0  0  0  0  2  0  0  0  0  0  0
  193.9070  175.1600  142.6260 O   0  0  0  0  0  0  0  0  0  0  0  0
  195.6930  175.4710  144.8270 C   0  0  0  0  0  2  0  0  0  0  0  0
  195.8240  174.3180  145.8070 C   0  0  0  0  0  2  0  0  0  0  0  0
  196.6470  172.1020  145.4920 O   0  0  0  0  0  1  0  0  0  0  0  0
  195.6520  172.9940  145.0870 C   0  0  1  0  0  3  0  0  0  0  0  0
  194.2950  172.4150  145.4210 C   0  0  0  0  0  1  0  0  0  0  0  0
  188.6110  174.7920  143.0810 C   0  0  0  0  0  2  0  0  0  0  0  0
  188.4990  174.6010  141.5760 C   0  0  0  0  0  2  0  0  0  0  0  0
  188.9300  172.2770  142.3680 C   0  0  0  0  0  1  0  0  0  0  0  0
  188.3780  173.1260  141.2380 C   0  0  0  0  0  2  0  0  0  0  0  0
  1  3  1  0  0  0  0
  3 17  1  0  0  0  0
  3  2  2  0  0  0  0
  4  5  2  0  0  0  0
  5  2  1  0  0  0  0
  6  1  2  0  0  0  0
  6  4  1  0  0  0  0
  7 14  2  0  0  0  0
  8 16  1  0  0  0  0
  8 10  1  0  0  0  0
  9 18  1  0  0  0  0
  9  8  2  0  0  0  0
 10 11  2  0  0  0  0
 11 14  1  0  0  0  0
 12 15  2  0  0  0  0
 12 17  1  0  0  0  0
 13 10  1  0  0  0  0
 15  9  1  0  0  0  0
 16  7  1  0  0  0  0
 17 16  2  0  0  0  0
 18 13  2  0  0  0  0
 19  4  1  0  0  0  0
 19 20  1  0  0  0  0
 20 22  1  0  0  0  0
 21 19  2  0  0  0  0
 22 23  1  0  0  0  0
 25 26  1  1  0  0  0
 25 24  1  0  0  0  0
 25 23  1  0  0  0  0
 27  1  1  0  0  0  0
 28 27  1  0  0  0  0
 30 28  1  0  0  0  0
 30 29  1  0  0  0  0
M  END
>  <MODEL>
8

>  <REMARK>
 VINA RESULT:      -7.1      1.603      2.856
  Name = 
  8 active torsions:
  status: ('A' for Active; 'I' for Inactive)
    1  A    between atoms: C_2  and  C_4
    2  A    between atoms: C_2  and  C_21
    3  A    between atoms: C_3  and  C_9
    4  A    between atoms: C_3  and  C_19
    5  A    between atoms: C_4  and  N_27
    6  A    between atoms: C_11  and  C_19
    7  A    between atoms: C_16  and  C_18
    8  A    between atoms: C_17  and  C_29
                            x       y       z     vdW  Elec       q    Type
                         _______ _______ _______ _____ _____    ______ ____

>  <TORSDO>
F 8

$$$$
=
 OpenBabel11042418283D

 30 33  0  0  1  0  0  0  0  0999 V2000
  186.9780  176.2620  143.0460 C   0  0  0  0  0  0  0  0  0  0  0  0
  186.6360  178.2580  144.3830 C   0  0  0  0  0  3  0  0  0  0  0  0
  187.3300  177.0610  144.1590 C   0  0  0  0  0  0  0  0  0  0  0  0
  185.2550  177.8710  142.4280 C   0  0  0  0  0  0  0  0  0  0  0  0
  185.6080  178.6590  143.5280 C   0  0  0  0  0  3  0  0  0  0  0  0
  185.9470  176.6760  142.1930 C   0  0  0  0  0  3  0  0  0  0  0  0
  190.3040  177.6100  143.7090 C   0  0  0  0  0  3  0  0  0  0  0  0
  190.6730  176.5930  145.8080 C   0  0  0  0  0  0  0  0  0  0  0  0
  190.3880  175.9530  146.9540 C   0  0  0  0  0  0  0  0  0  0  0  0
  191.9970  176.7810  145.7210 C   0  0  0  0  0  0  0  0  0  0  0  0
  192.5480  177.3860  144.6370 N   0  0  0  0  0  0  0  0  0  0  0  0
  188.0720  176.0000  146.3180 C   0  0  0  0  0  3  0  0  0  0  0  0
  192.6520  176.2440  146.8700 N   0  0  0  0  0  0  0  0  0  0  0  0
  191.7130  177.8060  143.6260 C   0  0  0  0  0  3  0  0  0  0  0  0
  189.0670  175.6280  147.2600 C   0  0  0  0  0  3  0  0  0  0  0  0
  189.7670  176.9780  144.8500 C   0  0  0  0  0  0  0  0  0  0  0  0
  188.4040  176.6740  145.1030 C   0  0  0  0  0  0  0  0  0  0  0  0
  191.6920  175.7460  147.6140 C   0  0  0  0  0  3  0  0  0  0  0  0
  184.1710  178.2940  141.5250 C   0  0  0  0  0  0  0  0  0  0  0  0
  182.8130  178.2770  141.9780 N   0  0  0  0  0  2  0  0  0  0  0  0
  184.4390  178.6690  140.3500 O   0  0  0  0  0  0  0  0  0  0  0  0
  181.7010  178.7110  141.1450 C   0  0  0  0  0  2  0  0  0  0  0  0
  180.6190  179.3390  142.0060 C   0  0  0  0  0  2  0  0  0  0  0  0
  179.3740  177.9170  140.5520 O   0  0  0  0  0  1  0  0  0  0  0  0
  179.2470  178.9170  141.5180 C   0  0  1  0  0  3  0  0  0  0  0  0
  178.4420  178.3850  142.6840 C   0  0  0  0  0  1  0  0  0  0  0  0
  187.6990  174.9940  142.7190 C   0  0  0  0  0  2  0  0  0  0  0  0
  188.5820  175.1870  141.4960 C   0  0  0  0  0  2  0  0  0  0  0  0
  189.9790  173.8380  143.0590 C   0  0  0  0  0  1  0  0  0  0  0  0
  189.9030  174.4620  141.6780 C   0  0  0  0  0  2  0  0  0  0  0  0
  1  3  1  0  0  0  0
  3  2  2  0  0  0  0
  3 17  1  0  0  0  0
  4  5  2  0  0  0  0
  5  2  1  0  0  0  0
  6  4  1  0  0  0  0
  6  1  2  0  0  0  0
  7 16  1  0  0  0  0
  8  9  1  0  0  0  0
  9 15  2  0  0  0  0
  9 18  1  0  0  0  0
 10  8  1  0  0  0  0
 10 13  1  0  0  0  0
 11 10  2  0  0  0  0
 12 15  1  0  0  0  0
 13 18  2  0  0  0  0
 14  7  2  0  0  0  0
 14 11  1  0  0  0  0
 16 17  1  0  0  0  0
 16  8  2  0  0  0  0
 17 12  2  0  0  0  0
 19 20  1  0  0  0  0
 19  4  1  0  0  0  0
 21 19  2  0  0  0  0
 22 20  1  0  0  0  0
 22 23  1  0  0  0  0
 24 25  1  0  0  0  0
 25 23  1  0  0  0  0
 25 26  1  1  0  0  0
 27  1  1  0  0  0  0
 28 30  1  0  0  0  0
 28 27  1  0  0  0  0
 30 29  1  0  0  0  0
M  END
>  <MODEL>
9

>  <REMARK>
 VINA RESULT:      -7.1      4.145      9.051
  Name = 
  8 active torsions:
  status: ('A' for Active; 'I' for Inactive)
    1  A    between atoms: C_2  and  C_4
    2  A    between atoms: C_2  and  C_21
    3  A    between atoms: C_3  and  C_9
    4  A    between atoms: C_3  and  C_19
    5  A    between atoms: C_4  and  N_27
    6  A    between atoms: C_11  and  C_19
    7  A    between atoms: C_16  and  C_18
    8  A    between atoms: C_17  and  C_29
                            x       y       z     vdW  Elec       q    Type
                         _______ _______ _______ _____ _____    ______ ____

>  <TORSDO>
F 8

$$$$
