=
 OpenBabel11042419233D

 42 44  0  0  1  0  0  0  0  0999 V2000
  191.4830  173.6990  142.3140 C   0  0  0  0  0  0  0  0  0  0  0  0
  191.6690  174.9840  142.8430 C   0  0  0  0  0  3  0  0  0  0  0  0
  193.1290  174.0870  144.5600 C   0  0  0  0  0  0  0  0  0  0  0  0
  192.9480  172.8050  144.0310 C   0  0  0  0  0  3  0  0  0  0  0  0
  192.4840  175.1860  143.9620 C   0  0  0  0  0  0  0  0  0  0  0  0
  192.1280  172.6120  142.9170 C   0  0  0  0  0  3  0  0  0  0  0  0
  191.1100  173.6090  139.8650 N   0  0  0  0  0  0  0  0  0  0  0  0
  190.4100  173.4320  137.5360 N   0  0  0  0  0  2  0  0  0  0  0  0
  188.6840  173.0140  139.6550 S   0  0  0  0  0  0  0  0  0  0  0  0
  190.6240  173.4850  141.1330 C   0  0  0  0  0  0  0  0  0  0  0  0
  189.2680  173.1530  141.2290 C   0  0  0  0  0  3  0  0  0  0  0  0
  190.1570  173.3800  138.9410 C   0  0  0  0  0  0  0  0  0  0  0  0
  189.3730  173.2200  136.5370 C   0  0  1  0  0  3  0  0  0  0  0  0
  189.7280  173.9640  135.2620 C   0  0  0  0  0  1  0  0  0  0  0  0
  190.0940  171.6510  135.1550 C   0  0  0  0  0  1  0  0  0  0  0  0
  189.2670  171.8560  136.2610 O   0  0  0  0  0  0  0  0  0  0  0  0
  194.0330  174.2550  145.7350 C   0  0  0  0  0  2  0  0  0  0  0  0
  195.2930  173.5750  145.4870 N   0  0  0  0  0  2  0  0  0  0  0  0
  196.3020  174.6030  145.2920 C   0  0  0  0  0  2  0  0  0  0  0  0
  196.6590  174.6960  143.8220 C   0  0  0  0  0  2  0  0  0  0  0  0
  196.2050  176.0360  143.2770 C   0  0  0  0  0  2  0  0  0  0  0  0
  195.6800  175.8780  141.8880 C   0  0  0  0  0  0  0  0  0  0  0  0
  194.6800  176.4830  141.5370 O   0  0  0  0  0  0  0  0  0  0  0  0
  196.8320  175.7350  139.8310 O   0  0  0  0  0  1  0  0  0  0  0  0
  196.3830  174.9870  140.9200 C   0  0  0  0  0  2  0  0  0  0  0  0
  192.6830  176.8530  144.5990 S   0  0  0  0  0  0  0  0  0  0  0  0
  191.5860  176.5370  146.0160 C   0  0  0  0  0  2  0  0  0  0  0  0
  190.1980  176.7040  145.6160 N   0  0  0  0  0  2  0  0  0  0  0  0
  189.6670  174.4400  145.8370 O   0  0  0  0  0  0  0  0  0  0  0  0
  189.2750  175.6110  145.5900 C   0  0  0  0  0  0  0  0  0  0  0  0
  187.9020  175.8370  145.2730 N   0  0  0  0  0  2  0  0  0  0  0  0
  185.8370  179.6680  144.6430 C   0  0  0  0  0  2  0  0  0  0  0  0
  188.2540  177.4950  142.9110 O   0  0  0  0  0  0  0  0  0  0  0  0
  187.3640  177.1770  145.0730 C   0  0  1  0  0  3  0  0  0  0  0  0
  187.2400  177.4320  143.5920 C   0  0  0  0  0  0  0  0  0  0  0  0
  185.4040  179.1340  143.2710 C   0  0  0  0  0  2  0  0  0  0  0  0
  185.4480  178.7720  145.8270 C   0  0  1  0  0  3  0  0  0  0  0  0
  186.1230  176.8530  147.2580 C   0  0  0  0  0  1  0  0  0  0  0  0
  183.9390  178.7460  146.0040 C   0  0  0  0  0  1  0  0  0  0  0  0
  186.0170  177.3390  145.8190 C   0  0  2  0  0  3  0  0  0  0  0  0
  185.8880  177.7120  142.9820 C   0  0  1  0  0  3  0  0  0  0  0  0
  185.8470  177.4320  141.4890 C   0  0  0  0  0  1  0  0  0  0  0  0
  1  2  2  0  0  0  0
  1  6  1  0  0  0  0
  2  5  1  0  0  0  0
  3 17  1  0  0  0  0
  4  3  1  0  0  0  0
  5  3  2  0  0  0  0
  5 26  1  0  0  0  0
  6  4  2  0  0  0  0
  7 10  1  0  0  0  0
  8 12  1  0  0  0  0
  9 11  1  0  0  0  0
 10 11  2  0  0  0  0
 10  1  1  0  0  0  0
 12  9  1  0  0  0  0
 12  7  2  0  0  0  0
 13 14  1  6  0  0  0
 13  8  1  0  0  0  0
 15 16  1  0  0  0  0
 16 13  1  0  0  0  0
 18 17  1  0  0  0  0
 19 18  1  0  0  0  0
 20 19  1  0  0  0  0
 21 20  1  0  0  0  0
 22 21  1  0  0  0  0
 23 22  2  0  0  0  0
 24 25  1  0  0  0  0
 25 22  1  0  0  0  0
 26 27  1  0  0  0  0
 28 27  1  0  0  0  0
 30 28  1  0  0  0  0
 30 29  2  0  0  0  0
 31 30  1  0  0  0  0
 32 37  1  0  0  0  0
 33 35  2  0  0  0  0
 34 31  1  6  0  0  0
 34 40  1  0  0  0  0
 35 34  1  0  0  0  0
 36 32  1  0  0  0  0
 37 39  1  6  0  0  0
 40 37  1  0  0  0  0
 40 38  1  1  0  0  0
 41 42  1  6  0  0  0
 41 36  1  0  0  0  0
 41 35  1  0  0  0  0
M  END
>  <MODEL>
1

>  <REMARK>
 VINA RESULT:      -6.4      0.000      0.000
  Name = 
  14 active torsions:
  status: ('A' for Active; 'I' for Inactive)
    1  A    between atoms: C_1  and  C_7
    2  A    between atoms: C_1  and  C_27
    3  A    between atoms: C_2  and  N_20
    4  A    between atoms: C_2  and  C_22
    5  A    between atoms: C_6  and  C_26
    6  A    between atoms: C_8  and  N_29
    7  A    between atoms: N_12  and  C_25
    8  A    between atoms: C_16  and  C_19
    9  A    between atoms: C_19  and  N_20
   10  A    between atoms: N_21  and  C_38
   11  A    between atoms: C_22  and  C_27
   12  A    between atoms: C_25  and  O_41
   13  A    between atoms: S_28  and  C_38
   14  A    between atoms: S_28  and  C_39
                            x       y       z     vdW  Elec       q    Type
                         _______ _______ _______ _____ _____    ______ ____

>  <TORSDO>
F 14

$$$$
=
 OpenBabel11042419233D

 42 44  0  0  1  0  0  0  0  0999 V2000
  191.6210  176.2440  145.1260 C   0  0  0  0  0  0  0  0  0  0  0  0
  190.7780  176.4370  144.0220 C   0  0  0  0  0  3  0  0  0  0  0  0
  188.9800  177.1380  145.4940 C   0  0  0  0  0  0  0  0  0  0  0  0
  189.8210  176.9510  146.5950 C   0  0  0  0  0  3  0  0  0  0  0  0
  189.4620  176.8790  144.1970 C   0  0  0  0  0  0  0  0  0  0  0  0
  191.1320  176.5030  146.4130 C   0  0  0  0  0  3  0  0  0  0  0  0
  193.2970  174.4700  144.6940 N   0  0  0  0  0  0  0  0  0  0  0  0
  195.1860  172.9830  144.2910 N   0  0  0  0  0  2  0  0  0  0  0  0
  195.4850  175.6910  144.7630 S   0  0  0  0  0  0  0  0  0  0  0  0
  193.0090  175.7790  144.9440 C   0  0  0  0  0  0  0  0  0  0  0  0
  194.1140  176.6350  145.0220 C   0  0  0  0  0  3  0  0  0  0  0  0
  194.6220  174.2650  144.5710 C   0  0  0  0  0  0  0  0  0  0  0  0
  196.6210  172.7540  144.1940 C   0  0  1  0  0  3  0  0  0  0  0  0
  197.1300  172.1300  145.4800 C   0  0  0  0  0  1  0  0  0  0  0  0
  195.8180  170.9870  143.1340 C   0  0  0  0  0  1  0  0  0  0  0  0
  196.8810  171.8910  143.1280 O   0  0  0  0  0  0  0  0  0  0  0  0
  187.5950  177.6420  145.7280 C   0  0  0  0  0  2  0  0  0  0  0  0
  186.8030  176.6150  146.3840 N   0  0  0  0  0  2  0  0  0  0  0  0
  185.4100  176.8870  146.0730 C   0  0  0  0  0  2  0  0  0  0  0  0
  185.0650  178.3060  146.4780 C   0  0  0  0  0  2  0  0  0  0  0  0
  183.9350  178.8190  145.6050 C   0  0  0  0  0  2  0  0  0  0  0  0
  184.4390  179.1170  144.2310 C   0  0  0  0  0  0  0  0  0  0  0  0
  185.3290  179.9340  144.0670 O   0  0  0  0  0  0  0  0  0  0  0  0
  184.8240  177.5680  142.4900 O   0  0  0  0  0  1  0  0  0  0  0  0
  183.8620  178.4060  143.0530 C   0  0  0  0  0  2  0  0  0  0  0  0
  188.4260  177.1050  142.7480 S   0  0  0  0  0  0  0  0  0  0  0  0
  187.8810  175.3700  142.7570 C   0  0  0  0  0  2  0  0  0  0  0  0
  188.6700  174.5970  141.8110 N   0  0  0  0  0  2  0  0  0  0  0  0
  187.3100  172.7030  141.9380 O   0  0  0  0  0  0  0  0  0  0  0  0
  188.3010  173.2740  141.4110 C   0  0  0  0  0  0  0  0  0  0  0  0
  189.0580  172.5860  140.4160 N   0  0  0  0  0  2  0  0  0  0  0  0
  192.3190  174.1540  137.9180 C   0  0  0  0  0  2  0  0  0  0  0  0
  191.8370  172.6950  141.2650 O   0  0  0  0  0  0  0  0  0  0  0  0
  190.1540  173.2250  139.6970 C   0  0  1  0  0  3  0  0  0  0  0  0
  191.4490  172.5720  140.1110 C   0  0  0  0  0  0  0  0  0  0  0  0
  193.0770  172.8500  138.2030 C   0  0  0  0  0  2  0  0  0  0  0  0
  190.9190  173.9600  137.3190 C   0  0  1  0  0  3  0  0  0  0  0  0
  188.5070  173.6100  137.8120 C   0  0  0  0  0  1  0  0  0  0  0  0
  191.0130  173.3830  135.9160 C   0  0  0  0  0  1  0  0  0  0  0  0
  189.9150  173.1560  138.1700 C   0  0  2  0  0  3  0  0  0  0  0  0
  192.3040  171.8680  139.0860 C   0  0  1  0  0  3  0  0  0  0  0  0
  193.2520  170.8560  139.7050 C   0  0  0  0  0  1  0  0  0  0  0  0
  1  6  1  0  0  0  0
  2  5  1  0  0  0  0
  2  1  2  0  0  0  0
  3 17  1  0  0  0  0
  3  4  1  0  0  0  0
  5  3  2  0  0  0  0
  6  4  2  0  0  0  0
  7 10  1  0  0  0  0
  8 12  1  0  0  0  0
  9 11  1  0  0  0  0
 10 11  2  0  0  0  0
 10  1  1  0  0  0  0
 12  7  2  0  0  0  0
 12  9  1  0  0  0  0
 13  8  1  0  0  0  0
 13 14  1  1  0  0  0
 16 15  1  0  0  0  0
 16 13  1  0  0  0  0
 17 18  1  0  0  0  0
 19 18  1  0  0  0  0
 19 20  1  0  0  0  0
 21 20  1  0  0  0  0
 22 21  1  0  0  0  0
 23 22  2  0  0  0  0
 24 25  1  0  0  0  0
 25 22  1  0  0  0  0
 26 27  1  0  0  0  0
 26  5  1  0  0  0  0
 28 27  1  0  0  0  0
 30 28  1  0  0  0  0
 30 29  2  0  0  0  0
 31 30  1  0  0  0  0
 32 36  1  0  0  0  0
 34 35  1  0  0  0  0
 34 31  1  1  0  0  0
 35 33  2  0  0  0  0
 36 41  1  0  0  0  0
 37 39  1  6  0  0  0
 37 32  1  0  0  0  0
 37 40  1  0  0  0  0
 40 38  1  1  0  0  0
 40 34  1  0  0  0  0
 41 42  1  1  0  0  0
 41 35  1  0  0  0  0
M  END
>  <MODEL>
2

>  <REMARK>
 VINA RESULT:      -6.4      2.661      8.846
  Name = 
  14 active torsions:
  status: ('A' for Active; 'I' for Inactive)
    1  A    between atoms: C_1  and  C_7
    2  A    between atoms: C_1  and  C_27
    3  A    between atoms: C_2  and  N_20
    4  A    between atoms: C_2  and  C_22
    5  A    between atoms: C_6  and  C_26
    6  A    between atoms: C_8  and  N_29
    7  A    between atoms: N_12  and  C_25
    8  A    between atoms: C_16  and  C_19
    9  A    between atoms: C_19  and  N_20
   10  A    between atoms: N_21  and  C_38
   11  A    between atoms: C_22  and  C_27
   12  A    between atoms: C_25  and  O_41
   13  A    between atoms: S_28  and  C_38
   14  A    between atoms: S_28  and  C_39
                            x       y       z     vdW  Elec       q    Type
                         _______ _______ _______ _____ _____    ______ ____

>  <TORSDO>
F 14

$$$$
=
 OpenBabel11042419233D

 42 44  0  0  1  0  0  0  0  0999 V2000
  189.7890  173.4750  143.3650 C   0  0  0  0  0  0  0  0  0  0  0  0
  189.2120  174.7030  143.0100 C   0  0  0  0  0  3  0  0  0  0  0  0
  189.1280  175.3610  145.3440 C   0  0  0  0  0  0  0  0  0  0  0  0
  189.7080  174.1390  145.7000 C   0  0  0  0  0  3  0  0  0  0  0  0
  188.8780  175.6460  143.9880 C   0  0  0  0  0  0  0  0  0  0  0  0
  190.0330  173.2010  144.7170 C   0  0  0  0  0  3  0  0  0  0  0  0
  190.1430  172.7950  141.0080 N   0  0  0  0  0  0  0  0  0  0  0  0
  190.5780  171.8110  138.8210 N   0  0  0  0  0  2  0  0  0  0  0  0
  190.8060  170.3840  141.1780 S   0  0  0  0  0  0  0  0  0  0  0  0
  190.1430  172.4810  142.3350 C   0  0  0  0  0  0  0  0  0  0  0  0
  190.4910  171.1600  142.6410 C   0  0  0  0  0  3  0  0  0  0  0  0
  190.4870  171.7410  140.2450 C   0  0  0  0  0  0  0  0  0  0  0  0
  190.9150  170.6620  137.9920 C   0  0  1  0  0  3  0  0  0  0  0  0
  189.6480  169.9280  137.5930 C   0  0  0  0  0  1  0  0  0  0  0  0
  190.8720  170.5230  135.7860 C   0  0  0  0  0  1  0  0  0  0  0  0
  191.5780  171.0970  136.8440 O   0  0  0  0  0  0  0  0  0  0  0  0
  188.8190  176.3470  146.4200 C   0  0  0  0  0  2  0  0  0  0  0  0
  187.4520  176.1620  146.8780 N   0  0  0  0  0  2  0  0  0  0  0  0
  186.8880  177.4860  147.0810 C   0  0  0  0  0  2  0  0  0  0  0  0
  185.4790  177.5310  146.5270 C   0  0  0  0  0  2  0  0  0  0  0  0
  185.1110  178.9660  146.1990 C   0  0  0  0  0  2  0  0  0  0  0  0
  185.0890  179.1690  144.7200 C   0  0  0  0  0  0  0  0  0  0  0  0
  185.5610  180.1830  144.2330 O   0  0  0  0  0  0  0  0  0  0  0  0
  183.4420  178.6690  143.1030 O   0  0  0  0  0  1  0  0  0  0  0  0
  184.5010  178.1260  143.8310 C   0  0  0  0  0  2  0  0  0  0  0  0
  188.1370  177.2000  143.4760 S   0  0  0  0  0  0  0  0  0  0  0  0
  189.4620  177.5370  142.2760 C   0  0  0  0  0  2  0  0  0  0  0  0
  190.6970  176.9010  142.7080 N   0  0  0  0  0  2  0  0  0  0  0  0
  191.4710  178.7720  143.8730 O   0  0  0  0  0  0  0  0  0  0  0  0
  191.6440  177.5680  143.5480 C   0  0  0  0  0  0  0  0  0  0  0  0
  192.8010  176.8750  144.0170 N   0  0  0  0  0  2  0  0  0  0  0  0
  193.8550  172.6400  143.4890 C   0  0  0  0  0  2  0  0  0  0  0  0
  193.4100  175.6690  141.4430 O   0  0  0  0  0  0  0  0  0  0  0  0
  193.0110  175.4560  143.7590 C   0  0  1  0  0  3  0  0  0  0  0  0
  193.8620  175.3110  142.5220 C   0  0  0  0  0  0  0  0  0  0  0  0
  195.0860  173.1110  142.7030 C   0  0  0  0  0  2  0  0  0  0  0  0
  193.7360  173.2310  144.9010 C   0  0  1  0  0  3  0  0  0  0  0  0
  192.8820  175.1250  146.2670 C   0  0  0  0  0  1  0  0  0  0  0  0
  194.8510  172.7110  145.7940 C   0  0  0  0  0  1  0  0  0  0  0  0
  193.6370  174.7670  144.9960 C   0  0  2  0  0  3  0  0  0  0  0  0
  195.2080  174.6330  142.6030 C   0  0  1  0  0  3  0  0  0  0  0  0
  196.1290  175.0160  141.4570 C   0  0  0  0  0  1  0  0  0  0  0  0
  1  6  1  0  0  0  0
  2  1  2  0  0  0  0
  2  5  1  0  0  0  0
  3  4  1  0  0  0  0
  3 17  1  0  0  0  0
  5  3  2  0  0  0  0
  6  4  2  0  0  0  0
  7 10  1  0  0  0  0
  8 12  1  0  0  0  0
  9 11  1  0  0  0  0
 10 11  2  0  0  0  0
 10  1  1  0  0  0  0
 12  7  2  0  0  0  0
 12  9  1  0  0  0  0
 13 14  1  6  0  0  0
 13  8  1  0  0  0  0
 15 16  1  0  0  0  0
 16 13  1  0  0  0  0
 17 18  1  0  0  0  0
 18 19  1  0  0  0  0
 20 19  1  0  0  0  0
 21 20  1  0  0  0  0
 22 21  1  0  0  0  0
 23 22  2  0  0  0  0
 24 25  1  0  0  0  0
 25 22  1  0  0  0  0
 26  5  1  0  0  0  0
 27 28  1  0  0  0  0
 27 26  1  0  0  0  0
 28 30  1  0  0  0  0
 30 29  2  0  0  0  0
 30 31  1  0  0  0  0
 32 37  1  0  0  0  0
 33 35  2  0  0  0  0
 34 31  1  1  0  0  0
 34 40  1  0  0  0  0
 35 41  1  0  0  0  0
 35 34  1  0  0  0  0
 36 32  1  0  0  0  0
 37 40  1  0  0  0  0
 37 39  1  1  0  0  0
 40 38  1  1  0  0  0
 41 42  1  6  0  0  0
 41 36  1  0  0  0  0
M  END
>  <MODEL>
3

>  <REMARK>
 VINA RESULT:      -6.3      2.338      7.362
  Name = 
  14 active torsions:
  status: ('A' for Active; 'I' for Inactive)
    1  A    between atoms: C_1  and  C_7
    2  A    between atoms: C_1  and  C_27
    3  A    between atoms: C_2  and  N_20
    4  A    between atoms: C_2  and  C_22
    5  A    between atoms: C_6  and  C_26
    6  A    between atoms: C_8  and  N_29
    7  A    between atoms: N_12  and  C_25
    8  A    between atoms: C_16  and  C_19
    9  A    between atoms: C_19  and  N_20
   10  A    between atoms: N_21  and  C_38
   11  A    between atoms: C_22  and  C_27
   12  A    between atoms: C_25  and  O_41
   13  A    between atoms: S_28  and  C_38
   14  A    between atoms: S_28  and  C_39
                            x       y       z     vdW  Elec       q    Type
                         _______ _______ _______ _____ _____    ______ ____

>  <TORSDO>
F 14

$$$$
=
 OpenBabel11042419233D

 42 44  0  0  1  0  0  0  0  0999 V2000
  190.6160  176.0270  144.4820 C   0  0  0  0  0  0  0  0  0  0  0  0
  189.9550  175.0430  143.7320 C   0  0  0  0  0  3  0  0  0  0  0  0
  188.0650  176.5300  143.4110 C   0  0  0  0  0  0  0  0  0  0  0  0
  188.7240  177.5140  144.1540 C   0  0  0  0  0  3  0  0  0  0  0  0
  188.6840  175.2840  143.1980 C   0  0  0  0  0  0  0  0  0  0  0  0
  189.9900  177.2630  144.6890 C   0  0  0  0  0  3  0  0  0  0  0  0
  192.7250  174.7330  144.6180 N   0  0  0  0  0  0  0  0  0  0  0  0
  194.8980  173.6950  144.9970 N   0  0  0  0  0  2  0  0  0  0  0  0
  194.0380  175.9220  146.3920 S   0  0  0  0  0  0  0  0  0  0  0  0
  191.9560  175.7740  145.0450 C   0  0  0  0  0  0  0  0  0  0  0  0
  192.5210  176.5690  146.0490 C   0  0  0  0  0  3  0  0  0  0  0  0
  193.9030  174.6830  145.2690 C   0  0  0  0  0  0  0  0  0  0  0  0
  196.1570  173.6180  145.7260 C   0  0  1  0  0  3  0  0  0  0  0  0
  196.6640  172.1870  145.7260 C   0  0  0  0  0  1  0  0  0  0  0  0
  197.9150  173.5700  144.3870 C   0  0  0  0  0  1  0  0  0  0  0  0
  197.1000  174.4420  145.1100 O   0  0  0  0  0  0  0  0  0  0  0  0
  186.7250  176.8460  142.8350 C   0  0  0  0  0  2  0  0  0  0  0  0
  186.6740  178.2470  142.4500 N   0  0  0  0  0  2  0  0  0  0  0  0
  185.3430  178.7300  142.7770 C   0  0  0  0  0  2  0  0  0  0  0  0
  185.4060  179.6000  144.0170 C   0  0  0  0  0  2  0  0  0  0  0  0
  184.4880  179.0280  145.0800 C   0  0  0  0  0  2  0  0  0  0  0  0
  185.2890  178.4970  146.2240 C   0  0  0  0  0  0  0  0  0  0  0  0
  185.7820  179.2630  147.0360 O   0  0  0  0  0  0  0  0  0  0  0  0
  186.3060  176.7740  147.4780 O   0  0  0  0  0  1  0  0  0  0  0  0
  185.4800  177.0270  146.3840 C   0  0  0  0  0  2  0  0  0  0  0  0
  187.8830  173.9870  142.2490 S   0  0  0  0  0  0  0  0  0  0  0  0
  188.5220  174.6250  140.6700 C   0  0  0  0  0  2  0  0  0  0  0  0
  189.9140  174.2380  140.5050 N   0  0  0  0  0  2  0  0  0  0  0  0
  189.4510  172.5220  138.9900 O   0  0  0  0  0  0  0  0  0  0  0  0
  190.3160  173.1980  139.6090 C   0  0  0  0  0  0  0  0  0  0  0  0
  191.7000  172.9100  139.4150 N   0  0  0  0  0  2  0  0  0  0  0  0
  195.1830  175.1080  140.9550 C   0  0  0  0  0  2  0  0  0  0  0  0
  192.6880  172.6720  142.1390 O   0  0  0  0  0  0  0  0  0  0  0  0
  192.7510  173.7170  140.0240 C   0  0  1  0  0  3  0  0  0  0  0  0
  193.3670  172.9330  141.1560 C   0  0  0  0  0  0  0  0  0  0  0  0
  195.7320  173.7630  141.4480 C   0  0  0  0  0  2  0  0  0  0  0  0
  194.8500  175.1500  139.4570 C   0  0  1  0  0  3  0  0  0  0  0  0
  193.1140  174.7230  137.7280 C   0  0  0  0  0  1  0  0  0  0  0  0
  196.1170  175.0480  138.6240 C   0  0  0  0  0  1  0  0  0  0  0  0
  193.7920  174.1440  138.9610 C   0  0  2  0  0  3  0  0  0  0  0  0
  194.8320  172.5710  141.1180 C   0  0  1  0  0  3  0  0  0  0  0  0
  195.1690  171.3890  142.0120 C   0  0  0  0  0  1  0  0  0  0  0  0
  1  6  1  0  0  0  0
  1 10  1  0  0  0  0
  2  1  2  0  0  0  0
  3  4  1  0  0  0  0
  4  6  2  0  0  0  0
  5  3  2  0  0  0  0
  5  2  1  0  0  0  0
  7 10  1  0  0  0  0
  7 12  2  0  0  0  0
  8 12  1  0  0  0  0
  8 13  1  0  0  0  0
 10 11  2  0  0  0  0
 11  9  1  0  0  0  0
 12  9  1  0  0  0  0
 13 14  1  6  0  0  0
 15 16  1  0  0  0  0
 16 13  1  0  0  0  0
 17  3  1  0  0  0  0
 18 19  1  0  0  0  0
 18 17  1  0  0  0  0
 19 20  1  0  0  0  0
 20 21  1  0  0  0  0
 21 22  1  0  0  0  0
 22 25  1  0  0  0  0
 22 23  2  0  0  0  0
 25 24  1  0  0  0  0
 26  5  1  0  0  0  0
 27 26  1  0  0  0  0
 28 27  1  0  0  0  0
 29 30  2  0  0  0  0
 30 28  1  0  0  0  0
 31 30  1  0  0  0  0
 32 36  1  0  0  0  0
 34 31  1  6  0  0  0
 34 35  1  0  0  0  0
 35 33  2  0  0  0  0
 37 39  1  6  0  0  0
 37 32  1  0  0  0  0
 40 38  1  6  0  0  0
 40 37  1  0  0  0  0
 40 34  1  0  0  0  0
 41 35  1  0  0  0  0
 41 36  1  0  0  0  0
 41 42  1  1  0  0  0
M  END
>  <MODEL>
4

>  <REMARK>
 VINA RESULT:      -6.3      2.491      9.473
  Name = 
  14 active torsions:
  status: ('A' for Active; 'I' for Inactive)
    1  A    between atoms: C_1  and  C_7
    2  A    between atoms: C_1  and  C_27
    3  A    between atoms: C_2  and  N_20
    4  A    between atoms: C_2  and  C_22
    5  A    between atoms: C_6  and  C_26
    6  A    between atoms: C_8  and  N_29
    7  A    between atoms: N_12  and  C_25
    8  A    between atoms: C_16  and  C_19
    9  A    between atoms: C_19  and  N_20
   10  A    between atoms: N_21  and  C_38
   11  A    between atoms: C_22  and  C_27
   12  A    between atoms: C_25  and  O_41
   13  A    between atoms: S_28  and  C_38
   14  A    between atoms: S_28  and  C_39
                            x       y       z     vdW  Elec       q    Type
                         _______ _______ _______ _____ _____    ______ ____

>  <TORSDO>
F 14

$$$$
=
 OpenBabel11042419233D

 42 44  0  0  1  0  0  0  0  0999 V2000
  188.8940  173.8820  141.0030 C   0  0  0  0  0  0  0  0  0  0  0  0
  189.5860  172.7680  141.5020 C   0  0  0  0  0  3  0  0  0  0  0  0
  189.5930  171.7610  139.2940 C   0  0  0  0  0  0  0  0  0  0  0  0
  188.9080  172.8730  138.7950 C   0  0  0  0  0  3  0  0  0  0  0  0
  189.9350  171.7070  140.6590 C   0  0  0  0  0  0  0  0  0  0  0  0
  188.5570  173.9240  139.6440 C   0  0  0  0  0  3  0  0  0  0  0  0
  187.2450  175.1810  142.3210 N   0  0  0  0  0  0  0  0  0  0  0  0
  185.8950  176.6640  143.7060 N   0  0  0  0  0  2  0  0  0  0  0  0
  188.6050  177.0380  143.3110 S   0  0  0  0  0  0  0  0  0  0  0  0
  188.5260  175.0010  141.8910 C   0  0  0  0  0  0  0  0  0  0  0  0
  189.4510  175.9500  142.3410 C   0  0  0  0  0  3  0  0  0  0  0  0
  187.1310  176.2640  143.1120 C   0  0  0  0  0  0  0  0  0  0  0  0
  185.7630  177.8560  144.5320 C   0  0  1  0  0  3  0  0  0  0  0  0
  185.3200  179.0280  143.6750 C   0  0  0  0  0  1  0  0  0  0  0  0
  184.5910  178.8790  146.1020 C   0  0  0  0  0  1  0  0  0  0  0  0
  184.8120  177.6270  145.5280 O   0  0  0  0  0  0  0  0  0  0  0  0
  189.9720  170.6700  138.3490 C   0  0  0  0  0  2  0  0  0  0  0  0
  191.0070  171.1410  137.4450 N   0  0  0  0  0  2  0  0  0  0  0  0
  190.5620  170.8410  136.0940 C   0  0  0  0  0  2  0  0  0  0  0  0
  189.9570  172.0820  135.4690 C   0  0  0  0  0  2  0  0  0  0  0  0
  191.0530  173.0940  135.1950 C   0  0  0  0  0  2  0  0  0  0  0  0
  190.7410  174.3900  135.8690 C   0  0  0  0  0  0  0  0  0  0  0  0
  191.3270  174.7070  136.8910 O   0  0  0  0  0  0  0  0  0  0  0  0
  188.5270  175.2000  136.0030 O   0  0  0  0  0  1  0  0  0  0  0  0
  189.7180  175.3070  135.2870 C   0  0  0  0  0  2  0  0  0  0  0  0
  190.8170  170.3050  141.3520 S   0  0  0  0  0  0  0  0  0  0  0  0
  192.3820  171.2260  141.4530 C   0  0  0  0  0  2  0  0  0  0  0  0
  192.3800  172.0800  142.6300 N   0  0  0  0  0  2  0  0  0  0  0  0
  193.1670  170.4170  144.0680 O   0  0  0  0  0  0  0  0  0  0  0  0
  192.8300  171.6200  143.9080 C   0  0  0  0  0  0  0  0  0  0  0  0
  192.8910  172.5180  145.0150 N   0  0  0  0  0  2  0  0  0  0  0  0
  192.1920  176.8580  145.0540 C   0  0  0  0  0  2  0  0  0  0  0  0
  190.2590  173.7340  144.7960 O   0  0  0  0  0  0  0  0  0  0  0  0
  192.6090  173.9410  144.8740 C   0  0  1  0  0  3  0  0  0  0  0  0
  191.2170  174.2110  145.3890 C   0  0  0  0  0  0  0  0  0  0  0  0
  191.1490  176.6150  146.1540 C   0  0  0  0  0  2  0  0  0  0  0  0
  193.5880  176.3040  145.3660 C   0  0  1  0  0  3  0  0  0  0  0  0
  195.0880  174.3240  145.2280 C   0  0  0  0  0  1  0  0  0  0  0  0
  194.2210  177.0640  146.5190 C   0  0  0  0  0  1  0  0  0  0  0  0
  193.6860  174.7820  145.6010 C   0  0  2  0  0  3  0  0  0  0  0  0
  191.0080  175.1450  146.5560 C   0  0  1  0  0  3  0  0  0  0  0  0
  189.6840  174.9150  147.2640 C   0  0  0  0  0  1  0  0  0  0  0  0
  1  2  1  0  0  0  0
  1 10  1  0  0  0  0
  3  5  1  0  0  0  0
  4  3  2  0  0  0  0
  4  6  1  0  0  0  0
  5 26  1  0  0  0  0
  5  2  2  0  0  0  0
  6  1  2  0  0  0  0
  7 12  2  0  0  0  0
  8 13  1  0  0  0  0
 10  7  1  0  0  0  0
 10 11  2  0  0  0  0
 11  9  1  0  0  0  0
 12  9  1  0  0  0  0
 12  8  1  0  0  0  0
 13 14  1  6  0  0  0
 13 16  1  0  0  0  0
 16 15  1  0  0  0  0
 17  3  1  0  0  0  0
 18 17  1  0  0  0  0
 19 18  1  0  0  0  0
 20 19  1  0  0  0  0
 21 20  1  0  0  0  0
 21 22  1  0  0  0  0
 22 23  2  0  0  0  0
 25 22  1  0  0  0  0
 25 24  1  0  0  0  0
 26 27  1  0  0  0  0
 27 28  1  0  0  0  0
 28 30  1  0  0  0  0
 30 29  2  0  0  0  0
 30 31  1  0  0  0  0
 32 37  1  0  0  0  0
 32 36  1  0  0  0  0
 33 35  2  0  0  0  0
 34 31  1  1  0  0  0
 34 35  1  0  0  0  0
 34 40  1  0  0  0  0
 35 41  1  0  0  0  0
 36 41  1  0  0  0  0
 37 40  1  0  0  0  0
 37 39  1  1  0  0  0
 40 38  1  6  0  0  0
 41 42  1  6  0  0  0
M  END
>  <MODEL>
5

>  <REMARK>
 VINA RESULT:      -6.2      2.673      7.779
  Name = 
  14 active torsions:
  status: ('A' for Active; 'I' for Inactive)
    1  A    between atoms: C_1  and  C_7
    2  A    between atoms: C_1  and  C_27
    3  A    between atoms: C_2  and  N_20
    4  A    between atoms: C_2  and  C_22
    5  A    between atoms: C_6  and  C_26
    6  A    between atoms: C_8  and  N_29
    7  A    between atoms: N_12  and  C_25
    8  A    between atoms: C_16  and  C_19
    9  A    between atoms: C_19  and  N_20
   10  A    between atoms: N_21  and  C_38
   11  A    between atoms: C_22  and  C_27
   12  A    between atoms: C_25  and  O_41
   13  A    between atoms: S_28  and  C_38
   14  A    between atoms: S_28  and  C_39
                            x       y       z     vdW  Elec       q    Type
                         _______ _______ _______ _____ _____    ______ ____

>  <TORSDO>
F 14

$$$$
=
 OpenBabel11042419233D

 42 44  0  0  1  0  0  0  0  0999 V2000
  192.1110  175.6920  145.8020 C   0  0  0  0  0  0  0  0  0  0  0  0
  191.4100  176.1200  144.6650 C   0  0  0  0  0  3  0  0  0  0  0  0
  189.5850  176.9000  146.0610 C   0  0  0  0  0  0  0  0  0  0  0  0
  190.2850  176.4790  147.1960 C   0  0  0  0  0  3  0  0  0  0  0  0
  190.1520  176.7190  144.7850 C   0  0  0  0  0  0  0  0  0  0  0  0
  191.5380  175.8750  147.0670 C   0  0  0  0  0  3  0  0  0  0  0  0
  193.5960  173.7080  145.7430 N   0  0  0  0  0  0  0  0  0  0  0  0
  195.3180  171.9870  145.6320 N   0  0  0  0  0  2  0  0  0  0  0  0
  195.8800  174.6850  145.4130 S   0  0  0  0  0  0  0  0  0  0  0  0
  193.4390  175.0610  145.6770 C   0  0  0  0  0  0  0  0  0  0  0  0
  194.6160  175.7950  145.4940 C   0  0  0  0  0  3  0  0  0  0  0  0
  194.8870  173.3480  145.6140 C   0  0  0  0  0  0  0  0  0  0  0  0
  196.7180  171.5990  145.5300 C   0  0  1  0  0  3  0  0  0  0  0  0
  196.8970  170.1810  146.0420 C   0  0  0  0  0  1  0  0  0  0  0  0
  197.0670  170.3420  143.7450 C   0  0  0  0  0  1  0  0  0  0  0  0
  197.1200  171.6610  144.1950 O   0  0  0  0  0  0  0  0  0  0  0  0
  188.2610  177.5630  146.2420 C   0  0  0  0  0  2  0  0  0  0  0  0
  187.4950  176.8620  147.2580 N   0  0  0  0  0  2  0  0  0  0  0  0
  186.1360  177.3730  147.1970 C   0  0  0  0  0  2  0  0  0  0  0  0
  185.5270  177.0450  145.8490 C   0  0  0  0  0  2  0  0  0  0  0  0
  184.5330  178.1260  145.4680 C   0  0  0  0  0  2  0  0  0  0  0  0
  184.9080  178.7340  144.1560 C   0  0  0  0  0  0  0  0  0  0  0  0
  185.7660  179.5990  144.1040 O   0  0  0  0  0  0  0  0  0  0  0  0
  185.1330  177.5170  142.1450 O   0  0  0  0  0  1  0  0  0  0  0  0
  184.2420  178.2760  142.9030 C   0  0  0  0  0  2  0  0  0  0  0  0
  189.2980  177.2440  143.2950 S   0  0  0  0  0  0  0  0  0  0  0  0
  188.3660  175.6870  143.1740 C   0  0  0  0  0  2  0  0  0  0  0  0
  189.2110  174.6440  142.6130 N   0  0  0  0  0  2  0  0  0  0  0  0
  188.3680  174.8670  140.4460 O   0  0  0  0  0  0  0  0  0  0  0  0
  189.1920  174.3130  141.2220 C   0  0  0  0  0  0  0  0  0  0  0  0
  190.1000  173.3430  140.7010 N   0  0  0  0  0  2  0  0  0  0  0  0
  193.4250  171.3350  142.7620 C   0  0  0  0  0  2  0  0  0  0  0  0
  189.7530  171.1380  142.5640 O   0  0  0  0  0  0  0  0  0  0  0  0
  191.1410  172.7370  141.5220 C   0  0  1  0  0  3  0  0  0  0  0  0
  190.7320  171.3250  141.8560 C   0  0  0  0  0  0  0  0  0  0  0  0
  192.8450  170.0050  142.2630 C   0  0  0  0  0  2  0  0  0  0  0  0
  193.7140  172.3590  141.6550 C   0  0  1  0  0  3  0  0  0  0  0  0
  192.7840  174.2070  140.2750 C   0  0  0  0  0  1  0  0  0  0  0  0
  194.8490  171.8790  140.7660 C   0  0  0  0  0  1  0  0  0  0  0  0
  192.5100  172.8070  140.8030 C   0  0  2  0  0  3  0  0  0  0  0  0
  191.5860  170.1630  141.4080 C   0  0  1  0  0  3  0  0  0  0  0  0
  190.8160  168.8540  141.3530 C   0  0  0  0  0  1  0  0  0  0  0  0
  1  6  1  0  0  0  0
  2  5  1  0  0  0  0
  2  1  2  0  0  0  0
  3 17  1  0  0  0  0
  3  4  1  0  0  0  0
  5  3  2  0  0  0  0
  6  4  2  0  0  0  0
  9 11  1  0  0  0  0
  9 12  1  0  0  0  0
 10  7  1  0  0  0  0
 10  1  1  0  0  0  0
 11 10  2  0  0  0  0
 12  8  1  0  0  0  0
 12  7  2  0  0  0  0
 13  8  1  0  0  0  0
 13 14  1  6  0  0  0
 15 16  1  0  0  0  0
 16 13  1  0  0  0  0
 17 18  1  0  0  0  0
 19 18  1  0  0  0  0
 20 19  1  0  0  0  0
 21 20  1  0  0  0  0
 22 21  1  0  0  0  0
 23 22  2  0  0  0  0
 24 25  1  0  0  0  0
 25 22  1  0  0  0  0
 26  5  1  0  0  0  0
 27 26  1  0  0  0  0
 28 27  1  0  0  0  0
 29 30  2  0  0  0  0
 30 28  1  0  0  0  0
 31 30  1  0  0  0  0
 34 31  1  6  0  0  0
 34 35  1  0  0  0  0
 35 33  2  0  0  0  0
 36 32  1  0  0  0  0
 37 39  1  6  0  0  0
 37 32  1  0  0  0  0
 40 38  1  1  0  0  0
 40 34  1  0  0  0  0
 40 37  1  0  0  0  0
 41 42  1  1  0  0  0
 41 35  1  0  0  0  0
 41 36  1  0  0  0  0
M  END
>  <MODEL>
6

>  <REMARK>
 VINA RESULT:      -6.2      3.088      8.915
  Name = 
  14 active torsions:
  status: ('A' for Active; 'I' for Inactive)
    1  A    between atoms: C_1  and  C_7
    2  A    between atoms: C_1  and  C_27
    3  A    between atoms: C_2  and  N_20
    4  A    between atoms: C_2  and  C_22
    5  A    between atoms: C_6  and  C_26
    6  A    between atoms: C_8  and  N_29
    7  A    between atoms: N_12  and  C_25
    8  A    between atoms: C_16  and  C_19
    9  A    between atoms: C_19  and  N_20
   10  A    between atoms: N_21  and  C_38
   11  A    between atoms: C_22  and  C_27
   12  A    between atoms: C_25  and  O_41
   13  A    between atoms: S_28  and  C_38
   14  A    between atoms: S_28  and  C_39
                            x       y       z     vdW  Elec       q    Type
                         _______ _______ _______ _____ _____    ______ ____

>  <TORSDO>
F 14

$$$$
=
 OpenBabel11042419233D

 42 44  0  0  1  0  0  0  0  0999 V2000
  193.9470  174.9040  140.9800 C   0  0  0  0  0  0  0  0  0  0  0  0
  193.0860  175.4820  141.9240 C   0  0  0  0  0  3  0  0  0  0  0  0
  194.8990  175.6040  143.5310 C   0  0  0  0  0  0  0  0  0  0  0  0
  195.7600  175.0320  142.5900 C   0  0  0  0  0  3  0  0  0  0  0  0
  193.5510  175.8310  143.1970 C   0  0  0  0  0  0  0  0  0  0  0  0
  195.2860  174.6810  141.3240 C   0  0  0  0  0  3  0  0  0  0  0  0
  192.2900  173.8540  139.4640 N   0  0  0  0  0  0  0  0  0  0  0  0
  190.8710  172.9320  137.7100 N   0  0  0  0  0  2  0  0  0  0  0  0
  193.2470  174.2410  137.1800 S   0  0  0  0  0  0  0  0  0  0  0  0
  193.4580  174.5370  139.6370 C   0  0  0  0  0  0  0  0  0  0  0  0
  194.1520  174.8510  138.4630 C   0  0  0  0  0  3  0  0  0  0  0  0
  192.0400  173.6170  138.1620 C   0  0  0  0  0  0  0  0  0  0  0  0
  190.6170  172.6420  136.3060 C   0  0  1  0  0  3  0  0  0  0  0  0
  190.8380  171.1650  136.0380 C   0  0  0  0  0  1  0  0  0  0  0  0
  189.2950  174.3660  135.8960 C   0  0  0  0  0  1  0  0  0  0  0  0
  189.2970  172.9750  135.9950 O   0  0  0  0  0  0  0  0  0  0  0  0
  195.4500  175.9880  144.8640 C   0  0  0  0  0  2  0  0  0  0  0  0
  195.4760  174.8280  145.7380 N   0  0  0  0  0  2  0  0  0  0  0  0
  196.7550  174.1680  145.5340 C   0  0  0  0  0  2  0  0  0  0  0  0
  196.7080  172.7710  146.1180 C   0  0  0  0  0  2  0  0  0  0  0  0
  196.2040  171.8010  145.0660 C   0  0  0  0  0  2  0  0  0  0  0  0
  194.8940  171.2180  145.4860 C   0  0  0  0  0  0  0  0  0  0  0  0
  194.8630  170.2350  146.2070 O   0  0  0  0  0  0  0  0  0  0  0  0
  193.7600  172.3180  143.7310 O   0  0  0  0  0  1  0  0  0  0  0  0
  193.6180  171.8450  145.0350 C   0  0  0  0  0  2  0  0  0  0  0  0
  192.4030  176.5640  144.3670 S   0  0  0  0  0  0  0  0  0  0  0  0
  191.5170  177.4730  143.0640 C   0  0  0  0  0  2  0  0  0  0  0  0
  190.0880  177.4590  143.3330 N   0  0  0  0  0  2  0  0  0  0  0  0
  189.8650  175.1540  143.0290 O   0  0  0  0  0  0  0  0  0  0  0  0
  189.3250  176.2480  143.3410 C   0  0  0  0  0  0  0  0  0  0  0  0
  187.9430  176.2720  143.6950 N   0  0  0  0  0  2  0  0  0  0  0  0
  185.5800  179.6460  145.2330 C   0  0  0  0  0  2  0  0  0  0  0  0
  186.8750  178.3960  142.0200 O   0  0  0  0  0  0  0  0  0  0  0  0
  187.2830  177.4860  144.1600 C   0  0  1  0  0  3  0  0  0  0  0  0
  186.3800  177.9940  143.0640 C   0  0  0  0  0  0  0  0  0  0  0  0
  184.5300  179.3140  144.1640 C   0  0  0  0  0  2  0  0  0  0  0  0
  185.9390  178.4750  146.1590 C   0  0  1  0  0  3  0  0  0  0  0  0
  187.4050  176.4930  146.4870 C   0  0  0  0  0  1  0  0  0  0  0  0
  184.7560  178.1060  147.0380 C   0  0  0  0  0  1  0  0  0  0  0  0
  186.5230  177.2190  145.4810 C   0  0  2  0  0  3  0  0  0  0  0  0
  184.8920  178.1050  143.2980 C   0  0  1  0  0  3  0  0  0  0  0  0
  184.0930  178.1210  142.0060 C   0  0  0  0  0  1  0  0  0  0  0  0
  1  6  2  0  0  0  0
  1  2  1  0  0  0  0
  2  5  2  0  0  0  0
  3 17  1  0  0  0  0
  4  3  2  0  0  0  0
  5  3  1  0  0  0  0
  5 26  1  0  0  0  0
  6  4  1  0  0  0  0
  7 10  1  0  0  0  0
  8 12  1  0  0  0  0
  9 12  1  0  0  0  0
  9 11  1  0  0  0  0
 10  1  1  0  0  0  0
 11 10  2  0  0  0  0
 12  7  2  0  0  0  0
 13 14  1  1  0  0  0
 13  8  1  0  0  0  0
 15 16  1  0  0  0  0
 16 13  1  0  0  0  0
 17 18  1  0  0  0  0
 19 18  1  0  0  0  0
 19 20  1  0  0  0  0
 21 22  1  0  0  0  0
 21 20  1  0  0  0  0
 22 23  2  0  0  0  0
 24 25  1  0  0  0  0
 25 22  1  0  0  0  0
 27 28  1  0  0  0  0
 27 26  1  0  0  0  0
 28 30  1  0  0  0  0
 29 30  2  0  0  0  0
 30 31  1  0  0  0  0
 32 37  1  0  0  0  0
 33 35  2  0  0  0  0
 34 31  1  6  0  0  0
 34 40  1  0  0  0  0
 35 41  1  0  0  0  0
 35 34  1  0  0  0  0
 36 32  1  0  0  0  0
 37 39  1  6  0  0  0
 40 37  1  0  0  0  0
 40 38  1  1  0  0  0
 41 42  1  6  0  0  0
 41 36  1  0  0  0  0
M  END
>  <MODEL>
7

>  <REMARK>
 VINA RESULT:      -6.2      2.274      3.125
  Name = 
  14 active torsions:
  status: ('A' for Active; 'I' for Inactive)
    1  A    between atoms: C_1  and  C_7
    2  A    between atoms: C_1  and  C_27
    3  A    between atoms: C_2  and  N_20
    4  A    between atoms: C_2  and  C_22
    5  A    between atoms: C_6  and  C_26
    6  A    between atoms: C_8  and  N_29
    7  A    between atoms: N_12  and  C_25
    8  A    between atoms: C_16  and  C_19
    9  A    between atoms: C_19  and  N_20
   10  A    between atoms: N_21  and  C_38
   11  A    between atoms: C_22  and  C_27
   12  A    between atoms: C_25  and  O_41
   13  A    between atoms: S_28  and  C_38
   14  A    between atoms: S_28  and  C_39
                            x       y       z     vdW  Elec       q    Type
                         _______ _______ _______ _____ _____    ______ ____

>  <TORSDO>
F 14

$$$$
=
 OpenBabel11042419233D

 42 44  0  0  1  0  0  0  0  0999 V2000
  191.8090  173.1550  142.9600 C   0  0  0  0  0  0  0  0  0  0  0  0
  191.9920  174.1980  143.8790 C   0  0  0  0  0  3  0  0  0  0  0  0
  193.9530  173.0870  144.7780 C   0  0  0  0  0  0  0  0  0  0  0  0
  193.7760  172.0490  143.8590 C   0  0  0  0  0  3  0  0  0  0  0  0
  193.0550  174.1710  144.7890 C   0  0  0  0  0  0  0  0  0  0  0  0
  192.7090  172.0810  142.9580 C   0  0  0  0  0  3  0  0  0  0  0  0
  190.8730  173.5500  140.6990 N   0  0  0  0  0  0  0  0  0  0  0  0
  189.6440  173.8380  138.6140 N   0  0  0  0  0  2  0  0  0  0  0  0
  188.4370  173.0240  140.9640 S   0  0  0  0  0  0  0  0  0  0  0  0
  190.6900  173.1830  141.9990 C   0  0  0  0  0  0  0  0  0  0  0  0
  189.3780  172.8470  142.3510 C   0  0  0  0  0  3  0  0  0  0  0  0
  189.7210  173.5130  140.0030 C   0  0  0  0  0  0  0  0  0  0  0  0
  188.3930  173.8330  137.8690 C   0  0  1  0  0  3  0  0  0  0  0  0
  187.6670  175.1500  138.0760 C   0  0  0  0  0  1  0  0  0  0  0  0
  190.0530  173.7440  136.4110 C   0  0  0  0  0  1  0  0  0  0  0  0
  188.6630  173.6650  136.5100 O   0  0  0  0  0  0  0  0  0  0  0  0
  195.1200  173.0290  145.7070 C   0  0  0  0  0  2  0  0  0  0  0  0
  196.3570  173.0860  144.9460 N   0  0  0  0  0  2  0  0  0  0  0  0
  196.9010  174.4230  145.1140 C   0  0  0  0  0  2  0  0  0  0  0  0
  197.1410  175.0510  143.7570 C   0  0  0  0  0  2  0  0  0  0  0  0
  196.0130  176.0150  143.4400 C   0  0  0  0  0  2  0  0  0  0  0  0
  195.5510  175.8240  142.0320 C   0  0  0  0  0  0  0  0  0  0  0  0
  195.4350  176.7830  141.2880 O   0  0  0  0  0  0  0  0  0  0  0  0
  196.1180  174.1210  140.4970 O   0  0  0  0  0  1  0  0  0  0  0  0
  195.2390  174.4550  141.5280 C   0  0  0  0  0  2  0  0  0  0  0  0
  193.2380  175.5320  145.9470 S   0  0  0  0  0  0  0  0  0  0  0  0
  191.9210  174.9030  147.0320 C   0  0  0  0  0  2  0  0  0  0  0  0
  190.6730  175.5960  146.7510 N   0  0  0  0  0  2  0  0  0  0  0  0
  191.1730  177.4320  148.1050 O   0  0  0  0  0  0  0  0  0  0  0  0
  190.3800  176.8880  147.2910 C   0  0  0  0  0  0  0  0  0  0  0  0
  189.1820  177.5680  146.9200 N   0  0  0  0  0  2  0  0  0  0  0  0
  186.3760  176.4360  143.7300 C   0  0  0  0  0  2  0  0  0  0  0  0
  186.5590  176.4120  147.4080 O   0  0  0  0  0  0  0  0  0  0  0  0
  188.2720  177.0390  145.9110 C   0  0  1  0  0  3  0  0  0  0  0  0
  186.8640  177.1050  146.4480 C   0  0  0  0  0  0  0  0  0  0  0  0
  185.3090  177.2580  144.4660 C   0  0  0  0  0  2  0  0  0  0  0  0
  187.6540  177.2120  143.3870 C   0  0  1  0  0  3  0  0  0  0  0  0
  189.9030  177.9180  144.1830 C   0  0  0  0  0  1  0  0  0  0  0  0
  187.3670  178.2840  142.3490 C   0  0  0  0  0  1  0  0  0  0  0  0
  188.4370  177.8060  144.5770 C   0  0  2  0  0  3  0  0  0  0  0  0
  185.8210  177.9350  145.7390 C   0  0  1  0  0  3  0  0  0  0  0  0
  184.6590  178.3140  146.6410 C   0  0  0  0  0  1  0  0  0  0  0  0
  1  2  1  0  0  0  0
  2  5  2  0  0  0  0
  3  5  1  0  0  0  0
  3 17  1  0  0  0  0
  4  3  2  0  0  0  0
  5 26  1  0  0  0  0
  6  1  2  0  0  0  0
  6  4  1  0  0  0  0
  7 10  1  0  0  0  0
  8 12  1  0  0  0  0
  9 11  1  0  0  0  0
 10 11  2  0  0  0  0
 10  1  1  0  0  0  0
 12  7  2  0  0  0  0
 12  9  1  0  0  0  0
 13 14  1  6  0  0  0
 13  8  1  0  0  0  0
 15 16  1  0  0  0  0
 16 13  1  0  0  0  0
 18 19  1  0  0  0  0
 18 17  1  0  0  0  0
 20 19  1  0  0  0  0
 21 20  1  0  0  0  0
 22 21  1  0  0  0  0
 23 22  2  0  0  0  0
 24 25  1  0  0  0  0
 25 22  1  0  0  0  0
 26 27  1  0  0  0  0
 28 27  1  0  0  0  0
 28 30  1  0  0  0  0
 30 29  2  0  0  0  0
 31 30  1  0  0  0  0
 32 36  1  0  0  0  0
 34 35  1  0  0  0  0
 34 31  1  1  0  0  0
 35 33  2  0  0  0  0
 36 41  1  0  0  0  0
 37 39  1  6  0  0  0
 37 32  1  0  0  0  0
 37 40  1  0  0  0  0
 40 38  1  6  0  0  0
 40 34  1  0  0  0  0
 41 35  1  0  0  0  0
 41 42  1  1  0  0  0
M  END
>  <MODEL>
8

>  <REMARK>
 VINA RESULT:      -6.2      1.673      2.450
  Name = 
  14 active torsions:
  status: ('A' for Active; 'I' for Inactive)
    1  A    between atoms: C_1  and  C_7
    2  A    between atoms: C_1  and  C_27
    3  A    between atoms: C_2  and  N_20
    4  A    between atoms: C_2  and  C_22
    5  A    between atoms: C_6  and  C_26
    6  A    between atoms: C_8  and  N_29
    7  A    between atoms: N_12  and  C_25
    8  A    between atoms: C_16  and  C_19
    9  A    between atoms: C_19  and  N_20
   10  A    between atoms: N_21  and  C_38
   11  A    between atoms: C_22  and  C_27
   12  A    between atoms: C_25  and  O_41
   13  A    between atoms: S_28  and  C_38
   14  A    between atoms: S_28  and  C_39
                            x       y       z     vdW  Elec       q    Type
                         _______ _______ _______ _____ _____    ______ ____

>  <TORSDO>
F 14

$$$$
=
 OpenBabel11042419233D

 42 44  0  0  1  0  0  0  0  0999 V2000
  193.0810  174.9410  145.6410 C   0  0  0  0  0  0  0  0  0  0  0  0
  192.4180  175.1930  144.4310 C   0  0  0  0  0  3  0  0  0  0  0  0
  190.8010  176.5860  145.5850 C   0  0  0  0  0  0  0  0  0  0  0  0
  191.4630  176.3390  146.7920 C   0  0  0  0  0  3  0  0  0  0  0  0
  191.2810  176.0080  144.3950 C   0  0  0  0  0  0  0  0  0  0  0  0
  192.5940  175.5200  146.8200 C   0  0  0  0  0  3  0  0  0  0  0  0
  194.1860  172.7230  145.6750 N   0  0  0  0  0  0  0  0  0  0  0  0
  195.5770  170.7210  145.7140 N   0  0  0  0  0  2  0  0  0  0  0  0
  196.6290  173.2780  145.7750 S   0  0  0  0  0  0  0  0  0  0  0  0
  194.2800  174.0830  145.6810 C   0  0  0  0  0  0  0  0  0  0  0  0
  195.5810  174.5970  145.7350 C   0  0  0  0  0  3  0  0  0  0  0  0
  195.3990  172.1390  145.7240 C   0  0  0  0  0  0  0  0  0  0  0  0
  196.8850  170.0880  145.8040 C   0  0  1  0  0  3  0  0  0  0  0  0
  196.9550  169.2280  147.0530 C   0  0  0  0  0  1  0  0  0  0  0  0
  197.7200  170.1240  143.7570 C   0  0  0  0  0  1  0  0  0  0  0  0
  197.0910  169.2870  144.6800 O   0  0  0  0  0  0  0  0  0  0  0  0
  189.6120  177.4870  145.5920 C   0  0  0  0  0  2  0  0  0  0  0  0
  188.7890  177.2070  146.7570 N   0  0  0  0  0  2  0  0  0  0  0  0
  187.7480  176.2870  146.3320 C   0  0  0  0  0  2  0  0  0  0  0  0
  186.3950  176.8110  146.7690 C   0  0  0  0  0  2  0  0  0  0  0  0
  185.5510  177.1110  145.5450 C   0  0  0  0  0  2  0  0  0  0  0  0
  184.7820  178.3760  145.7450 C   0  0  0  0  0  0  0  0  0  0  0  0
  184.5450  178.7780  146.8720 O   0  0  0  0  0  0  0  0  0  0  0  0
  184.0490  178.2950  143.5020 O   0  0  0  0  0  1  0  0  0  0  0  0
  184.3090  179.1570  144.5660 C   0  0  0  0  0  2  0  0  0  0  0  0
  190.4710  176.2930  142.8180 S   0  0  0  0  0  0  0  0  0  0  0  0
  189.5050  174.7560  142.9360 C   0  0  0  0  0  2  0  0  0  0  0  0
  189.4680  174.0920  141.6430 N   0  0  0  0  0  2  0  0  0  0  0  0
  187.3670  173.1320  141.9870 O   0  0  0  0  0  0  0  0  0  0  0  0
  188.3400  173.3250  141.2110 C   0  0  0  0  0  0  0  0  0  0  0  0
  188.3130  172.7620  139.8990 N   0  0  0  0  0  2  0  0  0  0  0  0
  191.1500  173.4210  136.6060 C   0  0  0  0  0  2  0  0  0  0  0  0
  190.7600  171.2330  139.5430 O   0  0  0  0  0  0  0  0  0  0  0  0
  189.3600  173.0290  138.9210 C   0  0  1  0  0  3  0  0  0  0  0  0
  190.1030  171.7450  138.6470 C   0  0  0  0  0  0  0  0  0  0  0  0
  191.0690  171.9150  136.3220 C   0  0  0  0  0  2  0  0  0  0  0  0
  189.7960  174.1430  136.6080 C   0  0  1  0  0  3  0  0  0  0  0  0
  187.8270  174.8090  137.9740 C   0  0  0  0  0  1  0  0  0  0  0  0
  189.1960  174.1580  135.2120 C   0  0  0  0  0  1  0  0  0  0  0  0
  188.7580  173.6530  137.6390 C   0  0  2  0  0  3  0  0  0  0  0  0
  190.1200  171.1610  137.2550 C   0  0  1  0  0  3  0  0  0  0  0  0
  190.4360  169.6750  137.2440 C   0  0  0  0  0  1  0  0  0  0  0  0
  1 10  1  0  0  0  0
  1  6  1  0  0  0  0
  2  1  2  0  0  0  0
  3 17  1  0  0  0  0
  3  4  1  0  0  0  0
  4  6  2  0  0  0  0
  5  2  1  0  0  0  0
  5  3  2  0  0  0  0
  7 10  1  0  0  0  0
  7 12  2  0  0  0  0
  8 12  1  0  0  0  0
  8 13  1  0  0  0  0
 10 11  2  0  0  0  0
 11  9  1  0  0  0  0
 12  9  1  0  0  0  0
 13 14  1  1  0  0  0
 15 16  1  0  0  0  0
 16 13  1  0  0  0  0
 17 18  1  0  0  0  0
 19 18  1  0  0  0  0
 19 20  1  0  0  0  0
 21 22  1  0  0  0  0
 21 20  1  0  0  0  0
 22 23  2  0  0  0  0
 24 25  1  0  0  0  0
 25 22  1  0  0  0  0
 26 27  1  0  0  0  0
 26  5  1  0  0  0  0
 28 27  1  0  0  0  0
 30 28  1  0  0  0  0
 30 29  2  0  0  0  0
 31 30  1  0  0  0  0
 32 37  1  0  0  0  0
 34 31  1  1  0  0  0
 35 34  1  0  0  0  0
 35 33  2  0  0  0  0
 36 32  1  0  0  0  0
 36 41  1  0  0  0  0
 37 39  1  6  0  0  0
 37 40  1  0  0  0  0
 40 38  1  1  0  0  0
 40 34  1  0  0  0  0
 41 42  1  1  0  0  0
 41 35  1  0  0  0  0
M  END
>  <MODEL>
9

>  <REMARK>
 VINA RESULT:      -6.1      2.903      9.022
  Name = 
  14 active torsions:
  status: ('A' for Active; 'I' for Inactive)
    1  A    between atoms: C_1  and  C_7
    2  A    between atoms: C_1  and  C_27
    3  A    between atoms: C_2  and  N_20
    4  A    between atoms: C_2  and  C_22
    5  A    between atoms: C_6  and  C_26
    6  A    between atoms: C_8  and  N_29
    7  A    between atoms: N_12  and  C_25
    8  A    between atoms: C_16  and  C_19
    9  A    between atoms: C_19  and  N_20
   10  A    between atoms: N_21  and  C_38
   11  A    between atoms: C_22  and  C_27
   12  A    between atoms: C_25  and  O_41
   13  A    between atoms: S_28  and  C_38
   14  A    between atoms: S_28  and  C_39
                            x       y       z     vdW  Elec       q    Type
                         _______ _______ _______ _____ _____    ______ ____

>  <TORSDO>
F 14

$$$$
