=
 OpenBabel11042415393D

 46 49  0  0  1  0  0  0  0  0999 V2000
  193.2190  175.9710  144.9390 C   0  0  2  0  0  3  0  0  0  0  0  0
  192.3810  176.9510  144.1920 C   0  0  0  0  0  3  0  0  0  0  0  0
  191.3060  176.5460  143.5340 C   0  0  0  0  0  3  0  0  0  0  0  0
  190.5140  177.4850  142.8100 N   0  0  0  0  0  2  0  0  0  0  0  0
  189.1590  177.2290  142.4330 C   0  0  0  0  0  0  0  0  0  0  0  0
  188.4100  178.2490  141.8340 C   0  0  0  0  0  3  0  0  0  0  0  0
  186.4900  176.7780  141.6950 C   0  0  0  0  0  3  0  0  0  0  0  0
  187.2320  175.7530  142.2910 C   0  0  0  0  0  3  0  0  0  0  0  0
  188.5630  175.9770  142.6580 C   0  0  0  0  0  3  0  0  0  0  0  0
  187.0790  178.0250  141.4660 C   0  0  0  0  0  3  0  0  0  0  0  0
  193.0770  176.2430  146.4250 C   0  0  0  0  0  2  0  0  0  0  0  0
  192.0910  175.2680  147.0440 C   0  0  0  0  0  2  0  0  0  0  0  0
  190.7710  175.8750  147.1230 N   0  0  0  0  0  2  0  0  0  0  0  0
  189.5790  175.1800  146.7530 C   0  0  0  0  0  0  0  0  0  0  0  0
  189.6290  173.9890  146.3450 O   0  0  0  0  0  0  0  0  0  0  0  0
  188.2600  175.8520  146.8950 C   0  0  0  0  0  2  0  0  0  0  0  0
  188.4430  177.2340  146.9740 O   0  0  0  0  0  0  0  0  0  0  0  0
  186.1410  176.9180  147.5580 C   0  0  0  0  0  1  0  0  0  0  0  0
  187.1620  177.7760  146.8280 C   0  0  2  0  0  3  0  0  0  0  0  0
  186.8020  177.9370  145.3490 C   0  0  0  0  0  2  0  0  0  0  0  0
  185.4000  177.4370  145.0130 C   0  0  0  0  0  2  0  0  0  0  0  0
  185.2890  179.7740  144.1980 C   0  0  0  0  0  1  0  0  0  0  0  0
  183.7210  178.9490  145.7810 O   0  0  0  0  0  1  0  0  0  0  0  0
  184.4700  178.5860  144.6620 C   0  0  2  0  0  3  0  0  0  0  0  0
  194.5860  176.1150  144.5640 O   0  0  0  0  0  0  0  0  0  0  0  0
  195.9130  175.5160  142.7700 O   0  0  0  0  0  0  0  0  0  0  0  0
  195.2700  175.1660  143.7970 C   0  0  0  0  0  0  0  0  0  0  0  0
  194.1720  171.5870  143.9950 C   0  0  0  0  0  0  0  0  0  0  0  0
  195.0100  170.9960  144.8480 C   0  0  0  0  0  3  0  0  0  0  0  0
  196.0590  171.7780  145.5040 C   0  0  0  0  0  0  0  0  0  0  0  0
  195.2300  173.7550  144.1950 C   0  0  0  0  0  0  0  0  0  0  0  0
  196.8290  171.2200  146.3270 O   0  0  0  0  0  0  0  0  0  0  0  0
  196.2350  173.2360  145.1980 C   0  0  0  0  0  2  0  0  0  0  0  0
  194.3200  172.9790  143.6770 N   0  0  0  0  0  0  0  0  0  0  0  0
  192.5650  171.4970  142.1380 C   0  0  1  0  0  3  0  0  0  0  0  0
  193.1460  170.7640  143.2610 C   0  0  1  0  0  3  0  0  0  0  0  0
  193.5330  170.4260  141.8680 N   0  0  0  0  0  0  0  0  0  0  0  0
  194.6760  171.0510  141.4970 F   0  0  0  0  0  0  0  0  0  0  0  0
  191.2180  171.0060  141.8890 N   0  0  0  0  0  2  0  0  0  0  0  0
  190.4780  172.9580  143.2130 C   0  0  0  0  0  2  0  0  0  0  0  0
  189.2560  172.0550  143.0630 C   0  0  0  0  0  2  0  0  0  0  0  0
  190.2910  172.1310  141.9600 C   0  0  0  0  0  0  0  0  0  0  0  0
  188.6150  173.2070  140.6350 F   0  0  0  0  0  0  0  0  0  0  0  0
  190.3400  172.1030  139.4550 C   0  0  0  0  0  1  0  0  0  0  0  0
  190.6720  174.1160  140.6480 F   0  0  0  0  0  0  0  0  0  0  0  0
  189.9700  172.9220  140.6810 C   0  0  0  0  0  0  0  0  0  0  0  0
  1  2  1  6  0  0  0
  1 11  1  0  0  0  0
  3  2  2  0  0  0  0
  4  3  1  0  0  0  0
  5  9  1  0  0  0  0
  5  4  1  0  0  0  0
  6  5  2  0  0  0  0
  7  8  1  0  0  0  0
  8  9  2  0  0  0  0
 10  7  2  0  0  0  0
 10  6  1  0  0  0  0
 11 12  1  0  0  0  0
 12 13  1  0  0  0  0
 14 16  1  0  0  0  0
 14 13  1  0  0  0  0
 15 14  2  0  0  0  0
 16 17  1  0  0  0  0
 19 17  1  0  0  0  0
 19 18  1  6  0  0  0
 20 19  1  0  0  0  0
 21 20  1  0  0  0  0
 24 22  1  1  0  0  0
 24 21  1  0  0  0  0
 24 23  1  0  0  0  0
 25  1  1  0  0  0  0
 26 27  2  0  0  0  0
 27 31  1  0  0  0  0
 27 25  1  0  0  0  0
 28 29  2  0  0  0  0
 29 30  1  0  0  0  0
 30 32  2  0  0  0  0
 31 33  1  0  0  0  0
 33 30  1  0  0  0  0
 34 28  1  0  0  0  0
 34 31  2  0  0  0  0
 35 39  1  6  0  0  0
 35 36  1  0  0  0  0
 36 28  1  1  0  0  0
 37 35  1  0  0  0  0
 37 36  1  0  0  0  0
 38 37  1  0  0  0  0
 39 42  1  0  0  0  0
 41 40  1  0  0  0  0
 42 41  1  0  0  0  0
 42 40  1  0  0  0  0
 43 46  1  0  0  0  0
 44 46  1  0  0  0  0
 45 46  1  0  0  0  0
 46 42  1  0  0  0  0
M  END
>  <MODEL>
1

>  <REMARK>
 VINA RESULT:      -6.4      0.000      0.000
  Name = 
  19 active torsions:
  status: ('A' for Active; 'I' for Inactive)
    1  A    between atoms: C_2  and  C_22
    2  A    between atoms: C_2  and  O_38
    3  A    between atoms: C_3  and  N_40
    4  A    between atoms: C_7  and  C_21
    5  A    between atoms: C_8  and  C_35
    6  A    between atoms: C_8  and  C_39
    7  A    between atoms: C_12  and  N_17
    8  A    between atoms: C_12  and  C_36
    9  A    between atoms: C_14  and  C_35
   10  A    between atoms: C_14  and  O_38
   11  A    between atoms: C_16  and  N_42
   12  A    between atoms: C_18  and  C_29
   13  A    between atoms: C_18  and  N_42
   14  A    between atoms: O_19  and  C_43
   15  A    between atoms: O_19  and  C_44
   16  A    between atoms: C_24  and  C_44
   17  A    between atoms: C_27  and  C_43
   18  A    between atoms: C_31  and  N_40
   19  A    between atoms: C_36  and  C_44
                            x       y       z     vdW  Elec       q    Type
                         _______ _______ _______ _____ _____    ______ ____

>  <TORSDO>
F 19

$$$$
=
 OpenBabel11042415393D

 46 49  0  0  1  0  0  0  0  0999 V2000
  184.1170  178.3180  141.2790 C   0  0  2  0  0  3  0  0  0  0  0  0
  182.7580  178.1370  140.6940 C   0  0  0  0  0  3  0  0  0  0  0  0
  181.6790  178.3970  141.4160 C   0  0  0  0  0  3  0  0  0  0  0  0
  180.3820  178.2100  140.8560 N   0  0  0  0  0  2  0  0  0  0  0  0
  179.6340  179.2740  140.2610 C   0  0  0  0  0  0  0  0  0  0  0  0
  178.5040  178.9700  139.4920 C   0  0  0  0  0  3  0  0  0  0  0  0
  178.1470  181.3270  139.0580 C   0  0  0  0  0  3  0  0  0  0  0  0
  179.2740  181.6390  139.8270 C   0  0  0  0  0  3  0  0  0  0  0  0
  180.0140  180.6160  140.4270 C   0  0  0  0  0  3  0  0  0  0  0  0
  177.7620  179.9940  138.8930 C   0  0  0  0  0  3  0  0  0  0  0  0
  185.1320  177.6550  140.3680 C   0  0  0  0  0  2  0  0  0  0  0  0
  186.5410  177.9380  140.8600 C   0  0  0  0  0  2  0  0  0  0  0  0
  187.1570  176.7110  141.3430 N   0  0  0  0  0  2  0  0  0  0  0  0
  187.6540  175.7010  140.4640 C   0  0  0  0  0  0  0  0  0  0  0  0
  187.5850  175.8440  139.2140 O   0  0  0  0  0  0  0  0  0  0  0  0
  188.3050  174.4890  141.0290 C   0  0  0  0  0  2  0  0  0  0  0  0
  189.6680  174.7270  141.2070 O   0  0  0  0  0  0  0  0  0  0  0  0
  189.2560  172.4300  141.7490 C   0  0  0  0  0  1  0  0  0  0  0  0
  190.2550  173.4580  141.2430 C   0  0  2  0  0  3  0  0  0  0  0  0
  191.5270  173.4680  142.0940 C   0  0  0  0  0  2  0  0  0  0  0  0
  191.2490  173.4010  143.5940 C   0  0  0  0  0  2  0  0  0  0  0  0
  193.6000  172.6190  143.5650 C   0  0  0  0  0  1  0  0  0  0  0  0
  191.8500  171.2240  144.3650 O   0  0  0  0  0  1  0  0  0  0  0  0
  192.2820  172.5500  144.3110 C   0  0  2  0  0  3  0  0  0  0  0  0
  184.1750  177.7120  142.5670 O   0  0  0  0  0  0  0  0  0  0  0  0
  183.4590  179.3990  143.9730 O   0  0  0  0  0  0  0  0  0  0  0  0
  184.2570  178.4480  143.7540 C   0  0  0  0  0  0  0  0  0  0  0  0
  187.6130  177.6450  145.2180 C   0  0  0  0  0  0  0  0  0  0  0  0
  187.4060  177.4580  146.5220 C   0  0  0  0  0  3  0  0  0  0  0  0
  186.0510  177.5510  147.0690 C   0  0  0  0  0  0  0  0  0  0  0  0
  185.2850  178.1070  144.7430 C   0  0  0  0  0  0  0  0  0  0  0  0
  185.8590  177.3460  148.2960 O   0  0  0  0  0  0  0  0  0  0  0  0
  184.8890  177.8970  146.1860 C   0  0  0  0  0  2  0  0  0  0  0  0
  186.5220  177.9860  144.3510 N   0  0  0  0  0  0  0  0  0  0  0  0
  189.8530  176.6430  145.3570 C   0  0  1  0  0  3  0  0  0  0  0  0
  189.0170  177.6300  144.6740 C   0  0  1  0  0  3  0  0  0  0  0  0
  189.3830  176.3620  143.9930 N   0  0  0  0  0  0  0  0  0  0  0  0
  188.4170  175.4220  144.1260 F   0  0  0  0  0  0  0  0  0  0  0  0
  191.2410  177.0760  145.3110 N   0  0  0  0  0  2  0  0  0  0  0  0
  191.1610  175.2470  146.9730 C   0  0  0  0  0  2  0  0  0  0  0  0
  191.6250  176.4900  147.7270 C   0  0  0  0  0  2  0  0  0  0  0  0
  192.0050  176.2900  146.2740 C   0  0  0  0  0  0  0  0  0  0  0  0
  193.6980  174.6080  146.4590 F   0  0  0  0  0  0  0  0  0  0  0  0
  194.4370  176.8530  146.5030 C   0  0  0  0  0  1  0  0  0  0  0  0
  193.6180  175.7990  144.5520 F   0  0  0  0  0  0  0  0  0  0  0  0
  193.4410  175.8610  145.9250 C   0  0  0  0  0  0  0  0  0  0  0  0
  1 11  1  6  0  0  0
  1 25  1  0  0  0  0
  2  1  1  0  0  0  0
  2  3  2  0  0  0  0
  4  3  1  0  0  0  0
  5  9  1  0  0  0  0
  5  4  1  0  0  0  0
  6  5  2  0  0  0  0
  7  8  1  0  0  0  0
  8  9  2  0  0  0  0
 10  7  2  0  0  0  0
 10  6  1  0  0  0  0
 11 12  1  0  0  0  0
 12 13  1  0  0  0  0
 14 16  1  0  0  0  0
 14 13  1  0  0  0  0
 15 14  2  0  0  0  0
 16 17  1  0  0  0  0
 17 19  1  0  0  0  0
 19 18  1  1  0  0  0
 19 20  1  0  0  0  0
 20 21  1  0  0  0  0
 21 24  1  0  0  0  0
 24 22  1  6  0  0  0
 24 23  1  0  0  0  0
 25 27  1  0  0  0  0
 27 26  2  0  0  0  0
 27 31  1  0  0  0  0
 28 29  2  0  0  0  0
 29 30  1  0  0  0  0
 30 32  2  0  0  0  0
 31 33  1  0  0  0  0
 33 30  1  0  0  0  0
 34 31  2  0  0  0  0
 34 28  1  0  0  0  0
 35 39  1  6  0  0  0
 36 28  1  1  0  0  0
 36 35  1  0  0  0  0
 37 38  1  0  0  0  0
 37 36  1  0  0  0  0
 37 35  1  0  0  0  0
 39 42  1  0  0  0  0
 40 41  1  0  0  0  0
 42 40  1  0  0  0  0
 42 41  1  0  0  0  0
 45 46  1  0  0  0  0
 46 42  1  0  0  0  0
 46 43  1  0  0  0  0
 46 44  1  0  0  0  0
M  END
>  <MODEL>
2

>  <REMARK>
 VINA RESULT:      -6.3      4.199      9.166
  Name = 
  19 active torsions:
  status: ('A' for Active; 'I' for Inactive)
    1  A    between atoms: C_2  and  C_22
    2  A    between atoms: C_2  and  O_38
    3  A    between atoms: C_3  and  N_40
    4  A    between atoms: C_7  and  C_21
    5  A    between atoms: C_8  and  C_35
    6  A    between atoms: C_8  and  C_39
    7  A    between atoms: C_12  and  N_17
    8  A    between atoms: C_12  and  C_36
    9  A    between atoms: C_14  and  C_35
   10  A    between atoms: C_14  and  O_38
   11  A    between atoms: C_16  and  N_42
   12  A    between atoms: C_18  and  C_29
   13  A    between atoms: C_18  and  N_42
   14  A    between atoms: O_19  and  C_43
   15  A    between atoms: O_19  and  C_44
   16  A    between atoms: C_24  and  C_44
   17  A    between atoms: C_27  and  C_43
   18  A    between atoms: C_31  and  N_40
   19  A    between atoms: C_36  and  C_44
                            x       y       z     vdW  Elec       q    Type
                         _______ _______ _______ _____ _____    ______ ____

>  <TORSDO>
F 19

$$$$
=
 OpenBabel11042415393D

 46 49  0  0  1  0  0  0  0  0999 V2000
  189.2940  176.9560  142.0090 C   0  0  2  0  0  3  0  0  0  0  0  0
  188.1280  177.7460  141.5220 C   0  0  0  0  0  3  0  0  0  0  0  0
  187.2870  177.2230  140.6440 C   0  0  0  0  0  3  0  0  0  0  0  0
  186.1800  177.9870  140.1720 N   0  0  0  0  0  2  0  0  0  0  0  0
  184.9760  178.1550  140.9260 C   0  0  0  0  0  0  0  0  0  0  0  0
  185.0540  178.2990  142.3160 C   0  0  0  0  0  3  0  0  0  0  0  0
  182.6400  178.4650  142.4490 C   0  0  0  0  0  3  0  0  0  0  0  0
  182.5540  178.3220  141.0600 C   0  0  0  0  0  3  0  0  0  0  0  0
  183.7190  178.1690  140.3010 C   0  0  0  0  0  3  0  0  0  0  0  0
  183.8890  178.4540  143.0770 C   0  0  0  0  0  3  0  0  0  0  0  0
  188.7810  175.7710  142.8050 C   0  0  0  0  0  2  0  0  0  0  0  0
  189.2770  174.4740  142.1910 C   0  0  0  0  0  2  0  0  0  0  0  0
  190.4420  173.9910  142.9180 N   0  0  0  0  0  2  0  0  0  0  0  0
  191.7090  173.7840  142.2930 C   0  0  0  0  0  0  0  0  0  0  0  0
  191.8690  174.0270  141.0660 O   0  0  0  0  0  0  0  0  0  0  0  0
  192.8660  173.3230  143.1060 C   0  0  0  0  0  2  0  0  0  0  0  0
  194.0200  173.9980  142.7050 O   0  0  0  0  0  0  0  0  0  0  0  0
  196.2200  173.0980  143.0040 C   0  0  0  0  0  1  0  0  0  0  0  0
  194.9800  173.6730  143.6680 C   0  0  2  0  0  3  0  0  0  0  0  0
  194.4050  172.7080  144.7090 C   0  0  0  0  0  2  0  0  0  0  0  0
  195.4780  172.0170  145.5460 C   0  0  0  0  0  2  0  0  0  0  0  0
  194.0230  170.0970  144.9680 C   0  0  0  0  0  1  0  0  0  0  0  0
  195.7490  169.8870  146.5870 O   0  0  0  0  0  1  0  0  0  0  0  0
  195.4210  170.5070  145.3810 C   0  0  2  0  0  3  0  0  0  0  0  0
  190.1140  177.7660  142.8480 O   0  0  0  0  0  0  0  0  0  0  0  0
  192.3550  177.6380  142.3010 O   0  0  0  0  0  0  0  0  0  0  0  0
  191.4430  177.4490  143.1500 C   0  0  0  0  0  0  0  0  0  0  0  0
  190.9880  176.1000  146.6180 C   0  0  0  0  0  0  0  0  0  0  0  0
  192.2110  175.8000  147.0550 C   0  0  0  0  0  3  0  0  0  0  0  0
  193.3760  176.0610  146.2070 C   0  0  0  0  0  0  0  0  0  0  0  0
  191.7670  176.8900  144.4670 C   0  0  0  0  0  0  0  0  0  0  0  0
  194.5290  175.8000  146.6370 O   0  0  0  0  0  0  0  0  0  0  0  0
  193.2110  176.6280  144.8290 C   0  0  0  0  0  2  0  0  0  0  0  0
  190.7980  176.6360  145.3000 N   0  0  0  0  0  0  0  0  0  0  0  0
  188.5790  175.6140  146.6470 C   0  0  1  0  0  3  0  0  0  0  0  0
  189.7870  175.7550  147.4590 C   0  0  1  0  0  3  0  0  0  0  0  0
  189.2270  174.4080  147.1800 N   0  0  0  0  0  0  0  0  0  0  0  0
  189.8330  173.8200  146.1210 F   0  0  0  0  0  0  0  0  0  0  0  0
  187.4150  175.9370  147.4580 N   0  0  0  0  0  2  0  0  0  0  0  0
  185.7360  176.7040  145.8140 C   0  0  0  0  0  2  0  0  0  0  0  0
  187.0560  177.3560  145.4130 C   0  0  0  0  0  2  0  0  0  0  0  0
  186.7450  177.0930  146.8710 C   0  0  0  0  0  0  0  0  0  0  0  0
  185.5590  177.8070  148.8230 F   0  0  0  0  0  0  0  0  0  0  0  0
  185.5440  179.2900  146.9830 C   0  0  0  0  0  1  0  0  0  0  0  0
  187.4610  178.8910  148.3070 F   0  0  0  0  0  0  0  0  0  0  0  0
  186.3420  178.2690  147.7780 C   0  0  0  0  0  0  0  0  0  0  0  0
  1  2  1  1  0  0  0
  1 11  1  0  0  0  0
  1 25  1  0  0  0  0
  3  2  2  0  0  0  0
  4  3  1  0  0  0  0
  4  5  1  0  0  0  0
  5  6  1  0  0  0  0
  6 10  2  0  0  0  0
  7 10  1  0  0  0  0
  8  7  2  0  0  0  0
  9  5  2  0  0  0  0
  9  8  1  0  0  0  0
 12 11  1  0  0  0  0
 12 13  1  0  0  0  0
 14 13  1  0  0  0  0
 14 16  1  0  0  0  0
 15 14  2  0  0  0  0
 17 16  1  0  0  0  0
 17 19  1  0  0  0  0
 19 18  1  6  0  0  0
 19 20  1  0  0  0  0
 20 21  1  0  0  0  0
 24 22  1  1  0  0  0
 24 21  1  0  0  0  0
 24 23  1  0  0  0  0
 25 27  1  0  0  0  0
 26 27  2  0  0  0  0
 27 31  1  0  0  0  0
 28 29  2  0  0  0  0
 30 32  2  0  0  0  0
 30 29  1  0  0  0  0
 31 33  1  0  0  0  0
 31 34  2  0  0  0  0
 33 30  1  0  0  0  0
 34 28  1  0  0  0  0
 35 37  1  0  0  0  0
 35 39  1  1  0  0  0
 35 36  1  0  0  0  0
 36 28  1  6  0  0  0
 37 36  1  0  0  0  0
 38 37  1  0  0  0  0
 40 42  1  0  0  0  0
 41 40  1  0  0  0  0
 41 42  1  0  0  0  0
 42 39  1  0  0  0  0
 42 46  1  0  0  0  0
 44 46  1  0  0  0  0
 46 45  1  0  0  0  0
 46 43  1  0  0  0  0
M  END
>  <MODEL>
3

>  <REMARK>
 VINA RESULT:      -6.2      3.049      7.530
  Name = 
  19 active torsions:
  status: ('A' for Active; 'I' for Inactive)
    1  A    between atoms: C_2  and  C_22
    2  A    between atoms: C_2  and  O_38
    3  A    between atoms: C_3  and  N_40
    4  A    between atoms: C_7  and  C_21
    5  A    between atoms: C_8  and  C_35
    6  A    between atoms: C_8  and  C_39
    7  A    between atoms: C_12  and  N_17
    8  A    between atoms: C_12  and  C_36
    9  A    between atoms: C_14  and  C_35
   10  A    between atoms: C_14  and  O_38
   11  A    between atoms: C_16  and  N_42
   12  A    between atoms: C_18  and  C_29
   13  A    between atoms: C_18  and  N_42
   14  A    between atoms: O_19  and  C_43
   15  A    between atoms: O_19  and  C_44
   16  A    between atoms: C_24  and  C_44
   17  A    between atoms: C_27  and  C_43
   18  A    between atoms: C_31  and  N_40
   19  A    between atoms: C_36  and  C_44
                            x       y       z     vdW  Elec       q    Type
                         _______ _______ _______ _____ _____    ______ ____

>  <TORSDO>
F 19

$$$$
=
 OpenBabel11042415393D

 46 49  0  0  1  0  0  0  0  0999 V2000
  191.1850  171.0700  143.0550 C   0  0  2  0  0  3  0  0  0  0  0  0
  192.5620  170.4990  143.0820 C   0  0  0  0  0  3  0  0  0  0  0  0
  192.8130  169.3930  143.7650 C   0  0  0  0  0  3  0  0  0  0  0  0
  194.1340  168.8570  143.7990 N   0  0  0  0  0  2  0  0  0  0  0  0
  194.9990  169.0000  144.9280 C   0  0  0  0  0  0  0  0  0  0  0  0
  194.4870  168.7920  146.2140 C   0  0  0  0  0  3  0  0  0  0  0  0
  196.6550  169.2890  147.1750 C   0  0  0  0  0  3  0  0  0  0  0  0
  197.1750  169.4970  145.8920 C   0  0  0  0  0  3  0  0  0  0  0  0
  196.3500  169.3510  144.7720 C   0  0  0  0  0  3  0  0  0  0  0  0
  195.3120  168.9360  147.3350 C   0  0  0  0  0  3  0  0  0  0  0  0
  190.7250  171.1620  141.6120 C   0  0  0  0  0  2  0  0  0  0  0  0
  190.9150  172.5760  141.0920 C   0  0  0  0  0  2  0  0  0  0  0  0
  189.6270  173.2490  140.9960 N   0  0  0  0  0  2  0  0  0  0  0  0
  189.4060  174.5650  141.5060 C   0  0  0  0  0  0  0  0  0  0  0  0
  190.3400  175.2060  142.0590 O   0  0  0  0  0  0  0  0  0  0  0  0
  188.0740  175.2050  141.3410 C   0  0  0  0  0  2  0  0  0  0  0  0
  187.6240  175.6770  142.5750 O   0  0  0  0  0  0  0  0  0  0  0  0
  187.9940  178.0110  142.1790 C   0  0  0  0  0  1  0  0  0  0  0  0
  186.9800  176.8840  142.2850 C   0  0  2  0  0  3  0  0  0  0  0  0
  185.9060  177.1940  143.3320 C   0  0  0  0  0  2  0  0  0  0  0  0
  186.3840  178.1560  144.4170 C   0  0  0  0  0  2  0  0  0  0  0  0
  185.3830  176.7570  146.2000 C   0  0  0  0  0  1  0  0  0  0  0  0
  184.1680  178.5450  145.2130 O   0  0  0  0  0  1  0  0  0  0  0  0
  185.4460  178.1520  145.6120 C   0  0  2  0  0  3  0  0  0  0  0  0
  191.1880  172.3730  143.6310 O   0  0  0  0  0  0  0  0  0  0  0  0
  189.3770  172.0030  145.0160 O   0  0  0  0  0  0  0  0  0  0  0  0
  190.3320  172.7500  144.6710 C   0  0  0  0  0  0  0  0  0  0  0  0
  192.1160  175.6610  146.2190 C   0  0  0  0  0  0  0  0  0  0  0  0
  191.1610  176.4800  146.6590 C   0  0  0  0  0  3  0  0  0  0  0  0
  189.7520  176.1110  146.5090 C   0  0  0  0  0  0  0  0  0  0  0  0
  190.5510  174.0280  145.3560 C   0  0  0  0  0  0  0  0  0  0  0  0
  188.8570  176.8770  146.9510 O   0  0  0  0  0  0  0  0  0  0  0  0
  189.3620  174.8350  145.8240 C   0  0  0  0  0  2  0  0  0  0  0  0
  191.7730  174.4370  145.5520 N   0  0  0  0  0  0  0  0  0  0  0  0
  194.3620  175.4800  145.2380 C   0  0  1  0  0  3  0  0  0  0  0  0
  193.5600  176.0810  146.3020 C   0  0  1  0  0  3  0  0  0  0  0  0
  194.0120  176.9040  145.1520 N   0  0  0  0  0  0  0  0  0  0  0  0
  193.0630  176.9910  144.1900 F   0  0  0  0  0  0  0  0  0  0  0  0
  195.7380  175.3460  145.6910 N   0  0  0  0  0  2  0  0  0  0  0  0
  195.5020  172.8890  145.5480 C   0  0  0  0  0  2  0  0  0  0  0  0
  196.8780  173.1520  146.1520 C   0  0  0  0  0  2  0  0  0  0  0  0
  196.2910  174.1130  145.1390 C   0  0  0  0  0  0  0  0  0  0  0  0
  197.7570  173.0910  143.5480 F   0  0  0  0  0  0  0  0  0  0  0  0
  197.5050  175.4350  143.3900 C   0  0  0  0  0  1  0  0  0  0  0  0
  195.8040  173.9080  142.7880 F   0  0  0  0  0  0  0  0  0  0  0  0
  196.8290  174.1090  143.6980 C   0  0  0  0  0  0  0  0  0  0  0  0
  1 11  1  6  0  0  0
  1  2  1  0  0  0  0
  1 25  1  0  0  0  0
  2  3  2  0  0  0  0
  3  4  1  0  0  0  0
  4  5  1  0  0  0  0
  5  6  1  0  0  0  0
  6 10  2  0  0  0  0
  7 10  1  0  0  0  0
  8  7  2  0  0  0  0
  9  5  2  0  0  0  0
  9  8  1  0  0  0  0
 12 11  1  0  0  0  0
 13 12  1  0  0  0  0
 13 14  1  0  0  0  0
 14 15  2  0  0  0  0
 16 14  1  0  0  0  0
 16 17  1  0  0  0  0
 19 18  1  1  0  0  0
 19 17  1  0  0  0  0
 19 20  1  0  0  0  0
 20 21  1  0  0  0  0
 21 24  1  0  0  0  0
 23 24  1  0  0  0  0
 24 22  1  6  0  0  0
 25 27  1  0  0  0  0
 27 26  2  0  0  0  0
 27 31  1  0  0  0  0
 28 29  2  0  0  0  0
 30 29  1  0  0  0  0
 30 32  2  0  0  0  0
 31 34  2  0  0  0  0
 31 33  1  0  0  0  0
 33 30  1  0  0  0  0
 34 28  1  0  0  0  0
 35 39  1  1  0  0  0
 35 36  1  0  0  0  0
 36 28  1  6  0  0  0
 37 35  1  0  0  0  0
 37 36  1  0  0  0  0
 38 37  1  0  0  0  0
 40 41  1  0  0  0  0
 42 40  1  0  0  0  0
 42 39  1  0  0  0  0
 42 41  1  0  0  0  0
 43 46  1  0  0  0  0
 44 46  1  0  0  0  0
 45 46  1  0  0  0  0
 46 42  1  0  0  0  0
M  END
>  <MODEL>
4

>  <REMARK>
 VINA RESULT:      -6.0      2.607      7.354
  Name = 
  19 active torsions:
  status: ('A' for Active; 'I' for Inactive)
    1  A    between atoms: C_2  and  C_22
    2  A    between atoms: C_2  and  O_38
    3  A    between atoms: C_3  and  N_40
    4  A    between atoms: C_7  and  C_21
    5  A    between atoms: C_8  and  C_35
    6  A    between atoms: C_8  and  C_39
    7  A    between atoms: C_12  and  N_17
    8  A    between atoms: C_12  and  C_36
    9  A    between atoms: C_14  and  C_35
   10  A    between atoms: C_14  and  O_38
   11  A    between atoms: C_16  and  N_42
   12  A    between atoms: C_18  and  C_29
   13  A    between atoms: C_18  and  N_42
   14  A    between atoms: O_19  and  C_43
   15  A    between atoms: O_19  and  C_44
   16  A    between atoms: C_24  and  C_44
   17  A    between atoms: C_27  and  C_43
   18  A    between atoms: C_31  and  N_40
   19  A    between atoms: C_36  and  C_44
                            x       y       z     vdW  Elec       q    Type
                         _______ _______ _______ _____ _____    ______ ____

>  <TORSDO>
F 19

$$$$
=
 OpenBabel11042415393D

 46 49  0  0  1  0  0  0  0  0999 V2000
  190.8690  172.5380  142.9390 C   0  0  2  0  0  3  0  0  0  0  0  0
  191.8560  172.0670  143.9520 C   0  0  0  0  0  3  0  0  0  0  0  0
  192.6460  171.0380  143.6870 C   0  0  0  0  0  3  0  0  0  0  0  0
  193.5790  170.5830  144.6630 N   0  0  0  0  0  2  0  0  0  0  0  0
  194.9430  171.0120  144.6910 C   0  0  0  0  0  0  0  0  0  0  0  0
  195.4130  171.7270  145.8000 C   0  0  0  0  0  3  0  0  0  0  0  0
  197.6050  171.8940  144.7810 C   0  0  0  0  0  3  0  0  0  0  0  0
  197.1430  171.1790  143.6700 C   0  0  0  0  0  3  0  0  0  0  0  0
  195.8170  170.7390  143.6260 C   0  0  0  0  0  3  0  0  0  0  0  0
  196.7410  172.1670  145.8450 C   0  0  0  0  0  3  0  0  0  0  0  0
  189.4990  172.0010  143.3080 C   0  0  0  0  0  2  0  0  0  0  0  0
  188.4740  172.4260  142.2710 C   0  0  0  0  0  2  0  0  0  0  0  0
  188.3210  173.8730  142.2840 N   0  0  0  0  0  2  0  0  0  0  0  0
  188.2750  174.6540  141.0890 C   0  0  0  0  0  0  0  0  0  0  0  0
  188.3570  174.1050  139.9580 O   0  0  0  0  0  0  0  0  0  0  0  0
  188.0810  176.1260  141.1780 C   0  0  0  0  0  2  0  0  0  0  0  0
  187.1820  176.4200  142.2060 O   0  0  0  0  0  0  0  0  0  0  0  0
  189.0160  177.9250  142.5380 C   0  0  0  0  0  1  0  0  0  0  0  0
  187.5130  177.7160  142.6140 C   0  0  2  0  0  3  0  0  0  0  0  0
  186.9780  177.9990  144.0200 C   0  0  0  0  0  2  0  0  0  0  0  0
  185.8170  177.0900  144.4160 C   0  0  0  0  0  2  0  0  0  0  0  0
  185.7480  178.8930  146.1150 C   0  0  0  0  0  1  0  0  0  0  0  0
  184.8890  176.7280  146.5850 O   0  0  0  0  0  1  0  0  0  0  0  0
  185.0240  177.6780  145.5720 C   0  0  2  0  0  3  0  0  0  0  0  0
  191.2310  172.0560  141.6480 O   0  0  0  0  0  0  0  0  0  0  0  0
  191.1520  172.7310  139.4400 O   0  0  0  0  0  0  0  0  0  0  0  0
  191.6160  172.8990  140.6000 C   0  0  0  0  0  0  0  0  0  0  0  0
  193.2310  175.8610  142.2350 C   0  0  0  0  0  0  0  0  0  0  0  0
  194.3260  176.1190  141.5190 C   0  0  0  0  0  3  0  0  0  0  0  0
  194.6360  175.3120  140.3370 C   0  0  0  0  0  0  0  0  0  0  0  0
  192.5730  173.9800  140.8610 C   0  0  0  0  0  0  0  0  0  0  0  0
  195.6570  175.5790  139.6520 O   0  0  0  0  0  0  0  0  0  0  0  0
  193.7570  174.1640  139.9400 C   0  0  0  0  0  2  0  0  0  0  0  0
  192.3750  174.7640  141.8830 N   0  0  0  0  0  0  0  0  0  0  0  0
  192.2350  175.8390  144.4810 C   0  0  1  0  0  3  0  0  0  0  0  0
  192.9600  176.6390  143.4950 C   0  0  1  0  0  3  0  0  0  0  0  0
  193.6640  176.1110  144.6910 N   0  0  0  0  0  0  0  0  0  0  0  0
  194.3000  174.9440  144.4260 F   0  0  0  0  0  0  0  0  0  0  0  0
  191.4460  176.7210  145.3280 N   0  0  0  0  0  2  0  0  0  0  0  0
  190.9100  176.5210  147.7330 C   0  0  0  0  0  2  0  0  0  0  0  0
  191.7100  175.2740  147.3690 C   0  0  0  0  0  2  0  0  0  0  0  0
  190.7880  175.9150  146.3520 C   0  0  0  0  0  0  0  0  0  0  0  0
  189.1100  175.4690  144.7060 F   0  0  0  0  0  0  0  0  0  0  0  0
  188.3470  175.8320  146.9140 C   0  0  0  0  0  1  0  0  0  0  0  0
  189.5020  173.8800  146.2490 F   0  0  0  0  0  0  0  0  0  0  0  0
  189.4400  175.2480  146.0330 C   0  0  0  0  0  0  0  0  0  0  0  0
  1 11  1  1  0  0  0
  1  2  1  0  0  0  0
  3  2  2  0  0  0  0
  3  4  1  0  0  0  0
  4  5  1  0  0  0  0
  5  6  1  0  0  0  0
  6 10  2  0  0  0  0
  7 10  1  0  0  0  0
  8  7  2  0  0  0  0
  9  8  1  0  0  0  0
  9  5  2  0  0  0  0
 12 13  1  0  0  0  0
 12 11  1  0  0  0  0
 14 16  1  0  0  0  0
 14 13  1  0  0  0  0
 15 14  2  0  0  0  0
 16 17  1  0  0  0  0
 17 19  1  0  0  0  0
 19 18  1  1  0  0  0
 19 20  1  0  0  0  0
 20 21  1  0  0  0  0
 21 24  1  0  0  0  0
 24 22  1  1  0  0  0
 24 23  1  0  0  0  0
 25  1  1  0  0  0  0
 26 27  2  0  0  0  0
 27 31  1  0  0  0  0
 27 25  1  0  0  0  0
 29 28  2  0  0  0  0
 30 29  1  0  0  0  0
 31 34  2  0  0  0  0
 32 30  2  0  0  0  0
 33 30  1  0  0  0  0
 33 31  1  0  0  0  0
 34 28  1  0  0  0  0
 35 37  1  0  0  0  0
 35 39  1  1  0  0  0
 36 28  1  6  0  0  0
 36 35  1  0  0  0  0
 36 37  1  0  0  0  0
 38 37  1  0  0  0  0
 39 42  1  0  0  0  0
 41 40  1  0  0  0  0
 42 41  1  0  0  0  0
 42 40  1  0  0  0  0
 43 46  1  0  0  0  0
 46 45  1  0  0  0  0
 46 42  1  0  0  0  0
 46 44  1  0  0  0  0
M  END
>  <MODEL>
5

>  <REMARK>
 VINA RESULT:      -5.9      2.833      6.456
  Name = 
  19 active torsions:
  status: ('A' for Active; 'I' for Inactive)
    1  A    between atoms: C_2  and  C_22
    2  A    between atoms: C_2  and  O_38
    3  A    between atoms: C_3  and  N_40
    4  A    between atoms: C_7  and  C_21
    5  A    between atoms: C_8  and  C_35
    6  A    between atoms: C_8  and  C_39
    7  A    between atoms: C_12  and  N_17
    8  A    between atoms: C_12  and  C_36
    9  A    between atoms: C_14  and  C_35
   10  A    between atoms: C_14  and  O_38
   11  A    between atoms: C_16  and  N_42
   12  A    between atoms: C_18  and  C_29
   13  A    between atoms: C_18  and  N_42
   14  A    between atoms: O_19  and  C_43
   15  A    between atoms: O_19  and  C_44
   16  A    between atoms: C_24  and  C_44
   17  A    between atoms: C_27  and  C_43
   18  A    between atoms: C_31  and  N_40
   19  A    between atoms: C_36  and  C_44
                            x       y       z     vdW  Elec       q    Type
                         _______ _______ _______ _____ _____    ______ ____

>  <TORSDO>
F 19

$$$$
=
 OpenBabel11042415393D

 46 49  0  0  1  0  0  0  0  0999 V2000
  191.0310  172.2920  142.0590 C   0  0  2  0  0  3  0  0  0  0  0  0
  192.0180  171.4330  142.7710 C   0  0  0  0  0  3  0  0  0  0  0  0
  192.3270  171.6780  144.0350 C   0  0  0  0  0  3  0  0  0  0  0  0
  193.2810  170.8610  144.7100 N   0  0  0  0  0  2  0  0  0  0  0  0
  194.6060  171.3070  145.0140 C   0  0  0  0  0  0  0  0  0  0  0  0
  194.8000  172.6160  145.4710 C   0  0  0  0  0  3  0  0  0  0  0  0
  197.1880  172.2330  145.6030 C   0  0  0  0  0  3  0  0  0  0  0  0
  197.0030  170.9220  145.1480 C   0  0  0  0  0  3  0  0  0  0  0  0
  195.7150  170.4610  144.8550 C   0  0  0  0  0  3  0  0  0  0  0  0
  196.0870  173.0780  145.7650 C   0  0  0  0  0  3  0  0  0  0  0  0
  189.6340  171.7860  142.3670 C   0  0  0  0  0  2  0  0  0  0  0  0
  188.6010  172.8260  141.9710 C   0  0  0  0  0  2  0  0  0  0  0  0
  188.9010  174.0970  142.6140 N   0  0  0  0  0  2  0  0  0  0  0  0
  188.6120  175.3560  142.0050 C   0  0  0  0  0  0  0  0  0  0  0  0
  188.0660  175.4120  140.8700 O   0  0  0  0  0  0  0  0  0  0  0  0
  188.9130  176.6150  142.7370 C   0  0  0  0  0  2  0  0  0  0  0  0
  187.8490  177.5080  142.5940 O   0  0  0  0  0  0  0  0  0  0  0  0
  188.6190  177.5510  144.8620 C   0  0  0  0  0  1  0  0  0  0  0  0
  187.4770  177.8370  143.9010 C   0  0  2  0  0  3  0  0  0  0  0  0
  186.2020  177.0950  144.3100 C   0  0  0  0  0  2  0  0  0  0  0  0
  185.8850  177.2190  145.7980 C   0  0  0  0  0  2  0  0  0  0  0  0
  185.7860  179.0640  147.4490 C   0  0  0  0  0  1  0  0  0  0  0  0
  183.8690  178.4350  146.1920 O   0  0  0  0  0  1  0  0  0  0  0  0
  185.2570  178.5650  146.1200 C   0  0  2  0  0  3  0  0  0  0  0  0
  191.2540  172.2250  140.6530 O   0  0  0  0  0  0  0  0  0  0  0  0
  190.3730  173.8610  139.2800 O   0  0  0  0  0  0  0  0  0  0  0  0
  191.3820  173.3610  139.8460 C   0  0  0  0  0  0  0  0  0  0  0  0
  194.5580  175.2000  140.6090 C   0  0  0  0  0  0  0  0  0  0  0  0
  195.2680  175.1850  139.4800 C   0  0  0  0  0  3  0  0  0  0  0  0
  194.7170  174.5570  138.2780 C   0  0  0  0  0  0  0  0  0  0  0  0
  192.7050  173.9660  139.6600 C   0  0  0  0  0  0  0  0  0  0  0  0
  195.3810  174.5690  137.2090 O   0  0  0  0  0  0  0  0  0  0  0  0
  193.3740  173.8890  138.3070 C   0  0  0  0  0  2  0  0  0  0  0  0
  193.2740  174.5630  140.6690 N   0  0  0  0  0  0  0  0  0  0  0  0
  194.4840  175.2850  143.0640 C   0  0  1  0  0  3  0  0  0  0  0  0
  195.1610  175.7740  141.8640 C   0  0  1  0  0  3  0  0  0  0  0  0
  195.8160  174.7630  142.7320 N   0  0  0  0  0  0  0  0  0  0  0  0
  195.6130  173.5020  142.2790 F   0  0  0  0  0  0  0  0  0  0  0  0
  194.6030  176.2780  144.1210 N   0  0  0  0  0  2  0  0  0  0  0  0
  192.2380  175.5640  144.1940 C   0  0  0  0  0  2  0  0  0  0  0  0
  192.2290  177.0850  144.3120 C   0  0  0  0  0  2  0  0  0  0  0  0
  193.3680  176.2790  144.8990 C   0  0  0  0  0  0  0  0  0  0  0  0
  194.7100  175.6560  146.7800 F   0  0  0  0  0  0  0  0  0  0  0  0
  192.4340  175.0210  146.8550 C   0  0  0  0  0  1  0  0  0  0  0  0
  193.1610  177.2580  147.0920 F   0  0  0  0  0  0  0  0  0  0  0  0
  193.4390  176.0760  146.4220 C   0  0  0  0  0  0  0  0  0  0  0  0
  1 11  1  6  0  0  0
  1  2  1  0  0  0  0
  2  3  2  0  0  0  0
  3  4  1  0  0  0  0
  4  5  1  0  0  0  0
  5  6  1  0  0  0  0
  6 10  2  0  0  0  0
  7 10  1  0  0  0  0
  8  7  2  0  0  0  0
  9  5  2  0  0  0  0
  9  8  1  0  0  0  0
 12 11  1  0  0  0  0
 12 13  1  0  0  0  0
 14 13  1  0  0  0  0
 14 16  1  0  0  0  0
 15 14  2  0  0  0  0
 17 16  1  0  0  0  0
 17 19  1  0  0  0  0
 19 20  1  0  0  0  0
 19 18  1  1  0  0  0
 20 21  1  0  0  0  0
 21 24  1  0  0  0  0
 24 23  1  0  0  0  0
 24 22  1  1  0  0  0
 25  1  1  0  0  0  0
 26 27  2  0  0  0  0
 27 25  1  0  0  0  0
 28 34  1  0  0  0  0
 29 28  2  0  0  0  0
 30 33  1  0  0  0  0
 30 29  1  0  0  0  0
 31 27  1  0  0  0  0
 31 34  2  0  0  0  0
 32 30  2  0  0  0  0
 33 31  1  0  0  0  0
 35 39  1  1  0  0  0
 36 28  1  6  0  0  0
 36 37  1  0  0  0  0
 36 35  1  0  0  0  0
 37 35  1  0  0  0  0
 38 37  1  0  0  0  0
 39 42  1  0  0  0  0
 40 41  1  0  0  0  0
 40 42  1  0  0  0  0
 41 42  1  0  0  0  0
 42 46  1  0  0  0  0
 46 43  1  0  0  0  0
 46 44  1  0  0  0  0
 46 45  1  0  0  0  0
M  END
>  <MODEL>
6

>  <REMARK>
 VINA RESULT:      -5.8      3.138      6.519
  Name = 
  19 active torsions:
  status: ('A' for Active; 'I' for Inactive)
    1  A    between atoms: C_2  and  C_22
    2  A    between atoms: C_2  and  O_38
    3  A    between atoms: C_3  and  N_40
    4  A    between atoms: C_7  and  C_21
    5  A    between atoms: C_8  and  C_35
    6  A    between atoms: C_8  and  C_39
    7  A    between atoms: C_12  and  N_17
    8  A    between atoms: C_12  and  C_36
    9  A    between atoms: C_14  and  C_35
   10  A    between atoms: C_14  and  O_38
   11  A    between atoms: C_16  and  N_42
   12  A    between atoms: C_18  and  C_29
   13  A    between atoms: C_18  and  N_42
   14  A    between atoms: O_19  and  C_43
   15  A    between atoms: O_19  and  C_44
   16  A    between atoms: C_24  and  C_44
   17  A    between atoms: C_27  and  C_43
   18  A    between atoms: C_31  and  N_40
   19  A    between atoms: C_36  and  C_44
                            x       y       z     vdW  Elec       q    Type
                         _______ _______ _______ _____ _____    ______ ____

>  <TORSDO>
F 19

$$$$
=
 OpenBabel11042415393D

 46 49  0  0  1  0  0  0  0  0999 V2000
  192.3320  172.0670  140.8390 C   0  0  2  0  0  3  0  0  0  0  0  0
  191.6500  171.4440  139.6700 C   0  0  0  0  0  3  0  0  0  0  0  0
  192.0100  170.2420  139.2490 C   0  0  0  0  0  3  0  0  0  0  0  0
  191.3640  169.6550  138.1220 N   0  0  0  0  0  2  0  0  0  0  0  0
  191.0340  170.3970  136.9450 C   0  0  0  0  0  0  0  0  0  0  0  0
  192.0470  170.7190  136.0330 C   0  0  0  0  0  3  0  0  0  0  0  0
  190.4400  171.8680  134.6310 C   0  0  0  0  0  3  0  0  0  0  0  0
  189.4220  171.5490  135.5360 C   0  0  0  0  0  3  0  0  0  0  0  0
  189.7180  170.8140  136.6890 C   0  0  0  0  0  3  0  0  0  0  0  0
  191.7510  171.4520  134.8790 C   0  0  0  0  0  3  0  0  0  0  0  0
  192.4690  171.0250  141.9340 C   0  0  0  0  0  2  0  0  0  0  0  0
  191.1360  170.8200  142.6310 C   0  0  0  0  0  2  0  0  0  0  0  0
  191.0260  171.7170  143.7720 N   0  0  0  0  0  2  0  0  0  0  0  0
  189.7980  172.3450  144.1430 C   0  0  0  0  0  0  0  0  0  0  0  0
  188.7430  172.1320  143.4880 O   0  0  0  0  0  0  0  0  0  0  0  0
  189.7520  173.2210  145.3430 C   0  0  0  0  0  2  0  0  0  0  0  0
  190.8590  174.0720  145.3470 O   0  0  0  0  0  0  0  0  0  0  0  0
  189.5980  175.5390  146.7590 C   0  0  0  0  0  1  0  0  0  0  0  0
  190.8430  174.6800  146.6050 C   0  0  2  0  0  3  0  0  0  0  0  0
  192.1180  175.4960  146.8350 C   0  0  0  0  0  2  0  0  0  0  0  0
  193.2870  175.0410  145.9650 C   0  0  0  0  0  2  0  0  0  0  0  0
  194.1790  177.1680  146.8720 C   0  0  0  0  0  1  0  0  0  0  0  0
  195.2970  176.0130  145.1220 O   0  0  0  0  0  1  0  0  0  0  0  0
  194.5510  175.8210  146.2850 C   0  0  2  0  0  3  0  0  0  0  0  0
  191.5590  173.1610  141.3270 O   0  0  0  0  0  0  0  0  0  0  0  0
  193.2400  174.7290  141.0980 O   0  0  0  0  0  0  0  0  0  0  0  0
  192.0880  174.4410  141.5210 C   0  0  0  0  0  0  0  0  0  0  0  0
  189.1110  176.2110  142.9570 C   0  0  0  0  0  0  0  0  0  0  0  0
  189.5920  177.2970  143.5630 C   0  0  0  0  0  3  0  0  0  0  0  0
  191.0270  177.5840  143.5240 C   0  0  0  0  0  0  0  0  0  0  0  0
  191.2900  175.4490  142.2280 C   0  0  0  0  0  0  0  0  0  0  0  0
  191.4690  178.6250  144.0750 O   0  0  0  0  0  0  0  0  0  0  0  0
  191.9780  176.6460  142.8430 C   0  0  0  0  0  2  0  0  0  0  0  0
  189.9990  175.2910  142.3050 N   0  0  0  0  0  0  0  0  0  0  0  0
  186.8290  177.0760  143.2410 C   0  0  1  0  0  3  0  0  0  0  0  0
  187.6470  175.8770  143.0690 C   0  0  1  0  0  3  0  0  0  0  0  0
  186.8270  176.3880  141.9420 N   0  0  0  0  0  0  0  0  0  0  0  0
  187.5490  177.1760  141.1100 F   0  0  0  0  0  0  0  0  0  0  0  0
  185.6200  176.7310  143.9730 N   0  0  0  0  0  2  0  0  0  0  0  0
  184.1540  178.7160  143.8110 C   0  0  0  0  0  2  0  0  0  0  0  0
  185.5660  179.2450  144.0480 C   0  0  0  0  0  2  0  0  0  0  0  0
  185.1310  177.9260  144.6540 C   0  0  0  0  0  0  0  0  0  0  0  0
  183.7080  178.6450  146.4370 F   0  0  0  0  0  0  0  0  0  0  0  0
  185.9950  178.3690  146.9640 C   0  0  0  0  0  1  0  0  0  0  0  0
  184.5370  176.5560  146.5450 F   0  0  0  0  0  0  0  0  0  0  0  0
  184.8130  177.8580  146.1570 C   0  0  0  0  0  0  0  0  0  0  0  0
  1  2  1  6  0  0  0
  1 25  1  0  0  0  0
  1 11  1  0  0  0  0
  3  2  2  0  0  0  0
  4  3  1  0  0  0  0
  5  4  1  0  0  0  0
  6  5  2  0  0  0  0
  7 10  2  0  0  0  0
  7  8  1  0  0  0  0
  8  9  2  0  0  0  0
  9  5  1  0  0  0  0
 10  6  1  0  0  0  0
 11 12  1  0  0  0  0
 12 13  1  0  0  0  0
 13 14  1  0  0  0  0
 14 16  1  0  0  0  0
 15 14  2  0  0  0  0
 16 17  1  0  0  0  0
 17 19  1  0  0  0  0
 19 18  1  6  0  0  0
 19 20  1  0  0  0  0
 21 24  1  0  0  0  0
 21 20  1  0  0  0  0
 23 24  1  0  0  0  0
 24 22  1  6  0  0  0
 25 27  1  0  0  0  0
 26 27  2  0  0  0  0
 27 31  1  0  0  0  0
 28 29  2  0  0  0  0
 30 29  1  0  0  0  0
 30 32  2  0  0  0  0
 31 34  2  0  0  0  0
 31 33  1  0  0  0  0
 33 30  1  0  0  0  0
 34 28  1  0  0  0  0
 35 39  1  1  0  0  0
 36 28  1  6  0  0  0
 36 35  1  0  0  0  0
 37 36  1  0  0  0  0
 37 35  1  0  0  0  0
 38 37  1  0  0  0  0
 39 42  1  0  0  0  0
 40 41  1  0  0  0  0
 40 42  1  0  0  0  0
 41 42  1  0  0  0  0
 42 46  1  0  0  0  0
 46 43  1  0  0  0  0
 46 45  1  0  0  0  0
 46 44  1  0  0  0  0
M  END
>  <MODEL>
7

>  <REMARK>
 VINA RESULT:      -5.7      3.142      7.720
  Name = 
  19 active torsions:
  status: ('A' for Active; 'I' for Inactive)
    1  A    between atoms: C_2  and  C_22
    2  A    between atoms: C_2  and  O_38
    3  A    between atoms: C_3  and  N_40
    4  A    between atoms: C_7  and  C_21
    5  A    between atoms: C_8  and  C_35
    6  A    between atoms: C_8  and  C_39
    7  A    between atoms: C_12  and  N_17
    8  A    between atoms: C_12  and  C_36
    9  A    between atoms: C_14  and  C_35
   10  A    between atoms: C_14  and  O_38
   11  A    between atoms: C_16  and  N_42
   12  A    between atoms: C_18  and  C_29
   13  A    between atoms: C_18  and  N_42
   14  A    between atoms: O_19  and  C_43
   15  A    between atoms: O_19  and  C_44
   16  A    between atoms: C_24  and  C_44
   17  A    between atoms: C_27  and  C_43
   18  A    between atoms: C_31  and  N_40
   19  A    between atoms: C_36  and  C_44
                            x       y       z     vdW  Elec       q    Type
                         _______ _______ _______ _____ _____    ______ ____

>  <TORSDO>
F 19

$$$$
=
 OpenBabel11042415393D

 46 49  0  0  1  0  0  0  0  0999 V2000
  192.0190  171.3650  142.5970 C   0  0  2  0  0  3  0  0  0  0  0  0
  192.4380  170.2520  143.4960 C   0  0  0  0  0  3  0  0  0  0  0  0
  193.6240  169.6820  143.3450 C   0  0  0  0  0  3  0  0  0  0  0  0
  194.0150  168.6090  144.1990 N   0  0  0  0  0  2  0  0  0  0  0  0
  194.8870  168.7890  145.3190 C   0  0  0  0  0  0  0  0  0  0  0  0
  194.5030  168.2930  146.5710 C   0  0  0  0  0  3  0  0  0  0  0  0
  196.5540  169.1350  147.5480 C   0  0  0  0  0  3  0  0  0  0  0  0
  196.9450  169.6320  146.3000 C   0  0  0  0  0  3  0  0  0  0  0  0
  196.1140  169.4580  145.1880 C   0  0  0  0  0  3  0  0  0  0  0  0
  195.3350  168.4650  147.6830 C   0  0  0  0  0  3  0  0  0  0  0  0
  193.2590  171.9900  141.9860 C   0  0  0  0  0  2  0  0  0  0  0  0
  192.9280  173.3560  141.4130 C   0  0  0  0  0  2  0  0  0  0  0  0
  193.4160  174.4020  142.3010 N   0  0  0  0  0  2  0  0  0  0  0  0
  194.7180  174.9740  142.1750 C   0  0  0  0  0  0  0  0  0  0  0  0
  195.5030  174.5940  141.2660 O   0  0  0  0  0  0  0  0  0  0  0  0
  195.1350  176.0650  143.0960 C   0  0  0  0  0  2  0  0  0  0  0  0
  196.1600  175.6100  143.9280 O   0  0  0  0  0  0  0  0  0  0  0  0
  195.1430  174.2230  145.5960 C   0  0  0  0  0  1  0  0  0  0  0  0
  195.6100  175.6180  145.2140 C   0  0  2  0  0  3  0  0  0  0  0  0
  194.4710  176.6360  145.3150 C   0  0  0  0  0  2  0  0  0  0  0  0
  193.6750  176.5220  146.6130 C   0  0  0  0  0  2  0  0  0  0  0  0
  191.6150  175.3240  147.2920 C   0  0  0  0  0  1  0  0  0  0  0  0
  191.9970  175.9260  145.0250 O   0  0  0  0  0  1  0  0  0  0  0  0
  192.1910  176.3530  146.3390 C   0  0  2  0  0  3  0  0  0  0  0  0
  191.3150  172.3530  143.3440 O   0  0  0  0  0  0  0  0  0  0  0  0
  189.1950  171.8530  144.1150 O   0  0  0  0  0  0  0  0  0  0  0  0
  189.9230  172.4890  143.3060 C   0  0  0  0  0  0  0  0  0  0  0  0
  188.2710  175.5050  141.8120 C   0  0  0  0  0  0  0  0  0  0  0  0
  188.1180  175.2310  140.5160 C   0  0  0  0  0  3  0  0  0  0  0  0
  188.5410  173.9330  139.9870 C   0  0  0  0  0  0  0  0  0  0  0  0
  189.3150  173.3790  142.3100 C   0  0  0  0  0  0  0  0  0  0  0  0
  188.3690  173.6720  138.7680 O   0  0  0  0  0  0  0  0  0  0  0  0
  189.1860  172.9140  140.8780 C   0  0  0  0  0  2  0  0  0  0  0  0
  188.8920  174.5530  142.6870 N   0  0  0  0  0  0  0  0  0  0  0  0
  188.4420  177.0920  143.6800 C   0  0  1  0  0  3  0  0  0  0  0  0
  187.9110  176.8700  142.3360 C   0  0  1  0  0  3  0  0  0  0  0  0
  189.0790  177.7630  142.5380 N   0  0  0  0  0  0  0  0  0  0  0  0
  190.2510  177.1120  142.3390 F   0  0  0  0  0  0  0  0  0  0  0  0
  187.5900  178.0390  144.3830 N   0  0  0  0  0  2  0  0  0  0  0  0
  188.5650  177.4650  146.5800 C   0  0  0  0  0  2  0  0  0  0  0  0
  187.9500  176.1790  146.0370 C   0  0  0  0  0  2  0  0  0  0  0  0
  187.3220  177.5200  145.7210 C   0  0  0  0  0  0  0  0  0  0  0  0
  185.9110  179.3140  146.4370 F   0  0  0  0  0  0  0  0  0  0  0  0
  186.0600  177.4510  147.8840 C   0  0  0  0  0  1  0  0  0  0  0  0
  184.9170  177.3940  145.8150 F   0  0  0  0  0  0  0  0  0  0  0  0
  186.0290  177.9340  146.4430 C   0  0  0  0  0  0  0  0  0  0  0  0
  1 11  1  1  0  0  0
  1 25  1  0  0  0  0
  1  2  1  0  0  0  0
  3  2  2  0  0  0  0
  3  4  1  0  0  0  0
  4  5  1  0  0  0  0
  5  6  1  0  0  0  0
  6 10  2  0  0  0  0
  7 10  1  0  0  0  0
  8  7  2  0  0  0  0
  9  5  2  0  0  0  0
  9  8  1  0  0  0  0
 12 11  1  0  0  0  0
 12 13  1  0  0  0  0
 14 13  1  0  0  0  0
 14 16  1  0  0  0  0
 15 14  2  0  0  0  0
 16 17  1  0  0  0  0
 17 19  1  0  0  0  0
 19 20  1  0  0  0  0
 19 18  1  6  0  0  0
 20 21  1  0  0  0  0
 23 24  1  0  0  0  0
 24 21  1  0  0  0  0
 24 22  1  1  0  0  0
 27 25  1  0  0  0  0
 27 26  2  0  0  0  0
 28 34  1  0  0  0  0
 29 28  2  0  0  0  0
 30 29  1  0  0  0  0
 30 33  1  0  0  0  0
 31 34  2  0  0  0  0
 31 27  1  0  0  0  0
 32 30  2  0  0  0  0
 33 31  1  0  0  0  0
 35 39  1  1  0  0  0
 36 28  1  6  0  0  0
 36 37  1  0  0  0  0
 36 35  1  0  0  0  0
 37 35  1  0  0  0  0
 38 37  1  0  0  0  0
 39 42  1  0  0  0  0
 41 40  1  0  0  0  0
 42 41  1  0  0  0  0
 42 46  1  0  0  0  0
 42 40  1  0  0  0  0
 43 46  1  0  0  0  0
 45 46  1  0  0  0  0
 46 44  1  0  0  0  0
M  END
>  <MODEL>
8

>  <REMARK>
 VINA RESULT:      -5.7      2.853      8.599
  Name = 
  19 active torsions:
  status: ('A' for Active; 'I' for Inactive)
    1  A    between atoms: C_2  and  C_22
    2  A    between atoms: C_2  and  O_38
    3  A    between atoms: C_3  and  N_40
    4  A    between atoms: C_7  and  C_21
    5  A    between atoms: C_8  and  C_35
    6  A    between atoms: C_8  and  C_39
    7  A    between atoms: C_12  and  N_17
    8  A    between atoms: C_12  and  C_36
    9  A    between atoms: C_14  and  C_35
   10  A    between atoms: C_14  and  O_38
   11  A    between atoms: C_16  and  N_42
   12  A    between atoms: C_18  and  C_29
   13  A    between atoms: C_18  and  N_42
   14  A    between atoms: O_19  and  C_43
   15  A    between atoms: O_19  and  C_44
   16  A    between atoms: C_24  and  C_44
   17  A    between atoms: C_27  and  C_43
   18  A    between atoms: C_31  and  N_40
   19  A    between atoms: C_36  and  C_44
                            x       y       z     vdW  Elec       q    Type
                         _______ _______ _______ _____ _____    ______ ____

>  <TORSDO>
F 19

$$$$
=
 OpenBabel11042415393D

 46 49  0  0  1  0  0  0  0  0999 V2000
  190.4210  173.5310  141.5110 C   0  0  2  0  0  3  0  0  0  0  0  0
  189.6120  173.4170  140.2650 C   0  0  0  0  0  3  0  0  0  0  0  0
  190.2080  173.3680  139.0840 C   0  0  0  0  0  3  0  0  0  0  0  0
  189.4300  173.2710  137.8930 N   0  0  0  0  0  2  0  0  0  0  0  0
  189.5160  174.2250  136.8320 C   0  0  0  0  0  0  0  0  0  0  0  0
  190.7570  174.4710  136.2310 C   0  0  0  0  0  3  0  0  0  0  0  0
  189.7380  176.1040  134.7600 C   0  0  0  0  0  3  0  0  0  0  0  0
  188.4940  175.8630  135.3540 C   0  0  0  0  0  3  0  0  0  0  0  0
  188.3830  174.9260  136.3860 C   0  0  0  0  0  3  0  0  0  0  0  0
  190.8680  175.4080  135.1970 C   0  0  0  0  0  3  0  0  0  0  0  0
  189.6750  174.4130  142.4960 C   0  0  0  0  0  2  0  0  0  0  0  0
  189.7370  175.8630  142.0500 C   0  0  0  0  0  2  0  0  0  0  0  0
  188.8370  176.6730  142.8580 N   0  0  0  0  0  2  0  0  0  0  0  0
  187.8380  177.5180  142.2860 C   0  0  0  0  0  0  0  0  0  0  0  0
  187.6900  177.5870  141.0370 O   0  0  0  0  0  0  0  0  0  0  0  0
  186.9290  178.2890  143.1750 C   0  0  0  0  0  2  0  0  0  0  0  0
  185.7890  178.6700  142.4650 O   0  0  0  0  0  0  0  0  0  0  0  0
  183.3980  178.6400  142.6140 C   0  0  0  0  0  1  0  0  0  0  0  0
  184.7200  178.3900  143.3210 C   0  0  2  0  0  3  0  0  0  0  0  0
  184.8270  179.2040  144.6130 C   0  0  0  0  0  2  0  0  0  0  0  0
  183.9010  178.7030  145.7190 C   0  0  0  0  0  2  0  0  0  0  0  0
  185.8870  178.9330  147.1830 C   0  0  0  0  0  1  0  0  0  0  0  0
  185.1210  176.7970  146.4760 O   0  0  0  0  0  1  0  0  0  0  0  0
  184.6870  178.0680  146.8540 C   0  0  2  0  0  3  0  0  0  0  0  0
  191.6850  174.1190  141.2180 O   0  0  0  0  0  0  0  0  0  0  0  0
  193.1120  172.3310  141.5400 O   0  0  0  0  0  0  0  0  0  0  0  0
  192.8990  173.5690  141.6440 C   0  0  0  0  0  0  0  0  0  0  0  0
  194.5440  176.0490  143.9240 C   0  0  0  0  0  0  0  0  0  0  0  0
  195.7880  176.1940  143.4670 C   0  0  0  0  0  3  0  0  0  0  0  0
  196.2180  175.4680  142.2700 C   0  0  0  0  0  0  0  0  0  0  0  0
  193.9240  174.4480  142.2180 C   0  0  0  0  0  0  0  0  0  0  0  0
  197.3850  175.6300  141.8290 O   0  0  0  0  0  0  0  0  0  0  0  0
  195.2860  174.5250  141.5680 C   0  0  0  0  0  2  0  0  0  0  0  0
  193.6330  175.1480  143.2780 N   0  0  0  0  0  0  0  0  0  0  0  0
  193.1320  175.9570  145.9330 C   0  0  1  0  0  3  0  0  0  0  0  0
  194.1310  176.7330  145.2000 C   0  0  1  0  0  3  0  0  0  0  0  0
  194.5150  175.9930  146.4290 N   0  0  0  0  0  0  0  0  0  0  0  0
  195.0390  174.7770  146.1420 F   0  0  0  0  0  0  0  0  0  0  0  0
  192.3100  176.8580  146.7260 N   0  0  0  0  0  2  0  0  0  0  0  0
  190.8420  175.3030  147.9650 C   0  0  0  0  0  2  0  0  0  0  0  0
  190.8570  174.8160  146.5180 C   0  0  0  0  0  2  0  0  0  0  0  0
  190.9680  176.2940  146.8290 C   0  0  0  0  0  0  0  0  0  0  0  0
  189.5720  178.0340  147.6950 F   0  0  0  0  0  0  0  0  0  0  0  0
  188.4970  176.3630  146.4160 C   0  0  0  0  0  1  0  0  0  0  0  0
  189.9270  177.9930  145.4740 F   0  0  0  0  0  0  0  0  0  0  0  0
  189.7500  177.2040  146.6000 C   0  0  0  0  0  0  0  0  0  0  0  0
  1  2  1  6  0  0  0
  1 11  1  0  0  0  0
  3  2  2  0  0  0  0
  4  3  1  0  0  0  0
  5  4  1  0  0  0  0
  6  5  2  0  0  0  0
  7 10  2  0  0  0  0
  7  8  1  0  0  0  0
  8  9  2  0  0  0  0
  9  5  1  0  0  0  0
 10  6  1  0  0  0  0
 12 11  1  0  0  0  0
 12 13  1  0  0  0  0
 14 13  1  0  0  0  0
 14 16  1  0  0  0  0
 15 14  2  0  0  0  0
 17 16  1  0  0  0  0
 17 19  1  0  0  0  0
 19 18  1  6  0  0  0
 19 20  1  0  0  0  0
 20 21  1  0  0  0  0
 21 24  1  0  0  0  0
 23 24  1  0  0  0  0
 24 22  1  6  0  0  0
 25  1  1  0  0  0  0
 25 27  1  0  0  0  0
 26 27  2  0  0  0  0
 27 31  1  0  0  0  0
 29 28  2  0  0  0  0
 30 29  1  0  0  0  0
 31 34  2  0  0  0  0
 32 30  2  0  0  0  0
 33 31  1  0  0  0  0
 33 30  1  0  0  0  0
 34 28  1  0  0  0  0
 35 37  1  0  0  0  0
 35 39  1  1  0  0  0
 36 28  1  6  0  0  0
 36 35  1  0  0  0  0
 36 37  1  0  0  0  0
 38 37  1  0  0  0  0
 39 42  1  0  0  0  0
 41 42  1  0  0  0  0
 41 40  1  0  0  0  0
 42 40  1  0  0  0  0
 44 46  1  0  0  0  0
 45 46  1  0  0  0  0
 46 42  1  0  0  0  0
 46 43  1  0  0  0  0
M  END
>  <MODEL>
9

>  <REMARK>
 VINA RESULT:      -5.7      3.328      5.669
  Name = 
  19 active torsions:
  status: ('A' for Active; 'I' for Inactive)
    1  A    between atoms: C_2  and  C_22
    2  A    between atoms: C_2  and  O_38
    3  A    between atoms: C_3  and  N_40
    4  A    between atoms: C_7  and  C_21
    5  A    between atoms: C_8  and  C_35
    6  A    between atoms: C_8  and  C_39
    7  A    between atoms: C_12  and  N_17
    8  A    between atoms: C_12  and  C_36
    9  A    between atoms: C_14  and  C_35
   10  A    between atoms: C_14  and  O_38
   11  A    between atoms: C_16  and  N_42
   12  A    between atoms: C_18  and  C_29
   13  A    between atoms: C_18  and  N_42
   14  A    between atoms: O_19  and  C_43
   15  A    between atoms: O_19  and  C_44
   16  A    between atoms: C_24  and  C_44
   17  A    between atoms: C_27  and  C_43
   18  A    between atoms: C_31  and  N_40
   19  A    between atoms: C_36  and  C_44
                            x       y       z     vdW  Elec       q    Type
                         _______ _______ _______ _____ _____    ______ ____

>  <TORSDO>
F 19

$$$$
