=
 OpenBabel11042417283D

 29 32  0  0  1  0  0  0  0  0999 V2000
  187.3080  178.2920  144.4020 O   0  0  0  0  0  1  0  0  0  0  0  0
  185.9470  176.7170  143.2010 C   0  0  0  0  0  2  0  0  0  0  0  0
  187.2490  178.4570  142.0560 N   0  0  0  0  0  2  0  0  0  0  0  0
  188.3860  177.5440  141.9120 C   0  0  0  0  0  2  0  0  0  0  0  0
  186.4830  178.1540  143.2720 C   0  0  2  0  0  0  0  0  0  0  0  0
  187.0870  175.7220  142.9980 C   0  0  0  0  0  2  0  0  0  0  0  0
  187.8990  176.1050  141.7640 C   0  0  2  0  0  3  0  0  0  0  0  0
  184.4280  178.8120  144.3930 N   0  0  0  0  0  0  0  0  0  0  0  0
  185.2790  179.1150  143.3280 C   0  0  2  0  0  3  0  0  0  0  0  0
  184.0820  178.5310  142.9260 C   0  0  0  0  0  0  0  0  0  0  0  0
  183.3070  178.0870  142.0400 O   0  0  0  0  0  0  0  0  0  0  0  0
  184.1210  178.7450  145.8120 C   0  0  0  0  0  2  0  0  0  0  0  0
  184.6530  177.4540  146.4070 C   0  0  0  0  0  2  0  0  0  0  0  0
  185.9090  179.1850  147.5490 N   0  0  0  0  0  1  0  0  0  0  0  0
  185.7570  177.7490  147.4040 C   0  0  0  0  0  2  0  0  0  0  0  0
  189.0480  175.2240  141.6360 N   0  0  0  0  0  2  0  0  0  0  0  0
  189.5910  173.1120  142.7140 C   0  0  0  0  0  1  0  0  0  0  0  0
  189.2640  174.5800  142.9230 C   0  0  1  0  0  3  0  0  0  0  0  0
  191.5570  176.5710  146.5640 O   0  0  0  0  0  0  0  0  0  0  0  0
  190.2970  175.7430  144.9030 N   0  0  0  0  0  0  0  0  0  0  0  0
  190.2500  176.4070  147.1370 C   0  0  0  0  0  3  0  0  0  0  0  0
  189.3660  175.8020  146.0060 C   0  0  0  0  0  3  0  0  0  0  0  0
  192.3910  175.9870  144.2470 C   0  0  0  0  0  0  0  0  0  0  0  0
  191.4790  176.1490  145.2610 C   0  0  0  0  0  0  0  0  0  0  0  0
  191.6880  175.3970  143.1890 C   0  0  0  0  0  3  0  0  0  0  0  0
  190.3720  175.2690  143.6500 C   0  0  0  0  0  0  0  0  0  0  0  0
  193.8510  176.2930  144.2900 C   0  0  0  0  0  2  0  0  0  0  0  0
  194.9510  175.5420  146.1640 N   0  0  0  0  0  1  0  0  0  0  0  0
  194.5890  175.1770  144.8610 N   0  0  0  0  0  2  0  0  0  0  0  0
  2  5  1  0  0  0  0
  3  5  1  0  0  0  0
  4  3  1  0  0  0  0
  5  9  1  0  0  0  0
  5  1  1  1  0  0  0
  6  2  1  0  0  0  0
  7 16  1  1  0  0  0
  7  4  1  0  0  0  0
  7  6  1  0  0  0  0
  8 12  1  0  0  0  0
  9 10  1  6  0  0  0
  9  8  1  0  0  0  0
 10  8  1  0  0  0  0
 11 10  2  0  0  0  0
 12 13  1  0  0  0  0
 13 15  1  0  0  0  0
 15 14  1  0  0  0  0
 16 18  1  0  0  0  0
 18 17  1  6  0  0  0
 18 26  1  0  0  0  0
 19 21  1  0  0  0  0
 20 24  1  0  0  0  0
 20 22  1  0  0  0  0
 22 21  2  0  0  0  0
 23 27  1  0  0  0  0
 23 24  2  0  0  0  0
 24 19  1  0  0  0  0
 25 26  2  0  0  0  0
 25 23  1  0  0  0  0
 26 20  1  0  0  0  0
 27 29  1  0  0  0  0
 29 28  1  0  0  0  0
M  END
>  <MODEL>
1

>  <REMARK>
 VINA RESULT:      -6.6      0.000      0.000
  Name = 
  9 active torsions:
  status: ('A' for Active; 'I' for Inactive)
    1  A    between atoms: C_1  and  N_6
    2  A    between atoms: C_1  and  C_23
    3  A    between atoms: C_2  and  C_16
    4  A    between atoms: C_2  and  N_27
    5  A    between atoms: CA_8  and  C_15
    6  A    between atoms: C_10  and  C_23
    7  A    between atoms: N_17  and  C_28
    8  A    between atoms: N_17  and  C_29
    9  A    between atoms: C_24  and  C_28
                            x       y       z     vdW  Elec       q    Type
                         _______ _______ _______ _____ _____    ______ ____

>  <TORSDO>
F 9

$$$$
=
 OpenBabel11042417283D

 29 32  0  0  1  0  0  0  0  0999 V2000
  186.9570  178.2650  141.6640 O   0  0  0  0  0  1  0  0  0  0  0  0
  187.6820  178.1150  143.9500 C   0  0  0  0  0  2  0  0  0  0  0  0
  186.0230  176.5710  143.0020 N   0  0  0  0  0  2  0  0  0  0  0  0
  187.0800  175.6260  142.6320 C   0  0  0  0  0  2  0  0  0  0  0  0
  186.5180  177.9540  142.9620 C   0  0  2  0  0  0  0  0  0  0  0  0
  188.7950  177.1160  143.6450 C   0  0  0  0  0  2  0  0  0  0  0  0
  188.2320  175.6980  143.6310 C   0  0  2  0  0  3  0  0  0  0  0  0
  184.6690  178.3430  144.4930 N   0  0  0  0  0  0  0  0  0  0  0  0
  185.3720  178.8820  143.4120 C   0  0  2  0  0  3  0  0  0  0  0  0
  184.1090  178.4140  143.0670 C   0  0  0  0  0  0  0  0  0  0  0  0
  183.2000  178.1910  142.2250 O   0  0  0  0  0  0  0  0  0  0  0  0
  184.5630  177.9490  145.8870 C   0  0  0  0  0  2  0  0  0  0  0  0
  185.3560  178.8990  146.7660 C   0  0  0  0  0  2  0  0  0  0  0  0
  186.4700  176.7710  147.0910 N   0  0  0  0  0  1  0  0  0  0  0  0
  186.3750  178.1320  147.5870 C   0  0  0  0  0  2  0  0  0  0  0  0
  189.2680  174.7590  143.2300 N   0  0  0  0  0  2  0  0  0  0  0  0
  189.7380  172.4950  143.9880 C   0  0  0  0  0  1  0  0  0  0  0  0
  189.6150  173.9540  144.3920 C   0  0  1  0  0  3  0  0  0  0  0  0
  192.4740  176.1910  147.4420 O   0  0  0  0  0  0  0  0  0  0  0  0
  190.9960  175.3110  146.0030 N   0  0  0  0  0  0  0  0  0  0  0  0
  191.1920  176.6610  147.8920 C   0  0  0  0  0  3  0  0  0  0  0  0
  190.1490  176.0340  146.9210 C   0  0  0  0  0  3  0  0  0  0  0  0
  193.0440  174.6300  145.5340 C   0  0  0  0  0  0  0  0  0  0  0  0
  192.2480  175.4080  146.3390 C   0  0  0  0  0  0  0  0  0  0  0  0
  192.1750  173.9810  144.6470 C   0  0  0  0  0  3  0  0  0  0  0  0
  190.8970  174.4480  144.9790 C   0  0  0  0  0  0  0  0  0  0  0  0
  194.5200  174.4420  145.6360 C   0  0  0  0  0  2  0  0  0  0  0  0
  195.5800  175.9750  144.2880 N   0  0  0  0  0  1  0  0  0  0  0  0
  195.2000  175.7280  145.6140 N   0  0  0  0  0  2  0  0  0  0  0  0
  4  3  1  0  0  0  0
  4  7  1  0  0  0  0
  5  1  1  6  0  0  0
  5  3  1  0  0  0  0
  5  9  1  0  0  0  0
  5  2  1  0  0  0  0
  6  2  1  0  0  0  0
  7 16  1  6  0  0  0
  7  6  1  0  0  0  0
  8 12  1  0  0  0  0
  9 10  1  6  0  0  0
  9  8  1  0  0  0  0
 10  8  1  0  0  0  0
 11 10  2  0  0  0  0
 12 13  1  0  0  0  0
 13 15  1  0  0  0  0
 14 15  1  0  0  0  0
 16 18  1  0  0  0  0
 18 17  1  6  0  0  0
 18 26  1  0  0  0  0
 19 21  1  0  0  0  0
 20 24  1  0  0  0  0
 20 22  1  0  0  0  0
 22 21  2  0  0  0  0
 23 27  1  0  0  0  0
 23 24  2  0  0  0  0
 24 19  1  0  0  0  0
 25 26  2  0  0  0  0
 25 23  1  0  0  0  0
 26 20  1  0  0  0  0
 28 29  1  0  0  0  0
 29 27  1  0  0  0  0
M  END
>  <MODEL>
2

>  <REMARK>
 VINA RESULT:      -6.6      1.493      1.698
  Name = 
  9 active torsions:
  status: ('A' for Active; 'I' for Inactive)
    1  A    between atoms: C_1  and  N_6
    2  A    between atoms: C_1  and  C_23
    3  A    between atoms: C_2  and  C_16
    4  A    between atoms: C_2  and  N_27
    5  A    between atoms: CA_8  and  C_15
    6  A    between atoms: C_10  and  C_23
    7  A    between atoms: N_17  and  C_28
    8  A    between atoms: N_17  and  C_29
    9  A    between atoms: C_24  and  C_28
                            x       y       z     vdW  Elec       q    Type
                         _______ _______ _______ _____ _____    ______ ____

>  <TORSDO>
F 9

$$$$
=
 OpenBabel11042417283D

 29 32  0  0  1  0  0  0  0  0999 V2000
  193.4900  173.4750  145.7540 O   0  0  0  0  0  1  0  0  0  0  0  0
  194.0750  175.7770  146.1190 C   0  0  0  0  0  2  0  0  0  0  0  0
  192.7640  175.0560  144.1700 N   0  0  0  0  0  2  0  0  0  0  0  0
  191.5130  175.2860  144.8990 C   0  0  0  0  0  2  0  0  0  0  0  0
  193.8410  174.6630  145.0890 C   0  0  2  0  0  0  0  0  0  0  0  0
  192.7880  176.0980  146.8740 C   0  0  0  0  0  2  0  0  0  0  0  0
  191.6750  176.4390  145.8860 C   0  0  2  0  0  3  0  0  0  0  0  0
  196.2580  174.4000  145.0840 N   0  0  0  0  0  0  0  0  0  0  0  0
  195.1310  174.4910  144.2630 C   0  0  2  0  0  3  0  0  0  0  0  0
  195.9270  175.6310  144.2310 C   0  0  0  0  0  0  0  0  0  0  0  0
  196.1790  176.7970  143.8290 O   0  0  0  0  0  0  0  0  0  0  0  0
  197.0860  173.7070  146.0560 C   0  0  0  0  0  2  0  0  0  0  0  0
  196.7760  172.2210  146.0490 C   0  0  0  0  0  2  0  0  0  0  0  0
  197.5530  170.0880  145.1980 N   0  0  0  0  0  1  0  0  0  0  0  0
  197.5760  171.5210  144.9670 C   0  0  0  0  0  2  0  0  0  0  0  0
  190.4240  176.6340  146.5990 N   0  0  0  0  0  2  0  0  0  0  0  0
  189.2020  174.6620  147.3350 C   0  0  0  0  0  1  0  0  0  0  0  0
  189.4990  175.5940  146.1740 C   0  0  1  0  0  3  0  0  0  0  0  0
  186.1000  176.7200  143.0650 O   0  0  0  0  0  0  0  0  0  0  0  0
  187.8520  176.2370  144.3800 N   0  0  0  0  0  0  0  0  0  0  0  0
  187.0680  176.1200  142.1880 C   0  0  0  0  0  3  0  0  0  0  0  0
  188.2820  175.7490  143.0910 C   0  0  0  0  0  3  0  0  0  0  0  0
  186.1990  177.0950  145.5660 C   0  0  0  0  0  0  0  0  0  0  0  0
  186.6530  176.7350  144.3210 C   0  0  0  0  0  0  0  0  0  0  0  0
  187.2190  176.7500  146.4610 C   0  0  0  0  0  3  0  0  0  0  0  0
  188.2410  176.2190  145.6650 C   0  0  0  0  0  0  0  0  0  0  0  0
  184.8610  177.6580  145.9100 C   0  0  0  0  0  2  0  0  0  0  0  0
  183.8710  179.0400  144.3620 N   0  0  0  0  0  1  0  0  0  0  0  0
  184.7520  179.0340  145.4510 N   0  0  0  0  0  2  0  0  0  0  0  0
  2  6  1  0  0  0  0
  3  4  1  0  0  0  0
  3  5  1  0  0  0  0
  4  7  1  0  0  0  0
  5  1  1  1  0  0  0
  5  2  1  0  0  0  0
  7 16  1  1  0  0  0
  7  6  1  0  0  0  0
  8 12  1  0  0  0  0
  9 10  1  6  0  0  0
  9  8  1  0  0  0  0
  9  5  1  0  0  0  0
 10  8  1  0  0  0  0
 11 10  2  0  0  0  0
 13 12  1  0  0  0  0
 15 14  1  0  0  0  0
 15 13  1  0  0  0  0
 18 16  1  0  0  0  0
 18 17  1  1  0  0  0
 19 24  1  0  0  0  0
 20 26  1  0  0  0  0
 21 19  1  0  0  0  0
 21 22  2  0  0  0  0
 22 20  1  0  0  0  0
 23 27  1  0  0  0  0
 23 25  1  0  0  0  0
 24 20  1  0  0  0  0
 24 23  2  0  0  0  0
 26 18  1  0  0  0  0
 26 25  2  0  0  0  0
 28 29  1  0  0  0  0
 29 27  1  0  0  0  0
M  END
>  <MODEL>
3

>  <REMARK>
 VINA RESULT:      -6.4      2.796      8.972
  Name = 
  9 active torsions:
  status: ('A' for Active; 'I' for Inactive)
    1  A    between atoms: C_1  and  N_6
    2  A    between atoms: C_1  and  C_23
    3  A    between atoms: C_2  and  C_16
    4  A    between atoms: C_2  and  N_27
    5  A    between atoms: CA_8  and  C_15
    6  A    between atoms: C_10  and  C_23
    7  A    between atoms: N_17  and  C_28
    8  A    between atoms: N_17  and  C_29
    9  A    between atoms: C_24  and  C_28
                            x       y       z     vdW  Elec       q    Type
                         _______ _______ _______ _____ _____    ______ ____

>  <TORSDO>
F 9

$$$$
=
 OpenBabel11042417283D

 29 32  0  0  1  0  0  0  0  0999 V2000
  187.3250  178.1310  144.3320 O   0  0  0  0  0  1  0  0  0  0  0  0
  185.8210  176.7000  143.1210 C   0  0  0  0  0  2  0  0  0  0  0  0
  187.1590  178.4310  142.0040 N   0  0  0  0  0  2  0  0  0  0  0  0
  188.2350  177.4690  141.7530 C   0  0  0  0  0  2  0  0  0  0  0  0
  186.4380  178.1000  143.2410 C   0  0  2  0  0  0  0  0  0  0  0  0
  186.8920  175.6600  142.8050 C   0  0  0  0  0  2  0  0  0  0  0  0
  187.6620  176.0680  141.5530 C   0  0  2  0  0  3  0  0  0  0  0  0
  184.4990  178.8190  144.5200 N   0  0  0  0  0  0  0  0  0  0  0  0
  185.2940  179.1190  143.4110 C   0  0  2  0  0  3  0  0  0  0  0  0
  184.0440  178.6140  143.0700 C   0  0  0  0  0  0  0  0  0  0  0  0
  183.1910  178.2440  142.2220 O   0  0  0  0  0  0  0  0  0  0  0  0
  184.2810  178.7130  145.9530 C   0  0  0  0  0  2  0  0  0  0  0  0
  184.6860  177.3360  146.4480 C   0  0  0  0  0  2  0  0  0  0  0  0
  186.1560  178.8270  147.6710 N   0  0  0  0  0  1  0  0  0  0  0  0
  185.9090  177.4350  147.3400 C   0  0  0  0  0  2  0  0  0  0  0  0
  188.7530  175.1370  141.3180 N   0  0  0  0  0  2  0  0  0  0  0  0
  189.0250  172.8510  142.1070 C   0  0  0  0  0  1  0  0  0  0  0  0
  188.9010  174.3110  142.5070 C   0  0  1  0  0  3  0  0  0  0  0  0
  193.4080  175.5680  143.2730 O   0  0  0  0  0  0  0  0  0  0  0  0
  191.3530  174.8080  142.7920 N   0  0  0  0  0  0  0  0  0  0  0  0
  193.4960  175.0910  141.9200 C   0  0  0  0  0  3  0  0  0  0  0  0
  192.0680  174.5860  141.5570 C   0  0  0  0  0  3  0  0  0  0  0  0
  191.4100  175.6770  144.8210 C   0  0  0  0  0  0  0  0  0  0  0  0
  192.1160  175.3630  143.6860 C   0  0  0  0  0  0  0  0  0  0  0  0
  190.0850  175.2980  144.5660 C   0  0  0  0  0  3  0  0  0  0  0  0
  190.1030  174.7500  143.2770 C   0  0  0  0  0  0  0  0  0  0  0  0
  191.9230  176.3620  146.0430 C   0  0  0  0  0  2  0  0  0  0  0  0
  191.2350  175.3950  148.0130 N   0  0  0  0  0  1  0  0  0  0  0  0
  190.9030  176.3860  147.0800 N   0  0  0  0  0  2  0  0  0  0  0  0
  2  5  1  0  0  0  0
  3  5  1  0  0  0  0
  4  3  1  0  0  0  0
  5  9  1  0  0  0  0
  5  1  1  1  0  0  0
  6  2  1  0  0  0  0
  7 16  1  1  0  0  0
  7  4  1  0  0  0  0
  7  6  1  0  0  0  0
  8 12  1  0  0  0  0
  9 10  1  6  0  0  0
  9  8  1  0  0  0  0
 10  8  1  0  0  0  0
 11 10  2  0  0  0  0
 12 13  1  0  0  0  0
 13 15  1  0  0  0  0
 15 14  1  0  0  0  0
 16 18  1  0  0  0  0
 18 17  1  6  0  0  0
 18 26  1  0  0  0  0
 19 24  1  0  0  0  0
 20 26  1  0  0  0  0
 20 24  1  0  0  0  0
 21 19  1  0  0  0  0
 22 21  2  0  0  0  0
 22 20  1  0  0  0  0
 23 27  1  0  0  0  0
 24 23  2  0  0  0  0
 25 23  1  0  0  0  0
 26 25  2  0  0  0  0
 27 29  1  0  0  0  0
 29 28  1  0  0  0  0
M  END
>  <MODEL>
4

>  <REMARK>
 VINA RESULT:      -6.4      1.534      2.242
  Name = 
  9 active torsions:
  status: ('A' for Active; 'I' for Inactive)
    1  A    between atoms: C_1  and  N_6
    2  A    between atoms: C_1  and  C_23
    3  A    between atoms: C_2  and  C_16
    4  A    between atoms: C_2  and  N_27
    5  A    between atoms: CA_8  and  C_15
    6  A    between atoms: C_10  and  C_23
    7  A    between atoms: N_17  and  C_28
    8  A    between atoms: N_17  and  C_29
    9  A    between atoms: C_24  and  C_28
                            x       y       z     vdW  Elec       q    Type
                         _______ _______ _______ _____ _____    ______ ____

>  <TORSDO>
F 9

$$$$
=
 OpenBabel11042417283D

 29 32  0  0  1  0  0  0  0  0999 V2000
  185.8800  176.3620  143.3660 O   0  0  0  0  0  1  0  0  0  0  0  0
  187.2040  177.3450  141.6190 C   0  0  0  0  0  2  0  0  0  0  0  0
  187.7380  177.6600  143.9960 N   0  0  0  0  0  2  0  0  0  0  0  0
  188.6240  176.4930  143.9740 C   0  0  0  0  0  2  0  0  0  0  0  0
  186.6360  177.5000  143.0360 C   0  0  2  0  0  0  0  0  0  0  0  0
  188.1790  176.1730  141.5480 C   0  0  0  0  0  2  0  0  0  0  0  0
  189.2710  176.3400  142.6010 C   0  0  2  0  0  3  0  0  0  0  0  0
  185.0040  178.8440  144.2360 N   0  0  0  0  0  0  0  0  0  0  0  0
  185.7820  178.7820  143.0770 C   0  0  2  0  0  3  0  0  0  0  0  0
  184.4290  178.5560  142.8430 C   0  0  0  0  0  0  0  0  0  0  0  0
  183.4640  178.2930  142.0790 O   0  0  0  0  0  0  0  0  0  0  0  0
  184.8500  178.9960  145.6730 C   0  0  0  0  0  2  0  0  0  0  0  0
  184.6860  177.6390  146.3320 C   0  0  0  0  0  2  0  0  0  0  0  0
  186.3090  178.3000  148.0070 N   0  0  0  0  0  1  0  0  0  0  0  0
  185.9560  177.2530  147.0670 C   0  0  0  0  0  2  0  0  0  0  0  0
  190.1330  175.1690  142.6080 N   0  0  0  0  0  2  0  0  0  0  0  0
  190.5600  173.6310  144.4450 C   0  0  0  0  0  1  0  0  0  0  0  0
  190.7180  175.0530  143.9360 C   0  0  1  0  0  3  0  0  0  0  0  0
  194.9310  176.5320  145.5330 O   0  0  0  0  0  0  0  0  0  0  0  0
  192.8490  175.9960  144.8900 N   0  0  0  0  0  0  0  0  0  0  0  0
  194.1080  176.7980  146.6810 C   0  0  0  0  0  3  0  0  0  0  0  0
  192.6600  176.4020  146.2630 C   0  0  0  0  0  3  0  0  0  0  0  0
  194.2980  175.5710  143.2800 C   0  0  0  0  0  0  0  0  0  0  0  0
  194.1010  176.0630  144.5460 C   0  0  0  0  0  0  0  0  0  0  0  0
  193.0420  175.1410  142.8350 C   0  0  0  0  0  3  0  0  0  0  0  0
  192.1610  175.4350  143.8830 C   0  0  0  0  0  0  0  0  0  0  0  0
  195.5960  175.4380  142.5550 C   0  0  0  0  0  2  0  0  0  0  0  0
  197.3650  176.7860  143.1390 N   0  0  0  0  0  1  0  0  0  0  0  0
  196.2050  176.7450  142.3560 N   0  0  0  0  0  2  0  0  0  0  0  0
  2  5  1  0  0  0  0
  4  3  1  0  0  0  0
  5  9  1  0  0  0  0
  5  1  1  1  0  0  0
  5  3  1  0  0  0  0
  6  2  1  0  0  0  0
  6  7  1  0  0  0  0
  7 16  1  1  0  0  0
  7  4  1  0  0  0  0
  8 12  1  0  0  0  0
  9 10  1  6  0  0  0
  9  8  1  0  0  0  0
 10  8  1  0  0  0  0
 11 10  2  0  0  0  0
 12 13  1  0  0  0  0
 13 15  1  0  0  0  0
 15 14  1  0  0  0  0
 16 18  1  0  0  0  0
 18 17  1  6  0  0  0
 19 21  1  0  0  0  0
 20 22  1  0  0  0  0
 22 21  2  0  0  0  0
 23 24  2  0  0  0  0
 24 20  1  0  0  0  0
 24 19  1  0  0  0  0
 25 23  1  0  0  0  0
 25 26  2  0  0  0  0
 26 18  1  0  0  0  0
 26 20  1  0  0  0  0
 27 23  1  0  0  0  0
 29 27  1  0  0  0  0
 29 28  1  0  0  0  0
M  END
>  <MODEL>
5

>  <REMARK>
 VINA RESULT:      -6.2      1.757      2.186
  Name = 
  9 active torsions:
  status: ('A' for Active; 'I' for Inactive)
    1  A    between atoms: C_1  and  N_6
    2  A    between atoms: C_1  and  C_23
    3  A    between atoms: C_2  and  C_16
    4  A    between atoms: C_2  and  N_27
    5  A    between atoms: CA_8  and  C_15
    6  A    between atoms: C_10  and  C_23
    7  A    between atoms: N_17  and  C_28
    8  A    between atoms: N_17  and  C_29
    9  A    between atoms: C_24  and  C_28
                            x       y       z     vdW  Elec       q    Type
                         _______ _______ _______ _____ _____    ______ ____

>  <TORSDO>
F 9

$$$$
=
 OpenBabel11042417283D

 29 32  0  0  1  0  0  0  0  0999 V2000
  194.5930  177.4760  146.0950 O   0  0  0  0  0  1  0  0  0  0  0  0
  193.4600  176.4130  144.2620 C   0  0  0  0  0  2  0  0  0  0  0  0
  193.4970  175.4370  146.5160 N   0  0  0  0  0  2  0  0  0  0  0  0
  192.2470  176.1220  146.8570 C   0  0  0  0  0  2  0  0  0  0  0  0
  194.2760  176.2210  145.5480 C   0  0  2  0  0  0  0  0  0  0  0  0
  192.1190  177.0760  144.5640 C   0  0  0  0  0  2  0  0  0  0  0  0
  191.3660  176.2710  145.6200 C   0  0  2  0  0  3  0  0  0  0  0  0
  196.0900  175.8240  143.9780 N   0  0  0  0  0  0  0  0  0  0  0  0
  195.5450  175.4170  145.1980 C   0  0  2  0  0  3  0  0  0  0  0  0
  195.3540  174.4930  144.1770 C   0  0  0  0  0  0  0  0  0  0  0  0
  194.9020  173.4040  143.7370 O   0  0  0  0  0  0  0  0  0  0  0  0
  196.7730  176.7900  143.1350 C   0  0  0  0  0  2  0  0  0  0  0  0
  196.4380  176.5460  141.6740 C   0  0  0  0  0  2  0  0  0  0  0  0
  197.3580  175.6640  139.6130 N   0  0  0  0  0  1  0  0  0  0  0  0
  197.4310  175.5790  141.0600 C   0  0  0  0  0  2  0  0  0  0  0  0
  190.1410  176.9630  145.9880 N   0  0  0  0  0  2  0  0  0  0  0  0
  188.5670  175.3400  146.8880 C   0  0  0  0  0  1  0  0  0  0  0  0
  189.0200  176.0980  145.6520 C   0  0  1  0  0  3  0  0  0  0  0  0
  185.3850  179.1420  145.6590 O   0  0  0  0  0  0  0  0  0  0  0  0
  187.0130  177.6090  145.8300 N   0  0  0  0  0  0  0  0  0  0  0  0
  185.5760  178.9610  147.0720 C   0  0  0  0  0  3  0  0  0  0  0  0
  186.7270  177.9200  147.2110 C   0  0  0  0  0  3  0  0  0  0  0  0
  186.6240  178.1010  143.7130 C   0  0  0  0  0  0  0  0  0  0  0  0
  186.2750  178.3130  145.0240 C   0  0  0  0  0  0  0  0  0  0  0  0
  187.6980  177.2030  143.7420 C   0  0  0  0  0  3  0  0  0  0  0  0
  187.9020  176.9180  145.0980 C   0  0  0  0  0  0  0  0  0  0  0  0
  186.0410  178.7580  142.5070 C   0  0  0  0  0  2  0  0  0  0  0  0
  184.8900  178.2910  140.5720 N   0  0  0  0  0  1  0  0  0  0  0  0
  185.8800  177.7940  141.4300 N   0  0  0  0  0  2  0  0  0  0  0  0
  2  6  1  0  0  0  0
  2  5  1  0  0  0  0
  3  4  1  0  0  0  0
  5  1  1  1  0  0  0
  5  3  1  0  0  0  0
  6  7  1  0  0  0  0
  7 16  1  1  0  0  0
  7  4  1  0  0  0  0
  8 10  1  0  0  0  0
  8  9  1  0  0  0  0
  9 10  1  6  0  0  0
  9  5  1  0  0  0  0
 11 10  2  0  0  0  0
 12  8  1  0  0  0  0
 13 12  1  0  0  0  0
 14 15  1  0  0  0  0
 15 13  1  0  0  0  0
 18 16  1  0  0  0  0
 18 17  1  1  0  0  0
 19 21  1  0  0  0  0
 20 22  1  0  0  0  0
 21 22  2  0  0  0  0
 23 25  1  0  0  0  0
 23 24  2  0  0  0  0
 24 19  1  0  0  0  0
 24 20  1  0  0  0  0
 25 26  2  0  0  0  0
 26 18  1  0  0  0  0
 26 20  1  0  0  0  0
 27 23  1  0  0  0  0
 28 29  1  0  0  0  0
 29 27  1  0  0  0  0
M  END
>  <MODEL>
6

>  <REMARK>
 VINA RESULT:      -6.1      2.535      8.722
  Name = 
  9 active torsions:
  status: ('A' for Active; 'I' for Inactive)
    1  A    between atoms: C_1  and  N_6
    2  A    between atoms: C_1  and  C_23
    3  A    between atoms: C_2  and  C_16
    4  A    between atoms: C_2  and  N_27
    5  A    between atoms: CA_8  and  C_15
    6  A    between atoms: C_10  and  C_23
    7  A    between atoms: N_17  and  C_28
    8  A    between atoms: N_17  and  C_29
    9  A    between atoms: C_24  and  C_28
                            x       y       z     vdW  Elec       q    Type
                         _______ _______ _______ _____ _____    ______ ____

>  <TORSDO>
F 9

$$$$
=
 OpenBabel11042417283D

 29 32  0  0  1  0  0  0  0  0999 V2000
  193.7890  174.8330  144.1080 O   0  0  0  0  0  1  0  0  0  0  0  0
  194.1820  175.7120  146.3090 C   0  0  0  0  0  2  0  0  0  0  0  0
  193.1850  177.0690  144.5210 N   0  0  0  0  0  2  0  0  0  0  0  0
  191.8380  176.6800  144.9460 C   0  0  0  0  0  2  0  0  0  0  0  0
  194.1530  176.0000  144.8020 C   0  0  2  0  0  0  0  0  0  0  0  0
  192.7910  175.3520  146.8210 C   0  0  0  0  0  2  0  0  0  0  0  0
  191.7990  176.4530  146.4550 C   0  0  2  0  0  3  0  0  0  0  0  0
  195.7490  176.3600  143.0040 N   0  0  0  0  0  0  0  0  0  0  0  0
  195.5490  176.5000  144.3790 C   0  0  2  0  0  3  0  0  0  0  0  0
  196.4320  175.4760  144.0550 C   0  0  0  0  0  0  0  0  0  0  0  0
  197.1950  174.5270  144.3730 O   0  0  0  0  0  0  0  0  0  0  0  0
  195.4770  176.7210  141.6220 C   0  0  0  0  0  2  0  0  0  0  0  0
  195.1690  175.4800  140.8040 C   0  0  0  0  0  2  0  0  0  0  0  0
  195.6530  174.4960  138.6420 N   0  0  0  0  0  1  0  0  0  0  0  0
  196.2130  175.2910  139.7200 C   0  0  0  0  0  2  0  0  0  0  0  0
  190.4550  176.0570  146.8430 N   0  0  0  0  0  2  0  0  0  0  0  0
  189.6870  174.0170  145.7610 C   0  0  0  0  0  1  0  0  0  0  0  0
  189.7860  175.5290  145.6630 C   0  0  1  0  0  3  0  0  0  0  0  0
  185.7950  176.9770  143.5520 O   0  0  0  0  0  0  0  0  0  0  0  0
  187.7910  176.3840  144.3850 N   0  0  0  0  0  0  0  0  0  0  0  0
  186.5930  176.6470  142.4030 C   0  0  0  0  0  3  0  0  0  0  0  0
  187.9760  176.2020  142.9650 C   0  0  0  0  0  3  0  0  0  0  0  0
  186.3730  176.8490  146.0120 C   0  0  0  0  0  0  0  0  0  0  0  0
  186.5850  176.7840  144.6570 C   0  0  0  0  0  0  0  0  0  0  0  0
  187.5640  176.4150  146.6080 C   0  0  0  0  0  3  0  0  0  0  0  0
  188.4280  176.1390  145.5410 C   0  0  0  0  0  0  0  0  0  0  0  0
  185.1080  177.2200  146.7110 C   0  0  0  0  0  2  0  0  0  0  0  0
  184.0700  179.0400  145.7630 N   0  0  0  0  0  1  0  0  0  0  0  0
  184.9650  178.6660  146.7740 N   0  0  0  0  0  2  0  0  0  0  0  0
  2  6  1  0  0  0  0
  3  5  1  0  0  0  0
  3  4  1  0  0  0  0
  4  7  1  0  0  0  0
  5  1  1  6  0  0  0
  5  2  1  0  0  0  0
  7  6  1  0  0  0  0
  7 16  1  6  0  0  0
  8 10  1  0  0  0  0
  8  9  1  0  0  0  0
  9 10  1  1  0  0  0
  9  5  1  0  0  0  0
 10 11  2  0  0  0  0
 12  8  1  0  0  0  0
 13 12  1  0  0  0  0
 14 15  1  0  0  0  0
 15 13  1  0  0  0  0
 18 17  1  1  0  0  0
 18 16  1  0  0  0  0
 19 24  1  0  0  0  0
 20 24  1  0  0  0  0
 20 26  1  0  0  0  0
 21 22  2  0  0  0  0
 21 19  1  0  0  0  0
 22 20  1  0  0  0  0
 23 25  1  0  0  0  0
 23 27  1  0  0  0  0
 24 23  2  0  0  0  0
 26 18  1  0  0  0  0
 26 25  2  0  0  0  0
 27 29  1  0  0  0  0
 28 29  1  0  0  0  0
M  END
>  <MODEL>
7

>  <REMARK>
 VINA RESULT:      -6.0      2.739      8.728
  Name = 
  9 active torsions:
  status: ('A' for Active; 'I' for Inactive)
    1  A    between atoms: C_1  and  N_6
    2  A    between atoms: C_1  and  C_23
    3  A    between atoms: C_2  and  C_16
    4  A    between atoms: C_2  and  N_27
    5  A    between atoms: CA_8  and  C_15
    6  A    between atoms: C_10  and  C_23
    7  A    between atoms: N_17  and  C_28
    8  A    between atoms: N_17  and  C_29
    9  A    between atoms: C_24  and  C_28
                            x       y       z     vdW  Elec       q    Type
                         _______ _______ _______ _____ _____    ______ ____

>  <TORSDO>
F 9

$$$$
=
 OpenBabel11042417283D

 29 32  0  0  1  0  0  0  0  0999 V2000
  192.9380  173.5830  145.2400 O   0  0  0  0  0  1  0  0  0  0  0  0
  193.7330  175.6690  146.1280 C   0  0  0  0  0  2  0  0  0  0  0  0
  192.5780  175.5280  143.9650 N   0  0  0  0  0  2  0  0  0  0  0  0
  191.2870  175.7740  144.6140 C   0  0  0  0  0  2  0  0  0  0  0  0
  193.4930  174.8210  144.8720 C   0  0  2  0  0  0  0  0  0  0  0  0
  192.4140  176.0040  146.8180 C   0  0  0  0  0  2  0  0  0  0  0  0
  191.4650  176.6770  145.8310 C   0  0  2  0  0  3  0  0  0  0  0  0
  195.8890  174.4470  145.0450 N   0  0  0  0  0  0  0  0  0  0  0  0
  194.8400  174.6450  144.1430 C   0  0  2  0  0  3  0  0  0  0  0  0
  195.6820  175.7460  144.2560 C   0  0  0  0  0  0  0  0  0  0  0  0
  196.0140  176.9230  143.9590 O   0  0  0  0  0  0  0  0  0  0  0  0
  196.6030  173.6530  146.0300 C   0  0  0  0  0  2  0  0  0  0  0  0
  197.1850  172.4090  145.3840 C   0  0  0  0  0  2  0  0  0  0  0  0
  195.2190  171.0400  145.7520 N   0  0  0  0  0  1  0  0  0  0  0  0
  196.6350  171.1620  146.0490 C   0  0  0  0  0  2  0  0  0  0  0  0
  190.1710  176.8930  146.4570 N   0  0  0  0  0  2  0  0  0  0  0  0
  188.9210  174.9130  147.1170 C   0  0  0  0  0  1  0  0  0  0  0  0
  189.2650  175.8590  145.9800 C   0  0  1  0  0  3  0  0  0  0  0  0
  185.4590  178.6840  145.8510 O   0  0  0  0  0  0  0  0  0  0  0  0
  187.1990  177.2920  146.1140 N   0  0  0  0  0  0  0  0  0  0  0  0
  185.8460  178.8300  147.2280 C   0  0  0  0  0  3  0  0  0  0  0  0
  187.0760  177.8930  147.4210 C   0  0  0  0  0  3  0  0  0  0  0  0
  186.5010  177.2840  144.0190 C   0  0  0  0  0  0  0  0  0  0  0  0
  186.3140  177.7700  145.2900 C   0  0  0  0  0  0  0  0  0  0  0  0
  187.6300  176.4570  144.0870 C   0  0  0  0  0  3  0  0  0  0  0  0
  188.0290  176.4910  145.4280 C   0  0  0  0  0  0  0  0  0  0  0  0
  185.7210  177.6310  142.7960 C   0  0  0  0  0  2  0  0  0  0  0  0
  186.0820  177.8950  140.5400 N   0  0  0  0  0  1  0  0  0  0  0  0
  186.5830  178.2490  141.8000 N   0  0  0  0  0  2  0  0  0  0  0  0
  2  6  1  0  0  0  0
  3  4  1  0  0  0  0
  3  5  1  0  0  0  0
  4  7  1  0  0  0  0
  5  1  1  1  0  0  0
  5  2  1  0  0  0  0
  7 16  1  1  0  0  0
  7  6  1  0  0  0  0
  8 12  1  0  0  0  0
  9 10  1  1  0  0  0
  9  5  1  0  0  0  0
  9  8  1  0  0  0  0
 10  8  1  0  0  0  0
 11 10  2  0  0  0  0
 13 12  1  0  0  0  0
 13 15  1  0  0  0  0
 14 15  1  0  0  0  0
 18 16  1  0  0  0  0
 18 17  1  1  0  0  0
 19 21  1  0  0  0  0
 20 22  1  0  0  0  0
 21 22  2  0  0  0  0
 23 25  1  0  0  0  0
 23 24  2  0  0  0  0
 24 19  1  0  0  0  0
 24 20  1  0  0  0  0
 25 26  2  0  0  0  0
 26 18  1  0  0  0  0
 26 20  1  0  0  0  0
 27 23  1  0  0  0  0
 28 29  1  0  0  0  0
 29 27  1  0  0  0  0
M  END
>  <MODEL>
8

>  <REMARK>
 VINA RESULT:      -6.0      2.645      8.500
  Name = 
  9 active torsions:
  status: ('A' for Active; 'I' for Inactive)
    1  A    between atoms: C_1  and  N_6
    2  A    between atoms: C_1  and  C_23
    3  A    between atoms: C_2  and  C_16
    4  A    between atoms: C_2  and  N_27
    5  A    between atoms: CA_8  and  C_15
    6  A    between atoms: C_10  and  C_23
    7  A    between atoms: N_17  and  C_28
    8  A    between atoms: N_17  and  C_29
    9  A    between atoms: C_24  and  C_28
                            x       y       z     vdW  Elec       q    Type
                         _______ _______ _______ _____ _____    ______ ____

>  <TORSDO>
F 9

$$$$
=
 OpenBabel11042417283D

 29 32  0  0  1  0  0  0  0  0999 V2000
  187.5500  176.2610  142.9170 O   0  0  0  0  0  1  0  0  0  0  0  0
  189.3210  177.8520  142.5920 C   0  0  0  0  0  2  0  0  0  0  0  0
  187.8470  177.9220  144.5560 N   0  0  0  0  0  2  0  0  0  0  0  0
  188.7780  177.0810  145.3130 C   0  0  0  0  0  2  0  0  0  0  0  0
  187.9010  177.6060  143.1220 C   0  0  2  0  0  0  0  0  0  0  0  0
  190.3430  177.0400  143.3810 C   0  0  0  0  0  2  0  0  0  0  0  0
  190.2150  177.3450  144.8710 C   0  0  2  0  0  3  0  0  0  0  0  0
  185.6040  178.2270  142.6240 N   0  0  0  0  0  0  0  0  0  0  0  0
  186.9400  178.5620  142.3880 C   0  0  2  0  0  3  0  0  0  0  0  0
  186.3150  177.9860  141.2870 C   0  0  0  0  0  0  0  0  0  0  0  0
  186.3250  177.5630  140.1020 O   0  0  0  0  0  0  0  0  0  0  0  0
  184.4400  178.1210  143.4870 C   0  0  0  0  0  2  0  0  0  0  0  0
  184.4510  179.2270  144.5270 C   0  0  0  0  0  2  0  0  0  0  0  0
  185.2750  178.9680  146.7930 N   0  0  0  0  0  1  0  0  0  0  0  0
  184.1690  178.6590  145.9050 C   0  0  0  0  0  2  0  0  0  0  0  0
  191.1110  176.4880  145.6300 N   0  0  0  0  0  2  0  0  0  0  0  0
  193.4380  176.9300  145.0730 C   0  0  0  0  0  1  0  0  0  0  0  0
  192.2070  176.1000  144.7550 C   0  0  1  0  0  3  0  0  0  0  0  0
  191.7700  171.4270  144.0790 O   0  0  0  0  0  0  0  0  0  0  0  0
  191.7600  173.6450  144.4130 N   0  0  0  0  0  0  0  0  0  0  0  0
  190.6070  171.9020  143.3800 C   0  0  0  0  0  3  0  0  0  0  0  0
  190.6010  173.4480  143.5750 C   0  0  0  0  0  3  0  0  0  0  0  0
  193.5380  172.7240  145.3420 C   0  0  0  0  0  0  0  0  0  0  0  0
  192.3750  172.5230  144.6410 C   0  0  0  0  0  0  0  0  0  0  0  0
  193.6420  174.1090  145.5250 C   0  0  0  0  0  3  0  0  0  0  0  0
  192.4950  174.6440  144.9270 C   0  0  0  0  0  0  0  0  0  0  0  0
  194.5350  171.6920  145.7510 C   0  0  0  0  0  2  0  0  0  0  0  0
  196.7750  171.1700  145.7780 N   0  0  0  0  0  1  0  0  0  0  0  0
  195.8800  172.2470  145.7330 N   0  0  0  0  0  2  0  0  0  0  0  0
  2  5  1  0  0  0  0
  2  6  1  0  0  0  0
  3  4  1  0  0  0  0
  5  1  1  6  0  0  0
  5  3  1  0  0  0  0
  6  7  1  0  0  0  0
  7  4  1  0  0  0  0
  7 16  1  1  0  0  0
  8 12  1  0  0  0  0
  9 10  1  6  0  0  0
  9  8  1  0  0  0  0
  9  5  1  0  0  0  0
 10  8  1  0  0  0  0
 11 10  2  0  0  0  0
 12 13  1  0  0  0  0
 13 15  1  0  0  0  0
 15 14  1  0  0  0  0
 18 26  1  0  0  0  0
 18 17  1  1  0  0  0
 18 16  1  0  0  0  0
 19 24  1  0  0  0  0
 20 24  1  0  0  0  0
 20 26  1  0  0  0  0
 21 22  2  0  0  0  0
 21 19  1  0  0  0  0
 22 20  1  0  0  0  0
 23 25  1  0  0  0  0
 23 27  1  0  0  0  0
 24 23  2  0  0  0  0
 26 25  2  0  0  0  0
 29 27  1  0  0  0  0
 29 28  1  0  0  0  0
M  END
>  <MODEL>
9

>  <REMARK>
 VINA RESULT:      -6.0      2.539      3.616
  Name = 
  9 active torsions:
  status: ('A' for Active; 'I' for Inactive)
    1  A    between atoms: C_1  and  N_6
    2  A    between atoms: C_1  and  C_23
    3  A    between atoms: C_2  and  C_16
    4  A    between atoms: C_2  and  N_27
    5  A    between atoms: CA_8  and  C_15
    6  A    between atoms: C_10  and  C_23
    7  A    between atoms: N_17  and  C_28
    8  A    between atoms: N_17  and  C_29
    9  A    between atoms: C_24  and  C_28
                            x       y       z     vdW  Elec       q    Type
                         _______ _______ _______ _____ _____    ______ ____

>  <TORSDO>
F 9

$$$$
