=
 OpenBabel11042417463D

 25 28  0  0  1  0  0  0  0  0999 V2000
  183.5620  178.4110  142.7330 N   0  0  0  0  0  1  0  0  0  0  0  0
  185.9350  177.5380  146.9530 C   0  0  0  0  0  3  0  0  0  0  0  0
  183.9820  178.6410  145.8030 C   0  0  0  0  0  1  0  0  0  0  0  0
  186.8060  177.4890  141.5920 C   0  0  1  0  0  3  0  0  0  0  0  0
  188.1130  177.7730  143.6800 C   0  0  0  0  0  0  0  0  0  0  0  0
  185.4120  178.2320  145.8260 C   0  0  0  0  0  0  0  0  0  0  0  0
  188.0510  177.2630  145.8130 C   0  0  0  0  0  0  0  0  0  0  0  0
  184.9430  178.1740  142.4880 C   0  0  0  0  0  0  0  0  0  0  0  0
  187.6150  176.5440  140.8980 N   0  0  0  0  0  1  0  0  0  0  0  0
  189.0620  176.5080  145.2280 C   0  0  0  0  0  0  0  0  0  0  0  0
  187.5690  178.0400  144.8200 C   0  0  0  0  0  0  0  0  0  0  0  0
  185.3830  177.5580  141.4320 N   0  0  0  0  0  0  0  0  0  0  0  0
  187.1590  178.0790  142.7250 C   0  0  2  0  0  3  0  0  0  0  0  0
  186.0420  178.5680  143.3600 C   0  0  2  0  0  3  0  0  0  0  0  0
  189.0560  176.7620  143.8380 C   0  0  0  0  0  3  0  0  0  0  0  0
  186.2680  178.4620  144.7340 C   0  0  0  0  0  0  0  0  0  0  0  0
  187.2540  177.0050  146.9380 C   0  0  0  0  0  2  0  0  0  0  0  0
  189.7640  175.3590  145.8780 C   0  0  0  0  0  2  0  0  0  0  0  0
  191.0830  175.8040  146.4950 C   0  0  1  0  0  3  0  0  0  0  0  0
  191.1650  175.3310  147.9340 C   0  0  0  0  0  1  0  0  0  0  0  0
  192.9130  175.9840  144.7570 C   0  0  0  0  0  0  0  0  0  0  0  0
  192.1940  175.2400  145.7430 N   0  0  0  0  0  2  0  0  0  0  0  0
  192.6130  177.1860  144.5180 O   0  0  0  0  0  0  0  0  0  0  0  0
  194.6760  176.0360  143.1040 O   0  0  0  0  0  1  0  0  0  0  0  0
  193.9760  175.3580  144.0440 N   0  0  0  0  0  2  0  0  0  0  0  0
  3  6  1  0  0  0  0
  4  9  1  1  0  0  0
  4 13  1  0  0  0  0
  5 15  2  0  0  0  0
  5 11  1  0  0  0  0
  6  2  2  0  0  0  0
  7 17  1  0  0  0  0
  8  1  1  0  0  0  0
 10  7  2  0  0  0  0
 10 18  1  0  0  0  0
 11  7  1  0  0  0  0
 12  4  1  0  0  0  0
 12  8  2  0  0  0  0
 13 14  1  0  0  0  0
 13  5  1  1  0  0  0
 14  8  1  6  0  0  0
 14 16  1  0  0  0  0
 15 10  1  0  0  0  0
 16 11  2  0  0  0  0
 16  6  1  0  0  0  0
 17  2  1  0  0  0  0
 18 19  1  0  0  0  0
 19 20  1  1  0  0  0
 21 22  1  0  0  0  0
 22 19  1  0  0  0  0
 23 21  2  0  0  0  0
 24 25  1  0  0  0  0
 25 21  1  0  0  0  0
M  END
>  <MODEL>
1

>  <REMARK>
 VINA RESULT:      -8.4      0.000      0.000
  Name = 
  3 active torsions:
  status: ('A' for Active; 'I' for Inactive)
    1  A    between atoms: C_4  and  C_6
    2  A    between atoms: C_4  and  C_13
    3  A    between atoms: C_6  and  N_16
                            x       y       z     vdW  Elec       q    Type
                         _______ _______ _______ _____ _____    ______ ____

>  <TORSDO>
F 3

$$$$
=
 OpenBabel11042417463D

 25 28  0  0  1  0  0  0  0  0999 V2000
  183.4160  178.8240  143.4130 N   0  0  0  0  0  1  0  0  0  0  0  0
  186.1070  177.0590  147.1350 C   0  0  0  0  0  3  0  0  0  0  0  0
  184.1530  178.4790  146.4130 C   0  0  0  0  0  1  0  0  0  0  0  0
  186.4410  177.8980  141.7800 C   0  0  1  0  0  3  0  0  0  0  0  0
  187.9660  177.7180  143.7260 C   0  0  0  0  0  0  0  0  0  0  0  0
  185.5380  177.9760  146.2070 C   0  0  0  0  0  0  0  0  0  0  0  0
  188.0690  176.8450  145.7360 C   0  0  0  0  0  0  0  0  0  0  0  0
  184.7410  178.5410  142.9800 C   0  0  0  0  0  0  0  0  0  0  0  0
  187.0930  177.0380  140.8500 N   0  0  0  0  0  1  0  0  0  0  0  0
  188.9490  176.1380  144.9230 C   0  0  0  0  0  0  0  0  0  0  0  0
  187.5610  177.8170  144.9490 C   0  0  0  0  0  0  0  0  0  0  0  0
  185.0190  178.0910  141.7930 N   0  0  0  0  0  0  0  0  0  0  0  0
  186.9530  178.2540  142.9490 C   0  0  2  0  0  3  0  0  0  0  0  0
  185.9500  178.6980  143.7780 C   0  0  2  0  0  3  0  0  0  0  0  0
  188.8280  176.6340  143.6060 C   0  0  0  0  0  3  0  0  0  0  0  0
  186.3000  178.3350  145.0800 C   0  0  0  0  0  0  0  0  0  0  0  0
  187.3670  176.4480  146.8840 C   0  0  0  0  0  2  0  0  0  0  0  0
  189.6080  174.8480  145.2880 C   0  0  0  0  0  2  0  0  0  0  0  0
  191.0950  175.0480  145.5440 C   0  0  1  0  0  3  0  0  0  0  0  0
  191.8420  175.1170  144.2250 C   0  0  0  0  0  1  0  0  0  0  0  0
  191.3410  176.3420  147.7050 C   0  0  0  0  0  0  0  0  0  0  0  0
  191.3070  176.2880  146.2770 N   0  0  0  0  0  2  0  0  0  0  0  0
  191.2070  175.2900  148.3880 O   0  0  0  0  0  0  0  0  0  0  0  0
  191.5660  177.6810  149.7050 O   0  0  0  0  0  1  0  0  0  0  0  0
  191.5290  177.5970  148.3540 N   0  0  0  0  0  2  0  0  0  0  0  0
  4  9  1  1  0  0  0
  4 12  1  0  0  0  0
  4 13  1  0  0  0  0
  5 11  1  0  0  0  0
  6  3  1  0  0  0  0
  6  2  2  0  0  0  0
  7 17  1  0  0  0  0
  8  1  1  0  0  0  0
 10 18  1  0  0  0  0
 10  7  2  0  0  0  0
 11 16  2  0  0  0  0
 11  7  1  0  0  0  0
 12  8  2  0  0  0  0
 13  5  1  1  0  0  0
 13 14  1  0  0  0  0
 14  8  1  6  0  0  0
 14 16  1  0  0  0  0
 15  5  2  0  0  0  0
 15 10  1  0  0  0  0
 16  6  1  0  0  0  0
 17  2  1  0  0  0  0
 18 19  1  0  0  0  0
 19 20  1  6  0  0  0
 19 22  1  0  0  0  0
 21 25  1  0  0  0  0
 21 23  2  0  0  0  0
 22 21  1  0  0  0  0
 25 24  1  0  0  0  0
M  END
>  <MODEL>
2

>  <REMARK>
 VINA RESULT:      -8.2      1.860      2.373
  Name = 
  3 active torsions:
  status: ('A' for Active; 'I' for Inactive)
    1  A    between atoms: C_4  and  C_6
    2  A    between atoms: C_4  and  C_13
    3  A    between atoms: C_6  and  N_16
                            x       y       z     vdW  Elec       q    Type
                         _______ _______ _______ _____ _____    ______ ____

>  <TORSDO>
F 3

$$$$
=
 OpenBabel11042417463D

 25 28  0  0  1  0  0  0  0  0999 V2000
  183.5480  178.6450  142.9000 N   0  0  0  0  0  1  0  0  0  0  0  0
  185.8050  177.2720  147.0500 C   0  0  0  0  0  3  0  0  0  0  0  0
  183.9480  178.6010  145.9810 C   0  0  0  0  0  1  0  0  0  0  0  0
  186.7300  177.5870  141.7070 C   0  0  1  0  0  3  0  0  0  0  0  0
  188.0310  177.6090  143.8180 C   0  0  0  0  0  0  0  0  0  0  0  0
  185.3450  178.0900  145.9790 C   0  0  0  0  0  0  0  0  0  0  0  0
  187.9090  176.9370  145.9030 C   0  0  0  0  0  0  0  0  0  0  0  0
  184.9110  178.3310  142.6440 C   0  0  0  0  0  0  0  0  0  0  0  0
  187.4780  176.6440  140.9440 N   0  0  0  0  0  1  0  0  0  0  0  0
  188.8700  176.1610  145.2650 C   0  0  0  0  0  0  0  0  0  0  0  0
  187.4940  177.8230  144.9730 C   0  0  0  0  0  0  0  0  0  0  0  0
  185.3170  177.7700  141.5450 N   0  0  0  0  0  0  0  0  0  0  0  0
  187.1120  178.0580  142.8850 C   0  0  2  0  0  3  0  0  0  0  0  0
  186.0250  178.5740  143.5510 C   0  0  2  0  0  3  0  0  0  0  0  0
  188.8970  176.5240  143.9000 C   0  0  0  0  0  3  0  0  0  0  0  0
  186.2280  178.3430  144.9130 C   0  0  0  0  0  0  0  0  0  0  0  0
  187.0830  176.6490  147.0000 C   0  0  0  0  0  2  0  0  0  0  0  0
  189.4810  174.9170  145.8240 C   0  0  0  0  0  2  0  0  0  0  0  0
  190.8060  174.6060  145.1430 C   0  0  1  0  0  3  0  0  0  0  0  0
  191.9530  174.8500  146.1070 C   0  0  0  0  0  1  0  0  0  0  0  0
  190.5210  172.8120  143.3820 C   0  0  0  0  0  0  0  0  0  0  0  0
  190.8290  173.2140  144.7180 N   0  0  0  0  0  2  0  0  0  0  0  0
  190.2360  173.6720  142.5050 O   0  0  0  0  0  0  0  0  0  0  0  0
  190.2540  171.0140  141.7880 O   0  0  0  0  0  1  0  0  0  0  0  0
  190.5410  171.4270  143.0450 N   0  0  0  0  0  2  0  0  0  0  0  0
  4  9  1  1  0  0  0
  4 13  1  0  0  0  0
  5 15  2  0  0  0  0
  5 11  1  0  0  0  0
  6  3  1  0  0  0  0
  6  2  2  0  0  0  0
  7 17  1  0  0  0  0
  8  1  1  0  0  0  0
 10 18  1  0  0  0  0
 10  7  2  0  0  0  0
 11  7  1  0  0  0  0
 12  4  1  0  0  0  0
 12  8  2  0  0  0  0
 13 14  1  0  0  0  0
 13  5  1  1  0  0  0
 14  8  1  6  0  0  0
 14 16  1  0  0  0  0
 15 10  1  0  0  0  0
 16 11  2  0  0  0  0
 16  6  1  0  0  0  0
 17  2  1  0  0  0  0
 19 18  1  0  0  0  0
 19 20  1  1  0  0  0
 21 22  1  0  0  0  0
 22 19  1  0  0  0  0
 23 21  2  0  0  0  0
 24 25  1  0  0  0  0
 25 21  1  0  0  0  0
M  END
>  <MODEL>
3

>  <REMARK>
 VINA RESULT:      -8.1      2.181      2.285
  Name = 
  3 active torsions:
  status: ('A' for Active; 'I' for Inactive)
    1  A    between atoms: C_4  and  C_6
    2  A    between atoms: C_4  and  C_13
    3  A    between atoms: C_6  and  N_16
                            x       y       z     vdW  Elec       q    Type
                         _______ _______ _______ _____ _____    ______ ____

>  <TORSDO>
F 3

$$$$
=
 OpenBabel11042417463D

 25 28  0  0  1  0  0  0  0  0999 V2000
  184.0860  178.8280  142.9060 N   0  0  0  0  0  1  0  0  0  0  0  0
  188.8990  177.8220  142.7250 C   0  0  0  0  0  3  0  0  0  0  0  0
  186.7360  178.0960  141.4580 C   0  0  0  0  0  1  0  0  0  0  0  0
  184.7920  177.9250  146.2770 C   0  0  1  0  0  3  0  0  0  0  0  0
  186.9610  176.7620  145.9850 C   0  0  0  0  0  0  0  0  0  0  0  0
  187.4870  177.6480  142.6610 C   0  0  0  0  0  0  0  0  0  0  0  0
  188.9070  177.0030  145.0010 C   0  0  0  0  0  0  0  0  0  0  0  0
  184.5300  178.2900  144.1460 C   0  0  0  0  0  0  0  0  0  0  0  0
  184.8900  178.3350  147.6380 N   0  0  0  0  0  1  0  0  0  0  0  0
  189.1080  177.1330  146.3710 C   0  0  0  0  0  0  0  0  0  0  0  0
  187.5940  176.7240  144.8600 C   0  0  0  0  0  0  0  0  0  0  0  0
  184.0540  178.6670  145.2950 N   0  0  0  0  0  0  0  0  0  0  0  0
  185.6620  177.1280  145.6760 C   0  0  2  0  0  3  0  0  0  0  0  0
  185.5580  177.2720  144.3130 C   0  0  2  0  0  3  0  0  0  0  0  0
  187.8500  177.0660  147.0110 C   0  0  0  0  0  3  0  0  0  0  0  0
  186.8380  177.0970  143.7800 C   0  0  0  0  0  0  0  0  0  0  0  0
  189.6190  177.5410  143.9190 C   0  0  0  0  0  2  0  0  0  0  0  0
  190.3610  177.6340  147.0130 C   0  0  0  0  0  2  0  0  0  0  0  0
  191.3420  176.4960  147.2570 C   0  0  1  0  0  3  0  0  0  0  0  0
  190.5880  175.2360  147.6360 C   0  0  0  0  0  1  0  0  0  0  0  0
  193.4910  176.6120  145.9250 C   0  0  0  0  0  0  0  0  0  0  0  0
  192.1160  176.2440  146.0500 N   0  0  0  0  0  2  0  0  0  0  0  0
  194.0960  177.1600  146.8870 O   0  0  0  0  0  0  0  0  0  0  0  0
  195.4800  176.6910  144.5540 O   0  0  0  0  0  1  0  0  0  0  0  0
  194.1770  176.3540  144.7030 N   0  0  0  0  0  2  0  0  0  0  0  0
  1  8  1  0  0  0  0
  2 17  1  0  0  0  0
  3  6  1  0  0  0  0
  4  9  1  1  0  0  0
  5 15  2  0  0  0  0
  6  2  2  0  0  0  0
  6 16  1  0  0  0  0
  7 10  2  0  0  0  0
  8 14  1  0  0  0  0
  8 12  2  0  0  0  0
 10 15  1  0  0  0  0
 10 18  1  0  0  0  0
 11  7  1  0  0  0  0
 11  5  1  0  0  0  0
 12  4  1  0  0  0  0
 13  5  1  1  0  0  0
 13  4  1  0  0  0  0
 14 16  1  1  0  0  0
 14 13  1  0  0  0  0
 16 11  2  0  0  0  0
 17  7  1  0  0  0  0
 18 19  1  0  0  0  0
 19 20  1  6  0  0  0
 21 22  1  0  0  0  0
 21 23  2  0  0  0  0
 22 19  1  0  0  0  0
 24 25  1  0  0  0  0
 25 21  1  0  0  0  0
M  END
>  <MODEL>
4

>  <REMARK>
 VINA RESULT:      -8.0      1.690      3.180
  Name = 
  3 active torsions:
  status: ('A' for Active; 'I' for Inactive)
    1  A    between atoms: C_4  and  C_6
    2  A    between atoms: C_4  and  C_13
    3  A    between atoms: C_6  and  N_16
                            x       y       z     vdW  Elec       q    Type
                         _______ _______ _______ _____ _____    ______ ____

>  <TORSDO>
F 3

$$$$
=
 OpenBabel11042417463D

 25 28  0  0  1  0  0  0  0  0999 V2000
  183.3840  178.6870  143.3780 N   0  0  0  0  0  1  0  0  0  0  0  0
  186.4050  176.8580  146.8040 C   0  0  0  0  0  3  0  0  0  0  0  0
  184.3210  178.1830  146.2980 C   0  0  0  0  0  1  0  0  0  0  0  0
  186.3600  178.0990  141.5160 C   0  0  1  0  0  3  0  0  0  0  0  0
  188.0070  177.8900  143.3570 C   0  0  0  0  0  0  0  0  0  0  0  0
  185.7210  177.7960  145.9790 C   0  0  0  0  0  0  0  0  0  0  0  0
  188.2890  176.8850  145.2870 C   0  0  0  0  0  0  0  0  0  0  0  0
  184.6960  178.5310  142.8530 C   0  0  0  0  0  0  0  0  0  0  0  0
  187.0110  177.3550  140.4900 N   0  0  0  0  0  1  0  0  0  0  0  0
  189.1640  176.3020  144.3760 C   0  0  0  0  0  0  0  0  0  0  0  0
  187.6710  177.8710  144.6040 C   0  0  0  0  0  0  0  0  0  0  0  0
  184.9320  178.1880  141.6220 N   0  0  0  0  0  0  0  0  0  0  0  0
  186.9160  178.4050  142.6790 C   0  0  2  0  0  3  0  0  0  0  0  0
  185.9370  178.7170  143.5920 C   0  0  2  0  0  3  0  0  0  0  0  0
  188.9320  176.8810  143.1080 C   0  0  0  0  0  3  0  0  0  0  0  0
  186.3880  178.2880  144.8430 C   0  0  0  0  0  0  0  0  0  0  0  0
  187.6860  176.3580  146.4380 C   0  0  0  0  0  2  0  0  0  0  0  0
  189.9300  175.0390  144.6050 C   0  0  0  0  0  2  0  0  0  0  0  0
  191.4180  175.3220  144.7510 C   0  0  1  0  0  3  0  0  0  0  0  0
  192.0510  174.2980  145.6750 C   0  0  0  0  0  1  0  0  0  0  0  0
  193.2990  175.9140  143.1650 C   0  0  0  0  0  0  0  0  0  0  0  0
  192.0640  175.2540  143.4490 N   0  0  0  0  0  2  0  0  0  0  0  0
  193.8920  176.5740  144.0630 O   0  0  0  0  0  0  0  0  0  0  0  0
  195.0290  176.4350  141.5600 O   0  0  0  0  0  1  0  0  0  0  0  0
  193.8600  175.8210  141.8590 N   0  0  0  0  0  2  0  0  0  0  0  0
  4  9  1  1  0  0  0
  4 12  1  0  0  0  0
  4 13  1  0  0  0  0
  5 11  1  0  0  0  0
  6  3  1  0  0  0  0
  6  2  2  0  0  0  0
  7 17  1  0  0  0  0
  8  1  1  0  0  0  0
 10 18  1  0  0  0  0
 10  7  2  0  0  0  0
 11 16  2  0  0  0  0
 11  7  1  0  0  0  0
 12  8  2  0  0  0  0
 13  5  1  1  0  0  0
 13 14  1  0  0  0  0
 14  8  1  6  0  0  0
 14 16  1  0  0  0  0
 15  5  2  0  0  0  0
 15 10  1  0  0  0  0
 16  6  1  0  0  0  0
 17  2  1  0  0  0  0
 18 19  1  0  0  0  0
 19 20  1  1  0  0  0
 21 22  1  0  0  0  0
 21 23  2  0  0  0  0
 22 19  1  0  0  0  0
 24 25  1  0  0  0  0
 25 21  1  0  0  0  0
M  END
>  <MODEL>
5

>  <REMARK>
 VINA RESULT:      -7.7      1.199      1.233
  Name = 
  3 active torsions:
  status: ('A' for Active; 'I' for Inactive)
    1  A    between atoms: C_4  and  C_6
    2  A    between atoms: C_4  and  C_13
    3  A    between atoms: C_6  and  N_16
                            x       y       z     vdW  Elec       q    Type
                         _______ _______ _______ _____ _____    ______ ____

>  <TORSDO>
F 3

$$$$
=
 OpenBabel11042417463D

 25 28  0  0  1  0  0  0  0  0999 V2000
  183.9090  178.9490  145.5880 N   0  0  0  0  0  1  0  0  0  0  0  0
  187.6920  176.2160  147.1470 C   0  0  0  0  0  3  0  0  0  0  0  0
  185.8760  177.8640  147.7350 C   0  0  0  0  0  1  0  0  0  0  0  0
  185.6550  178.2870  142.5570 C   0  0  1  0  0  3  0  0  0  0  0  0
  187.8540  177.5730  143.4530 C   0  0  0  0  0  0  0  0  0  0  0  0
  186.9120  177.3550  146.7970 C   0  0  0  0  0  0  0  0  0  0  0  0
  188.7300  176.2430  144.9620 C   0  0  0  0  0  0  0  0  0  0  0  0
  184.8230  178.7100  144.5240 C   0  0  0  0  0  0  0  0  0  0  0  0
  185.6630  177.6410  141.2880 N   0  0  0  0  0  1  0  0  0  0  0  0
  189.0140  175.7060  143.7110 C   0  0  0  0  0  0  0  0  0  0  0  0
  188.0770  177.3980  144.7130 C   0  0  2  0  0  3  0  0  0  0  0  0
  184.4500  178.5430  143.2910 N   0  0  0  0  0  0  0  0  0  0  0  0
  186.6960  178.3280  143.3760 C   0  0  2  0  0  3  0  0  0  0  0  0
  186.2700  178.6120  144.6520 C   0  0  2  0  0  3  0  0  0  0  0  0
  188.3810  176.5070  142.7330 C   0  0  0  0  0  3  0  0  0  0  0  0
  187.1180  177.9330  145.5310 C   0  0  0  0  0  0  0  0  0  0  0  0
  188.5810  175.6210  146.2100 C   0  0  0  0  0  3  0  0  0  0  0  0
  189.5540  174.3350  143.4650 C   0  0  0  0  0  2  0  0  0  0  0  0
  191.0520  174.3790  143.1940 C   0  0  1  0  0  3  0  0  0  0  0  0
  191.3030  174.4650  141.7000 C   0  0  0  0  0  1  0  0  0  0  0  0
  192.4290  175.4440  145.0300 C   0  0  0  0  0  0  0  0  0  0  0  0
  191.6370  175.5420  143.8440 N   0  0  0  0  0  2  0  0  0  0  0  0
  192.6670  174.3190  145.5490 O   0  0  0  0  0  0  0  0  0  0  0  0
  193.7030  176.5700  146.7480 O   0  0  0  0  0  1  0  0  0  0  0  0
  192.9500  176.6290  145.6240 N   0  0  0  0  0  2  0  0  0  0  0  0
  4  9  1  1  0  0  0
  4 12  1  0  0  0  0
  4 13  1  0  0  0  0
  6  2  1  0  0  0  0
  6  3  1  0  0  0  0
  7 17  1  0  0  0  0
  8  1  1  0  0  0  0
 10  7  2  0  0  0  0
 11  5  1  6  0  0  0
 11  7  1  0  0  0  0
 11 16  1  0  0  0  0
 12  8  2  0  0  0  0
 13  5  1  1  0  0  0
 13 14  1  0  0  0  0
 14  8  1  6  0  0  0
 14 16  1  0  0  0  0
 15  5  2  0  0  0  0
 15 10  1  0  0  0  0
 16  6  2  0  0  0  0
 17  2  2  0  0  0  0
 18 10  1  0  0  0  0
 19 20  1  6  0  0  0
 19 18  1  0  0  0  0
 19 22  1  0  0  0  0
 21 23  2  0  0  0  0
 21 25  1  0  0  0  0
 22 21  1  0  0  0  0
 25 24  1  0  0  0  0
M  END
>  <MODEL>
6

>  <REMARK>
 VINA RESULT:      -7.6      1.710      2.467
  Name = 
  3 active torsions:
  status: ('A' for Active; 'I' for Inactive)
    1  A    between atoms: C_4  and  C_6
    2  A    between atoms: C_4  and  C_13
    3  A    between atoms: C_6  and  N_16
                            x       y       z     vdW  Elec       q    Type
                         _______ _______ _______ _____ _____    ______ ____

>  <TORSDO>
F 3

$$$$
=
 OpenBabel11042417463D

 25 28  0  0  1  0  0  0  0  0999 V2000
  183.6980  179.0110  145.7770 N   0  0  0  0  0  1  0  0  0  0  0  0
  187.7110  176.4030  146.9190 C   0  0  0  0  0  3  0  0  0  0  0  0
  185.8860  177.9510  147.7130 C   0  0  0  0  0  1  0  0  0  0  0  0
  185.2030  178.5160  142.5890 C   0  0  1  0  0  3  0  0  0  0  0  0
  187.4980  177.8730  143.2710 C   0  0  0  0  0  0  0  0  0  0  0  0
  186.8580  177.5160  146.6740 C   0  0  0  0  0  0  0  0  0  0  0  0
  188.5550  176.5390  144.6560 C   0  0  0  0  0  0  0  0  0  0  0  0
  184.5260  178.8440  144.6330 C   0  0  0  0  0  0  0  0  0  0  0  0
  185.1270  177.9080  141.3030 N   0  0  0  0  0  1  0  0  0  0  0  0
  188.7520  176.0520  143.3680 C   0  0  0  0  0  0  0  0  0  0  0  0
  187.8360  177.6710  144.5010 C   0  0  2  0  0  3  0  0  0  0  0  0
  184.0550  178.6960  143.4310 N   0  0  0  0  0  0  0  0  0  0  0  0
  186.3080  178.5780  143.3180 C   0  0  2  0  0  3  0  0  0  0  0  0
  185.9820  178.8060  144.6340 C   0  0  2  0  0  3  0  0  0  0  0  0
  188.0050  176.8520  142.4740 C   0  0  0  0  0  3  0  0  0  0  0  0
  186.9290  178.1390  145.4150 C   0  0  0  0  0  0  0  0  0  0  0  0
  188.5400  175.8740  145.8910 C   0  0  0  0  0  3  0  0  0  0  0  0
  189.3250  174.7130  143.0330 C   0  0  0  0  0  2  0  0  0  0  0  0
  190.3550  174.8250  141.9170 C   0  0  1  0  0  3  0  0  0  0  0  0
  191.6600  175.3640  142.4720 C   0  0  0  0  0  1  0  0  0  0  0  0
  189.8560  173.0300  140.2050 C   0  0  0  0  0  0  0  0  0  0  0  0
  190.5910  173.5140  141.3300 N   0  0  0  0  0  2  0  0  0  0  0  0
  188.9740  173.7500  139.6600 O   0  0  0  0  0  0  0  0  0  0  0  0
  189.4470  171.2390  138.6340 O   0  0  0  0  0  1  0  0  0  0  0  0
  190.1270  171.7260  139.6990 N   0  0  0  0  0  2  0  0  0  0  0  0
  4  9  1  1  0  0  0
  4 13  1  0  0  0  0
  4 12  1  0  0  0  0
  6  2  1  0  0  0  0
  6  3  1  0  0  0  0
  7 17  1  0  0  0  0
  8  1  1  0  0  0  0
 10  7  2  0  0  0  0
 11  5  1  6  0  0  0
 11  7  1  0  0  0  0
 11 16  1  0  0  0  0
 12  8  2  0  0  0  0
 13  5  1  1  0  0  0
 13 14  1  0  0  0  0
 14  8  1  6  0  0  0
 14 16  1  0  0  0  0
 15  5  2  0  0  0  0
 15 10  1  0  0  0  0
 16  6  2  0  0  0  0
 17  2  2  0  0  0  0
 18 10  1  0  0  0  0
 19 20  1  1  0  0  0
 19 18  1  0  0  0  0
 21 22  1  0  0  0  0
 22 19  1  0  0  0  0
 23 21  2  0  0  0  0
 24 25  1  0  0  0  0
 25 21  1  0  0  0  0
M  END
>  <MODEL>
7

>  <REMARK>
 VINA RESULT:      -7.6      3.086      3.789
  Name = 
  3 active torsions:
  status: ('A' for Active; 'I' for Inactive)
    1  A    between atoms: C_4  and  C_6
    2  A    between atoms: C_4  and  C_13
    3  A    between atoms: C_6  and  N_16
                            x       y       z     vdW  Elec       q    Type
                         _______ _______ _______ _____ _____    ______ ____

>  <TORSDO>
F 3

$$$$
=
 OpenBabel11042417463D

 25 28  0  0  1  0  0  0  0  0999 V2000
  183.4810  179.0340  144.0050 N   0  0  0  0  0  1  0  0  0  0  0  0
  187.5850  177.8730  141.5540 C   0  0  0  0  0  3  0  0  0  0  0  0
  185.0870  178.2050  141.4780 C   0  0  0  0  0  1  0  0  0  0  0  0
  185.7000  178.1390  146.6410 C   0  0  1  0  0  3  0  0  0  0  0  0
  187.4330  176.9040  145.3680 C   0  0  0  0  0  0  0  0  0  0  0  0
  186.3140  177.7430  142.1810 C   0  0  0  0  0  0  0  0  0  0  0  0
  188.6690  177.0740  143.5640 C   0  0  0  0  0  0  0  0  0  0  0  0
  184.4530  178.4930  144.8910 C   0  0  0  0  0  0  0  0  0  0  0  0
  186.4520  178.5570  147.7770 N   0  0  0  0  0  1  0  0  0  0  0  0
  189.5090  177.2090  144.6650 C   0  0  0  0  0  0  0  0  0  0  0  0
  187.4440  176.8360  144.0790 C   0  0  0  0  0  0  0  0  0  0  0  0
  184.6000  178.8950  146.1180 N   0  0  0  0  0  0  0  0  0  0  0  0
  186.1550  177.3080  145.7140 C   0  0  2  0  0  3  0  0  0  0  0  0
  185.4110  177.4440  144.5660 C   0  0  2  0  0  3  0  0  0  0  0  0
  188.7130  177.1880  145.8320 C   0  0  0  0  0  3  0  0  0  0  0  0
  186.2710  177.2240  143.4880 C   0  0  0  0  0  0  0  0  0  0  0  0
  188.7850  177.5790  142.2600 C   0  0  0  0  0  2  0  0  0  0  0  0
  190.9270  177.6760  144.6130 C   0  0  0  0  0  2  0  0  0  0  0  0
  191.8610  176.5400  144.2180 C   0  0  1  0  0  3  0  0  0  0  0  0
  192.2420  176.6710  142.7550 C   0  0  0  0  0  1  0  0  0  0  0  0
  193.9270  175.4580  145.1990 C   0  0  0  0  0  0  0  0  0  0  0  0
  193.0670  176.5870  145.0310 N   0  0  0  0  0  2  0  0  0  0  0  0
  193.6720  174.3680  144.6170 O   0  0  0  0  0  0  0  0  0  0  0  0
  195.9120  174.5200  146.2090 O   0  0  0  0  0  1  0  0  0  0  0  0
  195.0790  175.5720  146.0300 N   0  0  0  0  0  2  0  0  0  0  0  0
  1  8  1  0  0  0  0
  2  6  2  0  0  0  0
  2 17  1  0  0  0  0
  3  6  1  0  0  0  0
  4  9  1  6  0  0  0
  5 15  2  0  0  0  0
  6 16  1  0  0  0  0
  7 11  1  0  0  0  0
  7 10  2  0  0  0  0
  8 12  2  0  0  0  0
 10 15  1  0  0  0  0
 11  5  1  0  0  0  0
 12  4  1  0  0  0  0
 13  5  1  6  0  0  0
 13  4  1  0  0  0  0
 14 16  1  6  0  0  0
 14  8  1  0  0  0  0
 14 13  1  0  0  0  0
 16 11  2  0  0  0  0
 17  7  1  0  0  0  0
 18 10  1  0  0  0  0
 19 20  1  6  0  0  0
 19 18  1  0  0  0  0
 19 22  1  0  0  0  0
 21 25  1  0  0  0  0
 22 21  1  0  0  0  0
 23 21  2  0  0  0  0
 25 24  1  0  0  0  0
M  END
>  <MODEL>
8

>  <REMARK>
 VINA RESULT:      -7.6      2.103      3.542
  Name = 
  3 active torsions:
  status: ('A' for Active; 'I' for Inactive)
    1  A    between atoms: C_4  and  C_6
    2  A    between atoms: C_4  and  C_13
    3  A    between atoms: C_6  and  N_16
                            x       y       z     vdW  Elec       q    Type
                         _______ _______ _______ _____ _____    ______ ____

>  <TORSDO>
F 3

$$$$
=
 OpenBabel11042417463D

 25 28  0  0  1  0  0  0  0  0999 V2000
  183.4930  179.0500  143.8910 N   0  0  0  0  0  1  0  0  0  0  0  0
  187.6970  177.8980  141.6100 C   0  0  0  0  0  3  0  0  0  0  0  0
  185.2090  178.2600  141.4240 C   0  0  0  0  0  1  0  0  0  0  0  0
  185.5760  178.0690  146.6070 C   0  0  1  0  0  3  0  0  0  0  0  0
  187.3540  176.8430  145.3890 C   0  0  0  0  0  0  0  0  0  0  0  0
  186.3960  177.7680  142.1730 C   0  0  0  0  0  0  0  0  0  0  0  0
  188.6760  177.0410  143.6490 C   0  0  0  0  0  0  0  0  0  0  0  0
  184.4170  178.4770  144.8090 C   0  0  0  0  0  0  0  0  0  0  0  0
  186.2770  178.4520  147.7860 N   0  0  0  0  0  1  0  0  0  0  0  0
  189.4640  177.1410  144.7910 C   0  0  0  0  0  0  0  0  0  0  0  0
  187.4260  176.8050  144.1000 C   0  0  0  0  0  0  0  0  0  0  0  0
  184.5090  178.8500  146.0500 N   0  0  0  0  0  0  0  0  0  0  0  0
  186.0650  177.2550  145.6830 C   0  0  2  0  0  3  0  0  0  0  0  0
  185.3780  177.4250  144.5050 C   0  0  2  0  0  3  0  0  0  0  0  0
  188.6130  177.1020  145.9190 C   0  0  0  0  0  3  0  0  0  0  0  0
  186.2860  177.2200  143.4640 C   0  0  0  0  0  0  0  0  0  0  0  0
  188.8590  177.5740  142.3650 C   0  0  0  0  0  2  0  0  0  0  0  0
  190.8880  177.5920  144.8170 C   0  0  0  0  0  2  0  0  0  0  0  0
  191.8190  176.4880  144.3380 C   0  0  1  0  0  3  0  0  0  0  0  0
  193.2430  176.7890  144.7680 C   0  0  0  0  0  1  0  0  0  0  0  0
  190.9230  174.1330  144.1080 C   0  0  0  0  0  0  0  0  0  0  0  0
  191.4080  175.2130  144.9080 N   0  0  0  0  0  2  0  0  0  0  0  0
  190.8550  174.2460  142.8540 O   0  0  0  0  0  0  0  0  0  0  0  0
  190.0530  171.8800  144.0100 O   0  0  0  0  0  1  0  0  0  0  0  0
  190.5170  172.9220  144.7400 N   0  0  0  0  0  2  0  0  0  0  0  0
  1  8  1  0  0  0  0
  2  6  2  0  0  0  0
  2 17  1  0  0  0  0
  3  6  1  0  0  0  0
  4  9  1  6  0  0  0
  5 15  2  0  0  0  0
  6 16  1  0  0  0  0
  7 11  1  0  0  0  0
  7 10  2  0  0  0  0
  8 12  2  0  0  0  0
 10 18  1  0  0  0  0
 10 15  1  0  0  0  0
 11  5  1  0  0  0  0
 12  4  1  0  0  0  0
 13  5  1  6  0  0  0
 13  4  1  0  0  0  0
 14 16  1  6  0  0  0
 14  8  1  0  0  0  0
 14 13  1  0  0  0  0
 16 11  2  0  0  0  0
 17  7  1  0  0  0  0
 19 20  1  1  0  0  0
 19 18  1  0  0  0  0
 19 22  1  0  0  0  0
 21 25  1  0  0  0  0
 21 22  1  0  0  0  0
 23 21  2  0  0  0  0
 24 25  1  0  0  0  0
M  END
>  <MODEL>
9

>  <REMARK>
 VINA RESULT:      -7.5      2.329      3.725
  Name = 
  3 active torsions:
  status: ('A' for Active; 'I' for Inactive)
    1  A    between atoms: C_4  and  C_6
    2  A    between atoms: C_4  and  C_13
    3  A    between atoms: C_6  and  N_16
                            x       y       z     vdW  Elec       q    Type
                         _______ _______ _______ _____ _____    ______ ____

>  <TORSDO>
F 3

$$$$
