=
 OpenBabel11042418493D

 60 71  0  0  1  0  0  0  0  0999 V2000
  190.1870  174.3330  141.8100 N   0  0  0  0  0  0  0  0  0  0  0  0
  188.3630  175.5160  143.2450 C   0  0  1  0  0  3  0  0  0  0  0  0
  190.4720  176.6860  142.4340 C   0  0  0  0  0  1  0  0  0  0  0  0
  189.8480  175.3520  142.8300 C   0  0  2  0  0  0  0  0  0  0  0  0
  186.3310  176.5930  142.7360 C   0  0  2  0  0  3  0  0  0  0  0  0
  190.7570  172.2030  143.1210 C   0  0  0  0  0  1  0  0  0  0  0  0
  188.1470  176.0370  145.6250 C   0  0  1  0  0  3  0  0  0  0  0  0
  190.3800  175.8590  146.9030 N   0  0  0  0  0  0  0  0  0  0  0  0
  186.9870  177.2960  143.8990 C   0  0  0  0  0  2  0  0  0  0  0  0
  190.7090  174.6780  143.9000 C   0  0  1  0  0  3  0  0  0  0  0  0
  188.2290  176.5900  144.2460 N   0  0  2  0  0  0  0  0  0  0  0  0
  189.9070  174.0790  145.0660 C   0  0  0  0  0  2  0  0  0  0  0  0
  187.4580  175.8560  142.0830 C   0  0  0  0  0  2  0  0  0  0  0  0
  189.4060  175.1870  146.0030 C   0  0  2  0  0  0  0  0  0  0  0  0
  191.0650  173.6780  142.8020 C   0  0  2  0  0  3  0  0  0  0  0  0
  189.4990  174.7830  147.3990 C   0  0  0  0  0  2  0  0  0  0  0  0
  184.3490  177.9360  142.2180 C   0  0  0  0  0  2  0  0  0  0  0  0
  185.6860  177.5350  141.7300 C   0  0  1  0  0  3  0  0  0  0  0  0
  185.4490  178.8020  142.2990 O   0  0  0  0  0  0  0  0  0  0  0  0
  186.7620  177.2580  147.3070 C   0  0  0  0  0  2  0  0  0  0  0  0
  187.9110  177.1340  146.6480 C   0  0  0  0  0  3  0  0  0  0  0  0
  189.0750  173.4880  141.3580 C   0  0  0  0  0  2  0  0  0  0  0  0
  191.2340  172.6040  138.2180 C   0  0  2  0  0  0  0  0  0  0  0  0
  189.0010  171.4410  138.5160 C   0  0  0  0  0  2  0  0  0  0  0  0
  189.8720  171.8540  139.6920 C   0  0  1  0  0  0  0  0  0  0  0  0
  190.7270  173.1690  139.5160 C   0  0  2  0  0  0  0  0  0  0  0  0
  190.6330  173.9230  138.2490 N   0  0  0  0  0  2  0  0  0  0  0  0
  189.2810  173.2050  139.8820 C   0  0  2  0  0  3  0  0  0  0  0  0
  190.4760  171.3230  138.3960 C   0  0  2  0  0  3  0  0  0  0  0  0
  192.6870  172.5610  138.2560 N   0  0  0  0  0  2  0  0  0  0  0  0
  193.0480  171.1450  138.2880 C   0  0  2  0  0  3  0  0  0  0  0  0
  194.2920  168.9610  141.2950 C   0  0  0  0  0  2  0  0  0  0  0  0
  194.0220  171.6830  140.4950 C   0  0  0  0  0  3  0  0  0  0  0  0
  193.5110  169.2900  140.0240 C   0  0  0  0  0  2  0  0  0  0  0  0
  193.6320  170.7360  139.6150 C   0  0  0  0  0  0  0  0  0  0  0  0
  194.6420  169.6460  143.5490 O   0  0  0  0  0  1  0  0  0  0  0  0
  194.5230  171.3580  141.8810 C   0  0  1  0  0  3  0  0  0  0  0  0
  194.1370  172.3560  142.7510 F   0  0  0  0  0  0  0  0  0  0  0  0
  194.0040  170.0050  142.3620 C   0  0  1  0  0  3  0  0  0  0  0  0
  193.8820  170.7780  137.1410 N   0  0  0  0  0  2  0  0  0  0  0  0
  195.9850  170.6020  136.3060 N   0  0  0  0  0  2  0  0  0  0  0  0
  195.5750  171.9580  136.1920 C   0  0  1  0  0  3  0  0  0  0  0  0
  195.2050  171.2130  137.3460 N   0  0  0  0  0  0  0  0  0  0  0  0
  196.7190  172.8130  136.4790 N   0  0  0  0  0  2  0  0  0  0  0  0
  195.2340  175.1130  138.1020 C   0  0  0  0  0  2  0  0  0  0  0  0
  196.5010  175.1760  137.2590 C   0  0  0  0  0  2  0  0  0  0  0  0
  194.1910  175.4350  135.7710 C   0  0  0  0  0  2  0  0  0  0  0  0
  195.0300  174.2110  135.3900 C   0  0  0  0  0  2  0  0  0  0  0  0
  193.9950  175.5390  137.2920 C   0  0  0  0  0  2  0  0  0  0  0  0
  196.4150  174.1920  136.0740 C   0  0  0  0  0  3  0  0  0  0  0  0
  191.7250  175.2920  146.8180 C   0  0  0  0  0  2  0  0  0  0  0  0
  192.7390  176.4220  146.7820 C   0  0  0  0  0  2  0  0  0  0  0  0
  194.1530  175.9090  146.5070 C   0  0  0  0  0  2  0  0  0  0  0  0
  194.2240  174.9940  145.2810 C   0  0  1  0  0  3  0  0  0  0  0  0
  193.6080  176.3540  143.3760 O   0  0  0  0  0  1  0  0  0  0  0  0
  195.6000  176.7640  144.4230 O   0  0  0  0  0  1  0  0  0  0  0  0
  194.6890  175.7760  144.0470 C   0  0  0  0  0  3  0  0  0  0  0  0
  195.0850  173.7550  145.5430 C   0  0  0  0  0  2  0  0  0  0  0  0
  197.2830  173.5180  145.4610 C   0  0  0  0  0  1  0  0  0  0  0  0
  196.2620  174.0980  146.2150 O   0  0  0  0  0  0  0  0  0  0  0  0
  1 15  1  0  0  0  0
  1  4  1  0  0  0  0
  2 13  1  6  0  0  0
  2 11  1  0  0  0  0
  4  3  1  6  0  0  0
  4  2  1  0  0  0  0
  4 10  1  0  0  0  0
  5 13  1  6  0  0  0
  5  9  1  0  0  0  0
  7 14  1  0  0  0  0
  7 21  1  1  0  0  0
  8 16  1  0  0  0  0
 10 12  1  1  0  0  0
 11  9  1  6  0  0  0
 11  7  1  0  0  0  0
 14 12  1  6  0  0  0
 14  8  1  0  0  0  0
 14 16  1  0  0  0  0
 15  6  1  1  0  0  0
 15 10  1  0  0  0  0
 17 19  1  0  0  0  0
 18 17  1  1  0  0  0
 18 19  1  0  0  0  0
 18  5  1  0  0  0  0
 21 20  2  0  0  0  0
 22  1  1  0  0  0  0
 23 27  1  0  0  0  0
 23 30  1  6  0  0  0
 23 29  1  0  0  0  0
 23 26  1  0  0  0  0
 25 24  1  6  0  0  0
 25 28  1  0  0  0  0
 26 27  1  6  0  0  0
 26 25  1  0  0  0  0
 26 28  1  0  0  0  0
 28 22  1  1  0  0  0
 29 24  1  6  0  0  0
 29 25  1  0  0  0  0
 30 31  1  0  0  0  0
 31 40  1  6  0  0  0
 31 35  1  0  0  0  0
 32 39  1  0  0  0  0
 33 37  1  0  0  0  0
 34 32  1  0  0  0  0
 35 34  1  0  0  0  0
 35 33  2  0  0  0  0
 37 39  1  0  0  0  0
 37 38  1  1  0  0  0
 39 36  1  1  0  0  0
 40 43  1  0  0  0  0
 41 43  1  0  0  0  0
 42 41  1  0  0  0  0
 42 44  1  1  0  0  0
 42 43  1  0  0  0  0
 46 45  1  0  0  0  0
 47 49  1  0  0  0  0
 48 47  1  0  0  0  0
 48 50  1  0  0  0  0
 49 45  1  0  0  0  0
 50 44  1  0  0  0  0
 50 46  1  0  0  0  0
 51  8  1  0  0  0  0
 52 51  1  0  0  0  0
 53 52  1  0  0  0  0
 54 58  1  1  0  0  0
 54 53  1  0  0  0  0
 55 57  1  0  0  0  0
 57 56  1  0  0  0  0
 57 54  1  0  0  0  0
 58 60  1  0  0  0  0
 59 60  1  0  0  0  0
M  END
>  <MODEL>
1

>  <REMARK>
 VINA RESULT:      -6.3      0.000      0.000
  Name = 
  18 active torsions:
  status: ('A' for Active; 'I' for Inactive)
    1  A    between atoms: N_1  and  C_28
    2  A    between atoms: C_3  and  C_29
    3  A    between atoms: C_3  and  C_38
    4  A    between atoms: C_3  and  C_47
    5  A    between atoms: N_7  and  C_36
    6  A    between atoms: N_7  and  C_53
    7  A    between atoms: C_10  and  C_11
    8  A    between atoms: C_10  and  C_47
    9  A    between atoms: C_11  and  N_25
   10  A    between atoms: C_15  and  N_30
   11  A    between atoms: C_17  and  C_58
   12  A    between atoms: C_20  and  C_35
   13  A    between atoms: C_21  and  C_39
   14  A    between atoms: C_28  and  C_56
   15  A    between atoms: C_29  and  O_51
   16  A    between atoms: N_30  and  C_35
   17  A    between atoms: C_35  and  N_42
   18  A    between atoms: N_42  and  N_55
                            x       y       z     vdW  Elec       q    Type
                         _______ _______ _______ _____ _____    ______ ____

>  <TORSDO>
F 18

$$$$
=
 OpenBabel11042418493D

 60 71  0  0  1  0  0  0  0  0999 V2000
  190.8450  173.7750  141.5350 N   0  0  0  0  0  0  0  0  0  0  0  0
  192.3160  173.8250  143.6840 C   0  0  1  0  0  3  0  0  0  0  0  0
  192.8180  175.2250  141.6200 C   0  0  0  0  0  1  0  0  0  0  0  0
  192.1850  173.9410  142.1430 C   0  0  2  0  0  0  0  0  0  0  0  0
  192.1900  175.0040  145.7190 C   0  0  2  0  0  3  0  0  0  0  0  0
  190.6580  171.2860  140.9400 C   0  0  0  0  0  1  0  0  0  0  0  0
  194.4180  172.7540  144.3300 C   0  0  1  0  0  3  0  0  0  0  0  0
  195.7220  171.7980  142.3210 N   0  0  0  0  0  0  0  0  0  0  0  0
  193.6390  174.8250  145.3390 C   0  0  0  0  0  2  0  0  0  0  0  0
  192.7600  172.7390  141.3910 C   0  0  1  0  0  3  0  0  0  0  0  0
  193.7150  174.0440  144.0950 N   0  0  2  0  0  0  0  0  0  0  0  0
  193.1320  171.5530  142.2940 C   0  0  0  0  0  2  0  0  0  0  0  0
  191.4580  174.8230  144.4270 C   0  0  0  0  0  2  0  0  0  0  0  0
  194.4310  171.8410  143.0580 C   0  0  2  0  0  0  0  0  0  0  0  0
  191.3750  172.6360  140.7560 C   0  0  2  0  0  3  0  0  0  0  0  0
  195.2730  170.6560  143.1410 C   0  0  0  0  0  2  0  0  0  0  0  0
  191.3230  176.2140  147.6650 C   0  0  0  0  0  2  0  0  0  0  0  0
  191.8710  176.3740  146.3000 C   0  0  1  0  0  3  0  0  0  0  0  0
  192.6440  176.6320  147.4490 O   0  0  0  0  0  0  0  0  0  0  0  0
  196.2840  172.3870  145.9470 C   0  0  0  0  0  2  0  0  0  0  0  0
  195.8270  172.9780  144.8480 C   0  0  0  0  0  3  0  0  0  0  0  0
  189.7660  173.4060  142.4590 C   0  0  0  0  0  2  0  0  0  0  0  0
  187.2780  176.3670  141.8680 C   0  0  2  0  0  0  0  0  0  0  0  0
  187.7270  174.7640  139.9550 C   0  0  0  0  0  2  0  0  0  0  0  0
  188.7840  175.1230  140.9860 C   0  0  1  0  0  0  0  0  0  0  0  0
  188.2780  175.4090  142.4540 C   0  0  2  0  0  0  0  0  0  0  0  0
  186.8350  175.3040  142.7490 N   0  0  0  0  0  2  0  0  0  0  0  0
  188.4820  174.0230  141.9390 C   0  0  2  0  0  3  0  0  0  0  0  0
  187.7840  176.1550  140.4720 C   0  0  2  0  0  3  0  0  0  0  0  0
  187.4600  177.6740  142.4790 N   0  0  0  0  0  2  0  0  0  0  0  0
  186.1170  178.1910  142.7320 C   0  0  2  0  0  3  0  0  0  0  0  0
  184.1300  178.5580  146.0900 C   0  0  0  0  0  2  0  0  0  0  0  0
  186.6790  177.7590  145.1000 C   0  0  0  0  0  3  0  0  0  0  0  0
  184.4740  178.8150  144.6240 C   0  0  0  0  0  2  0  0  0  0  0  0
  185.7580  178.1540  144.1950 C   0  0  0  0  0  0  0  0  0  0  0  0
  185.0080  178.6620  148.3020 O   0  0  0  0  0  1  0  0  0  0  0  0
  186.4310  177.7870  146.5880 C   0  0  1  0  0  3  0  0  0  0  0  0
  187.6110  178.0810  147.2410 F   0  0  0  0  0  0  0  0  0  0  0  0
  185.3540  178.8030  146.9580 C   0  0  1  0  0  3  0  0  0  0  0  0
  185.1230  177.5520  141.8670 N   0  0  0  0  0  2  0  0  0  0  0  0
  183.7490  177.9930  140.1160 N   0  0  0  0  0  2  0  0  0  0  0  0
  182.9530  177.8900  141.2880 C   0  0  1  0  0  3  0  0  0  0  0  0
  184.2280  178.5160  141.3650 N   0  0  0  0  0  0  0  0  0  0  0  0
  181.8950  178.8890  141.2200 N   0  0  0  0  0  2  0  0  0  0  0  0
  179.0850  179.5150  139.8620 C   0  0  0  0  0  2  0  0  0  0  0  0
  179.7610  178.1780  140.1320 C   0  0  0  0  0  2  0  0  0  0  0  0
  178.3550  179.1420  142.3020 C   0  0  0  0  0  2  0  0  0  0  0  0
  179.8550  178.9770  142.5690 C   0  0  0  0  0  2  0  0  0  0  0  0
  178.0910  179.8810  140.9810 C   0  0  0  0  0  2  0  0  0  0  0  0
  180.5930  178.2410  141.4300 C   0  0  0  0  0  3  0  0  0  0  0  0
  195.5700  171.3950  140.9240 C   0  0  0  0  0  2  0  0  0  0  0  0
  196.7690  171.8860  140.1320 C   0  0  0  0  0  2  0  0  0  0  0  0
  196.3530  172.5120  138.8000 C   0  0  0  0  0  2  0  0  0  0  0  0
  196.5260  174.0340  138.7800 C   0  0  1  0  0  3  0  0  0  0  0  0
  195.2780  175.4140  137.2310 O   0  0  0  0  0  1  0  0  0  0  0  0
  194.1700  173.7830  138.3920 O   0  0  0  0  0  1  0  0  0  0  0  0
  195.1990  174.7250  138.4450 C   0  0  0  0  0  3  0  0  0  0  0  0
  197.1410  174.5560  140.0800 C   0  0  0  0  0  2  0  0  0  0  0  0
  196.5370  176.2160  141.4130 C   0  0  0  0  0  1  0  0  0  0  0  0
  197.0600  175.9510  140.1460 O   0  0  0  0  0  0  0  0  0  0  0  0
  1  4  1  0  0  0  0
  1 22  1  0  0  0  0
  2 11  1  0  0  0  0
  2 13  1  1  0  0  0
  4  3  1  6  0  0  0
  4  2  1  0  0  0  0
  5 13  1  6  0  0  0
  5 18  1  0  0  0  0
  7 21  1  6  0  0  0
  8 14  1  0  0  0  0
  8 16  1  0  0  0  0
  9  5  1  0  0  0  0
 10  4  1  0  0  0  0
 10 12  1  1  0  0  0
 11  7  1  0  0  0  0
 11  9  1  1  0  0  0
 14 12  1  6  0  0  0
 14 16  1  0  0  0  0
 14  7  1  0  0  0  0
 15  6  1  1  0  0  0
 15 10  1  0  0  0  0
 15  1  1  0  0  0  0
 18 19  1  0  0  0  0
 18 17  1  1  0  0  0
 19 17  1  0  0  0  0
 21 20  2  0  0  0  0
 23 26  1  0  0  0  0
 23 30  1  1  0  0  0
 23 27  1  0  0  0  0
 25 24  1  1  0  0  0
 25 28  1  0  0  0  0
 25 26  1  0  0  0  0
 26 27  1  6  0  0  0
 28 26  1  0  0  0  0
 28 22  1  1  0  0  0
 29 24  1  6  0  0  0
 29 25  1  0  0  0  0
 29 23  1  0  0  0  0
 30 31  1  0  0  0  0
 31 40  1  6  0  0  0
 31 35  1  0  0  0  0
 32 39  1  0  0  0  0
 33 37  1  0  0  0  0
 34 32  1  0  0  0  0
 35 34  1  0  0  0  0
 35 33  2  0  0  0  0
 37 39  1  0  0  0  0
 37 38  1  1  0  0  0
 39 36  1  1  0  0  0
 41 42  1  0  0  0  0
 41 43  1  0  0  0  0
 42 44  1  6  0  0  0
 42 43  1  0  0  0  0
 43 40  1  0  0  0  0
 44 50  1  0  0  0  0
 45 46  1  0  0  0  0
 45 49  1  0  0  0  0
 46 50  1  0  0  0  0
 47 48  1  0  0  0  0
 49 47  1  0  0  0  0
 50 48  1  0  0  0  0
 51  8  1  0  0  0  0
 52 51  1  0  0  0  0
 53 52  1  0  0  0  0
 54 53  1  1  0  0  0
 54 58  1  0  0  0  0
 55 57  1  0  0  0  0
 56 57  1  0  0  0  0
 57 54  1  0  0  0  0
 58 60  1  0  0  0  0
 60 59  1  0  0  0  0
M  END
>  <MODEL>
2

>  <REMARK>
 VINA RESULT:      -6.0      3.507      9.858
  Name = 
  18 active torsions:
  status: ('A' for Active; 'I' for Inactive)
    1  A    between atoms: N_1  and  C_28
    2  A    between atoms: C_3  and  C_29
    3  A    between atoms: C_3  and  C_38
    4  A    between atoms: C_3  and  C_47
    5  A    between atoms: N_7  and  C_36
    6  A    between atoms: N_7  and  C_53
    7  A    between atoms: C_10  and  C_11
    8  A    between atoms: C_10  and  C_47
    9  A    between atoms: C_11  and  N_25
   10  A    between atoms: C_15  and  N_30
   11  A    between atoms: C_17  and  C_58
   12  A    between atoms: C_20  and  C_35
   13  A    between atoms: C_21  and  C_39
   14  A    between atoms: C_28  and  C_56
   15  A    between atoms: C_29  and  O_51
   16  A    between atoms: N_30  and  C_35
   17  A    between atoms: C_35  and  N_42
   18  A    between atoms: N_42  and  N_55
                            x       y       z     vdW  Elec       q    Type
                         _______ _______ _______ _____ _____    ______ ____

>  <TORSDO>
F 18

$$$$
=
 OpenBabel11042418493D

 60 71  0  0  1  0  0  0  0  0999 V2000
  189.5900  172.7920  142.0890 N   0  0  0  0  0  0  0  0  0  0  0  0
  191.6100  173.6890  143.4660 C   0  0  1  0  0  3  0  0  0  0  0  0
  189.8960  172.0620  144.4080 C   0  0  0  0  0  1  0  0  0  0  0  0
  190.1460  173.1830  143.4050 C   0  0  2  0  0  0  0  0  0  0  0  0
  193.8640  173.0370  143.6690 C   0  0  2  0  0  3  0  0  0  0  0  0
  188.4550  174.8980  141.1640 C   0  0  0  0  0  1  0  0  0  0  0  0
  191.8800  175.4610  145.1310 C   0  0  1  0  0  3  0  0  0  0  0  0
  189.6370  176.2660  146.1180 N   0  0  0  0  0  0  0  0  0  0  0  0
  193.3750  173.5480  145.0010 C   0  0  0  0  0  2  0  0  0  0  0  0
  189.1100  174.2910  143.6000 C   0  0  1  0  0  3  0  0  0  0  0  0
  191.9840  174.0020  144.8580 N   0  0  2  0  0  0  0  0  0  0  0  0
  189.6960  175.7100  143.5770 C   0  0  0  0  0  2  0  0  0  0  0  0
  192.6080  172.6830  142.9390 C   0  0  0  0  0  2  0  0  0  0  0  0
  190.4340  176.0120  144.8890 C   0  0  2  0  0  0  0  0  0  0  0  0
  188.5440  173.8220  142.2610 C   0  0  2  0  0  3  0  0  0  0  0  0
  190.1990  177.3800  145.3280 C   0  0  0  0  0  2  0  0  0  0  0  0
  195.9140  171.9660  142.8590 C   0  0  0  0  0  2  0  0  0  0  0  0
  194.7590  171.8100  143.7700 C   0  0  1  0  0  3  0  0  0  0  0  0
  196.0410  172.1530  144.2430 O   0  0  0  0  0  0  0  0  0  0  0  0
  193.4170  176.5670  146.7580 C   0  0  0  0  0  2  0  0  0  0  0  0
  192.3570  175.7980  146.5320 C   0  0  0  0  0  3  0  0  0  0  0  0
  190.4630  173.0260  140.9320 C   0  0  0  0  0  2  0  0  0  0  0  0
  191.1800  170.7320  137.8450 C   0  0  2  0  0  0  0  0  0  0  0  0
  192.4280  170.2780  140.0050 C   0  0  0  0  0  2  0  0  0  0  0  0
  192.0190  171.6780  139.5750 C   0  0  1  0  0  0  0  0  0  0  0  0
  190.6710  171.8080  138.7640 C   0  0  2  0  0  0  0  0  0  0  0  0
  189.8840  170.5910  138.4800 N   0  0  0  0  0  2  0  0  0  0  0  0
  190.6960  171.6910  140.2520 C   0  0  2  0  0  3  0  0  0  0  0  0
  192.4920  170.6360  138.5650 C   0  0  2  0  0  3  0  0  0  0  0  0
  191.1750  171.2350  136.4800 N   0  0  0  0  0  2  0  0  0  0  0  0
  192.5650  171.5460  136.1590 C   0  0  2  0  0  3  0  0  0  0  0  0
  194.2070  175.1050  136.1650 C   0  0  0  0  0  2  0  0  0  0  0  0
  191.8020  173.7760  135.4130 C   0  0  0  0  0  3  0  0  0  0  0  0
  193.9920  173.6540  136.5930 C   0  0  0  0  0  2  0  0  0  0  0  0
  192.7850  173.0220  135.9500 C   0  0  0  0  0  0  0  0  0  0  0  0
  193.1200  177.2140  135.9600 O   0  0  0  0  0  1  0  0  0  0  0  0
  191.9060  175.2730  135.2620 C   0  0  1  0  0  3  0  0  0  0  0  0
  190.6580  175.8370  135.4310 F   0  0  0  0  0  0  0  0  0  0  0  0
  192.8960  175.8700  136.2580 C   0  0  1  0  0  3  0  0  0  0  0  0
  193.0610  170.7160  135.0580 N   0  0  0  0  0  2  0  0  0  0  0  0
  194.7020  169.2410  134.5290 N   0  0  0  0  0  2  0  0  0  0  0  0
  195.1470  170.0230  135.6290 C   0  0  1  0  0  3  0  0  0  0  0  0
  193.7850  169.6210  135.5680 N   0  0  0  0  0  0  0  0  0  0  0  0
  195.8950  169.1630  136.5370 N   0  0  0  0  0  2  0  0  0  0  0  0
  196.1460  170.7300  139.2960 C   0  0  0  0  0  2  0  0  0  0  0  0
  197.1250  169.7790  138.6220 C   0  0  0  0  0  2  0  0  0  0  0  0
  197.3320  172.3760  137.7110 C   0  0  0  0  0  2  0  0  0  0  0  0
  196.9420  171.3730  136.6200 C   0  0  0  0  0  2  0  0  0  0  0  0
  196.4760  172.2010  138.9750 C   0  0  0  0  0  2  0  0  0  0  0  0
  197.0380  169.9050  137.0870 C   0  0  0  0  0  3  0  0  0  0  0  0
  188.1950  176.2670  145.8760 C   0  0  0  0  0  2  0  0  0  0  0  0
  187.4950  176.9350  147.0460 C   0  0  0  0  0  2  0  0  0  0  0  0
  186.7810  178.2200  146.6230 C   0  0  0  0  0  2  0  0  0  0  0  0
  185.7580  177.9900  145.5070 C   0  0  1  0  0  3  0  0  0  0  0  0
  184.3260  178.5440  147.3790 O   0  0  0  0  0  1  0  0  0  0  0  0
  183.6050  179.0230  145.2620 O   0  0  0  0  0  1  0  0  0  0  0  0
  184.3290  178.1240  146.0460 C   0  0  0  0  0  3  0  0  0  0  0  0
  186.0130  178.9000  144.3030 C   0  0  0  0  0  2  0  0  0  0  0  0
  185.9800  177.1520  142.9470 C   0  0  0  0  0  1  0  0  0  0  0  0
  186.7680  178.2390  143.3290 O   0  0  0  0  0  0  0  0  0  0  0  0
  1 15  1  0  0  0  0
  1  4  1  0  0  0  0
  2 13  1  1  0  0  0
  2 11  1  0  0  0  0
  4  2  1  0  0  0  0
  4 10  1  0  0  0  0
  4  3  1  1  0  0  0
  5 13  1  6  0  0  0
  5 18  1  0  0  0  0
  5  9  1  0  0  0  0
  7 21  1  1  0  0  0
 10 12  1  6  0  0  0
 11  9  1  6  0  0  0
 11  7  1  0  0  0  0
 14 12  1  6  0  0  0
 14  7  1  0  0  0  0
 14 16  1  0  0  0  0
 14  8  1  0  0  0  0
 15  6  1  6  0  0  0
 15 10  1  0  0  0  0
 16  8  1  0  0  0  0
 17 19  1  0  0  0  0
 18 17  1  6  0  0  0
 18 19  1  0  0  0  0
 21 20  2  0  0  0  0
 22  1  1  0  0  0  0
 23 30  1  6  0  0  0
 23 27  1  0  0  0  0
 23 29  1  0  0  0  0
 23 26  1  0  0  0  0
 25 24  1  6  0  0  0
 25 28  1  0  0  0  0
 26 27  1  1  0  0  0
 26 25  1  0  0  0  0
 26 28  1  0  0  0  0
 28 22  1  1  0  0  0
 29 25  1  0  0  0  0
 29 24  1  1  0  0  0
 31 40  1  6  0  0  0
 31 30  1  0  0  0  0
 32 39  1  0  0  0  0
 32 34  1  0  0  0  0
 33 35  2  0  0  0  0
 35 31  1  0  0  0  0
 35 34  1  0  0  0  0
 37 33  1  0  0  0  0
 37 38  1  1  0  0  0
 37 39  1  0  0  0  0
 39 36  1  6  0  0  0
 40 43  1  0  0  0  0
 41 43  1  0  0  0  0
 41 42  1  0  0  0  0
 42 44  1  1  0  0  0
 43 42  1  0  0  0  0
 44 50  1  0  0  0  0
 46 45  1  0  0  0  0
 47 49  1  0  0  0  0
 48 50  1  0  0  0  0
 48 47  1  0  0  0  0
 49 45  1  0  0  0  0
 50 46  1  0  0  0  0
 51  8  1  0  0  0  0
 51 52  1  0  0  0  0
 53 52  1  0  0  0  0
 54 58  1  6  0  0  0
 54 57  1  0  0  0  0
 54 53  1  0  0  0  0
 56 57  1  0  0  0  0
 57 55  1  0  0  0  0
 59 60  1  0  0  0  0
 60 58  1  0  0  0  0
M  END
>  <MODEL>
3

>  <REMARK>
 VINA RESULT:      -6.0      2.533      6.390
  Name = 
  18 active torsions:
  status: ('A' for Active; 'I' for Inactive)
    1  A    between atoms: N_1  and  C_28
    2  A    between atoms: C_3  and  C_29
    3  A    between atoms: C_3  and  C_38
    4  A    between atoms: C_3  and  C_47
    5  A    between atoms: N_7  and  C_36
    6  A    between atoms: N_7  and  C_53
    7  A    between atoms: C_10  and  C_11
    8  A    between atoms: C_10  and  C_47
    9  A    between atoms: C_11  and  N_25
   10  A    between atoms: C_15  and  N_30
   11  A    between atoms: C_17  and  C_58
   12  A    between atoms: C_20  and  C_35
   13  A    between atoms: C_21  and  C_39
   14  A    between atoms: C_28  and  C_56
   15  A    between atoms: C_29  and  O_51
   16  A    between atoms: N_30  and  C_35
   17  A    between atoms: C_35  and  N_42
   18  A    between atoms: N_42  and  N_55
                            x       y       z     vdW  Elec       q    Type
                         _______ _______ _______ _____ _____    ______ ____

>  <TORSDO>
F 18

$$$$
=
 OpenBabel11042418493D

 60 71  0  0  1  0  0  0  0  0999 V2000
  191.5320  171.8650  140.9640 N   0  0  0  0  0  0  0  0  0  0  0  0
  193.6170  170.5320  141.7760 C   0  0  1  0  0  3  0  0  0  0  0  0
  193.7100  172.9810  141.0920 C   0  0  0  0  0  1  0  0  0  0  0  0
  192.9960  171.6480  140.8970 C   0  0  2  0  0  0  0  0  0  0  0  0
  194.5030  170.0250  143.8990 C   0  0  2  0  0  3  0  0  0  0  0  0
  190.5330  170.4190  139.0950 C   0  0  0  0  0  1  0  0  0  0  0  0
  195.4730  169.4180  140.6370 C   0  0  1  0  0  3  0  0  0  0  0  0
  195.7170  170.1340  138.1710 N   0  0  0  0  0  0  0  0  0  0  0  0
  195.6370  170.2250  142.9240 C   0  0  0  0  0  2  0  0  0  0  0  0
  192.9550  171.2980  139.4090 C   0  0  1  0  0  3  0  0  0  0  0  0
  195.0800  170.4910  141.5900 N   0  0  2  0  0  0  0  0  0  0  0  0
  193.3050  169.8350  139.0980 C   0  0  0  0  0  2  0  0  0  0  0  0
  193.3490  170.7230  143.2520 C   0  0  0  0  0  2  0  0  0  0  0  0
  194.8160  169.6020  139.2270 C   0  0  2  0  0  0  0  0  0  0  0  0
  191.4570  171.5770  139.5160 C   0  0  2  0  0  3  0  0  0  0  0  0
  195.3090  168.7160  138.1820 C   0  0  0  0  0  2  0  0  0  0  0  0
  194.8380  169.5460  146.2780 C   0  0  0  0  0  2  0  0  0  0  0  0
  194.7590  170.6280  145.2730 C   0  0  1  0  0  3  0  0  0  0  0  0
  195.9890  170.1880  145.8010 O   0  0  0  0  0  0  0  0  0  0  0  0
  197.6410  168.1930  140.8140 C   0  0  0  0  0  2  0  0  0  0  0  0
  196.9820  169.3090  140.5180 C   0  0  0  0  0  3  0  0  0  0  0  0
  190.7830  170.9140  141.7940 C   0  0  0  0  0  2  0  0  0  0  0  0
  189.6800  173.5440  144.4710 C   0  0  2  0  0  0  0  0  0  0  0  0
  188.4820  173.5170  142.2360 C   0  0  0  0  0  2  0  0  0  0  0  0
  189.9530  173.1600  142.3810 C   0  0  1  0  0  0  0  0  0  0  0  0
  190.3830  172.4470  143.7210 C   0  0  2  0  0  0  0  0  0  0  0  0
  189.3560  172.1580  144.7420 N   0  0  0  0  0  2  0  0  0  0  0  0
  189.7600  171.7010  142.5890 C   0  0  2  0  0  3  0  0  0  0  0  0
  189.3130  174.2690  143.2110 C   0  0  2  0  0  3  0  0  0  0  0  0
  190.6220  174.1740  145.3830 N   0  0  0  0  0  2  0  0  0  0  0  0
  191.1100  175.3690  144.6980 C   0  0  2  0  0  3  0  0  0  0  0  0
  194.7400  176.8330  144.8890 C   0  0  0  0  0  2  0  0  0  0  0  0
  193.3630  174.3590  144.5740 C   0  0  0  0  0  3  0  0  0  0  0  0
  193.2290  176.8450  144.6680 C   0  0  0  0  0  2  0  0  0  0  0  0
  192.6130  175.4710  144.7310 C   0  0  0  0  0  0  0  0  0  0  0  0
  196.7660  175.8120  144.1640 O   0  0  0  0  0  1  0  0  0  0  0  0
  194.8690  174.3910  144.4960 C   0  0  1  0  0  3  0  0  0  0  0  0
  195.3020  173.3990  143.6390 F   0  0  0  0  0  0  0  0  0  0  0  0
  195.3790  175.7520  144.0320 C   0  0  1  0  0  3  0  0  0  0  0  0
  190.4280  176.5750  145.1730 N   0  0  0  0  0  2  0  0  0  0  0  0
  189.4820  177.4610  147.0360 N   0  0  0  0  0  2  0  0  0  0  0  0
  188.4400  177.0960  146.1400 C   0  0  1  0  0  3  0  0  0  0  0  0
  189.5840  176.2590  146.2550 N   0  0  0  0  0  0  0  0  0  0  0  0
  187.3310  176.5570  146.9140 N   0  0  0  0  0  2  0  0  0  0  0  0
  186.5560  178.5590  144.5640 C   0  0  0  0  0  2  0  0  0  0  0  0
  186.3710  177.0500  144.6610 C   0  0  0  0  0  2  0  0  0  0  0  0
  184.3350  178.4750  145.8620 C   0  0  0  0  0  2  0  0  0  0  0  0
  185.1080  177.5760  146.8330 C   0  0  0  0  0  2  0  0  0  0  0  0
  185.2810  179.3130  144.9870 C   0  0  0  0  0  2  0  0  0  0  0  0
  186.0970  176.6290  146.1200 C   0  0  0  0  0  3  0  0  0  0  0  0
  194.9960  170.7690  137.0690 C   0  0  0  0  0  2  0  0  0  0  0  0
  195.9990  171.3200  136.0710 C   0  0  0  0  0  2  0  0  0  0  0  0
  195.8370  172.8280  135.8750 C   0  0  0  0  0  2  0  0  0  0  0  0
  194.5870  173.3850  136.5620 C   0  0  1  0  0  3  0  0  0  0  0  0
  193.8340  174.9760  138.2240 O   0  0  0  0  0  1  0  0  0  0  0  0
  195.8470  173.9350  138.5300 O   0  0  0  0  0  1  0  0  0  0  0  0
  194.9660  174.4630  137.5850 C   0  0  0  0  0  3  0  0  0  0  0  0
  193.5520  173.8820  135.5500 C   0  0  0  0  0  2  0  0  0  0  0  0
  191.8520  172.5190  135.9360 C   0  0  0  0  0  1  0  0  0  0  0  0
  192.8420  172.8120  134.9960 O   0  0  0  0  0  0  0  0  0  0  0  0
  1 22  1  0  0  0  0
  2 13  1  1  0  0  0
  4  1  1  0  0  0  0
  4  3  1  1  0  0  0
  4  2  1  0  0  0  0
  5  9  1  6  0  0  0
  5 18  1  0  0  0  0
  7 21  1  6  0  0  0
  7 11  1  0  0  0  0
  8 16  1  0  0  0  0
  8 14  1  0  0  0  0
 10 12  1  1  0  0  0
 10 15  1  0  0  0  0
 10  4  1  0  0  0  0
 11  2  1  0  0  0  0
 11  9  1  1  0  0  0
 12 14  1  0  0  0  0
 13  5  1  0  0  0  0
 14 16  1  6  0  0  0
 14  7  1  0  0  0  0
 15  6  1  1  0  0  0
 15  1  1  0  0  0  0
 18 19  1  0  0  0  0
 18 17  1  1  0  0  0
 19 17  1  0  0  0  0
 21 20  2  0  0  0  0
 23 27  1  0  0  0  0
 23 30  1  1  0  0  0
 25 24  1  1  0  0  0
 25 28  1  0  0  0  0
 25 29  1  0  0  0  0
 25 26  1  0  0  0  0
 26 23  1  0  0  0  0
 26 27  1  6  0  0  0
 28 22  1  6  0  0  0
 28 26  1  0  0  0  0
 29 24  1  6  0  0  0
 29 23  1  0  0  0  0
 31 35  1  0  0  0  0
 31 40  1  1  0  0  0
 31 30  1  0  0  0  0
 33 35  2  0  0  0  0
 34 35  1  0  0  0  0
 34 32  1  0  0  0  0
 37 38  1  6  0  0  0
 37 33  1  0  0  0  0
 39 36  1  1  0  0  0
 39 37  1  0  0  0  0
 39 32  1  0  0  0  0
 40 43  1  0  0  0  0
 42 43  1  0  0  0  0
 42 44  1  1  0  0  0
 42 41  1  0  0  0  0
 43 41  1  0  0  0  0
 45 46  1  0  0  0  0
 45 49  1  0  0  0  0
 46 50  1  0  0  0  0
 47 48  1  0  0  0  0
 49 47  1  0  0  0  0
 50 48  1  0  0  0  0
 50 44  1  0  0  0  0
 51  8  1  0  0  0  0
 52 51  1  0  0  0  0
 53 52  1  0  0  0  0
 53 54  1  0  0  0  0
 54 58  1  6  0  0  0
 54 57  1  0  0  0  0
 57 55  1  0  0  0  0
 57 56  1  0  0  0  0
 60 58  1  0  0  0  0
 60 59  1  0  0  0  0
M  END
>  <MODEL>
4

>  <REMARK>
 VINA RESULT:      -5.6      2.461      9.714
  Name = 
  18 active torsions:
  status: ('A' for Active; 'I' for Inactive)
    1  A    between atoms: N_1  and  C_28
    2  A    between atoms: C_3  and  C_29
    3  A    between atoms: C_3  and  C_38
    4  A    between atoms: C_3  and  C_47
    5  A    between atoms: N_7  and  C_36
    6  A    between atoms: N_7  and  C_53
    7  A    between atoms: C_10  and  C_11
    8  A    between atoms: C_10  and  C_47
    9  A    between atoms: C_11  and  N_25
   10  A    between atoms: C_15  and  N_30
   11  A    between atoms: C_17  and  C_58
   12  A    between atoms: C_20  and  C_35
   13  A    between atoms: C_21  and  C_39
   14  A    between atoms: C_28  and  C_56
   15  A    between atoms: C_29  and  O_51
   16  A    between atoms: N_30  and  C_35
   17  A    between atoms: C_35  and  N_42
   18  A    between atoms: N_42  and  N_55
                            x       y       z     vdW  Elec       q    Type
                         _______ _______ _______ _____ _____    ______ ____

>  <TORSDO>
F 18

$$$$
=
 OpenBabel11042418493D

 60 71  0  0  1  0  0  0  0  0999 V2000
  187.9760  175.8720  142.1040 N   0  0  0  0  0  0  0  0  0  0  0  0
  187.9250  177.0910  144.4050 C   0  0  1  0  0  3  0  0  0  0  0  0
  186.5140  175.0390  143.8840 C   0  0  0  0  0  1  0  0  0  0  0  0
  187.2060  176.2680  143.3050 C   0  0  2  0  0  0  0  0  0  0  0  0
  189.2480  176.9590  146.3490 C   0  0  2  0  0  3  0  0  0  0  0  0
  187.5760  177.7320  140.3820 C   0  0  0  0  0  1  0  0  0  0  0  0
  186.4250  178.7290  145.4290 C   0  0  1  0  0  3  0  0  0  0  0  0
  184.1540  178.9110  144.2190 N   0  0  0  0  0  0  0  0  0  0  0  0
  187.8170  177.2290  146.7420 C   0  0  0  0  0  2  0  0  0  0  0  0
  186.2040  177.0870  142.4890 C   0  0  1  0  0  3  0  0  0  0  0  0
  187.0040  177.3610  145.5240 N   0  0  2  0  0  0  0  0  0  0  0  0
  186.2750  178.6000  142.7440 C   0  0  0  0  0  2  0  0  0  0  0  0
  189.1390  176.3890  144.9710 C   0  0  0  0  0  2  0  0  0  0  0  0
  185.6360  178.9510  144.0950 C   0  0  2  0  0  0  0  0  0  0  0  0
  187.0030  176.6160  141.2750 C   0  0  2  0  0  3  0  0  0  0  0  0
  184.8680  180.1870  144.0140 C   0  0  0  0  0  2  0  0  0  0  0  0
  191.4170  176.0320  147.0140 C   0  0  0  0  0  2  0  0  0  0  0  0
  189.9590  175.9670  147.2580 C   0  0  1  0  0  3  0  0  0  0  0  0
  190.8360  176.6250  148.1440 O   0  0  0  0  0  0  0  0  0  0  0  0
  184.7000  178.1650  147.1440 C   0  0  0  0  0  2  0  0  0  0  0  0
  185.5530  179.0460  146.6300 C   0  0  0  0  0  3  0  0  0  0  0  0
  189.3440  176.3980  142.0210 C   0  0  0  0  0  2  0  0  0  0  0  0
  192.4400  174.1140  142.7280 C   0  0  2  0  0  0  0  0  0  0  0  0
  190.2430  173.0130  142.1000 C   0  0  0  0  0  2  0  0  0  0  0  0
  190.3130  174.3070  142.8970 C   0  0  1  0  0  0  0  0  0  0  0  0
  191.5080  175.2820  142.5660 C   0  0  2  0  0  0  0  0  0  0  0  0
  192.4730  174.9050  141.5140 N   0  0  0  0  0  2  0  0  0  0  0  0
  190.2700  175.2320  141.7340 C   0  0  2  0  0  3  0  0  0  0  0  0
  191.3250  173.1840  143.1030 C   0  0  2  0  0  3  0  0  0  0  0  0
  193.4380  174.4400  143.7340 N   0  0  0  0  0  2  0  0  0  0  0  0
  194.6460  173.7090  143.3560 C   0  0  2  0  0  3  0  0  0  0  0  0
  196.8220  171.9080  146.0730 C   0  0  0  0  0  2  0  0  0  0  0  0
  194.2800  171.7350  144.7970 C   0  0  0  0  0  3  0  0  0  0  0  0
  196.5330  172.7950  144.8630 C   0  0  0  0  0  2  0  0  0  0  0  0
  195.0910  172.7500  144.4290 C   0  0  0  0  0  0  0  0  0  0  0  0
  196.5580  169.7000  146.9250 O   0  0  0  0  0  1  0  0  0  0  0  0
  194.6910  170.6760  145.7900 C   0  0  1  0  0  3  0  0  0  0  0  0
  194.1120  169.4730  145.4410 F   0  0  0  0  0  0  0  0  0  0  0  0
  196.2080  170.5330  145.8630 C   0  0  1  0  0  3  0  0  0  0  0  0
  195.7030  174.6170  142.9040 N   0  0  0  0  0  2  0  0  0  0  0  0
  197.2560  174.6460  141.2500 N   0  0  0  0  0  2  0  0  0  0  0  0
  196.6250  173.3730  141.2430 C   0  0  1  0  0  3  0  0  0  0  0  0
  195.8470  174.5340  141.5060 N   0  0  0  0  0  0  0  0  0  0  0  0
  196.4580  172.9450  139.8610 N   0  0  0  0  0  2  0  0  0  0  0  0
  193.5600  171.6520  140.1140 C   0  0  0  0  0  2  0  0  0  0  0  0
  194.6920  171.3280  139.1490 C   0  0  0  0  0  2  0  0  0  0  0  0
  194.9290  170.0310  141.5730 C   0  0  0  0  0  2  0  0  0  0  0  0
  196.0950  170.9770  141.2690 C   0  0  0  0  0  2  0  0  0  0  0  0
  193.5700  170.7080  141.3320 C   0  0  0  0  0  2  0  0  0  0  0  0
  196.0630  171.5310  139.8280 C   0  0  0  0  0  3  0  0  0  0  0  0
  183.4820  178.6000  142.9580 C   0  0  0  0  0  2  0  0  0  0  0  0
  182.0300  179.0370  143.0480 C   0  0  0  0  0  2  0  0  0  0  0  0
  181.2440  178.6600  141.7920 C   0  0  0  0  0  2  0  0  0  0  0  0
  179.9720  179.4930  141.6160 C   0  0  1  0  0  3  0  0  0  0  0  0
  178.7020  179.3040  139.5640 O   0  0  0  0  0  1  0  0  0  0  0  0
  179.6650  181.3130  140.0810 O   0  0  0  0  0  1  0  0  0  0  0  0
  179.8050  179.9260  140.1550 C   0  0  0  0  0  3  0  0  0  0  0  0
  178.7350  178.7670  142.1520 C   0  0  0  0  0  2  0  0  0  0  0  0
  177.7560  176.7880  142.0110 C   0  0  0  0  0  1  0  0  0  0  0  0
  178.9810  177.3980  142.2900 O   0  0  0  0  0  0  0  0  0  0  0  0
  1  4  1  0  0  0  0
  2 13  1  1  0  0  0
  2 11  1  0  0  0  0
  4  3  1  1  0  0  0
  4  2  1  0  0  0  0
  5 13  1  6  0  0  0
  5  9  1  0  0  0  0
  5 18  1  0  0  0  0
  7 11  1  0  0  0  0
  7 21  1  1  0  0  0
 10 12  1  1  0  0  0
 10  4  1  0  0  0  0
 11  9  1  1  0  0  0
 14 12  1  6  0  0  0
 14  8  1  0  0  0  0
 14  7  1  0  0  0  0
 15  6  1  1  0  0  0
 15  1  1  0  0  0  0
 15 10  1  0  0  0  0
 16 14  1  0  0  0  0
 16  8  1  0  0  0  0
 17 19  1  0  0  0  0
 18 17  1  6  0  0  0
 18 19  1  0  0  0  0
 21 20  2  0  0  0  0
 22  1  1  0  0  0  0
 23 29  1  0  0  0  0
 23 30  1  1  0  0  0
 25 24  1  6  0  0  0
 25 29  1  0  0  0  0
 26 27  1  6  0  0  0
 26 23  1  0  0  0  0
 26 25  1  0  0  0  0
 27 23  1  0  0  0  0
 28 22  1  1  0  0  0
 28 26  1  0  0  0  0
 28 25  1  0  0  0  0
 29 24  1  6  0  0  0
 31 40  1  1  0  0  0
 31 30  1  0  0  0  0
 31 35  1  0  0  0  0
 33 37  1  0  0  0  0
 34 32  1  0  0  0  0
 35 33  2  0  0  0  0
 35 34  1  0  0  0  0
 37 38  1  6  0  0  0
 37 39  1  0  0  0  0
 39 32  1  0  0  0  0
 39 36  1  1  0  0  0
 41 43  1  0  0  0  0
 42 44  1  6  0  0  0
 42 41  1  0  0  0  0
 42 43  1  0  0  0  0
 43 40  1  0  0  0  0
 45 49  1  0  0  0  0
 46 50  1  0  0  0  0
 46 45  1  0  0  0  0
 48 47  1  0  0  0  0
 49 47  1  0  0  0  0
 50 44  1  0  0  0  0
 50 48  1  0  0  0  0
 51 52  1  0  0  0  0
 51  8  1  0  0  0  0
 53 52  1  0  0  0  0
 54 53  1  6  0  0  0
 54 58  1  0  0  0  0
 55 57  1  0  0  0  0
 56 57  1  0  0  0  0
 57 54  1  0  0  0  0
 58 60  1  0  0  0  0
 59 60  1  0  0  0  0
M  END
>  <MODEL>
5

>  <REMARK>
 VINA RESULT:      -5.6      3.197      8.015
  Name = 
  18 active torsions:
  status: ('A' for Active; 'I' for Inactive)
    1  A    between atoms: N_1  and  C_28
    2  A    between atoms: C_3  and  C_29
    3  A    between atoms: C_3  and  C_38
    4  A    between atoms: C_3  and  C_47
    5  A    between atoms: N_7  and  C_36
    6  A    between atoms: N_7  and  C_53
    7  A    between atoms: C_10  and  C_11
    8  A    between atoms: C_10  and  C_47
    9  A    between atoms: C_11  and  N_25
   10  A    between atoms: C_15  and  N_30
   11  A    between atoms: C_17  and  C_58
   12  A    between atoms: C_20  and  C_35
   13  A    between atoms: C_21  and  C_39
   14  A    between atoms: C_28  and  C_56
   15  A    between atoms: C_29  and  O_51
   16  A    between atoms: N_30  and  C_35
   17  A    between atoms: C_35  and  N_42
   18  A    between atoms: N_42  and  N_55
                            x       y       z     vdW  Elec       q    Type
                         _______ _______ _______ _____ _____    ______ ____

>  <TORSDO>
F 18

$$$$
=
 OpenBabel11042418493D

 60 71  0  0  1  0  0  0  0  0999 V2000
  188.4020  176.1260  141.9830 N   0  0  0  0  0  0  0  0  0  0  0  0
  187.7830  176.7270  144.4400 C   0  0  1  0  0  3  0  0  0  0  0  0
  186.7190  174.7970  143.1690 C   0  0  0  0  0  1  0  0  0  0  0  0
  187.3780  176.1670  143.0520 C   0  0  2  0  0  0  0  0  0  0  0  0
  188.7140  176.1850  146.5360 C   0  0  2  0  0  3  0  0  0  0  0  0
  188.1500  178.3320  140.6980 C   0  0  0  0  0  1  0  0  0  0  0  0
  185.9520  177.9750  145.4760 C   0  0  1  0  0  3  0  0  0  0  0  0
  183.9510  178.3310  143.8880 N   0  0  0  0  0  0  0  0  0  0  0  0
  187.2130  176.2720  146.6670 C   0  0  0  0  0  2  0  0  0  0  0  0
  186.4730  177.1090  142.2560 C   0  0  1  0  0  3  0  0  0  0  0  0
  186.6400  176.6600  145.3700 N   0  0  2  0  0  0  0  0  0  0  0  0
  186.3360  178.5120  142.8660 C   0  0  0  0  0  2  0  0  0  0  0  0
  188.9310  175.9720  145.0710 C   0  0  0  0  0  2  0  0  0  0  0  0
  185.4160  178.4800  144.0940 C   0  0  2  0  0  0  0  0  0  0  0  0
  187.5350  176.9990  141.1640 C   0  0  2  0  0  3  0  0  0  0  0  0
  184.5540  179.6540  144.1430 C   0  0  0  0  0  2  0  0  0  0  0  0
  190.6910  174.7630  146.7940 C   0  0  0  0  0  2  0  0  0  0  0  0
  189.3350  175.0380  147.3170 C   0  0  1  0  0  3  0  0  0  0  0  0
  190.4960  175.4550  147.9980 O   0  0  0  0  0  0  0  0  0  0  0  0
  184.8890  178.6270  147.6390 C   0  0  0  0  0  2  0  0  0  0  0  0
  184.8370  177.9350  146.5050 C   0  0  0  0  0  3  0  0  0  0  0  0
  189.6990  176.7280  142.3170 C   0  0  0  0  0  2  0  0  0  0  0  0
  192.8080  174.4970  143.1310 C   0  0  2  0  0  0  0  0  0  0  0  0
  190.9060  173.4810  141.7950 C   0  0  0  0  0  2  0  0  0  0  0  0
  190.6810  174.5350  142.8690 C   0  0  1  0  0  0  0  0  0  0  0  0
  191.8120  175.6210  143.0470 C   0  0  2  0  0  0  0  0  0  0  0  0
  193.0020  175.5690  142.1740 N   0  0  0  0  0  2  0  0  0  0  0  0
  190.7780  175.7190  141.9750 C   0  0  2  0  0  3  0  0  0  0  0  0
  191.7410  173.4480  143.0230 C   0  0  2  0  0  3  0  0  0  0  0  0
  193.5450  174.6100  144.3790 N   0  0  0  0  0  2  0  0  0  0  0  0
  194.8960  174.1310  144.0950 C   0  0  2  0  0  3  0  0  0  0  0  0
  196.8450  171.3880  146.1050 C   0  0  0  0  0  2  0  0  0  0  0  0
  194.2830  171.9010  144.9690 C   0  0  0  0  0  3  0  0  0  0  0  0
  196.6620  172.6020  145.1960 C   0  0  0  0  0  2  0  0  0  0  0  0
  195.2210  172.8650  144.8440 C   0  0  0  0  0  0  0  0  0  0  0  0
  196.2910  169.0840  146.3440 O   0  0  0  0  0  1  0  0  0  0  0  0
  194.5590  170.5670  145.6170 C   0  0  1  0  0  3  0  0  0  0  0  0
  193.8120  169.5920  144.9880 F   0  0  0  0  0  0  0  0  0  0  0  0
  196.0420  170.2150  145.5660 C   0  0  1  0  0  3  0  0  0  0  0  0
  195.8900  175.1910  144.2740 N   0  0  0  0  0  2  0  0  0  0  0  0
  197.4030  175.8930  142.7350 N   0  0  0  0  0  2  0  0  0  0  0  0
  196.4640  175.0510  142.0810 C   0  0  1  0  0  3  0  0  0  0  0  0
  196.0110  175.9440  143.0910 N   0  0  0  0  0  0  0  0  0  0  0  0
  196.1950  175.5950  140.7570 N   0  0  0  0  0  2  0  0  0  0  0  0
  196.4850  175.3500  137.5960 C   0  0  0  0  0  2  0  0  0  0  0  0
  196.7300  174.3100  138.6820 C   0  0  0  0  0  2  0  0  0  0  0  0
  194.0840  174.4790  137.9170 C   0  0  0  0  0  2  0  0  0  0  0  0
  194.3170  174.8180  139.3940 C   0  0  0  0  0  2  0  0  0  0  0  0
  195.0690  175.2220  137.0010 C   0  0  0  0  0  2  0  0  0  0  0  0
  195.7570  174.5160  139.8620 C   0  0  0  0  0  3  0  0  0  0  0  0
  183.5700  178.3090  142.4770 C   0  0  0  0  0  2  0  0  0  0  0  0
  182.0930  178.6430  142.3550 C   0  0  0  0  0  2  0  0  0  0  0  0
  181.6260  178.6340  140.8990 C   0  0  0  0  0  2  0  0  0  0  0  0
  180.1480  178.2610  140.7520 C   0  0  1  0  0  3  0  0  0  0  0  0
  178.6900  178.9860  142.5430 O   0  0  0  0  0  1  0  0  0  0  0  0
  178.8140  176.7540  142.0610 O   0  0  0  0  0  1  0  0  0  0  0  0
  179.5280  177.9510  142.1200 C   0  0  0  0  0  3  0  0  0  0  0  0
  179.3630  179.3280  139.9860 C   0  0  0  0  0  2  0  0  0  0  0  0
  179.0500  181.5160  139.8880 C   0  0  0  0  0  1  0  0  0  0  0  0
  180.0500  180.5460  139.9800 O   0  0  0  0  0  0  0  0  0  0  0  0
  1 22  1  0  0  0  0
  1  4  1  0  0  0  0
  2 13  1  1  0  0  0
  2 11  1  0  0  0  0
  4  3  1  1  0  0  0
  4  2  1  0  0  0  0
  5 13  1  6  0  0  0
  5  9  1  0  0  0  0
  5 18  1  0  0  0  0
  7 21  1  1  0  0  0
  8 14  1  0  0  0  0
  8 16  1  0  0  0  0
 10 12  1  1  0  0  0
 10  4  1  0  0  0  0
 11  7  1  0  0  0  0
 11  9  1  1  0  0  0
 14 12  1  6  0  0  0
 14 16  1  0  0  0  0
 14  7  1  0  0  0  0
 15  6  1  1  0  0  0
 15  1  1  0  0  0  0
 15 10  1  0  0  0  0
 17 19  1  0  0  0  0
 18 17  1  6  0  0  0
 18 19  1  0  0  0  0
 21 20  2  0  0  0  0
 23 30  1  1  0  0  0
 25 24  1  6  0  0  0
 25 29  1  0  0  0  0
 25 26  1  0  0  0  0
 26 27  1  6  0  0  0
 26 23  1  0  0  0  0
 27 23  1  0  0  0  0
 28 22  1  1  0  0  0
 28 25  1  0  0  0  0
 28 26  1  0  0  0  0
 29 24  1  6  0  0  0
 29 23  1  0  0  0  0
 31 40  1  1  0  0  0
 31 30  1  0  0  0  0
 31 35  1  0  0  0  0
 33 37  1  0  0  0  0
 34 32  1  0  0  0  0
 35 33  2  0  0  0  0
 35 34  1  0  0  0  0
 37 38  1  6  0  0  0
 39 37  1  0  0  0  0
 39 32  1  0  0  0  0
 39 36  1  1  0  0  0
 41 43  1  0  0  0  0
 42 44  1  6  0  0  0
 42 41  1  0  0  0  0
 42 43  1  0  0  0  0
 43 40  1  0  0  0  0
 45 46  1  0  0  0  0
 46 50  1  0  0  0  0
 47 48  1  0  0  0  0
 48 50  1  0  0  0  0
 49 45  1  0  0  0  0
 49 47  1  0  0  0  0
 50 44  1  0  0  0  0
 51  8  1  0  0  0  0
 52 51  1  0  0  0  0
 53 52  1  0  0  0  0
 54 58  1  1  0  0  0
 54 53  1  0  0  0  0
 54 57  1  0  0  0  0
 56 57  1  0  0  0  0
 57 55  1  0  0  0  0
 59 60  1  0  0  0  0
 60 58  1  0  0  0  0
M  END
>  <MODEL>
6

>  <REMARK>
 VINA RESULT:      -5.6      3.291      7.990
  Name = 
  18 active torsions:
  status: ('A' for Active; 'I' for Inactive)
    1  A    between atoms: N_1  and  C_28
    2  A    between atoms: C_3  and  C_29
    3  A    between atoms: C_3  and  C_38
    4  A    between atoms: C_3  and  C_47
    5  A    between atoms: N_7  and  C_36
    6  A    between atoms: N_7  and  C_53
    7  A    between atoms: C_10  and  C_11
    8  A    between atoms: C_10  and  C_47
    9  A    between atoms: C_11  and  N_25
   10  A    between atoms: C_15  and  N_30
   11  A    between atoms: C_17  and  C_58
   12  A    between atoms: C_20  and  C_35
   13  A    between atoms: C_21  and  C_39
   14  A    between atoms: C_28  and  C_56
   15  A    between atoms: C_29  and  O_51
   16  A    between atoms: N_30  and  C_35
   17  A    between atoms: C_35  and  N_42
   18  A    between atoms: N_42  and  N_55
                            x       y       z     vdW  Elec       q    Type
                         _______ _______ _______ _____ _____    ______ ____

>  <TORSDO>
F 18

$$$$
=
 OpenBabel11042418493D

 60 71  0  0  1  0  0  0  0  0999 V2000
  195.5820  174.9530  142.8140 N   0  0  0  0  0  0  0  0  0  0  0  0
  196.2090  172.4260  142.8740 C   0  0  1  0  0  3  0  0  0  0  0  0
  197.9400  174.2890  142.8200 C   0  0  0  0  0  1  0  0  0  0  0  0
  196.5250  173.8780  142.4300 C   0  0  2  0  0  0  0  0  0  0  0  0
  196.4550  170.8480  144.6050 C   0  0  2  0  0  3  0  0  0  0  0  0
  193.9360  175.1620  140.8570 C   0  0  0  0  0  1  0  0  0  0  0  0
  196.8790  170.8000  141.1750 C   0  0  1  0  0  3  0  0  0  0  0  0
  197.6240  171.9010  138.9640 N   0  0  0  0  0  0  0  0  0  0  0  0
  197.4630  170.5560  143.5210 C   0  0  0  0  0  2  0  0  0  0  0  0
  196.3110  174.1180  140.9350 C   0  0  1  0  0  3  0  0  0  0  0  0
  197.2730  171.5110  142.4210 N   0  0  2  0  0  0  0  0  0  0  0  0
  195.6020  172.9640  140.2090 C   0  0  0  0  0  2  0  0  0  0  0  0
  196.0870  172.2790  144.3740 C   0  0  0  0  0  2  0  0  0  0  0  0
  196.5630  171.7850  139.9990 C   0  0  2  0  0  0  0  0  0  0  0  0
  195.3830  175.2460  141.3790 C   0  0  2  0  0  3  0  0  0  0  0  0
  196.3710  171.1690  138.6940 C   0  0  0  0  0  2  0  0  0  0  0  0
  196.2990  169.5660  146.6870 C   0  0  0  0  0  2  0  0  0  0  0  0
  197.0010  170.6820  146.0160 C   0  0  1  0  0  3  0  0  0  0  0  0
  197.5990  169.4180  146.1850 O   0  0  0  0  0  0  0  0  0  0  0  0
  197.6710  168.4850  140.6760 C   0  0  0  0  0  2  0  0  0  0  0  0
  197.9300  169.7870  140.7590 C   0  0  0  0  0  3  0  0  0  0  0  0
  194.3610  174.5160  143.5020 C   0  0  0  0  0  2  0  0  0  0  0  0
  191.8710  176.2820  145.9490 C   0  0  2  0  0  0  0  0  0  0  0  0
  194.3220  176.9280  146.0420 C   0  0  0  0  0  2  0  0  0  0  0  0
  193.8580  175.5220  145.6970 C   0  0  1  0  0  0  0  0  0  0  0  0
  192.4970  175.3950  144.9090 C   0  0  2  0  0  0  0  0  0  0  0  0
  191.7610  176.6220  144.5440 N   0  0  0  0  0  2  0  0  0  0  0  0
  193.7830  175.7180  144.2250 C   0  0  2  0  0  3  0  0  0  0  0  0
  193.1400  176.3660  146.7440 C   0  0  2  0  0  3  0  0  0  0  0  0
  190.7310  175.5950  146.5340 N   0  0  0  0  0  2  0  0  0  0  0  0
  189.7260  175.5060  145.4770 C   0  0  2  0  0  3  0  0  0  0  0  0
  186.6880  177.3540  147.1240 C   0  0  0  0  0  2  0  0  0  0  0  0
  188.2200  177.3140  144.7220 C   0  0  0  0  0  3  0  0  0  0  0  0
  187.7000  176.2300  146.9040 C   0  0  0  0  0  2  0  0  0  0  0  0
  188.5780  176.4560  145.7010 C   0  0  0  0  0  0  0  0  0  0  0  0
  185.0010  178.6400  146.0420 O   0  0  0  0  0  1  0  0  0  0  0  0
  187.0230  178.2270  144.8300 C   0  0  1  0  0  3  0  0  0  0  0  0
  186.4570  178.3860  143.5810 F   0  0  0  0  0  0  0  0  0  0  0  0
  185.9910  177.6840  145.8140 C   0  0  1  0  0  3  0  0  0  0  0  0
  189.3080  174.1210  145.2490 N   0  0  0  0  0  2  0  0  0  0  0  0
  189.4390  172.3690  143.8130 N   0  0  0  0  0  2  0  0  0  0  0  0
  189.4990  173.5690  143.0550 C   0  0  1  0  0  3  0  0  0  0  0  0
  190.1600  173.5070  144.3120 N   0  0  0  0  0  0  0  0  0  0  0  0
  190.4490  173.3830  141.9660 N   0  0  0  0  0  2  0  0  0  0  0  0
  190.9580  173.3920  138.8240 C   0  0  0  0  0  2  0  0  0  0  0  0
  190.8370  172.2210  139.7880 C   0  0  0  0  0  2  0  0  0  0  0  0
  188.3970  173.1400  138.8840 C   0  0  0  0  0  2  0  0  0  0  0  0
  188.5700  173.2560  140.4030 C   0  0  0  0  0  2  0  0  0  0  0  0
  189.6160  173.6930  138.1290 C   0  0  0  0  0  2  0  0  0  0  0  0
  189.8410  172.5480  140.9210 C   0  0  0  0  0  3  0  0  0  0  0  0
  197.5520  173.1500  138.2070 C   0  0  0  0  0  2  0  0  0  0  0  0
  197.9400  172.8780  136.7640 C   0  0  0  0  0  2  0  0  0  0  0  0
  197.0500  173.6430  135.7820 C   0  0  0  0  0  2  0  0  0  0  0  0
  195.5870  173.7020  136.2300 C   0  0  1  0  0  3  0  0  0  0  0  0
  194.3700  175.4090  137.4400 O   0  0  0  0  0  1  0  0  0  0  0  0
  196.1710  176.0300  136.1730 O   0  0  0  0  0  1  0  0  0  0  0  0
  195.0900  175.1520  136.2700 C   0  0  0  0  0  3  0  0  0  0  0  0
  194.6910  172.8040  135.3720 C   0  0  0  0  0  2  0  0  0  0  0  0
  192.5200  172.4130  135.5380 C   0  0  0  0  0  1  0  0  0  0  0  0
  193.7400  172.1480  136.1610 O   0  0  0  0  0  0  0  0  0  0  0  0
  1 22  1  0  0  0  0
  2 13  1  1  0  0  0
  4  1  1  0  0  0  0
  4  3  1  1  0  0  0
  4  2  1  0  0  0  0
  5  9  1  6  0  0  0
  5 18  1  0  0  0  0
  7 21  1  6  0  0  0
  7 11  1  0  0  0  0
  8 14  1  0  0  0  0
 10 12  1  1  0  0  0
 10 15  1  0  0  0  0
 10  4  1  0  0  0  0
 11  2  1  0  0  0  0
 11  9  1  1  0  0  0
 13  5  1  0  0  0  0
 14 16  1  6  0  0  0
 14 12  1  0  0  0  0
 14  7  1  0  0  0  0
 15  6  1  6  0  0  0
 15  1  1  0  0  0  0
 16  8  1  0  0  0  0
 18 19  1  0  0  0  0
 18 17  1  1  0  0  0
 19 17  1  0  0  0  0
 20 21  2  0  0  0  0
 23 30  1  1  0  0  0
 23 29  1  0  0  0  0
 25 24  1  6  0  0  0
 25 29  1  0  0  0  0
 26 27  1  1  0  0  0
 26 25  1  0  0  0  0
 26 23  1  0  0  0  0
 27 23  1  0  0  0  0
 28 22  1  6  0  0  0
 28 26  1  0  0  0  0
 28 25  1  0  0  0  0
 29 24  1  6  0  0  0
 31 40  1  1  0  0  0
 31 35  1  0  0  0  0
 31 30  1  0  0  0  0
 33 37  1  0  0  0  0
 33 35  2  0  0  0  0
 34 32  1  0  0  0  0
 35 34  1  0  0  0  0
 37 38  1  6  0  0  0
 37 39  1  0  0  0  0
 39 36  1  1  0  0  0
 39 32  1  0  0  0  0
 41 43  1  0  0  0  0
 42 44  1  6  0  0  0
 42 41  1  0  0  0  0
 42 43  1  0  0  0  0
 43 40  1  0  0  0  0
 45 46  1  0  0  0  0
 46 50  1  0  0  0  0
 47 48  1  0  0  0  0
 48 50  1  0  0  0  0
 49 45  1  0  0  0  0
 49 47  1  0  0  0  0
 50 44  1  0  0  0  0
 51  8  1  0  0  0  0
 52 51  1  0  0  0  0
 53 54  1  0  0  0  0
 53 52  1  0  0  0  0
 54 58  1  6  0  0  0
 54 57  1  0  0  0  0
 56 57  1  0  0  0  0
 57 55  1  0  0  0  0
 58 60  1  0  0  0  0
 59 60  1  0  0  0  0
M  END
>  <MODEL>
7

>  <REMARK>
 VINA RESULT:      -5.5      3.135      9.841
  Name = 
  18 active torsions:
  status: ('A' for Active; 'I' for Inactive)
    1  A    between atoms: N_1  and  C_28
    2  A    between atoms: C_3  and  C_29
    3  A    between atoms: C_3  and  C_38
    4  A    between atoms: C_3  and  C_47
    5  A    between atoms: N_7  and  C_36
    6  A    between atoms: N_7  and  C_53
    7  A    between atoms: C_10  and  C_11
    8  A    between atoms: C_10  and  C_47
    9  A    between atoms: C_11  and  N_25
   10  A    between atoms: C_15  and  N_30
   11  A    between atoms: C_17  and  C_58
   12  A    between atoms: C_20  and  C_35
   13  A    between atoms: C_21  and  C_39
   14  A    between atoms: C_28  and  C_56
   15  A    between atoms: C_29  and  O_51
   16  A    between atoms: N_30  and  C_35
   17  A    between atoms: C_35  and  N_42
   18  A    between atoms: N_42  and  N_55
                            x       y       z     vdW  Elec       q    Type
                         _______ _______ _______ _____ _____    ______ ____

>  <TORSDO>
F 18

$$$$
=
 OpenBabel11042418493D

 60 71  0  0  1  0  0  0  0  0999 V2000
  191.3800  173.9480  141.6790 N   0  0  0  0  0  0  0  0  0  0  0  0
  192.7080  174.1750  143.9080 C   0  0  1  0  0  3  0  0  0  0  0  0
  192.9410  175.8140  141.9760 C   0  0  0  0  0  1  0  0  0  0  0  0
  192.6150  174.3780  142.3730 C   0  0  2  0  0  0  0  0  0  0  0  0
  192.2200  175.1270  146.0070 C   0  0  2  0  0  3  0  0  0  0  0  0
  191.8220  171.5410  140.9090 C   0  0  0  0  0  1  0  0  0  0  0  0
  194.9780  173.5870  144.6020 C   0  0  1  0  0  3  0  0  0  0  0  0
  196.5540  173.1290  142.6120 N   0  0  0  0  0  0  0  0  0  0  0  0
  193.6840  175.3270  145.7000 C   0  0  0  0  0  2  0  0  0  0  0  0
  193.4930  173.4110  141.5780 C   0  0  1  0  0  3  0  0  0  0  0  0
  193.9950  174.6880  144.4140 N   0  0  2  0  0  0  0  0  0  0  0  0
  194.1020  172.2790  142.4190 C   0  0  0  0  0  2  0  0  0  0  0  0
  191.6050  174.8800  144.6660 C   0  0  0  0  0  2  0  0  0  0  0  0
  195.2620  172.8060  143.2750 C   0  0  2  0  0  0  0  0  0  0  0  0
  192.2000  173.0330  140.8570 C   0  0  2  0  0  3  0  0  0  0  0  0
  196.3610  171.8520  143.3270 C   0  0  0  0  0  2  0  0  0  0  0  0
  191.1200  175.9730  148.0260 C   0  0  0  0  0  2  0  0  0  0  0  0
  191.5570  176.3320  146.6590 C   0  0  1  0  0  3  0  0  0  0  0  0
  192.2670  176.7480  147.8020 O   0  0  0  0  0  0  0  0  0  0  0  0
  196.8270  173.5280  146.2790 C   0  0  0  0  0  2  0  0  0  0  0  0
  196.2700  174.0970  145.2140 C   0  0  0  0  0  3  0  0  0  0  0  0
  190.3850  173.2610  142.5120 C   0  0  0  0  0  2  0  0  0  0  0  0
  187.8420  176.2010  142.0670 C   0  0  2  0  0  0  0  0  0  0  0  0
  187.8910  174.3670  140.3150 C   0  0  0  0  0  2  0  0  0  0  0  0
  189.1360  174.8180  141.0640 C   0  0  1  0  0  0  0  0  0  0  0  0
  188.9360  175.2910  142.5560 C   0  0  2  0  0  0  0  0  0  0  0  0
  187.5810  175.2650  143.1420 N   0  0  0  0  0  2  0  0  0  0  0  0
  189.0260  173.8490  142.1850 C   0  0  2  0  0  3  0  0  0  0  0  0
  188.0570  175.8080  140.6350 C   0  0  2  0  0  3  0  0  0  0  0  0
  188.1480  177.5660  142.4640 N   0  0  0  0  0  2  0  0  0  0  0  0
  186.8680  178.1850  142.8000 C   0  0  2  0  0  3  0  0  0  0  0  0
  187.4280  177.9280  146.6700 C   0  0  0  0  0  2  0  0  0  0  0  0
  185.4140  178.5720  144.7600 C   0  0  0  0  0  3  0  0  0  0  0  0
  187.6910  177.6570  145.1900 C   0  0  0  0  0  2  0  0  0  0  0  0
  186.6330  178.2380  144.2870 C   0  0  0  0  0  0  0  0  0  0  0  0
  185.7740  177.7610  148.3760 O   0  0  0  0  0  1  0  0  0  0  0  0
  185.0710  178.5520  146.2290 C   0  0  1  0  0  3  0  0  0  0  0  0
  183.7500  178.1840  146.3850 F   0  0  0  0  0  0  0  0  0  0  0  0
  185.9810  177.6040  147.0050 C   0  0  1  0  0  3  0  0  0  0  0  0
  185.7650  177.5780  142.0510 N   0  0  0  0  0  2  0  0  0  0  0  0
  184.7760  178.3190  140.1480 N   0  0  0  0  0  2  0  0  0  0  0  0
  183.7540  177.9190  141.0520 C   0  0  1  0  0  3  0  0  0  0  0  0
  184.9090  178.5790  141.5550 N   0  0  0  0  0  0  0  0  0  0  0  0
  182.6410  178.8510  140.9350 N   0  0  0  0  0  2  0  0  0  0  0  0
  179.6340  179.1690  139.9400 C   0  0  0  0  0  2  0  0  0  0  0  0
  180.4060  177.9150  140.3240 C   0  0  0  0  0  2  0  0  0  0  0  0
  179.2920  179.2110  142.4910 C   0  0  0  0  0  2  0  0  0  0  0  0
  180.8210  179.1280  142.5480 C   0  0  0  0  0  2  0  0  0  0  0  0
  178.8000  179.7030  141.1210 C   0  0  0  0  0  2  0  0  0  0  0  0
  181.4170  178.2210  141.4490 C   0  0  0  0  0  3  0  0  0  0  0  0
  196.5600  172.8130  141.1850 C   0  0  0  0  0  2  0  0  0  0  0  0
  197.8620  172.1130  140.8370 C   0  0  0  0  0  2  0  0  0  0  0  0
  197.6590  171.0250  139.7810 C   0  0  0  0  0  2  0  0  0  0  0  0
  196.2020  170.9090  139.3210 C   0  0  1  0  0  3  0  0  0  0  0  0
  195.3360  170.3450  137.1330 O   0  0  0  0  0  1  0  0  0  0  0  0
  195.4540  172.5480  137.7350 O   0  0  0  0  0  1  0  0  0  0  0  0
  196.0670  171.2990  137.8450 C   0  0  0  0  0  3  0  0  0  0  0  0
  195.6200  169.5240  139.6130 C   0  0  0  0  0  2  0  0  0  0  0  0
  194.3070  168.7340  141.2090 C   0  0  0  0  0  1  0  0  0  0  0  0
  195.5720  169.2820  140.9890 O   0  0  0  0  0  0  0  0  0  0  0  0
  1  4  1  0  0  0  0
  1 22  1  0  0  0  0
  2 11  1  0  0  0  0
  2 13  1  1  0  0  0
  4  3  1  6  0  0  0
  4  2  1  0  0  0  0
  5 13  1  6  0  0  0
  5 18  1  0  0  0  0
  7 21  1  6  0  0  0
  8 14  1  0  0  0  0
  8 16  1  0  0  0  0
  9  5  1  0  0  0  0
 10  4  1  0  0  0  0
 10 12  1  1  0  0  0
 11  7  1  0  0  0  0
 11  9  1  1  0  0  0
 14 12  1  6  0  0  0
 14 16  1  0  0  0  0
 14  7  1  0  0  0  0
 15  6  1  1  0  0  0
 15 10  1  0  0  0  0
 15  1  1  0  0  0  0
 18 19  1  0  0  0  0
 18 17  1  1  0  0  0
 19 17  1  0  0  0  0
 21 20  2  0  0  0  0
 23 30  1  1  0  0  0
 23 26  1  0  0  0  0
 23 27  1  0  0  0  0
 25 24  1  1  0  0  0
 25 28  1  0  0  0  0
 25 26  1  0  0  0  0
 26 27  1  6  0  0  0
 28 22  1  1  0  0  0
 28 26  1  0  0  0  0
 29 24  1  1  0  0  0
 29 25  1  0  0  0  0
 29 23  1  0  0  0  0
 30 31  1  0  0  0  0
 31 40  1  6  0  0  0
 31 35  1  0  0  0  0
 32 39  1  0  0  0  0
 33 37  1  0  0  0  0
 34 32  1  0  0  0  0
 35 33  2  0  0  0  0
 35 34  1  0  0  0  0
 37 38  1  6  0  0  0
 37 39  1  0  0  0  0
 39 36  1  1  0  0  0
 41 42  1  0  0  0  0
 41 43  1  0  0  0  0
 42 44  1  6  0  0  0
 42 43  1  0  0  0  0
 43 40  1  0  0  0  0
 44 50  1  0  0  0  0
 45 46  1  0  0  0  0
 45 49  1  0  0  0  0
 46 50  1  0  0  0  0
 47 48  1  0  0  0  0
 49 47  1  0  0  0  0
 50 48  1  0  0  0  0
 51  8  1  0  0  0  0
 52 51  1  0  0  0  0
 53 52  1  0  0  0  0
 54 58  1  6  0  0  0
 54 53  1  0  0  0  0
 55 57  1  0  0  0  0
 56 57  1  0  0  0  0
 57 54  1  0  0  0  0
 58 60  1  0  0  0  0
 60 59  1  0  0  0  0
M  END
>  <MODEL>
8

>  <REMARK>
 VINA RESULT:      -5.5      3.522      9.707
  Name = 
  18 active torsions:
  status: ('A' for Active; 'I' for Inactive)
    1  A    between atoms: N_1  and  C_28
    2  A    between atoms: C_3  and  C_29
    3  A    between atoms: C_3  and  C_38
    4  A    between atoms: C_3  and  C_47
    5  A    between atoms: N_7  and  C_36
    6  A    between atoms: N_7  and  C_53
    7  A    between atoms: C_10  and  C_11
    8  A    between atoms: C_10  and  C_47
    9  A    between atoms: C_11  and  N_25
   10  A    between atoms: C_15  and  N_30
   11  A    between atoms: C_17  and  C_58
   12  A    between atoms: C_20  and  C_35
   13  A    between atoms: C_21  and  C_39
   14  A    between atoms: C_28  and  C_56
   15  A    between atoms: C_29  and  O_51
   16  A    between atoms: N_30  and  C_35
   17  A    between atoms: C_35  and  N_42
   18  A    between atoms: N_42  and  N_55
                            x       y       z     vdW  Elec       q    Type
                         _______ _______ _______ _____ _____    ______ ____

>  <TORSDO>
F 18

$$$$
=
 OpenBabel11042418493D

 60 71  0  0  1  0  0  0  0  0999 V2000
  193.2120  172.1000  141.3720 N   0  0  0  0  0  0  0  0  0  0  0  0
  195.2840  173.5350  140.7150 C   0  0  1  0  0  3  0  0  0  0  0  0
  192.9430  173.9820  139.8260 C   0  0  0  0  0  1  0  0  0  0  0  0
  193.9050  172.9240  140.3550 C   0  0  2  0  0  0  0  0  0  0  0  0
  196.3740  175.3740  141.7050 C   0  0  2  0  0  3  0  0  0  0  0  0
  193.9310  169.6810  140.9080 C   0  0  0  0  0  1  0  0  0  0  0  0
  196.7840  173.5710  138.7840 C   0  0  1  0  0  3  0  0  0  0  0  0
  195.8360  172.3030  136.7480 N   0  0  0  0  0  0  0  0  0  0  0  0
  196.4320  175.5130  140.2040 C   0  0  0  0  0  2  0  0  0  0  0  0
  193.9930  171.7640  139.3620 C   0  0  1  0  0  3  0  0  0  0  0  0
  195.7960  174.3380  139.5890 N   0  0  2  0  0  0  0  0  0  0  0  0
  195.4240  171.2700  139.1000 C   0  0  0  0  0  2  0  0  0  0  0  0
  195.2350  174.4310  141.9320 C   0  0  0  0  0  2  0  0  0  0  0  0
  196.1780  172.2530  138.1940 C   0  0  2  0  0  0  0  0  0  0  0  0
  193.2370  170.9670  140.4220 C   0  0  2  0  0  3  0  0  0  0  0  0
  197.0130  171.5520  137.2280 C   0  0  0  0  0  2  0  0  0  0  0  0
  196.2940  176.4810  143.8890 C   0  0  0  0  0  2  0  0  0  0  0  0
  196.1080  176.6820  142.4350 C   0  0  1  0  0  3  0  0  0  0  0  0
  197.2600  177.1320  143.1090 O   0  0  0  0  0  0  0  0  0  0  0  0
  196.6690  175.3150  137.0000 C   0  0  0  0  0  2  0  0  0  0  0  0
  197.3850  174.4270  137.6830 C   0  0  0  0  0  3  0  0  0  0  0  0
  193.9610  171.8490  142.6090 C   0  0  0  0  0  2  0  0  0  0  0  0
  191.5350  174.2160  144.5630 C   0  0  2  0  0  0  0  0  0  0  0  0
  190.9590  171.7510  144.4130 C   0  0  0  0  0  2  0  0  0  0  0  0
  191.6820  172.4920  143.2990 C   0  0  1  0  0  0  0  0  0  0  0  0
  192.6570  173.6540  143.7340 C   0  0  2  0  0  0  0  0  0  0  0  0
  192.8240  173.9510  145.1710 N   0  0  0  0  0  2  0  0  0  0  0  0
  193.0640  172.2190  143.7740 C   0  0  2  0  0  3  0  0  0  0  0  0
  190.5760  173.1550  144.1140 C   0  0  2  0  0  3  0  0  0  0  0  0
  191.2880  175.5900  144.1560 N   0  0  0  0  0  2  0  0  0  0  0  0
  189.9810  175.9450  144.7050 C   0  0  2  0  0  3  0  0  0  0  0  0
  187.0710  175.7610  142.0860 C   0  0  0  0  0  2  0  0  0  0  0  0
  189.0540  177.5530  143.0730 C   0  0  0  0  0  3  0  0  0  0  0  0
  188.1520  175.2320  143.0280 C   0  0  0  0  0  2  0  0  0  0  0  0
  188.9950  176.3250  143.6310 C   0  0  0  0  0  0  0  0  0  0  0  0
  186.7060  177.1800  140.2090 O   0  0  0  0  0  1  0  0  0  0  0  0
  188.1690  177.9760  141.9270 C   0  0  1  0  0  3  0  0  0  0  0  0
  188.8640  178.8430  141.1090 F   0  0  0  0  0  0  0  0  0  0  0  0
  187.6740  176.7750  141.1270 C   0  0  1  0  0  3  0  0  0  0  0  0
  190.1000  176.9410  145.7730 N   0  0  0  0  0  2  0  0  0  0  0  0
  189.2150  177.7700  147.6910 N   0  0  0  0  0  2  0  0  0  0  0  0
  188.1520  177.5360  146.7770 C   0  0  1  0  0  3  0  0  0  0  0  0
  189.2350  176.6160  146.8350 N   0  0  0  0  0  0  0  0  0  0  0  0
  187.0070  177.0270  147.5190 N   0  0  0  0  0  2  0  0  0  0  0  0
  185.2620  176.8550  144.8630 C   0  0  0  0  0  2  0  0  0  0  0  0
  184.8190  176.9280  146.3170 C   0  0  0  0  0  2  0  0  0  0  0  0
  185.3340  179.4040  145.2130 C   0  0  0  0  0  2  0  0  0  0  0  0
  186.2380  179.0650  146.4040 C   0  0  0  0  0  2  0  0  0  0  0  0
  185.2680  178.2470  144.2030 C   0  0  0  0  0  2  0  0  0  0  0  0
  185.8040  177.7810  147.1440 C   0  0  0  0  0  3  0  0  0  0  0  0
  194.8350  171.3090  136.3610 C   0  0  0  0  0  2  0  0  0  0  0  0
  194.1950  171.7320  135.0510 C   0  0  0  0  0  2  0  0  0  0  0  0
  192.6720  171.6060  135.0950 C   0  0  0  0  0  2  0  0  0  0  0  0
  192.0480  172.3570  136.2740 C   0  0  1  0  0  3  0  0  0  0  0  0
  191.3520  174.6340  136.7140 O   0  0  0  0  0  1  0  0  0  0  0  0
  191.7900  174.0140  134.5560 O   0  0  0  0  0  1  0  0  0  0  0  0
  191.2810  173.5920  135.7850 C   0  0  0  0  0  3  0  0  0  0  0  0
  191.1810  171.4410  137.1420 C   0  0  0  0  0  2  0  0  0  0  0  0
  189.9400  171.7470  138.9470 C   0  0  0  0  0  1  0  0  0  0  0  0
  190.0490  172.1170  137.6060 O   0  0  0  0  0  0  0  0  0  0  0  0
  1 22  1  0  0  0  0
  2 13  1  1  0  0  0
  4  3  1  6  0  0  0
  4  2  1  0  0  0  0
  4  1  1  0  0  0  0
  5  9  1  6  0  0  0
  5 13  1  0  0  0  0
  5 18  1  0  0  0  0
  7 21  1  6  0  0  0
  7 11  1  0  0  0  0
  8 16  1  0  0  0  0
  8 14  1  0  0  0  0
 10 12  1  1  0  0  0
 10  4  1  0  0  0  0
 10 15  1  0  0  0  0
 11  9  1  1  0  0  0
 11  2  1  0  0  0  0
 14 16  1  6  0  0  0
 14  7  1  0  0  0  0
 14 12  1  0  0  0  0
 15  6  1  1  0  0  0
 15  1  1  0  0  0  0
 18 19  1  0  0  0  0
 18 17  1  1  0  0  0
 19 17  1  0  0  0  0
 20 21  2  0  0  0  0
 23 30  1  6  0  0  0
 23 27  1  0  0  0  0
 25 26  1  0  0  0  0
 25 28  1  0  0  0  0
 25 29  1  0  0  0  0
 25 24  1  1  0  0  0
 26 28  1  0  0  0  0
 26 23  1  0  0  0  0
 26 27  1  1  0  0  0
 28 22  1  6  0  0  0
 29 24  1  1  0  0  0
 29 23  1  0  0  0  0
 31 30  1  6  0  0  0
 31 40  1  0  0  0  0
 32 34  1  0  0  0  0
 33 35  2  0  0  0  0
 34 35  1  0  0  0  0
 35 31  1  0  0  0  0
 37 38  1  6  0  0  0
 37 33  1  0  0  0  0
 39 36  1  6  0  0  0
 39 37  1  0  0  0  0
 39 32  1  0  0  0  0
 40 43  1  0  0  0  0
 42 43  1  0  0  0  0
 42 44  1  1  0  0  0
 42 41  1  0  0  0  0
 43 41  1  0  0  0  0
 45 46  1  0  0  0  0
 46 50  1  0  0  0  0
 47 48  1  0  0  0  0
 48 50  1  0  0  0  0
 49 45  1  0  0  0  0
 49 47  1  0  0  0  0
 50 44  1  0  0  0  0
 51  8  1  0  0  0  0
 52 53  1  0  0  0  0
 52 51  1  0  0  0  0
 54 53  1  6  0  0  0
 54 58  1  0  0  0  0
 56 57  1  0  0  0  0
 57 54  1  0  0  0  0
 57 55  1  0  0  0  0
 58 60  1  0  0  0  0
 60 59  1  0  0  0  0
M  END
>  <MODEL>
9

>  <REMARK>
 VINA RESULT:      -5.5      2.898     10.201
  Name = 
  18 active torsions:
  status: ('A' for Active; 'I' for Inactive)
    1  A    between atoms: N_1  and  C_28
    2  A    between atoms: C_3  and  C_29
    3  A    between atoms: C_3  and  C_38
    4  A    between atoms: C_3  and  C_47
    5  A    between atoms: N_7  and  C_36
    6  A    between atoms: N_7  and  C_53
    7  A    between atoms: C_10  and  C_11
    8  A    between atoms: C_10  and  C_47
    9  A    between atoms: C_11  and  N_25
   10  A    between atoms: C_15  and  N_30
   11  A    between atoms: C_17  and  C_58
   12  A    between atoms: C_20  and  C_35
   13  A    between atoms: C_21  and  C_39
   14  A    between atoms: C_28  and  C_56
   15  A    between atoms: C_29  and  O_51
   16  A    between atoms: N_30  and  C_35
   17  A    between atoms: C_35  and  N_42
   18  A    between atoms: N_42  and  N_55
                            x       y       z     vdW  Elec       q    Type
                         _______ _______ _______ _____ _____    ______ ____

>  <TORSDO>
F 18

$$$$
