=
 OpenBabel11042416293D

 29 33  0  0  1  0  0  0  0  0999 V2000
  191.6580  177.4610  144.2580 C   0  0  0  0  0  1  0  0  0  0  0  0
  191.4210  174.9630  146.0460 C   0  0  0  0  0  2  0  0  0  0  0  0
  190.3490  176.9140  147.1690 C   0  0  0  0  0  0  0  0  0  0  0  0
  190.5440  175.2520  144.8320 C   0  0  1  0  0  3  0  0  0  0  0  0
  190.3560  176.7670  144.6350 C   0  0  1  0  0  3  0  0  0  0  0  0
  189.7530  177.4300  145.8820 C   0  0  1  0  0  3  0  0  0  0  0  0
  190.7340  175.4690  147.3100 C   0  0  0  0  0  2  0  0  0  0  0  0
  190.4590  177.6630  148.1250 O   0  0  0  0  0  0  0  0  0  0  0  0
  190.3150  174.3280  142.4790 C   0  0  0  0  0  0  0  0  0  0  0  0
  188.8310  172.6970  138.5390 C   0  0  0  0  0  2  0  0  0  0  0  0
  188.8780  174.6960  142.4710 C   0  0  0  0  0  3  0  0  0  0  0  0
  189.1590  173.0660  139.9370 C   0  0  0  0  0  0  0  0  0  0  0  0
  190.9320  173.8360  141.4390 N   0  0  0  0  0  0  0  0  0  0  0  0
  187.9220  174.0490  141.8090 C   0  0  0  0  0  3  0  0  0  0  0  0
  191.0990  174.6270  143.6390 N   0  0  0  0  0  2  0  0  0  0  0  0
  191.2800  173.5090  138.9580 C   0  0  0  0  0  2  0  0  0  0  0  0
  190.3970  173.5000  140.1470 C   0  0  0  0  0  0  0  0  0  0  0  0
  188.1850  172.8070  141.0320 C   0  0  0  0  0  2  0  0  0  0  0  0
  190.2390  173.1930  137.4980 S   0  0  0  0  0  0  0  0  0  0  0  0
  186.0430  177.4670  145.3900 C   0  0  0  0  0  0  0  0  0  0  0  0
  187.5100  177.0140  146.9340 C   0  0  0  0  0  3  0  0  0  0  0  0
  184.9160  178.0830  143.4090 C   0  0  0  0  0  0  0  0  0  0  0  0
  186.2510  178.3330  142.7070 C   0  0  0  0  0  2  0  0  0  0  0  0
  183.7130  178.2960  142.6810 N   0  0  0  0  0  1  0  0  0  0  0  0
  187.3270  177.6770  144.8130 C   0  0  0  0  0  0  0  0  0  0  0  0
  188.2560  177.3570  145.8800 C   0  0  0  0  0  0  0  0  0  0  0  0
  186.1090  177.0810  146.6200 N   0  0  0  0  0  0  0  0  0  0  0  0
  187.4810  178.0810  143.5600 C   0  0  0  0  0  3  0  0  0  0  0  0
  184.8450  177.6840  144.6500 N   0  0  0  0  0  0  0  0  0  0  0  0
  2  7  1  0  0  0  0
  3  7  1  0  0  0  0
  3  8  2  0  0  0  0
  4 15  1  6  0  0  0
  4  2  1  0  0  0  0
  5  1  1  1  0  0  0
  5  4  1  0  0  0  0
  5  6  1  0  0  0  0
  6 26  1  1  0  0  0
  6  3  1  0  0  0  0
  9 15  1  0  0  0  0
 10 12  1  0  0  0  0
 11  9  1  0  0  0  0
 12 17  2  0  0  0  0
 12 18  1  0  0  0  0
 13  9  2  0  0  0  0
 14 11  2  0  0  0  0
 16 17  1  0  0  0  0
 17 13  1  0  0  0  0
 18 14  1  0  0  0  0
 19 10  1  0  0  0  0
 19 16  1  0  0  0  0
 20 27  2  0  0  0  0
 22 29  2  0  0  0  0
 23 22  1  0  0  0  0
 23 28  1  0  0  0  0
 24 22  1  0  0  0  0
 25 20  1  0  0  0  0
 25 26  1  0  0  0  0
 26 21  2  0  0  0  0
 27 21  1  0  0  0  0
 28 25  2  0  0  0  0
 29 20  1  0  0  0  0
M  END
>  <MODEL>
1

>  <REMARK>
 VINA RESULT:      -8.2      0.000      0.000
  Name = 
  2 active torsions:
  status: ('A' for Active; 'I' for Inactive)
    1  A    between atoms: C_14  and  N_23
    2  A    between atoms: C_15  and  C_19
                            x       y       z     vdW  Elec       q    Type
                         _______ _______ _______ _____ _____    ______ ____

>  <TORSDO>
F 2

$$$$
=
 OpenBabel11042416293D

 29 33  0  0  1  0  0  0  0  0999 V2000
  191.5290  177.9170  143.8880 C   0  0  0  0  0  1  0  0  0  0  0  0
  191.4870  175.1670  145.2750 C   0  0  0  0  0  2  0  0  0  0  0  0
  190.3120  176.8490  146.6920 C   0  0  0  0  0  0  0  0  0  0  0  0
  190.5700  175.5780  144.1270 C   0  0  1  0  0  3  0  0  0  0  0  0
  190.2810  177.0900  144.1660 C   0  0  1  0  0  3  0  0  0  0  0  0
  189.6610  177.5140  145.5050 C   0  0  1  0  0  3  0  0  0  0  0  0
  190.7920  175.4280  146.6080 C   0  0  0  0  0  2  0  0  0  0  0  0
  190.3920  177.4490  147.7510 O   0  0  0  0  0  0  0  0  0  0  0  0
  190.7050  174.0240  142.1250 C   0  0  0  0  0  0  0  0  0  0  0  0
  190.3790  170.5780  139.2250 C   0  0  0  0  0  2  0  0  0  0  0  0
  189.6010  173.2040  142.6820 C   0  0  0  0  0  3  0  0  0  0  0  0
  190.5510  171.5330  140.3450 C   0  0  0  0  0  0  0  0  0  0  0  0
  191.2350  173.8040  140.9530 N   0  0  0  0  0  0  0  0  0  0  0  0
  189.4470  171.8950  142.5030 C   0  0  0  0  0  3  0  0  0  0  0  0
  191.1410  175.1800  142.8480 N   0  0  0  0  0  2  0  0  0  0  0  0
  191.1900  172.9750  138.5660 C   0  0  0  0  0  2  0  0  0  0  0  0
  190.9420  172.7570  140.0110 C   0  0  0  0  0  0  0  0  0  0  0  0
  190.4340  171.0680  141.7550 C   0  0  0  0  0  2  0  0  0  0  0  0
  190.5620  171.5170  137.6760 S   0  0  0  0  0  0  0  0  0  0  0  0
  185.9500  177.3610  145.0450 C   0  0  0  0  0  0  0  0  0  0  0  0
  187.4650  176.8360  146.5180 C   0  0  0  0  0  3  0  0  0  0  0  0
  184.7580  178.1170  143.1530 C   0  0  0  0  0  0  0  0  0  0  0  0
  186.0640  178.5300  142.4740 C   0  0  0  0  0  2  0  0  0  0  0  0
  183.5330  178.3290  142.4610 N   0  0  0  0  0  1  0  0  0  0  0  0
  187.2090  177.7170  144.4860 C   0  0  0  0  0  0  0  0  0  0  0  0
  188.1720  177.3430  145.5050 C   0  0  0  0  0  0  0  0  0  0  0  0
  186.0580  176.8450  146.2230 N   0  0  0  0  0  0  0  0  0  0  0  0
  187.3190  178.2670  143.2850 C   0  0  0  0  0  3  0  0  0  0  0  0
  184.7300  177.5780  144.3420 N   0  0  0  0  0  0  0  0  0  0  0  0
  2  7  1  0  0  0  0
  3  8  2  0  0  0  0
  4 15  1  6  0  0  0
  4  5  1  0  0  0  0
  4  2  1  0  0  0  0
  5  1  1  1  0  0  0
  5  6  1  0  0  0  0
  6 26  1  6  0  0  0
  6  3  1  0  0  0  0
  7  3  1  0  0  0  0
  9 11  1  0  0  0  0
  9 15  1  0  0  0  0
 10 12  1  0  0  0  0
 12 18  1  0  0  0  0
 13  9  2  0  0  0  0
 14 11  2  0  0  0  0
 16 17  1  0  0  0  0
 17 12  2  0  0  0  0
 17 13  1  0  0  0  0
 18 14  1  0  0  0  0
 19 16  1  0  0  0  0
 19 10  1  0  0  0  0
 20 27  2  0  0  0  0
 22 29  2  0  0  0  0
 23 22  1  0  0  0  0
 23 28  1  0  0  0  0
 24 22  1  0  0  0  0
 25 20  1  0  0  0  0
 25 26  1  0  0  0  0
 26 21  2  0  0  0  0
 27 21  1  0  0  0  0
 28 25  2  0  0  0  0
 29 20  1  0  0  0  0
M  END
>  <MODEL>
2

>  <REMARK>
 VINA RESULT:      -7.7      1.122      1.188
  Name = 
  2 active torsions:
  status: ('A' for Active; 'I' for Inactive)
    1  A    between atoms: C_14  and  N_23
    2  A    between atoms: C_15  and  C_19
                            x       y       z     vdW  Elec       q    Type
                         _______ _______ _______ _____ _____    ______ ____

>  <TORSDO>
F 2

$$$$
=
 OpenBabel11042416293D

 29 33  0  0  1  0  0  0  0  0999 V2000
  188.1610  175.7140  147.1390 C   0  0  0  0  0  1  0  0  0  0  0  0
  190.1470  177.4910  145.5930 C   0  0  0  0  0  2  0  0  0  0  0  0
  191.2610  175.3670  146.2730 C   0  0  0  0  0  0  0  0  0  0  0  0
  189.0530  176.6450  144.9510 C   0  0  1  0  0  3  0  0  0  0  0  0
  188.7710  175.3810  145.7840 C   0  0  1  0  0  3  0  0  0  0  0  0
  190.0380  174.5360  145.9760 C   0  0  1  0  0  3  0  0  0  0  0  0
  191.4550  176.7070  145.6220 C   0  0  0  0  0  2  0  0  0  0  0  0
  192.1330  174.9200  146.9990 O   0  0  0  0  0  0  0  0  0  0  0  0
  187.0460  177.3600  143.5700 C   0  0  0  0  0  0  0  0  0  0  0  0
  184.0490  178.1660  140.2900 C   0  0  0  0  0  2  0  0  0  0  0  0
  187.4460  176.4190  142.4950 C   0  0  0  0  0  3  0  0  0  0  0  0
  185.2040  177.9860  141.2020 C   0  0  0  0  0  0  0  0  0  0  0  0
  185.9420  178.0550  143.5350 N   0  0  0  0  0  0  0  0  0  0  0  0
  187.2200  176.5930  141.1950 C   0  0  0  0  0  3  0  0  0  0  0  0
  187.8430  177.4330  144.7570 N   0  0  0  0  0  2  0  0  0  0  0  0
  183.5490  178.4710  142.8380 C   0  0  0  0  0  2  0  0  0  0  0  0
  184.9480  178.1190  142.4980 C   0  0  0  0  0  0  0  0  0  0  0  0
  186.5780  177.8210  140.6520 C   0  0  0  0  0  2  0  0  0  0  0  0
  182.5560  178.3010  141.3220 S   0  0  0  0  0  0  0  0  0  0  0  0
  190.7710  172.6130  142.8500 C   0  0  0  0  0  0  0  0  0  0  0  0
  189.8310  172.3290  144.7930 C   0  0  0  0  0  3  0  0  0  0  0  0
  191.8700  173.4510  140.9370 C   0  0  0  0  0  0  0  0  0  0  0  0
  192.0460  174.8120  141.6120 C   0  0  0  0  0  2  0  0  0  0  0  0
  192.3720  173.2760  139.6170 N   0  0  0  0  0  1  0  0  0  0  0  0
  190.8920  173.8460  143.5500 C   0  0  0  0  0  0  0  0  0  0  0  0
  190.2560  173.5950  144.8300 C   0  0  0  0  0  0  0  0  0  0  0  0
  190.1620  171.7080  143.5400 N   0  0  0  0  0  0  0  0  0  0  0  0
  191.4810  174.9070  143.0170 C   0  0  0  0  0  3  0  0  0  0  0  0
  191.2780  172.4500  141.5290 N   0  0  0  0  0  0  0  0  0  0  0  0
  2  7  1  0  0  0  0
  3  8  2  0  0  0  0
  4 15  1  1  0  0  0
  4  2  1  0  0  0  0
  4  5  1  0  0  0  0
  5  6  1  0  0  0  0
  5  1  1  1  0  0  0
  6 26  1  6  0  0  0
  6  3  1  0  0  0  0
  7  3  1  0  0  0  0
  9 15  1  0  0  0  0
 10 12  1  0  0  0  0
 10 19  1  0  0  0  0
 11  9  1  0  0  0  0
 12 17  2  0  0  0  0
 13  9  2  0  0  0  0
 14 11  2  0  0  0  0
 17 16  1  0  0  0  0
 17 13  1  0  0  0  0
 18 14  1  0  0  0  0
 18 12  1  0  0  0  0
 19 16  1  0  0  0  0
 20 27  2  0  0  0  0
 20 25  1  0  0  0  0
 21 26  2  0  0  0  0
 22 29  2  0  0  0  0
 22 23  1  0  0  0  0
 23 28  1  0  0  0  0
 24 22  1  0  0  0  0
 25 26  1  0  0  0  0
 27 21  1  0  0  0  0
 28 25  2  0  0  0  0
 29 20  1  0  0  0  0
M  END
>  <MODEL>
3

>  <REMARK>
 VINA RESULT:      -7.5      2.729      6.093
  Name = 
  2 active torsions:
  status: ('A' for Active; 'I' for Inactive)
    1  A    between atoms: C_14  and  N_23
    2  A    between atoms: C_15  and  C_19
                            x       y       z     vdW  Elec       q    Type
                         _______ _______ _______ _____ _____    ______ ____

>  <TORSDO>
F 2

$$$$
=
 OpenBabel11042416293D

 29 33  0  0  1  0  0  0  0  0999 V2000
  193.8580  176.7330  146.8790 C   0  0  0  0  0  1  0  0  0  0  0  0
  192.6630  176.8640  144.0420 C   0  0  0  0  0  2  0  0  0  0  0  0
  194.7280  175.4670  144.0290 C   0  0  0  0  0  0  0  0  0  0  0  0
  192.1400  175.9780  145.1680 C   0  0  1  0  0  3  0  0  0  0  0  0
  193.2800  175.5520  146.1110 C   0  0  1  0  0  3  0  0  0  0  0  0
  194.3990  174.8240  145.3540 C   0  0  1  0  0  3  0  0  0  0  0  0
  193.6480  176.0770  143.1830 C   0  0  0  0  0  2  0  0  0  0  0  0
  195.8730  175.4350  143.6110 O   0  0  0  0  0  0  0  0  0  0  0  0
  189.7200  176.6990  145.4310 C   0  0  0  0  0  0  0  0  0  0  0  0
  185.3660  177.7300  144.8230 C   0  0  0  0  0  2  0  0  0  0  0  0
  189.3730  176.0070  144.1650 C   0  0  0  0  0  3  0  0  0  0  0  0
  186.8340  177.5210  144.8100 C   0  0  0  0  0  0  0  0  0  0  0  0
  188.8320  177.2650  146.2020 N   0  0  0  0  0  0  0  0  0  0  0  0
  188.4110  176.3780  143.3240 C   0  0  0  0  0  3  0  0  0  0  0  0
  191.0730  176.6520  145.8960 N   0  0  0  0  0  2  0  0  0  0  0  0
  186.5110  177.5330  147.1660 C   0  0  0  0  0  2  0  0  0  0  0  0
  187.4140  177.3990  145.9980 C   0  0  0  0  0  0  0  0  0  0  0  0
  187.5940  177.6050  143.5320 C   0  0  0  0  0  2  0  0  0  0  0  0
  184.8010  177.5210  146.5410 S   0  0  0  0  0  0  0  0  0  0  0  0
  194.2100  171.0940  145.1160 C   0  0  0  0  0  0  0  0  0  0  0  0
  192.9550  172.8450  144.7990 C   0  0  0  0  0  3  0  0  0  0  0  0
  195.9630  169.5870  145.5940 C   0  0  0  0  0  0  0  0  0  0  0  0
  196.8840  170.7490  145.9660 C   0  0  0  0  0  2  0  0  0  0  0  0
  196.4710  168.2610  145.6780 N   0  0  0  0  0  1  0  0  0  0  0  0
  195.0000  172.2310  145.4430 C   0  0  0  0  0  0  0  0  0  0  0  0
  194.1150  173.3590  145.2170 C   0  0  0  0  0  0  0  0  0  0  0  0
  193.0170  171.4100  144.7400 N   0  0  0  0  0  0  0  0  0  0  0  0
  196.2580  172.1260  145.8470 C   0  0  0  0  0  3  0  0  0  0  0  0
  194.7300  169.7710  145.2040 N   0  0  0  0  0  0  0  0  0  0  0  0
  2  4  1  0  0  0  0
  3  6  1  0  0  0  0
  4 15  1  1  0  0  0
  4  5  1  0  0  0  0
  5  1  1  6  0  0  0
  6 26  1  6  0  0  0
  6  5  1  0  0  0  0
  7  3  1  0  0  0  0
  7  2  1  0  0  0  0
  8  3  2  0  0  0  0
  9 15  1  0  0  0  0
  9 13  2  0  0  0  0
 10 19  1  0  0  0  0
 11  9  1  0  0  0  0
 12 10  1  0  0  0  0
 12 17  2  0  0  0  0
 14 18  1  0  0  0  0
 14 11  2  0  0  0  0
 17 13  1  0  0  0  0
 17 16  1  0  0  0  0
 18 12  1  0  0  0  0
 19 16  1  0  0  0  0
 20 29  1  0  0  0  0
 20 25  1  0  0  0  0
 21 26  2  0  0  0  0
 22 24  1  0  0  0  0
 22 23  1  0  0  0  0
 25 28  2  0  0  0  0
 26 25  1  0  0  0  0
 27 21  1  0  0  0  0
 27 20  2  0  0  0  0
 28 23  1  0  0  0  0
 29 22  2  0  0  0  0
M  END
>  <MODEL>
4

>  <REMARK>
 VINA RESULT:      -7.5      4.466      8.338
  Name = 
  2 active torsions:
  status: ('A' for Active; 'I' for Inactive)
    1  A    between atoms: C_14  and  N_23
    2  A    between atoms: C_15  and  C_19
                            x       y       z     vdW  Elec       q    Type
                         _______ _______ _______ _____ _____    ______ ____

>  <TORSDO>
F 2

$$$$
=
 OpenBabel11042416293D

 29 33  0  0  1  0  0  0  0  0999 V2000
  189.6550  177.4710  146.7580 C   0  0  0  0  0  1  0  0  0  0  0  0
  190.6600  178.1790  143.9320 C   0  0  0  0  0  2  0  0  0  0  0  0
  192.2240  176.5630  145.0080 C   0  0  0  0  0  0  0  0  0  0  0  0
  189.5300  177.1990  144.2360 C   0  0  1  0  0  3  0  0  0  0  0  0
  189.7540  176.5000  145.5890 C   0  0  1  0  0  3  0  0  0  0  0  0
  191.1030  175.7680  145.6310 C   0  0  1  0  0  3  0  0  0  0  0  0
  191.9770  177.4210  143.8010 C   0  0  0  0  0  2  0  0  0  0  0  0
  193.3560  176.4590  145.4500 O   0  0  0  0  0  0  0  0  0  0  0  0
  187.2920  177.6860  143.1400 C   0  0  0  0  0  0  0  0  0  0  0  0
  183.8000  178.1010  140.3080 C   0  0  0  0  0  2  0  0  0  0  0  0
  187.6170  176.7360  142.0480 C   0  0  0  0  0  3  0  0  0  0  0  0
  185.0850  178.0560  141.0470 C   0  0  0  0  0  0  0  0  0  0  0  0
  186.1380  178.2860  143.2450 N   0  0  0  0  0  0  0  0  0  0  0  0
  187.1930  176.8340  140.7910 C   0  0  0  0  0  3  0  0  0  0  0  0
  188.2410  177.8760  144.1960 N   0  0  0  0  0  2  0  0  0  0  0  0
  183.6430  178.4730  142.8910 C   0  0  0  0  0  2  0  0  0  0  0  0
  185.0050  178.2230  142.3620 C   0  0  0  0  0  0  0  0  0  0  0  0
  186.3760  177.9810  140.3080 C   0  0  0  0  0  2  0  0  0  0  0  0
  182.4630  178.1570  141.5420 S   0  0  0  0  0  0  0  0  0  0  0  0
  191.3750  172.2750  144.3150 C   0  0  0  0  0  0  0  0  0  0  0  0
  189.9260  173.8960  144.4400 C   0  0  0  0  0  3  0  0  0  0  0  0
  193.2830  170.8920  144.4460 C   0  0  0  0  0  0  0  0  0  0  0  0
  194.0460  171.9860  145.1940 C   0  0  0  0  0  2  0  0  0  0  0  0
  193.9460  169.6630  144.1750 N   0  0  0  0  0  1  0  0  0  0  0  0
  192.0120  173.3440  145.0050 C   0  0  0  0  0  0  0  0  0  0  0  0
  191.0030  174.3860  145.0610 C   0  0  0  0  0  0  0  0  0  0  0  0
  190.1630  172.5570  143.9730 N   0  0  0  0  0  0  0  0  0  0  0  0
  193.2620  173.2610  145.4390 C   0  0  0  0  0  3  0  0  0  0  0  0
  192.0490  171.0490  144.0500 N   0  0  0  0  0  0  0  0  0  0  0  0
  2  4  1  0  0  0  0
  3  8  2  0  0  0  0
  3  6  1  0  0  0  0
  4 15  1  1  0  0  0
  4  5  1  0  0  0  0
  5  6  1  0  0  0  0
  5  1  1  1  0  0  0
  6 26  1  6  0  0  0
  7  2  1  0  0  0  0
  7  3  1  0  0  0  0
  9 13  2  0  0  0  0
  9 15  1  0  0  0  0
 10 12  1  0  0  0  0
 10 19  1  0  0  0  0
 11  9  1  0  0  0  0
 12 17  2  0  0  0  0
 14 11  2  0  0  0  0
 17 16  1  0  0  0  0
 17 13  1  0  0  0  0
 18 14  1  0  0  0  0
 18 12  1  0  0  0  0
 19 16  1  0  0  0  0
 20 25  1  0  0  0  0
 21 26  2  0  0  0  0
 22 23  1  0  0  0  0
 23 28  1  0  0  0  0
 24 22  1  0  0  0  0
 25 26  1  0  0  0  0
 25 28  2  0  0  0  0
 27 20  2  0  0  0  0
 27 21  1  0  0  0  0
 29 20  1  0  0  0  0
 29 22  2  0  0  0  0
M  END
>  <MODEL>
5

>  <REMARK>
 VINA RESULT:      -7.5      3.257      6.737
  Name = 
  2 active torsions:
  status: ('A' for Active; 'I' for Inactive)
    1  A    between atoms: C_14  and  N_23
    2  A    between atoms: C_15  and  C_19
                            x       y       z     vdW  Elec       q    Type
                         _______ _______ _______ _____ _____    ______ ____

>  <TORSDO>
F 2

$$$$
=
 OpenBabel11042416293D

 29 33  0  0  1  0  0  0  0  0999 V2000
  189.8730  174.3310  141.5410 C   0  0  0  0  0  1  0  0  0  0  0  0
  191.9780  176.2700  142.6810 C   0  0  0  0  0  2  0  0  0  0  0  0
  189.7270  177.3410  142.7240 C   0  0  0  0  0  0  0  0  0  0  0  0
  191.3700  175.0960  143.4430 C   0  0  1  0  0  3  0  0  0  0  0  0
  189.9270  174.8250  142.9800 C   0  0  1  0  0  3  0  0  0  0  0  0
  189.0380  176.0650  143.1400 C   0  0  1  0  0  3  0  0  0  0  0  0
  191.1930  177.5420  142.9840 C   0  0  0  0  0  2  0  0  0  0  0  0
  189.0750  178.2450  142.2280 O   0  0  0  0  0  0  0  0  0  0  0  0
  193.2810  173.6050  144.1980 C   0  0  0  0  0  0  0  0  0  0  0  0
  196.9740  171.8500  146.1140 C   0  0  0  0  0  2  0  0  0  0  0  0
  193.5490  174.5180  145.3360 C   0  0  0  0  0  3  0  0  0  0  0  0
  195.9080  172.6260  145.4370 C   0  0  0  0  0  0  0  0  0  0  0  0
  193.9130  172.4760  144.0250 N   0  0  0  0  0  0  0  0  0  0  0  0
  194.7410  174.7330  145.8870 C   0  0  0  0  0  3  0  0  0  0  0  0
  192.2040  173.9090  143.3060 N   0  0  0  0  0  2  0  0  0  0  0  0
  195.1820  170.4450  144.8300 C   0  0  0  0  0  2  0  0  0  0  0  0
  194.9850  171.9130  144.8020 C   0  0  0  0  0  0  0  0  0  0  0  0
  195.9880  174.1110  145.3640 C   0  0  0  0  0  2  0  0  0  0  0  0
  196.5100  170.0920  146.0230 S   0  0  0  0  0  0  0  0  0  0  0  0
  187.2560  176.6590  146.3770 C   0  0  0  0  0  0  0  0  0  0  0  0
  188.9770  175.5740  145.6030 C   0  0  0  0  0  3  0  0  0  0  0  0
  185.3370  178.0020  146.6740 C   0  0  0  0  0  0  0  0  0  0  0  0
  185.3080  178.3220  145.1790 C   0  0  0  0  0  2  0  0  0  0  0  0
  184.3360  178.5680  147.5110 N   0  0  0  0  0  1  0  0  0  0  0  0
  187.3020  176.9060  144.9770 C   0  0  0  0  0  0  0  0  0  0  0  0
  188.4590  176.1580  144.5200 C   0  0  0  0  0  0  0  0  0  0  0  0
  188.2110  175.8890  146.7780 N   0  0  0  0  0  0  0  0  0  0  0  0
  186.4130  177.6760  144.3650 C   0  0  0  0  0  3  0  0  0  0  0  0
  186.2470  177.2310  147.2050 N   0  0  0  0  0  0  0  0  0  0  0  0
  2  7  1  0  0  0  0
  2  4  1  0  0  0  0
  3  7  1  0  0  0  0
  3  6  1  0  0  0  0
  4 15  1  6  0  0  0
  5  1  1  6  0  0  0
  5  6  1  0  0  0  0
  5  4  1  0  0  0  0
  6 26  1  1  0  0  0
  8  3  2  0  0  0  0
  9 11  1  0  0  0  0
 11 14  2  0  0  0  0
 12 10  1  0  0  0  0
 13  9  2  0  0  0  0
 13 17  1  0  0  0  0
 15  9  1  0  0  0  0
 16 19  1  0  0  0  0
 17 16  1  0  0  0  0
 17 12  2  0  0  0  0
 18 12  1  0  0  0  0
 18 14  1  0  0  0  0
 19 10  1  0  0  0  0
 20 27  2  0  0  0  0
 20 29  1  0  0  0  0
 21 27  1  0  0  0  0
 22 29  2  0  0  0  0
 22 24  1  0  0  0  0
 23 22  1  0  0  0  0
 25 20  1  0  0  0  0
 26 25  1  0  0  0  0
 26 21  2  0  0  0  0
 28 25  2  0  0  0  0
 28 23  1  0  0  0  0
M  END
>  <MODEL>
6

>  <REMARK>
 VINA RESULT:      -7.4      3.658      5.374
  Name = 
  2 active torsions:
  status: ('A' for Active; 'I' for Inactive)
    1  A    between atoms: C_14  and  N_23
    2  A    between atoms: C_15  and  C_19
                            x       y       z     vdW  Elec       q    Type
                         _______ _______ _______ _____ _____    ______ ____

>  <TORSDO>
F 2

$$$$
=
 OpenBabel11042416293D

 29 33  0  0  1  0  0  0  0  0999 V2000
  192.3340  175.1470  146.9090 C   0  0  0  0  0  1  0  0  0  0  0  0
  192.3290  176.8880  144.3670 C   0  0  0  0  0  2  0  0  0  0  0  0
  193.6590  174.8160  143.9730 C   0  0  0  0  0  0  0  0  0  0  0  0
  191.1760  175.9940  144.8130 C   0  0  1  0  0  3  0  0  0  0  0  0
  191.6960  174.7650  145.5800 C   0  0  1  0  0  3  0  0  0  0  0  0
  192.6890  173.9510  144.7390 C   0  0  1  0  0  3  0  0  0  0  0  0
  193.2200  176.1290  143.3890 C   0  0  0  0  0  2  0  0  0  0  0  0
  194.7940  174.4170  143.7710 O   0  0  0  0  0  0  0  0  0  0  0  0
  188.8680  176.9790  145.1980 C   0  0  0  0  0  0  0  0  0  0  0  0
  184.6510  178.5420  144.7990 C   0  0  0  0  0  2  0  0  0  0  0  0
  188.4020  176.3960  143.9160 C   0  0  0  0  0  3  0  0  0  0  0  0
  186.0820  178.1640  144.7220 C   0  0  0  0  0  0  0  0  0  0  0  0
  188.0780  177.6070  146.0260 N   0  0  0  0  0  0  0  0  0  0  0  0
  187.4650  176.9180  143.1280 C   0  0  0  0  0  3  0  0  0  0  0  0
  190.2200  176.7510  145.6100 N   0  0  0  0  0  2  0  0  0  0  0  0
  185.8370  178.0970  147.0860 C   0  0  0  0  0  2  0  0  0  0  0  0
  186.6810  177.9160  145.8810 C   0  0  0  0  0  0  0  0  0  0  0  0
  186.8060  178.2200  143.4220 C   0  0  0  0  0  2  0  0  0  0  0  0
  184.1190  178.3160  146.5250 S   0  0  0  0  0  0  0  0  0  0  0  0
  190.7020  171.9120  142.3100 C   0  0  0  0  0  0  0  0  0  0  0  0
  192.0460  171.6380  144.0000 C   0  0  0  0  0  3  0  0  0  0  0  0
  189.3320  172.7630  140.5850 C   0  0  0  0  0  0  0  0  0  0  0  0
  189.7020  174.1940  140.9730 C   0  0  0  0  0  2  0  0  0  0  0  0
  188.4390  172.5620  139.4970 N   0  0  0  0  0  1  0  0  0  0  0  0
  191.0970  173.2110  142.7360 C   0  0  0  0  0  0  0  0  0  0  0  0
  191.9890  172.9640  143.8540 C   0  0  0  0  0  0  0  0  0  0  0  0
  191.2330  170.9730  143.0180 N   0  0  0  0  0  0  0  0  0  0  0  0
  190.6590  174.3130  142.1450 C   0  0  0  0  0  3  0  0  0  0  0  0
  189.8060  171.7230  141.2180 N   0  0  0  0  0  0  0  0  0  0  0  0
  2  4  1  0  0  0  0
  3  6  1  0  0  0  0
  4  5  1  0  0  0  0
  4 15  1  1  0  0  0
  5  1  1  1  0  0  0
  6 26  1  6  0  0  0
  6  5  1  0  0  0  0
  7  3  1  0  0  0  0
  7  2  1  0  0  0  0
  8  3  2  0  0  0  0
  9 15  1  0  0  0  0
  9 13  2  0  0  0  0
 10 19  1  0  0  0  0
 11  9  1  0  0  0  0
 12 10  1  0  0  0  0
 12 17  2  0  0  0  0
 14 18  1  0  0  0  0
 14 11  2  0  0  0  0
 17 13  1  0  0  0  0
 17 16  1  0  0  0  0
 18 12  1  0  0  0  0
 19 16  1  0  0  0  0
 20 25  1  0  0  0  0
 20 27  2  0  0  0  0
 22 23  1  0  0  0  0
 22 29  2  0  0  0  0
 23 28  1  0  0  0  0
 24 22  1  0  0  0  0
 25 26  1  0  0  0  0
 26 21  2  0  0  0  0
 27 21  1  0  0  0  0
 28 25  2  0  0  0  0
 29 20  1  0  0  0  0
M  END
>  <MODEL>
7

>  <REMARK>
 VINA RESULT:      -7.3      3.226      6.613
  Name = 
  2 active torsions:
  status: ('A' for Active; 'I' for Inactive)
    1  A    between atoms: C_14  and  N_23
    2  A    between atoms: C_15  and  C_19
                            x       y       z     vdW  Elec       q    Type
                         _______ _______ _______ _____ _____    ______ ____

>  <TORSDO>
F 2

$$$$
=
 OpenBabel11042416293D

 29 33  0  0  1  0  0  0  0  0999 V2000
  190.1070  178.2910  147.6370 C   0  0  0  0  0  1  0  0  0  0  0  0
  190.0750  175.2240  147.3440 C   0  0  0  0  0  2  0  0  0  0  0  0
  187.7460  176.1100  147.2470 C   0  0  0  0  0  0  0  0  0  0  0  0
  190.4320  176.2020  146.2290 C   0  0  1  0  0  3  0  0  0  0  0  0
  189.6690  177.5290  146.3930 C   0  0  1  0  0  3  0  0  0  0  0  0
  188.1500  177.3090  146.4250 C   0  0  1  0  0  3  0  0  0  0  0  0
  188.5930  174.8700  147.2630 C   0  0  0  0  0  2  0  0  0  0  0  0
  186.6890  176.1240  147.8550 O   0  0  0  0  0  0  0  0  0  0  0  0
  192.7030  175.9170  145.1310 C   0  0  0  0  0  0  0  0  0  0  0  0
  196.2190  174.6110  142.6180 C   0  0  0  0  0  2  0  0  0  0  0  0
  192.0730  175.1620  144.0190 C   0  0  0  0  0  3  0  0  0  0  0  0
  195.0280  174.7930  143.4810 C   0  0  0  0  0  0  0  0  0  0  0  0
  193.9680  176.2370  145.1500 N   0  0  0  0  0  0  0  0  0  0  0  0
  192.6580  174.1940  143.3180 C   0  0  0  0  0  3  0  0  0  0  0  0
  191.8710  176.4210  146.1820 N   0  0  0  0  0  2  0  0  0  0  0  0
  196.1810  176.7900  144.0620 C   0  0  0  0  0  2  0  0  0  0  0  0
  194.9960  175.9100  144.1990 C   0  0  0  0  0  0  0  0  0  0  0  0
  194.0280  173.6990  143.6240 C   0  0  0  0  0  2  0  0  0  0  0  0
  197.1760  176.1590  142.6750 S   0  0  0  0  0  0  0  0  0  0  0  0
  186.2440  177.4060  143.2050 C   0  0  0  0  0  0  0  0  0  0  0  0
  188.1640  176.7330  143.9800 C   0  0  0  0  0  3  0  0  0  0  0  0
  184.0750  178.2900  142.9080 C   0  0  0  0  0  0  0  0  0  0  0  0
  184.0150  178.6850  144.3840 C   0  0  0  0  0  2  0  0  0  0  0  0
  182.9560  178.5780  142.0790 N   0  0  0  0  0  1  0  0  0  0  0  0
  186.2690  177.7380  144.5880 C   0  0  0  0  0  0  0  0  0  0  0  0
  187.5660  177.2720  145.0450 C   0  0  0  0  0  0  0  0  0  0  0  0
  187.3260  176.8220  142.8150 N   0  0  0  0  0  0  0  0  0  0  0  0
  185.2520  178.3390  145.1900 C   0  0  0  0  0  3  0  0  0  0  0  0
  185.1160  177.7000  142.3860 N   0  0  0  0  0  0  0  0  0  0  0  0
  3  7  1  0  0  0  0
  3  8  2  0  0  0  0
  4 15  1  1  0  0  0
  4  5  1  0  0  0  0
  4  2  1  0  0  0  0
  5  6  1  0  0  0  0
  5  1  1  1  0  0  0
  6 26  1  6  0  0  0
  6  3  1  0  0  0  0
  7  2  1  0  0  0  0
  9 13  2  0  0  0  0
  9 15  1  0  0  0  0
 10 19  1  0  0  0  0
 10 12  1  0  0  0  0
 11  9  1  0  0  0  0
 12 18  1  0  0  0  0
 12 17  2  0  0  0  0
 14 18  1  0  0  0  0
 14 11  2  0  0  0  0
 16 17  1  0  0  0  0
 17 13  1  0  0  0  0
 19 16  1  0  0  0  0
 20 25  1  0  0  0  0
 21 26  2  0  0  0  0
 22 23  1  0  0  0  0
 23 28  1  0  0  0  0
 24 22  1  0  0  0  0
 25 26  1  0  0  0  0
 25 28  2  0  0  0  0
 27 20  2  0  0  0  0
 27 21  1  0  0  0  0
 29 22  2  0  0  0  0
 29 20  1  0  0  0  0
M  END
>  <MODEL>
8

>  <REMARK>
 VINA RESULT:      -7.3      3.366      4.389
  Name = 
  2 active torsions:
  status: ('A' for Active; 'I' for Inactive)
    1  A    between atoms: C_14  and  N_23
    2  A    between atoms: C_15  and  C_19
                            x       y       z     vdW  Elec       q    Type
                         _______ _______ _______ _____ _____    ______ ____

>  <TORSDO>
F 2

$$$$
=
 OpenBabel11042416293D

 29 33  0  0  1  0  0  0  0  0999 V2000
  189.3490  177.9940  146.4580 C   0  0  0  0  0  1  0  0  0  0  0  0
  187.2770  176.0730  147.6860 C   0  0  0  0  0  2  0  0  0  0  0  0
  186.1530  178.1730  146.9480 C   0  0  0  0  0  0  0  0  0  0  0  0
  187.8500  175.9520  146.2770 C   0  0  1  0  0  3  0  0  0  0  0  0
  188.2010  177.3370  145.7040 C   0  0  1  0  0  3  0  0  0  0  0  0
  186.9820  178.2700  145.6910 C   0  0  1  0  0  3  0  0  0  0  0  0
  185.9680  176.8550  147.6440 C   0  0  0  0  0  2  0  0  0  0  0  0
  185.5750  179.1610  147.3680 O   0  0  0  0  0  0  0  0  0  0  0  0
  189.5340  174.4830  145.0720 C   0  0  0  0  0  0  0  0  0  0  0  0
  191.7890  171.9280  142.1110 C   0  0  0  0  0  2  0  0  0  0  0  0
  188.9000  174.8170  143.7730 C   0  0  0  0  0  3  0  0  0  0  0  0
  190.8480  172.6290  143.0170 C   0  0  0  0  0  0  0  0  0  0  0  0
  190.6180  173.7650  145.1740 N   0  0  0  0  0  0  0  0  0  0  0  0
  188.8520  174.0150  142.7120 C   0  0  0  0  0  3  0  0  0  0  0  0
  189.0060  175.0650  146.2690 N   0  0  0  0  0  2  0  0  0  0  0  0
  192.8190  172.8540  144.3290 C   0  0  0  0  0  2  0  0  0  0  0  0
  191.3730  173.1180  144.1340 C   0  0  0  0  0  0  0  0  0  0  0  0
  189.3870  172.6260  142.7320 C   0  0  0  0  0  2  0  0  0  0  0  0
  193.4680  172.1790  142.7680 S   0  0  0  0  0  0  0  0  0  0  0  0
  185.3880  177.8420  142.3320 C   0  0  0  0  0  0  0  0  0  0  0  0
  184.8230  178.1130  144.4170 C   0  0  0  0  0  3  0  0  0  0  0  0
  186.5290  177.5810  140.2830 C   0  0  0  0  0  0  0  0  0  0  0  0
  187.8760  177.6480  141.0040 C   0  0  0  0  0  2  0  0  0  0  0  0
  186.5210  177.4130  138.8700 N   0  0  0  0  0  1  0  0  0  0  0  0
  186.5960  177.9140  143.0800 C   0  0  0  0  0  0  0  0  0  0  0  0
  186.1580  178.0900  144.4520 C   0  0  0  0  0  0  0  0  0  0  0  0
  184.3370  177.9520  143.0740 N   0  0  0  0  0  0  0  0  0  0  0  0
  187.7890  177.8280  142.5080 C   0  0  0  0  0  3  0  0  0  0  0  0
  185.3920  177.6730  140.9180 N   0  0  0  0  0  0  0  0  0  0  0  0
  3  8  2  0  0  0  0
  3  7  1  0  0  0  0
  4 15  1  1  0  0  0
  4  2  1  0  0  0  0
  5  4  1  0  0  0  0
  5  1  1  1  0  0  0
  6 26  1  6  0  0  0
  6  5  1  0  0  0  0
  6  3  1  0  0  0  0
  7  2  1  0  0  0  0
  9 13  2  0  0  0  0
  9 15  1  0  0  0  0
 10 19  1  0  0  0  0
 10 12  1  0  0  0  0
 11  9  1  0  0  0  0
 12 17  2  0  0  0  0
 14 18  1  0  0  0  0
 14 11  2  0  0  0  0
 17 16  1  0  0  0  0
 17 13  1  0  0  0  0
 18 12  1  0  0  0  0
 19 16  1  0  0  0  0
 20 27  2  0  0  0  0
 20 25  1  0  0  0  0
 21 26  2  0  0  0  0
 22 29  2  0  0  0  0
 22 23  1  0  0  0  0
 23 28  1  0  0  0  0
 24 22  1  0  0  0  0
 25 26  1  0  0  0  0
 27 21  1  0  0  0  0
 28 25  2  0  0  0  0
 29 20  1  0  0  0  0
M  END
>  <MODEL>
9

>  <REMARK>
 VINA RESULT:      -7.3      2.595      3.708
  Name = 
  2 active torsions:
  status: ('A' for Active; 'I' for Inactive)
    1  A    between atoms: C_14  and  N_23
    2  A    between atoms: C_15  and  C_19
                            x       y       z     vdW  Elec       q    Type
                         _______ _______ _______ _____ _____    ______ ____

>  <TORSDO>
F 2

$$$$
