=
 OpenBabel11042419003D

 41 46  0  0  1  0  0  0  0  0999 V2000
  188.5270  175.6280  143.8790 C   0  0  0  0  0  0  0  0  0  0  0  0
  185.3170  178.2370  143.1440 C   0  0  0  0  0  0  0  0  0  0  0  0
  186.3960  177.3700  143.4050 C   0  0  0  0  0  0  0  0  0  0  0  0
  189.7370  174.7570  144.1050 C   0  0  0  0  0  2  0  0  0  0  0  0
  186.8430  176.5310  142.4360 N   0  0  0  0  0  0  0  0  0  0  0  0
  184.6530  178.2650  141.8100 C   0  0  0  0  0  1  0  0  0  0  0  0
  185.4500  179.0900  145.4040 C   0  0  0  0  0  3  0  0  0  0  0  0
  188.0970  176.4930  144.9140 C   0  0  0  0  0  0  0  0  0  0  0  0
  189.7510  174.2100  145.5260 C   0  0  0  0  0  2  0  0  0  0  0  0
  184.8510  179.0910  144.1440 C   0  0  0  0  0  3  0  0  0  0  0  0
  189.6940  175.3130  146.4750 N   0  0  0  0  0  0  0  0  0  0  0  0
  188.6800  177.3240  147.0920 O   0  0  0  0  0  0  0  0  0  0  0  0
  187.0130  177.3700  144.6770 C   0  0  0  0  0  0  0  0  0  0  0  0
  188.8100  176.4180  146.2250 C   0  0  0  0  0  0  0  0  0  0  0  0
  187.8740  175.6650  142.6230 C   0  0  0  0  0  0  0  0  0  0  0  0
  186.5210  178.2350  145.6670 C   0  0  0  0  0  3  0  0  0  0  0  0
  188.8410  173.5920  141.6510 N   0  0  0  0  0  0  0  0  0  0  0  0
  188.0750  175.1410  140.1760 N   0  0  0  0  0  0  0  0  0  0  0  0
  190.2840  170.4360  138.0510 C   0  0  0  0  0  1  0  0  0  0  0  0
  189.5450  172.7830  137.6290 C   0  0  0  0  0  2  0  0  0  0  0  0
  189.0170  173.1500  140.3960 C   0  0  1  0  0  3  0  0  0  0  0  0
  188.2530  174.8020  141.4780 C   0  0  0  0  0  0  0  0  0  0  0  0
  188.5840  174.0930  139.5110 C   0  0  0  0  0  0  0  0  0  0  0  0
  188.5720  173.9010  138.0280 C   0  0  0  0  0  2  0  0  0  0  0  0
  189.6960  171.8770  139.9970 C   0  0  0  0  0  2  0  0  0  0  0  0
  189.3770  171.5490  138.5300 C   0  0  2  0  0  3  0  0  0  0  0  0
  190.6300  175.3210  147.5900 C   0  0  0  0  0  2  0  0  0  0  0  0
  192.0590  175.2550  147.0780 C   0  0  0  0  0  2  0  0  0  0  0  0
  192.6440  176.6510  146.9680 C   0  0  0  0  0  2  0  0  0  0  0  0
  194.0660  176.5850  146.4400 C   0  0  0  0  0  2  0  0  0  0  0  0
  194.4610  175.2530  146.3180 O   0  0  0  0  0  0  0  0  0  0  0  0
  195.6980  174.7280  142.6100 S   0  0  0  0  0  0  0  0  0  0  0  0
  195.3520  175.2420  145.2400 C   0  0  2  0  0  3  0  0  0  0  0  0
  195.3760  176.5860  144.5550 C   0  0  0  0  0  2  0  0  0  0  0  0
  194.9550  174.2110  144.1920 C   0  0  1  0  0  3  0  0  0  0  0  0
  196.1250  176.3770  143.2590 C   0  0  0  0  0  2  0  0  0  0  0  0
  193.5090  174.1530  144.0420 N   0  0  0  0  0  2  0  0  0  0  0  0
  193.1170  172.7710  144.2720 C   0  0  0  0  0  2  0  0  0  0  0  0
  192.5550  172.1740  142.9960 C   0  0  2  0  0  3  0  0  0  0  0  0
  192.2550  173.1930  142.0910 O   0  0  0  0  0  1  0  0  0  0  0  0
  191.2930  171.4030  143.3190 C   0  0  0  0  0  1  0  0  0  0  0  0
  1  4  1  0  0  0  0
  1  8  1  0  0  0  0
  2  3  1  0  0  0  0
  2 10  2  0  0  0  0
  3 13  1  0  0  0  0
  4  9  1  0  0  0  0
  5 15  1  0  0  0  0
  5  3  2  0  0  0  0
  6  2  1  0  0  0  0
  7 16  2  0  0  0  0
  8 14  1  0  0  0  0
  9 11  1  0  0  0  0
 10  7  1  0  0  0  0
 11 27  1  0  0  0  0
 13  8  2  0  0  0  0
 13 16  1  0  0  0  0
 14 11  1  0  0  0  0
 14 12  2  0  0  0  0
 15  1  2  0  0  0  0
 18 22  1  0  0  0  0
 20 24  1  0  0  0  0
 20 26  1  0  0  0  0
 21 25  1  6  0  0  0
 21 17  1  0  0  0  0
 22 17  2  0  0  0  0
 22 15  1  0  0  0  0
 23 18  2  0  0  0  0
 23 21  1  0  0  0  0
 24 23  1  0  0  0  0
 26 19  1  6  0  0  0
 26 25  1  0  0  0  0
 28 27  1  0  0  0  0
 29 28  1  0  0  0  0
 30 29  1  0  0  0  0
 31 30  1  0  0  0  0
 32 36  1  0  0  0  0
 32 35  1  0  0  0  0
 33 31  1  1  0  0  0
 34 33  1  0  0  0  0
 35 37  1  6  0  0  0
 35 33  1  0  0  0  0
 36 34  1  0  0  0  0
 37 38  1  0  0  0  0
 39 41  1  1  0  0  0
 39 38  1  0  0  0  0
 40 39  1  0  0  0  0
M  END
>  <MODEL>
1

>  <REMARK>
 VINA RESULT:      -7.8      0.000      0.000
  Name = 
  10 active torsions:
  status: ('A' for Active; 'I' for Inactive)
    1  A    between atoms: C_1  and  C_33
    2  A    between atoms: C_4  and  C_21
    3  A    between atoms: C_4  and  C_29
    4  A    between atoms: N_6  and  C_33
    5  A    between atoms: N_6  and  C_40
    6  A    between atoms: C_8  and  O_28
    7  A    between atoms: C_8  and  C_29
    8  A    between atoms: C_11  and  O_28
    9  A    between atoms: C_21  and  N_22
   10  A    between atoms: C_30  and  C_37
                            x       y       z     vdW  Elec       q    Type
                         _______ _______ _______ _____ _____    ______ ____

>  <TORSDO>
F 10

$$$$
=
 OpenBabel11042419003D

 41 46  0  0  1  0  0  0  0  0999 V2000
  188.6940  175.5290  143.7070 C   0  0  0  0  0  0  0  0  0  0  0  0
  185.6140  178.1830  142.6520 C   0  0  0  0  0  0  0  0  0  0  0  0
  186.6490  177.3030  143.0190 C   0  0  0  0  0  0  0  0  0  0  0  0
  189.8620  174.6370  144.0460 C   0  0  0  0  0  2  0  0  0  0  0  0
  187.1200  176.3960  142.1250 N   0  0  0  0  0  0  0  0  0  0  0  0
  185.0230  178.1550  141.2840 C   0  0  0  0  0  1  0  0  0  0  0  0
  185.6520  179.1600  144.8660 C   0  0  0  0  0  3  0  0  0  0  0  0
  188.2370  176.4630  144.6670 C   0  0  0  0  0  0  0  0  0  0  0  0
  189.7820  174.1720  145.4940 C   0  0  0  0  0  2  0  0  0  0  0  0
  185.1220  179.1060  143.5770 C   0  0  0  0  0  3  0  0  0  0  0  0
  189.7100  175.3280  146.3760 N   0  0  0  0  0  0  0  0  0  0  0  0
  188.7290  177.3990  146.8240 O   0  0  0  0  0  0  0  0  0  0  0  0
  187.1960  177.3570  144.3220 C   0  0  0  0  0  0  0  0  0  0  0  0
  188.8760  176.4420  146.0170 C   0  0  0  0  0  0  0  0  0  0  0  0
  188.1110  175.5130  142.4160 C   0  0  0  0  0  0  0  0  0  0  0  0
  186.6800  178.2900  145.2340 C   0  0  0  0  0  3  0  0  0  0  0  0
  188.2510  174.8140  140.0350 N   0  0  0  0  0  0  0  0  0  0  0  0
  189.1710  173.4040  141.5610 N   0  0  0  0  0  2  0  0  0  0  0  0
  189.4380  171.8840  136.1610 C   0  0  0  0  0  1  0  0  0  0  0  0
  189.6580  171.1890  138.5490 C   0  0  0  0  0  2  0  0  0  0  0  0
  188.7760  173.7500  139.4100 C   0  0  0  0  0  0  0  0  0  0  0  0
  188.5220  174.5760  141.3430 C   0  0  0  0  0  0  0  0  0  0  0  0
  189.3020  172.8900  140.3290 C   0  0  0  0  0  0  0  0  0  0  0  0
  190.0270  171.6300  139.9730 C   0  0  0  0  0  2  0  0  0  0  0  0
  188.7000  173.4620  137.9430 C   0  0  0  0  0  2  0  0  0  0  0  0
  189.7150  172.3710  137.5680 C   0  0  2  0  0  3  0  0  0  0  0  0
  190.5840  175.3720  147.5390 C   0  0  0  0  0  2  0  0  0  0  0  0
  192.0280  175.1460  147.1210 C   0  0  0  0  0  2  0  0  0  0  0  0
  192.6850  176.4660  146.7640 C   0  0  0  0  0  2  0  0  0  0  0  0
  192.8680  176.5720  145.2600 C   0  0  0  0  0  2  0  0  0  0  0  0
  194.2230  176.4830  144.9430 O   0  0  0  0  0  0  0  0  0  0  0  0
  195.6640  174.4530  141.8850 S   0  0  0  0  0  0  0  0  0  0  0  0
  194.2550  175.9170  143.6650 C   0  0  2  0  0  3  0  0  0  0  0  0
  193.6340  174.5430  143.6750 C   0  0  0  0  0  2  0  0  0  0  0  0
  195.6800  175.7620  143.1520 C   0  0  1  0  0  3  0  0  0  0  0  0
  193.9830  173.9200  142.3430 C   0  0  0  0  0  2  0  0  0  0  0  0
  196.5790  175.3730  144.2270 N   0  0  0  0  0  2  0  0  0  0  0  0
  197.3690  174.2550  143.7330 C   0  0  0  0  0  2  0  0  0  0  0  0
  197.4780  173.1860  144.8030 C   0  0  2  0  0  3  0  0  0  0  0  0
  196.8130  172.0320  144.3870 O   0  0  0  0  0  1  0  0  0  0  0  0
  196.8460  173.6940  146.0830 C   0  0  0  0  0  1  0  0  0  0  0  0
  1  4  1  0  0  0  0
  1  8  1  0  0  0  0
  2  3  1  0  0  0  0
  2 10  2  0  0  0  0
  3 13  1  0  0  0  0
  4  9  1  0  0  0  0
  5 15  1  0  0  0  0
  5  3  2  0  0  0  0
  6  2  1  0  0  0  0
  7 16  2  0  0  0  0
  8 14  1  0  0  0  0
  9 11  1  0  0  0  0
 10  7  1  0  0  0  0
 11 27  1  0  0  0  0
 13  8  2  0  0  0  0
 13 16  1  0  0  0  0
 14 11  1  0  0  0  0
 14 12  2  0  0  0  0
 15  1  2  0  0  0  0
 17 22  2  0  0  0  0
 20 24  1  0  0  0  0
 21 17  1  0  0  0  0
 21 23  2  0  0  0  0
 22 18  1  0  0  0  0
 22 15  1  0  0  0  0
 23 18  1  0  0  0  0
 24 23  1  0  0  0  0
 25 21  1  0  0  0  0
 26 19  1  6  0  0  0
 26 25  1  0  0  0  0
 26 20  1  0  0  0  0
 28 27  1  0  0  0  0
 29 28  1  0  0  0  0
 30 29  1  0  0  0  0
 31 30  1  0  0  0  0
 32 36  1  0  0  0  0
 32 35  1  0  0  0  0
 33 34  1  0  0  0  0
 33 31  1  1  0  0  0
 35 33  1  0  0  0  0
 35 37  1  1  0  0  0
 36 34  1  0  0  0  0
 38 37  1  0  0  0  0
 38 39  1  0  0  0  0
 39 41  1  1  0  0  0
 40 39  1  0  0  0  0
M  END
>  <MODEL>
2

>  <REMARK>
 VINA RESULT:      -7.8      1.370      2.282
  Name = 
  10 active torsions:
  status: ('A' for Active; 'I' for Inactive)
    1  A    between atoms: C_1  and  C_33
    2  A    between atoms: C_4  and  C_21
    3  A    between atoms: C_4  and  C_29
    4  A    between atoms: N_6  and  C_33
    5  A    between atoms: N_6  and  C_40
    6  A    between atoms: C_8  and  O_28
    7  A    between atoms: C_8  and  C_29
    8  A    between atoms: C_11  and  O_28
    9  A    between atoms: C_21  and  N_22
   10  A    between atoms: C_30  and  C_37
                            x       y       z     vdW  Elec       q    Type
                         _______ _______ _______ _____ _____    ______ ____

>  <TORSDO>
F 10

$$$$
=
 OpenBabel11042419003D

 41 46  0  0  1  0  0  0  0  0999 V2000
  188.6480  175.5430  143.7490 C   0  0  0  0  0  0  0  0  0  0  0  0
  185.6070  178.2240  142.6460 C   0  0  0  0  0  0  0  0  0  0  0  0
  186.6290  177.3350  143.0300 C   0  0  0  0  0  0  0  0  0  0  0  0
  189.8030  174.6410  144.1070 C   0  0  0  0  0  2  0  0  0  0  0  0
  187.1030  176.4210  142.1450 N   0  0  0  0  0  0  0  0  0  0  0  0
  185.0340  178.1970  141.2710 C   0  0  0  0  0  1  0  0  0  0  0  0
  185.6280  179.2080  144.8570 C   0  0  0  0  0  3  0  0  0  0  0  0
  188.1880  176.4860  144.7010 C   0  0  0  0  0  0  0  0  0  0  0  0
  189.7000  174.1830  145.5550 C   0  0  0  0  0  2  0  0  0  0  0  0
  185.1130  179.1550  143.5620 C   0  0  0  0  0  3  0  0  0  0  0  0
  189.6280  175.3430  146.4320 N   0  0  0  0  0  0  0  0  0  0  0  0
  188.6620  177.4250  146.8610 O   0  0  0  0  0  0  0  0  0  0  0  0
  187.1610  177.3880  144.3400 C   0  0  0  0  0  0  0  0  0  0  0  0
  188.8100  176.4630  146.0590 C   0  0  0  0  0  0  0  0  0  0  0  0
  188.0810  175.5290  142.4520 C   0  0  0  0  0  0  0  0  0  0  0  0
  186.6420  178.3300  145.2420 C   0  0  0  0  0  3  0  0  0  0  0  0
  188.2490  174.8230  140.0750 N   0  0  0  0  0  0  0  0  0  0  0  0
  189.1260  173.4040  141.6180 N   0  0  0  0  0  0  0  0  0  0  0  0
  189.4580  171.8680  136.2260 C   0  0  0  0  0  1  0  0  0  0  0  0
  189.6320  171.1760  138.6190 C   0  0  0  0  0  2  0  0  0  0  0  0
  188.7700  173.7500  139.4600 C   0  0  1  0  0  3  0  0  0  0  0  0
  188.4970  174.5840  141.3870 C   0  0  0  0  0  0  0  0  0  0  0  0
  189.2700  172.8850  140.3890 C   0  0  0  0  0  0  0  0  0  0  0  0
  189.9830  171.6150  140.0470 C   0  0  0  0  0  2  0  0  0  0  0  0
  188.7130  173.4600  137.9930 C   0  0  0  0  0  2  0  0  0  0  0  0
  189.7190  172.3550  137.6360 C   0  0  2  0  0  3  0  0  0  0  0  0
  190.4880  175.3830  147.6060 C   0  0  0  0  0  2  0  0  0  0  0  0
  191.9280  175.0960  147.2130 C   0  0  0  0  0  2  0  0  0  0  0  0
  192.5150  176.2790  146.4660 C   0  0  0  0  0  2  0  0  0  0  0  0
  194.0070  176.3780  146.7290 C   0  0  0  0  0  2  0  0  0  0  0  0
  194.7040  176.2830  145.5250 O   0  0  0  0  0  0  0  0  0  0  0  0
  195.5290  172.9740  143.5440 S   0  0  0  0  0  0  0  0  0  0  0  0
  194.8380  174.9090  145.2980 C   0  0  2  0  0  3  0  0  0  0  0  0
  196.2010  174.4280  145.7280 C   0  0  0  0  0  2  0  0  0  0  0  0
  194.6850  174.5640  143.8220 C   0  0  1  0  0  3  0  0  0  0  0  0
  196.3400  173.0280  145.1750 C   0  0  0  0  0  2  0  0  0  0  0  0
  195.3000  175.5830  142.9850 N   0  0  0  0  0  2  0  0  0  0  0  0
  194.3200  175.9450  141.9730 C   0  0  0  0  0  2  0  0  0  0  0  0
  192.9220  175.6340  142.4740 C   0  0  2  0  0  3  0  0  0  0  0  0
  192.2060  174.9580  141.4850 O   0  0  0  0  0  1  0  0  0  0  0  0
  192.2120  176.9280  142.8100 C   0  0  0  0  0  1  0  0  0  0  0  0
  1  4  1  0  0  0  0
  1  8  1  0  0  0  0
  2  3  1  0  0  0  0
  2 10  2  0  0  0  0
  3 13  1  0  0  0  0
  4  9  1  0  0  0  0
  5 15  1  0  0  0  0
  5  3  2  0  0  0  0
  6  2  1  0  0  0  0
  7 16  2  0  0  0  0
  8 14  1  0  0  0  0
  9 11  1  0  0  0  0
 10  7  1  0  0  0  0
 11 27  1  0  0  0  0
 13  8  2  0  0  0  0
 13 16  1  0  0  0  0
 14 11  1  0  0  0  0
 14 12  2  0  0  0  0
 15  1  2  0  0  0  0
 17 22  2  0  0  0  0
 20 24  1  0  0  0  0
 21 25  1  1  0  0  0
 21 17  1  0  0  0  0
 21 23  1  0  0  0  0
 22 18  1  0  0  0  0
 22 15  1  0  0  0  0
 23 18  2  0  0  0  0
 24 23  1  0  0  0  0
 26 19  1  6  0  0  0
 26 25  1  0  0  0  0
 26 20  1  0  0  0  0
 28 27  1  0  0  0  0
 29 30  1  0  0  0  0
 29 28  1  0  0  0  0
 31 30  1  0  0  0  0
 32 35  1  0  0  0  0
 32 36  1  0  0  0  0
 33 31  1  6  0  0  0
 33 34  1  0  0  0  0
 35 37  1  6  0  0  0
 35 33  1  0  0  0  0
 36 34  1  0  0  0  0
 38 39  1  0  0  0  0
 38 37  1  0  0  0  0
 39 41  1  6  0  0  0
 40 39  1  0  0  0  0
M  END
>  <MODEL>
3

>  <REMARK>
 VINA RESULT:      -7.7      1.212      1.891
  Name = 
  10 active torsions:
  status: ('A' for Active; 'I' for Inactive)
    1  A    between atoms: C_1  and  C_33
    2  A    between atoms: C_4  and  C_21
    3  A    between atoms: C_4  and  C_29
    4  A    between atoms: N_6  and  C_33
    5  A    between atoms: N_6  and  C_40
    6  A    between atoms: C_8  and  O_28
    7  A    between atoms: C_8  and  C_29
    8  A    between atoms: C_11  and  O_28
    9  A    between atoms: C_21  and  N_22
   10  A    between atoms: C_30  and  C_37
                            x       y       z     vdW  Elec       q    Type
                         _______ _______ _______ _____ _____    ______ ____

>  <TORSDO>
F 10

$$$$
=
 OpenBabel11042419003D

 41 46  0  0  1  0  0  0  0  0999 V2000
  188.5110  175.7350  144.0740 C   0  0  0  0  0  0  0  0  0  0  0  0
  185.0150  177.9900  143.4890 C   0  0  0  0  0  0  0  0  0  0  0  0
  186.1900  177.2430  143.6990 C   0  0  0  0  0  0  0  0  0  0  0  0
  189.8150  174.9960  144.2410 C   0  0  0  0  0  2  0  0  0  0  0  0
  186.6640  176.4310  142.7200 N   0  0  0  0  0  0  0  0  0  0  0  0
  184.2760  177.9210  142.1970 C   0  0  0  0  0  1  0  0  0  0  0  0
  185.1900  178.9020  145.7240 C   0  0  0  0  0  3  0  0  0  0  0  0
  188.0550  176.5750  145.1190 C   0  0  0  0  0  0  0  0  0  0  0  0
  189.9670  174.4850  145.6680 C   0  0  0  0  0  2  0  0  0  0  0  0
  184.5220  178.8140  144.5020 C   0  0  0  0  0  3  0  0  0  0  0  0
  189.8520  175.5970  146.6000 N   0  0  0  0  0  0  0  0  0  0  0  0
  188.6750  177.5080  147.2450 O   0  0  0  0  0  0  0  0  0  0  0  0
  186.8760  177.3330  144.9320 C   0  0  0  0  0  0  0  0  0  0  0  0
  188.8470  176.6010  146.3860 C   0  0  0  0  0  0  0  0  0  0  0  0
  187.7870  175.6790  142.8590 C   0  0  0  0  0  0  0  0  0  0  0  0
  186.3570  178.1650  145.9360 C   0  0  0  0  0  3  0  0  0  0  0  0
  188.7420  173.6080  141.8710 N   0  0  0  0  0  0  0  0  0  0  0  0
  188.0580  175.2050  140.4080 N   0  0  0  0  0  0  0  0  0  0  0  0
  190.2380  170.5010  138.2500 C   0  0  0  0  0  1  0  0  0  0  0  0
  189.5620  172.8720  137.8570 C   0  0  0  0  0  2  0  0  0  0  0  0
  188.9500  173.1890  140.6130 C   0  0  1  0  0  3  0  0  0  0  0  0
  188.1850  174.8330  141.7070 C   0  0  0  0  0  0  0  0  0  0  0  0
  188.5660  174.1610  139.7360 C   0  0  0  0  0  0  0  0  0  0  0  0
  188.6000  174.0020  138.2490 C   0  0  0  0  0  2  0  0  0  0  0  0
  189.6150  171.9120  140.2080 C   0  0  0  0  0  2  0  0  0  0  0  0
  189.3380  171.6230  138.7240 C   0  0  2  0  0  3  0  0  0  0  0  0
  190.8450  175.7240  147.6570 C   0  0  0  0  0  2  0  0  0  0  0  0
  192.2130  175.3020  147.1480 C   0  0  0  0  0  2  0  0  0  0  0  0
  192.8500  176.4280  146.3560 C   0  0  0  0  0  2  0  0  0  0  0  0
  194.2580  176.0440  145.9380 C   0  0  0  0  0  2  0  0  0  0  0  0
  194.4330  176.3040  144.5790 O   0  0  0  0  0  0  0  0  0  0  0  0
  192.5870  174.5230  141.5840 S   0  0  0  0  0  0  0  0  0  0  0  0
  193.4890  175.4970  143.9360 C   0  0  2  0  0  3  0  0  0  0  0  0
  193.9660  174.0680  143.8690 C   0  0  0  0  0  2  0  0  0  0  0  0
  193.2360  175.9530  142.5060 C   0  0  1  0  0  3  0  0  0  0  0  0
  193.0290  173.3620  142.9170 C   0  0  0  0  0  2  0  0  0  0  0  0
  194.4700  176.4030  141.8790 N   0  0  0  0  0  2  0  0  0  0  0  0
  194.5950  175.6770  140.6250 C   0  0  0  0  0  2  0  0  0  0  0  0
  196.0420  175.2830  140.3980 C   0  0  2  0  0  3  0  0  0  0  0  0
  196.1450  173.8940  140.3100 O   0  0  0  0  0  1  0  0  0  0  0  0
  196.8820  175.7740  141.5590 C   0  0  0  0  0  1  0  0  0  0  0  0
  1  4  1  0  0  0  0
  1  8  1  0  0  0  0
  2  3  1  0  0  0  0
  2 10  2  0  0  0  0
  3 13  1  0  0  0  0
  4  9  1  0  0  0  0
  5 15  1  0  0  0  0
  5  3  2  0  0  0  0
  6  2  1  0  0  0  0
  7 16  2  0  0  0  0
  8 14  1  0  0  0  0
  9 11  1  0  0  0  0
 10  7  1  0  0  0  0
 11 27  1  0  0  0  0
 13  8  2  0  0  0  0
 13 16  1  0  0  0  0
 14 11  1  0  0  0  0
 14 12  2  0  0  0  0
 15  1  2  0  0  0  0
 18 22  1  0  0  0  0
 20 24  1  0  0  0  0
 20 26  1  0  0  0  0
 21 25  1  1  0  0  0
 21 17  1  0  0  0  0
 22 17  2  0  0  0  0
 22 15  1  0  0  0  0
 23 18  2  0  0  0  0
 23 21  1  0  0  0  0
 24 23  1  0  0  0  0
 26 19  1  6  0  0  0
 26 25  1  0  0  0  0
 28 27  1  0  0  0  0
 29 28  1  0  0  0  0
 30 29  1  0  0  0  0
 31 30  1  0  0  0  0
 32 35  1  0  0  0  0
 32 36  1  0  0  0  0
 33 31  1  6  0  0  0
 34 33  1  0  0  0  0
 35 37  1  6  0  0  0
 35 33  1  0  0  0  0
 36 34  1  0  0  0  0
 38 37  1  0  0  0  0
 39 38  1  0  0  0  0
 39 41  1  1  0  0  0
 40 39  1  0  0  0  0
M  END
>  <MODEL>
4

>  <REMARK>
 VINA RESULT:      -7.6      1.456      2.187
  Name = 
  10 active torsions:
  status: ('A' for Active; 'I' for Inactive)
    1  A    between atoms: C_1  and  C_33
    2  A    between atoms: C_4  and  C_21
    3  A    between atoms: C_4  and  C_29
    4  A    between atoms: N_6  and  C_33
    5  A    between atoms: N_6  and  C_40
    6  A    between atoms: C_8  and  O_28
    7  A    between atoms: C_8  and  C_29
    8  A    between atoms: C_11  and  O_28
    9  A    between atoms: C_21  and  N_22
   10  A    between atoms: C_30  and  C_37
                            x       y       z     vdW  Elec       q    Type
                         _______ _______ _______ _____ _____    ______ ____

>  <TORSDO>
F 10

$$$$
=
 OpenBabel11042419003D

 41 46  0  0  1  0  0  0  0  0999 V2000
  187.6900  177.1680  143.4860 C   0  0  0  0  0  0  0  0  0  0  0  0
  185.7580  178.1660  147.0810 C   0  0  0  0  0  0  0  0  0  0  0  0
  186.3910  177.8330  145.8680 C   0  0  0  0  0  0  0  0  0  0  0  0
  188.3560  176.7180  142.2100 C   0  0  0  0  0  2  0  0  0  0  0  0
  187.6630  177.3580  145.8720 N   0  0  0  0  0  0  0  0  0  0  0  0
  186.4540  177.9970  148.3880 C   0  0  0  0  0  1  0  0  0  0  0  0
  183.7750  178.8360  145.8670 C   0  0  0  0  0  3  0  0  0  0  0  0
  186.3600  177.6520  143.4370 C   0  0  0  0  0  0  0  0  0  0  0  0
  187.9890  177.6420  141.0560 C   0  0  0  0  0  2  0  0  0  0  0  0
  184.4550  178.6660  147.0730 C   0  0  0  0  0  3  0  0  0  0  0  0
  186.5410  177.7000  140.9180 N   0  0  0  0  0  0  0  0  0  0  0  0
  184.4740  177.9470  141.9780 O   0  0  0  0  0  0  0  0  0  0  0  0
  185.7050  177.9960  144.6420 C   0  0  0  0  0  0  0  0  0  0  0  0
  185.7200  177.7920  142.0940 C   0  0  0  0  0  0  0  0  0  0  0  0
  188.3340  177.0240  144.7390 C   0  0  0  0  0  0  0  0  0  0  0  0
  184.3970  178.5050  144.6620 C   0  0  0  0  0  3  0  0  0  0  0  0
  190.0080  175.1990  144.9440 N   0  0  0  0  0  0  0  0  0  0  0  0
  190.8100  177.3230  145.0240 N   0  0  0  0  0  0  0  0  0  0  0  0
  194.5340  173.1450  145.4930 C   0  0  0  0  0  1  0  0  0  0  0  0
  194.0690  175.5820  145.7760 C   0  0  0  0  0  2  0  0  0  0  0  0
  191.3420  175.1740  145.0900 C   0  0  1  0  0  3  0  0  0  0  0  0
  189.7220  176.5240  144.8940 C   0  0  0  0  0  0  0  0  0  0  0  0
  191.8190  176.4500  145.1680 C   0  0  0  0  0  0  0  0  0  0  0  0
  193.2720  176.7920  145.2670 C   0  0  0  0  0  2  0  0  0  0  0  0
  192.1870  173.9530  145.2690 C   0  0  0  0  0  2  0  0  0  0  0  0
  193.6660  174.2970  145.0330 C   0  0  2  0  0  3  0  0  0  0  0  0
  185.9600  177.5390  139.5930 C   0  0  0  0  0  2  0  0  0  0  0  0
  187.0380  177.1680  138.5880 C   0  0  0  0  0  2  0  0  0  0  0  0
  186.5680  176.0220  137.7120 C   0  0  0  0  0  2  0  0  0  0  0  0
  187.6890  175.0180  137.5140 C   0  0  0  0  0  2  0  0  0  0  0  0
  188.1910  174.6230  138.7540 O   0  0  0  0  0  0  0  0  0  0  0  0
  191.1360  172.0800  139.3970 S   0  0  0  0  0  0  0  0  0  0  0  0
  189.1380  173.6370  138.4580 C   0  0  2  0  0  3  0  0  0  0  0  0
  188.5450  172.2610  138.6290 C   0  0  0  0  0  2  0  0  0  0  0  0
  190.3480  173.7220  139.3790 C   0  0  1  0  0  3  0  0  0  0  0  0
  189.7090  171.2980  138.5760 C   0  0  0  0  0  2  0  0  0  0  0  0
  189.9460  174.0730  140.7330 N   0  0  0  0  0  2  0  0  0  0  0  0
  190.6770  173.1920  141.6300 C   0  0  0  0  0  2  0  0  0  0  0  0
  189.7210  172.5550  142.6210 C   0  0  2  0  0  3  0  0  0  0  0  0
  189.7670  171.1660  142.4950 O   0  0  0  0  0  1  0  0  0  0  0  0
  188.3140  173.0370  142.3380 C   0  0  0  0  0  1  0  0  0  0  0  0
  1 15  1  0  0  0  0
  2  6  1  0  0  0  0
  3  5  1  0  0  0  0
  3  2  2  0  0  0  0
  4  1  1  0  0  0  0
  7 10  2  0  0  0  0
  8  1  2  0  0  0  0
  8 13  1  0  0  0  0
  9  4  1  0  0  0  0
 10  2  1  0  0  0  0
 11  9  1  0  0  0  0
 11 14  1  0  0  0  0
 12 14  2  0  0  0  0
 13 16  2  0  0  0  0
 13  3  1  0  0  0  0
 14  8  1  0  0  0  0
 15 22  1  0  0  0  0
 15  5  2  0  0  0  0
 16  7  1  0  0  0  0
 17 21  1  0  0  0  0
 18 23  2  0  0  0  0
 21 23  1  0  0  0  0
 21 25  1  1  0  0  0
 22 17  2  0  0  0  0
 22 18  1  0  0  0  0
 23 24  1  0  0  0  0
 24 20  1  0  0  0  0
 26 25  1  0  0  0  0
 26 19  1  1  0  0  0
 26 20  1  0  0  0  0
 27 11  1  0  0  0  0
 28 27  1  0  0  0  0
 29 28  1  0  0  0  0
 30 29  1  0  0  0  0
 30 31  1  0  0  0  0
 33 34  1  0  0  0  0
 33 31  1  1  0  0  0
 33 35  1  0  0  0  0
 35 32  1  0  0  0  0
 35 37  1  1  0  0  0
 36 34  1  0  0  0  0
 36 32  1  0  0  0  0
 37 38  1  0  0  0  0
 38 39  1  0  0  0  0
 39 41  1  6  0  0  0
 40 39  1  0  0  0  0
M  END
>  <MODEL>
5

>  <REMARK>
 VINA RESULT:      -7.6      2.521      6.542
  Name = 
  10 active torsions:
  status: ('A' for Active; 'I' for Inactive)
    1  A    between atoms: C_1  and  C_33
    2  A    between atoms: C_4  and  C_21
    3  A    between atoms: C_4  and  C_29
    4  A    between atoms: N_6  and  C_33
    5  A    between atoms: N_6  and  C_40
    6  A    between atoms: C_8  and  O_28
    7  A    between atoms: C_8  and  C_29
    8  A    between atoms: C_11  and  O_28
    9  A    between atoms: C_21  and  N_22
   10  A    between atoms: C_30  and  C_37
                            x       y       z     vdW  Elec       q    Type
                         _______ _______ _______ _____ _____    ______ ____

>  <TORSDO>
F 10

$$$$
=
 OpenBabel11042419003D

 41 46  0  0  1  0  0  0  0  0999 V2000
  190.7840  174.0030  144.1710 C   0  0  0  0  0  0  0  0  0  0  0  0
  194.0910  175.6910  146.1360 C   0  0  0  0  0  0  0  0  0  0  0  0
  192.9930  175.1140  145.4700 C   0  0  0  0  0  0  0  0  0  0  0  0
  189.6180  173.4510  143.3890 C   0  0  0  0  0  2  0  0  0  0  0  0
  191.7870  175.7390  145.4790 N   0  0  0  0  0  0  0  0  0  0  0  0
  193.9650  176.9940  146.8500 C   0  0  0  0  0  1  0  0  0  0  0  0
  195.4780  173.8210  145.4780 C   0  0  0  0  0  3  0  0  0  0  0  0
  192.0250  173.3220  144.1300 C   0  0  0  0  0  0  0  0  0  0  0  0
  189.5870  171.9310  143.4680 C   0  0  0  0  0  2  0  0  0  0  0  0
  195.3260  175.0420  146.1360 C   0  0  0  0  0  3  0  0  0  0  0  0
  190.8550  171.3910  143.0000 N   0  0  0  0  0  0  0  0  0  0  0  0
  193.1860  171.5020  143.0760 O   0  0  0  0  0  0  0  0  0  0  0  0
  193.1420  173.8810  144.7940 C   0  0  0  0  0  0  0  0  0  0  0  0
  192.0830  172.0240  143.3920 C   0  0  0  0  0  0  0  0  0  0  0  0
  190.6860  175.2340  144.8630 C   0  0  0  0  0  0  0  0  0  0  0  0
  194.3930  173.2460  144.8140 C   0  0  0  0  0  3  0  0  0  0  0  0
  188.5530  175.8530  145.9780 N   0  0  0  0  0  0  0  0  0  0  0  0
  189.0410  176.9470  144.0480 N   0  0  0  0  0  2  0  0  0  0  0  0
  184.2310  178.2840  146.6180 C   0  0  0  0  0  1  0  0  0  0  0  0
  185.5990  178.4060  144.5330 C   0  0  0  0  0  2  0  0  0  0  0  0
  187.5790  176.7310  145.6960 C   0  0  0  0  0  0  0  0  0  0  0  0
  189.4330  176.0220  144.9600 C   0  0  0  0  0  0  0  0  0  0  0  0
  187.8580  177.3670  144.5220 C   0  0  0  0  0  0  0  0  0  0  0  0
  187.0150  178.4590  143.9430 C   0  0  0  0  0  2  0  0  0  0  0  0
  186.3090  176.9180  146.4650 C   0  0  0  0  0  2  0  0  0  0  0  0
  185.6380  178.2400  146.0610 C   0  0  2  0  0  3  0  0  0  0  0  0
  190.8340  170.2940  142.0430 C   0  0  0  0  0  2  0  0  0  0  0  0
  191.2670  170.7840  140.6710 C   0  0  0  0  0  2  0  0  0  0  0  0
  190.1600  171.5980  140.0290 C   0  0  0  0  0  2  0  0  0  0  0  0
  190.6630  172.9870  139.6810 C   0  0  0  0  0  2  0  0  0  0  0  0
  191.9340  173.1770  140.2240 O   0  0  0  0  0  0  0  0  0  0  0  0
  195.0170  174.8860  138.4540 S   0  0  0  0  0  0  0  0  0  0  0  0
  192.6910  173.7190  139.1790 C   0  0  2  0  0  3  0  0  0  0  0  0
  193.4960  172.6450  138.4910 C   0  0  0  0  0  2  0  0  0  0  0  0
  193.6760  174.7660  139.6820 C   0  0  1  0  0  3  0  0  0  0  0  0
  194.4760  173.3710  137.5980 C   0  0  0  0  0  2  0  0  0  0  0  0
  194.2390  174.3760  140.9650 N   0  0  0  0  0  2  0  0  0  0  0  0
  194.2440  175.5650  141.8020 C   0  0  0  0  0  2  0  0  0  0  0  0
  195.6680  175.9290  142.1740 C   0  0  2  0  0  3  0  0  0  0  0  0
  196.1620  176.8780  141.2780 O   0  0  0  0  0  1  0  0  0  0  0  0
  196.5330  174.6880  142.1160 C   0  0  0  0  0  1  0  0  0  0  0  0
  1 15  1  0  0  0  0
  2  6  1  0  0  0  0
  3  5  1  0  0  0  0
  3  2  2  0  0  0  0
  4  9  1  0  0  0  0
  4  1  1  0  0  0  0
  7 10  2  0  0  0  0
  8  1  2  0  0  0  0
  8 13  1  0  0  0  0
 10  2  1  0  0  0  0
 11 14  1  0  0  0  0
 11  9  1  0  0  0  0
 12 14  2  0  0  0  0
 13 16  2  0  0  0  0
 13  3  1  0  0  0  0
 14  8  1  0  0  0  0
 15 22  1  0  0  0  0
 15  5  2  0  0  0  0
 16  7  1  0  0  0  0
 18 23  1  0  0  0  0
 18 22  1  0  0  0  0
 20 26  1  0  0  0  0
 21 17  1  0  0  0  0
 21 25  1  0  0  0  0
 22 17  2  0  0  0  0
 23 21  2  0  0  0  0
 24 23  1  0  0  0  0
 24 20  1  0  0  0  0
 26 25  1  0  0  0  0
 26 19  1  6  0  0  0
 27 11  1  0  0  0  0
 28 27  1  0  0  0  0
 29 28  1  0  0  0  0
 30 29  1  0  0  0  0
 30 31  1  0  0  0  0
 32 35  1  0  0  0  0
 33 35  1  0  0  0  0
 33 31  1  1  0  0  0
 34 33  1  0  0  0  0
 35 37  1  1  0  0  0
 36 32  1  0  0  0  0
 36 34  1  0  0  0  0
 37 38  1  0  0  0  0
 38 39  1  0  0  0  0
 39 41  1  6  0  0  0
 40 39  1  0  0  0  0
M  END
>  <MODEL>
6

>  <REMARK>
 VINA RESULT:      -7.3      2.516      7.261
  Name = 
  10 active torsions:
  status: ('A' for Active; 'I' for Inactive)
    1  A    between atoms: C_1  and  C_33
    2  A    between atoms: C_4  and  C_21
    3  A    between atoms: C_4  and  C_29
    4  A    between atoms: N_6  and  C_33
    5  A    between atoms: N_6  and  C_40
    6  A    between atoms: C_8  and  O_28
    7  A    between atoms: C_8  and  C_29
    8  A    between atoms: C_11  and  O_28
    9  A    between atoms: C_21  and  N_22
   10  A    between atoms: C_30  and  C_37
                            x       y       z     vdW  Elec       q    Type
                         _______ _______ _______ _____ _____    ______ ____

>  <TORSDO>
F 10

$$$$
=
 OpenBabel11042419003D

 41 46  0  0  1  0  0  0  0  0999 V2000
  191.2400  175.4150  143.5360 C   0  0  0  0  0  0  0  0  0  0  0  0
  189.9010  173.4120  140.0940 C   0  0  0  0  0  0  0  0  0  0  0  0
  190.3650  174.0770  141.2450 C   0  0  0  0  0  0  0  0  0  0  0  0
  191.7080  176.0530  144.8200 C   0  0  0  0  0  2  0  0  0  0  0  0
  189.4810  174.6330  142.1130 N   0  0  0  0  0  0  0  0  0  0  0  0
  188.4440  173.2890  139.8070 C   0  0  0  0  0  1  0  0  0  0  0  0
  192.1830  172.9500  139.4350 C   0  0  0  0  0  3  0  0  0  0  0  0
  192.1960  174.8430  142.6610 C   0  0  0  0  0  0  0  0  0  0  0  0
  193.0050  176.8210  144.5990 C   0  0  0  0  0  2  0  0  0  0  0  0
  190.8120  172.8530  139.1970 C   0  0  0  0  0  3  0  0  0  0  0  0
  194.0120  175.9310  144.0390 N   0  0  0  0  0  0  0  0  0  0  0  0
  194.5260  174.2990  142.4500 O   0  0  0  0  0  0  0  0  0  0  0  0
  191.7540  174.1730  141.4970 C   0  0  0  0  0  0  0  0  0  0  0  0
  193.6400  174.9990  143.0110 C   0  0  0  0  0  0  0  0  0  0  0  0
  189.8620  175.2940  143.2380 C   0  0  0  0  0  0  0  0  0  0  0  0
  192.6480  173.6060  140.5760 C   0  0  0  0  0  3  0  0  0  0  0  0
  187.7670  176.5880  143.5780 N   0  0  0  0  0  0  0  0  0  0  0  0
  188.7330  175.7150  145.4400 N   0  0  0  0  0  0  0  0  0  0  0  0
  184.0040  178.6630  146.1340 C   0  0  0  0  0  1  0  0  0  0  0  0
  186.0160  177.6440  147.2040 C   0  0  0  0  0  2  0  0  0  0  0  0
  187.0340  176.9000  144.6580 C   0  0  1  0  0  3  0  0  0  0  0  0
  188.7860  175.8550  144.0920 C   0  0  0  0  0  0  0  0  0  0  0  0
  187.6300  176.4000  145.7790 C   0  0  0  0  0  0  0  0  0  0  0  0
  187.0460  176.5060  147.1520 C   0  0  0  0  0  2  0  0  0  0  0  0
  185.8140  177.7660  144.6750 C   0  0  0  0  0  2  0  0  0  0  0  0
  185.0600  177.5860  146.0020 C   0  0  2  0  0  3  0  0  0  0  0  0
  195.3430  175.9270  144.6280 C   0  0  0  0  0  2  0  0  0  0  0  0
  195.3510  175.1050  145.9060 C   0  0  0  0  0  2  0  0  0  0  0  0
  196.2620  173.9010  145.7510 C   0  0  0  0  0  2  0  0  0  0  0  0
  195.4660  172.6980  145.2770 C   0  0  0  0  0  2  0  0  0  0  0  0
  196.3250  171.6220  145.0590 O   0  0  0  0  0  0  0  0  0  0  0  0
  194.9110  168.5180  147.0380 S   0  0  0  0  0  0  0  0  0  0  0  0
  196.1110  170.7670  146.1450 C   0  0  2  0  0  3  0  0  0  0  0  0
  197.1960  169.7220  146.2230 C   0  0  0  0  0  2  0  0  0  0  0  0
  194.7840  170.0290  146.0290 C   0  0  1  0  0  3  0  0  0  0  0  0
  196.7150  168.6990  147.2260 C   0  0  0  0  0  2  0  0  0  0  0  0
  194.5150  169.6590  144.6480 N   0  0  0  0  0  2  0  0  0  0  0  0
  193.0750  169.5010  144.5270 C   0  0  0  0  0  2  0  0  0  0  0  0
  192.5280  170.4950  143.5210 C   0  0  2  0  0  3  0  0  0  0  0  0
  193.5750  171.0270  142.7670 O   0  0  0  0  0  1  0  0  0  0  0  0
  191.8230  171.6140  144.2570 C   0  0  0  0  0  1  0  0  0  0  0  0
  1  4  1  0  0  0  0
  2  3  1  0  0  0  0
  3 13  2  0  0  0  0
  3  5  1  0  0  0  0
  5 15  2  0  0  0  0
  6  2  1  0  0  0  0
  7 16  2  0  0  0  0
  8 14  1  0  0  0  0
  8  1  2  0  0  0  0
  9  4  1  0  0  0  0
 10  7  1  0  0  0  0
 10  2  2  0  0  0  0
 11  9  1  0  0  0  0
 11 27  1  0  0  0  0
 12 14  2  0  0  0  0
 13  8  1  0  0  0  0
 14 11  1  0  0  0  0
 15  1  1  0  0  0  0
 15 22  1  0  0  0  0
 16 13  1  0  0  0  0
 17 22  2  0  0  0  0
 17 21  1  0  0  0  0
 18 23  2  0  0  0  0
 21 25  1  1  0  0  0
 21 23  1  0  0  0  0
 22 18  1  0  0  0  0
 23 24  1  0  0  0  0
 24 20  1  0  0  0  0
 25 26  1  0  0  0  0
 26 19  1  1  0  0  0
 26 20  1  0  0  0  0
 27 28  1  0  0  0  0
 29 28  1  0  0  0  0
 30 29  1  0  0  0  0
 31 30  1  0  0  0  0
 32 36  1  0  0  0  0
 33 31  1  6  0  0  0
 33 34  1  0  0  0  0
 34 36  1  0  0  0  0
 35 37  1  6  0  0  0
 35 33  1  0  0  0  0
 35 32  1  0  0  0  0
 38 37  1  0  0  0  0
 39 41  1  1  0  0  0
 39 38  1  0  0  0  0
 40 39  1  0  0  0  0
M  END
>  <MODEL>
7

>  <REMARK>
 VINA RESULT:      -7.1      2.748      6.539
  Name = 
  10 active torsions:
  status: ('A' for Active; 'I' for Inactive)
    1  A    between atoms: C_1  and  C_33
    2  A    between atoms: C_4  and  C_21
    3  A    between atoms: C_4  and  C_29
    4  A    between atoms: N_6  and  C_33
    5  A    between atoms: N_6  and  C_40
    6  A    between atoms: C_8  and  O_28
    7  A    between atoms: C_8  and  C_29
    8  A    between atoms: C_11  and  O_28
    9  A    between atoms: C_21  and  N_22
   10  A    between atoms: C_30  and  C_37
                            x       y       z     vdW  Elec       q    Type
                         _______ _______ _______ _____ _____    ______ ____

>  <TORSDO>
F 10

$$$$
=
 OpenBabel11042419003D

 41 46  0  0  1  0  0  0  0  0999 V2000
  190.3480  174.9830  144.0180 C   0  0  0  0  0  0  0  0  0  0  0  0
  194.5070  175.3850  144.4540 C   0  0  0  0  0  0  0  0  0  0  0  0
  193.1110  175.2550  144.3240 C   0  0  0  0  0  0  0  0  0  0  0  0
  188.8620  174.7510  143.9000 C   0  0  0  0  0  2  0  0  0  0  0  0
  192.5840  174.6310  143.2390 N   0  0  0  0  0  0  0  0  0  0  0  0
  195.4340  174.8360  143.4240 C   0  0  0  0  0  1  0  0  0  0  0  0
  194.2070  176.5630  146.5460 C   0  0  0  0  0  3  0  0  0  0  0  0
  190.8560  175.6340  145.1680 C   0  0  0  0  0  0  0  0  0  0  0  0
  188.0860  175.9510  144.4270 C   0  0  0  0  0  2  0  0  0  0  0  0
  195.0460  176.0370  145.5640 C   0  0  0  0  0  3  0  0  0  0  0  0
  188.4830  176.2260  145.8000 N   0  0  0  0  0  0  0  0  0  0  0  0
  190.2330  176.4920  147.3240 O   0  0  0  0  0  0  0  0  0  0  0  0
  192.2550  175.7780  145.3200 C   0  0  0  0  0  0  0  0  0  0  0  0
  189.8710  176.1550  146.1640 C   0  0  0  0  0  0  0  0  0  0  0  0
  191.2480  174.4780  143.0480 C   0  0  0  0  0  0  0  0  0  0  0  0
  192.8220  176.4340  146.4230 C   0  0  0  0  0  3  0  0  0  0  0  0
  191.1930  172.5080  141.5330 N   0  0  0  0  0  0  0  0  0  0  0  0
  190.0360  174.3410  140.8530 N   0  0  0  0  0  0  0  0  0  0  0  0
  189.9690  169.8550  137.4750 C   0  0  0  0  0  1  0  0  0  0  0  0
  189.5220  172.2990  137.7260 C   0  0  0  0  0  2  0  0  0  0  0  0
  190.6040  172.2600  140.3530 C   0  0  1  0  0  3  0  0  0  0  0  0
  190.8140  173.7800  141.8130 C   0  0  0  0  0  0  0  0  0  0  0  0
  189.9330  173.3710  139.9320 C   0  0  0  0  0  0  0  0  0  0  0  0
  189.1080  173.4240  138.6850 C   0  0  0  0  0  2  0  0  0  0  0  0
  190.7460  171.0110  139.5420 C   0  0  0  0  0  2  0  0  0  0  0  0
  189.6510  170.9560  138.4650 C   0  0  2  0  0  3  0  0  0  0  0  0
  187.4440  176.4440  146.7950 C   0  0  0  0  0  2  0  0  0  0  0  0
  186.6420  177.6900  146.4540 C   0  0  0  0  0  2  0  0  0  0  0  0
  185.2740  177.3050  145.9230 C   0  0  0  0  0  2  0  0  0  0  0  0
  184.2930  178.4470  146.1240 C   0  0  0  0  0  2  0  0  0  0  0  0
  183.8310  178.8930  144.8860 O   0  0  0  0  0  0  0  0  0  0  0  0
  185.3090  177.9320  141.3590 S   0  0  0  0  0  0  0  0  0  0  0  0
  184.7590  178.4060  143.9610 C   0  0  2  0  0  3  0  0  0  0  0  0
  185.7080  179.4970  143.5330 C   0  0  0  0  0  2  0  0  0  0  0  0
  184.0800  177.8820  142.7030 C   0  0  1  0  0  3  0  0  0  0  0  0
  186.4580  178.9500  142.3400 C   0  0  0  0  0  2  0  0  0  0  0  0
  182.9440  178.7170  142.3410 N   0  0  0  0  0  2  0  0  0  0  0  0
  182.5100  178.2870  141.0210 C   0  0  0  0  0  2  0  0  0  0  0  0
  181.0490  178.6420  140.8170 C   0  0  2  0  0  3  0  0  0  0  0  0
  180.8720  180.0180  140.9650 O   0  0  0  0  0  1  0  0  0  0  0  0
  180.2100  177.9150  141.8460 C   0  0  0  0  0  1  0  0  0  0  0  0
  1  8  1  0  0  0  0
  2 10  2  0  0  0  0
  3  2  1  0  0  0  0
  3 13  1  0  0  0  0
  4  1  1  0  0  0  0
  4  9  1  0  0  0  0
  5  3  2  0  0  0  0
  6  2  1  0  0  0  0
  8 13  2  0  0  0  0
  8 14  1  0  0  0  0
  9 11  1  0  0  0  0
 10  7  1  0  0  0  0
 11 14  1  0  0  0  0
 11 27  1  0  0  0  0
 13 16  1  0  0  0  0
 14 12  2  0  0  0  0
 15  5  1  0  0  0  0
 15  1  2  0  0  0  0
 16  7  2  0  0  0  0
 17 22  2  0  0  0  0
 18 22  1  0  0  0  0
 20 26  1  0  0  0  0
 20 24  1  0  0  0  0
 21 25  1  6  0  0  0
 21 17  1  0  0  0  0
 22 15  1  0  0  0  0
 23 21  1  0  0  0  0
 23 18  2  0  0  0  0
 24 23  1  0  0  0  0
 26 19  1  6  0  0  0
 26 25  1  0  0  0  0
 28 27  1  0  0  0  0
 29 30  1  0  0  0  0
 29 28  1  0  0  0  0
 31 30  1  0  0  0  0
 32 36  1  0  0  0  0
 32 35  1  0  0  0  0
 33 31  1  1  0  0  0
 34 33  1  0  0  0  0
 35 37  1  6  0  0  0
 35 33  1  0  0  0  0
 36 34  1  0  0  0  0
 38 37  1  0  0  0  0
 39 40  1  0  0  0  0
 39 38  1  0  0  0  0
 39 41  1  1  0  0  0
M  END
>  <MODEL>
8

>  <REMARK>
 VINA RESULT:      -6.9      3.042      7.620
  Name = 
  10 active torsions:
  status: ('A' for Active; 'I' for Inactive)
    1  A    between atoms: C_1  and  C_33
    2  A    between atoms: C_4  and  C_21
    3  A    between atoms: C_4  and  C_29
    4  A    between atoms: N_6  and  C_33
    5  A    between atoms: N_6  and  C_40
    6  A    between atoms: C_8  and  O_28
    7  A    between atoms: C_8  and  C_29
    8  A    between atoms: C_11  and  O_28
    9  A    between atoms: C_21  and  N_22
   10  A    between atoms: C_30  and  C_37
                            x       y       z     vdW  Elec       q    Type
                         _______ _______ _______ _____ _____    ______ ____

>  <TORSDO>
F 10

$$$$
=
 OpenBabel11042419003D

 41 46  0  0  1  0  0  0  0  0999 V2000
  189.2790  173.8630  142.2990 C   0  0  0  0  0  0  0  0  0  0  0  0
  188.4490  174.2320  138.1980 C   0  0  0  0  0  0  0  0  0  0  0  0
  188.7360  174.0940  139.5700 C   0  0  0  0  0  0  0  0  0  0  0  0
  189.5020  173.6730  143.7790 C   0  0  0  0  0  2  0  0  0  0  0  0
  188.1030  174.8790  140.4790 N   0  0  0  0  0  0  0  0  0  0  0  0
  187.4460  175.2220  137.7130 C   0  0  0  0  0  1  0  0  0  0  0  0
  190.0550  172.4970  137.6830 C   0  0  0  0  0  3  0  0  0  0  0  0
  189.9560  173.0200  141.3850 C   0  0  0  0  0  0  0  0  0  0  0  0
  190.9630  173.3550  144.0680 C   0  0  0  0  0  2  0  0  0  0  0  0
  189.1100  173.4330  137.2630 C   0  0  0  0  0  3  0  0  0  0  0  0
  191.3690  172.1840  143.3050 N   0  0  0  0  0  0  0  0  0  0  0  0
  191.3780  171.0890  141.2420 O   0  0  0  0  0  0  0  0  0  0  0  0
  189.6870  173.1420  140.0030 C   0  0  0  0  0  0  0  0  0  0  0  0
  190.9450  172.0460  141.9390 C   0  0  0  0  0  0  0  0  0  0  0  0
  188.3370  174.8030  141.8150 C   0  0  0  0  0  0  0  0  0  0  0  0
  190.3410  172.3550  139.0420 C   0  0  0  0  0  3  0  0  0  0  0  0
  188.0410  176.1130  143.9060 N   0  0  0  0  0  0  0  0  0  0  0  0
  186.3600  176.2420  142.3830 N   0  0  0  0  0  2  0  0  0  0  0  0
  185.7540  179.1670  147.1390 C   0  0  0  0  0  1  0  0  0  0  0  0
  184.6620  178.2330  145.0970 C   0  0  0  0  0  2  0  0  0  0  0  0
  187.0760  176.9250  144.3640 C   0  0  0  0  0  0  0  0  0  0  0  0
  187.5770  175.7270  142.6920 C   0  0  0  0  0  0  0  0  0  0  0  0
  186.0540  176.9790  143.4620 C   0  0  0  0  0  0  0  0  0  0  0  0
  184.8440  177.8430  143.6230 C   0  0  0  0  0  2  0  0  0  0  0  0
  187.0410  177.5830  145.7070 C   0  0  0  0  0  2  0  0  0  0  0  0
  185.9880  178.7030  145.7170 C   0  0  2  0  0  3  0  0  0  0  0  0
  192.0940  171.1240  143.9900 C   0  0  0  0  0  2  0  0  0  0  0  0
  193.5840  171.4230  143.9960 C   0  0  0  0  0  2  0  0  0  0  0  0
  194.0460  171.7660  145.4000 C   0  0  0  0  0  2  0  0  0  0  0  0
  195.5310  172.0820  145.4010 C   0  0  0  0  0  2  0  0  0  0  0  0
  195.7240  173.4320  145.6900 O   0  0  0  0  0  0  0  0  0  0  0  0
  196.2020  176.2500  142.9720 S   0  0  0  0  0  0  0  0  0  0  0  0
  196.1080  174.0060  144.4730 C   0  0  2  0  0  3  0  0  0  0  0  0
  197.5360  174.4880  144.5380 C   0  0  0  0  0  2  0  0  0  0  0  0
  195.2440  175.2090  144.1190 C   0  0  1  0  0  3  0  0  0  0  0  0
  197.7430  175.3360  143.3040 C   0  0  0  0  0  2  0  0  0  0  0  0
  194.9200  175.9830  145.3080 N   0  0  0  0  0  2  0  0  0  0  0  0
  193.6000  176.5530  145.0930 C   0  0  0  0  0  2  0  0  0  0  0  0
  192.7130  176.2700  146.2910 C   0  0  2  0  0  3  0  0  0  0  0  0
  192.8410  174.9320  146.6670 O   0  0  0  0  0  1  0  0  0  0  0  0
  191.2720  176.5520  145.9230 C   0  0  0  0  0  1  0  0  0  0  0  0
  1  4  1  0  0  0  0
  2  3  1  0  0  0  0
  3 13  2  0  0  0  0
  3  5  1  0  0  0  0
  4  9  1  0  0  0  0
  5 15  2  0  0  0  0
  6  2  1  0  0  0  0
  7 16  2  0  0  0  0
  8 14  1  0  0  0  0
  8  1  2  0  0  0  0
 10  7  1  0  0  0  0
 10  2  2  0  0  0  0
 11 27  1  0  0  0  0
 11  9  1  0  0  0  0
 12 14  2  0  0  0  0
 13  8  1  0  0  0  0
 14 11  1  0  0  0  0
 15  1  1  0  0  0  0
 15 22  1  0  0  0  0
 16 13  1  0  0  0  0
 17 21  1  0  0  0  0
 18 22  1  0  0  0  0
 18 23  1  0  0  0  0
 20 26  1  0  0  0  0
 21 25  1  0  0  0  0
 22 17  2  0  0  0  0
 23 24  1  0  0  0  0
 23 21  2  0  0  0  0
 24 20  1  0  0  0  0
 25 26  1  0  0  0  0
 26 19  1  1  0  0  0
 27 28  1  0  0  0  0
 28 29  1  0  0  0  0
 29 30  1  0  0  0  0
 30 31  1  0  0  0  0
 32 36  1  0  0  0  0
 32 35  1  0  0  0  0
 33 34  1  0  0  0  0
 33 31  1  1  0  0  0
 35 33  1  0  0  0  0
 35 37  1  1  0  0  0
 36 34  1  0  0  0  0
 38 37  1  0  0  0  0
 38 39  1  0  0  0  0
 39 41  1  6  0  0  0
 39 40  1  0  0  0  0
M  END
>  <MODEL>
9

>  <REMARK>
 VINA RESULT:      -6.9      1.622      6.125
  Name = 
  10 active torsions:
  status: ('A' for Active; 'I' for Inactive)
    1  A    between atoms: C_1  and  C_33
    2  A    between atoms: C_4  and  C_21
    3  A    between atoms: C_4  and  C_29
    4  A    between atoms: N_6  and  C_33
    5  A    between atoms: N_6  and  C_40
    6  A    between atoms: C_8  and  O_28
    7  A    between atoms: C_8  and  C_29
    8  A    between atoms: C_11  and  O_28
    9  A    between atoms: C_21  and  N_22
   10  A    between atoms: C_30  and  C_37
                            x       y       z     vdW  Elec       q    Type
                         _______ _______ _______ _____ _____    ______ ____

>  <TORSDO>
F 10

$$$$
