=
 OpenBabel11042417163D

 31 32  0  0  1  0  0  0  0  0999 V2000
  186.9760  176.1290  142.5420 C   0  0  2  0  0  3  0  0  0  0  0  0
  185.0020  178.5590  147.4590 C   0  0  0  0  0  2  0  0  0  0  0  0
  184.9390  177.8610  145.0200 C   0  0  0  0  0  3  0  0  0  0  0  0
  185.9100  177.4540  147.7610 N   0  0  0  0  0  2  0  0  0  0  0  0
  187.6300  176.2250  146.6720 C   0  0  0  0  0  3  0  0  0  0  0  0
  188.8720  174.8400  145.2880 F   0  0  0  0  0  0  0  0  0  0  0  0
  185.9890  177.3710  144.4050 C   0  0  0  0  0  0  0  0  0  0  0  0
  187.0600  176.8540  143.8430 C   0  0  0  0  0  0  0  0  0  0  0  0
  185.0940  179.0000  145.9840 C   0  0  0  0  0  2  0  0  0  0  0  0
  187.1710  177.3890  147.1090 C   0  0  0  0  0  3  0  0  0  0  0  0
  188.7560  176.1620  145.6780 C   0  0  1  0  0  0  0  0  0  0  0  0
  188.6520  175.5320  142.1520 S   0  0  0  0  0  0  0  0  0  0  0  0
  189.3830  176.8100  143.2200 C   0  0  1  0  0  3  0  0  0  0  0  0
  188.4460  177.0450  144.4130 C   0  0  1  0  0  3  0  0  0  0  0  0
  186.4960  177.0620  141.4370 C   0  0  0  0  0  2  0  0  0  0  0  0
  187.1830  176.7910  140.2550 O   0  0  0  0  0  1  0  0  0  0  0  0
  190.0800  176.5610  146.3550 C   0  0  0  0  0  2  0  0  0  0  0  0
  190.5140  175.6130  147.4650 C   0  0  0  0  0  2  0  0  0  0  0  0
  192.0000  175.3330  147.3520 C   0  0  0  0  0  2  0  0  0  0  0  0
  192.6850  176.4400  146.5680 C   0  0  0  0  0  2  0  0  0  0  0  0
  194.0740  176.2350  146.5580 O   0  0  0  0  0  0  0  0  0  0  0  0
  195.6140  176.2170  144.8470 F   0  0  0  0  0  0  0  0  0  0  0  0
  193.6080  177.1830  144.5550 F   0  0  0  0  0  0  0  0  0  0  0  0
  194.6150  176.9490  145.4720 C   0  0  0  0  0  0  0  0  0  0  0  0
  195.1180  178.1720  145.8890 F   0  0  0  0  0  0  0  0  0  0  0  0
  190.6810  176.4560  143.5920 O   0  0  0  0  0  0  0  0  0  0  0  0
  190.9860  175.3440  142.8030 C   0  0  0  0  0  2  0  0  0  0  0  0
  192.4580  173.7270  144.0720 C   0  0  0  0  0  0  0  0  0  0  0  0
  192.2930  174.8230  143.1710 N   0  0  0  0  0  2  0  0  0  0  0  0
  191.4580  173.1820  144.6110 O   0  0  0  0  0  0  0  0  0  0  0  0
  193.7640  173.2490  144.3680 N   0  0  0  0  0  1  0  0  0  0  0  0
  1 15  1  6  0  0  0
  1  8  1  0  0  0  0
  2  4  1  0  0  0  0
  3  9  1  0  0  0  0
  5 10  2  0  0  0  0
  7  3  2  0  0  0  0
  8  7  2  0  0  0  0
  9  2  1  0  0  0  0
 10  4  1  0  0  0  0
 11  6  1  6  0  0  0
 11 17  1  0  0  0  0
 11  5  1  0  0  0  0
 12  1  1  0  0  0  0
 12 13  1  0  0  0  0
 13 26  1  1  0  0  0
 13 14  1  0  0  0  0
 14  8  1  6  0  0  0
 14 11  1  0  0  0  0
 16 15  1  0  0  0  0
 17 18  1  0  0  0  0
 19 18  1  0  0  0  0
 20 19  1  0  0  0  0
 21 20  1  0  0  0  0
 22 24  1  0  0  0  0
 23 24  1  0  0  0  0
 24 25  1  0  0  0  0
 24 21  1  0  0  0  0
 27 29  1  0  0  0  0
 27 26  1  0  0  0  0
 28 31  1  0  0  0  0
 28 30  2  0  0  0  0
 29 28  1  0  0  0  0
M  END
>  <MODEL>
1

>  <REMARK>
 VINA RESULT:      -6.8      0.000      0.000
  Name = 
  10 active torsions:
  status: ('A' for Active; 'I' for Inactive)
    1  A    between atoms: C_1  and  N_10
    2  A    between atoms: C_1  and  O_16
    3  A    between atoms: C_2  and  C_5
    4  A    between atoms: C_3  and  C_8
    5  A    between atoms: C_3  and  C_23
    6  A    between atoms: C_8  and  C_29
    7  A    between atoms: O_16  and  C_26
    8  A    between atoms: C_18  and  O_27
    9  A    between atoms: C_18  and  C_29
   10  A    between atoms: C_24  and  O_27
                            x       y       z     vdW  Elec       q    Type
                         _______ _______ _______ _____ _____    ______ ____

>  <TORSDO>
F 10

$$$$
=
 OpenBabel11042417163D

 31 32  0  0  1  0  0  0  0  0999 V2000
  186.9710  176.1940  142.4890 C   0  0  2  0  0  3  0  0  0  0  0  0
  185.1200  178.5320  147.4970 C   0  0  0  0  0  2  0  0  0  0  0  0
  184.9840  177.8530  145.0560 C   0  0  0  0  0  3  0  0  0  0  0  0
  186.0660  177.4480  147.7560 N   0  0  0  0  0  2  0  0  0  0  0  0
  187.7740  176.2720  146.5940 C   0  0  0  0  0  3  0  0  0  0  0  0
  188.9980  174.9300  145.1520 F   0  0  0  0  0  0  0  0  0  0  0  0
  186.0230  177.3940  144.3990 C   0  0  0  0  0  0  0  0  0  0  0  0
  187.0850  176.9100  143.7930 C   0  0  0  0  0  0  0  0  0  0  0  0
  185.1470  178.9880  146.0240 C   0  0  0  0  0  2  0  0  0  0  0  0
  187.3030  177.4200  147.0570 C   0  0  0  0  0  3  0  0  0  0  0  0
  188.8640  176.2450  145.5590 C   0  0  1  0  0  0  0  0  0  0  0  0
  188.6460  175.6420  142.0330 S   0  0  0  0  0  0  0  0  0  0  0  0
  189.3840  176.9290  143.0850 C   0  0  1  0  0  3  0  0  0  0  0  0
  188.4860  177.1300  144.3140 C   0  0  1  0  0  3  0  0  0  0  0  0
  186.4280  177.1230  141.4120 C   0  0  0  0  0  2  0  0  0  0  0  0
  187.0570  176.8590  140.1960 O   0  0  0  0  0  1  0  0  0  0  0  0
  190.2020  176.6720  146.1900 C   0  0  0  0  0  2  0  0  0  0  0  0
  190.4150  176.1360  147.6000 C   0  0  0  0  0  2  0  0  0  0  0  0
  191.6970  175.3270  147.6560 C   0  0  0  0  0  2  0  0  0  0  0  0
  192.3280  175.2490  146.2760 C   0  0  0  0  0  2  0  0  0  0  0  0
  193.7270  175.3190  146.3820 O   0  0  0  0  0  0  0  0  0  0  0  0
  194.2180  177.4020  147.2300 F   0  0  0  0  0  0  0  0  0  0  0  0
  195.3700  176.5920  145.4810 F   0  0  0  0  0  0  0  0  0  0  0  0
  194.1240  176.6350  146.0780 C   0  0  0  0  0  0  0  0  0  0  0  0
  193.2350  177.2250  145.1910 F   0  0  0  0  0  0  0  0  0  0  0  0
  190.7040  176.6040  143.4070 O   0  0  0  0  0  0  0  0  0  0  0  0
  191.0920  175.6860  142.4280 C   0  0  0  0  0  2  0  0  0  0  0  0
  193.5750  175.2510  142.6200 C   0  0  0  0  0  0  0  0  0  0  0  0
  192.2200  174.9030  142.9080 N   0  0  0  0  0  2  0  0  0  0  0  0
  193.8430  176.2520  141.9030 O   0  0  0  0  0  0  0  0  0  0  0  0
  194.6320  174.4560  143.1430 N   0  0  0  0  0  1  0  0  0  0  0  0
  1 15  1  6  0  0  0
  1  8  1  0  0  0  0
  2  4  1  0  0  0  0
  3  9  1  0  0  0  0
  5 10  2  0  0  0  0
  7  3  2  0  0  0  0
  8  7  2  0  0  0  0
  9  2  1  0  0  0  0
 10  4  1  0  0  0  0
 11  6  1  6  0  0  0
 11 17  1  0  0  0  0
 11  5  1  0  0  0  0
 12  1  1  0  0  0  0
 12 13  1  0  0  0  0
 13 26  1  1  0  0  0
 13 14  1  0  0  0  0
 14  8  1  6  0  0  0
 14 11  1  0  0  0  0
 16 15  1  0  0  0  0
 17 18  1  0  0  0  0
 18 19  1  0  0  0  0
 20 21  1  0  0  0  0
 20 19  1  0  0  0  0
 23 24  1  0  0  0  0
 24 21  1  0  0  0  0
 24 22  1  0  0  0  0
 25 24  1  0  0  0  0
 27 29  1  0  0  0  0
 27 26  1  0  0  0  0
 28 29  1  0  0  0  0
 28 31  1  0  0  0  0
 30 28  2  0  0  0  0
M  END
>  <MODEL>
2

>  <REMARK>
 VINA RESULT:      -6.8      0.998      1.328
  Name = 
  10 active torsions:
  status: ('A' for Active; 'I' for Inactive)
    1  A    between atoms: C_1  and  N_10
    2  A    between atoms: C_1  and  O_16
    3  A    between atoms: C_2  and  C_5
    4  A    between atoms: C_3  and  C_8
    5  A    between atoms: C_3  and  C_23
    6  A    between atoms: C_8  and  C_29
    7  A    between atoms: O_16  and  C_26
    8  A    between atoms: C_18  and  O_27
    9  A    between atoms: C_18  and  C_29
   10  A    between atoms: C_24  and  O_27
                            x       y       z     vdW  Elec       q    Type
                         _______ _______ _______ _____ _____    ______ ____

>  <TORSDO>
F 10

$$$$
=
 OpenBabel11042417163D

 31 32  0  0  1  0  0  0  0  0999 V2000
  189.5710  177.5350  144.6260 C   0  0  2  0  0  3  0  0  0  0  0  0
  184.1710  178.2770  146.6920 C   0  0  0  0  0  2  0  0  0  0  0  0
  186.6810  177.9240  146.8140 C   0  0  0  0  0  3  0  0  0  0  0  0
  184.3170  178.9280  145.3910 N   0  0  0  0  0  2  0  0  0  0  0  0
  185.7470  178.8010  143.4960 C   0  0  0  0  0  3  0  0  0  0  0  0
  187.5300  178.8850  142.0160 F   0  0  0  0  0  0  0  0  0  0  0  0
  187.4010  177.6520  145.7520 C   0  0  0  0  0  0  0  0  0  0  0  0
  188.0840  177.4130  144.6530 C   0  0  0  0  0  0  0  0  0  0  0  0
  185.3270  177.2990  146.9850 C   0  0  0  0  0  2  0  0  0  0  0  0
  184.8870  178.2050  144.3090 C   0  0  0  0  0  3  0  0  0  0  0  0
  186.6330  177.9980  142.5850 C   0  0  1  0  0  0  0  0  0  0  0  0
  190.1060  177.1810  142.9220 S   0  0  0  0  0  0  0  0  0  0  0  0
  188.5780  176.2450  142.6090 C   0  0  1  0  0  3  0  0  0  0  0  0
  187.4320  176.9060  143.3880 C   0  0  1  0  0  3  0  0  0  0  0  0
  190.2090  176.5360  145.5810 C   0  0  0  0  0  2  0  0  0  0  0  0
  191.5960  176.6770  145.5590 O   0  0  0  0  0  1  0  0  0  0  0  0
  185.8010  177.3860  141.4430 C   0  0  0  0  0  2  0  0  0  0  0  0
  185.0520  178.4160  140.6080 C   0  0  0  0  0  2  0  0  0  0  0  0
  183.6750  177.8890  140.2520 C   0  0  0  0  0  2  0  0  0  0  0  0
  182.6710  178.2780  141.3240 C   0  0  0  0  0  2  0  0  0  0  0  0
  181.5670  178.9200  140.7400 O   0  0  0  0  0  0  0  0  0  0  0  0
  181.0500  179.5150  142.9030 F   0  0  0  0  0  0  0  0  0  0  0  0
  179.5780  179.8790  141.2470 F   0  0  0  0  0  0  0  0  0  0  0  0
  180.5500  179.0120  141.7100 C   0  0  0  0  0  0  0  0  0  0  0  0
  179.9650  177.7750  141.9290 F   0  0  0  0  0  0  0  0  0  0  0  0
  188.3340  176.1450  141.2380 O   0  0  0  0  0  0  0  0  0  0  0  0
  188.3270  174.7720  140.9790 C   0  0  0  0  0  2  0  0  0  0  0  0
  188.6900  173.2820  138.9680 C   0  0  0  0  0  0  0  0  0  0  0  0
  188.3420  174.5430  139.5420 N   0  0  0  0  0  2  0  0  0  0  0  0
  189.0300  172.3150  139.7010 O   0  0  0  0  0  0  0  0  0  0  0  0
  188.6580  173.1180  137.5560 N   0  0  0  0  0  1  0  0  0  0  0  0
  1  8  1  0  0  0  0
  1 15  1  1  0  0  0
  2  9  1  0  0  0  0
  3  9  1  0  0  0  0
  4  2  1  0  0  0  0
  5 10  2  0  0  0  0
  7  3  2  0  0  0  0
  8  7  2  0  0  0  0
 10  4  1  0  0  0  0
 11  6  1  6  0  0  0
 11 14  1  0  0  0  0
 11  5  1  0  0  0  0
 12  1  1  0  0  0  0
 13 26  1  6  0  0  0
 13 12  1  0  0  0  0
 13 14  1  0  0  0  0
 14  8  1  1  0  0  0
 16 15  1  0  0  0  0
 17 11  1  0  0  0  0
 18 17  1  0  0  0  0
 19 18  1  0  0  0  0
 19 20  1  0  0  0  0
 21 20  1  0  0  0  0
 21 24  1  0  0  0  0
 23 24  1  0  0  0  0
 24 25  1  0  0  0  0
 24 22  1  0  0  0  0
 27 26  1  0  0  0  0
 28 29  1  0  0  0  0
 28 30  2  0  0  0  0
 29 27  1  0  0  0  0
 31 28  1  0  0  0  0
M  END
>  <MODEL>
3

>  <REMARK>
 VINA RESULT:      -6.5      4.448      7.807
  Name = 
  10 active torsions:
  status: ('A' for Active; 'I' for Inactive)
    1  A    between atoms: C_1  and  N_10
    2  A    between atoms: C_1  and  O_16
    3  A    between atoms: C_2  and  C_5
    4  A    between atoms: C_3  and  C_8
    5  A    between atoms: C_3  and  C_23
    6  A    between atoms: C_8  and  C_29
    7  A    between atoms: O_16  and  C_26
    8  A    between atoms: C_18  and  O_27
    9  A    between atoms: C_18  and  C_29
   10  A    between atoms: C_24  and  O_27
                            x       y       z     vdW  Elec       q    Type
                         _______ _______ _______ _____ _____    ______ ____

>  <TORSDO>
F 10

$$$$
=
 OpenBabel11042417163D

 31 32  0  0  1  0  0  0  0  0999 V2000
  189.8700  177.2550  145.4230 C   0  0  2  0  0  3  0  0  0  0  0  0
  184.1900  178.1740  146.3590 C   0  0  0  0  0  2  0  0  0  0  0  0
  186.6230  177.8120  146.9840 C   0  0  0  0  0  3  0  0  0  0  0  0
  184.5950  178.7340  145.0710 N   0  0  0  0  0  2  0  0  0  0  0  0
  186.3590  178.4680  143.4990 C   0  0  0  0  0  3  0  0  0  0  0  0
  188.3930  178.4380  142.3870 F   0  0  0  0  0  0  0  0  0  0  0  0
  187.5280  177.4630  146.1010 C   0  0  0  0  0  0  0  0  0  0  0  0
  188.4030  177.1460  145.1720 C   0  0  0  0  0  0  0  0  0  0  0  0
  185.2490  177.2100  146.9330 C   0  0  0  0  0  2  0  0  0  0  0  0
  185.3480  177.9350  144.1690 C   0  0  0  0  0  3  0  0  0  0  0  0
  187.3870  177.5990  142.8300 C   0  0  1  0  0  0  0  0  0  0  0  0
  190.7140  176.7820  143.8800 S   0  0  0  0  0  0  0  0  0  0  0  0
  189.2560  175.8380  143.3410 C   0  0  1  0  0  3  0  0  0  0  0  0
  187.9950  176.5580  143.8400 C   0  0  1  0  0  3  0  0  0  0  0  0
  190.2940  176.3180  146.5470 C   0  0  0  0  0  2  0  0  0  0  0  0
  190.7590  177.0590  147.6320 O   0  0  0  0  0  1  0  0  0  0  0  0
  186.7760  176.9170  141.5910 C   0  0  0  0  0  2  0  0  0  0  0  0
  186.4500  177.8800  140.4570 C   0  0  0  0  0  2  0  0  0  0  0  0
  185.0430  177.6240  139.9530 C   0  0  0  0  0  2  0  0  0  0  0  0
  184.0840  178.6510  140.5290 C   0  0  0  0  0  2  0  0  0  0  0  0
  183.1650  178.0250  141.3870 O   0  0  0  0  0  0  0  0  0  0  0  0
  181.6160  179.4920  140.5220 F   0  0  0  0  0  0  0  0  0  0  0  0
  181.8240  177.4280  139.6620 F   0  0  0  0  0  0  0  0  0  0  0  0
  181.8800  178.1650  140.8300 C   0  0  0  0  0  0  0  0  0  0  0  0
  180.9120  177.6820  141.6980 F   0  0  0  0  0  0  0  0  0  0  0  0
  189.2770  175.6460  141.9590 O   0  0  0  0  0  0  0  0  0  0  0  0
  190.0200  174.4780  141.7740 C   0  0  0  0  0  2  0  0  0  0  0  0
  188.4710  173.0550  140.3710 C   0  0  0  0  0  0  0  0  0  0  0  0
  189.6470  173.8520  140.5150 N   0  0  0  0  0  2  0  0  0  0  0  0
  187.7160  172.8400  141.3570 O   0  0  0  0  0  0  0  0  0  0  0  0
  188.1510  172.4940  139.1050 N   0  0  0  0  0  1  0  0  0  0  0  0
  1 15  1  1  0  0  0
  2  9  1  0  0  0  0
  4  2  1  0  0  0  0
  5 10  2  0  0  0  0
  7  3  2  0  0  0  0
  8  1  1  0  0  0  0
  8  7  2  0  0  0  0
  9  3  1  0  0  0  0
 10  4  1  0  0  0  0
 11  6  1  6  0  0  0
 11  5  1  0  0  0  0
 11 14  1  0  0  0  0
 12  1  1  0  0  0  0
 13 26  1  6  0  0  0
 13 14  1  0  0  0  0
 13 12  1  0  0  0  0
 14  8  1  1  0  0  0
 15 16  1  0  0  0  0
 17 11  1  0  0  0  0
 18 17  1  0  0  0  0
 19 18  1  0  0  0  0
 19 20  1  0  0  0  0
 20 21  1  0  0  0  0
 22 24  1  0  0  0  0
 23 24  1  0  0  0  0
 24 21  1  0  0  0  0
 24 25  1  0  0  0  0
 27 26  1  0  0  0  0
 28 29  1  0  0  0  0
 28 30  2  0  0  0  0
 29 27  1  0  0  0  0
 31 28  1  0  0  0  0
M  END
>  <MODEL>
4

>  <REMARK>
 VINA RESULT:      -6.4      3.976      7.273
  Name = 
  10 active torsions:
  status: ('A' for Active; 'I' for Inactive)
    1  A    between atoms: C_1  and  N_10
    2  A    between atoms: C_1  and  O_16
    3  A    between atoms: C_2  and  C_5
    4  A    between atoms: C_3  and  C_8
    5  A    between atoms: C_3  and  C_23
    6  A    between atoms: C_8  and  C_29
    7  A    between atoms: O_16  and  C_26
    8  A    between atoms: C_18  and  O_27
    9  A    between atoms: C_18  and  C_29
   10  A    between atoms: C_24  and  O_27
                            x       y       z     vdW  Elec       q    Type
                         _______ _______ _______ _____ _____    ______ ____

>  <TORSDO>
F 10

$$$$
=
 OpenBabel11042417163D

 31 32  0  0  1  0  0  0  0  0999 V2000
  186.6080  177.9110  141.2430 C   0  0  2  0  0  3  0  0  0  0  0  0
  189.8640  173.0850  141.5340 C   0  0  0  0  0  2  0  0  0  0  0  0
  188.5270  174.9250  140.4100 C   0  0  0  0  0  3  0  0  0  0  0  0
  190.1640  173.9750  142.6550 N   0  0  0  0  0  2  0  0  0  0  0  0
  189.1330  175.7800  143.8080 C   0  0  0  0  0  3  0  0  0  0  0  0
  188.2160  177.8150  144.4370 F   0  0  0  0  0  0  0  0  0  0  0  0
  187.8050  175.7810  141.0920 C   0  0  0  0  0  0  0  0  0  0  0  0
  187.1200  176.6350  141.8230 C   0  0  0  0  0  0  0  0  0  0  0  0
  188.5600  173.4800  140.8110 C   0  0  0  0  0  2  0  0  0  0  0  0
  189.0960  174.5140  143.4220 C   0  0  0  0  0  3  0  0  0  0  0  0
  187.8930  176.4780  144.2930 C   0  0  1  0  0  0  0  0  0  0  0  0
  185.7790  178.8150  142.5880 S   0  0  0  0  0  0  0  0  0  0  0  0
  185.5230  177.2670  143.5070 C   0  0  1  0  0  3  0  0  0  0  0  0
  186.7220  176.3430  143.2510 C   0  0  1  0  0  3  0  0  0  0  0  0
  185.6120  177.6310  140.1250 C   0  0  0  0  0  2  0  0  0  0  0  0
  184.4690  178.4090  140.3010 O   0  0  0  0  0  1  0  0  0  0  0  0
  187.4970  175.9460  145.6830 C   0  0  0  0  0  2  0  0  0  0  0  0
  188.4780  176.3210  146.7860 C   0  0  0  0  0  2  0  0  0  0  0  0
  189.1810  175.0770  147.2950 C   0  0  0  0  0  2  0  0  0  0  0  0
  190.6520  175.3680  147.5360 C   0  0  0  0  0  2  0  0  0  0  0  0
  191.0560  176.4750  146.7730 O   0  0  0  0  0  0  0  0  0  0  0  0
  192.5260  177.0920  145.1110 F   0  0  0  0  0  0  0  0  0  0  0  0
  193.2490  175.9170  146.8830 F   0  0  0  0  0  0  0  0  0  0  0  0
  192.1850  176.1000  146.0200 C   0  0  0  0  0  0  0  0  0  0  0  0
  191.9560  174.9070  145.3510 F   0  0  0  0  0  0  0  0  0  0  0  0
  185.3010  177.5280  144.8600 O   0  0  0  0  0  0  0  0  0  0  0  0
  185.1640  178.9160  144.9350 C   0  0  0  0  0  2  0  0  0  0  0  0
  185.7380  179.1390  147.3880 C   0  0  0  0  0  0  0  0  0  0  0  0
  185.9910  179.4350  146.0130 N   0  0  0  0  0  2  0  0  0  0  0  0
  184.7530  178.4270  147.7200 O   0  0  0  0  0  0  0  0  0  0  0  0
  186.6020  179.6570  148.3900 N   0  0  0  0  0  1  0  0  0  0  0  0
  1 15  1  6  0  0  0
  1  8  1  0  0  0  0
  1 12  1  0  0  0  0
  2  4  1  0  0  0  0
  3  9  1  0  0  0  0
  3  7  2  0  0  0  0
  4 10  1  0  0  0  0
  5 11  1  0  0  0  0
  7  8  2  0  0  0  0
  9  2  1  0  0  0  0
 10  5  2  0  0  0  0
 11  6  1  1  0  0  0
 11 17  1  0  0  0  0
 12 13  1  0  0  0  0
 13 26  1  1  0  0  0
 14  8  1  6  0  0  0
 14 13  1  0  0  0  0
 14 11  1  0  0  0  0
 15 16  1  0  0  0  0
 17 18  1  0  0  0  0
 18 19  1  0  0  0  0
 19 20  1  0  0  0  0
 21 20  1  0  0  0  0
 22 24  1  0  0  0  0
 24 21  1  0  0  0  0
 24 23  1  0  0  0  0
 25 24  1  0  0  0  0
 26 27  1  0  0  0  0
 27 29  1  0  0  0  0
 28 30  2  0  0  0  0
 28 31  1  0  0  0  0
 29 28  1  0  0  0  0
M  END
>  <MODEL>
5

>  <REMARK>
 VINA RESULT:      -6.4      2.642      5.369
  Name = 
  10 active torsions:
  status: ('A' for Active; 'I' for Inactive)
    1  A    between atoms: C_1  and  N_10
    2  A    between atoms: C_1  and  O_16
    3  A    between atoms: C_2  and  C_5
    4  A    between atoms: C_3  and  C_8
    5  A    between atoms: C_3  and  C_23
    6  A    between atoms: C_8  and  C_29
    7  A    between atoms: O_16  and  C_26
    8  A    between atoms: C_18  and  O_27
    9  A    between atoms: C_18  and  C_29
   10  A    between atoms: C_24  and  O_27
                            x       y       z     vdW  Elec       q    Type
                         _______ _______ _______ _____ _____    ______ ____

>  <TORSDO>
F 10

$$$$
=
 OpenBabel11042417163D

 31 32  0  0  1  0  0  0  0  0999 V2000
  187.1640  175.8630  142.7570 C   0  0  2  0  0  3  0  0  0  0  0  0
  185.2440  178.7390  147.4480 C   0  0  0  0  0  2  0  0  0  0  0  0
  185.1720  177.8520  145.0720 C   0  0  0  0  0  3  0  0  0  0  0  0
  186.1120  177.6320  147.8450 N   0  0  0  0  0  2  0  0  0  0  0  0
  187.7950  176.2640  146.8720 C   0  0  0  0  0  3  0  0  0  0  0  0
  188.9980  174.7320  145.6130 F   0  0  0  0  0  0  0  0  0  0  0  0
  186.2080  177.2800  144.5080 C   0  0  0  0  0  0  0  0  0  0  0  0
  187.2650  176.6850  143.9980 C   0  0  0  0  0  0  0  0  0  0  0  0
  185.3600  179.0590  145.9440 C   0  0  0  0  0  2  0  0  0  0  0  0
  187.3740  177.4730  147.2110 C   0  0  0  0  0  3  0  0  0  0  0  0
  188.9250  176.0850  145.8970 C   0  0  1  0  0  0  0  0  0  0  0  0
  188.8210  175.1800  142.4310 S   0  0  0  0  0  0  0  0  0  0  0  0
  189.5890  176.5140  143.4010 C   0  0  1  0  0  3  0  0  0  0  0  0
  188.6540  176.8740  144.5630 C   0  0  1  0  0  3  0  0  0  0  0  0
  186.7230  176.7200  141.5780 C   0  0  0  0  0  2  0  0  0  0  0  0
  187.6190  176.5700  140.5200 O   0  0  0  0  0  1  0  0  0  0  0  0
  190.2580  176.4910  146.5510 C   0  0  0  0  0  2  0  0  0  0  0  0
  191.0230  175.3260  147.1640 C   0  0  0  0  0  2  0  0  0  0  0  0
  192.5070  175.4830  146.8900 C   0  0  0  0  0  2  0  0  0  0  0  0
  192.9990  174.3520  146.0030 C   0  0  0  0  0  2  0  0  0  0  0  0
  191.9090  173.6920  145.4140 O   0  0  0  0  0  0  0  0  0  0  0  0
  192.1150  171.5390  144.6260 F   0  0  0  0  0  0  0  0  0  0  0  0
  191.7800  173.2390  143.1980 F   0  0  0  0  0  0  0  0  0  0  0  0
  192.4000  172.8740  144.3780 C   0  0  0  0  0  0  0  0  0  0  0  0
  193.7670  173.0420  144.2240 F   0  0  0  0  0  0  0  0  0  0  0  0
  190.8720  176.1470  143.8120 O   0  0  0  0  0  0  0  0  0  0  0  0
  191.7060  177.1460  143.3050 C   0  0  0  0  0  2  0  0  0  0  0  0
  193.8980  176.0380  142.7040 C   0  0  0  0  0  0  0  0  0  0  0  0
  193.0950  176.8200  143.5900 N   0  0  0  0  0  2  0  0  0  0  0  0
  193.4130  175.5730  141.6390 O   0  0  0  0  0  0  0  0  0  0  0  0
  195.2570  175.7790  143.0310 N   0  0  0  0  0  1  0  0  0  0  0  0
  1 15  1  6  0  0  0
  1  8  1  0  0  0  0
  2  4  1  0  0  0  0
  3  9  1  0  0  0  0
  5 10  2  0  0  0  0
  7  3  2  0  0  0  0
  8  7  2  0  0  0  0
  9  2  1  0  0  0  0
 10  4  1  0  0  0  0
 11  6  1  6  0  0  0
 11 17  1  0  0  0  0
 11  5  1  0  0  0  0
 12  1  1  0  0  0  0
 12 13  1  0  0  0  0
 13 26  1  1  0  0  0
 13 14  1  0  0  0  0
 14  8  1  6  0  0  0
 14 11  1  0  0  0  0
 16 15  1  0  0  0  0
 17 18  1  0  0  0  0
 19 18  1  0  0  0  0
 20 19  1  0  0  0  0
 21 20  1  0  0  0  0
 23 24  1  0  0  0  0
 24 22  1  0  0  0  0
 24 21  1  0  0  0  0
 25 24  1  0  0  0  0
 27 29  1  0  0  0  0
 27 26  1  0  0  0  0
 28 31  1  0  0  0  0
 28 29  1  0  0  0  0
 30 28  2  0  0  0  0
M  END
>  <MODEL>
6

>  <REMARK>
 VINA RESULT:      -6.1      1.868      2.381
  Name = 
  10 active torsions:
  status: ('A' for Active; 'I' for Inactive)
    1  A    between atoms: C_1  and  N_10
    2  A    between atoms: C_1  and  O_16
    3  A    between atoms: C_2  and  C_5
    4  A    between atoms: C_3  and  C_8
    5  A    between atoms: C_3  and  C_23
    6  A    between atoms: C_8  and  C_29
    7  A    between atoms: O_16  and  C_26
    8  A    between atoms: C_18  and  O_27
    9  A    between atoms: C_18  and  C_29
   10  A    between atoms: C_24  and  O_27
                            x       y       z     vdW  Elec       q    Type
                         _______ _______ _______ _____ _____    ______ ____

>  <TORSDO>
F 10

$$$$
=
 OpenBabel11042417163D

 31 32  0  0  1  0  0  0  0  0999 V2000
  186.2530  178.6820  146.3560 C   0  0  2  0  0  3  0  0  0  0  0  0
  184.4920  178.3130  140.8120 C   0  0  0  0  0  2  0  0  0  0  0  0
  184.3520  178.9710  143.2590 C   0  0  0  0  0  3  0  0  0  0  0  0
  185.9520  178.3020  140.8890 N   0  0  0  0  0  2  0  0  0  0  0  0
  187.6380  177.8430  142.5000 C   0  0  0  0  0  3  0  0  0  0  0  0
  189.0780  177.8690  144.3180 F   0  0  0  0  0  0  0  0  0  0  0  0
  185.1990  178.5210  144.1540 C   0  0  0  0  0  0  0  0  0  0  0  0
  186.0920  178.0670  145.0070 C   0  0  0  0  0  0  0  0  0  0  0  0
  183.8360  178.0590  142.1850 C   0  0  0  0  0  2  0  0  0  0  0  0
  186.5960  177.4220  141.7990 C   0  0  0  0  0  3  0  0  0  0  0  0
  188.1120  177.0860  143.7100 C   0  0  1  0  0  0  0  0  0  0  0  0
  187.6170  177.8060  147.1850 S   0  0  0  0  0  0  0  0  0  0  0  0
  187.3720  176.3570  146.1130 C   0  0  1  0  0  3  0  0  0  0  0  0
  186.9350  176.8450  144.7250 C   0  0  1  0  0  3  0  0  0  0  0  0
  184.9760  178.5290  147.1720 C   0  0  0  0  0  2  0  0  0  0  0  0
  184.1960  177.5010  146.6440 O   0  0  0  0  0  1  0  0  0  0  0  0
  188.7870  175.7710  143.2800 C   0  0  0  0  0  2  0  0  0  0  0  0
  190.1450  175.9650  142.6170 C   0  0  0  0  0  2  0  0  0  0  0  0
  190.8580  174.6310  142.5050 C   0  0  0  0  0  2  0  0  0  0  0  0
  189.8510  173.5130  142.2990 C   0  0  0  0  0  2  0  0  0  0  0  0
  189.7270  173.2210  140.9310 O   0  0  0  0  0  0  0  0  0  0  0  0
  188.1280  174.6430  140.0820 F   0  0  0  0  0  0  0  0  0  0  0  0
  188.0820  172.4570  139.5740 F   0  0  0  0  0  0  0  0  0  0  0  0
  188.3740  173.3680  140.5710 C   0  0  0  0  0  0  0  0  0  0  0  0
  187.5470  173.1120  141.6540 F   0  0  0  0  0  0  0  0  0  0  0  0
  188.5210  175.5630  146.0880 O   0  0  0  0  0  0  0  0  0  0  0  0
  189.3110  176.0510  147.1310 C   0  0  0  0  0  2  0  0  0  0  0  0
  191.7180  175.7150  146.4340 C   0  0  0  0  0  0  0  0  0  0  0  0
  190.5670  175.3190  147.1810 N   0  0  0  0  0  2  0  0  0  0  0  0
  191.6750  176.7160  145.6700 O   0  0  0  0  0  0  0  0  0  0  0  0
  192.9230  174.9680  146.5490 N   0  0  0  0  0  1  0  0  0  0  0  0
  1 15  1  1  0  0  0
  1 12  1  0  0  0  0
  2  4  1  0  0  0  0
  2  9  1  0  0  0  0
  3  7  2  0  0  0  0
  4 10  1  0  0  0  0
  5 11  1  0  0  0  0
  7  8  2  0  0  0  0
  8  1  1  0  0  0  0
  9  3  1  0  0  0  0
 10  5  2  0  0  0  0
 11  6  1  1  0  0  0
 11 14  1  0  0  0  0
 13 26  1  6  0  0  0
 13 12  1  0  0  0  0
 14  8  1  1  0  0  0
 14 13  1  0  0  0  0
 16 15  1  0  0  0  0
 17 11  1  0  0  0  0
 18 17  1  0  0  0  0
 19 18  1  0  0  0  0
 20 19  1  0  0  0  0
 21 20  1  0  0  0  0
 22 24  1  0  0  0  0
 23 24  1  0  0  0  0
 24 21  1  0  0  0  0
 24 25  1  0  0  0  0
 26 27  1  0  0  0  0
 27 29  1  0  0  0  0
 28 31  1  0  0  0  0
 28 29  1  0  0  0  0
 30 28  2  0  0  0  0
M  END
>  <MODEL>
7

>  <REMARK>
 VINA RESULT:      -6.1      3.302      5.434
  Name = 
  10 active torsions:
  status: ('A' for Active; 'I' for Inactive)
    1  A    between atoms: C_1  and  N_10
    2  A    between atoms: C_1  and  O_16
    3  A    between atoms: C_2  and  C_5
    4  A    between atoms: C_3  and  C_8
    5  A    between atoms: C_3  and  C_23
    6  A    between atoms: C_8  and  C_29
    7  A    between atoms: O_16  and  C_26
    8  A    between atoms: C_18  and  O_27
    9  A    between atoms: C_18  and  C_29
   10  A    between atoms: C_24  and  O_27
                            x       y       z     vdW  Elec       q    Type
                         _______ _______ _______ _____ _____    ______ ____

>  <TORSDO>
F 10

$$$$
=
 OpenBabel11042417163D

 31 32  0  0  1  0  0  0  0  0999 V2000
  187.3620  177.8430  146.5090 C   0  0  2  0  0  3  0  0  0  0  0  0
  185.5470  178.1430  140.9780 C   0  0  0  0  0  2  0  0  0  0  0  0
  185.3580  178.3230  143.5020 C   0  0  0  0  0  3  0  0  0  0  0  0
  186.9870  178.3850  141.0600 N   0  0  0  0  0  2  0  0  0  0  0  0
  188.7710  177.9630  142.5730 C   0  0  0  0  0  3  0  0  0  0  0  0
  190.2310  177.9290  144.3740 F   0  0  0  0  0  0  0  0  0  0  0  0
  186.2950  177.8840  144.3070 C   0  0  0  0  0  0  0  0  0  0  0  0
  187.2780  177.4570  145.0700 C   0  0  0  0  0  0  0  0  0  0  0  0
  184.9850  177.5360  142.2800 C   0  0  0  0  0  2  0  0  0  0  0  0
  187.8030  177.4900  141.8010 C   0  0  0  0  0  3  0  0  0  0  0  0
  189.4060  177.1040  143.6310 C   0  0  1  0  0  0  0  0  0  0  0  0
  188.8830  177.0970  147.1760 S   0  0  0  0  0  0  0  0  0  0  0  0
  188.8740  175.8400  145.8620 C   0  0  1  0  0  3  0  0  0  0  0  0
  188.3190  176.4770  144.5800 C   0  0  1  0  0  3  0  0  0  0  0  0
  186.1550  177.3180  147.2770 C   0  0  0  0  0  2  0  0  0  0  0  0
  185.3210  178.3780  147.6310 O   0  0  0  0  0  1  0  0  0  0  0  0
  190.2950  176.0300  142.9770 C   0  0  0  0  0  2  0  0  0  0  0  0
  191.7470  176.4560  142.8040 C   0  0  0  0  0  2  0  0  0  0  0  0
  192.6680  175.3250  143.2200 C   0  0  0  0  0  2  0  0  0  0  0  0
  193.7390  175.8430  144.1660 C   0  0  0  0  0  2  0  0  0  0  0  0
  193.1990  176.8230  145.0160 O   0  0  0  0  0  0  0  0  0  0  0  0
  194.5320  176.9830  146.8850 F   0  0  0  0  0  0  0  0  0  0  0  0
  192.3040  176.8050  147.0970 F   0  0  0  0  0  0  0  0  0  0  0  0
  193.3930  176.4040  146.3460 C   0  0  0  0  0  0  0  0  0  0  0  0
  193.4870  175.0220  146.4180 F   0  0  0  0  0  0  0  0  0  0  0  0
  190.1450  175.2860  145.7020 O   0  0  0  0  0  0  0  0  0  0  0  0
  190.0010  173.9510  146.0880 C   0  0  0  0  0  2  0  0  0  0  0  0
  190.6590  172.3350  144.2580 C   0  0  0  0  0  0  0  0  0  0  0  0
  189.6820  173.1350  144.9270 N   0  0  0  0  0  2  0  0  0  0  0  0
  191.8590  172.3310  144.6420 O   0  0  0  0  0  0  0  0  0  0  0  0
  190.2740  171.5390  143.1440 N   0  0  0  0  0  1  0  0  0  0  0  0
  1 12  1  0  0  0  0
  1 15  1  1  0  0  0
  2  4  1  0  0  0  0
  2  9  1  0  0  0  0
  3  7  2  0  0  0  0
  4 10  1  0  0  0  0
  5 11  1  0  0  0  0
  7  8  2  0  0  0  0
  8  1  1  0  0  0  0
  9  3  1  0  0  0  0
 10  5  2  0  0  0  0
 11  6  1  1  0  0  0
 11 14  1  0  0  0  0
 13 26  1  6  0  0  0
 13 12  1  0  0  0  0
 14  8  1  1  0  0  0
 14 13  1  0  0  0  0
 15 16  1  0  0  0  0
 17 11  1  0  0  0  0
 18 17  1  0  0  0  0
 18 19  1  0  0  0  0
 19 20  1  0  0  0  0
 20 21  1  0  0  0  0
 21 24  1  0  0  0  0
 24 25  1  0  0  0  0
 24 22  1  0  0  0  0
 24 23  1  0  0  0  0
 26 27  1  0  0  0  0
 28 30  2  0  0  0  0
 28 29  1  0  0  0  0
 29 27  1  0  0  0  0
 31 28  1  0  0  0  0
M  END
>  <MODEL>
8

>  <REMARK>
 VINA RESULT:      -6.1      2.711      3.920
  Name = 
  10 active torsions:
  status: ('A' for Active; 'I' for Inactive)
    1  A    between atoms: C_1  and  N_10
    2  A    between atoms: C_1  and  O_16
    3  A    between atoms: C_2  and  C_5
    4  A    between atoms: C_3  and  C_8
    5  A    between atoms: C_3  and  C_23
    6  A    between atoms: C_8  and  C_29
    7  A    between atoms: O_16  and  C_26
    8  A    between atoms: C_18  and  O_27
    9  A    between atoms: C_18  and  C_29
   10  A    between atoms: C_24  and  O_27
                            x       y       z     vdW  Elec       q    Type
                         _______ _______ _______ _____ _____    ______ ____

>  <TORSDO>
F 10

$$$$
=
 OpenBabel11042417163D

 31 32  0  0  1  0  0  0  0  0999 V2000
  191.0360  176.3580  147.6040 C   0  0  2  0  0  3  0  0  0  0  0  0
  195.4480  175.5340  143.8850 C   0  0  0  0  0  2  0  0  0  0  0  0
  194.3470  175.9720  146.1290 C   0  0  0  0  0  3  0  0  0  0  0  0
  194.2510  174.8330  143.4240 N   0  0  0  0  0  2  0  0  0  0  0  0
  191.9010  174.9240  143.7710 C   0  0  0  0  0  3  0  0  0  0  0  0
  189.7510  174.8340  144.6340 F   0  0  0  0  0  0  0  0  0  0  0  0
  193.0650  176.2210  146.2420 C   0  0  0  0  0  0  0  0  0  0  0  0
  191.7680  176.4340  146.3060 C   0  0  0  0  0  0  0  0  0  0  0  0
  195.1310  176.5600  144.9920 C   0  0  0  0  0  2  0  0  0  0  0  0
  193.0120  175.5270  143.3750 C   0  0  0  0  0  3  0  0  0  0  0  0
  190.6590  175.7150  144.0750 C   0  0  1  0  0  0  0  0  0  0  0  0
  189.2760  176.6560  147.2440 S   0  0  0  0  0  0  0  0  0  0  0  0
  189.7100  177.5280  145.7090 C   0  0  1  0  0  3  0  0  0  0  0  0
  190.9570  176.8650  145.1060 C   0  0  1  0  0  3  0  0  0  0  0  0
  191.5470  177.4180  148.5710 C   0  0  0  0  0  2  0  0  0  0  0  0
  190.5060  178.2710  148.9340 O   0  0  0  0  0  1  0  0  0  0  0  0
  190.0400  176.2500  142.7710 C   0  0  0  0  0  2  0  0  0  0  0  0
  189.1920  175.2260  142.0270 C   0  0  0  0  0  2  0  0  0  0  0  0
  187.7290  175.6200  142.0980 C   0  0  0  0  0  2  0  0  0  0  0  0
  187.5300  177.0060  141.5070 C   0  0  0  0  0  2  0  0  0  0  0  0
  186.3130  177.0600  140.8080 O   0  0  0  0  0  0  0  0  0  0  0  0
  184.6160  177.5360  142.2890 F   0  0  0  0  0  0  0  0  0  0  0  0
  186.3500  178.9460  142.0640 F   0  0  0  0  0  0  0  0  0  0  0  0
  185.5210  178.0720  141.3850 C   0  0  0  0  0  0  0  0  0  0  0  0
  184.8440  178.7850  140.4070 F   0  0  0  0  0  0  0  0  0  0  0  0
  188.6210  177.5620  144.8360 O   0  0  0  0  0  0  0  0  0  0  0  0
  187.5330  177.1540  145.6120 C   0  0  0  0  0  2  0  0  0  0  0  0
  185.4320  178.5550  145.7500 C   0  0  0  0  0  0  0  0  0  0  0  0
  186.2990  177.6700  145.0390 N   0  0  0  0  0  2  0  0  0  0  0  0
  185.6970  178.9020  146.9310 O   0  0  0  0  0  0  0  0  0  0  0  0
  184.2550  179.0430  145.1200 N   0  0  0  0  0  1  0  0  0  0  0  0
  1 15  1  1  0  0  0
  2  9  1  0  0  0  0
  3  7  2  0  0  0  0
  4  2  1  0  0  0  0
  5 11  1  0  0  0  0
  7  8  2  0  0  0  0
  8  1  1  0  0  0  0
  9  3  1  0  0  0  0
 10  4  1  0  0  0  0
 10  5  2  0  0  0  0
 11  6  1  1  0  0  0
 11 14  1  0  0  0  0
 12  1  1  0  0  0  0
 13 26  1  6  0  0  0
 13 12  1  0  0  0  0
 14 13  1  0  0  0  0
 14  8  1  1  0  0  0
 15 16  1  0  0  0  0
 17 11  1  0  0  0  0
 18 19  1  0  0  0  0
 18 17  1  0  0  0  0
 20 19  1  0  0  0  0
 21 24  1  0  0  0  0
 21 20  1  0  0  0  0
 24 23  1  0  0  0  0
 24 22  1  0  0  0  0
 25 24  1  0  0  0  0
 26 27  1  0  0  0  0
 28 30  2  0  0  0  0
 29 27  1  0  0  0  0
 29 28  1  0  0  0  0
 31 28  1  0  0  0  0
M  END
>  <MODEL>
9

>  <REMARK>
 VINA RESULT:      -6.1      3.039      7.746
  Name = 
  10 active torsions:
  status: ('A' for Active; 'I' for Inactive)
    1  A    between atoms: C_1  and  N_10
    2  A    between atoms: C_1  and  O_16
    3  A    between atoms: C_2  and  C_5
    4  A    between atoms: C_3  and  C_8
    5  A    between atoms: C_3  and  C_23
    6  A    between atoms: C_8  and  C_29
    7  A    between atoms: O_16  and  C_26
    8  A    between atoms: C_18  and  O_27
    9  A    between atoms: C_18  and  C_29
   10  A    between atoms: C_24  and  O_27
                            x       y       z     vdW  Elec       q    Type
                         _______ _______ _______ _____ _____    ______ ____

>  <TORSDO>
F 10

$$$$
