=
 OpenBabel11042419503D

 50 55  0  0  1  0  0  0  0  0999 V2000
  190.9290  174.4530  142.8860 C   0  0  0  0  0  0  0  0  0  0  0  0
  187.4990  175.4300  141.8100 O   0  0  0  0  0  1  0  0  0  0  0  0
  193.4960  173.3570  142.7340 C   0  0  0  0  0  3  0  0  0  0  0  0
  191.6290  175.7270  147.5790 C   0  0  0  0  0  1  0  0  0  0  0  0
  193.0460  173.9370  143.9260 C   0  0  0  0  0  0  0  0  0  0  0  0
  192.0980  175.1070  146.3050 C   0  0  0  0  0  0  0  0  0  0  0  0
  191.2780  175.0890  145.1650 C   0  0  0  0  0  0  0  0  0  0  0  0
  188.7900  174.9100  141.8140 C   0  0  0  0  0  0  0  0  0  0  0  0
  189.6240  175.0020  142.9530 C   0  0  0  0  0  0  0  0  0  0  0  0
  189.2230  175.6060  144.1740 C   0  0  0  0  0  0  0  0  0  0  0  0
  190.5310  173.7810  140.6200 N   0  0  0  0  0  0  0  0  0  0  0  0
  189.2660  174.2740  140.6620 C   0  0  0  0  0  0  0  0  0  0  0  0
  193.0960  172.8140  140.4750 N   0  0  0  0  0  0  0  0  0  0  0  0
  191.7450  174.4960  143.9720 C   0  0  0  0  0  0  0  0  0  0  0  0
  190.0600  175.6200  145.2080 O   0  0  0  0  0  0  0  0  0  0  0  0
  191.3720  173.8500  141.6860 C   0  0  0  0  0  0  0  0  0  0  0  0
  193.8610  173.9610  145.0780 C   0  0  0  0  0  0  0  0  0  0  0  0
  192.6730  173.3220  141.5980 C   0  0  0  0  0  0  0  0  0  0  0  0
  193.3720  174.5410  146.2590 C   0  0  0  0  0  3  0  0  0  0  0  0
  194.3320  171.0600  139.5190 O   0  0  0  0  0  0  0  0  0  0  0  0
  196.1080  173.0620  137.2940 C   0  0  0  0  0  1  0  0  0  0  0  0
  194.4290  172.2560  140.2580 C   0  0  1  0  0  3  0  0  0  0  0  0
  195.1750  171.2180  138.3980 C   0  0  0  0  0  2  0  0  0  0  0  0
  195.2800  173.2140  139.4640 C   0  0  0  0  0  2  0  0  0  0  0  0
  196.0410  172.3760  138.5760 N   0  0  0  0  0  0  0  0  0  0  0  0
  195.1800  172.0660  145.6430 O   0  0  0  0  0  1  0  0  0  0  0  0
  195.2310  173.3380  145.0690 C   0  0  2  0  0  3  0  0  0  0  0  0
  196.2370  174.1970  145.8110 C   0  0  0  0  0  1  0  0  0  0  0  0
  187.8790  176.2400  144.3610 C   0  0  0  0  0  2  0  0  0  0  0  0
  187.8880  177.1690  145.5570 C   0  0  0  0  0  2  0  0  0  0  0  0
  187.0620  176.5630  146.6770 C   0  0  0  0  0  2  0  0  0  0  0  0
  186.1230  177.6070  147.2560 C   0  0  0  0  0  2  0  0  0  0  0  0
  186.0490  178.7690  146.3810 N   0  0  0  0  0  2  0  0  0  0  0  0
  184.0140  177.8650  146.4060 O   0  0  0  0  0  1  0  0  0  0  0  0
  184.6910  178.9990  146.1000 N   0  0  0  0  0  0  0  0  0  0  0  0
  184.5250  179.2440  144.6610 C   0  0  1  0  0  3  0  0  0  0  0  0
  185.3540  180.2850  144.2330 O   0  0  0  0  0  1  0  0  0  0  0  0
  184.6780  177.9880  143.7850 C   0  0  0  0  0  2  0  0  0  0  0  0
  184.1520  178.1770  142.3670 C   0  0  0  0  0  2  0  0  0  0  0  0
  185.2860  178.1870  141.3950 C   0  0  0  0  0  0  0  0  0  0  0  0
  186.4440  178.4970  141.7860 O   0  0  0  0  0  1  0  0  0  0  0  0
  185.0760  177.8590  140.0630 O   0  0  0  0  0  0  0  0  0  0  0  0
  188.3830  174.1310  139.4700 C   0  0  0  0  0  2  0  0  0  0  0  0
  188.7960  174.2070  136.9940 C   0  0  0  0  0  0  0  0  0  0  0  0
  187.7410  177.2630  135.5460 C   0  0  0  0  0  1  0  0  0  0  0  0
  187.7590  175.1710  136.8220 N   0  0  0  0  0  0  0  0  0  0  0  0
  186.7280  176.1060  137.3600 C   0  0  0  0  0  2  0  0  0  0  0  0
  186.9080  176.0750  135.9920 C   0  0  1  0  0  3  0  0  0  0  0  0
  189.3910  173.7450  135.9840 O   0  0  0  0  0  0  0  0  0  0  0  0
  189.1700  173.7690  138.3020 N   0  0  0  0  0  2  0  0  0  0  0  0
  1  9  1  0  0  0  0
  1 14  2  0  0  0  0
  2  8  1  0  0  0  0
  3  5  2  0  0  0  0
  5 14  1  0  0  0  0
  5 17  1  0  0  0  0
  6  4  1  0  0  0  0
  7 15  1  0  0  0  0
  7  6  2  0  0  0  0
  8  9  1  0  0  0  0
  9 10  2  0  0  0  0
 10 29  1  0  0  0  0
 10 15  1  0  0  0  0
 11 12  1  0  0  0  0
 11 16  2  0  0  0  0
 12  8  2  0  0  0  0
 13 18  2  0  0  0  0
 14  7  1  0  0  0  0
 16  1  1  0  0  0  0
 17 19  2  0  0  0  0
 18 16  1  0  0  0  0
 18  3  1  0  0  0  0
 19  6  1  0  0  0  0
 20 22  1  0  0  0  0
 21 25  1  0  0  0  0
 22 13  1  6  0  0  0
 23 25  1  0  0  0  0
 23 20  1  0  0  0  0
 24 22  1  0  0  0  0
 25 24  1  0  0  0  0
 27 17  1  0  0  0  0
 27 26  1  0  0  0  0
 27 28  1  1  0  0  0
 29 30  1  0  0  0  0
 30 31  1  0  0  0  0
 31 32  1  0  0  0  0
 33 32  1  0  0  0  0
 35 33  1  0  0  0  0
 35 34  1  0  0  0  0
 36 37  1  6  0  0  0
 36 35  1  0  0  0  0
 38 36  1  0  0  0  0
 39 38  1  0  0  0  0
 40 41  1  0  0  0  0
 40 39  1  0  0  0  0
 42 40  2  0  0  0  0
 43 12  1  0  0  0  0
 44 50  1  0  0  0  0
 46 44  1  0  0  0  0
 46 47  1  0  0  0  0
 48 45  1  1  0  0  0
 48 46  1  0  0  0  0
 48 47  1  0  0  0  0
 49 44  2  0  0  0  0
 50 43  1  0  0  0  0
M  END
>  <MODEL>
1

>  <REMARK>
 VINA RESULT:      -7.7      0.000      0.000
  Name = 
  14 active torsions:
  status: ('A' for Active; 'I' for Inactive)
    1  A    between atoms: C_16  and  C_17
    2  A    between atoms: C_16  and  C_24
    3  A    between atoms: C_17  and  C_49
    4  A    between atoms: C_18  and  C_31
    5  A    between atoms: C_18  and  C_34
    6  A    between atoms: N_19  and  C_23
    7  A    between atoms: N_19  and  N_37
    8  A    between atoms: C_23  and  C_49
    9  A    between atoms: C_25  and  C_46
   10  A    between atoms: C_26  and  C_29
   11  A    between atoms: C_26  and  N_47
   12  A    between atoms: C_28  and  C_34
   13  A    between atoms: C_28  and  N_37
   14  A    between atoms: N_30  and  C_32
                            x       y       z     vdW  Elec       q    Type
                         _______ _______ _______ _____ _____    ______ ____

>  <TORSDO>
F 14

$$$$
=
 OpenBabel11042419503D

 50 55  0  0  1  0  0  0  0  0999 V2000
  191.2010  174.1720  143.4700 C   0  0  0  0  0  0  0  0  0  0  0  0
  190.7810  177.0810  145.7590 O   0  0  0  0  0  1  0  0  0  0  0  0
  190.8070  172.5280  141.2440 C   0  0  0  0  0  3  0  0  0  0  0  0
  194.3930  170.9770  145.4040 C   0  0  0  0  0  1  0  0  0  0  0  0
  191.6890  172.1400  142.2600 C   0  0  0  0  0  0  0  0  0  0  0  0
  193.4470  171.3970  144.3290 C   0  0  0  0  0  0  0  0  0  0  0  0
  192.7690  172.6240  144.4010 C   0  0  0  0  0  0  0  0  0  0  0  0
  190.6420  176.2100  144.6830 C   0  0  0  0  0  0  0  0  0  0  0  0
  191.3900  175.0110  144.5960 C   0  0  0  0  0  0  0  0  0  0  0  0
  192.3170  174.5900  145.5860 C   0  0  0  0  0  0  0  0  0  0  0  0
  189.5950  175.7170  142.5870 N   0  0  0  0  0  0  0  0  0  0  0  0
  189.7340  176.5280  143.6680 C   0  0  0  0  0  0  0  0  0  0  0  0
  189.3170  174.1290  140.3650 N   0  0  0  0  0  0  0  0  0  0  0  0
  191.8800  172.9980  143.3710 C   0  0  0  0  0  0  0  0  0  0  0  0
  192.9530  173.4310  145.4420 O   0  0  0  0  0  0  0  0  0  0  0  0
  190.2940  174.5580  142.4560 C   0  0  0  0  0  0  0  0  0  0  0  0
  192.3770  170.9100  142.1970 C   0  0  0  0  0  0  0  0  0  0  0  0
  190.1140  173.7460  141.3220 C   0  0  0  0  0  0  0  0  0  0  0  0
  193.2450  170.5490  143.2400 C   0  0  0  0  0  3  0  0  0  0  0  0
  187.9760  173.9510  138.4440 O   0  0  0  0  0  0  0  0  0  0  0  0
  190.5510  174.5100  136.1710 C   0  0  0  0  0  1  0  0  0  0  0  0
  189.0660  173.3830  139.1340 C   0  0  1  0  0  3  0  0  0  0  0  0
  188.4360  174.2330  137.1400 C   0  0  0  0  0  2  0  0  0  0  0  0
  190.2650  173.4480  138.2220 C   0  0  0  0  0  2  0  0  0  0  0  0
  189.7120  173.5710  136.9010 N   0  0  0  0  0  0  0  0  0  0  0  0
  191.1960  169.0120  141.3880 O   0  0  0  0  0  1  0  0  0  0  0  0
  192.1620  169.9610  141.0480 C   0  0  2  0  0  3  0  0  0  0  0  0
  193.4510  169.2650  140.6550 C   0  0  0  0  0  1  0  0  0  0  0  0
  192.6190  175.4000  146.8090 C   0  0  0  0  0  2  0  0  0  0  0  0
  194.0850  175.7810  146.8500 C   0  0  0  0  0  2  0  0  0  0  0  0
  194.2970  177.0660  146.0700 C   0  0  0  0  0  2  0  0  0  0  0  0
  194.9770  176.7660  144.7460 C   0  0  0  0  0  2  0  0  0  0  0  0
  195.7390  175.5270  144.8320 N   0  0  0  0  0  2  0  0  0  0  0  0
  196.6090  176.7210  143.1650 O   0  0  0  0  0  1  0  0  0  0  0  0
  196.8350  175.6460  143.9600 N   0  0  0  0  0  0  0  0  0  0  0  0
  196.9030  174.4590  143.0980 C   0  0  1  0  0  3  0  0  0  0  0  0
  196.3940  173.3340  143.7540 O   0  0  0  0  0  1  0  0  0  0  0  0
  196.2710  174.6500  141.7070 C   0  0  0  0  0  2  0  0  0  0  0  0
  194.9260  173.9510  141.5570 C   0  0  0  0  0  2  0  0  0  0  0  0
  193.9030  174.9100  141.0420 C   0  0  0  0  0  0  0  0  0  0  0  0
  193.3380  174.6910  139.9370 O   0  0  0  0  0  0  0  0  0  0  0  0
  193.5700  176.0440  141.7710 O   0  0  0  0  0  1  0  0  0  0  0  0
  188.9090  177.7650  143.7660 C   0  0  0  0  0  2  0  0  0  0  0  0
  186.4740  177.2000  143.5200 C   0  0  0  0  0  0  0  0  0  0  0  0
  184.6140  177.9600  146.4380 C   0  0  0  0  0  1  0  0  0  0  0  0
  186.3320  177.0710  144.9340 N   0  0  0  0  0  0  0  0  0  0  0  0
  186.8580  177.1820  146.3260 C   0  0  0  0  0  2  0  0  0  0  0  0
  185.5440  176.7900  146.1700 C   0  0  1  0  0  3  0  0  0  0  0  0
  185.4980  176.9360  142.7680 O   0  0  0  0  0  0  0  0  0  0  0  0
  187.7110  177.6370  142.9520 N   0  0  0  0  0  2  0  0  0  0  0  0
  1  9  1  0  0  0  0
  3 18  1  0  0  0  0
  3  5  2  0  0  0  0
  5 14  1  0  0  0  0
  6  7  2  0  0  0  0
  6  4  1  0  0  0  0
  7 15  1  0  0  0  0
  8  2  1  0  0  0  0
  9  8  1  0  0  0  0
  9 10  2  0  0  0  0
 10 29  1  0  0  0  0
 11 12  1  0  0  0  0
 12 43  1  0  0  0  0
 12  8  2  0  0  0  0
 13 18  2  0  0  0  0
 14  1  2  0  0  0  0
 14  7  1  0  0  0  0
 15 10  1  0  0  0  0
 16 11  2  0  0  0  0
 16  1  1  0  0  0  0
 17  5  1  0  0  0  0
 17 19  2  0  0  0  0
 18 16  1  0  0  0  0
 19  6  1  0  0  0  0
 20 22  1  0  0  0  0
 21 25  1  0  0  0  0
 22 13  1  1  0  0  0
 23 20  1  0  0  0  0
 24 22  1  0  0  0  0
 25 23  1  0  0  0  0
 25 24  1  0  0  0  0
 27 28  1  1  0  0  0
 27 26  1  0  0  0  0
 27 17  1  0  0  0  0
 29 30  1  0  0  0  0
 31 30  1  0  0  0  0
 32 33  1  0  0  0  0
 32 31  1  0  0  0  0
 34 35  1  0  0  0  0
 35 33  1  0  0  0  0
 36 37  1  1  0  0  0
 36 35  1  0  0  0  0
 38 36  1  0  0  0  0
 39 38  1  0  0  0  0
 40 39  1  0  0  0  0
 40 42  1  0  0  0  0
 41 40  2  0  0  0  0
 44 46  1  0  0  0  0
 46 48  1  0  0  0  0
 46 47  1  0  0  0  0
 48 47  1  0  0  0  0
 48 45  1  1  0  0  0
 49 44  2  0  0  0  0
 50 44  1  0  0  0  0
 50 43  1  0  0  0  0
M  END
>  <MODEL>
2

>  <REMARK>
 VINA RESULT:      -7.6      2.633      7.392
  Name = 
  14 active torsions:
  status: ('A' for Active; 'I' for Inactive)
    1  A    between atoms: C_16  and  C_17
    2  A    between atoms: C_16  and  C_24
    3  A    between atoms: C_17  and  C_49
    4  A    between atoms: C_18  and  C_31
    5  A    between atoms: C_18  and  C_34
    6  A    between atoms: N_19  and  C_23
    7  A    between atoms: N_19  and  N_37
    8  A    between atoms: C_23  and  C_49
    9  A    between atoms: C_25  and  C_46
   10  A    between atoms: C_26  and  C_29
   11  A    between atoms: C_26  and  N_47
   12  A    between atoms: C_28  and  C_34
   13  A    between atoms: C_28  and  N_37
   14  A    between atoms: N_30  and  C_32
                            x       y       z     vdW  Elec       q    Type
                         _______ _______ _______ _____ _____    ______ ____

>  <TORSDO>
F 14

$$$$
=
 OpenBabel11042419503D

 50 55  0  0  1  0  0  0  0  0999 V2000
  191.6230  174.6940  142.4070 C   0  0  0  0  0  0  0  0  0  0  0  0
  187.9290  174.2350  142.2790 O   0  0  0  0  0  1  0  0  0  0  0  0
  194.2900  174.6210  141.5730 C   0  0  0  0  0  3  0  0  0  0  0  0
  192.9230  176.5300  146.7750 C   0  0  0  0  0  1  0  0  0  0  0  0
  193.9640  175.0910  142.8510 C   0  0  0  0  0  0  0  0  0  0  0  0
  193.2620  176.0230  145.4130 C   0  0  0  0  0  0  0  0  0  0  0  0
  192.2560  175.6060  144.5260 C   0  0  0  0  0  0  0  0  0  0  0  0
  189.2780  174.2330  141.9380 C   0  0  0  0  0  0  0  0  0  0  0  0
  190.2690  174.7240  142.8210 C   0  0  0  0  0  0  0  0  0  0  0  0
  189.9830  175.2380  144.1140 C   0  0  0  0  0  0  0  0  0  0  0  0
  190.9640  173.7340  140.3130 N   0  0  0  0  0  0  0  0  0  0  0  0
  189.6600  173.7240  140.6920 C   0  0  0  0  0  0  0  0  0  0  0  0
  193.5830  173.7790  139.4890 N   0  0  0  0  0  0  0  0  0  0  0  0
  192.6030  175.1300  143.2440 C   0  0  0  0  0  0  0  0  0  0  0  0
  190.9790  175.6480  144.8940 O   0  0  0  0  0  0  0  0  0  0  0  0
  191.9510  174.2000  141.1230 C   0  0  0  0  0  0  0  0  0  0  0  0
  194.9660  175.5140  143.7510 C   0  0  0  0  0  0  0  0  0  0  0  0
  193.2890  174.1870  140.6910 C   0  0  0  0  0  0  0  0  0  0  0  0
  194.6010  175.9690  145.0280 C   0  0  0  0  0  3  0  0  0  0  0  0
  195.0700  172.5990  138.1060 O   0  0  0  0  0  0  0  0  0  0  0  0
  195.4450  175.1380  135.7560 C   0  0  0  0  0  1  0  0  0  0  0  0
  194.9290  173.7390  138.9220 C   0  0  1  0  0  3  0  0  0  0  0  0
  195.5050  173.0650  136.8460 C   0  0  0  0  0  2  0  0  0  0  0  0
  195.1760  174.9500  138.0600 C   0  0  0  0  0  2  0  0  0  0  0  0
  195.9350  174.4540  136.9440 N   0  0  0  0  0  0  0  0  0  0  0  0
  197.1510  174.8430  144.4020 O   0  0  0  0  0  1  0  0  0  0  0  0
  196.4220  175.4450  143.3750 C   0  0  2  0  0  3  0  0  0  0  0  0
  196.9850  176.8220  143.0820 C   0  0  0  0  0  1  0  0  0  0  0  0
  188.5910  175.3410  144.6550 C   0  0  0  0  0  2  0  0  0  0  0  0
  188.4000  176.6490  145.3950 C   0  0  0  0  0  2  0  0  0  0  0  0
  187.9390  176.3680  146.8140 C   0  0  0  0  0  2  0  0  0  0  0  0
  186.5160  176.8610  147.0080 C   0  0  0  0  0  2  0  0  0  0  0  0
  185.7620  176.7470  145.7670 N   0  0  0  0  0  2  0  0  0  0  0  0
  184.0880  178.0990  146.3370 O   0  0  0  0  0  1  0  0  0  0  0  0
  185.1650  177.9950  145.5210 N   0  0  0  0  0  0  0  0  0  0  0  0
  184.6810  178.0390  144.1350 C   0  0  1  0  0  3  0  0  0  0  0  0
  184.2560  179.3270  143.7930 O   0  0  0  0  0  1  0  0  0  0  0  0
  185.6660  177.4640  143.1020 C   0  0  0  0  0  2  0  0  0  0  0  0
  186.6450  178.5000  142.5630 C   0  0  0  0  0  2  0  0  0  0  0  0
  187.6980  177.8320  141.7410 C   0  0  0  0  0  0  0  0  0  0  0  0
  187.3670  177.1130  140.7600 O   0  0  0  0  0  0  0  0  0  0  0  0
  189.0420  177.9960  142.0490 O   0  0  0  0  0  1  0  0  0  0  0  0
  188.6330  173.1630  139.7690 C   0  0  0  0  0  2  0  0  0  0  0  0
  188.8540  174.0580  137.4320 C   0  0  0  0  0  0  0  0  0  0  0  0
  189.3880  171.4900  135.0520 C   0  0  0  0  0  1  0  0  0  0  0  0
  189.6060  172.9120  137.0350 N   0  0  0  0  0  0  0  0  0  0  0  0
  190.1800  171.5600  137.2930 C   0  0  0  0  0  2  0  0  0  0  0  0
  190.3660  172.1030  136.0370 C   0  0  1  0  0  3  0  0  0  0  0  0
  188.6780  175.0030  136.6170 O   0  0  0  0  0  0  0  0  0  0  0  0
  188.2920  174.1380  138.7440 N   0  0  0  0  0  2  0  0  0  0  0  0
  1  9  1  0  0  0  0
  1 14  2  0  0  0  0
  3  5  2  0  0  0  0
  5 14  1  0  0  0  0
  5 17  1  0  0  0  0
  6  4  1  0  0  0  0
  7 15  1  0  0  0  0
  7  6  2  0  0  0  0
  8  2  1  0  0  0  0
  8  9  1  0  0  0  0
  9 10  2  0  0  0  0
 10 29  1  0  0  0  0
 10 15  1  0  0  0  0
 11 12  1  0  0  0  0
 11 16  2  0  0  0  0
 12  8  2  0  0  0  0
 13 18  2  0  0  0  0
 14  7  1  0  0  0  0
 16  1  1  0  0  0  0
 17 19  2  0  0  0  0
 18 16  1  0  0  0  0
 18  3  1  0  0  0  0
 19  6  1  0  0  0  0
 20 22  1  0  0  0  0
 21 25  1  0  0  0  0
 22 13  1  6  0  0  0
 23 25  1  0  0  0  0
 23 20  1  0  0  0  0
 24 22  1  0  0  0  0
 25 24  1  0  0  0  0
 27 28  1  1  0  0  0
 27 17  1  0  0  0  0
 27 26  1  0  0  0  0
 29 30  1  0  0  0  0
 30 31  1  0  0  0  0
 31 32  1  0  0  0  0
 33 32  1  0  0  0  0
 35 33  1  0  0  0  0
 35 34  1  0  0  0  0
 36 37  1  6  0  0  0
 36 35  1  0  0  0  0
 38 36  1  0  0  0  0
 39 38  1  0  0  0  0
 40 42  1  0  0  0  0
 40 39  1  0  0  0  0
 41 40  2  0  0  0  0
 43 12  1  0  0  0  0
 44 50  1  0  0  0  0
 46 47  1  0  0  0  0
 46 44  1  0  0  0  0
 48 45  1  6  0  0  0
 48 46  1  0  0  0  0
 48 47  1  0  0  0  0
 49 44  2  0  0  0  0
 50 43  1  0  0  0  0
M  END
>  <MODEL>
3

>  <REMARK>
 VINA RESULT:      -7.6      1.826      2.325
  Name = 
  14 active torsions:
  status: ('A' for Active; 'I' for Inactive)
    1  A    between atoms: C_16  and  C_17
    2  A    between atoms: C_16  and  C_24
    3  A    between atoms: C_17  and  C_49
    4  A    between atoms: C_18  and  C_31
    5  A    between atoms: C_18  and  C_34
    6  A    between atoms: N_19  and  C_23
    7  A    between atoms: N_19  and  N_37
    8  A    between atoms: C_23  and  C_49
    9  A    between atoms: C_25  and  C_46
   10  A    between atoms: C_26  and  C_29
   11  A    between atoms: C_26  and  N_47
   12  A    between atoms: C_28  and  C_34
   13  A    between atoms: C_28  and  N_37
   14  A    between atoms: N_30  and  C_32
                            x       y       z     vdW  Elec       q    Type
                         _______ _______ _______ _____ _____    ______ ____

>  <TORSDO>
F 14

$$$$
=
 OpenBabel11042419503D

 50 55  0  0  1  0  0  0  0  0999 V2000
  191.8620  174.6390  142.2950 C   0  0  0  0  0  0  0  0  0  0  0  0
  188.1650  174.3500  141.9520 O   0  0  0  0  0  1  0  0  0  0  0  0
  194.5670  174.4340  141.6200 C   0  0  0  0  0  3  0  0  0  0  0  0
  192.9890  176.4520  146.7200 C   0  0  0  0  0  1  0  0  0  0  0  0
  194.1880  174.9300  142.8730 C   0  0  0  0  0  0  0  0  0  0  0  0
  193.3830  175.9170  145.3840 C   0  0  0  0  0  0  0  0  0  0  0  0
  192.4120  175.5390  144.4420 C   0  0  0  0  0  0  0  0  0  0  0  0
  189.5290  174.2820  141.6910 C   0  0  0  0  0  0  0  0  0  0  0  0
  190.4880  174.7350  142.6280 C   0  0  0  0  0  0  0  0  0  0  0  0
  190.1520  175.2730  143.8990 C   0  0  0  0  0  0  0  0  0  0  0  0
  191.2820  173.6910  140.1710 N   0  0  0  0  0  0  0  0  0  0  0  0
  189.9590  173.7450  140.4730 C   0  0  0  0  0  0  0  0  0  0  0  0
  193.9440  173.6060  139.5030 N   0  0  0  0  0  0  0  0  0  0  0  0
  192.8110  175.0360  143.1850 C   0  0  0  0  0  0  0  0  0  0  0  0
  191.1190  175.6440  144.7340 O   0  0  0  0  0  0  0  0  0  0  0  0
  192.2410  174.1190  141.0360 C   0  0  0  0  0  0  0  0  0  0  0  0
  195.1550  175.3140  143.8280 C   0  0  0  0  0  0  0  0  0  0  0  0
  193.6000  174.0390  140.6830 C   0  0  0  0  0  0  0  0  0  0  0  0
  194.7380  175.7970  145.0780 C   0  0  0  0  0  3  0  0  0  0  0  0
  195.5060  172.2520  138.3880 O   0  0  0  0  0  0  0  0  0  0  0  0
  195.9890  174.4150  135.7060 C   0  0  0  0  0  1  0  0  0  0  0  0
  195.3170  173.4990  139.0170 C   0  0  1  0  0  3  0  0  0  0  0  0
  196.0020  172.5300  137.0960 C   0  0  0  0  0  2  0  0  0  0  0  0
  195.6020  174.5700  137.9960 C   0  0  0  0  0  2  0  0  0  0  0  0
  196.4200  173.9230  137.0060 N   0  0  0  0  0  0  0  0  0  0  0  0
  197.2850  174.6650  144.6580 O   0  0  0  0  0  1  0  0  0  0  0  0
  196.6260  175.1740  143.5380 C   0  0  2  0  0  3  0  0  0  0  0  0
  197.2410  176.5010  143.1380 C   0  0  0  0  0  1  0  0  0  0  0  0
  188.7370  175.4460  144.3560 C   0  0  0  0  0  2  0  0  0  0  0  0
  188.4660  176.8900  144.7250 C   0  0  0  0  0  2  0  0  0  0  0  0
  188.7350  177.7800  143.5250 C   0  0  0  0  0  2  0  0  0  0  0  0
  187.6690  177.5650  142.4670 C   0  0  0  0  0  2  0  0  0  0  0  0
  186.7290  178.6770  142.4550 N   0  0  0  0  0  2  0  0  0  0  0  0
  184.6480  178.0200  142.0130 O   0  0  0  0  0  1  0  0  0  0  0  0
  185.5270  178.2190  143.0240 N   0  0  0  0  0  0  0  0  0  0  0  0
  184.9740  179.2620  143.8990 C   0  0  1  0  0  3  0  0  0  0  0  0
  183.6120  179.0500  144.1300 O   0  0  0  0  0  1  0  0  0  0  0  0
  185.7560  179.4690  145.2080 C   0  0  0  0  0  2  0  0  0  0  0  0
  185.0240  178.9390  146.4350 C   0  0  0  0  0  2  0  0  0  0  0  0
  185.9640  178.1650  147.3000 C   0  0  0  0  0  0  0  0  0  0  0  0
  186.7060  178.7700  148.1200 O   0  0  0  0  0  1  0  0  0  0  0  0
  186.0300  176.7810  147.2070 O   0  0  0  0  0  0  0  0  0  0  0  0
  188.9630  173.2240  139.4950 C   0  0  0  0  0  2  0  0  0  0  0  0
  189.7970  171.4370  137.9390 C   0  0  0  0  0  0  0  0  0  0  0  0
  192.4510  172.5720  135.8850 C   0  0  0  0  0  1  0  0  0  0  0  0
  190.2900  172.4200  137.0300 N   0  0  0  0  0  0  0  0  0  0  0  0
  190.5850  173.8320  136.6500 C   0  0  0  0  0  2  0  0  0  0  0  0
  190.9620  172.8420  135.7650 C   0  0  1  0  0  3  0  0  0  0  0  0
  189.8660  170.2160  137.6360 O   0  0  0  0  0  0  0  0  0  0  0  0
  189.2350  171.8280  139.1940 N   0  0  0  0  0  2  0  0  0  0  0  0
  1  9  1  0  0  0  0
  1 14  2  0  0  0  0
  3  5  2  0  0  0  0
  5 14  1  0  0  0  0
  5 17  1  0  0  0  0
  6  4  1  0  0  0  0
  7 15  1  0  0  0  0
  7  6  2  0  0  0  0
  8  2  1  0  0  0  0
  8  9  1  0  0  0  0
  9 10  2  0  0  0  0
 10 29  1  0  0  0  0
 10 15  1  0  0  0  0
 11 12  1  0  0  0  0
 11 16  2  0  0  0  0
 12  8  2  0  0  0  0
 13 18  2  0  0  0  0
 14  7  1  0  0  0  0
 16  1  1  0  0  0  0
 17 19  2  0  0  0  0
 18 16  1  0  0  0  0
 18  3  1  0  0  0  0
 19  6  1  0  0  0  0
 20 22  1  0  0  0  0
 21 25  1  0  0  0  0
 22 13  1  6  0  0  0
 23 20  1  0  0  0  0
 24 22  1  0  0  0  0
 25 23  1  0  0  0  0
 25 24  1  0  0  0  0
 27 28  1  1  0  0  0
 27 17  1  0  0  0  0
 27 26  1  0  0  0  0
 29 30  1  0  0  0  0
 31 30  1  0  0  0  0
 32 31  1  0  0  0  0
 33 32  1  0  0  0  0
 33 35  1  0  0  0  0
 34 35  1  0  0  0  0
 35 36  1  0  0  0  0
 36 37  1  1  0  0  0
 36 38  1  0  0  0  0
 38 39  1  0  0  0  0
 39 40  1  0  0  0  0
 40 41  1  0  0  0  0
 42 40  2  0  0  0  0
 43 12  1  0  0  0  0
 44 50  1  0  0  0  0
 46 44  1  0  0  0  0
 47 46  1  0  0  0  0
 48 45  1  1  0  0  0
 48 47  1  0  0  0  0
 48 46  1  0  0  0  0
 49 44  2  0  0  0  0
 50 43  1  0  0  0  0
M  END
>  <MODEL>
4

>  <REMARK>
 VINA RESULT:      -7.1      2.150      3.107
  Name = 
  14 active torsions:
  status: ('A' for Active; 'I' for Inactive)
    1  A    between atoms: C_16  and  C_17
    2  A    between atoms: C_16  and  C_24
    3  A    between atoms: C_17  and  C_49
    4  A    between atoms: C_18  and  C_31
    5  A    between atoms: C_18  and  C_34
    6  A    between atoms: N_19  and  C_23
    7  A    between atoms: N_19  and  N_37
    8  A    between atoms: C_23  and  C_49
    9  A    between atoms: C_25  and  C_46
   10  A    between atoms: C_26  and  C_29
   11  A    between atoms: C_26  and  N_47
   12  A    between atoms: C_28  and  C_34
   13  A    between atoms: C_28  and  N_37
   14  A    between atoms: N_30  and  C_32
                            x       y       z     vdW  Elec       q    Type
                         _______ _______ _______ _____ _____    ______ ____

>  <TORSDO>
F 14

$$$$
=
 OpenBabel11042419503D

 50 55  0  0  1  0  0  0  0  0999 V2000
  190.3510  173.6820  141.9140 C   0  0  0  0  0  0  0  0  0  0  0  0
  190.7530  172.0920  138.5700 O   0  0  0  0  0  1  0  0  0  0  0  0
  189.2980  175.3410  143.9030 C   0  0  0  0  0  3  0  0  0  0  0  0
  193.8270  172.0350  144.9710 C   0  0  0  0  0  1  0  0  0  0  0  0
  190.4090  174.5330  144.1730 C   0  0  0  0  0  0  0  0  0  0  0  0
  192.6450  172.8970  144.6720 C   0  0  0  0  0  0  0  0  0  0  0  0
  192.0300  172.8670  143.4100 C   0  0  1  0  0  3  0  0  0  0  0  0
  190.2870  172.8870  139.6130 C   0  0  0  0  0  0  0  0  0  0  0  0
  190.8780  172.8480  140.8980 C   0  0  0  0  0  0  0  0  0  0  0  0
  191.9870  172.0230  141.2280 C   0  0  0  0  0  0  0  0  0  0  0  0
  188.7110  174.5180  140.3790 N   0  0  0  0  0  0  0  0  0  0  0  0
  189.2120  173.7500  139.3760 C   0  0  0  0  0  0  0  0  0  0  0  0
  187.6390  176.0520  142.3880 N   0  0  0  0  0  2  0  0  0  0  0  0
  190.9140  173.6920  143.1520 C   0  0  0  0  0  0  0  0  0  0  0  0
  192.5030  172.0730  142.4530 O   0  0  0  0  0  0  0  0  0  0  0  0
  189.2410  174.5110  141.6310 C   0  0  0  0  0  0  0  0  0  0  0  0
  191.0350  174.5530  145.4390 C   0  0  0  0  0  0  0  0  0  0  0  0
  188.6930  175.3270  142.6370 C   0  0  0  0  0  0  0  0  0  0  0  0
  192.1530  173.7370  145.6700 C   0  0  0  0  0  3  0  0  0  0  0  0
  187.2970  178.2660  143.0950 O   0  0  0  0  0  0  0  0  0  0  0  0
  183.8700  178.2970  142.4910 C   0  0  0  0  0  1  0  0  0  0  0  0
  186.9700  176.9200  143.3540 C   0  0  1  0  0  3  0  0  0  0  0  0
  186.0710  178.9520  142.9550 C   0  0  0  0  0  2  0  0  0  0  0  0
  185.4730  176.7850  143.2390 C   0  0  0  0  0  2  0  0  0  0  0  0
  184.9710  178.1190  143.4250 N   0  0  0  0  0  0  0  0  0  0  0  0
  191.5950  175.7890  147.3910 O   0  0  0  0  0  1  0  0  0  0  0  0
  190.5440  175.4670  146.5300 C   0  0  2  0  0  3  0  0  0  0  0  0
  189.4100  174.8360  147.3140 C   0  0  0  0  0  1  0  0  0  0  0  0
  192.6180  171.0840  140.2470 C   0  0  0  0  0  2  0  0  0  0  0  0
  194.1000  171.3650  140.1150 C   0  0  0  0  0  2  0  0  0  0  0  0
  194.3030  172.7410  139.5070 C   0  0  0  0  0  2  0  0  0  0  0  0
  195.6220  173.3290  139.9760 C   0  0  0  0  0  2  0  0  0  0  0  0
  195.5110  173.7990  141.3510 N   0  0  0  0  0  2  0  0  0  0  0  0
  197.4330  174.1590  142.4150 O   0  0  0  0  0  1  0  0  0  0  0  0
  196.5460  174.7270  141.5630 N   0  0  0  0  0  0  0  0  0  0  0  0
  196.0000  175.9230  142.2180 C   0  0  1  0  0  3  0  0  0  0  0  0
  195.7830  176.9470  141.2900 O   0  0  0  0  0  1  0  0  0  0  0  0
  194.7560  175.6580  143.0840 C   0  0  0  0  0  2  0  0  0  0  0  0
  195.0340  175.7460  144.5790 C   0  0  0  0  0  2  0  0  0  0  0  0
  194.2000  176.8220  145.1940 C   0  0  0  0  0  0  0  0  0  0  0  0
  193.1120  177.1590  144.6530 O   0  0  0  0  0  0  0  0  0  0  0  0
  194.6130  177.4560  146.3580 O   0  0  0  0  0  1  0  0  0  0  0  0
  188.6070  173.8340  138.0170 C   0  0  0  0  0  2  0  0  0  0  0  0
  189.3940  174.7900  135.8320 C   0  0  0  0  0  0  0  0  0  0  0  0
  187.8490  177.8890  135.0840 C   0  0  0  0  0  1  0  0  0  0  0  0
  188.1880  175.5410  135.6940 N   0  0  0  0  0  0  0  0  0  0  0  0
  186.8780  176.0340  136.2090 C   0  0  0  0  0  2  0  0  0  0  0  0
  187.2860  176.4840  134.9700 C   0  0  1  0  0  3  0  0  0  0  0  0
  190.2480  174.8050  134.9050 O   0  0  0  0  0  0  0  0  0  0  0  0
  189.6440  174.0300  137.0160 N   0  0  0  0  0  2  0  0  0  0  0  0
  1 14  2  0  0  0  0
  2  8  1  0  0  0  0
  3  5  1  0  0  0  0
  5 17  2  0  0  0  0
  6  4  1  0  0  0  0
  6 19  2  0  0  0  0
  7 15  1  6  0  0  0
  7  6  1  0  0  0  0
  8  9  1  0  0  0  0
  9 10  2  0  0  0  0
  9  1  1  0  0  0  0
 10 15  1  0  0  0  0
 11 16  2  0  0  0  0
 12  8  2  0  0  0  0
 12 11  1  0  0  0  0
 13 18  1  0  0  0  0
 14  7  1  0  0  0  0
 14  5  1  0  0  0  0
 16  1  1  0  0  0  0
 16 18  1  0  0  0  0
 17 19  1  0  0  0  0
 17 27  1  0  0  0  0
 18  3  2  0  0  0  0
 20 22  1  0  0  0  0
 21 25  1  0  0  0  0
 22 13  1  6  0  0  0
 23 20  1  0  0  0  0
 23 25  1  0  0  0  0
 24 22  1  0  0  0  0
 24 25  1  0  0  0  0
 27 28  1  1  0  0  0
 27 26  1  0  0  0  0
 29 10  1  0  0  0  0
 30 29  1  0  0  0  0
 31 32  1  0  0  0  0
 31 30  1  0  0  0  0
 32 33  1  0  0  0  0
 33 35  1  0  0  0  0
 35 36  1  0  0  0  0
 35 34  1  0  0  0  0
 36 37  1  6  0  0  0
 36 38  1  0  0  0  0
 38 39  1  0  0  0  0
 39 40  1  0  0  0  0
 40 42  1  0  0  0  0
 41 40  2  0  0  0  0
 43 12  1  0  0  0  0
 44 50  1  0  0  0  0
 46 44  1  0  0  0  0
 46 47  1  0  0  0  0
 48 45  1  1  0  0  0
 48 46  1  0  0  0  0
 48 47  1  0  0  0  0
 49 44  2  0  0  0  0
 50 43  1  0  0  0  0
M  END
>  <MODEL>
5

>  <REMARK>
 VINA RESULT:      -6.9      2.337      7.792
  Name = 
  14 active torsions:
  status: ('A' for Active; 'I' for Inactive)
    1  A    between atoms: C_16  and  C_17
    2  A    between atoms: C_16  and  C_24
    3  A    between atoms: C_17  and  C_49
    4  A    between atoms: C_18  and  C_31
    5  A    between atoms: C_18  and  C_34
    6  A    between atoms: N_19  and  C_23
    7  A    between atoms: N_19  and  N_37
    8  A    between atoms: C_23  and  C_49
    9  A    between atoms: C_25  and  C_46
   10  A    between atoms: C_26  and  C_29
   11  A    between atoms: C_26  and  N_47
   12  A    between atoms: C_28  and  C_34
   13  A    between atoms: C_28  and  N_37
   14  A    between atoms: N_30  and  C_32
                            x       y       z     vdW  Elec       q    Type
                         _______ _______ _______ _____ _____    ______ ____

>  <TORSDO>
F 14

$$$$
=
 OpenBabel11042419503D

 50 55  0  0  1  0  0  0  0  0999 V2000
  189.5460  174.1720  141.8250 C   0  0  0  0  0  0  0  0  0  0  0  0
  189.6080  176.4270  144.7890 O   0  0  0  0  0  1  0  0  0  0  0  0
  188.9250  173.2580  139.2570 C   0  0  0  0  0  3  0  0  0  0  0  0
  192.0030  170.0370  142.8240 C   0  0  0  0  0  1  0  0  0  0  0  0
  189.6810  172.4610  140.1260 C   0  0  0  0  0  0  0  0  0  0  0  0
  191.1920  170.8910  141.9070 C   0  0  0  0  0  0  0  0  0  0  0  0
  190.7580  172.1660  142.3030 C   0  0  0  0  0  0  0  0  0  0  0  0
  189.3440  175.9020  143.5280 C   0  0  0  0  0  0  0  0  0  0  0  0
  189.8520  174.6440  143.1250 C   0  0  0  0  0  0  0  0  0  0  0  0
  190.6470  173.8140  143.9600 C   0  0  0  0  0  0  0  0  0  0  0  0
  188.2950  176.1710  141.3930 N   0  0  0  0  0  0  0  0  0  0  0  0
  188.5480  176.6370  142.6430 C   0  0  0  0  0  0  0  0  0  0  0  0
  187.7970  175.2860  138.8420 N   0  0  0  0  0  0  0  0  0  0  0  0
  189.9920  172.9540  141.4170 C   0  0  0  0  0  0  0  0  0  0  0  0
  191.0560  172.6300  143.5130 O   0  0  0  0  0  0  0  0  0  0  0  0
  188.7650  174.9710  140.9570 C   0  0  0  0  0  0  0  0  0  0  0  0
  190.1240  171.1790  139.7390 C   0  0  0  0  0  0  0  0  0  0  0  0
  188.4740  174.5260  139.6560 C   0  0  0  0  0  0  0  0  0  0  0  0
  190.8700  170.4040  140.6400 C   0  0  0  0  0  3  0  0  0  0  0  0
  186.3220  175.6770  137.0560 O   0  0  0  0  0  0  0  0  0  0  0  0
  188.7350  176.9230  134.8800 C   0  0  0  0  0  1  0  0  0  0  0  0
  187.4520  174.9410  137.4640 C   0  0  1  0  0  3  0  0  0  0  0  0
  186.6910  176.3430  135.8680 C   0  0  0  0  0  2  0  0  0  0  0  0
  188.5840  175.2910  136.5320 C   0  0  0  0  0  2  0  0  0  0  0  0
  187.9400  175.7980  135.3510 N   0  0  0  0  0  0  0  0  0  0  0  0
  189.9510  169.2290  138.3900 O   0  0  0  0  0  1  0  0  0  0  0  0
  189.7720  170.6130  138.3890 C   0  0  2  0  0  3  0  0  0  0  0  0
  190.6100  171.2390  137.2900 C   0  0  0  0  0  1  0  0  0  0  0  0
  191.0550  174.2120  145.3450 C   0  0  0  0  0  2  0  0  0  0  0  0
  192.4490  174.8030  145.3420 C   0  0  0  0  0  2  0  0  0  0  0  0
  193.4430  173.7630  145.8290 C   0  0  0  0  0  2  0  0  0  0  0  0
  194.4190  173.4150  144.7190 C   0  0  0  0  0  2  0  0  0  0  0  0
  195.4100  174.4700  144.5610 N   0  0  0  0  0  2  0  0  0  0  0  0
  196.9230  174.7040  142.9440 O   0  0  0  0  0  1  0  0  0  0  0  0
  195.5890  174.6750  143.1810 N   0  0  0  0  0  0  0  0  0  0  0  0
  195.0400  175.9850  142.8080 C   0  0  1  0  0  3  0  0  0  0  0  0
  196.0130  176.7790  142.1930 O   0  0  0  0  0  1  0  0  0  0  0  0
  193.7450  175.9160  141.9800 C   0  0  0  0  0  2  0  0  0  0  0  0
  193.5210  174.5590  141.3260 C   0  0  0  0  0  2  0  0  0  0  0  0
  194.1560  174.5290  139.9740 C   0  0  0  0  0  0  0  0  0  0  0  0
  193.4630  174.7790  138.9500 O   0  0  0  0  0  0  0  0  0  0  0  0
  195.5030  174.2250  139.8330 O   0  0  0  0  0  1  0  0  0  0  0  0
  187.9700  177.9430  143.0680 C   0  0  0  0  0  2  0  0  0  0  0  0
  185.4840  177.7220  143.3480 C   0  0  0  0  0  0  0  0  0  0  0  0
  184.4530  178.2510  146.6950 C   0  0  0  0  0  1  0  0  0  0  0  0
  185.6400  177.3980  144.7290 N   0  0  0  0  0  0  0  0  0  0  0  0
  186.4710  177.2330  145.9570 C   0  0  0  0  0  2  0  0  0  0  0  0
  185.1110  177.0310  146.0760 C   0  0  1  0  0  3  0  0  0  0  0  0
  184.3370  177.6940  142.8260 O   0  0  0  0  0  0  0  0  0  0  0  0
  186.6170  178.0860  142.5550 N   0  0  0  0  0  2  0  0  0  0  0  0
  1  9  1  0  0  0  0
  3 18  1  0  0  0  0
  3  5  2  0  0  0  0
  5 14  1  0  0  0  0
  6  7  2  0  0  0  0
  6  4  1  0  0  0  0
  7 15  1  0  0  0  0
  8  2  1  0  0  0  0
  9  8  1  0  0  0  0
  9 10  2  0  0  0  0
 10 29  1  0  0  0  0
 11 12  1  0  0  0  0
 12 43  1  0  0  0  0
 12  8  2  0  0  0  0
 13 18  2  0  0  0  0
 14  1  2  0  0  0  0
 14  7  1  0  0  0  0
 15 10  1  0  0  0  0
 16 11  2  0  0  0  0
 16  1  1  0  0  0  0
 17  5  1  0  0  0  0
 17 19  2  0  0  0  0
 18 16  1  0  0  0  0
 19  6  1  0  0  0  0
 20 22  1  0  0  0  0
 21 25  1  0  0  0  0
 22 13  1  1  0  0  0
 23 20  1  0  0  0  0
 24 22  1  0  0  0  0
 25 23  1  0  0  0  0
 25 24  1  0  0  0  0
 27 28  1  6  0  0  0
 27 26  1  0  0  0  0
 27 17  1  0  0  0  0
 30 29  1  0  0  0  0
 30 31  1  0  0  0  0
 32 31  1  0  0  0  0
 33 32  1  0  0  0  0
 34 35  1  0  0  0  0
 35 33  1  0  0  0  0
 36 37  1  6  0  0  0
 36 35  1  0  0  0  0
 38 36  1  0  0  0  0
 39 38  1  0  0  0  0
 40 39  1  0  0  0  0
 41 40  2  0  0  0  0
 42 40  1  0  0  0  0
 44 46  1  0  0  0  0
 46 47  1  0  0  0  0
 46 48  1  0  0  0  0
 47 48  1  0  0  0  0
 48 45  1  1  0  0  0
 49 44  2  0  0  0  0
 50 43  1  0  0  0  0
 50 44  1  0  0  0  0
M  END
>  <MODEL>
6

>  <REMARK>
 VINA RESULT:      -6.9      2.653      7.942
  Name = 
  14 active torsions:
  status: ('A' for Active; 'I' for Inactive)
    1  A    between atoms: C_16  and  C_17
    2  A    between atoms: C_16  and  C_24
    3  A    between atoms: C_17  and  C_49
    4  A    between atoms: C_18  and  C_31
    5  A    between atoms: C_18  and  C_34
    6  A    between atoms: N_19  and  C_23
    7  A    between atoms: N_19  and  N_37
    8  A    between atoms: C_23  and  C_49
    9  A    between atoms: C_25  and  C_46
   10  A    between atoms: C_26  and  C_29
   11  A    between atoms: C_26  and  N_47
   12  A    between atoms: C_28  and  C_34
   13  A    between atoms: C_28  and  N_37
   14  A    between atoms: N_30  and  C_32
                            x       y       z     vdW  Elec       q    Type
                         _______ _______ _______ _____ _____    ______ ____

>  <TORSDO>
F 14

$$$$
=
 OpenBabel11042419503D

 50 55  0  0  1  0  0  0  0  0999 V2000
  192.2740  174.5660  142.5990 C   0  0  0  0  0  0  0  0  0  0  0  0
  188.9880  172.9180  143.2010 O   0  0  0  0  0  1  0  0  0  0  0  0
  194.5450  175.4250  141.2140 C   0  0  0  0  0  3  0  0  0  0  0  0
  193.9680  176.4870  146.7920 C   0  0  0  0  0  1  0  0  0  0  0  0
  194.4110  175.6900  142.5820 C   0  0  0  0  0  0  0  0  0  0  0  0
  194.1040  176.1960  145.3350 C   0  0  0  0  0  0  0  0  0  0  0  0
  193.0910  175.5190  144.6350 C   0  0  0  0  0  0  0  0  0  0  0  0
  190.1460  173.3810  142.5840 C   0  0  0  0  0  0  0  0  0  0  0  0
  191.1200  174.1230  143.2920 C   0  0  0  0  0  0  0  0  0  0  0  0
  191.0150  174.4420  144.6720 C   0  0  0  0  0  0  0  0  0  0  0  0
  191.4530  173.5570  140.5860 N   0  0  0  0  0  0  0  0  0  0  0  0
  190.3500  173.0960  141.2290 C   0  0  0  0  0  0  0  0  0  0  0  0
  193.6460  174.5110  139.2360 N   0  0  0  0  0  0  0  0  0  0  0  0
  193.2440  175.2550  143.2570 C   0  0  0  0  0  0  0  0  0  0  0  0
  191.9940  175.1160  145.2690 O   0  0  0  0  0  0  0  0  0  0  0  0
  192.4140  174.2790  141.2220 C   0  0  0  0  0  0  0  0  0  0  0  0
  195.4210  176.3710  143.2950 C   0  0  0  0  0  0  0  0  0  0  0  0
  193.5430  174.7330  140.5160 C   0  0  0  0  0  0  0  0  0  0  0  0
  195.2570  176.6090  144.6690 C   0  0  0  0  0  3  0  0  0  0  0  0
  195.5950  173.8550  138.1010 O   0  0  0  0  0  0  0  0  0  0  0  0
  194.4330  174.6640  134.9220 C   0  0  0  0  0  1  0  0  0  0  0  0
  194.7570  174.9500  138.3960 C   0  0  1  0  0  3  0  0  0  0  0  0
  195.7020  173.8050  136.6950 C   0  0  0  0  0  2  0  0  0  0  0  0
  194.2470  175.4970  137.0870 C   0  0  0  0  0  2  0  0  0  0  0  0
  195.1920  175.0370  136.1060 N   0  0  0  0  0  0  0  0  0  0  0  0
  196.4220  177.1550  141.2870 O   0  0  0  0  0  1  0  0  0  0  0  0
  196.6890  176.8080  142.6120 C   0  0  2  0  0  3  0  0  0  0  0  0
  197.7460  175.7220  142.6560 C   0  0  0  0  0  1  0  0  0  0  0  0
  189.8350  174.0490  145.5060 C   0  0  0  0  0  2  0  0  0  0  0  0
  189.4470  175.1710  146.4470 C   0  0  0  0  0  2  0  0  0  0  0  0
  188.4730  176.1050  145.7510 C   0  0  0  0  0  2  0  0  0  0  0  0
  189.1880  177.3690  145.3080 C   0  0  0  0  0  2  0  0  0  0  0  0
  189.1760  177.4810  143.8560 N   0  0  0  0  0  2  0  0  0  0  0  0
  188.2770  176.2070  142.2670 O   0  0  0  0  0  1  0  0  0  0  0  0
  187.9840  176.8930  143.3980 N   0  0  0  0  0  0  0  0  0  0  0  0
  187.0240  177.9480  143.0470 C   0  0  1  0  0  3  0  0  0  0  0  0
  187.1910  178.3530  141.7180 O   0  0  0  0  0  1  0  0  0  0  0  0
  185.5590  177.6010  143.3640 C   0  0  0  0  0  2  0  0  0  0  0  0
  184.8240  178.7130  144.1030 C   0  0  0  0  0  2  0  0  0  0  0  0
  184.6400  178.3400  145.5380 C   0  0  0  0  0  0  0  0  0  0  0  0
  183.6860  178.8360  146.1970 O   0  0  0  0  0  1  0  0  0  0  0  0
  185.5120  177.4530  146.1540 O   0  0  0  0  0  0  0  0  0  0  0  0
  189.3530  172.2780  140.4810 C   0  0  0  0  0  2  0  0  0  0  0  0
  188.5640  173.4670  138.4140 C   0  0  0  0  0  0  0  0  0  0  0  0
  189.3140  171.6670  135.4570 C   0  0  0  0  0  1  0  0  0  0  0  0
  189.5400  172.7940  137.6210 N   0  0  0  0  0  0  0  0  0  0  0  0
  190.6200  171.7800  137.4410 C   0  0  0  0  0  2  0  0  0  0  0  0
  190.2330  172.5020  136.3300 C   0  0  1  0  0  3  0  0  0  0  0  0
  187.8310  174.3470  137.8880 O   0  0  0  0  0  0  0  0  0  0  0  0
  188.4050  173.1430  139.7970 N   0  0  0  0  0  2  0  0  0  0  0  0
  1 14  2  0  0  0  0
  1  9  1  0  0  0  0
  3  5  2  0  0  0  0
  5 14  1  0  0  0  0
  5 17  1  0  0  0  0
  6  4  1  0  0  0  0
  7 15  1  0  0  0  0
  7  6  2  0  0  0  0
  8  2  1  0  0  0  0
  8  9  1  0  0  0  0
  9 10  2  0  0  0  0
 10 15  1  0  0  0  0
 10 29  1  0  0  0  0
 11 16  2  0  0  0  0
 11 12  1  0  0  0  0
 12  8  2  0  0  0  0
 13 18  2  0  0  0  0
 14  7  1  0  0  0  0
 16  1  1  0  0  0  0
 17 19  2  0  0  0  0
 18  3  1  0  0  0  0
 18 16  1  0  0  0  0
 19  6  1  0  0  0  0
 20 22  1  0  0  0  0
 21 25  1  0  0  0  0
 22 13  1  1  0  0  0
 23 20  1  0  0  0  0
 24 22  1  0  0  0  0
 25 23  1  0  0  0  0
 25 24  1  0  0  0  0
 26 27  1  0  0  0  0
 27 28  1  6  0  0  0
 27 17  1  0  0  0  0
 29 30  1  0  0  0  0
 31 30  1  0  0  0  0
 32 31  1  0  0  0  0
 33 32  1  0  0  0  0
 34 35  1  0  0  0  0
 35 33  1  0  0  0  0
 36 37  1  6  0  0  0
 36 38  1  0  0  0  0
 36 35  1  0  0  0  0
 38 39  1  0  0  0  0
 39 40  1  0  0  0  0
 40 42  2  0  0  0  0
 40 41  1  0  0  0  0
 43 12  1  0  0  0  0
 44 50  1  0  0  0  0
 46 44  1  0  0  0  0
 47 46  1  0  0  0  0
 48 45  1  6  0  0  0
 48 47  1  0  0  0  0
 48 46  1  0  0  0  0
 49 44  2  0  0  0  0
 50 43  1  0  0  0  0
M  END
>  <MODEL>
7

>  <REMARK>
 VINA RESULT:      -6.9      2.479      3.438
  Name = 
  14 active torsions:
  status: ('A' for Active; 'I' for Inactive)
    1  A    between atoms: C_16  and  C_17
    2  A    between atoms: C_16  and  C_24
    3  A    between atoms: C_17  and  C_49
    4  A    between atoms: C_18  and  C_31
    5  A    between atoms: C_18  and  C_34
    6  A    between atoms: N_19  and  C_23
    7  A    between atoms: N_19  and  N_37
    8  A    between atoms: C_23  and  C_49
    9  A    between atoms: C_25  and  C_46
   10  A    between atoms: C_26  and  C_29
   11  A    between atoms: C_26  and  N_47
   12  A    between atoms: C_28  and  C_34
   13  A    between atoms: C_28  and  N_37
   14  A    between atoms: N_30  and  C_32
                            x       y       z     vdW  Elec       q    Type
                         _______ _______ _______ _____ _____    ______ ____

>  <TORSDO>
F 14

$$$$
=
 OpenBabel11042419503D

 50 55  0  0  1  0  0  0  0  0999 V2000
  189.9420  174.1160  142.3440 C   0  0  0  0  0  0  0  0  0  0  0  0
  188.1820  173.7970  139.0770 O   0  0  0  0  0  1  0  0  0  0  0  0
  191.6360  173.4580  144.4680 C   0  0  0  0  0  3  0  0  0  0  0  0
  188.4670  178.2010  144.6400 C   0  0  0  0  0  1  0  0  0  0  0  0
  190.8620  174.6240  144.5180 C   0  0  0  0  0  0  0  0  0  0  0  0
  189.2840  176.9540  144.5800 C   0  0  0  0  0  0  0  0  0  0  0  0
  189.2390  176.1140  143.4550 C   0  0  1  0  0  3  0  0  0  0  0  0
  189.0020  173.5410  140.1720 C   0  0  0  0  0  0  0  0  0  0  0  0
  189.0850  174.4380  141.2630 C   0  0  0  0  0  0  0  0  0  0  0  0
  188.3420  175.6460  141.3460 C   0  0  0  0  0  0  0  0  0  0  0  0
  190.5890  172.0950  141.2300 N   0  0  0  0  0  0  0  0  0  0  0  0
  189.7550  172.3620  140.1920 C   0  0  0  0  0  0  0  0  0  0  0  0
  192.3220  171.5380  143.2850 N   0  0  0  0  0  2  0  0  0  0  0  0
  190.0220  174.9400  143.4230 C   0  0  0  0  0  0  0  0  0  0  0  0
  188.4540  176.4160  142.4250 O   0  0  0  0  0  0  0  0  0  0  0  0
  190.7080  172.9280  142.2980 C   0  0  0  0  0  0  0  0  0  0  0  0
  190.9000  175.4760  145.6430 C   0  0  0  0  0  0  0  0  0  0  0  0
  191.5800  172.6070  143.3530 C   0  0  0  0  0  0  0  0  0  0  0  0
  190.1020  176.6300  145.6620 C   0  0  0  0  0  3  0  0  0  0  0  0
  193.3770  169.7090  144.3140 O   0  0  0  0  0  0  0  0  0  0  0  0
  196.6050  170.5870  143.3550 C   0  0  0  0  0  1  0  0  0  0  0  0
  193.2780  171.1140  144.3060 C   0  0  1  0  0  3  0  0  0  0  0  0
  194.7470  169.4070  144.1590 C   0  0  0  0  0  2  0  0  0  0  0  0
  194.6490  171.6650  144.0080 C   0  0  0  0  0  2  0  0  0  0  0  0
  195.5530  170.6040  144.3610 N   0  0  0  0  0  0  0  0  0  0  0  0
  191.0170  175.3170  148.0120 O   0  0  0  0  0  1  0  0  0  0  0  0
  191.7520  175.1420  146.8380 C   0  0  2  0  0  3  0  0  0  0  0  0
  193.0040  175.9980  146.8830 C   0  0  0  0  0  1  0  0  0  0  0  0
  187.4200  176.1060  140.2590 C   0  0  0  0  0  2  0  0  0  0  0  0
  186.9080  177.5020  140.5470 C   0  0  0  0  0  2  0  0  0  0  0  0
  185.4010  177.5380  140.3640 C   0  0  0  0  0  2  0  0  0  0  0  0
  184.7550  178.2910  141.5130 C   0  0  0  0  0  2  0  0  0  0  0  0
  185.1700  177.7280  142.7910 N   0  0  0  0  0  2  0  0  0  0  0  0
  183.4110  179.0440  143.1560 O   0  0  0  0  0  1  0  0  0  0  0  0
  184.3160  178.2500  143.7780 N   0  0  0  0  0  0  0  0  0  0  0  0
  185.0920  179.0920  144.6980 C   0  0  1  0  0  3  0  0  0  0  0  0
  185.1940  180.4000  144.2140 O   0  0  0  0  0  1  0  0  0  0  0  0
  184.6020  179.0540  146.1560 C   0  0  0  0  0  2  0  0  0  0  0  0
  185.6450  178.5180  147.1280 C   0  0  0  0  0  2  0  0  0  0  0  0
  185.7980  177.0420  146.9560 C   0  0  0  0  0  0  0  0  0  0  0  0
  184.8340  176.3590  146.5160 O   0  0  0  0  0  0  0  0  0  0  0  0
  186.9940  176.4140  147.2790 O   0  0  0  0  0  1  0  0  0  0  0  0
  189.6450  171.3880  139.0700 C   0  0  0  0  0  2  0  0  0  0  0  0
  191.7160  170.7400  137.8050 C   0  0  0  0  0  0  0  0  0  0  0  0
  193.0190  173.4200  135.8900 C   0  0  0  0  0  1  0  0  0  0  0  0
  191.4830  171.7650  136.8410 N   0  0  0  0  0  0  0  0  0  0  0  0
  190.7310  172.9510  136.3360 C   0  0  0  0  0  2  0  0  0  0  0  0
  191.8240  172.5300  135.6050 C   0  0  1  0  0  3  0  0  0  0  0  0
  192.6790  169.9430  137.6470 O   0  0  0  0  0  0  0  0  0  0  0  0
  190.8720  170.6160  138.9520 N   0  0  0  0  0  2  0  0  0  0  0  0
  1 14  2  0  0  0  0
  2  8  1  0  0  0  0
  3  5  1  0  0  0  0
  5 17  2  0  0  0  0
  6  4  1  0  0  0  0
  6 19  2  0  0  0  0
  7 15  1  1  0  0  0
  7  6  1  0  0  0  0
  8 12  2  0  0  0  0
  8  9  1  0  0  0  0
  9 10  2  0  0  0  0
  9  1  1  0  0  0  0
 10 15  1  0  0  0  0
 11 16  2  0  0  0  0
 12 11  1  0  0  0  0
 13 18  1  0  0  0  0
 14  7  1  0  0  0  0
 14  5  1  0  0  0  0
 16  1  1  0  0  0  0
 16 18  1  0  0  0  0
 17 19  1  0  0  0  0
 17 27  1  0  0  0  0
 18  3  2  0  0  0  0
 21 25  1  0  0  0  0
 22 13  1  6  0  0  0
 22 20  1  0  0  0  0
 23 20  1  0  0  0  0
 23 25  1  0  0  0  0
 24 22  1  0  0  0  0
 24 25  1  0  0  0  0
 27 28  1  1  0  0  0
 27 26  1  0  0  0  0
 29 30  1  0  0  0  0
 29 10  1  0  0  0  0
 31 30  1  0  0  0  0
 31 32  1  0  0  0  0
 32 33  1  0  0  0  0
 33 35  1  0  0  0  0
 34 35  1  0  0  0  0
 35 36  1  0  0  0  0
 36 37  1  6  0  0  0
 36 38  1  0  0  0  0
 38 39  1  0  0  0  0
 40 39  1  0  0  0  0
 40 42  1  0  0  0  0
 41 40  2  0  0  0  0
 43 12  1  0  0  0  0
 44 50  1  0  0  0  0
 46 44  1  0  0  0  0
 47 46  1  0  0  0  0
 48 45  1  1  0  0  0
 48 47  1  0  0  0  0
 48 46  1  0  0  0  0
 49 44  2  0  0  0  0
 50 43  1  0  0  0  0
M  END
>  <MODEL>
8

>  <REMARK>
 VINA RESULT:      -6.8      2.545      4.280
  Name = 
  14 active torsions:
  status: ('A' for Active; 'I' for Inactive)
    1  A    between atoms: C_16  and  C_17
    2  A    between atoms: C_16  and  C_24
    3  A    between atoms: C_17  and  C_49
    4  A    between atoms: C_18  and  C_31
    5  A    between atoms: C_18  and  C_34
    6  A    between atoms: N_19  and  C_23
    7  A    between atoms: N_19  and  N_37
    8  A    between atoms: C_23  and  C_49
    9  A    between atoms: C_25  and  C_46
   10  A    between atoms: C_26  and  C_29
   11  A    between atoms: C_26  and  N_47
   12  A    between atoms: C_28  and  C_34
   13  A    between atoms: C_28  and  N_37
   14  A    between atoms: N_30  and  C_32
                            x       y       z     vdW  Elec       q    Type
                         _______ _______ _______ _____ _____    ______ ____

>  <TORSDO>
F 14

$$$$
=
 OpenBabel11042419503D

 50 55  0  0  1  0  0  0  0  0999 V2000
  190.1100  173.3430  140.6510 C   0  0  0  0  0  0  0  0  0  0  0  0
  189.3410  174.5220  144.0990 O   0  0  0  0  0  1  0  0  0  0  0  0
  191.4170  171.9730  138.5950 C   0  0  0  0  0  3  0  0  0  0  0  0
  187.0550  175.4690  137.4430 C   0  0  0  0  0  1  0  0  0  0  0  0
  190.3470  172.8290  138.3030 C   0  0  0  0  0  0  0  0  0  0  0  0
  188.1970  174.5630  137.7630 C   0  0  0  0  0  0  0  0  0  0  0  0
  188.6110  174.3630  139.0900 C   0  0  0  0  0  0  0  0  0  0  0  0
  189.9360  173.8740  143.0220 C   0  0  0  0  0  0  0  0  0  0  0  0
  189.4570  174.0360  141.7000 C   0  0  0  0  0  0  0  0  0  0  0  0
  188.3580  174.8690  141.3600 C   0  0  0  0  0  0  0  0  0  0  0  0
  191.6300  172.3780  142.2320 N   0  0  0  0  0  0  0  0  0  0  0  0
  191.0420  173.0490  143.2560 C   0  0  0  0  0  0  0  0  0  0  0  0
  192.8180  170.9650  140.2000 N   0  0  0  0  0  0  0  0  0  0  0  0
  189.6950  173.5010  139.3660 C   0  0  0  0  0  0  0  0  0  0  0  0
  187.9930  174.9900  140.0860 O   0  0  0  0  0  0  0  0  0  0  0  0
  191.2020  172.4960  140.9470 C   0  0  0  0  0  0  0  0  0  0  0  0
  189.9220  173.0370  136.9740 C   0  0  0  0  0  0  0  0  0  0  0  0
  191.8450  171.7840  139.9180 C   0  0  0  0  0  0  0  0  0  0  0  0
  188.8530  173.9100  136.7190 C   0  0  0  0  0  3  0  0  0  0  0  0
  194.6640  170.8750  138.7490 O   0  0  0  0  0  0  0  0  0  0  0  0
  196.2220  168.2000  140.3390 C   0  0  0  0  0  1  0  0  0  0  0  0
  193.5450  170.1590  139.2220 C   0  0  1  0  0  3  0  0  0  0  0  0
  195.7840  170.0430  138.9600 C   0  0  0  0  0  2  0  0  0  0  0  0
  194.0520  168.8890  139.8560 C   0  0  0  0  0  2  0  0  0  0  0  0
  195.3540  168.6870  139.2780 N   0  0  0  0  0  0  0  0  0  0  0  0
  191.5040  173.2640  135.2150 O   0  0  0  0  0  1  0  0  0  0  0  0
  190.6240  172.3670  135.8230 C   0  0  2  0  0  3  0  0  0  0  0  0
  189.6350  171.8430  134.8000 C   0  0  0  0  0  1  0  0  0  0  0  0
  187.5740  175.6340  142.3810 C   0  0  0  0  0  2  0  0  0  0  0  0
  186.8330  176.7850  141.7350 C   0  0  0  0  0  2  0  0  0  0  0  0
  187.2080  178.0830  142.4270 C   0  0  0  0  0  2  0  0  0  0  0  0
  185.9590  178.8920  142.7290 C   0  0  0  0  0  2  0  0  0  0  0  0
  185.8940  179.2200  144.1470 N   0  0  0  0  0  2  0  0  0  0  0  0
  183.8100  179.0340  144.9080 O   0  0  0  0  0  1  0  0  0  0  0  0
  184.9650  178.3460  144.7390 N   0  0  0  0  0  0  0  0  0  0  0  0
  185.4480  177.9500  146.0680 C   0  0  1  0  0  3  0  0  0  0  0  0
  184.8000  176.7930  146.5120 O   0  0  0  0  0  1  0  0  0  0  0  0
  186.9790  177.8290  146.1750 C   0  0  0  0  0  2  0  0  0  0  0  0
  187.4480  176.4210  146.5180 C   0  0  0  0  0  2  0  0  0  0  0  0
  188.8930  176.4390  146.8970 C   0  0  0  0  0  0  0  0  0  0  0  0
  189.5370  177.5220  146.8650 O   0  0  0  0  0  0  0  0  0  0  0  0
  189.5360  175.2700  147.2820 O   0  0  0  0  0  1  0  0  0  0  0  0
  191.5850  172.9030  144.6360 C   0  0  0  0  0  2  0  0  0  0  0  0
  193.9200  173.8290  144.6190 C   0  0  0  0  0  0  0  0  0  0  0  0
  194.2000  176.8110  146.5100 C   0  0  0  0  0  1  0  0  0  0  0  0
  193.4310  175.1420  144.8890 N   0  0  0  0  0  0  0  0  0  0  0  0
  192.3340  176.0960  145.2220 C   0  0  0  0  0  2  0  0  0  0  0  0
  193.6130  176.6050  145.1250 C   0  0  1  0  0  3  0  0  0  0  0  0
  195.1500  173.6510  144.4110 O   0  0  0  0  0  0  0  0  0  0  0  0
  193.0260  172.7130  144.5920 N   0  0  0  0  0  2  0  0  0  0  0  0
  1 16  1  0  0  0  0
  1  9  1  0  0  0  0
  3 18  1  0  0  0  0
  4  6  1  0  0  0  0
  5  3  2  0  0  0  0
  5 14  1  0  0  0  0
  6  7  2  0  0  0  0
  7 14  1  0  0  0  0
  7 15  1  0  0  0  0
  8 12  2  0  0  0  0
  8  2  1  0  0  0  0
  9  8  1  0  0  0  0
 10  9  2  0  0  0  0
 10 29  1  0  0  0  0
 11 12  1  0  0  0  0
 12 43  1  0  0  0  0
 14  1  2  0  0  0  0
 15 10  1  0  0  0  0
 16 11  2  0  0  0  0
 17  5  1  0  0  0  0
 18 13  2  0  0  0  0
 18 16  1  0  0  0  0
 19 17  2  0  0  0  0
 19  6  1  0  0  0  0
 20 23  1  0  0  0  0
 20 22  1  0  0  0  0
 22 24  1  0  0  0  0
 22 13  1  1  0  0  0
 23 25  1  0  0  0  0
 25 24  1  0  0  0  0
 25 21  1  0  0  0  0
 26 27  1  0  0  0  0
 27 28  1  6  0  0  0
 27 17  1  0  0  0  0
 30 29  1  0  0  0  0
 30 31  1  0  0  0  0
 31 32  1  0  0  0  0
 32 33  1  0  0  0  0
 33 35  1  0  0  0  0
 35 34  1  0  0  0  0
 35 36  1  0  0  0  0
 36 38  1  0  0  0  0
 36 37  1  6  0  0  0
 38 39  1  0  0  0  0
 39 40  1  0  0  0  0
 40 42  1  0  0  0  0
 41 40  2  0  0  0  0
 44 46  1  0  0  0  0
 46 48  1  0  0  0  0
 46 47  1  0  0  0  0
 48 47  1  0  0  0  0
 48 45  1  1  0  0  0
 49 44  2  0  0  0  0
 50 44  1  0  0  0  0
 50 43  1  0  0  0  0
M  END
>  <MODEL>
9

>  <REMARK>
 VINA RESULT:      -6.8      2.337      6.595
  Name = 
  14 active torsions:
  status: ('A' for Active; 'I' for Inactive)
    1  A    between atoms: C_16  and  C_17
    2  A    between atoms: C_16  and  C_24
    3  A    between atoms: C_17  and  C_49
    4  A    between atoms: C_18  and  C_31
    5  A    between atoms: C_18  and  C_34
    6  A    between atoms: N_19  and  C_23
    7  A    between atoms: N_19  and  N_37
    8  A    between atoms: C_23  and  C_49
    9  A    between atoms: C_25  and  C_46
   10  A    between atoms: C_26  and  C_29
   11  A    between atoms: C_26  and  N_47
   12  A    between atoms: C_28  and  C_34
   13  A    between atoms: C_28  and  N_37
   14  A    between atoms: N_30  and  C_32
                            x       y       z     vdW  Elec       q    Type
                         _______ _______ _______ _____ _____    ______ ____

>  <TORSDO>
F 14

$$$$
