=
 OpenBabel11042414523D

 32 34  0  0  1  0  0  0  0  0999 V2000
  190.0110  175.7930  144.3610 O   0  0  0  0  0  0  0  0  0  0  0  0
  189.6370  176.0300  145.7010 C   0  0  2  0  0  0  0  0  0  0  0  0
  189.6170  174.4770  144.0780 C   0  0  2  0  0  3  0  0  0  0  0  0
  189.7010  173.6500  145.3340 C   0  0  0  0  0  2  0  0  0  0  0  0
  189.6310  174.6780  146.4230 C   0  0  0  0  0  2  0  0  0  0  0  0
  191.6370  172.9460  140.3010 N   0  0  0  0  0  0  0  0  0  0  0  0
  192.7150  174.0220  142.1530 C   0  0  0  0  0  0  0  0  0  0  0  0
  187.9950  173.0720  141.8160 S   0  0  0  0  0  1  0  0  0  0  0  0
  190.3940  173.8860  142.9330 C   0  0  0  0  0  0  0  0  0  0  0  0
  190.5010  172.5630  140.7970 C   0  0  0  0  0  3  0  0  0  0  0  0
  189.7820  173.2530  141.8900 C   0  0  0  0  0  0  0  0  0  0  0  0
  192.3310  174.1490  140.7240 C   0  0  0  0  0  2  0  0  0  0  0  0
  191.8230  173.9340  143.0920 N   0  0  0  0  0  0  0  0  0  0  0  0
  194.4120  174.0490  142.5830 Cl  0  0  0  0  0  0  0  0  0  0  0  0
  185.5580  177.8150  144.8110 C   0  0  0  0  0  0  0  0  0  0  0  0
  187.4910  176.5190  146.9050 C   0  0  0  0  0  3  0  0  0  0  0  0
  188.0790  177.6960  144.7450 C   0  0  0  0  0  3  0  0  0  0  0  0
  186.9040  178.1810  144.3540 C   0  0  0  0  0  3  0  0  0  0  0  0
  186.1880  176.7600  147.0080 C   0  0  0  0  0  3  0  0  0  0  0  0
  185.2680  177.2330  145.9710 C   0  0  0  0  0  3  0  0  0  0  0  0
  188.3060  176.6750  145.7300 N   0  0  0  0  0  0  0  0  0  0  0  0
  184.4120  178.2470  143.9580 C   0  0  0  0  0  2  0  0  0  0  0  0
  183.7950  178.1800  141.5000 C   0  0  0  0  0  0  0  0  0  0  0  0
  184.7680  178.1780  142.5470 N   0  0  0  0  0  2  0  0  0  0  0  0
  184.2120  178.1560  140.1760 O   0  0  0  0  0  0  0  0  0  0  0  0
  182.5640  178.1970  141.7650 O   0  0  0  0  0  1  0  0  0  0  0  0
  190.7020  176.9390  146.3310 C   0  0  0  0  0  2  0  0  0  0  0  0
  191.6470  176.2140  147.2820 C   0  0  0  0  0  2  0  0  0  0  0  0
  195.0090  175.6830  145.9500 O   0  0  0  0  0  0  0  0  0  0  0  0
  193.8210  175.4320  146.2760 C   0  0  0  0  0  0  0  0  0  0  0  0
  193.0250  176.4500  146.8810 N   0  0  0  0  0  2  0  0  0  0  0  0
  193.2850  174.1330  146.0430 N   0  0  0  0  0  1  0  0  0  0  0  0
  1  2  1  0  0  0  0
  2 21  1  0  0  0  0
  2 27  1  1  0  0  0
  2  5  1  0  0  0  0
  3  9  1  6  0  0  0
  3  1  1  0  0  0  0
  3  4  1  0  0  0  0
  4  5  1  0  0  0  0
  6 12  1  0  0  0  0
  6 10  2  0  0  0  0
  7 14  1  0  0  0  0
  7 13  2  0  0  0  0
  8 11  1  0  0  0  0
  9 13  1  0  0  0  0
 10 11  1  0  0  0  0
 11  9  2  0  0  0  0
 12  7  1  0  0  0  0
 15 20  2  0  0  0  0
 16 19  2  0  0  0  0
 17 21  1  0  0  0  0
 18 17  2  0  0  0  0
 18 15  1  0  0  0  0
 20 19  1  0  0  0  0
 21 16  1  0  0  0  0
 22 15  1  0  0  0  0
 23 26  1  0  0  0  0
 23 24  1  0  0  0  0
 24 22  1  0  0  0  0
 25 23  2  0  0  0  0
 27 28  1  0  0  0  0
 29 30  2  0  0  0  0
 30 31  1  0  0  0  0
 31 28  1  0  0  0  0
 32 30  1  0  0  0  0
M  END
>  <MODEL>
1

>  <REMARK>
 VINA RESULT:      -7.3      0.000      0.000
  Name = 
  7 active torsions:
  status: ('A' for Active; 'I' for Inactive)
    1  A    between atoms: C_2  and  C_13
    2  A    between atoms: C_2  and  N_32
    3  A    between atoms: C_6  and  C_17
    4  A    between atoms: C_7  and  C_12
    5  A    between atoms: C_11  and  C_13
    6  A    between atoms: C_11  and  N_26
    7  A    between atoms: C_17  and  N_18
                            x       y       z     vdW  Elec       q    Type
                         _______ _______ _______ _____ _____    ______ ____

>  <TORSDO>
F 7

$$$$
=
 OpenBabel11042414523D

 32 34  0  0  1  0  0  0  0  0999 V2000
  188.4600  175.8640  144.6800 O   0  0  0  0  0  0  0  0  0  0  0  0
  189.5210  175.8560  145.6090 C   0  0  2  0  0  0  0  0  0  0  0  0
  188.8880  176.6710  143.6140 C   0  0  2  0  0  3  0  0  0  0  0  0
  189.8090  177.7420  144.1380 C   0  0  0  0  0  2  0  0  0  0  0  0
  190.2990  177.1650  145.4310 C   0  0  0  0  0  2  0  0  0  0  0  0
  185.2360  177.8510  141.1720 N   0  0  0  0  0  0  0  0  0  0  0  0
  185.8820  178.7630  143.2940 C   0  0  0  0  0  0  0  0  0  0  0  0
  188.2810  175.3600  140.8510 S   0  0  0  0  0  1  0  0  0  0  0  0
  187.7340  177.2250  142.8230 C   0  0  0  0  0  0  0  0  0  0  0  0
  186.3270  177.2960  140.7400 C   0  0  0  0  0  3  0  0  0  0  0  0
  187.3800  176.7220  141.6050 C   0  0  0  0  0  0  0  0  0  0  0  0
  184.8800  177.9320  142.5770 C   0  0  0  0  0  2  0  0  0  0  0  0
  187.1230  178.3950  143.3950 N   0  0  0  0  0  0  0  0  0  0  0  0
  185.3610  180.2440  144.0670 Cl  0  0  0  0  0  0  0  0  0  0  0  0
  191.5110  172.0610  144.1080 C   0  0  0  0  0  0  0  0  0  0  0  0
  191.7780  174.7620  145.6670 C   0  0  0  0  0  3  0  0  0  0  0  0
  189.6850  173.4230  145.1960 C   0  0  0  0  0  3  0  0  0  0  0  0
  190.1730  172.3090  144.6580 C   0  0  0  0  0  3  0  0  0  0  0  0
  192.7360  173.9380  145.2540 C   0  0  0  0  0  3  0  0  0  0  0  0
  192.6070  172.7540  144.4020 C   0  0  0  0  0  3  0  0  0  0  0  0
  190.3740  174.6720  145.3670 N   0  0  0  0  0  0  0  0  0  0  0  0
  191.6760  170.8540  143.2460 C   0  0  0  0  0  2  0  0  0  0  0  0
  190.9550  171.4860  140.8990 C   0  0  0  0  0  0  0  0  0  0  0  0
  190.7050  170.8620  142.1600 N   0  0  0  0  0  2  0  0  0  0  0  0
  189.9980  171.4150  139.8970 O   0  0  0  0  0  0  0  0  0  0  0  0
  192.0330  172.1050  140.6900 O   0  0  0  0  0  1  0  0  0  0  0  0
  188.9100  175.8140  147.0180 C   0  0  0  0  0  2  0  0  0  0  0  0
  187.4160  176.1120  147.0510 C   0  0  0  0  0  2  0  0  0  0  0  0
  185.8100  179.3830  147.3240 O   0  0  0  0  0  0  0  0  0  0  0  0
  185.9450  178.1570  147.0790 C   0  0  0  0  0  0  0  0  0  0  0  0
  187.2020  177.5250  147.3190 N   0  0  0  0  0  2  0  0  0  0  0  0
  184.8460  177.4150  146.5620 N   0  0  0  0  0  1  0  0  0  0  0  0
  1  2  1  0  0  0  0
  2 27  1  1  0  0  0
  3  9  1  1  0  0  0
  3  4  1  0  0  0  0
  3  1  1  0  0  0  0
  4  5  1  0  0  0  0
  5  2  1  0  0  0  0
  6 12  1  0  0  0  0
  7 13  2  0  0  0  0
  7 14  1  0  0  0  0
  8 11  1  0  0  0  0
  9 13  1  0  0  0  0
 10  6  2  0  0  0  0
 10 11  1  0  0  0  0
 11  9  2  0  0  0  0
 12  7  1  0  0  0  0
 15 20  2  0  0  0  0
 15 18  1  0  0  0  0
 17 21  1  0  0  0  0
 18 17  2  0  0  0  0
 19 16  2  0  0  0  0
 20 19  1  0  0  0  0
 21  2  1  0  0  0  0
 21 16  1  0  0  0  0
 22 15  1  0  0  0  0
 23 24  1  0  0  0  0
 24 22  1  0  0  0  0
 25 23  2  0  0  0  0
 26 23  1  0  0  0  0
 27 28  1  0  0  0  0
 28 31  1  0  0  0  0
 30 31  1  0  0  0  0
 30 29  2  0  0  0  0
 32 30  1  0  0  0  0
M  END
>  <MODEL>
2

>  <REMARK>
 VINA RESULT:      -7.2      3.391      7.067
  Name = 
  7 active torsions:
  status: ('A' for Active; 'I' for Inactive)
    1  A    between atoms: C_2  and  C_13
    2  A    between atoms: C_2  and  N_32
    3  A    between atoms: C_6  and  C_17
    4  A    between atoms: C_7  and  C_12
    5  A    between atoms: C_11  and  C_13
    6  A    between atoms: C_11  and  N_26
    7  A    between atoms: C_17  and  N_18
                            x       y       z     vdW  Elec       q    Type
                         _______ _______ _______ _____ _____    ______ ____

>  <TORSDO>
F 7

$$$$
=
 OpenBabel11042414523D

 32 34  0  0  1  0  0  0  0  0999 V2000
  188.4620  175.9970  144.3550 O   0  0  0  0  0  0  0  0  0  0  0  0
  189.6070  175.9760  145.1780 C   0  0  2  0  0  0  0  0  0  0  0  0
  188.7620  176.8720  143.3010 C   0  0  2  0  0  3  0  0  0  0  0  0
  189.6970  177.9460  143.7940 C   0  0  0  0  0  2  0  0  0  0  0  0
  190.3250  177.3180  145.0010 C   0  0  0  0  0  2  0  0  0  0  0  0
  184.8540  178.0530  141.2940 N   0  0  0  0  0  0  0  0  0  0  0  0
  185.7000  178.9050  143.3700 C   0  0  0  0  0  0  0  0  0  0  0  0
  187.8960  175.6450  140.5680 S   0  0  0  0  0  1  0  0  0  0  0  0
  187.5210  177.4270  142.6540 C   0  0  0  0  0  0  0  0  0  0  0  0
  185.9040  177.5390  140.7320 C   0  0  0  0  0  3  0  0  0  0  0  0
  187.0530  176.9590  141.4610 C   0  0  0  0  0  0  0  0  0  0  0  0
  184.6440  178.0770  142.7300 C   0  0  0  0  0  2  0  0  0  0  0  0
  186.9510  178.5620  143.3290 N   0  0  0  0  0  0  0  0  0  0  0  0
  185.2330  180.3460  144.2470 Cl  0  0  0  0  0  0  0  0  0  0  0  0
  192.8260  172.8030  144.7390 C   0  0  0  0  0  0  0  0  0  0  0  0
  189.8440  173.6430  144.2870 C   0  0  0  0  0  3  0  0  0  0  0  0
  191.8620  175.1330  144.6090 C   0  0  0  0  0  3  0  0  0  0  0  0
  192.8670  174.2620  144.5870 C   0  0  0  0  0  3  0  0  0  0  0  0
  190.4000  172.4410  144.1710 C   0  0  0  0  0  3  0  0  0  0  0  0
  191.7620  172.0340  144.5240 C   0  0  0  0  0  3  0  0  0  0  0  0
  190.4680  174.8370  144.7910 N   0  0  0  0  0  0  0  0  0  0  0  0
  194.1160  172.1150  145.0370 C   0  0  0  0  0  2  0  0  0  0  0  0
  196.4310  172.7140  145.8820 C   0  0  0  0  0  0  0  0  0  0  0  0
  195.1510  173.0860  145.3640 N   0  0  0  0  0  2  0  0  0  0  0  0
  197.3820  173.6920  146.1300 O   0  0  0  0  0  1  0  0  0  0  0  0
  196.7010  171.5070  146.1210 O   0  0  0  0  0  0  0  0  0  0  0  0
  189.1360  175.8390  146.6340 C   0  0  0  0  0  2  0  0  0  0  0  0
  187.6400  176.0610  146.8210 C   0  0  0  0  0  2  0  0  0  0  0  0
  185.9280  179.2450  147.3590 O   0  0  0  0  0  0  0  0  0  0  0  0
  186.0950  178.0380  147.0470 C   0  0  0  0  0  0  0  0  0  0  0  0
  187.3890  177.4500  147.1710 N   0  0  0  0  0  2  0  0  0  0  0  0
  184.9920  177.2740  146.5700 N   0  0  0  0  0  1  0  0  0  0  0  0
  1  2  1  0  0  0  0
  2 27  1  1  0  0  0
  3  9  1  1  0  0  0
  3  4  1  0  0  0  0
  3  1  1  0  0  0  0
  4  5  1  0  0  0  0
  5  2  1  0  0  0  0
  6 12  1  0  0  0  0
  7 14  1  0  0  0  0
  8 11  1  0  0  0  0
  9 13  1  0  0  0  0
 10  6  2  0  0  0  0
 10 11  1  0  0  0  0
 11  9  2  0  0  0  0
 12  7  1  0  0  0  0
 13  7  2  0  0  0  0
 15 22  1  0  0  0  0
 16 21  1  0  0  0  0
 17 21  1  0  0  0  0
 18 17  2  0  0  0  0
 18 15  1  0  0  0  0
 19 16  2  0  0  0  0
 19 20  1  0  0  0  0
 20 15  2  0  0  0  0
 21  2  1  0  0  0  0
 22 24  1  0  0  0  0
 23 26  2  0  0  0  0
 23 25  1  0  0  0  0
 24 23  1  0  0  0  0
 27 28  1  0  0  0  0
 28 31  1  0  0  0  0
 30 31  1  0  0  0  0
 30 29  2  0  0  0  0
 32 30  1  0  0  0  0
M  END
>  <MODEL>
3

>  <REMARK>
 VINA RESULT:      -7.1      3.361      8.104
  Name = 
  7 active torsions:
  status: ('A' for Active; 'I' for Inactive)
    1  A    between atoms: C_2  and  C_13
    2  A    between atoms: C_2  and  N_32
    3  A    between atoms: C_6  and  C_17
    4  A    between atoms: C_7  and  C_12
    5  A    between atoms: C_11  and  C_13
    6  A    between atoms: C_11  and  N_26
    7  A    between atoms: C_17  and  N_18
                            x       y       z     vdW  Elec       q    Type
                         _______ _______ _______ _____ _____    ______ ____

>  <TORSDO>
F 7

$$$$
=
 OpenBabel11042414523D

 32 34  0  0  1  0  0  0  0  0999 V2000
  188.4880  175.8580  144.7260 O   0  0  0  0  0  0  0  0  0  0  0  0
  189.5320  175.8700  145.6750 C   0  0  2  0  0  0  0  0  0  0  0  0
  188.9220  176.6680  143.6660 C   0  0  2  0  0  3  0  0  0  0  0  0
  189.8160  177.7560  144.2030 C   0  0  0  0  0  2  0  0  0  0  0  0
  190.2910  177.1910  145.5070 C   0  0  0  0  0  2  0  0  0  0  0  0
  185.2930  177.7810  141.1610 N   0  0  0  0  0  0  0  0  0  0  0  0
  185.9070  178.7330  143.2740 C   0  0  0  0  0  0  0  0  0  0  0  0
  188.3580  175.3070  140.9190 S   0  0  0  0  0  1  0  0  0  0  0  0
  187.7740  177.2000  142.8520 C   0  0  0  0  0  0  0  0  0  0  0  0
  186.3920  177.2270  140.7510 C   0  0  0  0  0  3  0  0  0  0  0  0
  187.4390  176.6750  141.6380 C   0  0  0  0  0  0  0  0  0  0  0  0
  184.9190  177.8840  142.5590 C   0  0  0  0  0  2  0  0  0  0  0  0
  187.1480  178.3760  143.3970 N   0  0  0  0  0  0  0  0  0  0  0  0
  185.3660  180.2240  144.0150 Cl  0  0  0  0  0  0  0  0  0  0  0  0
  191.6420  172.1320  144.1940 C   0  0  0  0  0  0  0  0  0  0  0  0
  191.7910  174.7910  145.8400 C   0  0  0  0  0  3  0  0  0  0  0  0
  189.7420  173.4500  145.2070 C   0  0  0  0  0  3  0  0  0  0  0  0
  190.2710  172.3560  144.6690 C   0  0  0  0  0  3  0  0  0  0  0  0
  192.7780  173.9860  145.4630 C   0  0  0  0  0  3  0  0  0  0  0  0
  192.7120  172.8240  144.5730 C   0  0  0  0  0  3  0  0  0  0  0  0
  190.4080  174.6990  145.4540 N   0  0  0  0  0  0  0  0  0  0  0  0
  191.8700  170.9510  143.3120 C   0  0  0  0  0  2  0  0  0  0  0  0
  193.6540  169.3040  144.0420 C   0  0  0  0  0  0  0  0  0  0  0  0
  193.2570  170.5130  143.3900 N   0  0  0  0  0  2  0  0  0  0  0  0
  194.9900  168.9300  144.0390 O   0  0  0  0  0  0  0  0  0  0  0  0
  192.8050  168.5790  144.6260 O   0  0  0  0  0  1  0  0  0  0  0  0
  188.8950  175.8230  147.0730 C   0  0  0  0  0  2  0  0  0  0  0  0
  187.4000  176.1170  147.0790 C   0  0  0  0  0  2  0  0  0  0  0  0
  185.7850  179.3890  147.2850 O   0  0  0  0  0  0  0  0  0  0  0  0
  185.9270  178.1610  147.0550 C   0  0  0  0  0  0  0  0  0  0  0  0
  187.1790  177.5330  147.3280 N   0  0  0  0  0  2  0  0  0  0  0  0
  184.8390  177.4120  146.5220 N   0  0  0  0  0  1  0  0  0  0  0  0
  1  2  1  0  0  0  0
  2 27  1  1  0  0  0
  3  9  1  1  0  0  0
  3  4  1  0  0  0  0
  3  1  1  0  0  0  0
  4  5  1  0  0  0  0
  5  2  1  0  0  0  0
  6 12  1  0  0  0  0
  7 13  2  0  0  0  0
  7 14  1  0  0  0  0
  8 11  1  0  0  0  0
  9 13  1  0  0  0  0
 10  6  2  0  0  0  0
 10 11  1  0  0  0  0
 11  9  2  0  0  0  0
 12  7  1  0  0  0  0
 15 20  2  0  0  0  0
 15 18  1  0  0  0  0
 17 21  1  0  0  0  0
 18 17  2  0  0  0  0
 19 16  2  0  0  0  0
 20 19  1  0  0  0  0
 21  2  1  0  0  0  0
 21 16  1  0  0  0  0
 22 24  1  0  0  0  0
 22 15  1  0  0  0  0
 23 26  1  0  0  0  0
 24 23  1  0  0  0  0
 25 23  2  0  0  0  0
 27 28  1  0  0  0  0
 28 31  1  0  0  0  0
 30 29  2  0  0  0  0
 30 31  1  0  0  0  0
 32 30  1  0  0  0  0
M  END
>  <MODEL>
4

>  <REMARK>
 VINA RESULT:      -7.0      3.643      7.782
  Name = 
  7 active torsions:
  status: ('A' for Active; 'I' for Inactive)
    1  A    between atoms: C_2  and  C_13
    2  A    between atoms: C_2  and  N_32
    3  A    between atoms: C_6  and  C_17
    4  A    between atoms: C_7  and  C_12
    5  A    between atoms: C_11  and  C_13
    6  A    between atoms: C_11  and  N_26
    7  A    between atoms: C_17  and  N_18
                            x       y       z     vdW  Elec       q    Type
                         _______ _______ _______ _____ _____    ______ ____

>  <TORSDO>
F 7

$$$$
=
 OpenBabel11042414523D

 32 34  0  0  1  0  0  0  0  0999 V2000
  191.8010  175.0900  143.7110 O   0  0  0  0  0  0  0  0  0  0  0  0
  190.5080  175.6100  143.4940 C   0  0  2  0  0  0  0  0  0  0  0  0
  192.6590  176.1990  143.7620 C   0  0  2  0  0  3  0  0  0  0  0  0
  192.1220  177.2860  142.8680 C   0  0  0  0  0  2  0  0  0  0  0  0
  190.6670  176.9430  142.7540 C   0  0  0  0  0  2  0  0  0  0  0  0
  196.9040  174.6870  143.1420 N   0  0  0  0  0  0  0  0  0  0  0  0
  195.2950  175.1490  141.4250 C   0  0  0  0  0  0  0  0  0  0  0  0
  194.5830  175.7080  146.1660 S   0  0  0  0  0  1  0  0  0  0  0  0
  194.0830  175.8290  143.4460 C   0  0  0  0  0  0  0  0  0  0  0  0
  196.4390  175.3300  144.1680 C   0  0  0  0  0  3  0  0  0  0  0  0
  195.0060  175.5900  144.4220 C   0  0  0  0  0  0  0  0  0  0  0  0
  196.0620  174.0860  142.1240 C   0  0  0  0  0  2  0  0  0  0  0  0
  194.4160  175.8740  142.0470 N   0  0  0  0  0  0  0  0  0  0  0  0
  195.5450  175.3890  139.7090 Cl  0  0  0  0  0  0  0  0  0  0  0  0
  187.6430  176.4370  146.9180 C   0  0  0  0  0  0  0  0  0  0  0  0
  190.1410  174.8710  145.8630 C   0  0  0  0  0  3  0  0  0  0  0  0
  189.1730  177.0440  145.0030 C   0  0  0  0  0  3  0  0  0  0  0  0
  188.2410  177.3210  145.9110 C   0  0  0  0  0  3  0  0  0  0  0  0
  189.4400  174.6750  146.9750 C   0  0  0  0  0  3  0  0  0  0  0  0
  188.1900  175.3190  147.3860 C   0  0  0  0  0  3  0  0  0  0  0  0
  189.8240  175.7800  144.7940 N   0  0  0  0  0  0  0  0  0  0  0  0
  186.3770  176.8980  147.5590 C   0  0  0  0  0  2  0  0  0  0  0  0
  184.9450  178.4400  146.1440 C   0  0  0  0  0  0  0  0  0  0  0  0
  185.3490  177.1310  146.5530 N   0  0  0  0  0  2  0  0  0  0  0  0
  183.9890  178.5830  145.1490 O   0  0  0  0  0  0  0  0  0  0  0  0
  185.4440  179.4640  146.6820 O   0  0  0  0  0  1  0  0  0  0  0  0
  189.7490  174.6180  142.5990 C   0  0  0  0  0  2  0  0  0  0  0  0
  188.7420  175.2770  141.6650 C   0  0  0  0  0  2  0  0  0  0  0  0
  185.6080  176.6020  142.9970 O   0  0  0  0  0  0  0  0  0  0  0  0
  186.7260  176.5840  142.4210 C   0  0  0  0  0  0  0  0  0  0  0  0
  187.4450  175.3560  142.3160 N   0  0  0  0  0  2  0  0  0  0  0  0
  187.2630  177.7890  141.8860 N   0  0  0  0  0  1  0  0  0  0  0  0
  1  3  1  0  0  0  0
  2 27  1  6  0  0  0
  2  1  1  0  0  0  0
  2 21  1  0  0  0  0
  3  9  1  6  0  0  0
  4  3  1  0  0  0  0
  5  4  1  0  0  0  0
  5  2  1  0  0  0  0
  6 10  2  0  0  0  0
  7 13  2  0  0  0  0
  7 12  1  0  0  0  0
  9 11  2  0  0  0  0
 10 11  1  0  0  0  0
 11  8  1  0  0  0  0
 12  6  1  0  0  0  0
 13  9  1  0  0  0  0
 14  7  1  0  0  0  0
 15 20  2  0  0  0  0
 15 22  1  0  0  0  0
 16 19  2  0  0  0  0
 17 18  2  0  0  0  0
 18 15  1  0  0  0  0
 19 20  1  0  0  0  0
 21 17  1  0  0  0  0
 21 16  1  0  0  0  0
 23 24  1  0  0  0  0
 23 26  1  0  0  0  0
 24 22  1  0  0  0  0
 25 23  2  0  0  0  0
 28 31  1  0  0  0  0
 28 27  1  0  0  0  0
 30 29  2  0  0  0  0
 31 30  1  0  0  0  0
 32 30  1  0  0  0  0
M  END
>  <MODEL>
5

>  <REMARK>
 VINA RESULT:      -6.9      3.095      5.180
  Name = 
  7 active torsions:
  status: ('A' for Active; 'I' for Inactive)
    1  A    between atoms: C_2  and  C_13
    2  A    between atoms: C_2  and  N_32
    3  A    between atoms: C_6  and  C_17
    4  A    between atoms: C_7  and  C_12
    5  A    between atoms: C_11  and  C_13
    6  A    between atoms: C_11  and  N_26
    7  A    between atoms: C_17  and  N_18
                            x       y       z     vdW  Elec       q    Type
                         _______ _______ _______ _____ _____    ______ ____

>  <TORSDO>
F 7

$$$$
=
 OpenBabel11042414523D

 32 34  0  0  1  0  0  0  0  0999 V2000
  188.1430  175.6230  144.0960 O   0  0  0  0  0  0  0  0  0  0  0  0
  189.4760  175.1880  143.9480 C   0  0  2  0  0  0  0  0  0  0  0  0
  188.0940  176.9110  143.5390 C   0  0  2  0  0  3  0  0  0  0  0  0
  189.4270  177.5860  143.7290 C   0  0  0  0  0  2  0  0  0  0  0  0
  190.3670  176.4350  143.9200 C   0  0  0  0  0  2  0  0  0  0  0  0
  184.3080  179.0350  144.8940 N   0  0  0  0  0  0  0  0  0  0  0  0
  186.0500  178.1940  146.3110 C   0  0  0  0  0  0  0  0  0  0  0  0
  185.9860  177.9510  141.4910 S   0  0  0  0  0  1  0  0  0  0  0  0
  186.9450  177.7190  144.0780 C   0  0  0  0  0  0  0  0  0  0  0  0
  184.8760  179.1050  143.7300 C   0  0  0  0  0  3  0  0  0  0  0  0
  185.9660  178.2180  143.2690 C   0  0  0  0  0  0  0  0  0  0  0  0
  184.6350  178.0280  145.8870 C   0  0  0  0  0  2  0  0  0  0  0  0
  187.0330  178.0220  145.4810 N   0  0  0  0  0  0  0  0  0  0  0  0
  186.3960  178.5740  147.9840 Cl  0  0  0  0  0  0  0  0  0  0  0  0
  188.9560  173.1560  139.9210 C   0  0  0  0  0  0  0  0  0  0  0  0
  190.9050  174.2020  142.1370 C   0  0  0  0  0  3  0  0  0  0  0  0
  188.4620  173.5870  142.3590 C   0  0  0  0  0  3  0  0  0  0  0  0
  188.1910  173.0580  141.1690 C   0  0  0  0  0  3  0  0  0  0  0  0
  191.1850  173.7910  140.9040 C   0  0  0  0  0  3  0  0  0  0  0  0
  190.2520  173.4410  139.8300 C   0  0  0  0  0  3  0  0  0  0  0  0
  189.5980  174.3960  142.7040 N   0  0  0  0  0  0  0  0  0  0  0  0
  188.2500  172.7800  138.6610 C   0  0  0  0  0  2  0  0  0  0  0  0
  188.5080  174.5410  136.8540 C   0  0  0  0  0  0  0  0  0  0  0  0
  188.9350  173.3410  137.5030 N   0  0  0  0  0  2  0  0  0  0  0  0
  189.2360  175.0380  135.7830 O   0  0  0  0  0  0  0  0  0  0  0  0
  187.4740  175.1480  137.2410 O   0  0  0  0  0  1  0  0  0  0  0  0
  189.8300  174.3370  145.1770 C   0  0  0  0  0  2  0  0  0  0  0  0
  189.3170  174.9100  146.4920 C   0  0  0  0  0  2  0  0  0  0  0  0
  191.6540  176.9440  148.4300 O   0  0  0  0  0  0  0  0  0  0  0  0
  190.6670  176.6570  147.7060 C   0  0  0  0  0  0  0  0  0  0  0  0
  190.4390  175.2990  147.3310 N   0  0  0  0  0  2  0  0  0  0  0  0
  189.7910  177.6890  147.2640 N   0  0  0  0  0  1  0  0  0  0  0  0
  2  1  1  0  0  0  0
  2 27  1  1  0  0  0
  3  4  1  0  0  0  0
  3  9  1  1  0  0  0
  3  1  1  0  0  0  0
  4  5  1  0  0  0  0
  5  2  1  0  0  0  0
  6 12  1  0  0  0  0
  7 14  1  0  0  0  0
  8 11  1  0  0  0  0
  9 13  1  0  0  0  0
 10  6  2  0  0  0  0
 11 10  1  0  0  0  0
 11  9  2  0  0  0  0
 12  7  1  0  0  0  0
 13  7  2  0  0  0  0
 15 18  1  0  0  0  0
 16 21  1  0  0  0  0
 17 21  1  0  0  0  0
 18 17  2  0  0  0  0
 19 16  2  0  0  0  0
 20 15  2  0  0  0  0
 20 19  1  0  0  0  0
 21  2  1  0  0  0  0
 22 15  1  0  0  0  0
 23 26  1  0  0  0  0
 23 24  1  0  0  0  0
 24 22  1  0  0  0  0
 25 23  2  0  0  0  0
 27 28  1  0  0  0  0
 28 31  1  0  0  0  0
 30 29  2  0  0  0  0
 31 30  1  0  0  0  0
 32 30  1  0  0  0  0
M  END
>  <MODEL>
6

>  <REMARK>
 VINA RESULT:      -6.9      3.330      6.578
  Name = 
  7 active torsions:
  status: ('A' for Active; 'I' for Inactive)
    1  A    between atoms: C_2  and  C_13
    2  A    between atoms: C_2  and  N_32
    3  A    between atoms: C_6  and  C_17
    4  A    between atoms: C_7  and  C_12
    5  A    between atoms: C_11  and  C_13
    6  A    between atoms: C_11  and  N_26
    7  A    between atoms: C_17  and  N_18
                            x       y       z     vdW  Elec       q    Type
                         _______ _______ _______ _____ _____    ______ ____

>  <TORSDO>
F 7

$$$$
=
 OpenBabel11042414523D

 32 34  0  0  1  0  0  0  0  0999 V2000
  188.8100  175.8670  144.8830 O   0  0  0  0  0  0  0  0  0  0  0  0
  190.1950  175.5980  144.8620 C   0  0  2  0  0  0  0  0  0  0  0  0
  188.6450  177.0860  144.2090 C   0  0  2  0  0  3  0  0  0  0  0  0
  189.8650  177.9430  144.4220 C   0  0  0  0  0  2  0  0  0  0  0  0
  190.9240  176.9430  144.7780 C   0  0  0  0  0  2  0  0  0  0  0  0
  184.5460  178.8870  145.0150 N   0  0  0  0  0  0  0  0  0  0  0  0
  186.0310  177.9460  146.6460 C   0  0  0  0  0  0  0  0  0  0  0  0
  186.9120  178.2890  141.9130 S   0  0  0  0  0  1  0  0  0  0  0  0
  187.3660  177.7790  144.5960 C   0  0  0  0  0  0  0  0  0  0  0  0
  185.3230  179.1200  144.0020 C   0  0  0  0  0  3  0  0  0  0  0  0
  186.5330  178.3370  143.6700 C   0  0  0  0  0  0  0  0  0  0  0  0
  184.7370  177.7800  145.9340 C   0  0  0  0  0  2  0  0  0  0  0  0
  187.1640  177.9130  146.0140 N   0  0  0  0  0  0  0  0  0  0  0  0
  186.0240  178.1320  148.3870 Cl  0  0  0  0  0  0  0  0  0  0  0  0
  190.1740  173.0030  141.1360 C   0  0  0  0  0  0  0  0  0  0  0  0
  191.7830  174.8770  143.0600 C   0  0  0  0  0  3  0  0  0  0  0  0
  189.6730  173.5700  143.5450 C   0  0  0  0  0  3  0  0  0  0  0  0
  189.5330  172.8350  142.4460 C   0  0  0  0  0  3  0  0  0  0  0  0
  192.1270  174.4170  141.8610 C   0  0  0  0  0  3  0  0  0  0  0  0
  191.3080  173.6610  140.9110 C   0  0  0  0  0  3  0  0  0  0  0  0
  190.5070  174.7290  143.7070 N   0  0  0  0  0  0  0  0  0  0  0  0
  189.5710  172.2680  139.9860 C   0  0  0  0  0  2  0  0  0  0  0  0
  188.8320  173.8130  138.1160 C   0  0  0  0  0  0  0  0  0  0  0  0
  188.5690  173.0910  139.3210 N   0  0  0  0  0  2  0  0  0  0  0  0
  187.8140  174.5410  137.5170 O   0  0  0  0  0  0  0  0  0  0  0  0
  189.9790  173.8000  137.5960 O   0  0  0  0  0  1  0  0  0  0  0  0
  190.5570  174.9040  146.1840 C   0  0  0  0  0  2  0  0  0  0  0  0
  191.7240  175.5500  146.9200 C   0  0  0  0  0  2  0  0  0  0  0  0
  195.2250  175.0780  145.9840 O   0  0  0  0  0  0  0  0  0  0  0  0
  194.1730  175.6680  146.3390 C   0  0  0  0  0  0  0  0  0  0  0  0
  192.9710  174.9200  146.5150 N   0  0  0  0  0  2  0  0  0  0  0  0
  194.1920  177.0750  146.5560 N   0  0  0  0  0  1  0  0  0  0  0  0
  2  1  1  0  0  0  0
  2 27  1  1  0  0  0
  3  4  1  0  0  0  0
  3  9  1  1  0  0  0
  3  1  1  0  0  0  0
  4  5  1  0  0  0  0
  5  2  1  0  0  0  0
  6 12  1  0  0  0  0
  7 14  1  0  0  0  0
  8 11  1  0  0  0  0
  9 13  1  0  0  0  0
 10  6  2  0  0  0  0
 11 10  1  0  0  0  0
 11  9  2  0  0  0  0
 12  7  1  0  0  0  0
 13  7  2  0  0  0  0
 15 18  1  0  0  0  0
 16 21  1  0  0  0  0
 17 21  1  0  0  0  0
 18 17  2  0  0  0  0
 19 16  2  0  0  0  0
 20 15  2  0  0  0  0
 20 19  1  0  0  0  0
 21  2  1  0  0  0  0
 22 15  1  0  0  0  0
 23 24  1  0  0  0  0
 24 22  1  0  0  0  0
 25 23  2  0  0  0  0
 26 23  1  0  0  0  0
 27 28  1  0  0  0  0
 29 30  2  0  0  0  0
 30 31  1  0  0  0  0
 30 32  1  0  0  0  0
 31 28  1  0  0  0  0
M  END
>  <MODEL>
7

>  <REMARK>
 VINA RESULT:      -6.8      3.051      6.382
  Name = 
  7 active torsions:
  status: ('A' for Active; 'I' for Inactive)
    1  A    between atoms: C_2  and  C_13
    2  A    between atoms: C_2  and  N_32
    3  A    between atoms: C_6  and  C_17
    4  A    between atoms: C_7  and  C_12
    5  A    between atoms: C_11  and  C_13
    6  A    between atoms: C_11  and  N_26
    7  A    between atoms: C_17  and  N_18
                            x       y       z     vdW  Elec       q    Type
                         _______ _______ _______ _____ _____    ______ ____

>  <TORSDO>
F 7

$$$$
=
 OpenBabel11042414523D

 32 34  0  0  1  0  0  0  0  0999 V2000
  190.1320  174.6980  142.9270 O   0  0  0  0  0  0  0  0  0  0  0  0
  190.5120  174.5680  144.2790 C   0  0  2  0  0  0  0  0  0  0  0  0
  189.2570  173.6310  142.6690 C   0  0  2  0  0  3  0  0  0  0  0  0
  189.6430  172.4520  143.5240 C   0  0  0  0  0  2  0  0  0  0  0  0
  190.4100  173.0840  144.6460 C   0  0  0  0  0  2  0  0  0  0  0  0
  189.2300  173.1000  138.1510 N   0  0  0  0  0  0  0  0  0  0  0  0
  190.2540  171.6340  139.7480 C   0  0  0  0  0  0  0  0  0  0  0  0
  187.8160  175.6660  140.7970 S   0  0  0  0  0  1  0  0  0  0  0  0
  189.1880  173.2960  141.2030 C   0  0  0  0  0  0  0  0  0  0  0  0
  188.3950  173.7880  138.8690 C   0  0  0  0  0  3  0  0  0  0  0  0
  188.5850  174.1190  140.2970 C   0  0  0  0  0  0  0  0  0  0  0  0
  190.4990  172.6060  138.6520 C   0  0  0  0  0  2  0  0  0  0  0  0
  189.6950  171.9930  140.8630 N   0  0  0  0  0  0  0  0  0  0  0  0
  190.7850  169.9780  139.5490 Cl  0  0  0  0  0  0  0  0  0  0  0  0
  187.3280  177.3170  145.9890 C   0  0  0  0  0  0  0  0  0  0  0  0
  189.3630  174.9870  146.4700 C   0  0  0  0  0  3  0  0  0  0  0  0
  189.3870  176.7400  144.6470 C   0  0  0  0  0  3  0  0  0  0  0  0
  188.4050  177.5550  145.0210 C   0  0  0  0  0  3  0  0  0  0  0  0
  188.3890  175.4220  147.2630 C   0  0  0  0  0  3  0  0  0  0  0  0
  187.3540  176.4160  146.9670 C   0  0  0  0  0  3  0  0  0  0  0  0
  189.6250  175.4040  145.1180 N   0  0  0  0  0  0  0  0  0  0  0  0
  186.1630  178.2490  145.9510 C   0  0  0  0  0  2  0  0  0  0  0  0
  184.9850  178.6200  143.7360 C   0  0  0  0  0  0  0  0  0  0  0  0
  185.2190  177.8470  144.9160 N   0  0  0  0  0  2  0  0  0  0  0  0
  184.1030  178.1510  142.7730 O   0  0  0  0  0  0  0  0  0  0  0  0
  185.5660  179.7240  143.5650 O   0  0  0  0  0  1  0  0  0  0  0  0
  191.9730  175.0240  144.4010 C   0  0  0  0  0  2  0  0  0  0  0  0
  192.6240  174.6590  145.7300 C   0  0  0  0  0  2  0  0  0  0  0  0
  194.5660  177.5300  146.8880 O   0  0  0  0  0  0  0  0  0  0  0  0
  194.2800  176.4860  146.2480 C   0  0  0  0  0  0  0  0  0  0  0  0
  193.0070  175.8700  146.4390 N   0  0  0  0  0  2  0  0  0  0  0  0
  195.2290  175.9290  145.3450 N   0  0  0  0  0  1  0  0  0  0  0  0
  1  2  1  0  0  0  0
  2 27  1  1  0  0  0
  2  5  1  0  0  0  0
  2 21  1  0  0  0  0
  3  9  1  6  0  0  0
  3  1  1  0  0  0  0
  3  4  1  0  0  0  0
  4  5  1  0  0  0  0
  6 12  1  0  0  0  0
  6 10  2  0  0  0  0
  7 13  2  0  0  0  0
 10 11  1  0  0  0  0
 11  8  1  0  0  0  0
 11  9  2  0  0  0  0
 12  7  1  0  0  0  0
 13  9  1  0  0  0  0
 14  7  1  0  0  0  0
 15 20  2  0  0  0  0
 16 19  2  0  0  0  0
 17 18  2  0  0  0  0
 17 21  1  0  0  0  0
 18 15  1  0  0  0  0
 20 19  1  0  0  0  0
 21 16  1  0  0  0  0
 22 15  1  0  0  0  0
 23 24  1  0  0  0  0
 24 22  1  0  0  0  0
 25 23  2  0  0  0  0
 26 23  1  0  0  0  0
 27 28  1  0  0  0  0
 28 31  1  0  0  0  0
 30 31  1  0  0  0  0
 30 29  2  0  0  0  0
 32 30  1  0  0  0  0
M  END
>  <MODEL>
8

>  <REMARK>
 VINA RESULT:      -6.7      2.174      2.748
  Name = 
  7 active torsions:
  status: ('A' for Active; 'I' for Inactive)
    1  A    between atoms: C_2  and  C_13
    2  A    between atoms: C_2  and  N_32
    3  A    between atoms: C_6  and  C_17
    4  A    between atoms: C_7  and  C_12
    5  A    between atoms: C_11  and  C_13
    6  A    between atoms: C_11  and  N_26
    7  A    between atoms: C_17  and  N_18
                            x       y       z     vdW  Elec       q    Type
                         _______ _______ _______ _____ _____    ______ ____

>  <TORSDO>
F 7

$$$$
=
 OpenBabel11042414523D

 32 34  0  0  1  0  0  0  0  0999 V2000
  189.3800  175.6040  144.8760 O   0  0  0  0  0  0  0  0  0  0  0  0
  189.8930  174.7240  145.8510 C   0  0  2  0  0  0  0  0  0  0  0  0
  188.8260  176.6820  145.5820 C   0  0  2  0  0  3  0  0  0  0  0  0
  188.3020  176.1940  146.9080 C   0  0  0  0  0  2  0  0  0  0  0  0
  189.0730  174.9280  147.1300 C   0  0  0  0  0  2  0  0  0  0  0  0
  185.7890  178.5580  142.7640 N   0  0  0  0  0  0  0  0  0  0  0  0
  185.3910  177.8650  145.0240 C   0  0  0  0  0  0  0  0  0  0  0  0
  189.6000  177.5380  142.6860 S   0  0  0  0  0  1  0  0  0  0  0  0
  187.7890  177.4170  144.7760 C   0  0  0  0  0  0  0  0  0  0  0  0
  187.0810  178.6490  142.7010 C   0  0  0  0  0  3  0  0  0  0  0  0
  188.0230  177.8330  143.4980 C   0  0  0  0  0  0  0  0  0  0  0  0
  185.0910  177.5930  143.5940 C   0  0  0  0  0  2  0  0  0  0  0  0
  186.5920  177.7490  145.5010 N   0  0  0  0  0  0  0  0  0  0  0  0
  184.0780  178.2960  146.0990 Cl  0  0  0  0  0  0  0  0  0  0  0  0
  194.3580  175.4780  145.5210 C   0  0  0  0  0  0  0  0  0  0  0  0
  191.6960  175.9380  147.1030 C   0  0  0  0  0  3  0  0  0  0  0  0
  192.2520  174.0860  145.4730 C   0  0  0  0  0  3  0  0  0  0  0  0
  193.5460  174.2880  145.2410 C   0  0  0  0  0  3  0  0  0  0  0  0
  192.8720  176.5400  147.2530 C   0  0  0  0  0  3  0  0  0  0  0  0
  194.0660  176.4200  146.4130 C   0  0  0  0  0  3  0  0  0  0  0  0
  191.3270  175.0130  146.0660 N   0  0  0  0  0  0  0  0  0  0  0  0
  195.6810  175.5740  144.8360 C   0  0  0  0  0  2  0  0  0  0  0  0
  196.3970  176.5600  142.6130 C   0  0  0  0  0  0  0  0  0  0  0  0
  195.5040  175.7730  143.4040 N   0  0  0  0  0  2  0  0  0  0  0  0
  196.1880  176.6700  141.2460 O   0  0  0  0  0  0  0  0  0  0  0  0
  197.3680  177.1610  143.1460 O   0  0  0  0  0  1  0  0  0  0  0  0
  189.6910  173.2900  145.3410 C   0  0  0  0  0  2  0  0  0  0  0  0
  189.5260  173.1910  143.8290 C   0  0  0  0  0  2  0  0  0  0  0  0
  190.4480  170.4220  141.6300 O   0  0  0  0  0  0  0  0  0  0  0  0
  189.9640  171.5250  141.9910 C   0  0  0  0  0  0  0  0  0  0  0  0
  190.0700  171.9290  143.3550 N   0  0  0  0  0  2  0  0  0  0  0  0
  189.3130  172.3560  141.0350 N   0  0  0  0  0  1  0  0  0  0  0  0
  1  3  1  0  0  0  0
  1  2  1  0  0  0  0
  2 27  1  6  0  0  0
  2 21  1  0  0  0  0
  2  5  1  0  0  0  0
  3  9  1  6  0  0  0
  3  4  1  0  0  0  0
  4  5  1  0  0  0  0
  6 12  1  0  0  0  0
  7 13  2  0  0  0  0
  7 14  1  0  0  0  0
  8 11  1  0  0  0  0
  9 13  1  0  0  0  0
 10  6  2  0  0  0  0
 10 11  1  0  0  0  0
 11  9  2  0  0  0  0
 12  7  1  0  0  0  0
 15 20  2  0  0  0  0
 16 19  2  0  0  0  0
 17 21  1  0  0  0  0
 18 17  2  0  0  0  0
 18 15  1  0  0  0  0
 20 19  1  0  0  0  0
 21 16  1  0  0  0  0
 22 15  1  0  0  0  0
 23 26  1  0  0  0  0
 23 24  1  0  0  0  0
 24 22  1  0  0  0  0
 25 23  2  0  0  0  0
 28 27  1  0  0  0  0
 29 30  2  0  0  0  0
 30 31  1  0  0  0  0
 31 28  1  0  0  0  0
 32 30  1  0  0  0  0
M  END
>  <MODEL>
9

>  <REMARK>
 VINA RESULT:      -6.7      3.443      7.727
  Name = 
  7 active torsions:
  status: ('A' for Active; 'I' for Inactive)
    1  A    between atoms: C_2  and  C_13
    2  A    between atoms: C_2  and  N_32
    3  A    between atoms: C_6  and  C_17
    4  A    between atoms: C_7  and  C_12
    5  A    between atoms: C_11  and  C_13
    6  A    between atoms: C_11  and  N_26
    7  A    between atoms: C_17  and  N_18
                            x       y       z     vdW  Elec       q    Type
                         _______ _______ _______ _____ _____    ______ ____

>  <TORSDO>
F 7

$$$$
