=
 OpenBabel11042414483D

 28 29  0  0  1  0  0  0  0  0999 V2000
  189.6450  177.8890  143.5830 C   0  0  0  0  0  2  0  0  0  0  0  0
  188.9710  176.7940  143.9370 C   0  0  0  0  0  0  0  0  0  0  0  0
  187.2100  176.3960  145.5560 O   0  0  0  0  0  0  0  0  0  0  0  0
  186.8530  178.2500  143.9200 C   0  0  2  0  0  3  0  0  0  0  0  0
  186.4030  178.5320  146.3720 C   0  0  1  0  0  3  0  0  0  0  0  0
  187.4540  177.4160  146.4990 C   0  0  0  0  0  2  0  0  0  0  0  0
  187.4980  176.8840  144.2560 C   0  0  1  0  0  3  0  0  0  0  0  0
  185.8040  178.6270  144.9630 C   0  0  0  0  0  2  0  0  0  0  0  0
  185.4270  178.5060  147.3920 O   0  0  0  0  0  0  0  0  0  0  0  0
  184.1690  178.2510  146.8180 C   0  0  0  0  0  1  0  0  0  0  0  0
  186.2330  178.2020  142.5330 C   0  0  0  0  0  2  0  0  0  0  0  0
  182.5570  178.1700  141.6310 O   0  0  0  0  0  1  0  0  0  0  0  0
  184.4290  178.2060  140.3120 O   0  0  0  0  0  0  0  0  0  0  0  0
  184.7800  178.2310  142.6220 N   0  0  0  0  0  2  0  0  0  0  0  0
  183.9360  178.1980  141.4700 C   0  0  0  0  0  0  0  0  0  0  0  0
  189.7950  173.2490  143.9680 O   0  0  0  0  0  1  0  0  0  0  0  0
  189.6790  175.5780  144.2470 N   0  0  0  0  0  0  0  0  0  0  0  0
  189.3790  174.3570  143.5380 C   0  0  0  0  0  0  0  0  0  0  0  0
  188.6250  174.3860  142.3690 O   0  0  0  0  0  0  0  0  0  0  0  0
  191.9270  175.4650  147.2290 N   0  0  0  0  0  0  0  0  0  0  0  0
  191.9970  175.9970  144.9770 C   0  0  0  0  0  3  0  0  0  0  0  0
  192.6940  175.8850  146.2720 C   0  0  0  0  0  0  0  0  0  0  0  0
  189.6570  174.8110  147.2140 O   0  0  0  0  0  0  0  0  0  0  0  0
  190.7470  175.6170  145.2130 C   0  0  0  0  0  0  0  0  0  0  0  0
  190.6660  175.2720  146.6170 C   0  0  0  0  0  0  0  0  0  0  0  0
  194.4440  177.3380  146.9260 O   0  0  0  0  0  0  0  0  0  0  0  0
  194.1110  176.2100  146.4750 C   0  0  0  0  0  0  0  0  0  0  0  0
  195.1170  175.2530  146.1640 N   0  0  0  0  0  1  0  0  0  0  0  0
  1  2  2  0  0  0  0
  2 17  1  0  0  0  0
  3  6  1  0  0  0  0
  4 11  1  6  0  0  0
  4  7  1  0  0  0  0
  4  8  1  0  0  0  0
  5  6  1  0  0  0  0
  5  9  1  1  0  0  0
  7  2  1  1  0  0  0
  7  3  1  0  0  0  0
  8  5  1  0  0  0  0
 10  9  1  0  0  0  0
 11 14  1  0  0  0  0
 13 15  2  0  0  0  0
 15 12  1  0  0  0  0
 15 14  1  0  0  0  0
 17 24  1  0  0  0  0
 18 16  1  0  0  0  0
 18 17  1  0  0  0  0
 19 18  2  0  0  0  0
 21 24  2  0  0  0  0
 21 22  1  0  0  0  0
 22 27  1  0  0  0  0
 22 20  2  0  0  0  0
 24 25  1  0  0  0  0
 25 23  2  0  0  0  0
 25 20  1  0  0  0  0
 27 26  2  0  0  0  0
 28 27  1  0  0  0  0
M  END
>  <MODEL>
1

>  <REMARK>
 VINA RESULT:      -6.8      0.000      0.000
  Name = 
  7 active torsions:
  status: ('A' for Active; 'I' for Inactive)
    1  A    between atoms: C_3  and  C_14
    2  A    between atoms: N_5  and  C_22
    3  A    between atoms: N_5  and  C_26
    4  A    between atoms: O_6  and  C_12
    5  A    between atoms: C_10  and  C_18
    6  A    between atoms: C_14  and  N_17
    7  A    between atoms: C_22  and  C_23
                            x       y       z     vdW  Elec       q    Type
                         _______ _______ _______ _____ _____    ______ ____

>  <TORSDO>
F 7

$$$$
=
 OpenBabel11042414483D

 28 29  0  0  1  0  0  0  0  0999 V2000
  188.9870  177.9310  142.2540 C   0  0  0  0  0  2  0  0  0  0  0  0
  188.4310  176.8660  142.8310 C   0  0  0  0  0  0  0  0  0  0  0  0
  187.0070  176.5830  144.7730 O   0  0  0  0  0  0  0  0  0  0  0  0
  186.2990  178.2790  143.0800 C   0  0  2  0  0  3  0  0  0  0  0  0
  186.2930  178.7690  145.5420 C   0  0  1  0  0  3  0  0  0  0  0  0
  187.3850  177.6860  145.5660 C   0  0  0  0  0  2  0  0  0  0  0  0
  187.0380  176.9600  143.4050 C   0  0  1  0  0  3  0  0  0  0  0  0
  185.4450  178.7300  144.2630 C   0  0  0  0  0  2  0  0  0  0  0  0
  185.5190  178.8170  146.7220 O   0  0  0  0  0  0  0  0  0  0  0  0
  184.2030  178.4240  146.4250 C   0  0  0  0  0  1  0  0  0  0  0  0
  185.4390  178.1000  141.8400 C   0  0  0  0  0  2  0  0  0  0  0  0
  181.6640  178.2060  141.5950 O   0  0  0  0  0  1  0  0  0  0  0  0
  183.2680  177.9200  139.9860 O   0  0  0  0  0  0  0  0  0  0  0  0
  184.0290  178.2450  142.1710 N   0  0  0  0  0  2  0  0  0  0  0  0
  182.9910  178.1110  141.1990 C   0  0  0  0  0  0  0  0  0  0  0  0
  189.3600  173.3570  143.0980 O   0  0  0  0  0  1  0  0  0  0  0  0
  189.2290  175.7020  143.1200 N   0  0  0  0  0  0  0  0  0  0  0  0
  188.8250  174.4020  142.6410 C   0  0  0  0  0  0  0  0  0  0  0  0
  187.8390  174.2830  141.6670 O   0  0  0  0  0  0  0  0  0  0  0  0
  192.7690  175.9520  144.2870 N   0  0  0  0  0  0  0  0  0  0  0  0
  190.6140  176.1450  145.1120 C   0  0  0  0  0  3  0  0  0  0  0  0
  192.0680  176.1870  145.3530 C   0  0  0  0  0  0  0  0  0  0  0  0
  192.0990  175.5350  142.0610 O   0  0  0  0  0  0  0  0  0  0  0  0
  190.4760  175.8660  143.8220 C   0  0  0  0  0  0  0  0  0  0  0  0
  191.8100  175.7400  143.2690 C   0  0  0  0  0  0  0  0  0  0  0  0
  191.9710  176.4780  147.7000 O   0  0  0  0  0  0  0  0  0  0  0  0
  192.6790  176.4650  146.6580 C   0  0  0  0  0  0  0  0  0  0  0  0
  194.0750  176.7240  146.7550 N   0  0  0  0  0  1  0  0  0  0  0  0
  1  2  2  0  0  0  0
  2 17  1  0  0  0  0
  3  6  1  0  0  0  0
  4 11  1  6  0  0  0
  4  7  1  0  0  0  0
  4  8  1  0  0  0  0
  5  6  1  0  0  0  0
  5  9  1  1  0  0  0
  7  2  1  1  0  0  0
  7  3  1  0  0  0  0
  8  5  1  0  0  0  0
 10  9  1  0  0  0  0
 11 14  1  0  0  0  0
 13 15  2  0  0  0  0
 15 12  1  0  0  0  0
 15 14  1  0  0  0  0
 17 24  1  0  0  0  0
 18 16  1  0  0  0  0
 18 17  1  0  0  0  0
 19 18  2  0  0  0  0
 20 22  2  0  0  0  0
 21 22  1  0  0  0  0
 22 27  1  0  0  0  0
 23 25  2  0  0  0  0
 24 21  2  0  0  0  0
 25 24  1  0  0  0  0
 25 20  1  0  0  0  0
 27 28  1  0  0  0  0
 27 26  2  0  0  0  0
M  END
>  <MODEL>
2

>  <REMARK>
 VINA RESULT:      -6.5      1.446      1.825
  Name = 
  7 active torsions:
  status: ('A' for Active; 'I' for Inactive)
    1  A    between atoms: C_3  and  C_14
    2  A    between atoms: N_5  and  C_22
    3  A    between atoms: N_5  and  C_26
    4  A    between atoms: O_6  and  C_12
    5  A    between atoms: C_10  and  C_18
    6  A    between atoms: C_14  and  N_17
    7  A    between atoms: C_22  and  C_23
                            x       y       z     vdW  Elec       q    Type
                         _______ _______ _______ _____ _____    ______ ____

>  <TORSDO>
F 7

$$$$
=
 OpenBabel11042414483D

 28 29  0  0  1  0  0  0  0  0999 V2000
  189.6590  177.8590  144.5120 C   0  0  0  0  0  2  0  0  0  0  0  0
  188.8900  176.7980  144.7610 C   0  0  0  0  0  0  0  0  0  0  0  0
  188.8610  174.6890  143.5640 O   0  0  0  0  0  0  0  0  0  0  0  0
  191.0060  175.3420  144.6660 C   0  0  2  0  0  3  0  0  0  0  0  0
  190.9280  174.4730  142.3130 C   0  0  1  0  0  3  0  0  0  0  0  0
  189.4980  175.0390  142.3550 C   0  0  0  0  0  2  0  0  0  0  0  0
  189.4610  175.4060  144.6310 C   0  0  1  0  0  3  0  0  0  0  0  0
  191.5280  174.2710  143.7110 C   0  0  0  0  0  2  0  0  0  0  0  0
  191.0620  173.3410  141.4800 O   0  0  0  0  0  0  0  0  0  0  0  0
  190.8730  172.1800  142.2490 C   0  0  0  0  0  1  0  0  0  0  0  0
  191.4810  175.0680  146.0840 C   0  0  0  0  0  2  0  0  0  0  0  0
  194.4060  177.3180  146.9240 O   0  0  0  0  0  1  0  0  0  0  0  0
  194.3370  175.2150  146.0190 O   0  0  0  0  0  0  0  0  0  0  0  0
  192.2830  176.1780  146.5770 N   0  0  0  0  0  2  0  0  0  0  0  0
  193.7080  176.2010  146.4840 C   0  0  0  0  0  0  0  0  0  0  0  0
  185.5660  176.4400  146.1970 O   0  0  0  0  0  0  0  0  0  0  0  0
  187.4680  176.9570  144.9200 N   0  0  0  0  0  0  0  0  0  0  0  0
  186.8190  176.5480  146.1430 C   0  0  0  0  0  0  0  0  0  0  0  0
  187.5700  176.2670  147.2800 O   0  0  0  0  0  1  0  0  0  0  0  0
  185.3610  179.1410  142.7410 N   0  0  0  0  0  0  0  0  0  0  0  0
  186.5470  177.1540  142.6410 C   0  0  0  0  0  3  0  0  0  0  0  0
  185.6910  178.1510  141.9700 C   0  0  0  0  0  0  0  0  0  0  0  0
  185.9490  179.6180  144.9780 O   0  0  0  0  0  0  0  0  0  0  0  0
  186.7150  177.6070  143.8780 C   0  0  0  0  0  0  0  0  0  0  0  0
  185.9870  178.8550  143.9770 C   0  0  0  0  0  0  0  0  0  0  0  0
  184.1100  178.4740  140.2390 O   0  0  0  0  0  0  0  0  0  0  0  0
  185.2470  178.0500  140.5750 C   0  0  0  0  0  0  0  0  0  0  0  0
  186.0990  177.4700  139.5930 N   0  0  0  0  0  1  0  0  0  0  0  0
  1  2  2  0  0  0  0
  2 17  1  0  0  0  0
  3  7  1  0  0  0  0
  4 11  1  1  0  0  0
  5  9  1  1  0  0  0
  5  6  1  0  0  0  0
  5  8  1  0  0  0  0
  6  3  1  0  0  0  0
  7  4  1  0  0  0  0
  7  2  1  6  0  0  0
  8  4  1  0  0  0  0
  9 10  1  0  0  0  0
 11 14  1  0  0  0  0
 13 15  2  0  0  0  0
 15 14  1  0  0  0  0
 15 12  1  0  0  0  0
 17 18  1  0  0  0  0
 18 16  2  0  0  0  0
 18 19  1  0  0  0  0
 20 25  1  0  0  0  0
 21 24  2  0  0  0  0
 22 21  1  0  0  0  0
 22 20  2  0  0  0  0
 24 25  1  0  0  0  0
 24 17  1  0  0  0  0
 25 23  2  0  0  0  0
 26 27  2  0  0  0  0
 27 22  1  0  0  0  0
 28 27  1  0  0  0  0
M  END
>  <MODEL>
3

>  <REMARK>
 VINA RESULT:      -6.4      1.699      7.816
  Name = 
  7 active torsions:
  status: ('A' for Active; 'I' for Inactive)
    1  A    between atoms: C_3  and  C_14
    2  A    between atoms: N_5  and  C_22
    3  A    between atoms: N_5  and  C_26
    4  A    between atoms: O_6  and  C_12
    5  A    between atoms: C_10  and  C_18
    6  A    between atoms: C_14  and  N_17
    7  A    between atoms: C_22  and  C_23
                            x       y       z     vdW  Elec       q    Type
                         _______ _______ _______ _____ _____    ______ ____

>  <TORSDO>
F 7

$$$$
=
 OpenBabel11042414483D

 28 29  0  0  1  0  0  0  0  0999 V2000
  190.0870  177.9070  145.0880 C   0  0  0  0  0  2  0  0  0  0  0  0
  189.2270  177.0910  144.4780 C   0  0  0  0  0  0  0  0  0  0  0  0
  188.1000  178.3930  142.7710 O   0  0  0  0  0  0  0  0  0  0  0  0
  186.7780  176.5880  143.8810 C   0  0  2  0  0  3  0  0  0  0  0  0
  186.7820  176.8970  141.3910 C   0  0  1  0  0  3  0  0  0  0  0  0
  188.1610  177.5230  141.6630 C   0  0  0  0  0  2  0  0  0  0  0  0
  187.9180  177.6310  143.9530 C   0  0  1  0  0  3  0  0  0  0  0  0
  185.9070  176.8180  142.6480 C   0  0  0  0  0  2  0  0  0  0  0  0
  186.1150  177.4620  140.2820 O   0  0  0  0  0  0  0  0  0  0  0  0
  185.0310  178.2310  140.7410 C   0  0  0  0  0  1  0  0  0  0  0  0
  185.9390  176.6500  145.1470 C   0  0  0  0  0  2  0  0  0  0  0  0
  185.9850  179.5990  147.5180 O   0  0  0  0  0  0  0  0  0  0  0  0
  185.9310  177.3450  147.9220 O   0  0  0  0  0  1  0  0  0  0  0  0
  185.9190  178.0040  145.6800 N   0  0  0  0  0  2  0  0  0  0  0  0
  185.9490  178.2820  147.0810 C   0  0  0  0  0  0  0  0  0  0  0  0
  189.6250  173.7530  145.8720 O   0  0  0  0  0  0  0  0  0  0  0  0
  189.4270  175.6660  144.5230 N   0  0  0  0  0  0  0  0  0  0  0  0
  189.2100  174.9360  145.7500 C   0  0  0  0  0  0  0  0  0  0  0  0
  188.5410  175.5290  146.8150 O   0  0  0  0  0  1  0  0  0  0  0  0
  190.8900  174.2960  141.3700 N   0  0  0  0  0  0  0  0  0  0  0  0
  189.0260  174.0330  142.7190 C   0  0  0  0  0  3  0  0  0  0  0  0
  189.7760  173.6460  141.5090 C   0  0  0  0  0  0  0  0  0  0  0  0
  191.9110  175.9210  142.7480 O   0  0  0  0  0  0  0  0  0  0  0  0
  189.7620  174.9670  143.3090 C   0  0  0  0  0  0  0  0  0  0  0  0
  190.9430  175.1580  142.4920 C   0  0  0  0  0  0  0  0  0  0  0  0
  189.9340  171.5350  140.4510 O   0  0  0  0  0  0  0  0  0  0  0  0
  189.3240  172.6330  140.5490 C   0  0  0  0  0  0  0  0  0  0  0  0
  188.1940  172.8840  139.7210 N   0  0  0  0  0  1  0  0  0  0  0  0
  2 17  1  0  0  0  0
  2  1  2  0  0  0  0
  3  7  1  0  0  0  0
  4  7  1  0  0  0  0
  4 11  1  1  0  0  0
  5  9  1  6  0  0  0
  5  6  1  0  0  0  0
  5  8  1  0  0  0  0
  6  3  1  0  0  0  0
  7  2  1  6  0  0  0
  8  4  1  0  0  0  0
  9 10  1  0  0  0  0
 11 14  1  0  0  0  0
 14 15  1  0  0  0  0
 15 12  2  0  0  0  0
 15 13  1  0  0  0  0
 17 18  1  0  0  0  0
 18 16  2  0  0  0  0
 18 19  1  0  0  0  0
 20 22  2  0  0  0  0
 20 25  1  0  0  0  0
 21 24  2  0  0  0  0
 22 21  1  0  0  0  0
 24 17  1  0  0  0  0
 25 23  2  0  0  0  0
 25 24  1  0  0  0  0
 26 27  2  0  0  0  0
 27 22  1  0  0  0  0
 28 27  1  0  0  0  0
M  END
>  <MODEL>
4

>  <REMARK>
 VINA RESULT:      -6.4      2.642      5.228
  Name = 
  7 active torsions:
  status: ('A' for Active; 'I' for Inactive)
    1  A    between atoms: C_3  and  C_14
    2  A    between atoms: N_5  and  C_22
    3  A    between atoms: N_5  and  C_26
    4  A    between atoms: O_6  and  C_12
    5  A    between atoms: C_10  and  C_18
    6  A    between atoms: C_14  and  N_17
    7  A    between atoms: C_22  and  C_23
                            x       y       z     vdW  Elec       q    Type
                         _______ _______ _______ _____ _____    ______ ____

>  <TORSDO>
F 7

$$$$
=
 OpenBabel11042414483D

 28 29  0  0  1  0  0  0  0  0999 V2000
  190.0690  174.5230  145.2990 C   0  0  0  0  0  2  0  0  0  0  0  0
  190.5350  175.7560  145.4940 C   0  0  0  0  0  0  0  0  0  0  0  0
  190.1820  177.6950  144.0810 O   0  0  0  0  0  0  0  0  0  0  0  0
  188.1550  176.6380  145.0890 C   0  0  2  0  0  3  0  0  0  0  0  0
  188.2530  177.2900  142.6680 C   0  0  1  0  0  3  0  0  0  0  0  0
  189.7650  177.0960  142.8740 C   0  0  0  0  0  2  0  0  0  0  0  0
  189.6680  176.9500  145.1730 C   0  0  1  0  0  3  0  0  0  0  0  0
  187.4900  177.4610  143.9880 C   0  0  0  0  0  2  0  0  0  0  0  0
  187.9370  178.2770  141.7090 O   0  0  0  0  0  0  0  0  0  0  0  0
  186.7430  177.9200  141.0590 C   0  0  0  0  0  1  0  0  0  0  0  0
  187.4950  176.9110  146.4310 C   0  0  0  0  0  2  0  0  0  0  0  0
  183.9730  178.2900  146.5550 O   0  0  0  0  0  0  0  0  0  0  0  0
  185.9220  179.0570  147.4820 O   0  0  0  0  0  1  0  0  0  0  0  0
  186.0560  177.0640  146.2700 N   0  0  0  0  0  2  0  0  0  0  0  0
  185.3360  178.1800  146.7940 C   0  0  0  0  0  0  0  0  0  0  0  0
  193.5170  176.8630  147.2620 O   0  0  0  0  0  0  0  0  0  0  0  0
  191.9310  175.9650  145.7810 N   0  0  0  0  0  0  0  0  0  0  0  0
  192.3470  176.4340  147.0820 C   0  0  0  0  0  0  0  0  0  0  0  0
  191.4610  176.4190  148.1540 O   0  0  0  0  0  1  0  0  0  0  0  0
  194.5380  174.4400  143.5810 N   0  0  0  0  0  0  0  0  0  0  0  0
  193.3080  176.3930  143.7810 C   0  0  0  0  0  3  0  0  0  0  0  0
  194.3280  175.6090  143.0590 C   0  0  0  0  0  0  0  0  0  0  0  0
  193.5240  173.3720  145.4280 O   0  0  0  0  0  0  0  0  0  0  0  0
  192.9100  175.6190  144.7830 C   0  0  0  0  0  0  0  0  0  0  0  0
  193.6590  174.3820  144.6890 C   0  0  0  0  0  0  0  0  0  0  0  0
  196.0880  176.7780  141.9930 O   0  0  0  0  0  0  0  0  0  0  0  0
  195.0440  176.0860  141.8700 C   0  0  0  0  0  0  0  0  0  0  0  0
  194.5600  175.7700  140.5680 N   0  0  0  0  0  1  0  0  0  0  0  0
  1  2  2  0  0  0  0
  2 17  1  0  0  0  0
  3  7  1  0  0  0  0
  4  7  1  0  0  0  0
  4 11  1  1  0  0  0
  5  9  1  6  0  0  0
  5  6  1  0  0  0  0
  5  8  1  0  0  0  0
  6  3  1  0  0  0  0
  7  2  1  6  0  0  0
  8  4  1  0  0  0  0
 10  9  1  0  0  0  0
 12 15  2  0  0  0  0
 14 11  1  0  0  0  0
 14 15  1  0  0  0  0
 15 13  1  0  0  0  0
 17 18  1  0  0  0  0
 18 16  2  0  0  0  0
 18 19  1  0  0  0  0
 20 25  1  0  0  0  0
 21 24  2  0  0  0  0
 22 20  2  0  0  0  0
 22 21  1  0  0  0  0
 24 17  1  0  0  0  0
 25 24  1  0  0  0  0
 25 23  2  0  0  0  0
 27 26  2  0  0  0  0
 27 22  1  0  0  0  0
 28 27  1  0  0  0  0
M  END
>  <MODEL>
5

>  <REMARK>
 VINA RESULT:      -6.2      2.619      4.571
  Name = 
  7 active torsions:
  status: ('A' for Active; 'I' for Inactive)
    1  A    between atoms: C_3  and  C_14
    2  A    between atoms: N_5  and  C_22
    3  A    between atoms: N_5  and  C_26
    4  A    between atoms: O_6  and  C_12
    5  A    between atoms: C_10  and  C_18
    6  A    between atoms: C_14  and  N_17
    7  A    between atoms: C_22  and  C_23
                            x       y       z     vdW  Elec       q    Type
                         _______ _______ _______ _____ _____    ______ ____

>  <TORSDO>
F 7

$$$$
=
 OpenBabel11042414483D

 28 29  0  0  1  0  0  0  0  0999 V2000
  189.6540  174.1810  146.0240 C   0  0  0  0  0  2  0  0  0  0  0  0
  189.5690  175.3420  145.3730 C   0  0  0  0  0  0  0  0  0  0  0  0
  191.3410  176.2030  143.9590 O   0  0  0  0  0  0  0  0  0  0  0  0
  190.1650  174.1400  143.1810 C   0  0  2  0  0  3  0  0  0  0  0  0
  192.6660  174.3410  143.1480 C   0  0  1  0  0  3  0  0  0  0  0  0
  192.4090  175.3440  144.2870 C   0  0  0  0  0  2  0  0  0  0  0  0
  190.1280  175.4660  143.9760 C   0  0  1  0  0  3  0  0  0  0  0  0
  191.4150  174.0650  142.3060 C   0  0  0  0  0  2  0  0  0  0  0  0
  193.8050  174.6500  142.3720 O   0  0  0  0  0  0  0  0  0  0  0  0
  194.8170  175.1400  143.2150 C   0  0  0  0  0  1  0  0  0  0  0  0
  188.9110  174.0110  142.3320 C   0  0  0  0  0  2  0  0  0  0  0  0
  187.4470  177.1810  140.8730 O   0  0  0  0  0  0  0  0  0  0  0  0
  186.5980  175.6920  142.3930 O   0  0  0  0  0  1  0  0  0  0  0  0
  188.7130  175.2070  141.5270 N   0  0  0  0  0  2  0  0  0  0  0  0
  187.5440  176.0220  141.6310 C   0  0  0  0  0  0  0  0  0  0  0  0
  189.6150  178.0310  147.8250 O   0  0  0  0  0  1  0  0  0  0  0  0
  189.1640  176.5340  146.0720 N   0  0  0  0  0  0  0  0  0  0  0  0
  190.0470  177.1560  147.0290 C   0  0  0  0  0  0  0  0  0  0  0  0
  191.3900  176.7980  147.0870 O   0  0  0  0  0  0  0  0  0  0  0  0
  185.6440  177.7590  145.8100 N   0  0  0  0  0  0  0  0  0  0  0  0
  187.6620  177.9120  144.6840 C   0  0  0  0  0  3  0  0  0  0  0  0
  186.2330  178.2690  144.7740 C   0  0  0  0  0  0  0  0  0  0  0  0
  186.4920  176.4280  147.5680 O   0  0  0  0  0  0  0  0  0  0  0  0
  187.9020  177.1450  145.7400 C   0  0  0  0  0  0  0  0  0  0  0  0
  186.6580  177.0290  146.4740 C   0  0  0  0  0  0  0  0  0  0  0  0
  185.5590  180.3680  143.9130 O   0  0  0  0  0  0  0  0  0  0  0  0
  185.5330  179.1140  143.7990 C   0  0  0  0  0  0  0  0  0  0  0  0
  184.8180  178.5220  142.7200 N   0  0  0  0  0  1  0  0  0  0  0  0
  2  1  2  0  0  0  0
  2 17  1  0  0  0  0
  3  7  1  0  0  0  0
  3  6  1  0  0  0  0
  4 11  1  6  0  0  0
  4  7  1  0  0  0  0
  5  9  1  6  0  0  0
  5  6  1  0  0  0  0
  7  2  1  1  0  0  0
  8  5  1  0  0  0  0
  8  4  1  0  0  0  0
  9 10  1  0  0  0  0
 12 15  2  0  0  0  0
 14 15  1  0  0  0  0
 14 11  1  0  0  0  0
 15 13  1  0  0  0  0
 17 18  1  0  0  0  0
 18 19  2  0  0  0  0
 18 16  1  0  0  0  0
 20 25  1  0  0  0  0
 21 22  1  0  0  0  0
 21 24  2  0  0  0  0
 22 20  2  0  0  0  0
 24 17  1  0  0  0  0
 24 25  1  0  0  0  0
 25 23  2  0  0  0  0
 27 26  2  0  0  0  0
 27 22  1  0  0  0  0
 28 27  1  0  0  0  0
M  END
>  <MODEL>
6

>  <REMARK>
 VINA RESULT:      -6.2      2.516      6.470
  Name = 
  7 active torsions:
  status: ('A' for Active; 'I' for Inactive)
    1  A    between atoms: C_3  and  C_14
    2  A    between atoms: N_5  and  C_22
    3  A    between atoms: N_5  and  C_26
    4  A    between atoms: O_6  and  C_12
    5  A    between atoms: C_10  and  C_18
    6  A    between atoms: C_14  and  N_17
    7  A    between atoms: C_22  and  C_23
                            x       y       z     vdW  Elec       q    Type
                         _______ _______ _______ _____ _____    ______ ____

>  <TORSDO>
F 7

$$$$
=
 OpenBabel11042414483D

 28 29  0  0  1  0  0  0  0  0999 V2000
  190.2120  178.0890  144.7310 C   0  0  0  0  0  2  0  0  0  0  0  0
  189.6590  176.8850  144.5770 C   0  0  0  0  0  0  0  0  0  0  0  0
  187.6480  176.2800  145.7890 O   0  0  0  0  0  0  0  0  0  0  0  0
  187.4090  177.9630  143.9590 C   0  0  2  0  0  3  0  0  0  0  0  0
  186.3580  178.2880  146.2150 C   0  0  1  0  0  3  0  0  0  0  0  0
  187.5070  177.3720  146.6700 C   0  0  0  0  0  2  0  0  0  0  0  0
  188.1560  176.7440  144.5490 C   0  0  1  0  0  3  0  0  0  0  0  0
  186.0990  178.2120  144.7050 C   0  0  0  0  0  2  0  0  0  0  0  0
  185.1860  178.1500  146.9900 O   0  0  0  0  0  0  0  0  0  0  0  0
  184.0670  178.4090  146.1790 C   0  0  0  0  0  1  0  0  0  0  0  0
  187.1460  177.7430  142.4790 C   0  0  0  0  0  2  0  0  0  0  0  0
  184.0450  178.6640  140.5130 O   0  0  0  0  0  1  0  0  0  0  0  0
  185.9750  177.6110  139.8710 O   0  0  0  0  0  0  0  0  0  0  0  0
  185.8510  178.2940  142.1020 N   0  0  0  0  0  2  0  0  0  0  0  0
  185.3110  178.1640  140.7870 C   0  0  0  0  0  0  0  0  0  0  0  0
  191.9460  174.4320  145.9900 O   0  0  0  0  0  0  0  0  0  0  0  0
  190.4700  175.6990  144.6740 N   0  0  0  0  0  0  0  0  0  0  0  0
  191.0380  175.3030  145.9400 C   0  0  0  0  0  0  0  0  0  0  0  0
  190.5900  175.8790  147.1250 O   0  0  0  0  0  1  0  0  0  0  0  0
  191.4310  174.0310  141.4710 N   0  0  0  0  0  0  0  0  0  0  0  0
  189.9090  173.8020  143.2020 C   0  0  0  0  0  3  0  0  0  0  0  0
  190.4460  173.3150  141.9170 C   0  0  0  0  0  0  0  0  0  0  0  0
  192.5140  175.9140  142.4000 O   0  0  0  0  0  0  0  0  0  0  0  0
  190.6370  174.8690  143.5080 C   0  0  0  0  0  0  0  0  0  0  0  0
  191.6060  175.0430  142.4460 C   0  0  0  0  0  0  0  0  0  0  0  0
  190.1920  170.9810  141.6150 O   0  0  0  0  0  0  0  0  0  0  0  0
  189.9310  172.1410  141.2010 C   0  0  0  0  0  0  0  0  0  0  0  0
  189.1340  172.3080  140.0340 N   0  0  0  0  0  1  0  0  0  0  0  0
  2 17  1  0  0  0  0
  2  1  2  0  0  0  0
  3  6  1  0  0  0  0
  4 11  1  6  0  0  0
  4  7  1  0  0  0  0
  4  8  1  0  0  0  0
  5  6  1  0  0  0  0
  5  9  1  1  0  0  0
  7  2  1  1  0  0  0
  7  3  1  0  0  0  0
  8  5  1  0  0  0  0
 10  9  1  0  0  0  0
 12 15  1  0  0  0  0
 13 15  2  0  0  0  0
 14 11  1  0  0  0  0
 15 14  1  0  0  0  0
 17 18  1  0  0  0  0
 18 16  2  0  0  0  0
 18 19  1  0  0  0  0
 20 22  2  0  0  0  0
 20 25  1  0  0  0  0
 21 24  2  0  0  0  0
 22 21  1  0  0  0  0
 23 25  2  0  0  0  0
 24 17  1  0  0  0  0
 25 24  1  0  0  0  0
 27 26  2  0  0  0  0
 27 22  1  0  0  0  0
 28 27  1  0  0  0  0
M  END
>  <MODEL>
7

>  <REMARK>
 VINA RESULT:      -6.2      2.052      3.914
  Name = 
  7 active torsions:
  status: ('A' for Active; 'I' for Inactive)
    1  A    between atoms: C_3  and  C_14
    2  A    between atoms: N_5  and  C_22
    3  A    between atoms: N_5  and  C_26
    4  A    between atoms: O_6  and  C_12
    5  A    between atoms: C_10  and  C_18
    6  A    between atoms: C_14  and  N_17
    7  A    between atoms: C_22  and  C_23
                            x       y       z     vdW  Elec       q    Type
                         _______ _______ _______ _____ _____    ______ ____

>  <TORSDO>
F 7

$$$$
=
 OpenBabel11042414483D

 28 29  0  0  1  0  0  0  0  0999 V2000
  192.2260  173.7680  145.2240 C   0  0  0  0  0  2  0  0  0  0  0  0
  191.6770  174.9500  144.9440 C   0  0  0  0  0  0  0  0  0  0  0  0
  192.6090  176.6320  143.4660 O   0  0  0  0  0  0  0  0  0  0  0  0
  191.9920  174.4370  142.4450 C   0  0  2  0  0  3  0  0  0  0  0  0
  194.1810  175.5650  141.9600 C   0  0  1  0  0  3  0  0  0  0  0  0
  193.9440  176.1960  143.3440 C   0  0  0  0  0  2  0  0  0  0  0  0
  191.7540  175.5030  143.5410 C   0  0  1  0  0  3  0  0  0  0  0  0
  192.9030  174.9810  141.3460 C   0  0  0  0  0  2  0  0  0  0  0  0
  194.8950  176.4010  141.0740 O   0  0  0  0  0  0  0  0  0  0  0  0
  196.1620  176.6730  141.6200 C   0  0  0  0  0  1  0  0  0  0  0  0
  190.6630  173.9870  141.8610 C   0  0  0  0  0  2  0  0  0  0  0  0
  187.3090  175.5700  142.6160 O   0  0  0  0  0  1  0  0  0  0  0  0
  187.8670  173.4180  142.0640 O   0  0  0  0  0  0  0  0  0  0  0  0
  189.6200  174.9590  142.1570 N   0  0  0  0  0  2  0  0  0  0  0  0
  188.2430  174.6010  142.2760 C   0  0  0  0  0  0  0  0  0  0  0  0
  191.7590  176.8860  148.0240 O   0  0  0  0  0  1  0  0  0  0  0  0
  191.2230  175.8070  146.0080 N   0  0  0  0  0  0  0  0  0  0  0  0
  192.1630  176.3580  146.9540 C   0  0  0  0  0  0  0  0  0  0  0  0
  193.5300  176.3130  146.6990 O   0  0  0  0  0  0  0  0  0  0  0  0
  187.5440  176.1490  146.5610 N   0  0  0  0  0  0  0  0  0  0  0  0
  189.2760  177.2140  145.4510 C   0  0  0  0  0  3  0  0  0  0  0  0
  187.8420  177.1520  145.7940 C   0  0  0  0  0  0  0  0  0  0  0  0
  188.9120  174.4800  147.5210 O   0  0  0  0  0  0  0  0  0  0  0  0
  189.8310  176.1760  146.0640 C   0  0  0  0  0  0  0  0  0  0  0  0
  188.7750  175.4840  146.7730 C   0  0  0  0  0  0  0  0  0  0  0  0
  186.8090  178.4590  144.1130 O   0  0  0  0  0  0  0  0  0  0  0  0
  186.8400  178.1160  145.3240 C   0  0  0  0  0  0  0  0  0  0  0  0
  185.8990  178.6720  146.2360 N   0  0  0  0  0  1  0  0  0  0  0  0
  2  1  2  0  0  0  0
  2 17  1  0  0  0  0
  3  7  1  0  0  0  0
  4 11  1  6  0  0  0
  4  7  1  0  0  0  0
  5  9  1  6  0  0  0
  5  6  1  0  0  0  0
  6  3  1  0  0  0  0
  7  2  1  1  0  0  0
  8  5  1  0  0  0  0
  8  4  1  0  0  0  0
  9 10  1  0  0  0  0
 11 14  1  0  0  0  0
 13 15  2  0  0  0  0
 14 15  1  0  0  0  0
 15 12  1  0  0  0  0
 17 24  1  0  0  0  0
 17 18  1  0  0  0  0
 18 16  1  0  0  0  0
 19 18  2  0  0  0  0
 20 25  1  0  0  0  0
 21 22  1  0  0  0  0
 21 24  2  0  0  0  0
 22 20  2  0  0  0  0
 24 25  1  0  0  0  0
 25 23  2  0  0  0  0
 26 27  2  0  0  0  0
 27 22  1  0  0  0  0
 27 28  1  0  0  0  0
M  END
>  <MODEL>
8

>  <REMARK>
 VINA RESULT:      -6.1      2.702      6.617
  Name = 
  7 active torsions:
  status: ('A' for Active; 'I' for Inactive)
    1  A    between atoms: C_3  and  C_14
    2  A    between atoms: N_5  and  C_22
    3  A    between atoms: N_5  and  C_26
    4  A    between atoms: O_6  and  C_12
    5  A    between atoms: C_10  and  C_18
    6  A    between atoms: C_14  and  N_17
    7  A    between atoms: C_22  and  C_23
                            x       y       z     vdW  Elec       q    Type
                         _______ _______ _______ _____ _____    ______ ____

>  <TORSDO>
F 7

$$$$
=
 OpenBabel11042414483D

 28 29  0  0  1  0  0  0  0  0999 V2000
  189.4380  174.0130  143.8710 C   0  0  0  0  0  2  0  0  0  0  0  0
  189.6460  175.1580  144.5210 C   0  0  0  0  0  0  0  0  0  0  0  0
  189.4380  176.7060  142.6660 O   0  0  0  0  0  0  0  0  0  0  0  0
  187.5250  176.5880  144.2690 C   0  0  2  0  0  3  0  0  0  0  0  0
  187.1840  176.5670  141.7820 C   0  0  1  0  0  3  0  0  0  0  0  0
  188.6080  175.9840  141.7840 C   0  0  0  0  0  2  0  0  0  0  0  0
  189.0420  176.4410  144.0020 C   0  0  1  0  0  3  0  0  0  0  0  0
  186.8310  177.2780  143.0960 C   0  0  0  0  0  2  0  0  0  0  0  0
  186.8920  177.3380  140.6360 O   0  0  0  0  0  0  0  0  0  0  0  0
  185.6440  177.9620  140.8080 C   0  0  0  0  0  1  0  0  0  0  0  0
  187.2980  177.3670  145.5540 C   0  0  0  0  0  2  0  0  0  0  0  0
  183.8330  178.8540  145.8710 O   0  0  0  0  0  0  0  0  0  0  0  0
  184.6790  176.8480  146.5810 O   0  0  0  0  0  1  0  0  0  0  0  0
  186.1470  178.2480  145.4220 N   0  0  0  0  0  2  0  0  0  0  0  0
  184.8720  177.9410  145.9880 C   0  0  0  0  0  0  0  0  0  0  0  0
  191.0250  175.4490  147.8760 O   0  0  0  0  0  1  0  0  0  0  0  0
  190.6280  175.2250  145.5720 N   0  0  0  0  0  0  0  0  0  0  0  0
  190.2250  175.1360  146.9560 C   0  0  0  0  0  0  0  0  0  0  0  0
  188.9460  174.7030  147.2920 O   0  0  0  0  0  0  0  0  0  0  0  0
  194.0760  176.0870  144.4210 N   0  0  0  0  0  0  0  0  0  0  0  0
  192.9130  174.3220  145.3680 C   0  0  0  0  0  3  0  0  0  0  0  0
  194.1830  174.8680  144.8510 C   0  0  0  0  0  0  0  0  0  0  0  0
  192.2280  177.5570  144.3920 O   0  0  0  0  0  0  0  0  0  0  0  0
  192.0240  175.2960  145.2230 C   0  0  0  0  0  0  0  0  0  0  0  0
  192.7180  176.4230  144.6330 C   0  0  0  0  0  0  0  0  0  0  0  0
  195.8410  173.5920  143.7450 O   0  0  0  0  0  0  0  0  0  0  0  0
  195.4470  174.1220  144.8170 C   0  0  0  0  0  0  0  0  0  0  0  0
  196.2340  173.9930  145.9960 N   0  0  0  0  0  1  0  0  0  0  0  0
  1  2  2  0  0  0  0
  2 17  1  0  0  0  0
  3  7  1  0  0  0  0
  4 11  1  1  0  0  0
  5  9  1  6  0  0  0
  5  6  1  0  0  0  0
  5  8  1  0  0  0  0
  6  3  1  0  0  0  0
  7  4  1  0  0  0  0
  7  2  1  6  0  0  0
  8  4  1  0  0  0  0
  9 10  1  0  0  0  0
 12 15  2  0  0  0  0
 14 11  1  0  0  0  0
 14 15  1  0  0  0  0
 15 13  1  0  0  0  0
 17 18  1  0  0  0  0
 18 19  2  0  0  0  0
 18 16  1  0  0  0  0
 20 25  1  0  0  0  0
 20 22  2  0  0  0  0
 22 21  1  0  0  0  0
 23 25  2  0  0  0  0
 24 21  2  0  0  0  0
 24 17  1  0  0  0  0
 25 24  1  0  0  0  0
 26 27  2  0  0  0  0
 27 22  1  0  0  0  0
 27 28  1  0  0  0  0
M  END
>  <MODEL>
9

>  <REMARK>
 VINA RESULT:      -6.0      2.071      3.970
  Name = 
  7 active torsions:
  status: ('A' for Active; 'I' for Inactive)
    1  A    between atoms: C_3  and  C_14
    2  A    between atoms: N_5  and  C_22
    3  A    between atoms: N_5  and  C_26
    4  A    between atoms: O_6  and  C_12
    5  A    between atoms: C_10  and  C_18
    6  A    between atoms: C_14  and  N_17
    7  A    between atoms: C_22  and  C_23
                            x       y       z     vdW  Elec       q    Type
                         _______ _______ _______ _____ _____    ______ ____

>  <TORSDO>
F 7

$$$$
