=
 OpenBabel11042415113D

 27 30  0  0  1  0  0  0  0  0999 V2000
  189.8110  176.3100  145.7690 C   0  0  2  0  0  3  0  0  0  0  0  0
  186.2740  176.6850  147.1460 C   0  0  0  0  0  3  0  0  0  0  0  0
  186.0150  179.1250  144.3890 C   0  0  0  0  0  3  0  0  0  0  0  0
  183.9610  178.9990  145.5910 N   0  0  0  0  0  0  0  0  0  0  0  0
  188.3930  176.7610  145.9560 C   0  0  0  0  0  0  0  0  0  0  0  0
  187.5910  176.2450  146.9870 C   0  0  0  0  0  3  0  0  0  0  0  0
  184.4730  178.0790  146.4150 N   0  0  0  0  0  0  0  0  0  0  0  0
  186.5520  178.1680  145.2440 C   0  0  0  0  0  0  0  0  0  0  0  0
  185.7510  177.6430  146.2750 C   0  0  0  0  0  0  0  0  0  0  0  0
  187.8690  177.7270  145.0870 C   0  0  0  0  0  3  0  0  0  0  0  0
  184.6960  179.5360  144.5800 C   0  0  0  0  0  3  0  0  0  0  0  0
  191.9400  176.1330  146.8510 O   0  0  0  0  0  0  0  0  0  0  0  0
  190.7350  176.8590  146.8570 C   0  0  2  0  0  3  0  0  0  0  0  0
  191.0190  175.8140  147.8640 C   0  0  0  0  0  2  0  0  0  0  0  0
  191.3320  177.6310  144.3410 N   0  0  0  0  0  1  0  0  0  0  0  0
  190.3090  176.5940  144.3460 C   0  0  1  0  0  3  0  0  0  0  0  0
  190.8420  175.3230  143.7010 C   0  0  0  0  0  2  0  0  0  0  0  0
  189.8380  174.2720  143.7570 N   0  0  0  0  0  2  0  0  0  0  0  0
  189.7720  173.6970  142.4780 N   0  0  0  0  0  0  0  0  0  0  0  0
  188.3180  174.6220  141.1630 C   0  0  2  0  0  3  0  0  0  0  0  0
  188.3620  173.4930  142.1730 C   0  0  0  0  0  2  0  0  0  0  0  0
  189.7850  174.7920  141.5190 C   0  0  0  0  0  2  0  0  0  0  0  0
  186.7410  175.5970  142.7870 C   0  0  0  0  0  2  0  0  0  0  0  0
  187.4550  175.7540  141.6710 C   0  0  0  0  0  0  0  0  0  0  0  0
  186.8790  177.5010  139.9460 N   0  0  0  0  0  1  0  0  0  0  0  0
  187.6090  177.1130  141.1060 C   0  0  0  0  0  0  0  0  0  0  0  0
  188.3890  177.9440  141.6440 O   0  0  0  0  0  0  0  0  0  0  0  0
  1 16  1  6  0  0  0
  1  5  1  0  0  0  0
  3 11  2  0  0  0  0
  3  8  1  0  0  0  0
  4  7  2  0  0  0  0
  5  6  2  0  0  0  0
  6  2  1  0  0  0  0
  8  9  1  0  0  0  0
  9  7  1  0  0  0  0
  9  2  2  0  0  0  0
 10  8  2  0  0  0  0
 10  5  1  0  0  0  0
 11  4  1  0  0  0  0
 12 13  1  0  0  0  0
 12 14  1  0  0  0  0
 13  1  1  6  0  0  0
 13 14  1  0  0  0  0
 16 15  1  1  0  0  0
 17 18  1  0  0  0  0
 17 16  1  0  0  0  0
 19 18  1  0  0  0  0
 20 22  1  0  0  0  0
 20 24  1  1  0  0  0
 20 21  1  0  0  0  0
 21 19  1  0  0  0  0
 22 19  1  0  0  0  0
 24 23  2  0  0  0  0
 25 26  1  0  0  0  0
 26 27  2  0  0  0  0
 26 24  1  0  0  0  0
M  END
>  <MODEL>
1

>  <REMARK>
 VINA RESULT:      -6.6      0.000      0.000
  Name = 
  8 active torsions:
  status: ('A' for Active; 'I' for Inactive)
    1  A    between atoms: N_2  and  N_14
    2  A    between atoms: C_3  and  C_13
    3  A    between atoms: C_10  and  C_19
    4  A    between atoms: C_12  and  C_19
    5  A    between atoms: C_13  and  C_20
    6  A    between atoms: N_14  and  C_15
    7  A    between atoms: C_15  and  C_22
    8  A    between atoms: C_19  and  C_22
                            x       y       z     vdW  Elec       q    Type
                         _______ _______ _______ _____ _____    ______ ____

>  <TORSDO>
F 8

$$$$
=
 OpenBabel11042415113D

 27 30  0  0  1  0  0  0  0  0999 V2000
  189.0270  176.3660  142.6730 C   0  0  2  0  0  3  0  0  0  0  0  0
  186.2970  178.7660  143.8280 C   0  0  0  0  0  3  0  0  0  0  0  0
  186.7410  176.9250  146.9970 C   0  0  0  0  0  3  0  0  0  0  0  0
  185.0680  178.6050  147.2320 N   0  0  0  0  0  0  0  0  0  0  0  0
  188.0190  177.0760  143.5270 C   0  0  0  0  0  0  0  0  0  0  0  0
  187.2350  178.1230  143.0150 C   0  0  0  0  0  3  0  0  0  0  0  0
  185.2330  178.9820  145.9600 N   0  0  0  0  0  0  0  0  0  0  0  0
  186.9180  177.3130  145.6720 C   0  0  0  0  0  0  0  0  0  0  0  0
  186.1390  178.3650  145.1560 C   0  0  0  0  0  0  0  0  0  0  0  0
  187.8540  176.6710  144.8570 C   0  0  0  0  0  3  0  0  0  0  0  0
  185.7970  177.5930  147.7760 C   0  0  0  0  0  3  0  0  0  0  0  0
  189.3440  174.2150  141.6680 O   0  0  0  0  0  0  0  0  0  0  0  0
  188.9790  174.8500  142.8690 C   0  0  2  0  0  3  0  0  0  0  0  0
  187.9710  174.2470  141.9690 C   0  0  0  0  0  2  0  0  0  0  0  0
  190.3820  178.2380  143.5420 N   0  0  0  0  0  1  0  0  0  0  0  0
  190.4310  176.9590  142.8480 C   0  0  1  0  0  3  0  0  0  0  0  0
  191.3340  175.9870  143.5950 C   0  0  0  0  0  2  0  0  0  0  0  0
  192.3410  176.7150  144.3500 N   0  0  0  0  0  2  0  0  0  0  0  0
  193.1090  175.7620  145.0370 N   0  0  0  0  0  0  0  0  0  0  0  0
  192.2180  175.0700  146.8870 C   0  0  2  0  0  3  0  0  0  0  0  0
  193.1520  176.1730  146.4330 C   0  0  0  0  0  2  0  0  0  0  0  0
  192.2080  174.6840  145.4180 C   0  0  0  0  0  2  0  0  0  0  0  0
  189.8200  174.8690  147.4220 C   0  0  0  0  0  2  0  0  0  0  0  0
  190.9010  175.6480  147.3520 C   0  0  0  0  0  0  0  0  0  0  0  0
  189.9970  177.9980  147.4860 N   0  0  0  0  0  1  0  0  0  0  0  0
  190.8620  176.9840  147.9880 C   0  0  0  0  0  0  0  0  0  0  0  0
  191.5950  177.2400  148.9810 O   0  0  0  0  0  0  0  0  0  0  0  0
  1 16  1  1  0  0  0
  1  5  1  0  0  0  0
  2  9  1  0  0  0  0
  3 11  1  0  0  0  0
  4 11  2  0  0  0  0
  5 10  2  0  0  0  0
  6  5  1  0  0  0  0
  6  2  2  0  0  0  0
  7  4  1  0  0  0  0
  8  3  2  0  0  0  0
  9  8  1  0  0  0  0
  9  7  2  0  0  0  0
 10  8  1  0  0  0  0
 12 14  1  0  0  0  0
 12 13  1  0  0  0  0
 13  1  1  6  0  0  0
 14 13  1  0  0  0  0
 16 15  1  1  0  0  0
 16 17  1  0  0  0  0
 17 18  1  0  0  0  0
 18 19  1  0  0  0  0
 19 22  1  0  0  0  0
 19 21  1  0  0  0  0
 20 24  1  6  0  0  0
 21 20  1  0  0  0  0
 22 20  1  0  0  0  0
 24 23  2  0  0  0  0
 24 26  1  0  0  0  0
 25 26  1  0  0  0  0
 26 27  2  0  0  0  0
M  END
>  <MODEL>
2

>  <REMARK>
 VINA RESULT:      -6.4      2.087      4.781
  Name = 
  8 active torsions:
  status: ('A' for Active; 'I' for Inactive)
    1  A    between atoms: N_2  and  N_14
    2  A    between atoms: C_3  and  C_13
    3  A    between atoms: C_10  and  C_19
    4  A    between atoms: C_12  and  C_19
    5  A    between atoms: C_13  and  C_20
    6  A    between atoms: N_14  and  C_15
    7  A    between atoms: C_15  and  C_22
    8  A    between atoms: C_19  and  C_22
                            x       y       z     vdW  Elec       q    Type
                         _______ _______ _______ _____ _____    ______ ____

>  <TORSDO>
F 8

$$$$
=
 OpenBabel11042415113D

 27 30  0  0  1  0  0  0  0  0999 V2000
  189.7420  176.4720  144.0280 C   0  0  2  0  0  3  0  0  0  0  0  0
  186.8670  176.6620  146.5270 C   0  0  0  0  0  3  0  0  0  0  0  0
  185.5350  179.0290  144.0270 C   0  0  0  0  0  3  0  0  0  0  0  0
  184.0240  178.8040  145.8550 N   0  0  0  0  0  0  0  0  0  0  0  0
  188.4470  176.8420  144.6870 C   0  0  0  0  0  0  0  0  0  0  0  0
  188.0770  176.2980  145.9290 C   0  0  0  0  0  3  0  0  0  0  0  0
  184.8410  177.9320  146.4540 N   0  0  0  0  0  0  0  0  0  0  0  0
  186.3890  178.1220  144.6460 C   0  0  0  0  0  0  0  0  0  0  0  0
  186.0210  177.5700  145.8870 C   0  0  0  0  0  0  0  0  0  0  0  0
  187.6000  177.7570  144.0510 C   0  0  0  0  0  3  0  0  0  0  0  0
  184.3360  179.3640  144.6560 C   0  0  0  0  0  3  0  0  0  0  0  0
  191.6190  177.4160  142.8770 O   0  0  0  0  0  0  0  0  0  0  0  0
  190.2340  177.5660  143.0780 C   0  0  2  0  0  3  0  0  0  0  0  0
  191.2190  178.4340  143.7610 C   0  0  0  0  0  2  0  0  0  0  0  0
  189.4580  175.1900  141.9370 N   0  0  0  0  0  1  0  0  0  0  0  0
  189.6670  175.0860  143.3750 C   0  0  1  0  0  3  0  0  0  0  0  0
  190.9270  174.2860  143.6700 C   0  0  0  0  0  2  0  0  0  0  0  0
  191.4230  174.5990  145.0000 N   0  0  0  0  0  2  0  0  0  0  0  0
  192.4780  173.7130  145.2660 N   0  0  0  0  0  0  0  0  0  0  0  0
  194.4490  174.5840  145.0310 C   0  0  2  0  0  3  0  0  0  0  0  0
  193.4360  173.8490  144.1770 C   0  0  0  0  0  2  0  0  0  0  0  0
  193.4150  174.4150  146.1310 C   0  0  0  0  0  2  0  0  0  0  0  0
  194.2510  177.0140  145.3890 C   0  0  0  0  0  2  0  0  0  0  0  0
  194.5900  176.0170  144.5710 C   0  0  0  0  0  0  0  0  0  0  0  0
  196.7230  176.7090  143.4170 N   0  0  0  0  0  1  0  0  0  0  0  0
  195.3520  176.3280  143.3410 C   0  0  0  0  0  0  0  0  0  0  0  0
  194.7980  176.2610  142.2110 O   0  0  0  0  0  0  0  0  0  0  0  0
  1 16  1  6  0  0  0
  1  5  1  0  0  0  0
  3  8  1  0  0  0  0
  3 11  2  0  0  0  0
  4  7  2  0  0  0  0
  5  6  2  0  0  0  0
  6  2  1  0  0  0  0
  8  9  1  0  0  0  0
  9  7  1  0  0  0  0
  9  2  2  0  0  0  0
 10  8  2  0  0  0  0
 10  5  1  0  0  0  0
 11  4  1  0  0  0  0
 12 13  1  0  0  0  0
 12 14  1  0  0  0  0
 13 14  1  0  0  0  0
 13  1  1  1  0  0  0
 16 15  1  6  0  0  0
 16 17  1  0  0  0  0
 17 18  1  0  0  0  0
 18 19  1  0  0  0  0
 19 22  1  0  0  0  0
 20 24  1  6  0  0  0
 20 22  1  0  0  0  0
 21 20  1  0  0  0  0
 21 19  1  0  0  0  0
 24 23  2  0  0  0  0
 26 25  1  0  0  0  0
 26 24  1  0  0  0  0
 27 26  2  0  0  0  0
M  END
>  <MODEL>
3

>  <REMARK>
 VINA RESULT:      -6.4      2.657      4.578
  Name = 
  8 active torsions:
  status: ('A' for Active; 'I' for Inactive)
    1  A    between atoms: N_2  and  N_14
    2  A    between atoms: C_3  and  C_13
    3  A    between atoms: C_10  and  C_19
    4  A    between atoms: C_12  and  C_19
    5  A    between atoms: C_13  and  C_20
    6  A    between atoms: N_14  and  C_15
    7  A    between atoms: C_15  and  C_22
    8  A    between atoms: C_19  and  C_22
                            x       y       z     vdW  Elec       q    Type
                         _______ _______ _______ _____ _____    ______ ____

>  <TORSDO>
F 8

$$$$
=
 OpenBabel11042415113D

 27 30  0  0  1  0  0  0  0  0999 V2000
  188.7380  176.4530  142.3060 C   0  0  2  0  0  3  0  0  0  0  0  0
  185.9830  179.0400  142.8250 C   0  0  0  0  0  3  0  0  0  0  0  0
  185.4990  177.1350  145.9500 C   0  0  0  0  0  3  0  0  0  0  0  0
  183.9430  178.9340  145.8170 N   0  0  0  0  0  0  0  0  0  0  0  0
  187.6030  177.2270  142.9070 C   0  0  0  0  0  0  0  0  0  0  0  0
  187.0450  178.3370  142.2490 C   0  0  0  0  0  3  0  0  0  0  0  0
  184.4440  179.3110  144.6360 N   0  0  0  0  0  0  0  0  0  0  0  0
  186.0250  177.5230  144.7220 C   0  0  0  0  0  0  0  0  0  0  0  0
  185.4740  178.6370  144.0620 C   0  0  0  0  0  0  0  0  0  0  0  0
  187.0860  176.8210  144.1430 C   0  0  0  0  0  3  0  0  0  0  0  0
  184.4410  177.8640  146.4930 C   0  0  0  0  0  3  0  0  0  0  0  0
  189.4740  174.3160  141.5110 O   0  0  0  0  0  0  0  0  0  0  0  0
  188.3830  174.9790  142.1040 C   0  0  2  0  0  3  0  0  0  0  0  0
  188.3990  174.6390  140.6640 C   0  0  0  0  0  2  0  0  0  0  0  0
  190.3650  178.0800  143.2010 N   0  0  0  0  0  1  0  0  0  0  0  0
  190.0410  176.6650  143.0870 C   0  0  1  0  0  3  0  0  0  0  0  0
  189.9470  176.0310  144.4670 C   0  0  0  0  0  2  0  0  0  0  0  0
  190.2100  177.0250  145.4960 N   0  0  0  0  0  2  0  0  0  0  0  0
  190.0620  176.3830  146.7360 N   0  0  0  0  0  0  0  0  0  0  0  0
  191.8190  175.2910  147.3840 C   0  0  2  0  0  3  0  0  0  0  0  0
  190.5640  175.0250  146.5770 C   0  0  0  0  0  2  0  0  0  0  0  0
  191.2500  176.6930  147.5190 C   0  0  0  0  0  2  0  0  0  0  0  0
  193.3770  174.0910  145.8990 C   0  0  0  0  0  2  0  0  0  0  0  0
  193.0410  175.2350  146.4970 C   0  0  0  0  0  0  0  0  0  0  0  0
  193.5860  176.9420  144.7240 N   0  0  0  0  0  1  0  0  0  0  0  0
  193.7030  176.4870  146.0680 C   0  0  0  0  0  0  0  0  0  0  0  0
  194.3790  177.1660  146.8870 O   0  0  0  0  0  0  0  0  0  0  0  0
  1  5  1  0  0  0  0
  1 16  1  1  0  0  0
  2  9  1  0  0  0  0
  3 11  1  0  0  0  0
  4 11  2  0  0  0  0
  5 10  2  0  0  0  0
  6  2  2  0  0  0  0
  6  5  1  0  0  0  0
  7  4  1  0  0  0  0
  8  3  2  0  0  0  0
  9  7  2  0  0  0  0
  9  8  1  0  0  0  0
 10  8  1  0  0  0  0
 12 13  1  0  0  0  0
 13  1  1  6  0  0  0
 14 12  1  0  0  0  0
 14 13  1  0  0  0  0
 16 15  1  1  0  0  0
 16 17  1  0  0  0  0
 17 18  1  0  0  0  0
 18 19  1  0  0  0  0
 19 22  1  0  0  0  0
 20 24  1  6  0  0  0
 20 22  1  0  0  0  0
 21 19  1  0  0  0  0
 21 20  1  0  0  0  0
 23 24  2  0  0  0  0
 25 26  1  0  0  0  0
 26 24  1  0  0  0  0
 26 27  2  0  0  0  0
M  END
>  <MODEL>
4

>  <REMARK>
 VINA RESULT:      -6.4      2.086      5.086
  Name = 
  8 active torsions:
  status: ('A' for Active; 'I' for Inactive)
    1  A    between atoms: N_2  and  N_14
    2  A    between atoms: C_3  and  C_13
    3  A    between atoms: C_10  and  C_19
    4  A    between atoms: C_12  and  C_19
    5  A    between atoms: C_13  and  C_20
    6  A    between atoms: N_14  and  C_15
    7  A    between atoms: C_15  and  C_22
    8  A    between atoms: C_19  and  C_22
                            x       y       z     vdW  Elec       q    Type
                         _______ _______ _______ _____ _____    ______ ____

>  <TORSDO>
F 8

$$$$
=
 OpenBabel11042415113D

 27 30  0  0  1  0  0  0  0  0999 V2000
  188.5130  175.7920  143.0170 C   0  0  2  0  0  3  0  0  0  0  0  0
  187.6930  176.5910  146.6550 C   0  0  0  0  0  3  0  0  0  0  0  0
  184.7530  178.1930  145.1000 C   0  0  0  0  0  3  0  0  0  0  0  0
  184.6830  178.4350  147.4690 N   0  0  0  0  0  0  0  0  0  0  0  0
  187.8180  176.3020  144.2440 C   0  0  0  0  0  0  0  0  0  0  0  0
  188.3550  176.1010  145.5260 C   0  0  0  0  0  3  0  0  0  0  0  0
  185.8320  177.7660  147.5950 N   0  0  0  0  0  0  0  0  0  0  0  0
  185.9500  177.4940  145.2260 C   0  0  0  0  0  0  0  0  0  0  0  0
  186.4900  177.2850  146.5080 C   0  0  0  0  0  0  0  0  0  0  0  0
  186.6150  177.0040  144.0980 C   0  0  0  0  0  3  0  0  0  0  0  0
  184.1220  178.6630  146.2500 C   0  0  0  0  0  3  0  0  0  0  0  0
  188.2210  175.3020  140.6900 O   0  0  0  0  0  0  0  0  0  0  0  0
  187.5250  175.4330  141.9060 C   0  0  2  0  0  3  0  0  0  0  0  0
  187.5010  176.4950  140.8770 C   0  0  0  0  0  2  0  0  0  0  0  0
  188.9700  173.3670  142.9240 N   0  0  0  0  0  1  0  0  0  0  0  0
  189.4900  174.6580  143.3530 C   0  0  1  0  0  3  0  0  0  0  0  0
  190.8490  174.9170  142.7210 C   0  0  0  0  0  2  0  0  0  0  0  0
  191.7920  175.3810  143.7270 N   0  0  0  0  0  2  0  0  0  0  0  0
  191.6080  174.5790  144.8650 N   0  0  0  0  0  0  0  0  0  0  0  0
  193.1760  174.7710  146.3490 C   0  0  2  0  0  3  0  0  0  0  0  0
  192.8790  173.9190  145.1320 C   0  0  0  0  0  2  0  0  0  0  0  0
  191.8440  175.4260  146.0250 C   0  0  0  0  0  2  0  0  0  0  0  0
  194.3820  176.9050  146.6090 C   0  0  0  0  0  2  0  0  0  0  0  0
  194.3560  175.6780  146.0860 C   0  0  0  0  0  0  0  0  0  0  0  0
  196.0470  175.5750  144.2180 N   0  0  0  0  0  1  0  0  0  0  0  0
  195.5950  175.1270  145.4920 C   0  0  0  0  0  0  0  0  0  0  0  0
  196.2650  174.2540  146.1070 O   0  0  0  0  0  0  0  0  0  0  0  0
  1 16  1  1  0  0  0
  1  5  1  0  0  0  0
  3  8  2  0  0  0  0
  3 11  1  0  0  0  0
  4  7  1  0  0  0  0
  5  6  1  0  0  0  0
  6  2  2  0  0  0  0
  8  9  1  0  0  0  0
  9  2  1  0  0  0  0
  9  7  2  0  0  0  0
 10  5  2  0  0  0  0
 10  8  1  0  0  0  0
 11  4  2  0  0  0  0
 12 14  1  0  0  0  0
 12 13  1  0  0  0  0
 13  1  1  1  0  0  0
 14 13  1  0  0  0  0
 16 15  1  6  0  0  0
 17 16  1  0  0  0  0
 17 18  1  0  0  0  0
 18 19  1  0  0  0  0
 19 21  1  0  0  0  0
 19 22  1  0  0  0  0
 20 24  1  6  0  0  0
 21 20  1  0  0  0  0
 22 20  1  0  0  0  0
 24 23  2  0  0  0  0
 25 26  1  0  0  0  0
 26 24  1  0  0  0  0
 26 27  2  0  0  0  0
M  END
>  <MODEL>
5

>  <REMARK>
 VINA RESULT:      -6.4      2.484      5.342
  Name = 
  8 active torsions:
  status: ('A' for Active; 'I' for Inactive)
    1  A    between atoms: N_2  and  N_14
    2  A    between atoms: C_3  and  C_13
    3  A    between atoms: C_10  and  C_19
    4  A    between atoms: C_12  and  C_19
    5  A    between atoms: C_13  and  C_20
    6  A    between atoms: N_14  and  C_15
    7  A    between atoms: C_15  and  C_22
    8  A    between atoms: C_19  and  C_22
                            x       y       z     vdW  Elec       q    Type
                         _______ _______ _______ _____ _____    ______ ____

>  <TORSDO>
F 8

$$$$
=
 OpenBabel11042415113D

 27 30  0  0  1  0  0  0  0  0999 V2000
  189.6120  176.2510  143.7160 C   0  0  2  0  0  3  0  0  0  0  0  0
  187.4880  176.3570  146.8820 C   0  0  0  0  0  3  0  0  0  0  0  0
  185.4670  178.6640  144.8280 C   0  0  0  0  0  3  0  0  0  0  0  0
  184.4970  178.3980  146.9870 N   0  0  0  0  0  0  0  0  0  0  0  0
  188.5230  176.5800  144.6930 C   0  0  0  0  0  0  0  0  0  0  0  0
  188.5100  176.0310  145.9860 C   0  0  0  0  0  3  0  0  0  0  0  0
  185.4720  177.5580  147.3480 N   0  0  0  0  0  0  0  0  0  0  0  0
  186.4840  177.7900  145.1980 C   0  0  0  0  0  0  0  0  0  0  0  0
  186.4730  177.2330  146.4900 C   0  0  0  0  0  0  0  0  0  0  0  0
  187.5080  177.4630  144.3040 C   0  0  0  0  0  3  0  0  0  0  0  0
  184.4650  178.9620  145.7500 C   0  0  0  0  0  3  0  0  0  0  0  0
  191.5040  177.3270  142.7160 O   0  0  0  0  0  0  0  0  0  0  0  0
  190.1360  177.4970  143.0010 C   0  0  2  0  0  3  0  0  0  0  0  0
  191.1880  178.1500  143.8110 C   0  0  0  0  0  2  0  0  0  0  0  0
  188.6610  175.6730  141.5120 N   0  0  0  0  0  1  0  0  0  0  0  0
  189.1890  175.1310  142.7570 C   0  0  1  0  0  3  0  0  0  0  0  0
  190.3570  174.1980  142.4740 C   0  0  0  0  0  2  0  0  0  0  0  0
  190.6540  173.3940  143.6490 N   0  0  0  0  0  2  0  0  0  0  0  0
  191.9540  172.8890  143.4850 N   0  0  0  0  0  0  0  0  0  0  0  0
  193.4630  173.9280  144.6430 C   0  0  2  0  0  3  0  0  0  0  0  0
  192.8320  174.0310  143.2690 C   0  0  0  0  0  2  0  0  0  0  0  0
  192.5250  172.7450  144.8160 C   0  0  0  0  0  2  0  0  0  0  0  0
  192.1040  174.9940  146.4020 C   0  0  0  0  0  2  0  0  0  0  0  0
  193.0740  175.1150  145.4940 C   0  0  0  0  0  0  0  0  0  0  0  0
  194.1890  176.9940  146.7550 N   0  0  0  0  0  1  0  0  0  0  0  0
  193.9370  176.3180  145.5270 C   0  0  0  0  0  0  0  0  0  0  0  0
  194.4590  176.7580  144.4670 O   0  0  0  0  0  0  0  0  0  0  0  0
  1 16  1  6  0  0  0
  1  5  1  0  0  0  0
  3  8  2  0  0  0  0
  3 11  1  0  0  0  0
  4  7  1  0  0  0  0
  5  6  1  0  0  0  0
  6  2  2  0  0  0  0
  8  9  1  0  0  0  0
  9  2  1  0  0  0  0
  9  7  2  0  0  0  0
 10  5  2  0  0  0  0
 10  8  1  0  0  0  0
 11  4  2  0  0  0  0
 12 13  1  0  0  0  0
 12 14  1  0  0  0  0
 13  1  1  1  0  0  0
 13 14  1  0  0  0  0
 16 15  1  6  0  0  0
 17 16  1  0  0  0  0
 17 18  1  0  0  0  0
 19 18  1  0  0  0  0
 19 22  1  0  0  0  0
 20 22  1  0  0  0  0
 20 24  1  1  0  0  0
 21 19  1  0  0  0  0
 21 20  1  0  0  0  0
 24 26  1  0  0  0  0
 24 23  2  0  0  0  0
 26 25  1  0  0  0  0
 27 26  2  0  0  0  0
M  END
>  <MODEL>
6

>  <REMARK>
 VINA RESULT:      -6.3      2.130      4.255
  Name = 
  8 active torsions:
  status: ('A' for Active; 'I' for Inactive)
    1  A    between atoms: N_2  and  N_14
    2  A    between atoms: C_3  and  C_13
    3  A    between atoms: C_10  and  C_19
    4  A    between atoms: C_12  and  C_19
    5  A    between atoms: C_13  and  C_20
    6  A    between atoms: N_14  and  C_15
    7  A    between atoms: C_15  and  C_22
    8  A    between atoms: C_19  and  C_22
                            x       y       z     vdW  Elec       q    Type
                         _______ _______ _______ _____ _____    ______ ____

>  <TORSDO>
F 8

$$$$
=
 OpenBabel11042415113D

 27 30  0  0  1  0  0  0  0  0999 V2000
  189.7260  175.9870  145.7500 C   0  0  2  0  0  3  0  0  0  0  0  0
  186.2740  176.7850  147.1610 C   0  0  0  0  0  3  0  0  0  0  0  0
  186.0820  178.8670  144.1190 C   0  0  0  0  0  3  0  0  0  0  0  0
  184.0690  179.0420  145.3810 N   0  0  0  0  0  0  0  0  0  0  0  0
  188.3490  176.5580  145.9150 C   0  0  0  0  0  0  0  0  0  0  0  0
  187.5520  176.2350  147.0250 C   0  0  0  0  0  3  0  0  0  0  0  0
  184.5460  178.2000  146.3030 N   0  0  0  0  0  0  0  0  0  0  0  0
  186.5840  177.9900  145.0760 C   0  0  0  0  0  0  0  0  0  0  0  0
  185.7870  177.6590  146.1870 C   0  0  0  0  0  0  0  0  0  0  0  0
  187.8620  177.4400  144.9430 C   0  0  0  0  0  3  0  0  0  0  0  0
  184.8010  179.3920  144.2900 C   0  0  0  0  0  3  0  0  0  0  0  0
  190.8570  174.1100  144.7800 O   0  0  0  0  0  0  0  0  0  0  0  0
  189.6940  174.4810  145.4800 C   0  0  2  0  0  3  0  0  0  0  0  0
  189.6760  174.2210  144.0240 C   0  0  0  0  0  2  0  0  0  0  0  0
  190.7650  175.2900  147.8780 N   0  0  0  0  0  1  0  0  0  0  0  0
  190.6420  176.3770  146.9170 C   0  0  1  0  0  3  0  0  0  0  0  0
  192.0150  176.7900  146.4070 C   0  0  0  0  0  2  0  0  0  0  0  0
  193.0060  175.7870  146.7630 N   0  0  0  0  0  2  0  0  0  0  0  0
  194.2680  176.3550  146.5300 N   0  0  0  0  0  0  0  0  0  0  0  0
  194.9530  176.1880  144.4800 C   0  0  2  0  0  3  0  0  0  0  0  0
  195.0390  175.3860  145.7620 C   0  0  0  0  0  2  0  0  0  0  0  0
  194.1540  177.1660  145.3260 C   0  0  0  0  0  2  0  0  0  0  0  0
  193.1200  176.1130  142.8340 C   0  0  0  0  0  2  0  0  0  0  0  0
  194.1040  175.4650  143.4590 C   0  0  0  0  0  0  0  0  0  0  0  0
  193.6450  173.0260  143.0120 N   0  0  0  0  0  1  0  0  0  0  0  0
  194.5270  174.1420  142.9470 C   0  0  0  0  0  0  0  0  0  0  0  0
  195.6740  173.9870  142.4490 O   0  0  0  0  0  0  0  0  0  0  0  0
  1  5  1  0  0  0  0
  1 16  1  1  0  0  0
  3 11  2  0  0  0  0
  3  8  1  0  0  0  0
  4  7  2  0  0  0  0
  5  6  2  0  0  0  0
  6  2  1  0  0  0  0
  8  9  1  0  0  0  0
  9  7  1  0  0  0  0
  9  2  2  0  0  0  0
 10  8  2  0  0  0  0
 10  5  1  0  0  0  0
 11  4  1  0  0  0  0
 12 13  1  0  0  0  0
 13  1  1  6  0  0  0
 14 12  1  0  0  0  0
 14 13  1  0  0  0  0
 16 15  1  1  0  0  0
 17 18  1  0  0  0  0
 17 16  1  0  0  0  0
 19 18  1  0  0  0  0
 20 24  1  6  0  0  0
 20 22  1  0  0  0  0
 20 21  1  0  0  0  0
 21 19  1  0  0  0  0
 22 19  1  0  0  0  0
 23 24  2  0  0  0  0
 26 25  1  0  0  0  0
 26 24  1  0  0  0  0
 27 26  2  0  0  0  0
M  END
>  <MODEL>
7

>  <REMARK>
 VINA RESULT:      -6.3      2.745      4.674
  Name = 
  8 active torsions:
  status: ('A' for Active; 'I' for Inactive)
    1  A    between atoms: N_2  and  N_14
    2  A    between atoms: C_3  and  C_13
    3  A    between atoms: C_10  and  C_19
    4  A    between atoms: C_12  and  C_19
    5  A    between atoms: C_13  and  C_20
    6  A    between atoms: N_14  and  C_15
    7  A    between atoms: C_15  and  C_22
    8  A    between atoms: C_19  and  C_22
                            x       y       z     vdW  Elec       q    Type
                         _______ _______ _______ _____ _____    ______ ____

>  <TORSDO>
F 8

$$$$
=
 OpenBabel11042415113D

 27 30  0  0  1  0  0  0  0  0999 V2000
  189.9050  176.1930  145.2240 C   0  0  2  0  0  3  0  0  0  0  0  0
  192.0700  173.0880  144.7490 C   0  0  0  0  0  3  0  0  0  0  0  0
  194.7290  175.4120  145.8240 C   0  0  0  0  0  3  0  0  0  0  0  0
  195.6310  173.2490  145.3950 N   0  0  0  0  0  0  0  0  0  0  0  0
  191.0870  175.2710  145.1790 C   0  0  0  0  0  0  0  0  0  0  0  0
  190.9530  173.9280  144.7900 C   0  0  0  0  0  3  0  0  0  0  0  0
  194.4220  172.7840  145.0680 N   0  0  0  0  0  0  0  0  0  0  0  0
  193.4680  174.9330  145.4840 C   0  0  0  0  0  0  0  0  0  0  0  0
  193.3270  173.5870  145.0990 C   0  0  0  0  0  0  0  0  0  0  0  0
  192.3490  175.7710  145.5230 C   0  0  0  0  0  3  0  0  0  0  0  0
  195.8180  174.5430  145.7730 C   0  0  0  0  0  3  0  0  0  0  0  0
  189.0320  177.9850  143.8960 O   0  0  0  0  0  0  0  0  0  0  0  0
  190.1960  177.5310  144.5420 C   0  0  2  0  0  3  0  0  0  0  0  0
  190.0210  177.4100  143.0780 C   0  0  0  0  0  2  0  0  0  0  0  0
  189.7990  177.5910  147.2560 N   0  0  0  0  0  1  0  0  0  0  0  0
  189.3600  176.3410  146.6500 C   0  0  1  0  0  3  0  0  0  0  0  0
  187.8410  176.2560  146.6550 C   0  0  0  0  0  2  0  0  0  0  0  0
  187.2630  177.5800  146.8190 N   0  0  0  0  0  2  0  0  0  0  0  0
  185.9390  177.4010  147.2490 N   0  0  0  0  0  0  0  0  0  0  0  0
  184.4460  178.0590  145.8230 C   0  0  2  0  0  3  0  0  0  0  0  0
  185.2300  178.6440  146.9800 C   0  0  0  0  0  2  0  0  0  0  0  0
  185.2130  176.7890  146.1460 C   0  0  0  0  0  2  0  0  0  0  0  0
  185.5770  179.8250  144.5270 C   0  0  0  0  0  2  0  0  0  0  0  0
  184.8760  178.6900  144.5180 C   0  0  0  0  0  0  0  0  0  0  0  0
  185.8890  177.1950  142.7570 N   0  0  0  0  0  1  0  0  0  0  0  0
  184.7710  177.9240  143.2550 C   0  0  0  0  0  0  0  0  0  0  0  0
  183.6920  177.9090  142.6050 O   0  0  0  0  0  0  0  0  0  0  0  0
  1 16  1  1  0  0  0
  2  6  2  0  0  0  0
  2  9  1  0  0  0  0
  4 11  2  0  0  0  0
  5  1  1  0  0  0  0
  5 10  2  0  0  0  0
  6  5  1  0  0  0  0
  7  9  2  0  0  0  0
  7  4  1  0  0  0  0
  8 10  1  0  0  0  0
  8  3  2  0  0  0  0
  9  8  1  0  0  0  0
 11  3  1  0  0  0  0
 12 13  1  0  0  0  0
 13  1  1  1  0  0  0
 14 12  1  0  0  0  0
 14 13  1  0  0  0  0
 16 17  1  0  0  0  0
 16 15  1  6  0  0  0
 17 18  1  0  0  0  0
 18 19  1  0  0  0  0
 20 24  1  6  0  0  0
 20 22  1  0  0  0  0
 20 21  1  0  0  0  0
 21 19  1  0  0  0  0
 22 19  1  0  0  0  0
 24 23  2  0  0  0  0
 25 26  1  0  0  0  0
 26 24  1  0  0  0  0
 27 26  2  0  0  0  0
M  END
>  <MODEL>
8

>  <REMARK>
 VINA RESULT:      -6.2      2.883      6.650
  Name = 
  8 active torsions:
  status: ('A' for Active; 'I' for Inactive)
    1  A    between atoms: N_2  and  N_14
    2  A    between atoms: C_3  and  C_13
    3  A    between atoms: C_10  and  C_19
    4  A    between atoms: C_12  and  C_19
    5  A    between atoms: C_13  and  C_20
    6  A    between atoms: N_14  and  C_15
    7  A    between atoms: C_15  and  C_22
    8  A    between atoms: C_19  and  C_22
                            x       y       z     vdW  Elec       q    Type
                         _______ _______ _______ _____ _____    ______ ____

>  <TORSDO>
F 8

$$$$
=
 OpenBabel11042415113D

 27 30  0  0  1  0  0  0  0  0999 V2000
  189.4010  175.1450  144.3010 C   0  0  2  0  0  3  0  0  0  0  0  0
  187.2330  176.7070  147.0240 C   0  0  0  0  0  3  0  0  0  0  0  0
  185.3310  177.9090  144.0970 C   0  0  0  0  0  3  0  0  0  0  0  0
  184.3180  178.6590  146.1190 N   0  0  0  0  0  0  0  0  0  0  0  0
  188.3090  175.9040  144.9960 C   0  0  0  0  0  0  0  0  0  0  0  0
  188.2570  175.9890  146.3970 C   0  0  0  0  0  3  0  0  0  0  0  0
  185.2560  178.0420  146.8450 N   0  0  0  0  0  0  0  0  0  0  0  0
  186.3100  177.2640  144.8480 C   0  0  0  0  0  0  0  0  0  0  0  0
  186.2580  177.3430  146.2520 C   0  0  0  0  0  0  0  0  0  0  0  0
  187.3340  176.5470  144.2240 C   0  0  0  0  0  3  0  0  0  0  0  0
  184.3260  178.6130  144.7590 C   0  0  0  0  0  3  0  0  0  0  0  0
  190.0080  174.0630  142.2520 O   0  0  0  0  0  0  0  0  0  0  0  0
  188.9020  174.4640  143.0250 C   0  0  2  0  0  3  0  0  0  0  0  0
  189.3370  175.2260  141.8340 C   0  0  0  0  0  2  0  0  0  0  0  0
  189.6940  172.8120  145.0540 N   0  0  0  0  0  1  0  0  0  0  0  0
  190.1210  174.1890  145.2600 C   0  0  1  0  0  3  0  0  0  0  0  0
  191.6300  174.3050  145.0980 C   0  0  0  0  0  2  0  0  0  0  0  0
  191.9860  175.6390  144.6430 N   0  0  0  0  0  2  0  0  0  0  0  0
  192.3840  176.3680  145.7750 N   0  0  0  0  0  0  0  0  0  0  0  0
  194.5110  176.2840  146.1830 C   0  0  2  0  0  3  0  0  0  0  0  0
  193.2640  175.5060  146.5520 C   0  0  0  0  0  2  0  0  0  0  0  0
  193.5490  177.1500  145.3880 C   0  0  0  0  0  2  0  0  0  0  0  0
  195.7970  174.2370  145.7030 C   0  0  0  0  0  2  0  0  0  0  0  0
  195.4150  175.4500  145.3030 C   0  0  0  0  0  0  0  0  0  0  0  0
  194.9950  175.1630  142.8340 N   0  0  0  0  0  1  0  0  0  0  0  0
  195.6500  175.8470  143.8970 C   0  0  0  0  0  0  0  0  0  0  0  0
  196.4340  176.7950  143.6230 O   0  0  0  0  0  0  0  0  0  0  0  0
  1  5  1  0  0  0  0
  1 16  1  1  0  0  0
  3 11  2  0  0  0  0
  3  8  1  0  0  0  0
  4  7  2  0  0  0  0
  5  6  2  0  0  0  0
  6  2  1  0  0  0  0
  8  9  1  0  0  0  0
  9  7  1  0  0  0  0
  9  2  2  0  0  0  0
 10  8  2  0  0  0  0
 10  5  1  0  0  0  0
 11  4  1  0  0  0  0
 12 13  1  0  0  0  0
 13  1  1  1  0  0  0
 14 12  1  0  0  0  0
 14 13  1  0  0  0  0
 16 15  1  6  0  0  0
 17 16  1  0  0  0  0
 18 17  1  0  0  0  0
 18 19  1  0  0  0  0
 19 21  1  0  0  0  0
 20 24  1  6  0  0  0
 20 21  1  0  0  0  0
 22 19  1  0  0  0  0
 22 20  1  0  0  0  0
 24 23  2  0  0  0  0
 25 26  1  0  0  0  0
 26 24  1  0  0  0  0
 27 26  2  0  0  0  0
M  END
>  <MODEL>
9

>  <REMARK>
 VINA RESULT:      -6.1      2.831      5.155
  Name = 
  8 active torsions:
  status: ('A' for Active; 'I' for Inactive)
    1  A    between atoms: N_2  and  N_14
    2  A    between atoms: C_3  and  C_13
    3  A    between atoms: C_10  and  C_19
    4  A    between atoms: C_12  and  C_19
    5  A    between atoms: C_13  and  C_20
    6  A    between atoms: N_14  and  C_15
    7  A    between atoms: C_15  and  C_22
    8  A    between atoms: C_19  and  C_22
                            x       y       z     vdW  Elec       q    Type
                         _______ _______ _______ _____ _____    ______ ____

>  <TORSDO>
F 8

$$$$
