=
 OpenBabel11042416523D

 29 33  0  0  1  0  0  0  0  0999 V2000
  188.2620  176.3580  145.2660 S   0  0  0  0  0  0  0  0  0  0  0  0
  188.6490  175.3570  143.9660 C   0  0  0  0  0  0  0  0  0  0  0  0
  188.8660  174.0150  141.4290 C   0  0  1  0  0  0  0  0  0  0  0  0
  187.1560  177.3030  144.4210 C   0  0  0  0  0  0  0  0  0  0  0  0
  188.5410  172.7290  142.1510 C   0  0  0  0  0  2  0  0  0  0  0  0
  189.5230  174.1260  143.9870 C   0  0  1  0  0  3  0  0  0  0  0  0
  187.0430  176.8400  143.1130 C   0  0  0  0  0  3  0  0  0  0  0  0
  187.9360  175.0700  141.6670 O   0  0  0  0  0  0  0  0  0  0  0  0
  187.8790  175.7410  142.8830 C   0  0  0  0  0  0  0  0  0  0  0  0
  189.7710  173.5390  142.5700 C   0  0  2  0  0  3  0  0  0  0  0  0
  190.7900  174.3960  144.6880 N   0  0  1  0  0  0  0  0  0  0  0  0
  191.4500  173.1650  144.8660 N   0  0  0  0  0  2  0  0  0  0  0  0
  192.8670  173.4640  144.8590 C   0  0  0  0  0  2  0  0  0  0  0  0
  192.9820  174.7870  144.1650 C   0  0  1  0  0  3  0  0  0  0  0  0
  191.6210  175.1840  143.8640 N   0  0  0  0  0  2  0  0  0  0  0  0
  193.6440  175.8020  145.0490 C   0  0  0  0  0  0  0  0  0  0  0  0
  194.2500  177.0630  146.7770 C   0  0  0  0  0  3  0  0  0  0  0  0
  195.8590  176.0760  144.1400 N   0  0  0  0  0  1  0  0  0  0  0  0
  193.3930  175.9720  146.3380 C   0  0  0  0  0  3  0  0  0  0  0  0
  194.6680  176.7790  144.5860 C   0  0  2  0  0  3  0  0  0  0  0  0
  194.9680  177.5170  145.8030 N   0  0  0  0  0  0  0  0  0  0  0  0
  186.4650  178.3840  144.9850 O   0  0  0  0  0  0  0  0  0  0  0  0
  185.1370  176.8110  146.2690 C   0  0  0  0  0  1  0  0  0  0  0  0
  184.1600  178.8860  145.3780 C   0  0  0  0  0  1  0  0  0  0  0  0
  185.7780  179.0140  147.2270 C   0  0  0  0  0  1  0  0  0  0  0  0
  185.4180  178.2690  145.9520 C   0  0  0  0  0  0  0  0  0  0  0  0
  189.3520  173.8060  140.0080 C   0  0  0  0  0  2  0  0  0  0  0  0
  188.3000  174.2240  139.0380 C   0  0  0  0  0  3  0  0  0  0  0  0
  188.2260  173.6570  137.8920 N   0  0  0  0  0  2  0  0  0  0  0  0
  2  1  1  0  0  0  0
  3 27  1  6  0  0  0
  3  8  1  0  0  0  0
  3  5  1  0  0  0  0
  3 10  1  0  0  0  0
  4 22  1  0  0  0  0
  4  1  1  0  0  0  0
  6  2  1  6  0  0  0
  6 11  1  0  0  0  0
  7  4  2  0  0  0  0
  8  9  1  0  0  0  0
  9  7  1  0  0  0  0
  9  2  2  0  0  0  0
 10  5  1  1  0  0  0
 10  6  1  0  0  0  0
 11 15  1  6  0  0  0
 11 12  1  0  0  0  0
 13 12  1  0  0  0  0
 14 13  1  0  0  0  0
 14 16  1  1  0  0  0
 15 14  1  0  0  0  0
 16 19  2  0  0  0  0
 19 17  1  0  0  0  0
 20 18  1  1  0  0  0
 20 16  1  0  0  0  0
 20 21  1  0  0  0  0
 21 17  2  0  0  0  0
 22 26  1  0  0  0  0
 24 26  1  0  0  0  0
 26 23  1  0  0  0  0
 26 25  1  0  0  0  0
 28 27  1  0  0  0  0
 29 28  2  0  0  0  0
M  END
>  <MODEL>
1

>  <REMARK>
 VINA RESULT:      -6.9      0.000      0.000
  Name = 
  6 active torsions:
  status: ('A' for Active; 'I' for Inactive)
    1  A    between atoms: C_1  and  C_25
    2  A    between atoms: C_6  and  C_23
    3  A    between atoms: C_7  and  O_10
    4  A    between atoms: O_10  and  C_27
    5  A    between atoms: C_11  and  N_18
    6  A    between atoms: C_14  and  C_23
                            x       y       z     vdW  Elec       q    Type
                         _______ _______ _______ _____ _____    ______ ____

>  <TORSDO>
F 6

$$$$
=
 OpenBabel11042416523D

 29 33  0  0  1  0  0  0  0  0999 V2000
  191.3450  177.4580  143.4530 S   0  0  0  0  0  0  0  0  0  0  0  0
  190.3010  176.2910  142.8290 C   0  0  0  0  0  0  0  0  0  0  0  0
  189.0440  173.9070  141.8180 C   0  0  1  0  0  0  0  0  0  0  0  0
  192.6650  176.4270  143.6130 C   0  0  0  0  0  0  0  0  0  0  0  0
  188.6960  174.6910  140.5750 C   0  0  0  0  0  2  0  0  0  0  0  0
  188.9040  176.5030  142.2960 C   0  0  1  0  0  3  0  0  0  0  0  0
  192.3280  175.1560  143.1560 C   0  0  0  0  0  3  0  0  0  0  0  0
  190.4240  173.9600  142.1750 O   0  0  0  0  0  0  0  0  0  0  0  0
  191.0020  175.1040  142.7100 C   0  0  0  0  0  0  0  0  0  0  0  0
  188.1880  175.1710  141.9370 C   0  0  2  0  0  3  0  0  0  0  0  0
  188.1040  177.3090  143.2340 N   0  0  1  0  0  0  0  0  0  0  0  0
  187.4330  178.2950  142.4840 N   0  0  0  0  0  2  0  0  0  0  0  0
  186.1990  178.5680  143.1920 C   0  0  0  0  0  2  0  0  0  0  0  0
  185.9670  177.3620  144.0500 C   0  0  1  0  0  3  0  0  0  0  0  0
  187.1080  176.4970  143.8160 N   0  0  0  0  0  2  0  0  0  0  0  0
  185.8810  177.7410  145.4990 C   0  0  0  0  0  0  0  0  0  0  0  0
  186.3640  178.3140  147.5920 C   0  0  0  0  0  3  0  0  0  0  0  0
  183.7840  178.9080  145.7190 N   0  0  0  0  0  1  0  0  0  0  0  0
  186.9160  178.0120  146.2800 C   0  0  0  0  0  3  0  0  0  0  0  0
  184.6100  177.8450  146.2660 C   0  0  2  0  0  3  0  0  0  0  0  0
  185.0750  178.2250  147.5910 N   0  0  0  0  0  0  0  0  0  0  0  0
  193.9050  176.8270  144.1280 O   0  0  0  0  0  0  0  0  0  0  0  0
  193.1480  176.3750  146.3880 C   0  0  0  0  0  1  0  0  0  0  0  0
  195.0610  177.8600  145.9500 C   0  0  0  0  0  1  0  0  0  0  0  0
  195.2970  175.4430  145.5560 C   0  0  0  0  0  1  0  0  0  0  0  0
  194.3370  176.6170  145.4750 C   0  0  0  0  0  0  0  0  0  0  0  0
  188.3400  172.5660  141.9050 C   0  0  0  0  0  2  0  0  0  0  0  0
  189.0730  171.6600  142.8340 C   0  0  0  0  0  3  0  0  0  0  0  0
  189.1690  171.9580  144.0760 N   0  0  0  0  0  2  0  0  0  0  0  0
  1  4  1  0  0  0  0
  2  1  1  0  0  0  0
  3 27  1  1  0  0  0
  3 10  1  0  0  0  0
  3  8  1  0  0  0  0
  4 22  1  0  0  0  0
  5  3  1  0  0  0  0
  6  2  1  1  0  0  0
  6 11  1  0  0  0  0
  7  4  2  0  0  0  0
  8  9  1  0  0  0  0
  9  2  2  0  0  0  0
  9  7  1  0  0  0  0
 10  5  1  6  0  0  0
 10  6  1  0  0  0  0
 11 12  1  6  0  0  0
 11 15  1  0  0  0  0
 12 13  1  0  0  0  0
 13 14  1  0  0  0  0
 14 16  1  1  0  0  0
 15 14  1  0  0  0  0
 16 20  1  0  0  0  0
 16 19  2  0  0  0  0
 19 17  1  0  0  0  0
 20 18  1  6  0  0  0
 20 21  1  0  0  0  0
 21 17  2  0  0  0  0
 22 26  1  0  0  0  0
 26 25  1  0  0  0  0
 26 24  1  0  0  0  0
 26 23  1  0  0  0  0
 27 28  1  0  0  0  0
 28 29  2  0  0  0  0
M  END
>  <MODEL>
2

>  <REMARK>
 VINA RESULT:      -6.7      3.227      6.890
  Name = 
  6 active torsions:
  status: ('A' for Active; 'I' for Inactive)
    1  A    between atoms: C_1  and  C_25
    2  A    between atoms: C_6  and  C_23
    3  A    between atoms: C_7  and  O_10
    4  A    between atoms: O_10  and  C_27
    5  A    between atoms: C_11  and  N_18
    6  A    between atoms: C_14  and  C_23
                            x       y       z     vdW  Elec       q    Type
                         _______ _______ _______ _____ _____    ______ ____

>  <TORSDO>
F 6

$$$$
=
 OpenBabel11042416523D

 29 33  0  0  1  0  0  0  0  0999 V2000
  188.8110  176.5830  145.2060 S   0  0  0  0  0  0  0  0  0  0  0  0
  189.0100  175.4370  143.9860 C   0  0  0  0  0  0  0  0  0  0  0  0
  188.8030  173.7530  141.6610 C   0  0  1  0  0  0  0  0  0  0  0  0
  187.4330  177.2860  144.5460 C   0  0  0  0  0  0  0  0  0  0  0  0
  188.8150  172.5660  142.5940 C   0  0  0  0  0  2  0  0  0  0  0  0
  190.0110  174.3070  143.9450 C   0  0  1  0  0  3  0  0  0  0  0  0
  187.0800  176.6220  143.3740 C   0  0  0  0  0  3  0  0  0  0  0  0
  187.8290  174.7440  141.9860 O   0  0  0  0  0  0  0  0  0  0  0  0
  187.9710  175.5820  143.0850 C   0  0  0  0  0  0  0  0  0  0  0  0
  189.9970  173.5380  142.5950 C   0  0  2  0  0  3  0  0  0  0  0  0
  191.3620  174.7930  144.2750 N   0  0  1  0  0  0  0  0  0  0  0  0
  191.6470  174.3990  145.5970 N   0  0  0  0  0  2  0  0  0  0  0  0
  193.0830  174.2160  145.6600 C   0  0  0  0  0  2  0  0  0  0  0  0
  193.5140  174.0170  144.2390 C   0  0  1  0  0  3  0  0  0  0  0  0
  192.3050  174.1480  143.4480 N   0  0  0  0  0  2  0  0  0  0  0  0
  194.5230  175.0500  143.8340 C   0  0  0  0  0  0  0  0  0  0  0  0
  196.0520  176.6640  143.8380 C   0  0  0  0  0  3  0  0  0  0  0  0
  195.4900  174.2120  141.7910 N   0  0  0  0  0  1  0  0  0  0  0  0
  195.2100  175.8160  144.6680 C   0  0  0  0  0  3  0  0  0  0  0  0
  194.8790  175.3690  142.4230 C   0  0  2  0  0  3  0  0  0  0  0  0
  195.8730  176.4180  142.5820 N   0  0  0  0  0  0  0  0  0  0  0  0
  186.7610  178.3730  145.1230 O   0  0  0  0  0  0  0  0  0  0  0  0
  184.3730  178.8010  145.1200 C   0  0  0  0  0  1  0  0  0  0  0  0
  185.7300  179.1150  147.1500 C   0  0  0  0  0  1  0  0  0  0  0  0
  185.3120  176.8370  146.3200 C   0  0  0  0  0  1  0  0  0  0  0  0
  185.5650  178.2750  145.9000 C   0  0  0  0  0  0  0  0  0  0  0  0
  188.9710  173.3770  140.2010 C   0  0  0  0  0  2  0  0  0  0  0  0
  188.2890  174.3760  139.3300 C   0  0  0  0  0  3  0  0  0  0  0  0
  188.1490  174.1440  138.0790 N   0  0  0  0  0  2  0  0  0  0  0  0
  2  1  1  0  0  0  0
  3 27  1  6  0  0  0
  3  8  1  0  0  0  0
  3  5  1  0  0  0  0
  3 10  1  0  0  0  0
  4 22  1  0  0  0  0
  4  1  1  0  0  0  0
  6  2  1  6  0  0  0
  6 11  1  0  0  0  0
  7  4  2  0  0  0  0
  8  9  1  0  0  0  0
  9  7  1  0  0  0  0
  9  2  2  0  0  0  0
 10  5  1  1  0  0  0
 10  6  1  0  0  0  0
 11 15  1  6  0  0  0
 11 12  1  0  0  0  0
 12 13  1  0  0  0  0
 14 16  1  6  0  0  0
 14 13  1  0  0  0  0
 15 14  1  0  0  0  0
 16 19  2  0  0  0  0
 17 19  1  0  0  0  0
 20 18  1  1  0  0  0
 20 21  1  0  0  0  0
 20 16  1  0  0  0  0
 21 17  2  0  0  0  0
 22 26  1  0  0  0  0
 23 26  1  0  0  0  0
 26 25  1  0  0  0  0
 26 24  1  0  0  0  0
 28 27  1  0  0  0  0
 29 28  2  0  0  0  0
M  END
>  <MODEL>
3

>  <REMARK>
 VINA RESULT:      -6.6      1.134      1.616
  Name = 
  6 active torsions:
  status: ('A' for Active; 'I' for Inactive)
    1  A    between atoms: C_1  and  C_25
    2  A    between atoms: C_6  and  C_23
    3  A    between atoms: C_7  and  O_10
    4  A    between atoms: O_10  and  C_27
    5  A    between atoms: C_11  and  N_18
    6  A    between atoms: C_14  and  C_23
                            x       y       z     vdW  Elec       q    Type
                         _______ _______ _______ _____ _____    ______ ____

>  <TORSDO>
F 6

$$$$
=
 OpenBabel11042416523D

 29 33  0  0  1  0  0  0  0  0999 V2000
  190.6200  177.5730  143.7680 S   0  0  0  0  0  0  0  0  0  0  0  0
  189.6830  176.5360  142.8250 C   0  0  0  0  0  0  0  0  0  0  0  0
  188.6080  174.3750  141.2580 C   0  0  1  0  0  0  0  0  0  0  0  0
  191.9410  176.5390  143.8840 C   0  0  0  0  0  0  0  0  0  0  0  0
  188.3790  175.3740  140.1490 C   0  0  0  0  0  2  0  0  0  0  0  0
  188.3480  176.8350  142.1860 C   0  0  1  0  0  3  0  0  0  0  0  0
  191.6910  175.3720  143.1650 C   0  0  0  0  0  3  0  0  0  0  0  0
  189.9400  174.3680  141.7730 O   0  0  0  0  0  0  0  0  0  0  0  0
  190.4250  175.3970  142.5700 C   0  0  0  0  0  0  0  0  0  0  0  0
  187.7110  175.5900  141.5100 C   0  0  2  0  0  3  0  0  0  0  0  0
  187.4280  177.4490  143.1590 N   0  0  1  0  0  0  0  0  0  0  0  0
  186.2490  177.7990  142.4710 N   0  0  0  0  0  2  0  0  0  0  0  0
  185.1770  177.7040  143.4400 C   0  0  0  0  0  2  0  0  0  0  0  0
  185.7040  176.8100  144.5200 C   0  0  1  0  0  3  0  0  0  0  0  0
  187.0620  176.4900  144.1260 N   0  0  0  0  0  2  0  0  0  0  0  0
  185.6910  177.5060  145.8490 C   0  0  0  0  0  0  0  0  0  0  0  0
  185.0960  178.6660  147.6510 C   0  0  0  0  0  3  0  0  0  0  0  0
  187.2370  176.2670  147.2210 N   0  0  0  0  0  1  0  0  0  0  0  0
  184.6520  178.1410  146.3680 C   0  0  0  0  0  3  0  0  0  0  0  0
  186.8630  177.5940  146.7630 C   0  0  2  0  0  3  0  0  0  0  0  0
  186.3320  178.3610  147.8780 N   0  0  0  0  0  0  0  0  0  0  0  0
  193.1070  176.8430  144.6000 O   0  0  0  0  0  0  0  0  0  0  0  0
  192.2390  176.1320  146.7520 C   0  0  0  0  0  1  0  0  0  0  0  0
  194.4500  177.1930  146.5480 C   0  0  0  0  0  1  0  0  0  0  0  0
  194.1210  174.9170  145.6750 C   0  0  0  0  0  1  0  0  0  0  0  0
  193.4620  176.2730  145.8620 C   0  0  0  0  0  0  0  0  0  0  0  0
  187.9360  173.0370  141.0170 C   0  0  0  0  0  2  0  0  0  0  0  0
  188.1980  172.5720  139.6250 C   0  0  0  0  0  3  0  0  0  0  0  0
  189.2800  171.9430  139.3540 N   0  0  0  0  0  2  0  0  0  0  0  0
  1  4  1  0  0  0  0
  2  1  1  0  0  0  0
  3 27  1  6  0  0  0
  3 10  1  0  0  0  0
  3  8  1  0  0  0  0
  4 22  1  0  0  0  0
  5  3  1  0  0  0  0
  6  2  1  1  0  0  0
  6 11  1  0  0  0  0
  7  4  2  0  0  0  0
  8  9  1  0  0  0  0
  9  2  2  0  0  0  0
  9  7  1  0  0  0  0
 10  5  1  6  0  0  0
 10  6  1  0  0  0  0
 11 12  1  6  0  0  0
 11 15  1  0  0  0  0
 12 13  1  0  0  0  0
 13 14  1  0  0  0  0
 14 16  1  1  0  0  0
 15 14  1  0  0  0  0
 16 19  2  0  0  0  0
 16 20  1  0  0  0  0
 17 21  2  0  0  0  0
 19 17  1  0  0  0  0
 20 18  1  1  0  0  0
 20 21  1  0  0  0  0
 22 26  1  0  0  0  0
 25 26  1  0  0  0  0
 26 24  1  0  0  0  0
 26 23  1  0  0  0  0
 28 27  1  0  0  0  0
 29 28  2  0  0  0  0
M  END
>  <MODEL>
4

>  <REMARK>
 VINA RESULT:      -6.6      3.268      6.389
  Name = 
  6 active torsions:
  status: ('A' for Active; 'I' for Inactive)
    1  A    between atoms: C_1  and  C_25
    2  A    between atoms: C_6  and  C_23
    3  A    between atoms: C_7  and  O_10
    4  A    between atoms: O_10  and  C_27
    5  A    between atoms: C_11  and  N_18
    6  A    between atoms: C_14  and  C_23
                            x       y       z     vdW  Elec       q    Type
                         _______ _______ _______ _____ _____    ______ ____

>  <TORSDO>
F 6

$$$$
=
 OpenBabel11042416523D

 29 33  0  0  1  0  0  0  0  0999 V2000
  183.9670  178.1320  140.5140 S   0  0  0  0  0  0  0  0  0  0  0  0
  184.5760  178.4900  142.0450 C   0  0  0  0  0  0  0  0  0  0  0  0
  184.9800  179.1200  144.8240 C   0  0  1  0  0  0  0  0  0  0  0  0
  182.3490  178.1550  140.9730 C   0  0  0  0  0  0  0  0  0  0  0  0
  185.7750  180.3210  144.3730 C   0  0  0  0  0  2  0  0  0  0  0  0
  186.0120  178.7720  142.4160 C   0  0  1  0  0  3  0  0  0  0  0  0
  182.2470  178.4710  142.3260 C   0  0  0  0  0  3  0  0  0  0  0  0
  183.6840  179.0210  144.2350 O   0  0  0  0  0  0  0  0  0  0  0  0
  183.5060  178.6660  142.9040 C   0  0  0  0  0  0  0  0  0  0  0  0
  186.2210  178.9190  143.9480 C   0  0  2  0  0  3  0  0  0  0  0  0
  186.9100  177.7530  141.8450 N   0  0  1  0  0  0  0  0  0  0  0  0
  188.2300  178.2240  141.9770 N   0  0  0  0  0  2  0  0  0  0  0  0
  189.0650  177.0480  142.1120 C   0  0  0  0  0  2  0  0  0  0  0  0
  188.1380  175.9620  142.5650 C   0  0  1  0  0  3  0  0  0  0  0  0
  186.8240  176.5720  142.6130 N   0  0  0  0  0  2  0  0  0  0  0  0
  188.1490  174.8100  141.6040 C   0  0  0  0  0  0  0  0  0  0  0  0
  188.1910  173.5550  139.7690 C   0  0  0  0  0  3  0  0  0  0  0  0
  189.2260  173.0120  142.7940 N   0  0  0  0  0  1  0  0  0  0  0  0
  188.2210  174.9150  140.2860 C   0  0  0  0  0  3  0  0  0  0  0  0
  188.0610  173.3790  142.0070 C   0  0  2  0  0  3  0  0  0  0  0  0
  188.1040  172.6910  140.7260 N   0  0  0  0  0  0  0  0  0  0  0  0
  181.2880  177.8960  140.0950 O   0  0  0  0  0  0  0  0  0  0  0  0
  179.4260  177.9170  141.6510 C   0  0  0  0  0  1  0  0  0  0  0  0
  179.0670  177.7060  139.2250 C   0  0  0  0  0  1  0  0  0  0  0  0
  179.8480  179.8500  140.1450 C   0  0  0  0  0  1  0  0  0  0  0  0
  179.9420  178.3400  140.2870 C   0  0  0  0  0  0  0  0  0  0  0  0
  185.1080  178.8310  146.3070 C   0  0  0  0  0  2  0  0  0  0  0  0
  184.5700  177.4750  146.6160 C   0  0  0  0  0  3  0  0  0  0  0  0
  185.1910  176.4320  146.2070 N   0  0  0  0  0  2  0  0  0  0  0  0
  1  4  1  0  0  0  0
  1  2  1  0  0  0  0
  2  9  2  0  0  0  0
  3 27  1  1  0  0  0
  4  7  2  0  0  0  0
  5  3  1  0  0  0  0
  6  2  1  1  0  0  0
  6 10  1  0  0  0  0
  7  9  1  0  0  0  0
  8  3  1  0  0  0  0
  9  8  1  0  0  0  0
 10  5  1  6  0  0  0
 10  3  1  0  0  0  0
 11 12  1  1  0  0  0
 11  6  1  0  0  0  0
 11 15  1  0  0  0  0
 12 13  1  0  0  0  0
 13 14  1  0  0  0  0
 14 16  1  6  0  0  0
 14 15  1  0  0  0  0
 16 20  1  0  0  0  0
 17 19  1  0  0  0  0
 17 21  2  0  0  0  0
 19 16  2  0  0  0  0
 20 18  1  1  0  0  0
 21 20  1  0  0  0  0
 22 26  1  0  0  0  0
 22  4  1  0  0  0  0
 24 26  1  0  0  0  0
 25 26  1  0  0  0  0
 26 23  1  0  0  0  0
 27 28  1  0  0  0  0
 29 28  2  0  0  0  0
M  END
>  <MODEL>
5

>  <REMARK>
 VINA RESULT:      -6.5      4.205      7.343
  Name = 
  6 active torsions:
  status: ('A' for Active; 'I' for Inactive)
    1  A    between atoms: C_1  and  C_25
    2  A    between atoms: C_6  and  C_23
    3  A    between atoms: C_7  and  O_10
    4  A    between atoms: O_10  and  C_27
    5  A    between atoms: C_11  and  N_18
    6  A    between atoms: C_14  and  C_23
                            x       y       z     vdW  Elec       q    Type
                         _______ _______ _______ _____ _____    ______ ____

>  <TORSDO>
F 6

$$$$
=
 OpenBabel11042416523D

 29 33  0  0  1  0  0  0  0  0999 V2000
  189.7000  172.7170  144.3270 S   0  0  0  0  0  0  0  0  0  0  0  0
  190.4400  173.8860  145.2910 C   0  0  0  0  0  0  0  0  0  0  0  0
  192.2560  175.5910  146.7340 C   0  0  1  0  0  0  0  0  0  0  0  0
  191.1330  172.0130  143.7960 C   0  0  0  0  0  0  0  0  0  0  0  0
  191.5140  175.2130  147.9930 C   0  0  0  0  0  2  0  0  0  0  0  0
  189.7670  174.8580  146.2300 C   0  0  1  0  0  3  0  0  0  0  0  0
  192.2200  172.6570  144.3830 C   0  0  0  0  0  3  0  0  0  0  0  0
  192.6950  174.4770  145.9560 O   0  0  0  0  0  0  0  0  0  0  0  0
  191.8090  173.6950  145.2260 C   0  0  0  0  0  0  0  0  0  0  0  0
  190.7570  175.8850  146.8450 C   0  0  2  0  0  3  0  0  0  0  0  0
  188.6370  175.5300  145.5650 N   0  0  1  0  0  0  0  0  0  0  0  0
  187.8770  176.1750  146.5600 N   0  0  0  0  0  2  0  0  0  0  0  0
  187.2840  177.3330  145.9250 C   0  0  0  0  0  2  0  0  0  0  0  0
  188.1340  177.5950  144.7200 C   0  0  1  0  0  3  0  0  0  0  0  0
  189.1300  176.5420  144.7140 N   0  0  0  0  0  2  0  0  0  0  0  0
  187.3160  177.5530  143.4640 C   0  0  0  0  0  0  0  0  0  0  0  0
  185.6460  177.5990  141.9960 C   0  0  0  0  0  3  0  0  0  0  0  0
  188.7950  178.3250  141.7250 N   0  0  0  0  0  1  0  0  0  0  0  0
  186.0060  177.7400  143.3990 C   0  0  0  0  0  3  0  0  0  0  0  0
  187.8680  177.2740  142.1090 C   0  0  2  0  0  3  0  0  0  0  0  0
  186.6830  177.3410  141.2690 N   0  0  0  0  0  0  0  0  0  0  0  0
  191.1850  170.9360  142.9020 O   0  0  0  0  0  0  0  0  0  0  0  0
  191.1560  172.3670  140.9430 C   0  0  0  0  0  1  0  0  0  0  0  0
  190.8880  169.9280  140.7530 C   0  0  0  0  0  1  0  0  0  0  0  0
  193.0780  170.8530  141.3850 C   0  0  0  0  0  1  0  0  0  0  0  0
  191.5770  171.0310  141.5300 C   0  0  0  0  0  0  0  0  0  0  0  0
  193.2190  176.7470  146.9210 C   0  0  0  0  0  2  0  0  0  0  0  0
  194.5170  176.4500  146.2500 C   0  0  0  0  0  3  0  0  0  0  0  0
  194.8580  177.1030  145.2020 N   0  0  0  0  0  2  0  0  0  0  0  0
  1  2  1  0  0  0  0
  3 10  1  0  0  0  0
  3 27  1  1  0  0  0
  3  5  1  0  0  0  0
  4  1  1  0  0  0  0
  4  7  2  0  0  0  0
  6  2  1  6  0  0  0
  6 10  1  0  0  0  0
  7  9  1  0  0  0  0
  8  3  1  0  0  0  0
  9  2  2  0  0  0  0
  9  8  1  0  0  0  0
 10  5  1  1  0  0  0
 11 15  1  6  0  0  0
 11  6  1  0  0  0  0
 11 12  1  0  0  0  0
 13 12  1  0  0  0  0
 14 16  1  6  0  0  0
 14 13  1  0  0  0  0
 15 14  1  0  0  0  0
 17 19  1  0  0  0  0
 19 16  2  0  0  0  0
 20 18  1  6  0  0  0
 20 16  1  0  0  0  0
 21 17  2  0  0  0  0
 21 20  1  0  0  0  0
 22  4  1  0  0  0  0
 23 26  1  0  0  0  0
 24 26  1  0  0  0  0
 25 26  1  0  0  0  0
 26 22  1  0  0  0  0
 28 27  1  0  0  0  0
 29 28  2  0  0  0  0
M  END
>  <MODEL>
6

>  <REMARK>
 VINA RESULT:      -6.5      3.010      7.625
  Name = 
  6 active torsions:
  status: ('A' for Active; 'I' for Inactive)
    1  A    between atoms: C_1  and  C_25
    2  A    between atoms: C_6  and  C_23
    3  A    between atoms: C_7  and  O_10
    4  A    between atoms: O_10  and  C_27
    5  A    between atoms: C_11  and  N_18
    6  A    between atoms: C_14  and  C_23
                            x       y       z     vdW  Elec       q    Type
                         _______ _______ _______ _____ _____    ______ ____

>  <TORSDO>
F 6

$$$$
=
 OpenBabel11042416523D

 29 33  0  0  1  0  0  0  0  0999 V2000
  188.5220  176.8200  144.3400 S   0  0  0  0  0  0  0  0  0  0  0  0
  188.9630  175.3210  143.7070 C   0  0  0  0  0  0  0  0  0  0  0  0
  189.2530  172.8970  142.1820 C   0  0  1  0  0  0  0  0  0  0  0  0
  187.3610  177.1550  143.1700 C   0  0  0  0  0  0  0  0  0  0  0  0
  189.0050  172.1350  143.4610 C   0  0  0  0  0  2  0  0  0  0  0  0
  189.9080  174.3120  144.3160 C   0  0  1  0  0  3  0  0  0  0  0  0
  187.2720  176.0910  142.2760 C   0  0  0  0  0  3  0  0  0  0  0  0
  188.2620  173.8820  141.8870 O   0  0  0  0  0  0  0  0  0  0  0  0
  188.1700  175.0690  142.6020 C   0  0  0  0  0  0  0  0  0  0  0  0
  190.1860  173.1050  143.3780 C   0  0  2  0  0  3  0  0  0  0  0  0
  191.1590  174.9600  144.7460 N   0  0  1  0  0  0  0  0  0  0  0  0
  191.1660  174.9830  146.1540 N   0  0  0  0  0  2  0  0  0  0  0  0
  192.5580  174.9210  146.5490 C   0  0  0  0  0  2  0  0  0  0  0  0
  193.2750  174.3500  145.3640 C   0  0  1  0  0  3  0  0  0  0  0  0
  192.2560  174.1680  144.3490 N   0  0  0  0  0  2  0  0  0  0  0  0
  194.3420  175.2860  144.8790 C   0  0  0  0  0  0  0  0  0  0  0  0
  195.6910  177.0310  144.5980 C   0  0  0  0  0  3  0  0  0  0  0  0
  196.1050  173.8580  144.0660 N   0  0  0  0  0  1  0  0  0  0  0  0
  194.5910  176.4860  145.3790 C   0  0  0  0  0  3  0  0  0  0  0  0
  195.2610  174.9960  143.7430 C   0  0  2  0  0  3  0  0  0  0  0  0
  196.0720  176.2010  143.6830 N   0  0  0  0  0  0  0  0  0  0  0  0
  186.6090  178.3370  143.1370 O   0  0  0  0  0  0  0  0  0  0  0  0
  184.2120  178.2340  142.7740 C   0  0  0  0  0  1  0  0  0  0  0  0
  185.2160  179.9490  144.2250 C   0  0  0  0  0  1  0  0  0  0  0  0
  185.1950  177.6040  144.9690 C   0  0  0  0  0  1  0  0  0  0  0  0
  185.3340  178.5130  143.7590 C   0  0  0  0  0  0  0  0  0  0  0  0
  189.7460  172.0260  141.0430 C   0  0  0  0  0  2  0  0  0  0  0  0
  189.5110  172.7040  139.7370 C   0  0  0  0  0  3  0  0  0  0  0  0
  188.7340  172.1710  138.8700 N   0  0  0  0  0  2  0  0  0  0  0  0
  2  1  1  0  0  0  0
  3 27  1  6  0  0  0
  3 10  1  0  0  0  0
  3  5  1  0  0  0  0
  4  1  1  0  0  0  0
  6  2  1  6  0  0  0
  6 11  1  0  0  0  0
  7  9  1  0  0  0  0
  7  4  2  0  0  0  0
  8  3  1  0  0  0  0
  8  9  1  0  0  0  0
  9  2  2  0  0  0  0
 10  5  1  1  0  0  0
 10  6  1  0  0  0  0
 11 15  1  1  0  0  0
 11 12  1  0  0  0  0
 12 13  1  0  0  0  0
 14 16  1  6  0  0  0
 14 13  1  0  0  0  0
 15 14  1  0  0  0  0
 16 19  2  0  0  0  0
 17 19  1  0  0  0  0
 20 18  1  1  0  0  0
 20 16  1  0  0  0  0
 21 20  1  0  0  0  0
 21 17  2  0  0  0  0
 22  4  1  0  0  0  0
 22 26  1  0  0  0  0
 23 26  1  0  0  0  0
 26 24  1  0  0  0  0
 26 25  1  0  0  0  0
 28 27  1  0  0  0  0
 29 28  2  0  0  0  0
M  END
>  <MODEL>
7

>  <REMARK>
 VINA RESULT:      -6.3      1.394      1.851
  Name = 
  6 active torsions:
  status: ('A' for Active; 'I' for Inactive)
    1  A    between atoms: C_1  and  C_25
    2  A    between atoms: C_6  and  C_23
    3  A    between atoms: C_7  and  O_10
    4  A    between atoms: O_10  and  C_27
    5  A    between atoms: C_11  and  N_18
    6  A    between atoms: C_14  and  C_23
                            x       y       z     vdW  Elec       q    Type
                         _______ _______ _______ _____ _____    ______ ____

>  <TORSDO>
F 6

$$$$
=
 OpenBabel11042416523D

 29 33  0  0  1  0  0  0  0  0999 V2000
  189.2920  173.1040  143.1290 S   0  0  0  0  0  0  0  0  0  0  0  0
  190.3340  174.1010  144.0020 C   0  0  0  0  0  0  0  0  0  0  0  0
  192.5480  175.6220  145.0370 C   0  0  1  0  0  0  0  0  0  0  0  0
  190.4180  172.6810  141.9540 C   0  0  0  0  0  0  0  0  0  0  0  0
  192.3480  174.9040  146.3500 C   0  0  0  0  0  2  0  0  0  0  0  0
  190.0620  174.7720  145.3280 C   0  0  1  0  0  3  0  0  0  0  0  0
  191.6410  173.2860  142.2330 C   0  0  0  0  0  3  0  0  0  0  0  0
  192.6660  174.7550  143.9090 O   0  0  0  0  0  0  0  0  0  0  0  0
  191.5750  174.0670  143.3920 C   0  0  0  0  0  0  0  0  0  0  0  0
  191.2030  175.7330  145.7610 C   0  0  2  0  0  3  0  0  0  0  0  0
  188.7580  175.4560  145.3100 N   0  0  1  0  0  0  0  0  0  0  0  0
  188.3810  175.6920  146.6460 N   0  0  0  0  0  2  0  0  0  0  0  0
  187.5800  176.8990  146.6300 C   0  0  0  0  0  2  0  0  0  0  0  0
  187.9500  177.5960  145.3570 C   0  0  1  0  0  3  0  0  0  0  0  0
  188.9030  176.7210  144.7010 N   0  0  0  0  0  2  0  0  0  0  0  0
  186.7450  177.8080  144.4900 C   0  0  0  0  0  0  0  0  0  0  0  0
  185.0830  177.5460  143.0360 C   0  0  0  0  0  3  0  0  0  0  0  0
  185.3730  179.3800  145.6960 N   0  0  0  0  0  1  0  0  0  0  0  0
  186.2200  176.9040  143.6770 C   0  0  0  0  0  3  0  0  0  0  0  0
  185.9810  179.0840  144.4100 C   0  0  2  0  0  3  0  0  0  0  0  0
  184.9420  178.7650  143.4430 N   0  0  0  0  0  0  0  0  0  0  0  0
  190.1340  171.8360  140.8720 O   0  0  0  0  0  0  0  0  0  0  0  0
  188.2220  172.7370  139.6800 C   0  0  0  0  0  1  0  0  0  0  0  0
  189.7400  171.1120  138.6260 C   0  0  0  0  0  1  0  0  0  0  0  0
  190.5360  173.3990  139.0590 C   0  0  0  0  0  1  0  0  0  0  0  0
  189.6660  172.2750  139.5940 C   0  0  0  0  0  0  0  0  0  0  0  0
  193.5000  176.7980  145.1280 C   0  0  0  0  0  2  0  0  0  0  0  0
  194.9050  176.3160  145.2460 C   0  0  0  0  0  3  0  0  0  0  0  0
  195.6900  176.3800  144.2350 N   0  0  0  0  0  2  0  0  0  0  0  0
  1  2  1  0  0  0  0
  3 27  1  1  0  0  0
  3 10  1  0  0  0  0
  3  5  1  0  0  0  0
  4  7  2  0  0  0  0
  4  1  1  0  0  0  0
  6  2  1  6  0  0  0
  6 10  1  0  0  0  0
  7  9  1  0  0  0  0
  8  3  1  0  0  0  0
  9  8  1  0  0  0  0
  9  2  2  0  0  0  0
 10  5  1  1  0  0  0
 11 15  1  6  0  0  0
 11  6  1  0  0  0  0
 11 12  1  0  0  0  0
 13 12  1  0  0  0  0
 14 16  1  6  0  0  0
 14 13  1  0  0  0  0
 15 14  1  0  0  0  0
 17 21  2  0  0  0  0
 17 19  1  0  0  0  0
 19 16  2  0  0  0  0
 20 16  1  0  0  0  0
 20 18  1  1  0  0  0
 21 20  1  0  0  0  0
 22  4  1  0  0  0  0
 24 26  1  0  0  0  0
 25 26  1  0  0  0  0
 26 23  1  0  0  0  0
 26 22  1  0  0  0  0
 27 28  1  0  0  0  0
 29 28  2  0  0  0  0
M  END
>  <MODEL>
8

>  <REMARK>
 VINA RESULT:      -6.3      2.939      7.415
  Name = 
  6 active torsions:
  status: ('A' for Active; 'I' for Inactive)
    1  A    between atoms: C_1  and  C_25
    2  A    between atoms: C_6  and  C_23
    3  A    between atoms: C_7  and  O_10
    4  A    between atoms: O_10  and  C_27
    5  A    between atoms: C_11  and  N_18
    6  A    between atoms: C_14  and  C_23
                            x       y       z     vdW  Elec       q    Type
                         _______ _______ _______ _____ _____    ______ ____

>  <TORSDO>
F 6

$$$$
=
 OpenBabel11042416523D

 29 33  0  0  1  0  0  0  0  0999 V2000
  190.7040  174.8270  144.5590 S   0  0  0  0  0  0  0  0  0  0  0  0
  189.3510  175.5980  143.9120 C   0  0  0  0  0  0  0  0  0  0  0  0
  187.2490  177.4200  143.1730 C   0  0  1  0  0  0  0  0  0  0  0  0
  191.2280  176.1470  145.4600 C   0  0  0  0  0  0  0  0  0  0  0  0
  186.2630  176.3780  143.6460 C   0  0  0  0  0  2  0  0  0  0  0  0
  188.2640  174.9820  143.0650 C   0  0  1  0  0  3  0  0  0  0  0  0
  190.3430  177.2100  145.2990 C   0  0  0  0  0  3  0  0  0  0  0  0
  188.2550  177.7490  144.1300 O   0  0  0  0  0  0  0  0  0  0  0  0
  189.2920  176.8770  144.4370 C   0  0  0  0  0  0  0  0  0  0  0  0
  187.2510  176.0300  142.5280 C   0  0  2  0  0  3  0  0  0  0  0  0
  188.8420  174.1820  141.9720 N   0  0  1  0  0  0  0  0  0  0  0  0
  188.0480  173.0290  141.8190 N   0  0  0  0  0  2  0  0  0  0  0  0
  188.1340  172.6650  140.4190 C   0  0  0  0  0  2  0  0  0  0  0  0
  188.5640  173.9160  139.7170 C   0  0  1  0  0  3  0  0  0  0  0  0
  188.7450  174.9040  140.7630 N   0  0  0  0  0  2  0  0  0  0  0  0
  189.8460  173.7000  138.9690 C   0  0  0  0  0  0  0  0  0  0  0  0
  191.9670  173.3050  138.4280 C   0  0  0  0  0  3  0  0  0  0  0  0
  189.1860  172.7620  136.8490 N   0  0  0  0  0  1  0  0  0  0  0  0
  191.0150  173.4170  139.5230 C   0  0  0  0  0  3  0  0  0  0  0  0
  189.9830  173.7950  137.4890 C   0  0  2  0  0  3  0  0  0  0  0  0
  191.3950  173.5140  137.2880 N   0  0  0  0  0  0  0  0  0  0  0  0
  192.3860  176.1390  146.2510 O   0  0  0  0  0  0  0  0  0  0  0  0
  193.7270  176.5190  144.2650 C   0  0  0  0  0  1  0  0  0  0  0  0
  194.3370  174.7980  145.9140 C   0  0  0  0  0  1  0  0  0  0  0  0
  194.5660  177.1730  146.5120 C   0  0  0  0  0  1  0  0  0  0  0  0
  193.7220  176.1710  145.7430 C   0  0  0  0  0  0  0  0  0  0  0  0
  186.6060  178.5560  142.4020 C   0  0  0  0  0  2  0  0  0  0  0  0
  185.3970  179.0490  143.1230 C   0  0  0  0  0  3  0  0  0  0  0  0
  185.5050  179.9970  143.9770 N   0  0  0  0  0  2  0  0  0  0  0  0
  1  4  1  0  0  0  0
  2  9  2  0  0  0  0
  2  1  1  0  0  0  0
  3 27  1  6  0  0  0
  3  5  1  0  0  0  0
  3  8  1  0  0  0  0
  4 22  1  0  0  0  0
  6  2  1  6  0  0  0
  7  4  2  0  0  0  0
  8  9  1  0  0  0  0
  9  7  1  0  0  0  0
 10  6  1  0  0  0  0
 10  3  1  0  0  0  0
 10  5  1  1  0  0  0
 11 15  1  6  0  0  0
 11  6  1  0  0  0  0
 12 11  1  0  0  0  0
 13 12  1  0  0  0  0
 14 16  1  1  0  0  0
 14 13  1  0  0  0  0
 14 15  1  0  0  0  0
 16 19  2  0  0  0  0
 17 19  1  0  0  0  0
 20 18  1  6  0  0  0
 20 16  1  0  0  0  0
 21 20  1  0  0  0  0
 21 17  2  0  0  0  0
 23 26  1  0  0  0  0
 26 24  1  0  0  0  0
 26 22  1  0  0  0  0
 26 25  1  0  0  0  0
 27 28  1  0  0  0  0
 28 29  2  0  0  0  0
M  END
>  <MODEL>
9

>  <REMARK>
 VINA RESULT:      -6.3      2.988      6.716
  Name = 
  6 active torsions:
  status: ('A' for Active; 'I' for Inactive)
    1  A    between atoms: C_1  and  C_25
    2  A    between atoms: C_6  and  C_23
    3  A    between atoms: C_7  and  O_10
    4  A    between atoms: O_10  and  C_27
    5  A    between atoms: C_11  and  N_18
    6  A    between atoms: C_14  and  C_23
                            x       y       z     vdW  Elec       q    Type
                         _______ _______ _______ _____ _____    ______ ____

>  <TORSDO>
F 6

$$$$
