=
 OpenBabel11042413543D

 51 57  0  0  1  0  0  0  0  0999 V2000
  190.9980  174.8420  145.3300 C   0  0  0  0  0  2  0  0  0  0  0  0
  193.4570  175.0810  145.7070 C   0  0  1  0  0  3  0  0  0  0  0  0
  193.2240  176.5680  145.9400 C   0  0  1  0  0  3  0  0  0  0  0  0
  191.8920  176.5230  146.7120 C   0  0  2  0  0  3  0  0  0  0  0  0
  194.3220  177.1240  146.8250 C   0  0  0  0  0  1  0  0  0  0  0  0
  192.1660  174.4820  146.2590 C   0  0  1  0  0  3  0  0  0  0  0  0
  191.9420  175.2910  147.3780 O   0  0  0  0  0  0  0  0  0  0  0  0
  190.7400  176.2860  145.7310 C   0  0  1  0  0  3  0  0  0  0  0  0
  193.9290  175.9910  143.0600 S   0  0  0  0  0  0  0  0  0  0  0  0
  196.2560  176.9680  143.8200 O   0  0  0  0  0  1  0  0  0  0  0  0
  195.7470  175.9200  143.0490 C   0  0  1  0  0  0  0  0  0  0  0  0
  196.1320  174.6170  143.6550 C   0  0  0  0  0  3  0  0  0  0  0  0
  195.1710  173.9640  144.2900 C   0  0  0  0  0  0  0  0  0  0  0  0
  193.8370  174.6310  144.2820 C   0  0  1  0  0  3  0  0  0  0  0  0
  195.8380  170.1750  146.1280 C   0  0  0  0  0  3  0  0  0  0  0  0
  194.3770  171.6880  144.9570 C   0  0  0  0  0  3  0  0  0  0  0  0
  194.5940  170.4480  145.5590 C   0  0  0  0  0  3  0  0  0  0  0  0
  195.3990  172.6470  144.9260 C   0  0  0  0  0  0  0  0  0  0  0  0
  196.8250  171.1110  146.0920 N   0  0  0  0  0  0  0  0  0  0  0  0
  196.6330  172.3260  145.5110 C   0  0  0  0  0  3  0  0  0  0  0  0
  196.2400  176.0340  141.6080 C   0  0  0  0  0  2  0  0  0  0  0  0
  195.1900  175.6990  140.6520 N   0  0  0  0  0  2  0  0  0  0  0  0
  195.7120  174.6940  139.7320 C   0  0  2  0  0  3  0  0  0  0  0  0
  196.6280  175.3010  138.8670 O   0  0  0  0  0  1  0  0  0  0  0  0
  193.3180  174.3090  139.6390 C   0  0  0  0  0  2  0  0  0  0  0  0
  193.2880  172.2400  138.5080 C   0  0  2  0  0  3  0  0  0  0  0  0
  192.5970  172.9580  139.6520 C   0  0  1  0  0  3  0  0  0  0  0  0
  194.4290  172.1890  141.2660 C   0  0  0  0  0  2  0  0  0  0  0  0
  192.9150  172.2370  140.9800 C   0  0  0  0  0  2  0  0  0  0  0  0
  194.6090  174.1100  138.9560 N   0  0  0  0  0  0  0  0  0  0  0  0
  195.2580  171.8950  140.0000 C   0  0  0  0  0  2  0  0  0  0  0  0
  193.0440  170.7340  138.4430 C   0  0  0  0  0  1  0  0  0  0  0  0
  194.7250  172.6520  138.7470 C   0  0  1  0  0  3  0  0  0  0  0  0
  190.7380  177.2300  144.5360 C   0  0  0  0  0  2  0  0  0  0  0  0
  189.3290  177.4030  143.9990 C   0  0  0  0  0  2  0  0  0  0  0  0
  189.3910  177.7630  142.5250 C   0  0  0  0  0  2  0  0  0  0  0  0
  188.2070  175.8370  141.5450 N   0  0  0  0  0  0  0  0  0  0  0  0
  188.2680  177.1170  141.7800 C   0  0  0  0  0  0  0  0  0  0  0  0
  189.1540  174.8260  141.9260 C   0  0  0  0  0  0  0  0  0  0  0  0
  190.3700  174.9020  141.6000 O   0  0  0  0  0  0  0  0  0  0  0  0
  189.5740  172.4700  142.5150 C   0  0  0  0  0  1  0  0  0  0  0  0
  188.6960  173.6850  142.7690 C   0  0  0  0  0  2  0  0  0  0  0  0
  187.1350  177.9860  141.3570 C   0  0  0  0  0  2  0  0  0  0  0  0
  186.4350  178.5730  142.5720 C   0  0  0  0  0  2  0  0  0  0  0  0
  184.6270  177.9300  145.7920 N   0  0  0  0  0  0  0  0  0  0  0  0
  184.0790  178.5820  143.4970 C   0  0  0  0  0  2  0  0  0  0  0  0
  185.2270  177.7240  142.9520 C   0  0  0  0  0  3  0  0  0  0  0  0
  184.3920  179.0720  144.9110 C   0  0  0  0  0  2  0  0  0  0  0  0
  184.9090  178.4710  147.1080 C   0  0  0  0  0  1  0  0  0  0  0  0
  185.8410  177.2480  145.3490 C   0  0  0  0  0  2  0  0  0  0  0  0
  185.6260  176.6440  143.9600 C   0  0  0  0  0  2  0  0  0  0  0  0
  1  8  1  0  0  0  0
  2 14  1  6  0  0  0
  2  3  1  0  0  0  0
  2  6  1  0  0  0  0
  3  4  1  0  0  0  0
  3  5  1  1  0  0  0
  4  7  1  1  0  0  0
  6  1  1  6  0  0  0
  6  7  1  0  0  0  0
  8 34  1  6  0  0  0
  8  4  1  0  0  0  0
 11  9  1  0  0  0  0
 11 12  1  0  0  0  0
 11 10  1  1  0  0  0
 12 13  2  0  0  0  0
 13 18  1  0  0  0  0
 14  9  1  6  0  0  0
 14 13  1  0  0  0  0
 16 17  1  0  0  0  0
 17 15  2  0  0  0  0
 18 16  2  0  0  0  0
 18 20  1  0  0  0  0
 19 15  1  0  0  0  0
 20 19  2  0  0  0  0
 21 11  1  0  0  0  0
 22 21  1  0  0  0  0
 23 24  1  6  0  0  0
 23 22  1  0  0  0  0
 26 32  1  1  0  0  0
 26 33  1  0  0  0  0
 26 27  1  0  0  0  0
 27 25  1  1  0  0  0
 27 29  1  0  0  0  0
 29 28  1  0  0  0  0
 30 25  1  0  0  0  0
 30 23  1  0  0  0  0
 31 28  1  0  0  0  0
 33 30  1  0  0  0  0
 33 31  1  1  0  0  0
 35 34  1  0  0  0  0
 36 35  1  0  0  0  0
 37 38  2  0  0  0  0
 37 39  1  0  0  0  0
 38 36  1  0  0  0  0
 39 42  1  0  0  0  0
 40 39  2  0  0  0  0
 41 42  1  0  0  0  0
 43 38  1  0  0  0  0
 43 44  1  0  0  0  0
 44 47  1  0  0  0  0
 45 49  1  0  0  0  0
 46 48  1  0  0  0  0
 47 46  1  0  0  0  0
 47 51  1  0  0  0  0
 48 45  1  0  0  0  0
 50 45  1  0  0  0  0
 51 50  1  0  0  0  0
M  END
>  <MODEL>
1

>  <REMARK>
 VINA RESULT:      -7.2      0.000      0.000
  Name = 
  15 active torsions:
  status: ('A' for Active; 'I' for Inactive)
    1  A    between atoms: N_3  and  C_20
    2  A    between atoms: C_5  and  C_50
    3  A    between atoms: C_7  and  C_26
    4  A    between atoms: C_7  and  C_41
    5  A    between atoms: N_13  and  C_17
    6  A    between atoms: N_13  and  C_48
    7  A    between atoms: C_14  and  C_48
    8  A    between atoms: C_17  and  N_36
    9  A    between atoms: C_19  and  C_24
   10  A    between atoms: C_19  and  C_33
   11  A    between atoms: C_20  and  C_38
   12  A    between atoms: C_24  and  C_29
   13  A    between atoms: C_26  and  C_33
   14  A    between atoms: C_30  and  C_41
   15  A    between atoms: C_32  and  C_43
                            x       y       z     vdW  Elec       q    Type
                         _______ _______ _______ _____ _____    ______ ____

>  <TORSDO>
F 15

$$$$
=
 OpenBabel11042413543D

 51 57  0  0  1  0  0  0  0  0999 V2000
  190.3230  177.2870  146.5060 C   0  0  0  0  0  2  0  0  0  0  0  0
  188.9750  175.4930  145.4070 C   0  0  1  0  0  3  0  0  0  0  0  0
  190.1520  174.5500  145.6200 C   0  0  1  0  0  3  0  0  0  0  0  0
  190.6280  175.0100  147.0110 C   0  0  2  0  0  3  0  0  0  0  0  0
  189.6550  173.1200  145.6840 C   0  0  0  0  0  1  0  0  0  0  0  0
  189.0820  176.3930  146.6350 C   0  0  1  0  0  3  0  0  0  0  0  0
  189.4550  175.4730  147.6210 O   0  0  0  0  0  0  0  0  0  0  0  0
  191.4270  176.3090  146.8740 C   0  0  1  0  0  3  0  0  0  0  0  0
  189.7750  175.4050  142.6850 S   0  0  0  0  0  0  0  0  0  0  0  0
  188.0150  173.4960  142.2380 O   0  0  0  0  0  1  0  0  0  0  0  0
  188.2120  174.8460  141.9410 C   0  0  1  0  0  0  0  0  0  0  0  0
  187.1270  175.6590  142.5540 C   0  0  0  0  0  3  0  0  0  0  0  0
  187.4580  176.3530  143.6320 C   0  0  0  0  0  0  0  0  0  0  0  0
  188.8830  176.2280  144.0550 C   0  0  1  0  0  3  0  0  0  0  0  0
  184.6710  178.8480  145.6770 C   0  0  0  0  0  3  0  0  0  0  0  0
  186.3930  178.5840  144.0170 C   0  0  0  0  0  3  0  0  0  0  0  0
  185.4810  179.4010  144.6860 C   0  0  0  0  0  3  0  0  0  0  0  0
  186.4910  177.2230  144.3390 C   0  0  0  0  0  0  0  0  0  0  0  0
  184.7710  177.5260  145.9820 N   0  0  0  0  0  0  0  0  0  0  0  0
  185.6540  176.7130  145.3420 C   0  0  0  0  0  3  0  0  0  0  0  0
  188.2790  175.0520  140.4290 C   0  0  0  0  0  2  0  0  0  0  0  0
  188.7960  173.8690  139.7480 N   0  0  0  0  0  2  0  0  0  0  0  0
  188.7410  174.1090  138.3100 C   0  0  2  0  0  3  0  0  0  0  0  0
  187.6170  174.8900  138.0220 O   0  0  0  0  0  1  0  0  0  0  0  0
  189.1510  171.7210  138.4300 C   0  0  0  0  0  2  0  0  0  0  0  0
  189.6740  171.2890  136.1710 C   0  0  2  0  0  3  0  0  0  0  0  0
  190.1190  170.9040  137.5700 C   0  0  1  0  0  3  0  0  0  0  0  0
  191.6570  172.9470  137.6630 C   0  0  0  0  0  2  0  0  0  0  0  0
  191.5550  171.4170  137.8120 C   0  0  0  0  0  2  0  0  0  0  0  0
  188.6520  172.8280  137.5950 N   0  0  0  0  0  0  0  0  0  0  0  0
  190.8290  173.4790  136.4770 C   0  0  0  0  0  2  0  0  0  0  0  0
  190.6410  170.9090  135.0520 C   0  0  0  0  0  1  0  0  0  0  0  0
  189.4450  172.7750  136.3510 C   0  0  1  0  0  3  0  0  0  0  0  0
  192.5290  176.2530  145.8240 C   0  0  0  0  0  2  0  0  0  0  0  0
  193.8910  176.4140  146.4730 C   0  0  0  0  0  2  0  0  0  0  0  0
  194.9260  176.7230  145.4070 C   0  0  0  0  0  2  0  0  0  0  0  0
  195.8370  175.2300  143.6700 N   0  0  0  0  0  0  0  0  0  0  0  0
  195.5740  175.4650  144.9240 C   0  0  0  0  0  0  0  0  0  0  0  0
  195.5730  176.0790  142.5410 C   0  0  0  0  0  0  0  0  0  0  0  0
  196.4360  176.8920  142.1090 O   0  0  0  0  0  0  0  0  0  0  0  0
  193.5740  174.6700  142.2420 C   0  0  0  0  0  1  0  0  0  0  0  0
  194.2660  175.9600  141.8340 C   0  0  0  0  0  2  0  0  0  0  0  0
  196.0000  174.4740  145.9520 C   0  0  0  0  0  2  0  0  0  0  0  0
  195.7410  173.0580  145.4630 C   0  0  0  0  0  2  0  0  0  0  0  0
  196.9310  169.8520  143.9300 N   0  0  0  0  0  0  0  0  0  0  0  0
  197.8100  172.0930  144.3710 C   0  0  0  0  0  2  0  0  0  0  0  0
  196.9810  172.1930  145.6570 C   0  0  0  0  0  3  0  0  0  0  0  0
  197.1250  171.1790  143.3540 C   0  0  0  0  0  2  0  0  0  0  0  0
  196.2870  169.0450  142.9110 C   0  0  0  0  0  1  0  0  0  0  0  0
  195.9850  169.9630  145.0380 C   0  0  0  0  0  2  0  0  0  0  0  0
  196.5920  170.8030  146.1640 C   0  0  0  0  0  2  0  0  0  0  0  0
  1  8  1  0  0  0  0
  2 14  1  6  0  0  0
  2  3  1  0  0  0  0
  2  6  1  0  0  0  0
  3  5  1  1  0  0  0
  3  4  1  0  0  0  0
  4  7  1  1  0  0  0
  6  1  1  6  0  0  0
  6  7  1  0  0  0  0
  8 34  1  6  0  0  0
  8  4  1  0  0  0  0
 11 10  1  1  0  0  0
 11 12  1  0  0  0  0
 11  9  1  0  0  0  0
 12 13  2  0  0  0  0
 13 14  1  0  0  0  0
 13 18  1  0  0  0  0
 14  9  1  6  0  0  0
 15 19  1  0  0  0  0
 16 18  2  0  0  0  0
 16 17  1  0  0  0  0
 17 15  2  0  0  0  0
 18 20  1  0  0  0  0
 20 19  2  0  0  0  0
 21 11  1  0  0  0  0
 22 21  1  0  0  0  0
 23 24  1  1  0  0  0
 23 22  1  0  0  0  0
 26 32  1  6  0  0  0
 26 33  1  0  0  0  0
 26 27  1  0  0  0  0
 27 29  1  1  0  0  0
 27 25  1  0  0  0  0
 28 29  1  0  0  0  0
 30 23  1  0  0  0  0
 30 25  1  0  0  0  0
 31 28  1  0  0  0  0
 33 31  1  1  0  0  0
 33 30  1  0  0  0  0
 34 35  1  0  0  0  0
 36 35  1  0  0  0  0
 37 38  2  0  0  0  0
 38 36  1  0  0  0  0
 38 43  1  0  0  0  0
 39 37  1  0  0  0  0
 40 39  2  0  0  0  0
 42 41  1  0  0  0  0
 42 39  1  0  0  0  0
 44 47  1  0  0  0  0
 44 43  1  0  0  0  0
 45 50  1  0  0  0  0
 46 47  1  0  0  0  0
 47 51  1  0  0  0  0
 48 45  1  0  0  0  0
 48 46  1  0  0  0  0
 49 45  1  0  0  0  0
 50 51  1  0  0  0  0
M  END
>  <MODEL>
2

>  <REMARK>
 VINA RESULT:      -7.1      2.399      8.626
  Name = 
  15 active torsions:
  status: ('A' for Active; 'I' for Inactive)
    1  A    between atoms: N_3  and  C_20
    2  A    between atoms: C_5  and  C_50
    3  A    between atoms: C_7  and  C_26
    4  A    between atoms: C_7  and  C_41
    5  A    between atoms: N_13  and  C_17
    6  A    between atoms: N_13  and  C_48
    7  A    between atoms: C_14  and  C_48
    8  A    between atoms: C_17  and  N_36
    9  A    between atoms: C_19  and  C_24
   10  A    between atoms: C_19  and  C_33
   11  A    between atoms: C_20  and  C_38
   12  A    between atoms: C_24  and  C_29
   13  A    between atoms: C_26  and  C_33
   14  A    between atoms: C_30  and  C_41
   15  A    between atoms: C_32  and  C_43
                            x       y       z     vdW  Elec       q    Type
                         _______ _______ _______ _____ _____    ______ ____

>  <TORSDO>
F 15

$$$$
=
 OpenBabel11042413543D

 51 57  0  0  1  0  0  0  0  0999 V2000
  191.9530  177.0620  144.7120 C   0  0  0  0  0  2  0  0  0  0  0  0
  189.8750  175.6780  144.8120 C   0  0  1  0  0  3  0  0  0  0  0  0
  190.4480  175.0000  146.0500 C   0  0  1  0  0  3  0  0  0  0  0  0
  191.1220  176.2020  146.7380 C   0  0  2  0  0  3  0  0  0  0  0  0
  189.3180  174.4710  146.9110 C   0  0  0  0  0  1  0  0  0  0  0  0
  190.4370  177.0900  144.9520 C   0  0  1  0  0  3  0  0  0  0  0  0
  190.3380  177.2910  146.3330 O   0  0  0  0  0  0  0  0  0  0  0  0
  192.4490  176.5130  146.0400 C   0  0  1  0  0  3  0  0  0  0  0  0
  191.1530  173.4930  143.5270 S   0  0  0  0  0  0  0  0  0  0  0  0
  189.3030  171.8690  144.4670 O   0  0  0  0  0  1  0  0  0  0  0  0
  189.7030  172.4300  143.2530 C   0  0  1  0  0  0  0  0  0  0  0  0
  188.6210  173.3030  142.7220 C   0  0  0  0  0  3  0  0  0  0  0  0
  188.8220  174.6070  142.8280 C   0  0  0  0  0  0  0  0  0  0  0  0
  190.1200  175.0020  143.4480 C   0  0  1  0  0  3  0  0  0  0  0  0
  186.0120  177.4640  141.3730 C   0  0  0  0  0  3  0  0  0  0  0  0
  186.7810  176.0200  143.1370 C   0  0  0  0  0  3  0  0  0  0  0  0
  185.8600  176.9540  142.6620 C   0  0  0  0  0  3  0  0  0  0  0  0
  187.8450  175.6000  142.3270 C   0  0  0  0  0  0  0  0  0  0  0  0
  187.0480  177.0530  140.5940 N   0  0  0  0  0  0  0  0  0  0  0  0
  187.9550  176.1420  141.0380 C   0  0  0  0  0  3  0  0  0  0  0  0
  190.0730  171.3310  142.2590 C   0  0  0  0  0  2  0  0  0  0  0  0
  189.8700  171.7630  140.8790 N   0  0  0  0  0  2  0  0  0  0  0  0
  190.9130  171.1640  140.0540 C   0  0  2  0  0  3  0  0  0  0  0  0
  192.0000  170.8270  140.8670 O   0  0  0  0  0  1  0  0  0  0  0  0
  190.1840  172.8030  138.4200 C   0  0  0  0  0  2  0  0  0  0  0  0
  191.8510  172.5040  136.7790 C   0  0  2  0  0  3  0  0  0  0  0  0
  190.3560  172.7340  136.9000 C   0  0  1  0  0  3  0  0  0  0  0  0
  189.9680  170.2160  137.1420 C   0  0  0  0  0  2  0  0  0  0  0  0
  189.6000  171.4980  136.3690 C   0  0  0  0  0  2  0  0  0  0  0  0
  191.3420  172.1200  139.0230 N   0  0  0  0  0  0  0  0  0  0  0  0
  191.4740  170.1320  137.4580 C   0  0  0  0  0  2  0  0  0  0  0  0
  192.3310  172.0570  135.4000 C   0  0  0  0  0  1  0  0  0  0  0  0
  192.0700  171.5050  137.8950 C   0  0  1  0  0  3  0  0  0  0  0  0
  193.3580  175.3030  145.8660 C   0  0  0  0  0  2  0  0  0  0  0  0
  194.8080  175.7380  145.7650 C   0  0  0  0  0  2  0  0  0  0  0  0
  195.7110  174.5790  146.1490 C   0  0  0  0  0  2  0  0  0  0  0  0
  196.3730  172.6780  144.7270 N   0  0  0  0  0  0  0  0  0  0  0  0
  196.3220  173.9640  144.9310 C   0  0  0  0  0  0  0  0  0  0  0  0
  195.8850  171.6310  145.5810 C   0  0  0  0  0  0  0  0  0  0  0  0
  196.6630  170.9470  146.2990 O   0  0  0  0  0  0  0  0  0  0  0  0
  193.9090  170.8840  144.3110 C   0  0  0  0  0  1  0  0  0  0  0  0
  194.4170  171.3810  145.6550 C   0  0  0  0  0  2  0  0  0  0  0  0
  196.8250  174.8860  143.8750 C   0  0  0  0  0  2  0  0  0  0  0  0
  196.3920  174.4040  142.5000 C   0  0  0  0  0  2  0  0  0  0  0  0
  193.9530  174.7410  139.6740 N   0  0  0  0  0  0  0  0  0  0  0  0
  194.3940  173.1970  141.5220 C   0  0  0  0  0  2  0  0  0  0  0  0
  194.8720  174.3540  142.4080 C   0  0  0  0  0  3  0  0  0  0  0  0
  194.6420  173.5070  140.0450 C   0  0  0  0  0  2  0  0  0  0  0  0
  194.2280  174.9640  138.2670 C   0  0  0  0  0  1  0  0  0  0  0  0
  194.5670  175.8490  140.4030 C   0  0  0  0  0  2  0  0  0  0  0  0
  194.3200  175.6890  141.9040 C   0  0  0  0  0  2  0  0  0  0  0  0
  1  8  1  0  0  0  0
  2 14  1  6  0  0  0
  2  6  1  0  0  0  0
  2  3  1  0  0  0  0
  3  4  1  0  0  0  0
  3  5  1  1  0  0  0
  4  7  1  6  0  0  0
  6  1  1  1  0  0  0
  6  7  1  0  0  0  0
  8 34  1  6  0  0  0
  8  4  1  0  0  0  0
 11  9  1  0  0  0  0
 11 10  1  1  0  0  0
 12 13  2  0  0  0  0
 12 11  1  0  0  0  0
 14 13  1  1  0  0  0
 14  9  1  0  0  0  0
 15 17  1  0  0  0  0
 17 16  2  0  0  0  0
 18 13  1  0  0  0  0
 18 16  1  0  0  0  0
 19 20  1  0  0  0  0
 19 15  2  0  0  0  0
 20 18  2  0  0  0  0
 21 11  1  0  0  0  0
 22 21  1  0  0  0  0
 23 24  1  1  0  0  0
 23 22  1  0  0  0  0
 25 30  1  0  0  0  0
 26 32  1  6  0  0  0
 26 27  1  0  0  0  0
 26 33  1  0  0  0  0
 27 29  1  1  0  0  0
 27 25  1  0  0  0  0
 28 31  1  0  0  0  0
 29 28  1  0  0  0  0
 30 23  1  0  0  0  0
 33 31  1  6  0  0  0
 33 30  1  0  0  0  0
 35 34  1  0  0  0  0
 35 36  1  0  0  0  0
 37 38  2  0  0  0  0
 37 39  1  0  0  0  0
 38 36  1  0  0  0  0
 39 42  1  0  0  0  0
 39 40  2  0  0  0  0
 41 42  1  0  0  0  0
 43 38  1  0  0  0  0
 44 43  1  0  0  0  0
 45 48  1  0  0  0  0
 45 50  1  0  0  0  0
 46 47  1  0  0  0  0
 47 44  1  0  0  0  0
 48 46  1  0  0  0  0
 49 45  1  0  0  0  0
 50 51  1  0  0  0  0
 51 47  1  0  0  0  0
M  END
>  <MODEL>
3

>  <REMARK>
 VINA RESULT:      -7.0      2.400      7.717
  Name = 
  15 active torsions:
  status: ('A' for Active; 'I' for Inactive)
    1  A    between atoms: N_3  and  C_20
    2  A    between atoms: C_5  and  C_50
    3  A    between atoms: C_7  and  C_26
    4  A    between atoms: C_7  and  C_41
    5  A    between atoms: N_13  and  C_17
    6  A    between atoms: N_13  and  C_48
    7  A    between atoms: C_14  and  C_48
    8  A    between atoms: C_17  and  N_36
    9  A    between atoms: C_19  and  C_24
   10  A    between atoms: C_19  and  C_33
   11  A    between atoms: C_20  and  C_38
   12  A    between atoms: C_24  and  C_29
   13  A    between atoms: C_26  and  C_33
   14  A    between atoms: C_30  and  C_41
   15  A    between atoms: C_32  and  C_43
                            x       y       z     vdW  Elec       q    Type
                         _______ _______ _______ _____ _____    ______ ____

>  <TORSDO>
F 15

$$$$
=
 OpenBabel11042413543D

 51 57  0  0  1  0  0  0  0  0999 V2000
  191.1650  174.6090  145.2240 C   0  0  0  0  0  2  0  0  0  0  0  0
  193.6240  174.8770  145.5800 C   0  0  1  0  0  3  0  0  0  0  0  0
  193.3910  176.3770  145.6980 C   0  0  1  0  0  3  0  0  0  0  0  0
  192.0590  176.3910  146.4720 C   0  0  2  0  0  3  0  0  0  0  0  0
  194.4900  176.9990  146.5370 C   0  0  0  0  0  1  0  0  0  0  0  0
  192.3330  174.3210  146.1770 C   0  0  1  0  0  3  0  0  0  0  0  0
  192.1110  175.2150  147.2310 O   0  0  0  0  0  0  0  0  0  0  0  0
  190.9070  176.0790  145.5130 C   0  0  1  0  0  3  0  0  0  0  0  0
  194.2250  175.5950  142.9000 S   0  0  0  0  0  0  0  0  0  0  0  0
  196.5990  176.4420  143.6690 O   0  0  0  0  0  1  0  0  0  0  0  0
  196.0330  175.3910  142.9440 C   0  0  1  0  0  0  0  0  0  0  0  0
  196.3050  174.1010  143.6330 C   0  0  0  0  0  3  0  0  0  0  0  0
  195.2840  173.5580  144.2760 C   0  0  0  0  0  0  0  0  0  0  0  0
  194.0030  174.3190  144.1930 C   0  0  1  0  0  3  0  0  0  0  0  0
  195.5990  169.8350  146.3300 C   0  0  0  0  0  3  0  0  0  0  0  0
  196.5890  171.9180  145.6420 C   0  0  0  0  0  3  0  0  0  0  0  0
  196.6930  170.7000  146.3140 C   0  0  0  0  0  3  0  0  0  0  0  0
  195.3970  172.2670  144.9910 C   0  0  0  0  0  0  0  0  0  0  0  0
  194.4460  170.1820  145.6980 N   0  0  0  0  0  0  0  0  0  0  0  0
  194.3250  171.3640  145.0370 C   0  0  0  0  0  3  0  0  0  0  0  0
  196.5670  175.3860  141.5140 C   0  0  0  0  0  2  0  0  0  0  0  0
  195.8980  174.3810  140.6930 N   0  0  0  0  0  2  0  0  0  0  0  0
  196.1490  174.6940  139.2910 C   0  0  2  0  0  3  0  0  0  0  0  0
  197.2090  175.6020  139.2100 O   0  0  0  0  0  1  0  0  0  0  0  0
  193.7270  174.6060  139.1710 C   0  0  0  0  0  2  0  0  0  0  0  0
  193.4110  175.2760  136.9320 C   0  0  2  0  0  3  0  0  0  0  0  0
  192.8730  174.2800  137.9420 C   0  0  1  0  0  3  0  0  0  0  0  0
  194.7150  172.6180  137.3140 C   0  0  0  0  0  2  0  0  0  0  0  0
  193.1990  172.8450  137.4750 C   0  0  0  0  0  2  0  0  0  0  0  0
  194.9440  175.2840  138.6900 N   0  0  0  0  0  0  0  0  0  0  0  0
  195.4260  173.8270  136.6750 C   0  0  0  0  0  2  0  0  0  0  0  0
  193.0090  175.0140  135.4820 C   0  0  0  0  0  1  0  0  0  0  0  0
  194.8950  175.1880  137.2170 C   0  0  1  0  0  3  0  0  0  0  0  0
  190.9040  176.9280  144.2490 C   0  0  0  0  0  2  0  0  0  0  0  0
  189.7960  177.9640  144.3080 C   0  0  0  0  0  2  0  0  0  0  0  0
  188.4910  177.2860  144.6860 C   0  0  0  0  0  2  0  0  0  0  0  0
  186.3180  177.1810  143.5290 N   0  0  0  0  0  0  0  0  0  0  0  0
  187.6190  177.1190  143.4840 C   0  0  0  0  0  0  0  0  0  0  0  0
  185.4860  177.4060  144.6790 C   0  0  0  0  0  0  0  0  0  0  0  0
  185.5020  176.6260  145.6700 O   0  0  0  0  0  0  0  0  0  0  0  0
  185.4060  179.8310  144.2470 C   0  0  0  0  0  1  0  0  0  0  0  0
  184.6200  178.6190  144.7200 C   0  0  0  0  0  2  0  0  0  0  0  0
  188.2910  176.9480  142.1660 C   0  0  0  0  0  2  0  0  0  0  0  0
  187.8930  175.6230  141.5360 C   0  0  0  0  0  2  0  0  0  0  0  0
  189.5890  172.5280  140.2740 N   0  0  0  0  0  0  0  0  0  0  0  0
  190.0920  174.3940  141.7770 C   0  0  0  0  0  2  0  0  0  0  0  0
  188.6240  174.4710  142.2140 C   0  0  0  0  0  3  0  0  0  0  0  0
  190.2060  173.8500  140.3520 C   0  0  0  0  0  2  0  0  0  0  0  0
  189.7410  172.0780  138.9030 C   0  0  0  0  0  1  0  0  0  0  0  0
  188.1550  172.6730  140.5120 C   0  0  0  0  0  2  0  0  0  0  0  0
  187.9060  173.1460  141.9450 C   0  0  0  0  0  2  0  0  0  0  0  0
  1  8  1  0  0  0  0
  2 14  1  6  0  0  0
  2  3  1  0  0  0  0
  2  6  1  0  0  0  0
  3  4  1  0  0  0  0
  3  5  1  1  0  0  0
  4  7  1  1  0  0  0
  6  1  1  6  0  0  0
  6  7  1  0  0  0  0
  8 34  1  6  0  0  0
  8  4  1  0  0  0  0
  9 11  1  0  0  0  0
 11 12  1  0  0  0  0
 11 10  1  1  0  0  0
 12 13  2  0  0  0  0
 13 18  1  0  0  0  0
 14  9  1  6  0  0  0
 14 13  1  0  0  0  0
 16 17  2  0  0  0  0
 17 15  1  0  0  0  0
 18 20  2  0  0  0  0
 18 16  1  0  0  0  0
 19 15  2  0  0  0  0
 20 19  1  0  0  0  0
 21 11  1  0  0  0  0
 22 21  1  0  0  0  0
 23 24  1  1  0  0  0
 23 22  1  0  0  0  0
 26 32  1  6  0  0  0
 26 33  1  0  0  0  0
 26 27  1  0  0  0  0
 27 29  1  6  0  0  0
 27 25  1  0  0  0  0
 28 29  1  0  0  0  0
 30 25  1  0  0  0  0
 30 23  1  0  0  0  0
 31 28  1  0  0  0  0
 33 31  1  1  0  0  0
 33 30  1  0  0  0  0
 34 35  1  0  0  0  0
 35 36  1  0  0  0  0
 37 39  1  0  0  0  0
 38 37  2  0  0  0  0
 38 36  1  0  0  0  0
 39 42  1  0  0  0  0
 39 40  2  0  0  0  0
 41 42  1  0  0  0  0
 43 38  1  0  0  0  0
 44 43  1  0  0  0  0
 44 47  1  0  0  0  0
 45 48  1  0  0  0  0
 45 50  1  0  0  0  0
 46 47  1  0  0  0  0
 48 46  1  0  0  0  0
 49 45  1  0  0  0  0
 50 51  1  0  0  0  0
 51 47  1  0  0  0  0
M  END
>  <MODEL>
4

>  <REMARK>
 VINA RESULT:      -6.9      1.782      3.962
  Name = 
  15 active torsions:
  status: ('A' for Active; 'I' for Inactive)
    1  A    between atoms: N_3  and  C_20
    2  A    between atoms: C_5  and  C_50
    3  A    between atoms: C_7  and  C_26
    4  A    between atoms: C_7  and  C_41
    5  A    between atoms: N_13  and  C_17
    6  A    between atoms: N_13  and  C_48
    7  A    between atoms: C_14  and  C_48
    8  A    between atoms: C_17  and  N_36
    9  A    between atoms: C_19  and  C_24
   10  A    between atoms: C_19  and  C_33
   11  A    between atoms: C_20  and  C_38
   12  A    between atoms: C_24  and  C_29
   13  A    between atoms: C_26  and  C_33
   14  A    between atoms: C_30  and  C_41
   15  A    between atoms: C_32  and  C_43
                            x       y       z     vdW  Elec       q    Type
                         _______ _______ _______ _____ _____    ______ ____

>  <TORSDO>
F 15

$$$$
=
 OpenBabel11042413543D

 51 57  0  0  1  0  0  0  0  0999 V2000
  190.4490  175.2130  145.2080 C   0  0  0  0  0  2  0  0  0  0  0  0
  192.9270  175.1130  145.5170 C   0  0  1  0  0  3  0  0  0  0  0  0
  192.8870  176.5860  145.8980 C   0  0  1  0  0  3  0  0  0  0  0  0
  191.5790  176.6280  146.7110 C   0  0  2  0  0  3  0  0  0  0  0  0
  194.0680  176.9140  146.7920 C   0  0  0  0  0  1  0  0  0  0  0  0
  191.5850  174.6230  146.0560 C   0  0  1  0  0  3  0  0  0  0  0  0
  191.4920  175.3390  147.2540 O   0  0  0  0  0  0  0  0  0  0  0  0
  190.3840  176.6300  145.7540 C   0  0  1  0  0  3  0  0  0  0  0  0
  193.5470  176.2110  142.9730 S   0  0  0  0  0  0  0  0  0  0  0  0
  196.0160  176.6600  143.7790 O   0  0  0  0  0  1  0  0  0  0  0  0
  195.3220  175.8150  142.9110 C   0  0  1  0  0  0  0  0  0  0  0  0
  195.4650  174.4040  143.3620 C   0  0  0  0  0  3  0  0  0  0  0  0
  194.4040  173.8690  143.9460 C   0  0  0  0  0  0  0  0  0  0  0  0
  193.2140  174.7630  144.0420 C   0  0  1  0  0  3  0  0  0  0  0  0
  194.3530  169.8370  145.3290 C   0  0  0  0  0  3  0  0  0  0  0  0
  195.4270  171.9880  145.2380 C   0  0  0  0  0  3  0  0  0  0  0  0
  195.4120  170.6680  145.6910 C   0  0  0  0  0  3  0  0  0  0  0  0
  194.3900  172.4700  144.4290 C   0  0  0  0  0  0  0  0  0  0  0  0
  193.3490  170.3130  144.5450 N   0  0  0  0  0  0  0  0  0  0  0  0
  193.3460  171.5950  144.0930 C   0  0  0  0  0  3  0  0  0  0  0  0
  195.8220  175.9980  141.4800 C   0  0  0  0  0  2  0  0  0  0  0  0
  195.0200  175.2350  140.5280 N   0  0  0  0  0  2  0  0  0  0  0  0
  195.9250  174.5060  139.6480 C   0  0  2  0  0  3  0  0  0  0  0  0
  196.2010  175.2930  138.5250 O   0  0  0  0  0  1  0  0  0  0  0  0
  194.4920  172.6650  140.3150 C   0  0  0  0  0  2  0  0  0  0  0  0
  195.4640  170.9220  139.0590 C   0  0  2  0  0  3  0  0  0  0  0  0
  194.8770  171.1880  140.4330 C   0  0  1  0  0  3  0  0  0  0  0  0
  197.1490  172.0230  141.2630 C   0  0  0  0  0  2  0  0  0  0  0  0
  195.9820  171.0450  141.5010 C   0  0  0  0  0  2  0  0  0  0  0  0
  195.3010  173.2440  139.2270 N   0  0  0  0  0  0  0  0  0  0  0  0
  197.5180  172.1470  139.7720 C   0  0  0  0  0  2  0  0  0  0  0  0
  196.2550  169.6230  138.9290 C   0  0  0  0  0  1  0  0  0  0  0  0
  196.2640  172.1900  138.8480 C   0  0  1  0  0  3  0  0  0  0  0  0
  190.4700  177.6810  144.6550 C   0  0  0  0  0  2  0  0  0  0  0  0
  190.1730  177.0610  143.3030 C   0  0  0  0  0  2  0  0  0  0  0  0
  188.8100  177.5260  142.8210 C   0  0  0  0  0  2  0  0  0  0  0  0
  186.7970  176.1490  143.1710 N   0  0  0  0  0  0  0  0  0  0  0  0
  187.9220  176.3550  142.5470 C   0  0  0  0  0  0  0  0  0  0  0  0
  186.2010  176.9530  144.2020 C   0  0  0  0  0  0  0  0  0  0  0  0
  186.2700  176.6260  145.4190 O   0  0  0  0  0  0  0  0  0  0  0  0
  184.4730  177.9650  142.7660 C   0  0  0  0  0  1  0  0  0  0  0  0
  185.5280  178.2290  143.8280 C   0  0  0  0  0  2  0  0  0  0  0  0
  188.3230  175.4310  141.4510 C   0  0  0  0  0  2  0  0  0  0  0  0
  188.4310  174.0070  141.9720 C   0  0  0  0  0  2  0  0  0  0  0  0
  191.0300  171.5400  140.8730 N   0  0  0  0  0  0  0  0  0  0  0  0
  190.8670  173.9460  141.2870 C   0  0  0  0  0  2  0  0  0  0  0  0
  189.8570  173.7090  142.4180 C   0  0  0  0  0  3  0  0  0  0  0  0
  190.7810  172.8330  140.2420 C   0  0  0  0  0  2  0  0  0  0  0  0
  190.9390  170.5410  139.8230 C   0  0  0  0  0  1  0  0  0  0  0  0
  189.9410  171.2660  141.8080 C   0  0  0  0  0  2  0  0  0  0  0  0
  189.9660  172.2800  142.9530 C   0  0  0  0  0  2  0  0  0  0  0  0
  1  8  1  0  0  0  0
  2 14  1  6  0  0  0
  2  3  1  0  0  0  0
  2  6  1  0  0  0  0
  3  4  1  0  0  0  0
  3  5  1  1  0  0  0
  4  7  1  1  0  0  0
  6  1  1  6  0  0  0
  6  7  1  0  0  0  0
  8 34  1  6  0  0  0
  8  4  1  0  0  0  0
 11  9  1  0  0  0  0
 11 12  1  0  0  0  0
 11 10  1  1  0  0  0
 12 13  2  0  0  0  0
 13 14  1  0  0  0  0
 13 18  1  0  0  0  0
 14  9  1  6  0  0  0
 15 17  1  0  0  0  0
 16 17  2  0  0  0  0
 18 16  1  0  0  0  0
 19 15  2  0  0  0  0
 20 18  2  0  0  0  0
 20 19  1  0  0  0  0
 21 11  1  0  0  0  0
 22 21  1  0  0  0  0
 23 24  1  6  0  0  0
 23 22  1  0  0  0  0
 26 32  1  1  0  0  0
 26 27  1  0  0  0  0
 27 25  1  6  0  0  0
 27 29  1  0  0  0  0
 28 29  1  0  0  0  0
 30 23  1  0  0  0  0
 30 25  1  0  0  0  0
 31 28  1  0  0  0  0
 33 26  1  0  0  0  0
 33 30  1  0  0  0  0
 33 31  1  1  0  0  0
 35 34  1  0  0  0  0
 36 35  1  0  0  0  0
 37 39  1  0  0  0  0
 38 36  1  0  0  0  0
 38 37  2  0  0  0  0
 39 40  2  0  0  0  0
 41 42  1  0  0  0  0
 42 39  1  0  0  0  0
 43 44  1  0  0  0  0
 43 38  1  0  0  0  0
 44 47  1  0  0  0  0
 45 50  1  0  0  0  0
 46 47  1  0  0  0  0
 47 51  1  0  0  0  0
 48 45  1  0  0  0  0
 48 46  1  0  0  0  0
 49 45  1  0  0  0  0
 50 51  1  0  0  0  0
M  END
>  <MODEL>
5

>  <REMARK>
 VINA RESULT:      -6.8      1.665      4.097
  Name = 
  15 active torsions:
  status: ('A' for Active; 'I' for Inactive)
    1  A    between atoms: N_3  and  C_20
    2  A    between atoms: C_5  and  C_50
    3  A    between atoms: C_7  and  C_26
    4  A    between atoms: C_7  and  C_41
    5  A    between atoms: N_13  and  C_17
    6  A    between atoms: N_13  and  C_48
    7  A    between atoms: C_14  and  C_48
    8  A    between atoms: C_17  and  N_36
    9  A    between atoms: C_19  and  C_24
   10  A    between atoms: C_19  and  C_33
   11  A    between atoms: C_20  and  C_38
   12  A    between atoms: C_24  and  C_29
   13  A    between atoms: C_26  and  C_33
   14  A    between atoms: C_30  and  C_41
   15  A    between atoms: C_32  and  C_43
                            x       y       z     vdW  Elec       q    Type
                         _______ _______ _______ _____ _____    ______ ____

>  <TORSDO>
F 15

$$$$
=
 OpenBabel11042413543D

 51 57  0  0  1  0  0  0  0  0999 V2000
  187.4380  174.3290  142.3450 C   0  0  0  0  0  2  0  0  0  0  0  0
  187.9760  176.5110  143.4400 C   0  0  1  0  0  3  0  0  0  0  0  0
  189.0100  176.7450  142.3470 C   0  0  1  0  0  3  0  0  0  0  0  0
  188.2630  176.1670  141.1300 C   0  0  2  0  0  3  0  0  0  0  0  0
  189.2310  178.2340  142.1650 C   0  0  0  0  0  1  0  0  0  0  0  0
  186.9050  175.7290  142.6820 C   0  0  1  0  0  3  0  0  0  0  0  0
  186.9140  176.3790  141.4430 O   0  0  0  0  0  0  0  0  0  0  0  0
  188.3410  174.6380  141.1620 C   0  0  1  0  0  3  0  0  0  0  0  0
  190.1720  175.2210  144.6960 S   0  0  0  0  0  0  0  0  0  0  0  0
  191.4080  177.5390  144.8950 O   0  0  0  0  0  1  0  0  0  0  0  0
  190.7750  176.6030  145.7140 C   0  0  1  0  0  0  0  0  0  0  0  0
  189.5820  177.2200  146.3560 C   0  0  0  0  0  3  0  0  0  0  0  0
  188.4060  176.8580  145.8670 C   0  0  0  0  0  0  0  0  0  0  0  0
  188.4590  175.8650  144.7540 C   0  0  1  0  0  3  0  0  0  0  0  0
  184.7410  178.3510  147.4510 C   0  0  0  0  0  3  0  0  0  0  0  0
  185.9080  176.8420  145.9840 C   0  0  0  0  0  3  0  0  0  0  0  0
  184.7080  177.3300  146.5020 C   0  0  0  0  0  3  0  0  0  0  0  0
  187.1310  177.3730  146.4150 C   0  0  0  0  0  0  0  0  0  0  0  0
  185.9320  178.8600  147.8650 N   0  0  0  0  0  0  0  0  0  0  0  0
  187.1130  178.3980  147.3720 C   0  0  0  0  0  3  0  0  0  0  0  0
  191.7530  176.0620  146.7550 C   0  0  0  0  0  2  0  0  0  0  0  0
  192.6230  175.0340  146.1930 N   0  0  0  0  0  2  0  0  0  0  0  0
  194.0000  175.5100  146.2650 C   0  0  2  0  0  3  0  0  0  0  0  0
  194.0140  176.7720  146.8680 O   0  0  0  0  0  1  0  0  0  0  0  0
  193.8990  174.6590  143.9950 C   0  0  0  0  0  2  0  0  0  0  0  0
  196.1710  174.8540  143.3920 C   0  0  2  0  0  3  0  0  0  0  0  0
  194.9970  173.9040  143.2410 C   0  0  1  0  0  3  0  0  0  0  0  0
  195.5600  172.8200  145.4900 C   0  0  0  0  0  2  0  0  0  0  0  0
  195.3000  172.5880  143.9890 C   0  0  0  0  0  2  0  0  0  0  0  0
  194.5670  175.6010  144.9120 N   0  0  0  0  0  0  0  0  0  0  0  0
  196.4090  174.0790  145.7520 C   0  0  0  0  0  2  0  0  0  0  0  0
  197.5340  174.2650  143.0370 C   0  0  0  0  0  1  0  0  0  0  0  0
  196.0050  175.2740  144.8370 C   0  0  1  0  0  3  0  0  0  0  0  0
  189.7510  174.0910  141.3480 C   0  0  0  0  0  2  0  0  0  0  0  0
  190.2700  173.5080  140.0470 C   0  0  0  0  0  2  0  0  0  0  0  0
  190.3700  171.9980  140.1750 C   0  0  0  0  0  2  0  0  0  0  0  0
  192.0950  170.7640  138.9190 N   0  0  0  0  0  0  0  0  0  0  0  0
  191.7690  171.5410  139.9130 C   0  0  0  0  0  0  0  0  0  0  0  0
  191.2280  170.2060  137.9170 C   0  0  0  0  0  0  0  0  0  0  0  0
  190.5270  169.1830  138.1450 O   0  0  0  0  0  0  0  0  0  0  0  0
  189.6560  171.0340  136.2090 C   0  0  0  0  0  1  0  0  0  0  0  0
  191.1190  170.8840  136.5940 C   0  0  0  0  0  2  0  0  0  0  0  0
  192.8420  172.0710  140.7990 C   0  0  0  0  0  2  0  0  0  0  0  0
  194.0220  172.5570  139.9720 C   0  0  0  0  0  2  0  0  0  0  0  0
  195.9990  175.1500  138.1240 N   0  0  0  0  0  0  0  0  0  0  0  0
  194.0550  173.7180  137.7230 C   0  0  0  0  0  2  0  0  0  0  0  0
  193.6470  173.8160  139.1990 C   0  0  0  0  0  3  0  0  0  0  0  0
  195.5690  173.8690  137.5690 C   0  0  0  0  0  2  0  0  0  0  0  0
  197.4360  175.2230  137.9350 C   0  0  0  0  0  1  0  0  0  0  0  0
  195.7660  175.1280  139.5670 C   0  0  0  0  0  2  0  0  0  0  0  0
  194.2650  175.0530  139.8530 C   0  0  0  0  0  2  0  0  0  0  0  0
  2 14  1  1  0  0  0
  3  5  1  6  0  0  0
  3  2  1  0  0  0  0
  4  8  1  0  0  0  0
  4  7  1  1  0  0  0
  4  3  1  0  0  0  0
  6  1  1  6  0  0  0
  6  2  1  0  0  0  0
  7  6  1  0  0  0  0
  8 34  1  1  0  0  0
  8  1  1  0  0  0  0
  9 11  1  0  0  0  0
 11 10  1  6  0  0  0
 11 12  1  0  0  0  0
 11 21  1  0  0  0  0
 13 12  2  0  0  0  0
 13 18  1  0  0  0  0
 14  9  1  6  0  0  0
 14 13  1  0  0  0  0
 15 19  1  0  0  0  0
 16 18  2  0  0  0  0
 16 17  1  0  0  0  0
 17 15  2  0  0  0  0
 18 20  1  0  0  0  0
 20 19  2  0  0  0  0
 22 23  1  0  0  0  0
 22 21  1  0  0  0  0
 23 24  1  6  0  0  0
 25 30  1  0  0  0  0
 26 32  1  1  0  0  0
 26 33  1  0  0  0  0
 27 26  1  0  0  0  0
 27 29  1  1  0  0  0
 27 25  1  0  0  0  0
 28 31  1  0  0  0  0
 29 28  1  0  0  0  0
 30 23  1  0  0  0  0
 33 30  1  0  0  0  0
 33 31  1  1  0  0  0
 35 36  1  0  0  0  0
 35 34  1  0  0  0  0
 37 38  2  0  0  0  0
 38 36  1  0  0  0  0
 38 43  1  0  0  0  0
 39 40  2  0  0  0  0
 39 37  1  0  0  0  0
 41 42  1  0  0  0  0
 42 39  1  0  0  0  0
 44 43  1  0  0  0  0
 45 50  1  0  0  0  0
 46 47  1  0  0  0  0
 47 51  1  0  0  0  0
 47 44  1  0  0  0  0
 48 46  1  0  0  0  0
 48 45  1  0  0  0  0
 49 45  1  0  0  0  0
 50 51  1  0  0  0  0
M  END
>  <MODEL>
6

>  <REMARK>
 VINA RESULT:      -6.8      2.485      8.338
  Name = 
  15 active torsions:
  status: ('A' for Active; 'I' for Inactive)
    1  A    between atoms: N_3  and  C_20
    2  A    between atoms: C_5  and  C_50
    3  A    between atoms: C_7  and  C_26
    4  A    between atoms: C_7  and  C_41
    5  A    between atoms: N_13  and  C_17
    6  A    between atoms: N_13  and  C_48
    7  A    between atoms: C_14  and  C_48
    8  A    between atoms: C_17  and  N_36
    9  A    between atoms: C_19  and  C_24
   10  A    between atoms: C_19  and  C_33
   11  A    between atoms: C_20  and  C_38
   12  A    between atoms: C_24  and  C_29
   13  A    between atoms: C_26  and  C_33
   14  A    between atoms: C_30  and  C_41
   15  A    between atoms: C_32  and  C_43
                            x       y       z     vdW  Elec       q    Type
                         _______ _______ _______ _____ _____    ______ ____

>  <TORSDO>
F 15

$$$$
=
 OpenBabel11042413543D

 51 57  0  0  1  0  0  0  0  0999 V2000
  189.4780  173.7870  138.6580 C   0  0  0  0  0  2  0  0  0  0  0  0
  191.6700  172.6120  138.8930 C   0  0  1  0  0  3  0  0  0  0  0  0
  191.0010  171.6710  139.8860 C   0  0  1  0  0  3  0  0  0  0  0  0
  189.6180  171.5090  139.2270 C   0  0  2  0  0  3  0  0  0  0  0  0
  191.7320  170.3430  139.9020 C   0  0  0  0  0  1  0  0  0  0  0  0
  190.5180  172.9160  137.9390 C   0  0  1  0  0  3  0  0  0  0  0  0
  189.8880  171.6690  137.8610 O   0  0  0  0  0  0  0  0  0  0  0  0
  188.7670  172.7490  139.5120 C   0  0  1  0  0  3  0  0  0  0  0  0
  192.5640  173.8590  141.2820 S   0  0  0  0  0  0  0  0  0  0  0  0
  194.5160  172.0990  141.4610 O   0  0  0  0  0  1  0  0  0  0  0  0
  194.3340  173.4540  141.1760 C   0  0  1  0  0  0  0  0  0  0  0  0
  194.7590  173.7350  139.7780 C   0  0  0  0  0  3  0  0  0  0  0  0
  193.7850  173.9240  138.9010 C   0  0  0  0  0  0  0  0  0  0  0  0
  192.4040  173.8450  139.4580 C   0  0  1  0  0  3  0  0  0  0  0  0
  194.5530  174.8240  134.8050 C   0  0  0  0  0  3  0  0  0  0  0  0
  194.7770  173.3340  136.6810 C   0  0  0  0  0  3  0  0  0  0  0  0
  195.0290  173.6280  135.3410 C   0  0  0  0  0  3  0  0  0  0  0  0
  194.0530  174.2320  137.4780 C   0  0  0  0  0  0  0  0  0  0  0  0
  193.8500  175.6890  135.5840 N   0  0  0  0  0  0  0  0  0  0  0  0
  193.5940  175.4210  136.8930 C   0  0  0  0  0  3  0  0  0  0  0  0
  195.1010  174.3140  142.1770 C   0  0  0  0  0  2  0  0  0  0  0  0
  195.0350  173.7580  143.5250 N   0  0  0  0  0  2  0  0  0  0  0  0
  195.0680  174.8620  144.4780 C   0  0  2  0  0  3  0  0  0  0  0  0
  196.3750  175.0110  144.9560 O   0  0  0  0  0  1  0  0  0  0  0  0
  192.9750  173.8320  145.1420 C   0  0  0  0  0  2  0  0  0  0  0  0
  192.3520  175.2810  146.8950 C   0  0  2  0  0  3  0  0  0  0  0  0
  191.7430  174.5320  145.7250 C   0  0  1  0  0  3  0  0  0  0  0  0
  192.3160  176.4720  144.1590 C   0  0  0  0  0  2  0  0  0  0  0  0
  191.2070  175.5420  144.6880 C   0  0  0  0  0  2  0  0  0  0  0  0
  194.1600  174.5800  145.5980 N   0  0  0  0  0  0  0  0  0  0  0  0
  193.2790  176.9320  145.2700 C   0  0  0  0  0  2  0  0  0  0  0  0
  191.4610  176.3560  147.5140 C   0  0  0  0  0  1  0  0  0  0  0  0
  193.6330  175.7870  146.2660 C   0  0  1  0  0  3  0  0  0  0  0  0
  188.7160  173.1420  140.9830 C   0  0  0  0  0  2  0  0  0  0  0  0
  188.9700  174.6300  141.1440 C   0  0  0  0  0  2  0  0  0  0  0  0
  187.6950  175.3130  141.6050 C   0  0  0  0  0  2  0  0  0  0  0  0
  187.3220  177.7100  141.1720 N   0  0  0  0  0  0  0  0  0  0  0  0
  187.9340  176.7700  141.8360 C   0  0  0  0  0  0  0  0  0  0  0  0
  186.3440  177.5600  140.1310 C   0  0  0  0  0  0  0  0  0  0  0  0
  186.6440  177.0720  139.0070 O   0  0  0  0  0  0  0  0  0  0  0  0
  184.7630  178.2890  141.8760 C   0  0  0  0  0  1  0  0  0  0  0  0
  184.9300  177.9430  140.4050 C   0  0  0  0  0  2  0  0  0  0  0  0
  188.8660  177.1470  142.9340 C   0  0  0  0  0  2  0  0  0  0  0  0
  188.0920  177.6980  144.1210 C   0  0  0  0  0  2  0  0  0  0  0  0
  185.6580  177.5540  146.9670 N   0  0  0  0  0  0  0  0  0  0  0  0
  185.9730  176.4860  144.7880 C   0  0  0  0  0  2  0  0  0  0  0  0
  187.4970  176.5610  144.9430 C   0  0  0  0  0  3  0  0  0  0  0  0
  185.2940  177.6210  145.5550 C   0  0  0  0  0  2  0  0  0  0  0  0
  184.9750  178.6520  147.6260 C   0  0  0  0  0  1  0  0  0  0  0  0
  187.0910  177.8200  147.0870 C   0  0  0  0  0  2  0  0  0  0  0  0
  187.8890  176.7010  146.4150 C   0  0  0  0  0  2  0  0  0  0  0  0
  1  8  1  0  0  0  0
  2 14  1  1  0  0  0
  2  3  1  0  0  0  0
  3  5  1  6  0  0  0
  4  7  1  6  0  0  0
  4  8  1  0  0  0  0
  4  3  1  0  0  0  0
  6  1  1  1  0  0  0
  6  2  1  0  0  0  0
  7  6  1  0  0  0  0
  8 34  1  1  0  0  0
 11  9  1  0  0  0  0
 11 10  1  1  0  0  0
 11 21  1  0  0  0  0
 12 11  1  0  0  0  0
 13 12  2  0  0  0  0
 14 13  1  6  0  0  0
 14  9  1  0  0  0  0
 15 17  2  0  0  0  0
 15 19  1  0  0  0  0
 16 18  2  0  0  0  0
 17 16  1  0  0  0  0
 18 13  1  0  0  0  0
 19 20  2  0  0  0  0
 20 18  1  0  0  0  0
 21 22  1  0  0  0  0
 22 23  1  0  0  0  0
 23 24  1  1  0  0  0
 23 30  1  0  0  0  0
 25 30  1  0  0  0  0
 25 27  1  0  0  0  0
 26 32  1  6  0  0  0
 27 29  1  6  0  0  0
 27 26  1  0  0  0  0
 28 29  1  0  0  0  0
 28 31  1  0  0  0  0
 30 33  1  0  0  0  0
 33 31  1  6  0  0  0
 33 26  1  0  0  0  0
 34 35  1  0  0  0  0
 35 36  1  0  0  0  0
 36 38  1  0  0  0  0
 37 38  2  0  0  0  0
 38 43  1  0  0  0  0
 39 42  1  0  0  0  0
 39 37  1  0  0  0  0
 40 39  2  0  0  0  0
 42 41  1  0  0  0  0
 43 44  1  0  0  0  0
 44 47  1  0  0  0  0
 45 50  1  0  0  0  0
 45 49  1  0  0  0  0
 46 47  1  0  0  0  0
 46 48  1  0  0  0  0
 47 51  1  0  0  0  0
 48 45  1  0  0  0  0
 51 50  1  0  0  0  0
M  END
>  <MODEL>
7

>  <REMARK>
 VINA RESULT:      -6.7      2.400      6.541
  Name = 
  15 active torsions:
  status: ('A' for Active; 'I' for Inactive)
    1  A    between atoms: N_3  and  C_20
    2  A    between atoms: C_5  and  C_50
    3  A    between atoms: C_7  and  C_26
    4  A    between atoms: C_7  and  C_41
    5  A    between atoms: N_13  and  C_17
    6  A    between atoms: N_13  and  C_48
    7  A    between atoms: C_14  and  C_48
    8  A    between atoms: C_17  and  N_36
    9  A    between atoms: C_19  and  C_24
   10  A    between atoms: C_19  and  C_33
   11  A    between atoms: C_20  and  C_38
   12  A    between atoms: C_24  and  C_29
   13  A    between atoms: C_26  and  C_33
   14  A    between atoms: C_30  and  C_41
   15  A    between atoms: C_32  and  C_43
                            x       y       z     vdW  Elec       q    Type
                         _______ _______ _______ _____ _____    ______ ____

>  <TORSDO>
F 15

$$$$
=
 OpenBabel11042413543D

 51 57  0  0  1  0  0  0  0  0999 V2000
  191.8630  177.4000  144.7520 C   0  0  0  0  0  2  0  0  0  0  0  0
  189.7010  176.1530  144.8840 C   0  0  1  0  0  3  0  0  0  0  0  0
  190.5070  174.8880  145.1470 C   0  0  1  0  0  3  0  0  0  0  0  0
  191.6230  175.4500  146.0470 C   0  0  2  0  0  3  0  0  0  0  0  0
  189.6600  173.8970  145.9210 C   0  0  0  0  0  1  0  0  0  0  0  0
  190.5710  177.2120  145.5590 C   0  0  1  0  0  3  0  0  0  0  0  0
  191.0050  176.5260  146.6980 O   0  0  0  0  0  0  0  0  0  0  0  0
  192.6580  176.1770  145.1830 C   0  0  1  0  0  3  0  0  0  0  0  0
  190.0980  175.3750  142.1830 S   0  0  0  0  0  0  0  0  0  0  0  0
  188.5990  173.2450  142.5860 O   0  0  0  0  0  1  0  0  0  0  0  0
  188.5450  174.4670  141.9120 C   0  0  1  0  0  0  0  0  0  0  0  0
  187.4510  175.3040  142.4760 C   0  0  0  0  0  3  0  0  0  0  0  0
  187.8280  176.3080  143.2520 C   0  0  0  0  0  0  0  0  0  0  0  0
  189.3020  176.4580  143.4260 C   0  0  1  0  0  3  0  0  0  0  0  0
  185.0250  178.9770  145.0390 C   0  0  0  0  0  3  0  0  0  0  0  0
  186.6310  178.5030  143.3110 C   0  0  0  0  0  3  0  0  0  0  0  0
  185.7140  179.3780  143.8950 C   0  0  0  0  0  3  0  0  0  0  0  0
  186.8550  177.2370  143.8690 C   0  0  0  0  0  0  0  0  0  0  0  0
  185.2470  177.7460  145.5740 N   0  0  0  0  0  0  0  0  0  0  0  0
  186.1370  176.8800  145.0190 C   0  0  0  0  0  3  0  0  0  0  0  0
  188.3580  174.2380  140.4140 C   0  0  0  0  0  2  0  0  0  0  0  0
  189.6280  173.9620  139.7490 N   0  0  0  0  0  2  0  0  0  0  0  0
  189.4990  172.7050  139.0200 C   0  0  2  0  0  3  0  0  0  0  0  0
  188.1560  172.3130  139.0230 O   0  0  0  0  0  1  0  0  0  0  0  0
  191.4400  172.2710  140.4100 C   0  0  0  0  0  2  0  0  0  0  0  0
  192.1270  170.2040  139.5060 C   0  0  2  0  0  3  0  0  0  0  0  0
  192.7090  171.5100  140.0150 C   0  0  1  0  0  3  0  0  0  0  0  0
  192.4170  172.5660  137.7030 C   0  0  0  0  0  2  0  0  0  0  0  0
  193.3960  172.2570  138.8520 C   0  0  0  0  0  2  0  0  0  0  0  0
  190.3190  171.6700  139.6640 N   0  0  0  0  0  0  0  0  0  0  0  0
  191.4560  171.3950  137.4180 C   0  0  0  0  0  2  0  0  0  0  0  0
  193.0960  169.3240  138.7200 C   0  0  0  0  0  1  0  0  0  0  0  0
  190.9380  170.7170  138.7210 C   0  0  1  0  0  3  0  0  0  0  0  0
  193.1610  175.3630  143.9990 C   0  0  0  0  0  2  0  0  0  0  0  0
  194.3220  176.0690  143.3240 C   0  0  0  0  0  2  0  0  0  0  0  0
  195.5080  176.1110  144.2720 C   0  0  0  0  0  2  0  0  0  0  0  0
  197.0780  174.2110  144.2950 N   0  0  0  0  0  0  0  0  0  0  0  0
  196.6420  175.3010  143.7290 C   0  0  0  0  0  0  0  0  0  0  0  0
  196.5950  173.5890  145.4970 C   0  0  0  0  0  0  0  0  0  0  0  0
  197.1450  173.7920  146.6140 O   0  0  0  0  0  0  0  0  0  0  0  0
  195.3210  172.0310  144.0740 C   0  0  0  0  0  1  0  0  0  0  0  0
  195.3850  172.7210  145.4280 C   0  0  0  0  0  2  0  0  0  0  0  0
  197.2400  175.7370  142.4370 C   0  0  0  0  0  2  0  0  0  0  0  0
  197.6890  174.5310  141.6280 C   0  0  0  0  0  2  0  0  0  0  0  0
  196.8550  174.0700  138.0030 N   0  0  0  0  0  0  0  0  0  0  0  0
  196.9330  172.7120  140.0380 C   0  0  0  0  0  2  0  0  0  0  0  0
  196.5070  173.9160  140.8880 C   0  0  0  0  0  3  0  0  0  0  0  0
  197.6920  173.1700  138.7920 C   0  0  0  0  0  2  0  0  0  0  0  0
  197.6360  174.4530  136.8420 C   0  0  0  0  0  1  0  0  0  0  0  0
  196.6290  175.2880  138.7780 C   0  0  0  0  0  2  0  0  0  0  0  0
  195.8050  174.9690  140.0270 C   0  0  0  0  0  2  0  0  0  0  0  0
  1  8  1  0  0  0  0
  2 14  1  6  0  0  0
  2  3  1  0  0  0  0
  2  6  1  0  0  0  0
  3  5  1  1  0  0  0
  3  4  1  0  0  0  0
  4  7  1  1  0  0  0
  6  1  1  6  0  0  0
  6  7  1  0  0  0  0
  8 34  1  6  0  0  0
  8  4  1  0  0  0  0
 11  9  1  0  0  0  0
 11 12  1  0  0  0  0
 11 10  1  1  0  0  0
 12 13  2  0  0  0  0
 13 14  1  0  0  0  0
 13 18  1  0  0  0  0
 14  9  1  6  0  0  0
 15 19  1  0  0  0  0
 16 18  2  0  0  0  0
 16 17  1  0  0  0  0
 17 15  2  0  0  0  0
 18 20  1  0  0  0  0
 20 19  2  0  0  0  0
 21 11  1  0  0  0  0
 22 21  1  0  0  0  0
 23 24  1  1  0  0  0
 23 30  1  0  0  0  0
 23 22  1  0  0  0  0
 26 32  1  6  0  0  0
 26 27  1  0  0  0  0
 27 29  1  6  0  0  0
 27 25  1  0  0  0  0
 28 29  1  0  0  0  0
 30 25  1  0  0  0  0
 31 28  1  0  0  0  0
 33 31  1  6  0  0  0
 33 26  1  0  0  0  0
 33 30  1  0  0  0  0
 35 34  1  0  0  0  0
 35 36  1  0  0  0  0
 37 39  1  0  0  0  0
 38 36  1  0  0  0  0
 38 37  2  0  0  0  0
 39 40  2  0  0  0  0
 41 42  1  0  0  0  0
 42 39  1  0  0  0  0
 43 38  1  0  0  0  0
 44 43  1  0  0  0  0
 45 50  1  0  0  0  0
 45 48  1  0  0  0  0
 46 47  1  0  0  0  0
 47 44  1  0  0  0  0
 48 46  1  0  0  0  0
 49 45  1  0  0  0  0
 50 51  1  0  0  0  0
 51 47  1  0  0  0  0
M  END
>  <MODEL>
8

>  <REMARK>
 VINA RESULT:      -6.5      2.164      8.545
  Name = 
  15 active torsions:
  status: ('A' for Active; 'I' for Inactive)
    1  A    between atoms: N_3  and  C_20
    2  A    between atoms: C_5  and  C_50
    3  A    between atoms: C_7  and  C_26
    4  A    between atoms: C_7  and  C_41
    5  A    between atoms: N_13  and  C_17
    6  A    between atoms: N_13  and  C_48
    7  A    between atoms: C_14  and  C_48
    8  A    between atoms: C_17  and  N_36
    9  A    between atoms: C_19  and  C_24
   10  A    between atoms: C_19  and  C_33
   11  A    between atoms: C_20  and  C_38
   12  A    between atoms: C_24  and  C_29
   13  A    between atoms: C_26  and  C_33
   14  A    between atoms: C_30  and  C_41
   15  A    between atoms: C_32  and  C_43
                            x       y       z     vdW  Elec       q    Type
                         _______ _______ _______ _____ _____    ______ ____

>  <TORSDO>
F 15

$$$$
=
 OpenBabel11042413543D

 51 57  0  0  1  0  0  0  0  0999 V2000
  194.2700  175.2300  146.4430 C   0  0  0  0  0  2  0  0  0  0  0  0
  194.1400  175.2220  143.9480 C   0  0  1  0  0  3  0  0  0  0  0  0
  192.7820  175.9010  144.0680 C   0  0  1  0  0  3  0  0  0  0  0  0
  193.0500  176.8500  145.2510 C   0  0  2  0  0  3  0  0  0  0  0  0
  192.4990  176.7000  142.8110 C   0  0  0  0  0  1  0  0  0  0  0  0
  194.8760  175.8000  145.1540 C   0  0  1  0  0  3  0  0  0  0  0  0
  194.4200  177.1230  145.1470 O   0  0  0  0  0  0  0  0  0  0  0  0
  193.0010  176.0590  146.5610 C   0  0  1  0  0  3  0  0  0  0  0  0
  192.6510  172.8580  144.4540 S   0  0  0  0  0  0  0  0  0  0  0  0
  191.1040  173.4010  142.3910 O   0  0  0  0  0  1  0  0  0  0  0  0
  192.1000  172.4940  142.7590 C   0  0  1  0  0  0  0  0  0  0  0  0
  193.2850  172.6620  141.8740 C   0  0  0  0  0  3  0  0  0  0  0  0
  194.3290  173.2740  142.4100 C   0  0  0  0  0  0  0  0  0  0  0  0
  194.1630  173.6840  143.8350 C   0  0  1  0  0  3  0  0  0  0  0  0
  197.9410  173.9110  140.2350 C   0  0  0  0  0  3  0  0  0  0  0  0
  196.7130  174.0230  142.3020 C   0  0  0  0  0  3  0  0  0  0  0  0
  197.8960  174.2320  141.5920 C   0  0  0  0  0  3  0  0  0  0  0  0
  195.5850  173.4960  141.6590 C   0  0  0  0  0  0  0  0  0  0  0  0
  196.8420  173.3980  139.6190 N   0  0  0  0  0  0  0  0  0  0  0  0
  195.6800  173.1870  140.2940 C   0  0  0  0  0  3  0  0  0  0  0  0
  191.5620  171.0660  142.7070 C   0  0  0  0  0  2  0  0  0  0  0  0
  192.0100  170.3650  141.5080 N   0  0  0  0  0  2  0  0  0  0  0  0
  190.8340  169.8730  140.7990 C   0  0  2  0  0  3  0  0  0  0  0  0
  190.4460  168.6500  141.3560 O   0  0  0  0  0  1  0  0  0  0  0  0
  192.3370  170.4780  138.9930 C   0  0  0  0  0  2  0  0  0  0  0  0
  190.8340  170.4070  137.1780 C   0  0  2  0  0  3  0  0  0  0  0  0
  191.9850  171.2390  137.7120 C   0  0  1  0  0  3  0  0  0  0  0  0
  190.3640  172.5870  139.1610 C   0  0  0  0  0  2  0  0  0  0  0  0
  191.4720  172.6440  138.0920 C   0  0  0  0  0  2  0  0  0  0  0  0
  191.1510  169.6910  139.3760 N   0  0  0  0  0  0  0  0  0  0  0  0
  189.3710  171.4340  138.9180 C   0  0  0  0  0  2  0  0  0  0  0  0
  190.0160  171.0640  136.0690 C   0  0  0  0  0  1  0  0  0  0  0  0
  190.0780  170.1240  138.4580 C   0  0  1  0  0  3  0  0  0  0  0  0
  191.7550  175.1980  146.7210 C   0  0  0  0  0  2  0  0  0  0  0  0
  190.6320  176.0000  147.3520 C   0  0  0  0  0  2  0  0  0  0  0  0
  189.2960  175.4140  146.9320 C   0  0  0  0  0  2  0  0  0  0  0  0
  187.8340  177.1320  145.9390 N   0  0  0  0  0  0  0  0  0  0  0  0
  188.7190  176.1880  145.7900 C   0  0  0  0  0  0  0  0  0  0  0  0
  187.2490  177.6060  147.1630 C   0  0  0  0  0  0  0  0  0  0  0  0
  187.8450  178.4360  147.9020 O   0  0  0  0  0  0  0  0  0  0  0  0
  184.8380  178.0380  146.8990 C   0  0  0  0  0  1  0  0  0  0  0  0
  185.8840  177.1420  147.5410 C   0  0  0  0  0  2  0  0  0  0  0  0
  189.2510  175.9010  144.4290 C   0  0  0  0  0  2  0  0  0  0  0  0
  188.9830  177.0720  143.4970 C   0  0  0  0  0  2  0  0  0  0  0  0
  185.5100  177.5410  142.1660 N   0  0  0  0  0  0  0  0  0  0  0  0
  187.8120  177.7740  141.3660 C   0  0  0  0  0  2  0  0  0  0  0  0
  188.2620  176.5980  142.2400 C   0  0  0  0  0  3  0  0  0  0  0  0
  186.6100  178.4850  141.9910 C   0  0  0  0  0  2  0  0  0  0  0  0
  184.4120  178.2850  142.7540 C   0  0  0  0  0  1  0  0  0  0  0  0
  185.9140  176.5400  143.1520 C   0  0  0  0  0  2  0  0  0  0  0  0
  187.0740  175.7050  142.6060 C   0  0  0  0  0  2  0  0  0  0  0  0
  1  8  1  0  0  0  0
  2 14  1  1  0  0  0
  2  3  1  0  0  0  0
  2  6  1  0  0  0  0
  3  5  1  6  0  0  0
  3  4  1  0  0  0  0
  4  7  1  6  0  0  0
  4  8  1  0  0  0  0
  6  1  1  1  0  0  0
  7  6  1  0  0  0  0
  8 34  1  6  0  0  0
 11 10  1  6  0  0  0
 11  9  1  0  0  0  0
 12 13  2  0  0  0  0
 12 11  1  0  0  0  0
 14 13  1  6  0  0  0
 14  9  1  0  0  0  0
 15 17  1  0  0  0  0
 17 16  2  0  0  0  0
 18 16  1  0  0  0  0
 18 13  1  0  0  0  0
 19 15  2  0  0  0  0
 19 20  1  0  0  0  0
 20 18  2  0  0  0  0
 21 11  1  0  0  0  0
 22 21  1  0  0  0  0
 23 24  1  1  0  0  0
 23 22  1  0  0  0  0
 25 30  1  0  0  0  0
 26 32  1  6  0  0  0
 26 27  1  0  0  0  0
 26 33  1  0  0  0  0
 27 29  1  1  0  0  0
 27 25  1  0  0  0  0
 29 28  1  0  0  0  0
 30 23  1  0  0  0  0
 31 28  1  0  0  0  0
 33 31  1  1  0  0  0
 33 30  1  0  0  0  0
 34 35  1  0  0  0  0
 36 35  1  0  0  0  0
 37 39  1  0  0  0  0
 38 37  2  0  0  0  0
 38 36  1  0  0  0  0
 39 42  1  0  0  0  0
 39 40  2  0  0  0  0
 41 42  1  0  0  0  0
 43 38  1  0  0  0  0
 44 43  1  0  0  0  0
 45 49  1  0  0  0  0
 45 50  1  0  0  0  0
 46 48  1  0  0  0  0
 46 47  1  0  0  0  0
 47 51  1  0  0  0  0
 47 44  1  0  0  0  0
 48 45  1  0  0  0  0
 51 50  1  0  0  0  0
M  END
>  <MODEL>
9

>  <REMARK>
 VINA RESULT:      -6.5      2.502      4.831
  Name = 
  15 active torsions:
  status: ('A' for Active; 'I' for Inactive)
    1  A    between atoms: N_3  and  C_20
    2  A    between atoms: C_5  and  C_50
    3  A    between atoms: C_7  and  C_26
    4  A    between atoms: C_7  and  C_41
    5  A    between atoms: N_13  and  C_17
    6  A    between atoms: N_13  and  C_48
    7  A    between atoms: C_14  and  C_48
    8  A    between atoms: C_17  and  N_36
    9  A    between atoms: C_19  and  C_24
   10  A    between atoms: C_19  and  C_33
   11  A    between atoms: C_20  and  C_38
   12  A    between atoms: C_24  and  C_29
   13  A    between atoms: C_26  and  C_33
   14  A    between atoms: C_30  and  C_41
   15  A    between atoms: C_32  and  C_43
                            x       y       z     vdW  Elec       q    Type
                         _______ _______ _______ _____ _____    ______ ____

>  <TORSDO>
F 15

$$$$
