=
 OpenBabel11042414023D

 31 31  0  0  1  0  0  0  0  0999 V2000
  189.6650  175.2590  145.0860 C   0  0  1  0  0  3  0  0  0  0  0  0
  189.0280  175.5680  146.4090 C   0  0  0  0  0  3  0  0  0  0  0  0
  188.9950  174.6570  147.3780 C   0  0  0  0  0  2  0  0  0  0  0  0
  189.2320  176.2480  143.9930 C   0  0  2  0  0  3  0  0  0  0  0  0
  187.7870  176.7140  144.1610 C   0  0  2  0  0  3  0  0  0  0  0  0
  187.5340  177.8990  143.3130 C   0  0  2  0  0  3  0  0  0  0  0  0
  187.7750  178.0150  144.6940 O   0  0  0  0  0  0  0  0  0  0  0  0
  186.0460  178.0330  143.0470 C   0  0  2  0  0  3  0  0  0  0  0  0
  185.8250  178.3900  141.5890 C   0  0  0  0  0  1  0  0  0  0  0  0
  185.4610  179.1140  143.9390 C   0  0  0  0  0  2  0  0  0  0  0  0
  184.2550  178.6780  144.4880 O   0  0  0  0  0  0  0  0  0  0  0  0
  184.4610  178.7170  145.8670 C   0  0  0  0  0  2  0  0  0  0  0  0
  184.7750  177.3240  146.3700 C   0  0  0  0  0  2  0  0  0  0  0  0
  186.2050  178.8520  147.6870 C   0  0  0  0  0  1  0  0  0  0  0  0
  185.7990  177.4080  147.4820 C   0  0  0  0  0  2  0  0  0  0  0  0
  188.5050  174.6000  142.7030 C   0  0  0  0  0  1  0  0  0  0  0  0
  189.4020  175.6700  142.7310 O   0  0  0  0  0  0  0  0  0  0  0  0
  191.1850  175.1930  145.2180 C   0  0  0  0  0  2  0  0  0  0  0  0
  191.7680  176.5340  145.6480 C   0  0  0  0  0  2  0  0  0  0  0  0
  192.7690  176.3670  146.7850 C   0  0  0  0  0  2  0  0  0  0  0  0
  194.1940  176.6220  146.3210 C   0  0  0  0  0  2  0  0  0  0  0  0
  194.9210  175.3070  146.0860 C   0  0  0  0  0  2  0  0  0  0  0  0
  196.5280  175.4340  144.3340 O   0  0  0  0  0  1  0  0  0  0  0  0
  195.1990  175.1100  144.6050 C   0  0  1  0  0  3  0  0  0  0  0  0
  193.6270  173.3300  143.7210 N   0  0  0  0  0  2  0  0  0  0  0  0
  194.9290  173.7010  144.1870 C   0  0  0  0  0  0  0  0  0  0  0  0
  195.8980  172.8450  144.1820 N   0  0  0  0  0  2  0  0  0  0  0  0
  193.2990  171.9740  143.3050 C   0  0  0  0  0  2  0  0  0  0  0  0
  192.1570  171.4160  144.1400 C   0  0  0  0  0  2  0  0  0  0  0  0
  189.8660  171.8800  144.6380 O   0  0  0  0  0  1  0  0  0  0  0  0
  190.8040  171.8580  143.6050 C   0  0  0  0  0  2  0  0  0  0  0  0
  1 18  1  1  0  0  0
  1  2  1  0  0  0  0
  2  3  2  0  0  0  0
  4 17  1  6  0  0  0
  4  1  1  0  0  0  0
  5  4  1  6  0  0  0
  5  7  1  0  0  0  0
  6  8  1  1  0  0  0
  6  5  1  0  0  0  0
  6  7  1  0  0  0  0
  8  9  1  6  0  0  0
  8 10  1  0  0  0  0
 10 11  1  0  0  0  0
 11 12  1  0  0  0  0
 12 13  1  0  0  0  0
 13 15  1  0  0  0  0
 15 14  1  0  0  0  0
 16 17  1  0  0  0  0
 18 19  1  0  0  0  0
 19 20  1  0  0  0  0
 21 20  1  0  0  0  0
 22 21  1  0  0  0  0
 24 23  1  1  0  0  0
 24 22  1  0  0  0  0
 25 26  1  0  0  0  0
 26 24  1  0  0  0  0
 27 26  2  0  0  0  0
 28 25  1  0  0  0  0
 28 29  1  0  0  0  0
 31 29  1  0  0  0  0
 31 30  1  0  0  0  0
M  END
>  <MODEL>
1

>  <REMARK>
 VINA RESULT:      -5.0      0.000      0.000
  Name = 
  20 active torsions:
  status: ('A' for Active; 'I' for Inactive)
    1  A    between atoms: C_2  and  C_7
    2  A    between atoms: C_2  and  C_19
    3  A    between atoms: N_3  and  C_8
    4  A    between atoms: C_5  and  C_13
    5  A    between atoms: C_5  and  C_31
    6  A    between atoms: C_6  and  C_8
    7  A    between atoms: C_6  and  C_28
    8  A    between atoms: C_7  and  C_23
    9  A    between atoms: C_10  and  C_16
   10  A    between atoms: C_11  and  C_14
   11  A    between atoms: C_11  and  O_29
   12  A    between atoms: C_12  and  C_22
   13  A    between atoms: C_12  and  C_27
   14  A    between atoms: C_13  and  O_29
   15  A    between atoms: C_14  and  C_17
   16  A    between atoms: C_15  and  C_19
   17  A    between atoms: C_16  and  O_20
   18  A    between atoms: C_16  and  C_27
   19  A    between atoms: C_22  and  C_23
   20  A    between atoms: C_24  and  C_27
                            x       y       z     vdW  Elec       q    Type
                         _______ _______ _______ _____ _____    ______ ____

>  <TORSDO>
F 20

$$$$
=
 OpenBabel11042414023D

 31 31  0  0  1  0  0  0  0  0999 V2000
  190.7040  176.7270  145.4110 C   0  0  1  0  0  3  0  0  0  0  0  0
  190.5440  177.8060  144.3810 C   0  0  0  0  0  3  0  0  0  0  0  0
  191.3020  177.8210  143.2870 C   0  0  0  0  0  2  0  0  0  0  0  0
  189.3520  176.2630  145.9760 C   0  0  2  0  0  3  0  0  0  0  0  0
  188.2470  177.2990  145.7780 C   0  0  2  0  0  3  0  0  0  0  0  0
  186.9780  176.8040  146.3550 C   0  0  2  0  0  3  0  0  0  0  0  0
  187.2330  176.7520  144.9720 O   0  0  0  0  0  0  0  0  0  0  0  0
  186.0590  177.9730  146.6550 C   0  0  2  0  0  3  0  0  0  0  0  0
  186.0220  178.2120  148.1530 C   0  0  0  0  0  1  0  0  0  0  0  0
  184.6600  177.6710  146.1440 C   0  0  0  0  0  2  0  0  0  0  0  0
  184.0880  178.8260  145.6110 O   0  0  0  0  0  0  0  0  0  0  0  0
  184.2910  178.7160  144.2350 C   0  0  0  0  0  2  0  0  0  0  0  0
  185.4330  179.6200  143.8190 C   0  0  0  0  0  2  0  0  0  0  0  0
  185.3470  178.2850  141.7410 C   0  0  0  0  0  1  0  0  0  0  0  0
  186.2630  178.9290  142.7590 C   0  0  0  0  0  2  0  0  0  0  0  0
  189.2020  174.5920  147.4220 C   0  0  0  0  0  1  0  0  0  0  0  0
  189.4800  175.9580  147.3340 O   0  0  0  0  0  0  0  0  0  0  0  0
  191.5120  175.5580  144.8520 C   0  0  0  0  0  2  0  0  0  0  0  0
  192.6170  175.1320  145.8120 C   0  0  0  0  0  2  0  0  0  0  0  0
  193.2820  176.3370  146.4670 C   0  0  0  0  0  2  0  0  0  0  0  0
  194.4200  176.8810  145.6180 C   0  0  0  0  0  2  0  0  0  0  0  0
  195.1840  175.7430  144.9590 C   0  0  0  0  0  2  0  0  0  0  0  0
  197.2480  175.5940  143.7830 O   0  0  0  0  0  1  0  0  0  0  0  0
  196.0250  176.2640  143.8060 C   0  0  1  0  0  3  0  0  0  0  0  0
  194.1480  175.2660  142.4280 N   0  0  0  0  0  2  0  0  0  0  0  0
  195.3240  176.0800  142.4990 C   0  0  0  0  0  0  0  0  0  0  0  0
  195.7460  176.7190  141.4580 N   0  0  0  0  0  2  0  0  0  0  0  0
  193.4230  175.0420  141.1850 C   0  0  0  0  0  2  0  0  0  0  0  0
  192.0960  174.3480  141.4540 C   0  0  0  0  0  2  0  0  0  0  0  0
  193.0460  172.8400  139.8630 O   0  0  0  0  0  1  0  0  0  0  0  0
  191.8470  173.2170  140.4700 C   0  0  0  0  0  2  0  0  0  0  0  0
  1  2  1  6  0  0  0
  1  4  1  0  0  0  0
  3  2  2  0  0  0  0
  4 17  1  1  0  0  0
  5  4  1  1  0  0  0
  5  6  1  0  0  0  0
  6  8  1  6  0  0  0
  7  5  1  0  0  0  0
  7  6  1  0  0  0  0
  8  9  1  1  0  0  0
 10  8  1  0  0  0  0
 11 10  1  0  0  0  0
 12 11  1  0  0  0  0
 13 12  1  0  0  0  0
 14 15  1  0  0  0  0
 15 13  1  0  0  0  0
 17 16  1  0  0  0  0
 18  1  1  0  0  0  0
 18 19  1  0  0  0  0
 19 20  1  0  0  0  0
 21 20  1  0  0  0  0
 22 21  1  0  0  0  0
 24 23  1  6  0  0  0
 24 22  1  0  0  0  0
 25 26  1  0  0  0  0
 26 24  1  0  0  0  0
 27 26  2  0  0  0  0
 28 29  1  0  0  0  0
 28 25  1  0  0  0  0
 30 31  1  0  0  0  0
 31 29  1  0  0  0  0
M  END
>  <MODEL>
2

>  <REMARK>
 VINA RESULT:      -4.9      2.177      3.474
  Name = 
  20 active torsions:
  status: ('A' for Active; 'I' for Inactive)
    1  A    between atoms: C_2  and  C_7
    2  A    between atoms: C_2  and  C_19
    3  A    between atoms: N_3  and  C_8
    4  A    between atoms: C_5  and  C_13
    5  A    between atoms: C_5  and  C_31
    6  A    between atoms: C_6  and  C_8
    7  A    between atoms: C_6  and  C_28
    8  A    between atoms: C_7  and  C_23
    9  A    between atoms: C_10  and  C_16
   10  A    between atoms: C_11  and  C_14
   11  A    between atoms: C_11  and  O_29
   12  A    between atoms: C_12  and  C_22
   13  A    between atoms: C_12  and  C_27
   14  A    between atoms: C_13  and  O_29
   15  A    between atoms: C_14  and  C_17
   16  A    between atoms: C_15  and  C_19
   17  A    between atoms: C_16  and  O_20
   18  A    between atoms: C_16  and  C_27
   19  A    between atoms: C_22  and  C_23
   20  A    between atoms: C_24  and  C_27
                            x       y       z     vdW  Elec       q    Type
                         _______ _______ _______ _____ _____    ______ ____

>  <TORSDO>
F 20

$$$$
=
 OpenBabel11042414023D

 31 31  0  0  1  0  0  0  0  0999 V2000
  190.3060  174.4340  143.7360 C   0  0  1  0  0  3  0  0  0  0  0  0
  191.6030  173.8570  143.2550 C   0  0  0  0  0  3  0  0  0  0  0  0
  192.1370  172.7910  143.8480 C   0  0  0  0  0  2  0  0  0  0  0  0
  189.2180  174.3930  142.6520 C   0  0  2  0  0  3  0  0  0  0  0  0
  188.1090  175.4150  142.8940 C   0  0  2  0  0  3  0  0  0  0  0  0
  188.1970  176.5050  141.8980 C   0  0  2  0  0  3  0  0  0  0  0  0
  188.6820  176.6600  143.2100 O   0  0  0  0  0  0  0  0  0  0  0  0
  186.8530  177.1960  141.7720 C   0  0  2  0  0  3  0  0  0  0  0  0
  186.5550  177.4550  140.3070 C   0  0  0  0  0  1  0  0  0  0  0  0
  186.8770  178.5100  142.5350 C   0  0  0  0  0  2  0  0  0  0  0  0
  185.5740  178.9490  142.7690 O   0  0  0  0  0  0  0  0  0  0  0  0
  185.0170  177.9750  143.5970 C   0  0  0  0  0  2  0  0  0  0  0  0
  185.5130  178.1720  145.0140 C   0  0  0  0  0  2  0  0  0  0  0  0
  186.9790  176.8690  146.5180 C   0  0  0  0  0  1  0  0  0  0  0  0
  185.7290  176.8230  145.6660 C   0  0  0  0  0  2  0  0  0  0  0  0
  188.5770  172.8440  141.2040 C   0  0  0  0  0  1  0  0  0  0  0  0
  188.6720  173.1080  142.5720 O   0  0  0  0  0  0  0  0  0  0  0  0
  189.8490  173.7470  145.0210 C   0  0  0  0  0  2  0  0  0  0  0  0
  189.8420  174.7120  146.2010 C   0  0  0  0  0  2  0  0  0  0  0  0
  191.0650  175.6210  146.1840 C   0  0  0  0  0  2  0  0  0  0  0  0
  192.2430  174.9920  146.9100 C   0  0  0  0  0  2  0  0  0  0  0  0
  193.5220  175.7610  146.6170 C   0  0  0  0  0  2  0  0  0  0  0  0
  193.6170  177.3690  144.8650 O   0  0  0  0  0  1  0  0  0  0  0  0
  193.6690  176.0000  145.1240 C   0  0  1  0  0  3  0  0  0  0  0  0
  195.8660  174.7990  145.5130 N   0  0  0  0  0  2  0  0  0  0  0  0
  194.9560  175.4390  144.6120 C   0  0  0  0  0  0  0  0  0  0  0  0
  195.2010  175.4720  143.3420 N   0  0  0  0  0  2  0  0  0  0  0  0
  197.1360  174.2360  145.0780 C   0  0  0  0  0  2  0  0  0  0  0  0
  197.0010  172.7440  144.8110 C   0  0  0  0  0  2  0  0  0  0  0  0
  195.2460  171.4210  145.7490 O   0  0  0  0  0  1  0  0  0  0  0  0
  196.4830  172.0020  146.0320 C   0  0  0  0  0  2  0  0  0  0  0  0
  1  2  1  6  0  0  0
  1 18  1  0  0  0  0
  2  3  2  0  0  0  0
  4 17  1  1  0  0  0
  4  1  1  0  0  0  0
  5  4  1  6  0  0  0
  5  7  1  0  0  0  0
  6  8  1  1  0  0  0
  6  5  1  0  0  0  0
  6  7  1  0  0  0  0
  8  9  1  6  0  0  0
  8 10  1  0  0  0  0
 10 11  1  0  0  0  0
 11 12  1  0  0  0  0
 12 13  1  0  0  0  0
 13 15  1  0  0  0  0
 15 14  1  0  0  0  0
 16 17  1  0  0  0  0
 18 19  1  0  0  0  0
 20 19  1  0  0  0  0
 20 21  1  0  0  0  0
 22 21  1  0  0  0  0
 24 23  1  1  0  0  0
 24 22  1  0  0  0  0
 26 24  1  0  0  0  0
 26 25  1  0  0  0  0
 27 26  2  0  0  0  0
 28 25  1  0  0  0  0
 29 28  1  0  0  0  0
 29 31  1  0  0  0  0
 30 31  1  0  0  0  0
M  END
>  <MODEL>
3

>  <REMARK>
 VINA RESULT:      -4.8      1.994      3.066
  Name = 
  20 active torsions:
  status: ('A' for Active; 'I' for Inactive)
    1  A    between atoms: C_2  and  C_7
    2  A    between atoms: C_2  and  C_19
    3  A    between atoms: N_3  and  C_8
    4  A    between atoms: C_5  and  C_13
    5  A    between atoms: C_5  and  C_31
    6  A    between atoms: C_6  and  C_8
    7  A    between atoms: C_6  and  C_28
    8  A    between atoms: C_7  and  C_23
    9  A    between atoms: C_10  and  C_16
   10  A    between atoms: C_11  and  C_14
   11  A    between atoms: C_11  and  O_29
   12  A    between atoms: C_12  and  C_22
   13  A    between atoms: C_12  and  C_27
   14  A    between atoms: C_13  and  O_29
   15  A    between atoms: C_14  and  C_17
   16  A    between atoms: C_15  and  C_19
   17  A    between atoms: C_16  and  O_20
   18  A    between atoms: C_16  and  C_27
   19  A    between atoms: C_22  and  C_23
   20  A    between atoms: C_24  and  C_27
                            x       y       z     vdW  Elec       q    Type
                         _______ _______ _______ _____ _____    ______ ____

>  <TORSDO>
F 20

$$$$
=
 OpenBabel11042414023D

 31 31  0  0  1  0  0  0  0  0999 V2000
  191.4500  176.5170  145.1850 C   0  0  1  0  0  3  0  0  0  0  0  0
  191.2780  175.4900  146.2640 C   0  0  0  0  0  3  0  0  0  0  0  0
  192.2720  175.2120  147.1050 C   0  0  0  0  0  2  0  0  0  0  0  0
  191.8110  175.8820  143.8340 C   0  0  2  0  0  3  0  0  0  0  0  0
  193.1240  176.4170  143.2670 C   0  0  2  0  0  3  0  0  0  0  0  0
  194.1000  175.3150  143.1180 C   0  0  2  0  0  3  0  0  0  0  0  0
  194.1560  176.2120  144.2010 O   0  0  0  0  0  0  0  0  0  0  0  0
  195.1530  175.6950  142.0940 C   0  0  2  0  0  3  0  0  0  0  0  0
  194.5540  175.6120  140.7020 C   0  0  0  0  0  1  0  0  0  0  0  0
  196.3400  174.7540  142.2030 C   0  0  0  0  0  2  0  0  0  0  0  0
  196.0890  173.7800  143.1700 O   0  0  0  0  0  0  0  0  0  0  0  0
  197.3500  173.4250  143.6470 C   0  0  0  0  0  2  0  0  0  0  0  0
  197.6060  174.1190  144.9670 C   0  0  0  0  0  2  0  0  0  0  0  0
  196.8800  171.9890  145.9900 C   0  0  0  0  0  1  0  0  0  0  0  0
  196.7410  173.4950  146.0420 C   0  0  0  0  0  2  0  0  0  0  0  0
  190.5340  174.8300  142.3620 C   0  0  0  0  0  1  0  0  0  0  0  0
  190.7770  176.0880  142.9160 O   0  0  0  0  0  0  0  0  0  0  0  0
  190.2110  177.4040  145.0780 C   0  0  0  0  0  2  0  0  0  0  0  0
  189.2350  177.1430  146.2200 C   0  0  0  0  0  2  0  0  0  0  0  0
  187.8490  176.7860  145.6980 C   0  0  0  0  0  2  0  0  0  0  0  0
  186.7510  177.3920  146.5580 C   0  0  0  0  0  2  0  0  0  0  0  0
  185.3910  176.8520  146.1440 C   0  0  0  0  0  2  0  0  0  0  0  0
  184.5290  178.9970  146.7120 O   0  0  0  0  0  1  0  0  0  0  0  0
  184.4640  177.9900  145.7490 C   0  0  1  0  0  3  0  0  0  0  0  0
  184.9650  177.6710  143.2870 N   0  0  0  0  0  2  0  0  0  0  0  0
  184.8300  178.5460  144.4120 C   0  0  0  0  0  0  0  0  0  0  0  0
  184.9480  179.8250  144.2690 N   0  0  0  0  0  2  0  0  0  0  0  0
  185.3240  178.1500  141.9590 C   0  0  0  0  0  2  0  0  0  0  0  0
  186.8340  178.1530  141.7780 C   0  0  0  0  0  2  0  0  0  0  0  0
  187.5590  176.1970  140.6110 O   0  0  0  0  0  1  0  0  0  0  0  0
  187.4130  176.7510  141.8840 C   0  0  0  0  0  2  0  0  0  0  0  0
  1 18  1  6  0  0  0
  1  2  1  0  0  0  0
  2  3  2  0  0  0  0
  4 17  1  6  0  0  0
  4  1  1  0  0  0  0
  5  4  1  1  0  0  0
  5  7  1  0  0  0  0
  6  8  1  6  0  0  0
  6  5  1  0  0  0  0
  6  7  1  0  0  0  0
  8  9  1  6  0  0  0
  8 10  1  0  0  0  0
 10 11  1  0  0  0  0
 11 12  1  0  0  0  0
 12 13  1  0  0  0  0
 13 15  1  0  0  0  0
 14 15  1  0  0  0  0
 16 17  1  0  0  0  0
 18 19  1  0  0  0  0
 20 19  1  0  0  0  0
 20 21  1  0  0  0  0
 22 21  1  0  0  0  0
 24 22  1  0  0  0  0
 24 23  1  1  0  0  0
 25 26  1  0  0  0  0
 26 24  1  0  0  0  0
 27 26  2  0  0  0  0
 28 25  1  0  0  0  0
 29 31  1  0  0  0  0
 29 28  1  0  0  0  0
 30 31  1  0  0  0  0
M  END
>  <MODEL>
4

>  <REMARK>
 VINA RESULT:      -4.8      3.531      8.871
  Name = 
  20 active torsions:
  status: ('A' for Active; 'I' for Inactive)
    1  A    between atoms: C_2  and  C_7
    2  A    between atoms: C_2  and  C_19
    3  A    between atoms: N_3  and  C_8
    4  A    between atoms: C_5  and  C_13
    5  A    between atoms: C_5  and  C_31
    6  A    between atoms: C_6  and  C_8
    7  A    between atoms: C_6  and  C_28
    8  A    between atoms: C_7  and  C_23
    9  A    between atoms: C_10  and  C_16
   10  A    between atoms: C_11  and  C_14
   11  A    between atoms: C_11  and  O_29
   12  A    between atoms: C_12  and  C_22
   13  A    between atoms: C_12  and  C_27
   14  A    between atoms: C_13  and  O_29
   15  A    between atoms: C_14  and  C_17
   16  A    between atoms: C_15  and  C_19
   17  A    between atoms: C_16  and  O_20
   18  A    between atoms: C_16  and  C_27
   19  A    between atoms: C_22  and  C_23
   20  A    between atoms: C_24  and  C_27
                            x       y       z     vdW  Elec       q    Type
                         _______ _______ _______ _____ _____    ______ ____

>  <TORSDO>
F 20

$$$$
=
 OpenBabel11042414023D

 31 31  0  0  1  0  0  0  0  0999 V2000
  186.7090  178.0690  144.3960 C   0  0  1  0  0  3  0  0  0  0  0  0
  185.8920  179.2680  144.7770 C   0  0  0  0  0  3  0  0  0  0  0  0
  184.5670  179.1850  144.8750 C   0  0  0  0  0  2  0  0  0  0  0  0
  187.3640  177.4050  145.6160 C   0  0  2  0  0  3  0  0  0  0  0  0
  188.6620  176.6800  145.2650 C   0  0  2  0  0  3  0  0  0  0  0  0
  189.7630  177.1640  146.1270 C   0  0  2  0  0  3  0  0  0  0  0  0
  189.6080  177.6140  144.8030 O   0  0  0  0  0  0  0  0  0  0  0  0
  190.8670  176.1250  146.1800 C   0  0  2  0  0  3  0  0  0  0  0  0
  191.0820  175.6920  147.6190 C   0  0  0  0  0  1  0  0  0  0  0  0
  192.1510  176.7110  145.6190 C   0  0  0  0  0  2  0  0  0  0  0  0
  193.1270  175.7190  145.5250 O   0  0  0  0  0  0  0  0  0  0  0  0
  193.9740  176.1530  144.5060 C   0  0  0  0  0  2  0  0  0  0  0  0
  195.3520  175.5600  144.7060 C   0  0  0  0  0  2  0  0  0  0  0  0
  196.6620  173.8850  145.9670 C   0  0  0  0  0  1  0  0  0  0  0  0
  195.3050  174.5400  145.8240 C   0  0  0  0  0  2  0  0  0  0  0  0
  186.2800  177.0070  147.5060 C   0  0  0  0  0  1  0  0  0  0  0  0
  186.4680  176.5130  146.2140 O   0  0  0  0  0  0  0  0  0  0  0  0
  185.8730  177.0750  143.5930 C   0  0  0  0  0  2  0  0  0  0  0  0
  186.1250  177.2120  142.0960 C   0  0  0  0  0  2  0  0  0  0  0  0
  187.6010  177.0400  141.7610 C   0  0  0  0  0  2  0  0  0  0  0  0
  187.8840  175.6780  141.1470 C   0  0  0  0  0  2  0  0  0  0  0  0
  188.1160  174.6410  142.2350 C   0  0  0  0  0  2  0  0  0  0  0  0
  188.3890  173.2900  140.2940 O   0  0  0  0  0  1  0  0  0  0  0  0
  188.7190  173.3770  141.6460 C   0  0  1  0  0  3  0  0  0  0  0  0
  190.7850  173.1900  143.1000 N   0  0  0  0  0  2  0  0  0  0  0  0
  190.2050  173.3640  141.8030 C   0  0  0  0  0  0  0  0  0  0  0  0
  190.9540  173.4370  140.7510 N   0  0  0  0  0  2  0  0  0  0  0  0
  192.2240  173.1730  143.3210 C   0  0  0  0  0  2  0  0  0  0  0  0
  192.5900  172.1800  144.4140 C   0  0  0  0  0  2  0  0  0  0  0  0
  193.3520  169.9410  144.7520 O   0  0  0  0  0  1  0  0  0  0  0  0
  192.6190  170.7540  143.8870 C   0  0  0  0  0  2  0  0  0  0  0  0
  1 18  1  1  0  0  0
  1  2  1  0  0  0  0
  1  4  1  0  0  0  0
  2  3  2  0  0  0  0
  4 17  1  6  0  0  0
  5  4  1  1  0  0  0
  5  6  1  0  0  0  0
  6  8  1  6  0  0  0
  7  5  1  0  0  0  0
  7  6  1  0  0  0  0
  8  9  1  1  0  0  0
 10  8  1  0  0  0  0
 11 10  1  0  0  0  0
 12 13  1  0  0  0  0
 12 11  1  0  0  0  0
 13 15  1  0  0  0  0
 15 14  1  0  0  0  0
 17 16  1  0  0  0  0
 19 18  1  0  0  0  0
 20 19  1  0  0  0  0
 21 20  1  0  0  0  0
 21 22  1  0  0  0  0
 24 23  1  6  0  0  0
 24 26  1  0  0  0  0
 24 22  1  0  0  0  0
 25 28  1  0  0  0  0
 26 25  1  0  0  0  0
 27 26  2  0  0  0  0
 28 29  1  0  0  0  0
 31 29  1  0  0  0  0
 31 30  1  0  0  0  0
M  END
>  <MODEL>
5

>  <REMARK>
 VINA RESULT:      -4.8      2.107      6.660
  Name = 
  20 active torsions:
  status: ('A' for Active; 'I' for Inactive)
    1  A    between atoms: C_2  and  C_7
    2  A    between atoms: C_2  and  C_19
    3  A    between atoms: N_3  and  C_8
    4  A    between atoms: C_5  and  C_13
    5  A    between atoms: C_5  and  C_31
    6  A    between atoms: C_6  and  C_8
    7  A    between atoms: C_6  and  C_28
    8  A    between atoms: C_7  and  C_23
    9  A    between atoms: C_10  and  C_16
   10  A    between atoms: C_11  and  C_14
   11  A    between atoms: C_11  and  O_29
   12  A    between atoms: C_12  and  C_22
   13  A    between atoms: C_12  and  C_27
   14  A    between atoms: C_13  and  O_29
   15  A    between atoms: C_14  and  C_17
   16  A    between atoms: C_15  and  C_19
   17  A    between atoms: C_16  and  O_20
   18  A    between atoms: C_16  and  C_27
   19  A    between atoms: C_22  and  C_23
   20  A    between atoms: C_24  and  C_27
                            x       y       z     vdW  Elec       q    Type
                         _______ _______ _______ _____ _____    ______ ____

>  <TORSDO>
F 20

$$$$
=
 OpenBabel11042414023D

 31 31  0  0  1  0  0  0  0  0999 V2000
  189.6150  176.1390  143.7900 C   0  0  1  0  0  3  0  0  0  0  0  0
  190.7910  176.9800  143.3910 C   0  0  0  0  0  3  0  0  0  0  0  0
  190.8610  178.2620  143.7420 C   0  0  0  0  0  2  0  0  0  0  0  0
  188.8540  175.5960  142.5700 C   0  0  2  0  0  3  0  0  0  0  0  0
  187.3430  175.7850  142.6900 C   0  0  2  0  0  3  0  0  0  0  0  0
  186.9960  177.2160  142.5450 C   0  0  2  0  0  3  0  0  0  0  0  0
  187.0600  176.5930  143.8060 O   0  0  0  0  0  0  0  0  0  0  0  0
  185.5460  177.3530  142.1220 C   0  0  2  0  0  3  0  0  0  0  0  0
  185.4800  178.0170  140.7590 C   0  0  0  0  0  1  0  0  0  0  0  0
  184.7910  178.1890  143.1420 C   0  0  0  0  0  2  0  0  0  0  0  0
  185.4680  179.3860  143.3730 O   0  0  0  0  0  0  0  0  0  0  0  0
  185.4010  179.5670  144.7540 C   0  0  0  0  0  2  0  0  0  0  0  0
  184.1770  178.8610  145.2980 C   0  0  0  0  0  2  0  0  0  0  0  0
  185.6410  179.0810  147.2780 C   0  0  0  0  0  1  0  0  0  0  0  0
  184.4780  178.3200  146.6790 C   0  0  0  0  0  2  0  0  0  0  0  0
  187.9780  173.6850  141.8710 C   0  0  0  0  0  1  0  0  0  0  0  0
  189.1510  174.2430  142.3850 O   0  0  0  0  0  0  0  0  0  0  0  0
  190.0440  175.0170  144.7320 C   0  0  0  0  0  2  0  0  0  0  0  0
  191.5620  174.9160  144.8270 C   0  0  0  0  0  2  0  0  0  0  0  0
  192.0500  175.1600  146.2490 C   0  0  0  0  0  2  0  0  0  0  0  0
  193.0070  176.3380  146.3220 C   0  0  0  0  0  2  0  0  0  0  0  0
  194.4450  175.8520  146.4070 C   0  0  0  0  0  2  0  0  0  0  0  0
  195.5710  176.8790  144.5780 O   0  0  0  0  0  1  0  0  0  0  0  0
  195.0300  175.6700  145.0160 C   0  0  1  0  0  3  0  0  0  0  0  0
  195.9420  173.4540  145.8360 N   0  0  0  0  0  2  0  0  0  0  0  0
  196.0850  174.6120  145.0080 C   0  0  0  0  0  0  0  0  0  0  0  0
  197.0840  174.7210  144.1940 N   0  0  0  0  0  2  0  0  0  0  0  0
  196.9360  172.3910  145.8770 C   0  0  0  0  0  2  0  0  0  0  0  0
  196.4280  171.1500  145.1570 C   0  0  0  0  0  2  0  0  0  0  0  0
  194.7190  169.4810  145.1120 O   0  0  0  0  0  1  0  0  0  0  0  0
  195.1730  170.5980  145.8140 C   0  0  0  0  0  2  0  0  0  0  0  0
  1  2  1  6  0  0  0
  1 18  1  0  0  0  0
  2  3  2  0  0  0  0
  4 17  1  1  0  0  0
  4  1  1  0  0  0  0
  5  4  1  1  0  0  0
  5  7  1  0  0  0  0
  6  8  1  6  0  0  0
  6  5  1  0  0  0  0
  6  7  1  0  0  0  0
  8  9  1  6  0  0  0
  8 10  1  0  0  0  0
 10 11  1  0  0  0  0
 11 12  1  0  0  0  0
 12 13  1  0  0  0  0
 13 15  1  0  0  0  0
 15 14  1  0  0  0  0
 16 17  1  0  0  0  0
 18 19  1  0  0  0  0
 19 20  1  0  0  0  0
 20 21  1  0  0  0  0
 21 22  1  0  0  0  0
 24 23  1  1  0  0  0
 24 22  1  0  0  0  0
 25 28  1  0  0  0  0
 26 24  1  0  0  0  0
 26 25  1  0  0  0  0
 27 26  2  0  0  0  0
 29 31  1  0  0  0  0
 29 28  1  0  0  0  0
 30 31  1  0  0  0  0
M  END
>  <MODEL>
6

>  <REMARK>
 VINA RESULT:      -4.8      1.871      2.565
  Name = 
  20 active torsions:
  status: ('A' for Active; 'I' for Inactive)
    1  A    between atoms: C_2  and  C_7
    2  A    between atoms: C_2  and  C_19
    3  A    between atoms: N_3  and  C_8
    4  A    between atoms: C_5  and  C_13
    5  A    between atoms: C_5  and  C_31
    6  A    between atoms: C_6  and  C_8
    7  A    between atoms: C_6  and  C_28
    8  A    between atoms: C_7  and  C_23
    9  A    between atoms: C_10  and  C_16
   10  A    between atoms: C_11  and  C_14
   11  A    between atoms: C_11  and  O_29
   12  A    between atoms: C_12  and  C_22
   13  A    between atoms: C_12  and  C_27
   14  A    between atoms: C_13  and  O_29
   15  A    between atoms: C_14  and  C_17
   16  A    between atoms: C_15  and  C_19
   17  A    between atoms: C_16  and  O_20
   18  A    between atoms: C_16  and  C_27
   19  A    between atoms: C_22  and  C_23
   20  A    between atoms: C_24  and  C_27
                            x       y       z     vdW  Elec       q    Type
                         _______ _______ _______ _____ _____    ______ ____

>  <TORSDO>
F 20

$$$$
=
 OpenBabel11042414023D

 31 31  0  0  1  0  0  0  0  0999 V2000
  186.7130  178.0720  144.5800 C   0  0  1  0  0  3  0  0  0  0  0  0
  185.9100  179.2950  144.9120 C   0  0  0  0  0  3  0  0  0  0  0  0
  184.7890  179.5740  144.2510 C   0  0  0  0  0  2  0  0  0  0  0  0
  187.3530  177.4450  145.8280 C   0  0  2  0  0  3  0  0  0  0  0  0
  188.6440  176.6940  145.5100 C   0  0  2  0  0  3  0  0  0  0  0  0
  189.7230  177.1290  146.4250 C   0  0  2  0  0  3  0  0  0  0  0  0
  189.6310  177.6120  145.1070 O   0  0  0  0  0  0  0  0  0  0  0  0
  190.7970  176.0610  146.4980 C   0  0  2  0  0  3  0  0  0  0  0  0
  191.0440  175.6930  147.9500 C   0  0  0  0  0  1  0  0  0  0  0  0
  192.0800  176.5790  145.8700 C   0  0  0  0  0  2  0  0  0  0  0  0
  193.1650  176.2920  146.6980 O   0  0  0  0  0  0  0  0  0  0  0  0
  194.2650  176.8370  146.0360 C   0  0  0  0  0  2  0  0  0  0  0  0
  194.8700  175.7950  145.1190 C   0  0  0  0  0  2  0  0  0  0  0  0
  196.4160  175.4400  143.2230 C   0  0  0  0  0  1  0  0  0  0  0  0
  195.6950  176.4810  144.0510 C   0  0  0  0  0  2  0  0  0  0  0  0
  186.1910  177.1690  147.6930 C   0  0  0  0  0  1  0  0  0  0  0  0
  186.4430  176.5850  146.4510 O   0  0  0  0  0  0  0  0  0  0  0  0
  185.8660  177.0600  143.8100 C   0  0  0  0  0  2  0  0  0  0  0  0
  186.4500  176.7760  142.4310 C   0  0  0  0  0  2  0  0  0  0  0  0
  187.1610  175.4300  142.3930 C   0  0  0  0  0  2  0  0  0  0  0  0
  188.4130  175.4790  141.5310 C   0  0  0  0  0  2  0  0  0  0  0  0
  189.3090  174.2860  141.8250 C   0  0  0  0  0  2  0  0  0  0  0  0
  189.8590  173.6570  144.0540 O   0  0  0  0  0  1  0  0  0  0  0  0
  190.1790  174.5600  143.0400 C   0  0  1  0  0  3  0  0  0  0  0  0
  192.2530  173.1580  142.6540 N   0  0  0  0  0  2  0  0  0  0  0  0
  191.6300  174.4460  142.7030 C   0  0  0  0  0  0  0  0  0  0  0  0
  192.2920  175.5100  142.3870 N   0  0  0  0  0  2  0  0  0  0  0  0
  193.6630  172.9790  142.3360 C   0  0  0  0  0  2  0  0  0  0  0  0
  194.4120  172.3930  143.5230 C   0  0  0  0  0  2  0  0  0  0  0  0
  194.2090  171.9240  145.8580 O   0  0  0  0  0  1  0  0  0  0  0  0
  193.4750  172.0920  144.6820 C   0  0  0  0  0  2  0  0  0  0  0  0
  1 18  1  1  0  0  0
  1  2  1  0  0  0  0
  1  4  1  0  0  0  0
  3  2  2  0  0  0  0
  4 17  1  6  0  0  0
  5  4  1  1  0  0  0
  5  6  1  0  0  0  0
  6  8  1  6  0  0  0
  7  5  1  0  0  0  0
  7  6  1  0  0  0  0
  8  9  1  1  0  0  0
 10  8  1  0  0  0  0
 10 11  1  0  0  0  0
 12 11  1  0  0  0  0
 13 12  1  0  0  0  0
 14 15  1  0  0  0  0
 15 13  1  0  0  0  0
 17 16  1  0  0  0  0
 19 18  1  0  0  0  0
 20 19  1  0  0  0  0
 21 22  1  0  0  0  0
 21 20  1  0  0  0  0
 22 24  1  0  0  0  0
 24 23  1  1  0  0  0
 25 26  1  0  0  0  0
 26 24  1  0  0  0  0
 27 26  2  0  0  0  0
 28 25  1  0  0  0  0
 28 29  1  0  0  0  0
 29 31  1  0  0  0  0
 31 30  1  0  0  0  0
M  END
>  <MODEL>
7

>  <REMARK>
 VINA RESULT:      -4.7      1.966      6.423
  Name = 
  20 active torsions:
  status: ('A' for Active; 'I' for Inactive)
    1  A    between atoms: C_2  and  C_7
    2  A    between atoms: C_2  and  C_19
    3  A    between atoms: N_3  and  C_8
    4  A    between atoms: C_5  and  C_13
    5  A    between atoms: C_5  and  C_31
    6  A    between atoms: C_6  and  C_8
    7  A    between atoms: C_6  and  C_28
    8  A    between atoms: C_7  and  C_23
    9  A    between atoms: C_10  and  C_16
   10  A    between atoms: C_11  and  C_14
   11  A    between atoms: C_11  and  O_29
   12  A    between atoms: C_12  and  C_22
   13  A    between atoms: C_12  and  C_27
   14  A    between atoms: C_13  and  O_29
   15  A    between atoms: C_14  and  C_17
   16  A    between atoms: C_15  and  C_19
   17  A    between atoms: C_16  and  O_20
   18  A    between atoms: C_16  and  C_27
   19  A    between atoms: C_22  and  C_23
   20  A    between atoms: C_24  and  C_27
                            x       y       z     vdW  Elec       q    Type
                         _______ _______ _______ _____ _____    ______ ____

>  <TORSDO>
F 20

$$$$
=
 OpenBabel11042414023D

 31 31  0  0  1  0  0  0  0  0999 V2000
  190.2800  175.7720  144.4290 C   0  0  1  0  0  3  0  0  0  0  0  0
  190.2050  175.1570  143.0630 C   0  0  0  0  0  3  0  0  0  0  0  0
  191.2980  175.0190  142.3170 C   0  0  0  0  0  2  0  0  0  0  0  0
  189.1400  175.2950  145.3410 C   0  0  2  0  0  3  0  0  0  0  0  0
  188.4780  176.4410  146.1020 C   0  0  2  0  0  3  0  0  0  0  0  0
  187.3190  176.9560  145.3390 C   0  0  2  0  0  3  0  0  0  0  0  0
  188.5600  177.6190  145.3380 O   0  0  0  0  0  0  0  0  0  0  0  0
  186.3650  177.6730  146.2760 C   0  0  2  0  0  3  0  0  0  0  0  0
  185.1410  176.8060  146.5070 C   0  0  0  0  0  1  0  0  0  0  0  0
  185.9500  179.0020  145.6670 C   0  0  0  0  0  2  0  0  0  0  0  0
  184.8400  178.8230  144.8430 O   0  0  0  0  0  0  0  0  0  0  0  0
  185.1980  179.4230  143.6360 C   0  0  0  0  0  2  0  0  0  0  0  0
  185.2480  178.3740  142.5460 C   0  0  0  0  0  2  0  0  0  0  0  0
  186.9570  176.8450  141.6210 C   0  0  0  0  0  1  0  0  0  0  0  0
  186.6570  178.2790  142.0010 C   0  0  0  0  0  2  0  0  0  0  0  0
  188.9650  174.6210  147.4440 C   0  0  0  0  0  1  0  0  0  0  0  0
  189.6170  174.3380  146.2420 O   0  0  0  0  0  0  0  0  0  0  0  0
  191.6490  175.5270  145.0610 C   0  0  0  0  0  2  0  0  0  0  0  0
  192.1070  176.7230  145.8860 C   0  0  0  0  0  2  0  0  0  0  0  0
  193.3420  176.3900  146.7130 C   0  0  0  0  0  2  0  0  0  0  0  0
  194.5830  176.2620  145.8430 C   0  0  0  0  0  2  0  0  0  0  0  0
  195.2940  174.9470  146.1200 C   0  0  0  0  0  2  0  0  0  0  0  0
  197.3420  174.4360  145.0180 O   0  0  0  0  0  1  0  0  0  0  0  0
  195.9570  174.4230  144.8570 C   0  0  1  0  0  3  0  0  0  0  0  0
  194.9460  172.2140  145.5760 N   0  0  0  0  0  2  0  0  0  0  0  0
  195.5000  173.0350  144.5430 C   0  0  0  0  0  0  0  0  0  0  0  0
  195.5410  172.6160  143.3200 N   0  0  0  0  0  2  0  0  0  0  0  0
  194.4870  170.8530  145.3370 C   0  0  0  0  0  2  0  0  0  0  0  0
  195.3680  169.8510  146.0680 C   0  0  0  0  0  2  0  0  0  0  0  0
  194.8740  168.5290  147.9970 O   0  0  0  0  0  1  0  0  0  0  0  0
  194.5500  168.7090  146.6510 C   0  0  0  0  0  2  0  0  0  0  0  0
  1  2  1  6  0  0  0
  1 18  1  0  0  0  0
  1  4  1  0  0  0  0
  3  2  2  0  0  0  0
  4 17  1  1  0  0  0
  5  4  1  6  0  0  0
  6  5  1  0  0  0  0
  6  8  1  1  0  0  0
  7  6  1  0  0  0  0
  7  5  1  0  0  0  0
  8  9  1  6  0  0  0
 10  8  1  0  0  0  0
 11 10  1  0  0  0  0
 12 11  1  0  0  0  0
 13 12  1  0  0  0  0
 14 15  1  0  0  0  0
 15 13  1  0  0  0  0
 17 16  1  0  0  0  0
 18 19  1  0  0  0  0
 19 20  1  0  0  0  0
 21 22  1  0  0  0  0
 21 20  1  0  0  0  0
 24 23  1  1  0  0  0
 24 22  1  0  0  0  0
 26 24  1  0  0  0  0
 26 25  1  0  0  0  0
 27 26  2  0  0  0  0
 28 25  1  0  0  0  0
 28 29  1  0  0  0  0
 29 31  1  0  0  0  0
 31 30  1  0  0  0  0
M  END
>  <MODEL>
8

>  <REMARK>
 VINA RESULT:      -4.7      2.097      3.354
  Name = 
  20 active torsions:
  status: ('A' for Active; 'I' for Inactive)
    1  A    between atoms: C_2  and  C_7
    2  A    between atoms: C_2  and  C_19
    3  A    between atoms: N_3  and  C_8
    4  A    between atoms: C_5  and  C_13
    5  A    between atoms: C_5  and  C_31
    6  A    between atoms: C_6  and  C_8
    7  A    between atoms: C_6  and  C_28
    8  A    between atoms: C_7  and  C_23
    9  A    between atoms: C_10  and  C_16
   10  A    between atoms: C_11  and  C_14
   11  A    between atoms: C_11  and  O_29
   12  A    between atoms: C_12  and  C_22
   13  A    between atoms: C_12  and  C_27
   14  A    between atoms: C_13  and  O_29
   15  A    between atoms: C_14  and  C_17
   16  A    between atoms: C_15  and  C_19
   17  A    between atoms: C_16  and  O_20
   18  A    between atoms: C_16  and  C_27
   19  A    between atoms: C_22  and  C_23
   20  A    between atoms: C_24  and  C_27
                            x       y       z     vdW  Elec       q    Type
                         _______ _______ _______ _____ _____    ______ ____

>  <TORSDO>
F 20

$$$$
=
 OpenBabel11042414023D

 31 31  0  0  1  0  0  0  0  0999 V2000
  189.8730  173.9120  142.1900 C   0  0  1  0  0  3  0  0  0  0  0  0
  189.2170  173.4040  143.4400 C   0  0  0  0  0  3  0  0  0  0  0  0
  189.9210  172.7520  144.3620 C   0  0  0  0  0  2  0  0  0  0  0  0
  188.8640  174.5650  141.2330 C   0  0  2  0  0  3  0  0  0  0  0  0
  187.8340  175.4250  141.9630 C   0  0  2  0  0  3  0  0  0  0  0  0
  187.7030  176.7380  141.2930 C   0  0  2  0  0  3  0  0  0  0  0  0
  188.4630  176.5780  142.4670 O   0  0  0  0  0  0  0  0  0  0  0  0
  186.3630  177.3600  141.6390 C   0  0  2  0  0  3  0  0  0  0  0  0
  185.6840  177.8310  140.3670 C   0  0  0  0  0  1  0  0  0  0  0  0
  186.5700  178.5340  142.5810 C   0  0  0  0  0  2  0  0  0  0  0  0
  185.3380  179.0760  142.9440 O   0  0  0  0  0  0  0  0  0  0  0  0
  185.4990  179.4570  144.2760 C   0  0  0  0  0  2  0  0  0  0  0  0
  186.2380  178.3690  145.0260 C   0  0  0  0  0  2  0  0  0  0  0  0
  185.5330  177.2760  147.1280 C   0  0  0  0  0  1  0  0  0  0  0  0
  186.0440  178.5610  146.5150 C   0  0  0  0  0  2  0  0  0  0  0  0
  188.6190  173.8140  139.1640 C   0  0  0  0  0  1  0  0  0  0  0  0
  188.2150  173.5820  140.4800 O   0  0  0  0  0  0  0  0  0  0  0  0
  191.0240  174.8580  142.5270 C   0  0  0  0  0  2  0  0  0  0  0  0
  192.2750  174.5260  141.7210 C   0  0  0  0  0  2  0  0  0  0  0  0
  192.9390  173.2500  142.2230 C   0  0  0  0  0  2  0  0  0  0  0  0
  194.2160  173.5460  142.9930 C   0  0  0  0  0  2  0  0  0  0  0  0
  193.9390  173.5920  144.4870 C   0  0  0  0  0  2  0  0  0  0  0  0
  194.9270  175.7170  144.0710 O   0  0  0  0  0  1  0  0  0  0  0  0
  194.4820  174.8770  145.0910 C   0  0  1  0  0  3  0  0  0  0  0  0
  192.2530  174.8770  146.2950 N   0  0  0  0  0  2  0  0  0  0  0  0
  193.4390  175.5750  145.9010 C   0  0  0  0  0  0  0  0  0  0  0  0
  193.6540  176.7860  146.3010 N   0  0  0  0  0  2  0  0  0  0  0  0
  191.1980  175.5020  147.0800 C   0  0  0  0  0  2  0  0  0  0  0  0
  190.0910  176.0230  146.1760 C   0  0  0  0  0  2  0  0  0  0  0  0
  188.8710  174.5650  147.6240 O   0  0  0  0  0  1  0  0  0  0  0  0
  188.7250  175.5220  146.6180 C   0  0  0  0  0  2  0  0  0  0  0  0
  1 18  1  1  0  0  0
  1  2  1  0  0  0  0
  2  3  2  0  0  0  0
  4 17  1  1  0  0  0
  4  1  1  0  0  0  0
  5  4  1  6  0  0  0
  5  7  1  0  0  0  0
  6  8  1  1  0  0  0
  6  5  1  0  0  0  0
  6  7  1  0  0  0  0
  8  9  1  6  0  0  0
  8 10  1  0  0  0  0
 10 11  1  0  0  0  0
 11 12  1  0  0  0  0
 12 13  1  0  0  0  0
 13 15  1  0  0  0  0
 15 14  1  0  0  0  0
 16 17  1  0  0  0  0
 19 20  1  0  0  0  0
 19 18  1  0  0  0  0
 20 21  1  0  0  0  0
 21 22  1  0  0  0  0
 22 24  1  0  0  0  0
 24 23  1  6  0  0  0
 24 26  1  0  0  0  0
 25 28  1  0  0  0  0
 26 25  1  0  0  0  0
 26 27  2  0  0  0  0
 29 31  1  0  0  0  0
 29 28  1  0  0  0  0
 31 30  1  0  0  0  0
M  END
>  <MODEL>
9

>  <REMARK>
 VINA RESULT:      -4.7      2.076      3.385
  Name = 
  20 active torsions:
  status: ('A' for Active; 'I' for Inactive)
    1  A    between atoms: C_2  and  C_7
    2  A    between atoms: C_2  and  C_19
    3  A    between atoms: N_3  and  C_8
    4  A    between atoms: C_5  and  C_13
    5  A    between atoms: C_5  and  C_31
    6  A    between atoms: C_6  and  C_8
    7  A    between atoms: C_6  and  C_28
    8  A    between atoms: C_7  and  C_23
    9  A    between atoms: C_10  and  C_16
   10  A    between atoms: C_11  and  C_14
   11  A    between atoms: C_11  and  O_29
   12  A    between atoms: C_12  and  C_22
   13  A    between atoms: C_12  and  C_27
   14  A    between atoms: C_13  and  O_29
   15  A    between atoms: C_14  and  C_17
   16  A    between atoms: C_15  and  C_19
   17  A    between atoms: C_16  and  O_20
   18  A    between atoms: C_16  and  C_27
   19  A    between atoms: C_22  and  C_23
   20  A    between atoms: C_24  and  C_27
                            x       y       z     vdW  Elec       q    Type
                         _______ _______ _______ _____ _____    ______ ____

>  <TORSDO>
F 20

$$$$
