=
 OpenBabel11042417553D

 55 59  0  0  1  0  0  0  0  0999 V2000
  190.5130  174.8230  142.6970 C   0  0  0  0  0  0  0  0  0  0  0  0
  188.6980  176.4140  142.9320 C   0  0  0  0  0  0  0  0  0  0  0  0
  189.4220  177.0940  143.8610 N   0  0  0  0  0  0  0  0  0  0  0  0
  189.2350  175.2740  142.3330 C   0  0  0  0  0  3  0  0  0  0  0  0
  190.6530  176.6730  144.2520 C   0  0  0  0  0  3  0  0  0  0  0  0
  191.2200  175.5230  143.7000 C   0  0  0  0  0  0  0  0  0  0  0  0
  193.4120  176.4150  142.2940 O   0  0  0  0  0  1  0  0  0  0  0  0
  194.5620  176.8210  146.6070 C   0  0  0  0  0  2  0  0  0  0  0  0
  194.0820  176.2310  145.5260 C   0  0  0  0  0  0  0  0  0  0  0  0
  192.8420  175.6380  145.4760 O   0  0  0  0  0  0  0  0  0  0  0  0
  194.7930  176.1810  144.2320 C   0  0  0  0  0  2  0  0  0  0  0  0
  192.5830  175.1050  144.1910 C   0  0  2  0  0  3  0  0  0  0  0  0
  193.7880  175.5050  143.2890 C   0  0  1  0  0  0  0  0  0  0  0  0
  194.4460  174.3550  141.1530 C   0  0  0  0  0  3  0  0  0  0  0  0
  194.4460  174.2690  142.6450 C   0  0  1  0  0  3  0  0  0  0  0  0
  195.9330  174.2030  143.0060 C   0  0  2  0  0  3  0  0  0  0  0  0
  195.6680  174.3120  140.6450 C   0  0  0  0  0  3  0  0  0  0  0  0
  196.7130  174.1790  141.6960 C   0  0  0  0  0  2  0  0  0  0  0  0
  195.4230  171.8740  143.9190 C   0  0  0  0  0  0  0  0  0  0  0  0
  194.2890  171.8580  143.3720 O   0  0  0  0  0  0  0  0  0  0  0  0
  196.2420  173.0610  143.8690 N   0  0  0  0  0  0  0  0  0  0  0  0
  197.3710  173.2010  144.7850 C   0  0  0  0  0  2  0  0  0  0  0  0
  196.9080  173.7660  146.1190 C   0  0  0  0  0  1  0  0  0  0  0  0
  195.9160  170.6410  144.6070 C   0  0  0  0  0  2  0  0  0  0  0  0
  195.2560  170.4880  145.9000 N   0  0  0  0  0  2  0  0  0  0  0  0
  194.5400  168.9420  147.5100 O   0  0  0  0  0  1  0  0  0  0  0  0
  195.2390  169.0740  146.3060 C   0  0  1  0  0  0  0  0  0  0  0  0
  194.5140  168.2630  145.2660 C   0  0  0  0  0  3  0  0  0  0  0  0
  193.1850  168.1660  145.2280 C   0  0  0  0  0  2  0  0  0  0  0  0
  197.1910  168.7640  147.5090 O   0  0  0  0  0  0  0  0  0  0  0  0
  196.5880  168.5740  146.4910 N   0  0  0  0  0  0  0  0  0  0  0  0
  187.0640  178.0820  142.6370 N   0  0  0  0  0  0  0  0  0  0  0  0
  187.3930  176.8570  142.5590 N   0  0  0  0  0  0  0  0  0  0  0  0
  185.7220  178.5200  142.2690 C   0  0  1  0  0  3  0  0  0  0  0  0
  185.4040  178.1750  140.8450 C   0  0  0  0  0  0  0  0  0  0  0  0
  186.3200  177.8770  140.0330 O   0  0  0  0  0  0  0  0  0  0  0  0
  184.0750  178.0830  140.4470 O   0  0  0  0  0  1  0  0  0  0  0  0
  184.6600  177.9860  143.2420 C   0  0  0  0  0  2  0  0  0  0  0  0
  185.5410  179.3010  146.6970 C   0  0  0  0  0  3  0  0  0  0  0  0
  185.7880  178.1090  147.3860 C   0  0  0  0  0  3  0  0  0  0  0  0
  185.6800  176.8800  146.7240 C   0  0  0  0  0  3  0  0  0  0  0  0
  185.1930  179.2690  145.3440 C   0  0  0  0  0  3  0  0  0  0  0  0
  185.0880  178.0410  144.6780 C   0  0  0  0  0  0  0  0  0  0  0  0
  185.3290  176.8470  145.3720 C   0  0  0  0  0  3  0  0  0  0  0  0
  191.0840  173.6820  142.1040 O   0  0  0  0  0  0  0  0  0  0  0  0
  189.6450  172.0040  141.0270 N   0  0  0  0  0  2  0  0  0  0  0  0
  190.7260  171.5870  143.0330 O   0  0  0  0  0  0  0  0  0  0  0  0
  190.5220  172.3950  142.0890 C   0  0  0  0  0  0  0  0  0  0  0  0
  188.3160  172.9860  139.2670 N   0  0  0  0  0  0  0  0  0  0  0  0
  189.0670  174.5110  136.0480 N   0  0  0  0  0  1  0  0  0  0  0  0
  188.1730  173.5790  138.0790 N   0  0  0  0  0  0  0  0  0  0  0  0
  190.5220  173.5170  137.7340 C   0  0  0  0  0  3  0  0  0  0  0  0
  189.5420  172.6510  139.7540 C   0  0  0  0  0  0  0  0  0  0  0  0
  189.2460  173.8660  137.3010 C   0  0  0  0  0  0  0  0  0  0  0  0
  190.6700  172.9000  138.9730 C   0  0  0  0  0  3  0  0  0  0  0  0
  1  6  1  0  0  0  0
  2  3  2  0  0  0  0
  3  5  1  0  0  0  0
  4  1  2  0  0  0  0
  4  2  1  0  0  0  0
  6  5  2  0  0  0  0
  9  8  2  0  0  0  0
 10  9  1  0  0  0  0
 11  9  1  0  0  0  0
 12  6  1  6  0  0  0
 12 10  1  0  0  0  0
 13  7  1  6  0  0  0
 13 12  1  0  0  0  0
 13 11  1  0  0  0  0
 15 14  1  6  0  0  0
 15 16  1  0  0  0  0
 15 13  1  0  0  0  0
 16 21  1  6  0  0  0
 17 14  2  0  0  0  0
 17 18  1  0  0  0  0
 18 16  1  0  0  0  0
 19 24  1  0  0  0  0
 20 19  2  0  0  0  0
 21 19  1  0  0  0  0
 21 22  1  0  0  0  0
 22 23  1  0  0  0  0
 24 25  1  0  0  0  0
 25 27  1  0  0  0  0
 27 31  1  0  0  0  0
 27 26  1  1  0  0  0
 28 27  1  0  0  0  0
 29 28  2  0  0  0  0
 31 30  2  0  0  0  0
 33 32  2  0  0  0  0
 33  2  1  0  0  0  0
 34 32  1  0  0  0  0
 34 38  1  1  0  0  0
 35 34  1  0  0  0  0
 36 35  2  0  0  0  0
 37 35  1  0  0  0  0
 38 43  1  0  0  0  0
 39 40  1  0  0  0  0
 41 40  2  0  0  0  0
 42 39  2  0  0  0  0
 43 42  1  0  0  0  0
 43 44  2  0  0  0  0
 44 41  1  0  0  0  0
 45  1  1  0  0  0  0
 46 48  1  0  0  0  0
 48 45  1  0  0  0  0
 48 47  2  0  0  0  0
 49 53  2  0  0  0  0
 50 54  1  0  0  0  0
 51 49  1  0  0  0  0
 52 55  2  0  0  0  0
 53 46  1  0  0  0  0
 54 52  1  0  0  0  0
 54 51  2  0  0  0  0
 55 53  1  0  0  0  0
M  END
>  <MODEL>
1

>  <REMARK>
 VINA RESULT:      -7.7      0.000      0.000
  Name = 
  17 active torsions:
  status: ('A' for Active; 'I' for Inactive)
    1  A    between atoms: C_1  and  C_31
    2  A    between atoms: C_2  and  C_8
    3  A    between atoms: C_7  and  O_9
    4  A    between atoms: C_8  and  N_13
    5  A    between atoms: C_8  and  C_30
    6  A    between atoms: O_9  and  C_51
    7  A    between atoms: C_10  and  C_23
    8  A    between atoms: C_12  and  C_50
    9  A    between atoms: C_14  and  N_40
   10  A    between atoms: C_17  and  N_52
   11  A    between atoms: N_18  and  C_42
   12  A    between atoms: C_23  and  N_33
   13  A    between atoms: C_30  and  C_37
   14  A    between atoms: C_31  and  N_33
   15  A    between atoms: C_31  and  N_43
   16  A    between atoms: C_34  and  N_52
   17  A    between atoms: C_45  and  C_47
                            x       y       z     vdW  Elec       q    Type
                         _______ _______ _______ _____ _____    ______ ____

>  <TORSDO>
F 17

$$$$
=
 OpenBabel11042417553D

 55 59  0  0  1  0  0  0  0  0999 V2000
  190.0750  173.5940  141.3610 C   0  0  0  0  0  0  0  0  0  0  0  0
  188.3310  175.1320  142.0510 C   0  0  0  0  0  0  0  0  0  0  0  0
  187.9660  175.2920  140.7520 N   0  0  0  0  0  0  0  0  0  0  0  0
  189.3850  174.2780  142.3750 C   0  0  0  0  0  3  0  0  0  0  0  0
  188.6250  174.6630  139.7440 C   0  0  0  0  0  3  0  0  0  0  0  0
  189.7030  173.8190  140.0170 C   0  0  0  0  0  0  0  0  0  0  0  0
  188.6390  171.4720  139.0490 O   0  0  0  0  0  1  0  0  0  0  0  0
  189.7750  173.8160  135.4020 C   0  0  0  0  0  2  0  0  0  0  0  0
  189.9290  173.2780  136.6000 C   0  0  0  0  0  0  0  0  0  0  0  0
  190.3400  173.9910  137.7010 O   0  0  0  0  0  0  0  0  0  0  0  0
  189.6320  171.8640  136.9100 C   0  0  0  0  0  2  0  0  0  0  0  0
  190.3980  173.1650  138.8500 C   0  0  2  0  0  3  0  0  0  0  0  0
  189.8570  171.7680  138.4250 C   0  0  1  0  0  0  0  0  0  0  0  0
  190.2490  169.3000  138.6890 C   0  0  0  0  0  3  0  0  0  0  0  0
  190.8790  170.6540  138.7190 C   0  0  1  0  0  3  0  0  0  0  0  0
  191.9360  170.5890  137.6110 C   0  0  2  0  0  3  0  0  0  0  0  0
  190.8010  168.5060  137.7840 C   0  0  0  0  0  3  0  0  0  0  0  0
  191.9090  169.1720  137.0480 C   0  0  0  0  0  2  0  0  0  0  0  0
  193.8690  172.2490  137.7580 C   0  0  0  0  0  0  0  0  0  0  0  0
  193.3640  172.9860  136.8700 O   0  0  0  0  0  0  0  0  0  0  0  0
  193.2630  170.9830  138.0890 N   0  0  0  0  0  0  0  0  0  0  0  0
  194.0250  169.9900  138.8410 C   0  0  0  0  0  2  0  0  0  0  0  0
  193.7600  170.1320  140.3320 C   0  0  0  0  0  1  0  0  0  0  0  0
  195.0960  172.7140  138.4770 C   0  0  0  0  0  2  0  0  0  0  0  0
  195.0290  174.1560  138.7040 N   0  0  0  0  0  2  0  0  0  0  0  0
  195.7050  175.8270  140.2020 O   0  0  0  0  0  1  0  0  0  0  0  0
  195.3700  174.4730  140.0990 C   0  0  1  0  0  0  0  0  0  0  0  0
  194.1700  174.2320  140.9750 C   0  0  0  0  0  3  0  0  0  0  0  0
  193.6200  175.1920  141.7200 C   0  0  0  0  0  2  0  0  0  0  0  0
  196.7900  173.6110  141.7100 O   0  0  0  0  0  0  0  0  0  0  0  0
  196.4960  173.6770  140.5500 N   0  0  0  0  0  0  0  0  0  0  0  0
  188.0460  176.9600  143.5070 N   0  0  0  0  0  0  0  0  0  0  0  0
  187.6440  175.8280  143.0920 N   0  0  0  0  0  0  0  0  0  0  0  0
  187.3450  177.6530  144.5820 C   0  0  1  0  0  3  0  0  0  0  0  0
  186.0280  178.1980  144.1170 C   0  0  0  0  0  0  0  0  0  0  0  0
  184.9650  177.9320  144.7370 O   0  0  0  0  0  1  0  0  0  0  0  0
  185.9990  179.0910  143.0510 O   0  0  0  0  0  0  0  0  0  0  0  0
  187.1950  176.7690  145.8290 C   0  0  0  0  0  2  0  0  0  0  0  0
  190.5840  177.1480  147.5070 C   0  0  0  0  0  3  0  0  0  0  0  0
  190.8860  175.8160  147.8120 C   0  0  0  0  0  3  0  0  0  0  0  0
  189.9940  174.7960  147.4610 C   0  0  0  0  0  3  0  0  0  0  0  0
  189.3940  177.4620  146.8450 C   0  0  0  0  0  3  0  0  0  0  0  0
  188.5020  176.4430  146.4890 C   0  0  0  0  0  0  0  0  0  0  0  0
  188.8030  175.1100  146.8020 C   0  0  0  0  0  3  0  0  0  0  0  0
  191.1360  172.7200  141.6570 O   0  0  0  0  0  0  0  0  0  0  0  0
  191.9870  171.3210  143.4920 N   0  0  0  0  0  2  0  0  0  0  0  0
  190.1860  170.6710  142.1880 O   0  0  0  0  0  0  0  0  0  0  0  0
  191.0480  171.5550  142.4370 C   0  0  0  0  0  0  0  0  0  0  0  0
  194.1690  172.2170  144.0040 N   0  0  0  0  0  0  0  0  0  0  0  0
  195.3690  175.1150  145.8550 N   0  0  0  0  0  1  0  0  0  0  0  0
  194.9790  173.1170  144.5700 N   0  0  0  0  0  0  0  0  0  0  0  0
  193.1090  174.2970  145.4360 C   0  0  0  0  0  3  0  0  0  0  0  0
  192.8160  172.3160  144.1030 C   0  0  0  0  0  0  0  0  0  0  0  0
  194.4850  174.1640  145.2760 C   0  0  0  0  0  0  0  0  0  0  0  0
  192.2650  173.3600  144.8460 C   0  0  0  0  0  3  0  0  0  0  0  0
  1 45  1  0  0  0  0
  1  4  2  0  0  0  0
  2  4  1  0  0  0  0
  2 33  1  0  0  0  0
  3  2  2  0  0  0  0
  5  6  2  0  0  0  0
  5  3  1  0  0  0  0
  6  1  1  0  0  0  0
  8  9  2  0  0  0  0
  9 11  1  0  0  0  0
  9 10  1  0  0  0  0
 10 12  1  0  0  0  0
 11 13  1  0  0  0  0
 12  6  1  1  0  0  0
 13 15  1  0  0  0  0
 13 12  1  0  0  0  0
 13  7  1  1  0  0  0
 15 14  1  6  0  0  0
 16 21  1  1  0  0  0
 16 15  1  0  0  0  0
 17 14  2  0  0  0  0
 18 16  1  0  0  0  0
 18 17  1  0  0  0  0
 19 21  1  0  0  0  0
 19 24  1  0  0  0  0
 20 19  2  0  0  0  0
 21 22  1  0  0  0  0
 22 23  1  0  0  0  0
 24 25  1  0  0  0  0
 25 27  1  0  0  0  0
 27 26  1  1  0  0  0
 27 31  1  0  0  0  0
 27 28  1  0  0  0  0
 28 29  2  0  0  0  0
 31 30  2  0  0  0  0
 32 34  1  0  0  0  0
 33 32  2  0  0  0  0
 34 38  1  1  0  0  0
 35 34  1  0  0  0  0
 35 36  1  0  0  0  0
 37 35  2  0  0  0  0
 38 43  1  0  0  0  0
 39 40  1  0  0  0  0
 41 40  2  0  0  0  0
 42 39  2  0  0  0  0
 43 44  2  0  0  0  0
 43 42  1  0  0  0  0
 44 41  1  0  0  0  0
 45 48  1  0  0  0  0
 46 53  1  0  0  0  0
 47 48  2  0  0  0  0
 48 46  1  0  0  0  0
 49 53  2  0  0  0  0
 49 51  1  0  0  0  0
 51 54  2  0  0  0  0
 53 55  1  0  0  0  0
 54 52  1  0  0  0  0
 54 50  1  0  0  0  0
 55 52  2  0  0  0  0
M  END
>  <MODEL>
2

>  <REMARK>
 VINA RESULT:      -7.6      2.954      6.648
  Name = 
  17 active torsions:
  status: ('A' for Active; 'I' for Inactive)
    1  A    between atoms: C_1  and  C_31
    2  A    between atoms: C_2  and  C_8
    3  A    between atoms: C_7  and  O_9
    4  A    between atoms: C_8  and  N_13
    5  A    between atoms: C_8  and  C_30
    6  A    between atoms: O_9  and  C_51
    7  A    between atoms: C_10  and  C_23
    8  A    between atoms: C_12  and  C_50
    9  A    between atoms: C_14  and  N_40
   10  A    between atoms: C_17  and  N_52
   11  A    between atoms: N_18  and  C_42
   12  A    between atoms: C_23  and  N_33
   13  A    between atoms: C_30  and  C_37
   14  A    between atoms: C_31  and  N_33
   15  A    between atoms: C_31  and  N_43
   16  A    between atoms: C_34  and  N_52
   17  A    between atoms: C_45  and  C_47
                            x       y       z     vdW  Elec       q    Type
                         _______ _______ _______ _____ _____    ______ ____

>  <TORSDO>
F 17

$$$$
=
 OpenBabel11042417553D

 55 59  0  0  1  0  0  0  0  0999 V2000
  189.5270  173.8370  140.5020 C   0  0  0  0  0  0  0  0  0  0  0  0
  188.1870  175.2180  141.9790 C   0  0  0  0  0  0  0  0  0  0  0  0
  189.1340  175.0930  142.9460 N   0  0  0  0  0  0  0  0  0  0  0  0
  188.3720  174.5980  140.7430 C   0  0  0  0  0  3  0  0  0  0  0  0
  190.2530  174.3470  142.7540 C   0  0  0  0  0  3  0  0  0  0  0  0
  190.4690  173.6860  141.5440 C   0  0  0  0  0  0  0  0  0  0  0  0
  190.8940  171.6850  143.3850 O   0  0  0  0  0  1  0  0  0  0  0  0
  192.0900  169.9070  139.4480 C   0  0  0  0  0  2  0  0  0  0  0  0
  192.0430  170.8120  140.4110 C   0  0  0  0  0  0  0  0  0  0  0  0
  191.7150  172.1300  140.1940 O   0  0  0  0  0  0  0  0  0  0  0  0
  192.2860  170.5090  141.8370 C   0  0  0  0  0  2  0  0  0  0  0  0
  191.7250  172.8630  141.4050 C   0  0  2  0  0  3  0  0  0  0  0  0
  192.0030  171.8410  142.5460 C   0  0  1  0  0  0  0  0  0  0  0  0
  194.4240  171.3980  143.0580 C   0  0  0  0  0  3  0  0  0  0  0  0
  193.2350  172.2460  143.3780 C   0  0  1  0  0  3  0  0  0  0  0  0
  193.6890  173.6620  143.0110 C   0  0  2  0  0  3  0  0  0  0  0  0
  195.4480  172.1120  142.6170 C   0  0  0  0  0  3  0  0  0  0  0  0
  195.1440  173.5680  142.5680 C   0  0  0  0  0  2  0  0  0  0  0  0
  193.0840  175.9760  143.9050 C   0  0  0  0  0  0  0  0  0  0  0  0
  193.0800  176.4720  142.7470 O   0  0  0  0  0  0  0  0  0  0  0  0
  193.4930  174.6080  144.1120 N   0  0  0  0  0  0  0  0  0  0  0  0
  193.8360  174.1510  145.4560 C   0  0  0  0  0  2  0  0  0  0  0  0
  195.2380  174.6080  145.8320 C   0  0  0  0  0  1  0  0  0  0  0  0
  192.6440  176.8190  145.0590 C   0  0  0  0  0  2  0  0  0  0  0  0
  191.1850  176.8670  145.1190 N   0  0  0  0  0  2  0  0  0  0  0  0
  189.7430  177.3450  146.9030 O   0  0  0  0  0  1  0  0  0  0  0  0
  190.7110  176.4450  146.4460 C   0  0  1  0  0  0  0  0  0  0  0  0
  190.0630  175.0910  146.3400 C   0  0  0  0  0  3  0  0  0  0  0  0
  189.0500  174.7160  147.1220 C   0  0  0  0  0  2  0  0  0  0  0  0
  191.9860  175.4630  148.1090 O   0  0  0  0  0  0  0  0  0  0  0  0
  191.8040  176.4110  147.3990 N   0  0  0  0  0  0  0  0  0  0  0  0
  187.0460  177.2450  142.3380 N   0  0  0  0  0  0  0  0  0  0  0  0
  187.0030  175.9820  142.2140 N   0  0  0  0  0  0  0  0  0  0  0  0
  185.8320  178.0120  142.5940 C   0  0  1  0  0  3  0  0  0  0  0  0
  185.0560  178.2480  141.3330 C   0  0  0  0  0  0  0  0  0  0  0  0
  185.6420  178.3300  140.2200 O   0  0  0  0  0  0  0  0  0  0  0  0
  183.6660  178.2710  141.3820 O   0  0  0  0  0  1  0  0  0  0  0  0
  184.9700  177.3680  143.6890 C   0  0  0  0  0  2  0  0  0  0  0  0
  185.7480  179.3280  146.8520 C   0  0  0  0  0  3  0  0  0  0  0  0
  186.1680  178.3040  147.7090 C   0  0  0  0  0  3  0  0  0  0  0  0
  186.2100  176.9810  147.2540 C   0  0  0  0  0  3  0  0  0  0  0  0
  185.3760  179.0320  145.5380 C   0  0  0  0  0  3  0  0  0  0  0  0
  185.4200  177.7090  145.0790 C   0  0  0  0  0  0  0  0  0  0  0  0
  185.8340  176.6840  145.9410 C   0  0  0  0  0  3  0  0  0  0  0  0
  189.7450  173.2080  139.2640 O   0  0  0  0  0  0  0  0  0  0  0  0
  190.5000  174.1640  137.1270 N   0  0  0  0  0  2  0  0  0  0  0  0
  188.2530  173.9360  137.6430 O   0  0  0  0  0  0  0  0  0  0  0  0
  189.4460  173.7490  138.0020 C   0  0  0  0  0  0  0  0  0  0  0  0
  192.7870  174.6230  137.7470 N   0  0  0  0  0  0  0  0  0  0  0  0
  195.9080  172.7550  137.5610 N   0  0  0  0  0  1  0  0  0  0  0  0
  194.0780  174.2930  137.8480 N   0  0  0  0  0  0  0  0  0  0  0  0
  193.6440  172.1780  136.8600 C   0  0  0  0  0  3  0  0  0  0  0  0
  191.8710  173.7620  137.2280 C   0  0  0  0  0  0  0  0  0  0  0  0
  194.5320  173.0860  137.4280 C   0  0  0  0  0  0  0  0  0  0  0  0
  192.2990  172.5220  136.7560 C   0  0  0  0  0  3  0  0  0  0  0  0
  1  4  2  0  0  0  0
  1  6  1  0  0  0  0
  2 33  1  0  0  0  0
  2  3  2  0  0  0  0
  4  2  1  0  0  0  0
  5  3  1  0  0  0  0
  6  5  2  0  0  0  0
  8  9  2  0  0  0  0
  9 11  1  0  0  0  0
 10  9  1  0  0  0  0
 10 12  1  0  0  0  0
 11 13  1  0  0  0  0
 12  6  1  1  0  0  0
 12 13  1  0  0  0  0
 13 15  1  0  0  0  0
 13  7  1  1  0  0  0
 15 14  1  6  0  0  0
 16 15  1  0  0  0  0
 16 21  1  1  0  0  0
 17 14  2  0  0  0  0
 18 17  1  0  0  0  0
 18 16  1  0  0  0  0
 19 21  1  0  0  0  0
 19 24  1  0  0  0  0
 20 19  2  0  0  0  0
 21 22  1  0  0  0  0
 22 23  1  0  0  0  0
 24 25  1  0  0  0  0
 25 27  1  0  0  0  0
 27 26  1  1  0  0  0
 27 31  1  0  0  0  0
 28 27  1  0  0  0  0
 28 29  2  0  0  0  0
 31 30  2  0  0  0  0
 32 34  1  0  0  0  0
 33 32  2  0  0  0  0
 34 38  1  1  0  0  0
 35 37  1  0  0  0  0
 35 34  1  0  0  0  0
 36 35  2  0  0  0  0
 38 43  1  0  0  0  0
 39 40  1  0  0  0  0
 41 40  2  0  0  0  0
 42 39  2  0  0  0  0
 43 42  1  0  0  0  0
 43 44  2  0  0  0  0
 44 41  1  0  0  0  0
 45  1  1  0  0  0  0
 46 53  1  0  0  0  0
 46 48  1  0  0  0  0
 47 48  2  0  0  0  0
 48 45  1  0  0  0  0
 49 51  1  0  0  0  0
 52 54  1  0  0  0  0
 53 49  2  0  0  0  0
 54 50  1  0  0  0  0
 54 51  2  0  0  0  0
 55 52  2  0  0  0  0
 55 53  1  0  0  0  0
M  END
>  <MODEL>
3

>  <REMARK>
 VINA RESULT:      -7.5      2.604      4.845
  Name = 
  17 active torsions:
  status: ('A' for Active; 'I' for Inactive)
    1  A    between atoms: C_1  and  C_31
    2  A    between atoms: C_2  and  C_8
    3  A    between atoms: C_7  and  O_9
    4  A    between atoms: C_8  and  N_13
    5  A    between atoms: C_8  and  C_30
    6  A    between atoms: O_9  and  C_51
    7  A    between atoms: C_10  and  C_23
    8  A    between atoms: C_12  and  C_50
    9  A    between atoms: C_14  and  N_40
   10  A    between atoms: C_17  and  N_52
   11  A    between atoms: N_18  and  C_42
   12  A    between atoms: C_23  and  N_33
   13  A    between atoms: C_30  and  C_37
   14  A    between atoms: C_31  and  N_33
   15  A    between atoms: C_31  and  N_43
   16  A    between atoms: C_34  and  N_52
   17  A    between atoms: C_45  and  C_47
                            x       y       z     vdW  Elec       q    Type
                         _______ _______ _______ _____ _____    ______ ____

>  <TORSDO>
F 17

$$$$
=
 OpenBabel11042417553D

 55 59  0  0  1  0  0  0  0  0999 V2000
  190.4250  175.2090  142.6840 C   0  0  0  0  0  0  0  0  0  0  0  0
  189.2800  177.3470  142.6800 C   0  0  0  0  0  0  0  0  0  0  0  0
  190.4250  177.9540  143.0880 N   0  0  0  0  0  0  0  0  0  0  0  0
  189.2640  175.9680  142.4670 C   0  0  0  0  0  3  0  0  0  0  0  0
  191.5600  177.2470  143.3290 C   0  0  0  0  0  3  0  0  0  0  0  0
  191.5860  175.8630  143.1540 C   0  0  0  0  0  0  0  0  0  0  0  0
  193.7140  176.2930  141.4630 O   0  0  0  0  0  1  0  0  0  0  0  0
  195.4880  176.3000  145.5790 C   0  0  0  0  0  2  0  0  0  0  0  0
  194.7490  175.8650  144.5730 C   0  0  0  0  0  0  0  0  0  0  0  0
  193.4130  175.5620  144.6930 O   0  0  0  0  0  0  0  0  0  0  0  0
  195.2530  175.6990  143.1940 C   0  0  0  0  0  2  0  0  0  0  0  0
  192.8740  175.1390  143.4540 C   0  0  2  0  0  3  0  0  0  0  0  0
  194.0070  175.2910  142.3970 C   0  0  1  0  0  0  0  0  0  0  0  0
  193.7930  172.7880  142.4530 C   0  0  0  0  0  3  0  0  0  0  0  0
  194.2810  173.9620  141.6680 C   0  0  1  0  0  3  0  0  0  0  0  0
  193.4780  173.8880  140.3660 C   0  0  2  0  0  3  0  0  0  0  0  0
  192.8950  172.0760  141.7910 C   0  0  0  0  0  3  0  0  0  0  0  0
  192.6210  172.6300  140.4370 C   0  0  0  0  0  2  0  0  0  0  0  0
  193.8520  174.2580  137.8680 C   0  0  0  0  0  0  0  0  0  0  0  0
  192.6140  174.3400  137.6480 O   0  0  0  0  0  0  0  0  0  0  0  0
  194.3400  173.9190  139.1820 N   0  0  0  0  0  0  0  0  0  0  0  0
  195.7230  173.4800  139.3500 C   0  0  0  0  0  2  0  0  0  0  0  0
  195.8420  171.9850  139.0980 C   0  0  0  0  0  1  0  0  0  0  0  0
  194.8080  174.5330  136.7510 C   0  0  0  0  0  2  0  0  0  0  0  0
  194.9740  175.9730  136.5750 N   0  0  0  0  0  2  0  0  0  0  0  0
  194.0530  175.2710  134.5370 O   0  0  0  0  0  1  0  0  0  0  0  0
  194.4460  176.3960  135.2680 C   0  0  1  0  0  0  0  0  0  0  0  0
  193.2290  177.2550  135.4740 C   0  0  0  0  0  3  0  0  0  0  0  0
  192.0130  176.8880  135.0690 C   0  0  0  0  0  2  0  0  0  0  0  0
  195.8390  178.1980  134.8560 O   0  0  0  0  0  0  0  0  0  0  0  0
  195.4540  177.1160  134.5130 N   0  0  0  0  0  0  0  0  0  0  0  0
  186.9540  177.5430  142.3770 N   0  0  0  0  0  0  0  0  0  0  0  0
  188.0900  178.1050  142.4630 N   0  0  0  0  0  0  0  0  0  0  0  0
  185.7480  178.3270  142.1390 C   0  0  1  0  0  3  0  0  0  0  0  0
  185.2640  178.1780  140.7280 C   0  0  0  0  0  0  0  0  0  0  0  0
  185.9750  177.6040  139.8600 O   0  0  0  0  0  0  0  0  0  0  0  0
  183.9750  178.5860  140.4020 O   0  0  0  0  0  1  0  0  0  0  0  0
  184.6480  178.0070  143.1620 C   0  0  0  0  0  2  0  0  0  0  0  0
  186.0930  176.8650  146.4870 C   0  0  0  0  0  3  0  0  0  0  0  0
  186.1300  178.0710  147.1950 C   0  0  0  0  0  3  0  0  0  0  0  0
  185.6740  179.2510  146.5960 C   0  0  0  0  0  3  0  0  0  0  0  0
  185.5940  176.8350  145.1810 C   0  0  0  0  0  3  0  0  0  0  0  0
  185.1330  178.0130  144.5810 C   0  0  0  0  0  0  0  0  0  0  0  0
  185.1780  179.2220  145.2900 C   0  0  0  0  0  3  0  0  0  0  0  0
  190.4430  173.8190  142.4690 O   0  0  0  0  0  0  0  0  0  0  0  0
  188.4510  172.6750  141.5890 N   0  0  0  0  0  2  0  0  0  0  0  0
  189.1370  172.4290  143.7880 O   0  0  0  0  0  0  0  0  0  0  0  0
  189.3620  172.9430  142.6610 C   0  0  0  0  0  0  0  0  0  0  0  0
  188.2290  174.0460  139.6150 N   0  0  0  0  0  0  0  0  0  0  0  0
  189.3410  173.7470  136.1600 N   0  0  0  0  0  1  0  0  0  0  0  0
  188.4350  174.3030  138.3200 N   0  0  0  0  0  0  0  0  0  0  0  0
  189.6100  172.2550  138.0710 C   0  0  0  0  0  3  0  0  0  0  0  0
  188.7080  172.9150  140.2010 C   0  0  0  0  0  0  0  0  0  0  0  0
  189.1240  173.4420  137.5310 C   0  0  0  0  0  0  0  0  0  0  0  0
  189.3960  171.9870  139.4200 C   0  0  0  0  0  3  0  0  0  0  0  0
  1  6  1  0  0  0  0
  2  3  2  0  0  0  0
  3  5  1  0  0  0  0
  4  2  1  0  0  0  0
  4  1  2  0  0  0  0
  6  5  2  0  0  0  0
  9 10  1  0  0  0  0
  9  8  2  0  0  0  0
 11  9  1  0  0  0  0
 12  6  1  6  0  0  0
 12 10  1  0  0  0  0
 13  7  1  6  0  0  0
 13 11  1  0  0  0  0
 13 12  1  0  0  0  0
 15 13  1  0  0  0  0
 15 14  1  1  0  0  0
 16 21  1  6  0  0  0
 16 18  1  0  0  0  0
 16 15  1  0  0  0  0
 17 14  2  0  0  0  0
 18 17  1  0  0  0  0
 19 21  1  0  0  0  0
 20 19  2  0  0  0  0
 21 22  1  0  0  0  0
 23 22  1  0  0  0  0
 24 19  1  0  0  0  0
 25 24  1  0  0  0  0
 27 26  1  6  0  0  0
 27 28  1  0  0  0  0
 27 25  1  0  0  0  0
 29 28  2  0  0  0  0
 31 30  2  0  0  0  0
 31 27  1  0  0  0  0
 32 33  2  0  0  0  0
 33  2  1  0  0  0  0
 34 32  1  0  0  0  0
 34 38  1  1  0  0  0
 35 34  1  0  0  0  0
 36 35  2  0  0  0  0
 37 35  1  0  0  0  0
 38 43  1  0  0  0  0
 39 40  1  0  0  0  0
 41 40  2  0  0  0  0
 42 39  2  0  0  0  0
 43 42  1  0  0  0  0
 43 44  2  0  0  0  0
 44 41  1  0  0  0  0
 45 48  1  0  0  0  0
 45  1  1  0  0  0  0
 46 48  1  0  0  0  0
 48 47  2  0  0  0  0
 49 53  2  0  0  0  0
 50 54  1  0  0  0  0
 51 49  1  0  0  0  0
 52 55  2  0  0  0  0
 53 46  1  0  0  0  0
 54 52  1  0  0  0  0
 54 51  2  0  0  0  0
 55 53  1  0  0  0  0
M  END
>  <MODEL>
4

>  <REMARK>
 VINA RESULT:      -7.5      2.959      5.591
  Name = 
  17 active torsions:
  status: ('A' for Active; 'I' for Inactive)
    1  A    between atoms: C_1  and  C_31
    2  A    between atoms: C_2  and  C_8
    3  A    between atoms: C_7  and  O_9
    4  A    between atoms: C_8  and  N_13
    5  A    between atoms: C_8  and  C_30
    6  A    between atoms: O_9  and  C_51
    7  A    between atoms: C_10  and  C_23
    8  A    between atoms: C_12  and  C_50
    9  A    between atoms: C_14  and  N_40
   10  A    between atoms: C_17  and  N_52
   11  A    between atoms: N_18  and  C_42
   12  A    between atoms: C_23  and  N_33
   13  A    between atoms: C_30  and  C_37
   14  A    between atoms: C_31  and  N_33
   15  A    between atoms: C_31  and  N_43
   16  A    between atoms: C_34  and  N_52
   17  A    between atoms: C_45  and  C_47
                            x       y       z     vdW  Elec       q    Type
                         _______ _______ _______ _____ _____    ______ ____

>  <TORSDO>
F 17

$$$$
=
 OpenBabel11042417553D

 55 59  0  0  1  0  0  0  0  0999 V2000
  190.4010  174.8560  142.0140 C   0  0  0  0  0  0  0  0  0  0  0  0
  192.4620  175.7740  142.9030 C   0  0  0  0  0  0  0  0  0  0  0  0
  191.8020  176.9120  143.2440 N   0  0  0  0  0  0  0  0  0  0  0  0
  191.7720  174.7290  142.2890 C   0  0  0  0  0  3  0  0  0  0  0  0
  190.4810  177.0770  142.9720 C   0  0  0  0  0  3  0  0  0  0  0  0
  189.7540  176.0700  142.3360 C   0  0  0  0  0  0  0  0  0  0  0  0
  188.9820  178.6710  141.8710 O   0  0  0  0  0  1  0  0  0  0  0  0
  186.7370  176.2400  138.8480 C   0  0  0  0  0  2  0  0  0  0  0  0
  187.2050  176.5690  140.0400 C   0  0  0  0  0  0  0  0  0  0  0  0
  187.9000  175.6980  140.8450 O   0  0  0  0  0  0  0  0  0  0  0  0
  187.0840  177.9200  140.6260 C   0  0  0  0  0  2  0  0  0  0  0  0
  188.2960  176.3250  142.0510 C   0  0  2  0  0  3  0  0  0  0  0  0
  187.8720  177.8200  141.9390 C   0  0  1  0  0  0  0  0  0  0  0  0
  185.6000  178.6300  142.6440 C   0  0  0  0  0  3  0  0  0  0  0  0
  186.9640  178.2380  143.1110 C   0  0  1  0  0  3  0  0  0  0  0  0
  186.7030  177.0480  144.0400 C   0  0  2  0  0  3  0  0  0  0  0  0
  184.6480  177.8830  143.1830 C   0  0  0  0  0  3  0  0  0  0  0  0
  185.1920  176.8610  144.1180 C   0  0  0  0  0  2  0  0  0  0  0  0
  188.3450  176.3490  145.8660 C   0  0  0  0  0  0  0  0  0  0  0  0
  188.6050  175.2650  145.2800 O   0  0  0  0  0  0  0  0  0  0  0  0
  187.3200  177.2270  145.3560 N   0  0  0  0  0  0  0  0  0  0  0  0
  186.7810  178.2830  146.2090 C   0  0  0  0  0  2  0  0  0  0  0  0
  185.8750  177.6920  147.2790 C   0  0  0  0  0  1  0  0  0  0  0  0
  189.1250  176.7220  147.0860 C   0  0  0  0  0  2  0  0  0  0  0  0
  190.4970  177.0650  146.7200 N   0  0  0  0  0  2  0  0  0  0  0  0
  190.8310  175.2080  148.1120 O   0  0  0  0  0  1  0  0  0  0  0  0
  191.4530  176.3370  147.5690 C   0  0  1  0  0  0  0  0  0  0  0  0
  192.6080  175.8630  146.7300 C   0  0  0  0  0  3  0  0  0  0  0  0
  192.7280  174.6000  146.3200 C   0  0  0  0  0  2  0  0  0  0  0  0
  191.2350  178.0370  149.1240 O   0  0  0  0  0  0  0  0  0  0  0  0
  191.9250  177.1780  148.6530 N   0  0  0  0  0  0  0  0  0  0  0  0
  194.5610  174.7600  142.5730 N   0  0  0  0  0  0  0  0  0  0  0  0
  193.8580  175.6350  143.1700 N   0  0  0  0  0  0  0  0  0  0  0  0
  195.9820  174.6170  142.8670 C   0  0  1  0  0  3  0  0  0  0  0  0
  196.7840  175.7250  142.2520 C   0  0  0  0  0  0  0  0  0  0  0  0
  197.4900  175.5190  141.2290 O   0  0  0  0  0  0  0  0  0  0  0  0
  196.6620  177.0150  142.7570 O   0  0  0  0  0  1  0  0  0  0  0  0
  196.2440  174.4830  144.3740 C   0  0  0  0  0  2  0  0  0  0  0  0
  195.9730  171.0780  146.0410 C   0  0  0  0  0  3  0  0  0  0  0  0
  197.0920  170.4270  145.5100 C   0  0  0  0  0  3  0  0  0  0  0  0
  197.9390  171.0990  144.6210 C   0  0  0  0  0  3  0  0  0  0  0  0
  195.7030  172.4040  145.6900 C   0  0  0  0  0  3  0  0  0  0  0  0
  196.5510  173.0800  144.8040 C   0  0  0  0  0  0  0  0  0  0  0  0
  197.6680  172.4230  144.2670 C   0  0  0  0  0  3  0  0  0  0  0  0
  189.6770  173.8160  141.4040 O   0  0  0  0  0  0  0  0  0  0  0  0
  189.6970  171.5450  142.3490 N   0  0  0  0  0  2  0  0  0  0  0  0
  187.7990  172.8720  142.3850 O   0  0  0  0  0  0  0  0  0  0  0  0
  189.0150  172.7730  142.0730 C   0  0  0  0  0  0  0  0  0  0  0  0
  191.7750  171.2250  141.1620 N   0  0  0  0  0  0  0  0  0  0  0  0
  195.2490  170.8010  142.1660 N   0  0  0  0  0  1  0  0  0  0  0  0
  193.0980  171.0430  141.1140 N   0  0  0  0  0  0  0  0  0  0  0  0
  193.2180  171.0860  143.4860 C   0  0  0  0  0  3  0  0  0  0  0  0
  191.1180  171.3650  142.3450 C   0  0  0  0  0  0  0  0  0  0  0  0
  193.8420  170.9810  142.2470 C   0  0  0  0  0  0  0  0  0  0  0  0
  191.8400  171.2770  143.5350 C   0  0  0  0  0  3  0  0  0  0  0  0
  1  4  2  0  0  0  0
  1  6  1  0  0  0  0
  2 33  1  0  0  0  0
  2  3  2  0  0  0  0
  4  2  1  0  0  0  0
  5  3  1  0  0  0  0
  6  5  2  0  0  0  0
  8  9  2  0  0  0  0
  9 11  1  0  0  0  0
  9 10  1  0  0  0  0
 10 12  1  0  0  0  0
 11 13  1  0  0  0  0
 12  6  1  6  0  0  0
 13  7  1  6  0  0  0
 13 12  1  0  0  0  0
 13 15  1  0  0  0  0
 14 17  2  0  0  0  0
 15 14  1  6  0  0  0
 15 16  1  0  0  0  0
 16 18  1  0  0  0  0
 16 21  1  1  0  0  0
 17 18  1  0  0  0  0
 19 24  1  0  0  0  0
 20 19  2  0  0  0  0
 21 19  1  0  0  0  0
 21 22  1  0  0  0  0
 22 23  1  0  0  0  0
 25 24  1  0  0  0  0
 25 27  1  0  0  0  0
 27 26  1  1  0  0  0
 27 31  1  0  0  0  0
 28 27  1  0  0  0  0
 29 28  2  0  0  0  0
 31 30  2  0  0  0  0
 32 34  1  0  0  0  0
 32 33  2  0  0  0  0
 34 38  1  1  0  0  0
 35 37  1  0  0  0  0
 35 34  1  0  0  0  0
 36 35  2  0  0  0  0
 38 43  1  0  0  0  0
 40 39  2  0  0  0  0
 41 40  1  0  0  0  0
 42 39  1  0  0  0  0
 43 42  2  0  0  0  0
 44 41  2  0  0  0  0
 44 43  1  0  0  0  0
 45  1  1  0  0  0  0
 45 48  1  0  0  0  0
 48 46  1  0  0  0  0
 48 47  2  0  0  0  0
 49 53  2  0  0  0  0
 50 54  1  0  0  0  0
 51 49  1  0  0  0  0
 51 54  2  0  0  0  0
 52 55  2  0  0  0  0
 53 46  1  0  0  0  0
 53 55  1  0  0  0  0
 54 52  1  0  0  0  0
M  END
>  <MODEL>
5

>  <REMARK>
 VINA RESULT:      -7.4      3.084      8.804
  Name = 
  17 active torsions:
  status: ('A' for Active; 'I' for Inactive)
    1  A    between atoms: C_1  and  C_31
    2  A    between atoms: C_2  and  C_8
    3  A    between atoms: C_7  and  O_9
    4  A    between atoms: C_8  and  N_13
    5  A    between atoms: C_8  and  C_30
    6  A    between atoms: O_9  and  C_51
    7  A    between atoms: C_10  and  C_23
    8  A    between atoms: C_12  and  C_50
    9  A    between atoms: C_14  and  N_40
   10  A    between atoms: C_17  and  N_52
   11  A    between atoms: N_18  and  C_42
   12  A    between atoms: C_23  and  N_33
   13  A    between atoms: C_30  and  C_37
   14  A    between atoms: C_31  and  N_33
   15  A    between atoms: C_31  and  N_43
   16  A    between atoms: C_34  and  N_52
   17  A    between atoms: C_45  and  C_47
                            x       y       z     vdW  Elec       q    Type
                         _______ _______ _______ _____ _____    ______ ____

>  <TORSDO>
F 17

$$$$
=
 OpenBabel11042417553D

 55 59  0  0  1  0  0  0  0  0999 V2000
  190.7190  173.6500  141.1030 C   0  0  0  0  0  0  0  0  0  0  0  0
  188.8940  174.7990  142.2140 C   0  0  0  0  0  0  0  0  0  0  0  0
  188.2220  174.8590  141.0340 N   0  0  0  0  0  0  0  0  0  0  0  0
  190.1480  174.1890  142.2670 C   0  0  0  0  0  3  0  0  0  0  0  0
  188.7540  174.3670  139.8840 C   0  0  0  0  0  3  0  0  0  0  0  0
  190.0170  173.7720  139.8830 C   0  0  0  0  0  0  0  0  0  0  0  0
  189.0180  171.3870  138.9380 O   0  0  0  0  0  1  0  0  0  0  0  0
  189.2770  174.0410  135.3360 C   0  0  0  0  0  2  0  0  0  0  0  0
  189.6880  173.4530  136.4460 C   0  0  0  0  0  0  0  0  0  0  0  0
  190.2190  174.1410  137.5120 O   0  0  0  0  0  0  0  0  0  0  0  0
  189.5800  172.0010  136.6970 C   0  0  0  0  0  2  0  0  0  0  0  0
  190.5530  173.2610  138.5700 C   0  0  2  0  0  3  0  0  0  0  0  0
  190.0750  171.8420  138.1410 C   0  0  1  0  0  0  0  0  0  0  0  0
  190.7330  169.4250  138.3420 C   0  0  0  0  0  3  0  0  0  0  0  0
  191.2310  170.8240  138.1740 C   0  0  1  0  0  3  0  0  0  0  0  0
  191.9570  170.7920  136.8250 C   0  0  2  0  0  3  0  0  0  0  0  0
  191.0920  168.6380  137.3390 C   0  0  0  0  0  3  0  0  0  0  0  0
  191.9040  169.3550  136.3190 C   0  0  0  0  0  2  0  0  0  0  0  0
  193.7170  172.5890  136.3860 C   0  0  0  0  0  0  0  0  0  0  0  0
  192.9410  173.2280  135.6280 O   0  0  0  0  0  0  0  0  0  0  0  0
  193.3250  171.3080  136.9220 N   0  0  0  0  0  0  0  0  0  0  0  0
  194.3350  170.4220  137.4930 C   0  0  0  0  0  2  0  0  0  0  0  0
  194.4180  170.6110  139.0010 C   0  0  0  0  0  1  0  0  0  0  0  0
  195.0430  173.1840  136.7380 C   0  0  0  0  0  2  0  0  0  0  0  0
  194.9030  174.0860  137.8780 N   0  0  0  0  0  2  0  0  0  0  0  0
  196.8390  175.4070  137.8880 O   0  0  0  0  0  1  0  0  0  0  0  0
  196.2100  174.3240  138.5100 C   0  0  1  0  0  0  0  0  0  0  0  0
  196.0090  174.6830  139.9570 C   0  0  0  0  0  3  0  0  0  0  0  0
  196.5710  175.7550  140.5170 C   0  0  0  0  0  2  0  0  0  0  0  0
  197.3850  172.5170  139.3500 O   0  0  0  0  0  0  0  0  0  0  0  0
  197.0630  173.1570  138.3900 N   0  0  0  0  0  0  0  0  0  0  0  0
  188.9940  175.4110  144.4840 N   0  0  0  0  0  0  0  0  0  0  0  0
  188.3290  175.3500  143.4030 N   0  0  0  0  0  0  0  0  0  0  0  0
  188.4000  175.9620  145.6970 C   0  0  1  0  0  3  0  0  0  0  0  0
  189.1610  175.5450  146.9200 C   0  0  0  0  0  0  0  0  0  0  0  0
  188.8800  174.4740  147.5210 O   0  0  0  0  0  1  0  0  0  0  0  0
  190.2560  176.2980  147.3300 O   0  0  0  0  0  0  0  0  0  0  0  0
  188.2370  177.4860  145.6100 C   0  0  0  0  0  2  0  0  0  0  0  0
  184.9480  179.0990  144.5970 C   0  0  0  0  0  3  0  0  0  0  0  0
  184.1070  178.6730  145.6310 C   0  0  0  0  0  3  0  0  0  0  0  0
  184.6130  177.8730  146.6620 C   0  0  0  0  0  3  0  0  0  0  0  0
  186.2960  178.7320  144.5950 C   0  0  0  0  0  3  0  0  0  0  0  0
  186.8060  177.9350  145.6280 C   0  0  0  0  0  0  0  0  0  0  0  0
  185.9600  177.5040  146.6590 C   0  0  0  0  0  3  0  0  0  0  0  0
  191.9770  173.0210  141.1270 O   0  0  0  0  0  0  0  0  0  0  0  0
  193.1900  172.0280  143.0220 N   0  0  0  0  0  2  0  0  0  0  0  0
  191.9190  170.7450  141.5710 O   0  0  0  0  0  0  0  0  0  0  0  0
  192.3190  171.8950  141.8940 C   0  0  0  0  0  0  0  0  0  0  0  0
  194.4770  174.0600  143.2330 N   0  0  0  0  0  0  0  0  0  0  0  0
  194.4970  176.8360  145.5900 N   0  0  0  0  0  1  0  0  0  0  0  0
  194.7950  175.2040  143.8450 N   0  0  0  0  0  0  0  0  0  0  0  0
  193.1490  174.8040  145.5100 C   0  0  0  0  0  3  0  0  0  0  0  0
  193.4870  173.2520  143.7030 C   0  0  0  0  0  0  0  0  0  0  0  0
  194.1480  175.6060  144.9670 C   0  0  0  0  0  0  0  0  0  0  0  0
  192.8170  173.6120  144.8720 C   0  0  0  0  0  3  0  0  0  0  0  0
  1 45  1  0  0  0  0
  1  4  2  0  0  0  0
  2  4  1  0  0  0  0
  2 33  1  0  0  0  0
  3  2  2  0  0  0  0
  5  3  1  0  0  0  0
  6  5  2  0  0  0  0
  6  1  1  0  0  0  0
  8  9  2  0  0  0  0
  9 11  1  0  0  0  0
  9 10  1  0  0  0  0
 10 12  1  0  0  0  0
 11 13  1  0  0  0  0
 12  6  1  1  0  0  0
 13 15  1  0  0  0  0
 13 12  1  0  0  0  0
 13  7  1  1  0  0  0
 15 14  1  6  0  0  0
 16 21  1  1  0  0  0
 16 15  1  0  0  0  0
 17 14  2  0  0  0  0
 18 16  1  0  0  0  0
 18 17  1  0  0  0  0
 19 24  1  0  0  0  0
 19 21  1  0  0  0  0
 20 19  2  0  0  0  0
 21 22  1  0  0  0  0
 22 23  1  0  0  0  0
 24 25  1  0  0  0  0
 25 27  1  0  0  0  0
 27 26  1  6  0  0  0
 27 28  1  0  0  0  0
 28 29  2  0  0  0  0
 31 27  1  0  0  0  0
 31 30  2  0  0  0  0
 32 34  1  0  0  0  0
 33 32  2  0  0  0  0
 34 38  1  6  0  0  0
 34 35  1  0  0  0  0
 35 37  2  0  0  0  0
 35 36  1  0  0  0  0
 38 43  1  0  0  0  0
 39 40  1  0  0  0  0
 40 41  2  0  0  0  0
 42 39  2  0  0  0  0
 42 43  1  0  0  0  0
 43 44  2  0  0  0  0
 44 41  1  0  0  0  0
 45 48  1  0  0  0  0
 46 53  1  0  0  0  0
 47 48  2  0  0  0  0
 48 46  1  0  0  0  0
 49 53  2  0  0  0  0
 49 51  1  0  0  0  0
 51 54  2  0  0  0  0
 53 55  1  0  0  0  0
 54 52  1  0  0  0  0
 54 50  1  0  0  0  0
 55 52  2  0  0  0  0
M  END
>  <MODEL>
6

>  <REMARK>
 VINA RESULT:      -7.4      3.281      7.139
  Name = 
  17 active torsions:
  status: ('A' for Active; 'I' for Inactive)
    1  A    between atoms: C_1  and  C_31
    2  A    between atoms: C_2  and  C_8
    3  A    between atoms: C_7  and  O_9
    4  A    between atoms: C_8  and  N_13
    5  A    between atoms: C_8  and  C_30
    6  A    between atoms: O_9  and  C_51
    7  A    between atoms: C_10  and  C_23
    8  A    between atoms: C_12  and  C_50
    9  A    between atoms: C_14  and  N_40
   10  A    between atoms: C_17  and  N_52
   11  A    between atoms: N_18  and  C_42
   12  A    between atoms: C_23  and  N_33
   13  A    between atoms: C_30  and  C_37
   14  A    between atoms: C_31  and  N_33
   15  A    between atoms: C_31  and  N_43
   16  A    between atoms: C_34  and  N_52
   17  A    between atoms: C_45  and  C_47
                            x       y       z     vdW  Elec       q    Type
                         _______ _______ _______ _____ _____    ______ ____

>  <TORSDO>
F 17

$$$$
=
 OpenBabel11042417553D

 55 59  0  0  1  0  0  0  0  0999 V2000
  190.8250  175.1310  143.2760 C   0  0  0  0  0  0  0  0  0  0  0  0
  189.6340  177.2000  142.8460 C   0  0  0  0  0  0  0  0  0  0  0  0
  190.8210  177.8490  142.7130 N   0  0  0  0  0  0  0  0  0  0  0  0
  189.6190  175.8330  143.1240 C   0  0  0  0  0  3  0  0  0  0  0  0
  192.0070  177.2060  142.8760 C   0  0  0  0  0  3  0  0  0  0  0  0
  192.0410  175.8440  143.1800 C   0  0  0  0  0  0  0  0  0  0  0  0
  193.5080  175.2900  140.9170 O   0  0  0  0  0  1  0  0  0  0  0  0
  196.4830  176.8960  143.8590 C   0  0  0  0  0  2  0  0  0  0  0  0
  195.4870  176.1450  143.4230 C   0  0  0  0  0  0  0  0  0  0  0  0
  194.2720  176.0570  144.0610 O   0  0  0  0  0  0  0  0  0  0  0  0
  195.5380  175.3520  142.1770 C   0  0  0  0  0  2  0  0  0  0  0  0
  193.3910  175.1970  143.3630 C   0  0  2  0  0  3  0  0  0  0  0  0
  194.1250  174.7660  142.0590 C   0  0  1  0  0  0  0  0  0  0  0  0
  194.6570  172.6050  143.2280 C   0  0  0  0  0  3  0  0  0  0  0  0
  194.2180  173.2320  141.9450 C   0  0  1  0  0  3  0  0  0  0  0  0
  192.8320  172.6270  141.6990 C   0  0  2  0  0  3  0  0  0  0  0  0
  193.7670  171.7450  143.7000 C   0  0  0  0  0  3  0  0  0  0  0  0
  192.5750  171.6240  142.8180 C   0  0  0  0  0  2  0  0  0  0  0  0
  191.4490  171.7580  139.7370 C   0  0  0  0  0  0  0  0  0  0  0  0
  190.3800  171.8340  140.3980 O   0  0  0  0  0  0  0  0  0  0  0  0
  192.7190  172.0290  140.3670 N   0  0  0  0  0  0  0  0  0  0  0  0
  193.9550  171.6030  139.7170 C   0  0  0  0  0  2  0  0  0  0  0  0
  194.2330  170.1370  140.0130 C   0  0  0  0  0  1  0  0  0  0  0  0
  191.3830  171.3990  138.2870 C   0  0  0  0  0  2  0  0  0  0  0  0
  191.4330  172.6070  137.4670 N   0  0  0  0  0  2  0  0  0  0  0  0
  189.3020  171.7710  136.9620 O   0  0  0  0  0  1  0  0  0  0  0  0
  190.1000  172.9190  136.9290 C   0  0  1  0  0  0  0  0  0  0  0  0
  189.4410  173.9580  137.7950 C   0  0  0  0  0  3  0  0  0  0  0  0
  188.1580  174.2950  137.6630 C   0  0  0  0  0  2  0  0  0  0  0  0
  191.2210  173.3310  134.9480 O   0  0  0  0  0  0  0  0  0  0  0  0
  190.1920  173.3850  135.5590 N   0  0  0  0  0  0  0  0  0  0  0  0
  187.3330  177.3020  142.3630 N   0  0  0  0  0  0  0  0  0  0  0  0
  188.4000  177.9030  142.7010 N   0  0  0  0  0  0  0  0  0  0  0  0
  186.0820  178.0340  142.2030 C   0  0  1  0  0  3  0  0  0  0  0  0
  185.5910  177.9790  140.7870 C   0  0  0  0  0  0  0  0  0  0  0  0
  184.4320  178.3760  140.4910 O   0  0  0  0  0  1  0  0  0  0  0  0
  186.4630  177.5850  139.7790 O   0  0  0  0  0  0  0  0  0  0  0  0
  185.0140  177.5650  143.2020 C   0  0  0  0  0  2  0  0  0  0  0  0
  185.6950  179.4230  146.4470 C   0  0  0  0  0  3  0  0  0  0  0  0
  185.9280  178.3590  147.3250 C   0  0  0  0  0  3  0  0  0  0  0  0
  185.8760  177.0400  146.8590 C   0  0  0  0  0  3  0  0  0  0  0  0
  185.4160  179.1720  145.1010 C   0  0  0  0  0  3  0  0  0  0  0  0
  185.3670  177.8530  144.6310 C   0  0  0  0  0  0  0  0  0  0  0  0
  185.5940  176.7880  145.5140 C   0  0  0  0  0  3  0  0  0  0  0  0
  190.8410  173.7520  143.5480 O   0  0  0  0  0  0  0  0  0  0  0  0
  189.6340  173.2450  145.6300 N   0  0  0  0  0  2  0  0  0  0  0  0
  189.1590  172.1580  143.6400 O   0  0  0  0  0  0  0  0  0  0  0  0
  189.8430  173.0360  144.2290 C   0  0  0  0  0  0  0  0  0  0  0  0
  191.3740  174.4250  146.8160 N   0  0  0  0  0  0  0  0  0  0  0  0
  191.5530  177.5970  148.5950 N   0  0  0  0  0  1  0  0  0  0  0  0
  191.8350  175.4580  147.5270 N   0  0  0  0  0  0  0  0  0  0  0  0
  189.6990  176.4950  147.4550 C   0  0  0  0  0  3  0  0  0  0  0  0
  190.0870  174.3790  146.3770 C   0  0  0  0  0  0  0  0  0  0  0  0
  191.0330  176.5030  147.8500 C   0  0  0  0  0  0  0  0  0  0  0  0
  189.2200  175.4190  146.7130 C   0  0  0  0  0  3  0  0  0  0  0  0
  1 45  1  0  0  0  0
  2  4  1  0  0  0  0
  3  2  2  0  0  0  0
  3  5  1  0  0  0  0
  4  1  2  0  0  0  0
  5  6  2  0  0  0  0
  6  1  1  0  0  0  0
  9  8  2  0  0  0  0
  9 10  1  0  0  0  0
 11  9  1  0  0  0  0
 12  6  1  6  0  0  0
 12 10  1  0  0  0  0
 13  7  1  6  0  0  0
 13 11  1  0  0  0  0
 13 12  1  0  0  0  0
 14 17  2  0  0  0  0
 15 13  1  0  0  0  0
 15 14  1  1  0  0  0
 16 21  1  6  0  0  0
 16 15  1  0  0  0  0
 16 18  1  0  0  0  0
 18 17  1  0  0  0  0
 19 21  1  0  0  0  0
 19 20  2  0  0  0  0
 22 23  1  0  0  0  0
 22 21  1  0  0  0  0
 24 19  1  0  0  0  0
 25 24  1  0  0  0  0
 27 26  1  1  0  0  0
 27 25  1  0  0  0  0
 27 28  1  0  0  0  0
 29 28  2  0  0  0  0
 30 31  2  0  0  0  0
 31 27  1  0  0  0  0
 32 33  2  0  0  0  0
 33  2  1  0  0  0  0
 34 32  1  0  0  0  0
 34 38  1  1  0  0  0
 35 34  1  0  0  0  0
 36 35  1  0  0  0  0
 37 35  2  0  0  0  0
 38 43  1  0  0  0  0
 39 40  1  0  0  0  0
 41 40  2  0  0  0  0
 42 39  2  0  0  0  0
 43 42  1  0  0  0  0
 43 44  2  0  0  0  0
 44 41  1  0  0  0  0
 45 48  1  0  0  0  0
 46 53  1  0  0  0  0
 47 48  2  0  0  0  0
 48 46  1  0  0  0  0
 49 51  1  0  0  0  0
 51 54  2  0  0  0  0
 52 54  1  0  0  0  0
 53 55  1  0  0  0  0
 53 49  2  0  0  0  0
 54 50  1  0  0  0  0
 55 52  2  0  0  0  0
M  END
>  <MODEL>
7

>  <REMARK>
 VINA RESULT:      -7.4      2.846      6.164
  Name = 
  17 active torsions:
  status: ('A' for Active; 'I' for Inactive)
    1  A    between atoms: C_1  and  C_31
    2  A    between atoms: C_2  and  C_8
    3  A    between atoms: C_7  and  O_9
    4  A    between atoms: C_8  and  N_13
    5  A    between atoms: C_8  and  C_30
    6  A    between atoms: O_9  and  C_51
    7  A    between atoms: C_10  and  C_23
    8  A    between atoms: C_12  and  C_50
    9  A    between atoms: C_14  and  N_40
   10  A    between atoms: C_17  and  N_52
   11  A    between atoms: N_18  and  C_42
   12  A    between atoms: C_23  and  N_33
   13  A    between atoms: C_30  and  C_37
   14  A    between atoms: C_31  and  N_33
   15  A    between atoms: C_31  and  N_43
   16  A    between atoms: C_34  and  N_52
   17  A    between atoms: C_45  and  C_47
                            x       y       z     vdW  Elec       q    Type
                         _______ _______ _______ _____ _____    ______ ____

>  <TORSDO>
F 17

$$$$
=
 OpenBabel11042417553D

 55 59  0  0  1  0  0  0  0  0999 V2000
  190.2760  174.9060  142.1600 C   0  0  0  0  0  0  0  0  0  0  0  0
  192.3140  175.8670  143.0580 C   0  0  0  0  0  0  0  0  0  0  0  0
  191.6480  177.0230  143.3150 N   0  0  0  0  0  0  0  0  0  0  0  0
  191.6370  174.7910  142.4830 C   0  0  0  0  0  3  0  0  0  0  0  0
  190.3370  177.1770  142.9950 C   0  0  0  0  0  3  0  0  0  0  0  0
  189.6250  176.1380  142.3940 C   0  0  0  0  0  0  0  0  0  0  0  0
  188.8690  178.7180  141.8040 O   0  0  0  0  0  1  0  0  0  0  0  0
  186.7240  176.1710  138.8050 C   0  0  0  0  0  2  0  0  0  0  0  0
  187.1530  176.5460  139.9980 C   0  0  0  0  0  0  0  0  0  0  0  0
  187.8210  175.7080  140.8590 O   0  0  0  0  0  0  0  0  0  0  0  0
  187.0130  177.9190  140.5270 C   0  0  0  0  0  2  0  0  0  0  0  0
  188.1770  176.3810  142.0520 C   0  0  2  0  0  3  0  0  0  0  0  0
  187.7580  177.8690  141.8690 C   0  0  1  0  0  0  0  0  0  0  0  0
  185.4510  178.6650  142.4730 C   0  0  0  0  0  3  0  0  0  0  0  0
  186.8120  178.3320  142.9930 C   0  0  1  0  0  3  0  0  0  0  0  0
  186.5540  177.1900  143.9810 C   0  0  2  0  0  3  0  0  0  0  0  0
  184.5030  177.9280  143.0300 C   0  0  0  0  0  3  0  0  0  0  0  0
  185.0460  176.9730  144.0340 C   0  0  0  0  0  2  0  0  0  0  0  0
  188.1470  176.6210  145.8930 C   0  0  0  0  0  0  0  0  0  0  0  0
  188.4270  175.5020  145.3870 O   0  0  0  0  0  0  0  0  0  0  0  0
  187.1340  177.4580  145.3000 N   0  0  0  0  0  0  0  0  0  0  0  0
  186.5670  178.5640  146.0670 C   0  0  0  0  0  2  0  0  0  0  0  0
  185.5920  178.0420  147.1120 C   0  0  0  0  0  1  0  0  0  0  0  0
  188.8920  177.0760  147.1080 C   0  0  0  0  0  2  0  0  0  0  0  0
  190.3010  177.2850  146.7840 N   0  0  0  0  0  2  0  0  0  0  0  0
  190.4410  175.2910  148.0090 O   0  0  0  0  0  1  0  0  0  0  0  0
  191.1540  176.4320  147.6260 C   0  0  1  0  0  0  0  0  0  0  0  0
  192.3490  175.9780  146.8310 C   0  0  0  0  0  3  0  0  0  0  0  0
  193.5060  176.6400  146.8320 C   0  0  0  0  0  2  0  0  0  0  0  0
  191.1810  178.2450  149.0640 O   0  0  0  0  0  0  0  0  0  0  0  0
  191.5780  177.1410  148.8180 N   0  0  0  0  0  0  0  0  0  0  0  0
  194.5080  175.1620  142.5810 N   0  0  0  0  0  0  0  0  0  0  0  0
  193.7000  175.7390  143.3740 N   0  0  0  0  0  0  0  0  0  0  0  0
  195.9190  175.0230  142.9230 C   0  0  1  0  0  3  0  0  0  0  0  0
  196.7300  176.1610  142.3790 C   0  0  0  0  0  0  0  0  0  0  0  0
  197.4710  176.8450  143.1350 O   0  0  0  0  0  1  0  0  0  0  0  0
  196.7440  176.3940  141.0080 O   0  0  0  0  0  0  0  0  0  0  0  0
  196.1260  174.8390  144.4330 C   0  0  0  0  0  2  0  0  0  0  0  0
  197.1470  171.3010  145.3750 C   0  0  0  0  0  3  0  0  0  0  0  0
  195.9230  170.7680  145.7940 C   0  0  0  0  0  3  0  0  0  0  0  0
  194.7660  171.5550  145.7590 C   0  0  0  0  0  3  0  0  0  0  0  0
  197.2150  172.6180  144.9140 C   0  0  0  0  0  3  0  0  0  0  0  0
  196.0580  173.4060  144.8730 C   0  0  0  0  0  0  0  0  0  0  0  0
  194.8340  172.8730  145.3000 C   0  0  0  0  0  3  0  0  0  0  0  0
  189.5650  173.8360  141.5870 O   0  0  0  0  0  0  0  0  0  0  0  0
  190.3460  171.9990  140.1500 N   0  0  0  0  0  2  0  0  0  0  0  0
  190.1290  171.7550  142.4430 O   0  0  0  0  0  0  0  0  0  0  0  0
  190.0340  172.5190  141.4470 C   0  0  0  0  0  0  0  0  0  0  0  0
  189.6140  172.8950  138.0320 N   0  0  0  0  0  0  0  0  0  0  0  0
  191.1400  175.0030  135.4850 N   0  0  0  0  0  1  0  0  0  0  0  0
  189.8000  173.6060  136.9160 N   0  0  0  0  0  0  0  0  0  0  0  0
  192.0150  174.1350  137.5900 C   0  0  0  0  0  3  0  0  0  0  0  0
  190.5870  172.7830  138.9760 C   0  0  0  0  0  0  0  0  0  0  0  0
  190.9740  174.2410  136.6740 C   0  0  0  0  0  0  0  0  0  0  0  0
  191.8200  173.3950  138.7530 C   0  0  0  0  0  3  0  0  0  0  0  0
  1  6  1  0  0  0  0
  1  4  2  0  0  0  0
  2  3  2  0  0  0  0
  2 33  1  0  0  0  0
  4  2  1  0  0  0  0
  5  3  1  0  0  0  0
  6  5  2  0  0  0  0
  8  9  2  0  0  0  0
  9 11  1  0  0  0  0
  9 10  1  0  0  0  0
 10 12  1  0  0  0  0
 11 13  1  0  0  0  0
 12  6  1  6  0  0  0
 13  7  1  6  0  0  0
 13 12  1  0  0  0  0
 13 15  1  0  0  0  0
 14 17  2  0  0  0  0
 15 14  1  6  0  0  0
 15 16  1  0  0  0  0
 16 18  1  0  0  0  0
 16 21  1  1  0  0  0
 17 18  1  0  0  0  0
 19 24  1  0  0  0  0
 20 19  2  0  0  0  0
 21 19  1  0  0  0  0
 21 22  1  0  0  0  0
 22 23  1  0  0  0  0
 25 24  1  0  0  0  0
 25 27  1  0  0  0  0
 27 26  1  1  0  0  0
 27 31  1  0  0  0  0
 28 29  2  0  0  0  0
 28 27  1  0  0  0  0
 31 30  2  0  0  0  0
 32 34  1  0  0  0  0
 32 33  2  0  0  0  0
 34 38  1  1  0  0  0
 35 34  1  0  0  0  0
 35 36  1  0  0  0  0
 37 35  2  0  0  0  0
 38 43  1  0  0  0  0
 39 40  1  0  0  0  0
 41 40  2  0  0  0  0
 42 39  2  0  0  0  0
 43 42  1  0  0  0  0
 43 44  2  0  0  0  0
 44 41  1  0  0  0  0
 45  1  1  0  0  0  0
 46 48  1  0  0  0  0
 48 45  1  0  0  0  0
 48 47  2  0  0  0  0
 49 53  2  0  0  0  0
 50 54  1  0  0  0  0
 51 49  1  0  0  0  0
 52 55  2  0  0  0  0
 53 46  1  0  0  0  0
 54 51  2  0  0  0  0
 54 52  1  0  0  0  0
 55 53  1  0  0  0  0
M  END
>  <MODEL>
8

>  <REMARK>
 VINA RESULT:      -7.4      2.817      8.480
  Name = 
  17 active torsions:
  status: ('A' for Active; 'I' for Inactive)
    1  A    between atoms: C_1  and  C_31
    2  A    between atoms: C_2  and  C_8
    3  A    between atoms: C_7  and  O_9
    4  A    between atoms: C_8  and  N_13
    5  A    between atoms: C_8  and  C_30
    6  A    between atoms: O_9  and  C_51
    7  A    between atoms: C_10  and  C_23
    8  A    between atoms: C_12  and  C_50
    9  A    between atoms: C_14  and  N_40
   10  A    between atoms: C_17  and  N_52
   11  A    between atoms: N_18  and  C_42
   12  A    between atoms: C_23  and  N_33
   13  A    between atoms: C_30  and  C_37
   14  A    between atoms: C_31  and  N_33
   15  A    between atoms: C_31  and  N_43
   16  A    between atoms: C_34  and  N_52
   17  A    between atoms: C_45  and  C_47
                            x       y       z     vdW  Elec       q    Type
                         _______ _______ _______ _____ _____    ______ ____

>  <TORSDO>
F 17

$$$$
=
 OpenBabel11042417553D

 55 59  0  0  1  0  0  0  0  0999 V2000
  185.3080  177.4590  143.6480 C   0  0  0  0  0  0  0  0  0  0  0  0
  184.0430  178.1880  141.7110 C   0  0  0  0  0  0  0  0  0  0  0  0
  185.1410  178.0020  140.9320 N   0  0  0  0  0  0  0  0  0  0  0  0
  184.1090  177.9140  143.0780 C   0  0  0  0  0  3  0  0  0  0  0  0
  186.3240  177.5840  141.4550 C   0  0  0  0  0  3  0  0  0  0  0  0
  186.4450  177.3230  142.8210 C   0  0  0  0  0  0  0  0  0  0  0  0
  188.1830  176.1730  141.0230 O   0  0  0  0  0  1  0  0  0  0  0  0
  190.7320  178.8770  143.5280 C   0  0  0  0  0  2  0  0  0  0  0  0
  189.8240  177.9500  143.2750 C   0  0  0  0  0  0  0  0  0  0  0  0
  188.5480  177.9830  143.7880 O   0  0  0  0  0  0  0  0  0  0  0  0
  190.0510  176.8000  142.3770 C   0  0  0  0  0  2  0  0  0  0  0  0
  187.7890  176.8770  143.3360 C   0  0  2  0  0  3  0  0  0  0  0  0
  188.6860  176.1000  142.3280 C   0  0  1  0  0  0  0  0  0  0  0  0
  187.7810  173.7610  142.1640 C   0  0  0  0  0  3  0  0  0  0  0  0
  188.8550  174.6260  142.7410 C   0  0  1  0  0  3  0  0  0  0  0  0
  190.1450  174.0470  142.1520 C   0  0  2  0  0  3  0  0  0  0  0  0
  188.2670  172.7990  141.3960 C   0  0  0  0  0  3  0  0  0  0  0  0
  189.7530  172.8290  141.3220 C   0  0  0  0  0  2  0  0  0  0  0  0
  192.5510  173.9020  142.9900 C   0  0  0  0  0  0  0  0  0  0  0  0
  193.0130  174.1350  141.8420 O   0  0  0  0  0  0  0  0  0  0  0  0
  191.1330  173.7320  143.1860 N   0  0  0  0  0  0  0  0  0  0  0  0
  190.6400  173.1220  144.4180 C   0  0  0  0  0  2  0  0  0  0  0  0
  190.3760  171.6380  144.2090 C   0  0  0  0  0  1  0  0  0  0  0  0
  193.4930  173.8230  144.1500 C   0  0  0  0  0  2  0  0  0  0  0  0
  194.8620  174.0630  143.7030 N   0  0  0  0  0  2  0  0  0  0  0  0
  195.1420  176.3800  143.4880 O   0  0  0  0  0  1  0  0  0  0  0  0
  195.3980  175.2860  144.3200 C   0  0  1  0  0  0  0  0  0  0  0  0
  194.6990  175.5340  145.6290 C   0  0  0  0  0  3  0  0  0  0  0  0
  194.8490  176.6640  146.3210 C   0  0  0  0  0  2  0  0  0  0  0  0
  197.4190  174.1580  144.2990 O   0  0  0  0  0  0  0  0  0  0  0  0
  196.8310  175.1780  144.5230 N   0  0  0  0  0  0  0  0  0  0  0  0
  181.6940  178.3050  141.6180 N   0  0  0  0  0  0  0  0  0  0  0  0
  182.8200  178.6580  141.1450 N   0  0  0  0  0  0  0  0  0  0  0  0
  180.4510  178.7800  141.0210 C   0  0  1  0  0  3  0  0  0  0  0  0
  179.2550  178.2900  141.7810 C   0  0  0  0  0  0  0  0  0  0  0  0
  178.8630  178.8860  142.8190 O   0  0  0  0  0  1  0  0  0  0  0  0
  178.5120  177.2310  141.2730 O   0  0  0  0  0  0  0  0  0  0  0  0
  180.4440  180.3060  140.8550 C   0  0  0  0  0  2  0  0  0  0  0  0
  178.8400  182.4710  138.1740 C   0  0  0  0  0  3  0  0  0  0  0  0
  177.8470  181.6120  137.6900 C   0  0  0  0  0  3  0  0  0  0  0  0
  177.6910  180.3360  138.2450 C   0  0  0  0  0  3  0  0  0  0  0  0
  179.6760  182.0590  139.2160 C   0  0  0  0  0  3  0  0  0  0  0  0
  179.5200  180.7840  139.7750 C   0  0  0  0  0  0  0  0  0  0  0  0
  178.5280  179.9230  139.2850 C   0  0  0  0  0  3  0  0  0  0  0  0
  185.4020  177.1650  145.0210 O   0  0  0  0  0  0  0  0  0  0  0  0
  186.3150  178.0640  147.1200 N   0  0  0  0  0  2  0  0  0  0  0  0
  184.4150  178.9460  146.1320 O   0  0  0  0  0  0  0  0  0  0  0  0
  185.3460  178.1010  146.0670 C   0  0  0  0  0  0  0  0  0  0  0  0
  188.7210  178.0950  147.3190 N   0  0  0  0  0  0  0  0  0  0  0  0
  191.3510  175.6120  146.9000 N   0  0  0  0  0  1  0  0  0  0  0  0
  189.9230  177.5160  147.2630 N   0  0  0  0  0  0  0  0  0  0  0  0
  188.9310  175.4520  146.6340 C   0  0  0  0  0  3  0  0  0  0  0  0
  187.5810  177.3980  147.0610 C   0  0  0  0  0  0  0  0  0  0  0  0
  190.0600  176.2060  146.9380 C   0  0  0  0  0  0  0  0  0  0  0  0
  187.6780  176.0560  146.6930 C   0  0  0  0  0  3  0  0  0  0  0  0
  1 45  1  0  0  0  0
  2  4  1  0  0  0  0
  3  5  1  0  0  0  0
  3  2  2  0  0  0  0
  4  1  2  0  0  0  0
  5  6  2  0  0  0  0
  6  1  1  0  0  0  0
  9  8  2  0  0  0  0
  9 10  1  0  0  0  0
 11  9  1  0  0  0  0
 12  6  1  6  0  0  0
 12 10  1  0  0  0  0
 13  7  1  6  0  0  0
 13 11  1  0  0  0  0
 13 15  1  0  0  0  0
 13 12  1  0  0  0  0
 15 14  1  6  0  0  0
 16 15  1  0  0  0  0
 16 21  1  1  0  0  0
 17 14  2  0  0  0  0
 18 17  1  0  0  0  0
 18 16  1  0  0  0  0
 19 21  1  0  0  0  0
 19 24  1  0  0  0  0
 20 19  2  0  0  0  0
 21 22  1  0  0  0  0
 23 22  1  0  0  0  0
 25 24  1  0  0  0  0
 25 27  1  0  0  0  0
 27 26  1  6  0  0  0
 27 31  1  0  0  0  0
 27 28  1  0  0  0  0
 28 29  2  0  0  0  0
 30 31  2  0  0  0  0
 33 32  2  0  0  0  0
 33  2  1  0  0  0  0
 34 38  1  1  0  0  0
 34 32  1  0  0  0  0
 34 35  1  0  0  0  0
 35 36  1  0  0  0  0
 37 35  2  0  0  0  0
 39 42  1  0  0  0  0
 40 39  2  0  0  0  0
 40 41  1  0  0  0  0
 41 44  2  0  0  0  0
 42 43  2  0  0  0  0
 43 38  1  0  0  0  0
 44 43  1  0  0  0  0
 45 48  1  0  0  0  0
 48 47  2  0  0  0  0
 48 46  1  0  0  0  0
 50 54  1  0  0  0  0
 51 49  1  0  0  0  0
 52 55  2  0  0  0  0
 52 54  1  0  0  0  0
 53 46  1  0  0  0  0
 53 49  2  0  0  0  0
 54 51  2  0  0  0  0
 55 53  1  0  0  0  0
M  END
>  <MODEL>
9

>  <REMARK>
 VINA RESULT:      -7.3      3.900      7.386
  Name = 
  17 active torsions:
  status: ('A' for Active; 'I' for Inactive)
    1  A    between atoms: C_1  and  C_31
    2  A    between atoms: C_2  and  C_8
    3  A    between atoms: C_7  and  O_9
    4  A    between atoms: C_8  and  N_13
    5  A    between atoms: C_8  and  C_30
    6  A    between atoms: O_9  and  C_51
    7  A    between atoms: C_10  and  C_23
    8  A    between atoms: C_12  and  C_50
    9  A    between atoms: C_14  and  N_40
   10  A    between atoms: C_17  and  N_52
   11  A    between atoms: N_18  and  C_42
   12  A    between atoms: C_23  and  N_33
   13  A    between atoms: C_30  and  C_37
   14  A    between atoms: C_31  and  N_33
   15  A    between atoms: C_31  and  N_43
   16  A    between atoms: C_34  and  N_52
   17  A    between atoms: C_45  and  C_47
                            x       y       z     vdW  Elec       q    Type
                         _______ _______ _______ _____ _____    ______ ____

>  <TORSDO>
F 17

$$$$
