=
 OpenBabel11042417363D

 33 36  0  0  1  0  0  0  0  0999 V2000
  188.2650  177.0640  145.8070 C   0  0  2  0  0  3  0  0  0  0  0  0
  185.9330  177.9180  145.5680 C   0  0  1  0  0  3  0  0  0  0  0  0
  184.5660  177.8920  146.2190 C   0  0  0  0  0  1  0  0  0  0  0  0
  188.7980  175.2440  144.2400 C   0  0  0  0  0  3  0  0  0  0  0  0
  187.6160  177.7500  141.0260 O   0  0  0  0  0  1  0  0  0  0  0  0
  188.2960  177.5250  143.2870 C   0  0  2  0  0  3  0  0  0  0  0  0
  187.2880  177.1240  142.2250 C   0  0  1  0  0  3  0  0  0  0  0  0
  186.8290  176.9110  146.2770 C   0  0  0  0  0  2  0  0  0  0  0  0
  188.4420  176.5270  144.4120 C   0  0  0  0  0  0  0  0  0  0  0  0
  186.8970  178.1750  143.2360 C   0  0  1  0  0  3  0  0  0  0  0  0
  185.7880  177.5580  144.0960 C   0  0  0  0  0  2  0  0  0  0  0  0
  190.4020  174.8770  142.2290 C   0  0  0  0  0  0  0  0  0  0  0  0
  188.4670  173.6850  142.3050 C   0  0  0  0  0  3  0  0  0  0  0  0
  191.4700  175.4580  142.7050 C   0  0  0  0  0  0  0  0  0  0  0  0
  192.4840  176.0040  143.1570 O   0  0  0  0  0  0  0  0  0  0  0  0
  190.3640  174.0150  141.0620 C   0  0  0  0  0  0  0  0  0  0  0  0
  189.2190  173.3380  141.0920 C   0  0  0  0  0  0  0  0  0  0  0  0
  189.1900  174.5730  142.9850 C   0  0  0  0  0  0  0  0  0  0  0  0
  188.2500  172.8720  138.8810 C   0  0  0  0  0  1  0  0  0  0  0  0
  188.7980  172.4350  140.1160 O   0  0  0  0  0  0  0  0  0  0  0  0
  191.3730  173.9400  140.0930 O   0  0  0  0  0  0  0  0  0  0  0  0
  192.3270  172.8920  140.0410 C   0  0  0  0  0  1  0  0  0  0  0  0
  189.1530  176.4620  146.7080 O   0  0  0  0  0  0  0  0  0  0  0  0
  189.8360  177.5180  147.3280 C   0  0  0  0  0  2  0  0  0  0  0  0
  191.6000  177.3380  149.0740 C   0  0  0  0  0  1  0  0  0  0  0  0
  191.2850  177.1370  147.6060 C   0  0  1  0  0  3  0  0  0  0  0  0
  192.7260  175.3510  146.5630 C   0  0  0  0  0  0  0  0  0  0  0  0
  191.5270  175.7560  147.2250 N   0  0  0  0  0  2  0  0  0  0  0  0
  195.4420  174.9000  145.9210 S   0  0  0  0  0  0  0  0  0  0  0  0
  194.0720  173.8540  145.4790 C   0  0  0  0  0  0  0  0  0  0  0  0
  194.1690  172.9400  144.5250 C   0  0  0  0  0  2  0  0  0  0  0  0
  194.0670  176.5070  146.2340 S   0  0  0  0  0  0  0  0  0  0  0  0
  192.8230  174.1600  146.0750 N   0  0  0  0  0  0  0  0  0  0  0  0
  1  8  1  0  0  0  0
  1 23  1  1  0  0  0
  2  3  1  1  0  0  0
  2  8  1  0  0  0  0
  4  9  2  0  0  0  0
  6  9  1  1  0  0  0
  7  5  1  6  0  0  0
  7 10  1  0  0  0  0
  7  6  1  0  0  0  0
  9  1  1  0  0  0  0
 10  6  1  0  0  0  0
 10 11  1  1  0  0  0
 11  2  1  0  0  0  0
 12 14  2  0  0  0  0
 12 18  1  0  0  0  0
 13 18  2  0  0  0  0
 14 15  2  0  0  0  0
 16 17  2  0  0  0  0
 16 12  1  0  0  0  0
 17 13  1  0  0  0  0
 18  4  1  0  0  0  0
 19 20  1  0  0  0  0
 20 17  1  0  0  0  0
 21 16  1  0  0  0  0
 22 21  1  0  0  0  0
 23 24  1  0  0  0  0
 24 26  1  0  0  0  0
 26 25  1  1  0  0  0
 27 28  1  0  0  0  0
 28 26  1  0  0  0  0
 29 32  1  0  0  0  0
 30 29  1  0  0  0  0
 30 33  1  0  0  0  0
 31 30  2  0  0  0  0
 32 27  1  0  0  0  0
 33 27  2  0  0  0  0
M  END
>  <MODEL>
1

>  <REMARK>
 VINA RESULT:      -7.0      0.000      0.000
  Name = 
  7 active torsions:
  status: ('A' for Active; 'I' for Inactive)
    1  A    between atoms: C_1  and  O_15
    2  A    between atoms: N_8  and  C_29
    3  A    between atoms: C_9  and  O_15
    4  A    between atoms: C_9  and  C_29
    5  A    between atoms: C_10  and  C_32
    6  A    between atoms: O_18  and  C_26
    7  A    between atoms: C_27  and  O_33
                            x       y       z     vdW  Elec       q    Type
                         _______ _______ _______ _____ _____    ______ ____

>  <TORSDO>
F 7

$$$$
=
 OpenBabel11042417363D

 33 36  0  0  1  0  0  0  0  0999 V2000
  191.7660  174.0300  144.5050 C   0  0  2  0  0  3  0  0  0  0  0  0
  193.8370  175.2330  145.2030 C   0  0  1  0  0  3  0  0  0  0  0  0
  195.0070  175.1650  146.1620 C   0  0  0  0  0  1  0  0  0  0  0  0
  189.7030  175.0940  145.3220 C   0  0  0  0  0  3  0  0  0  0  0  0
  190.9380  178.7280  143.5110 O   0  0  0  0  0  1  0  0  0  0  0  0
  191.1310  176.3700  143.6790 C   0  0  2  0  0  3  0  0  0  0  0  0
  191.2060  177.7000  144.4080 C   0  0  1  0  0  3  0  0  0  0  0  0
  192.8400  174.1430  145.5740 C   0  0  0  0  0  2  0  0  0  0  0  0
  190.8110  175.1910  144.5680 C   0  0  0  0  0  0  0  0  0  0  0  0
  192.4930  177.0200  144.0060 C   0  0  1  0  0  3  0  0  0  0  0  0
  193.1890  176.6060  145.3080 C   0  0  0  0  0  2  0  0  0  0  0  0
  187.7310  176.3960  144.2420 C   0  0  0  0  0  0  0  0  0  0  0  0
  188.1960  176.7560  146.4390 C   0  0  0  0  0  3  0  0  0  0  0  0
  187.5980  175.7010  143.1440 C   0  0  0  0  0  0  0  0  0  0  0  0
  187.4680  175.0400  142.1060 O   0  0  0  0  0  0  0  0  0  0  0  0
  186.7700  177.3590  144.7480 C   0  0  0  0  0  0  0  0  0  0  0  0
  187.0600  177.5910  146.0260 C   0  0  0  0  0  0  0  0  0  0  0  0
  188.5650  176.0320  145.3840 C   0  0  0  0  0  0  0  0  0  0  0  0
  185.0430  178.2650  147.2600 C   0  0  0  0  0  1  0  0  0  0  0  0
  186.3840  178.4920  146.8470 O   0  0  0  0  0  0  0  0  0  0  0  0
  185.7370  177.9270  143.9920 O   0  0  0  0  0  0  0  0  0  0  0  0
  185.9210  179.0400  143.1330 C   0  0  0  0  0  1  0  0  0  0  0  0
  191.0940  172.8040  144.6000 O   0  0  0  0  0  0  0  0  0  0  0  0
  191.4240  172.1020  143.4320 C   0  0  0  0  0  2  0  0  0  0  0  0
  188.9420  171.9220  143.3940 C   0  0  0  0  0  1  0  0  0  0  0  0
  190.1980  171.9170  142.5460 C   0  0  1  0  0  3  0  0  0  0  0  0
  190.3010  172.7040  140.1540 C   0  0  0  0  0  0  0  0  0  0  0  0
  190.1330  172.9700  141.5470 N   0  0  0  0  0  2  0  0  0  0  0  0
  190.0080  171.6560  137.5440 S   0  0  0  0  0  0  0  0  0  0  0  0
  190.5430  173.3010  137.9600 C   0  0  0  0  0  0  0  0  0  0  0  0
  191.1670  174.0760  137.0850 C   0  0  0  0  0  2  0  0  0  0  0  0
  190.5150  171.0300  139.5240 S   0  0  0  0  0  0  0  0  0  0  0  0
  190.4240  173.6820  139.3200 N   0  0  0  0  0  0  0  0  0  0  0  0
  1  9  1  0  0  0  0
  1 23  1  1  0  0  0
  1  8  1  0  0  0  0
  2 11  1  0  0  0  0
  2  8  1  0  0  0  0
  2  3  1  1  0  0  0
  4 18  1  0  0  0  0
  6 10  1  0  0  0  0
  6  7  1  0  0  0  0
  6  9  1  1  0  0  0
  7  5  1  6  0  0  0
  9  4  2  0  0  0  0
 10  7  1  0  0  0  0
 10 11  1  1  0  0  0
 12 16  1  0  0  0  0
 12 18  1  0  0  0  0
 14 12  2  0  0  0  0
 15 14  2  0  0  0  0
 16 17  2  0  0  0  0
 17 13  1  0  0  0  0
 17 20  1  0  0  0  0
 18 13  2  0  0  0  0
 20 19  1  0  0  0  0
 21 16  1  0  0  0  0
 22 21  1  0  0  0  0
 24 23  1  0  0  0  0
 26 25  1  1  0  0  0
 26 24  1  0  0  0  0
 27 28  1  0  0  0  0
 28 26  1  0  0  0  0
 29 30  1  0  0  0  0
 29 32  1  0  0  0  0
 30 33  1  0  0  0  0
 31 30  2  0  0  0  0
 32 27  1  0  0  0  0
 33 27  2  0  0  0  0
M  END
>  <MODEL>
2

>  <REMARK>
 VINA RESULT:      -6.6      3.542      6.958
  Name = 
  7 active torsions:
  status: ('A' for Active; 'I' for Inactive)
    1  A    between atoms: C_1  and  O_15
    2  A    between atoms: N_8  and  C_29
    3  A    between atoms: C_9  and  O_15
    4  A    between atoms: C_9  and  C_29
    5  A    between atoms: C_10  and  C_32
    6  A    between atoms: O_18  and  C_26
    7  A    between atoms: C_27  and  O_33
                            x       y       z     vdW  Elec       q    Type
                         _______ _______ _______ _____ _____    ______ ____

>  <TORSDO>
F 7

$$$$
=
 OpenBabel11042417363D

 33 36  0  0  1  0  0  0  0  0999 V2000
  191.6160  175.5780  143.8200 C   0  0  2  0  0  3  0  0  0  0  0  0
  192.2230  174.3740  141.7210 C   0  0  1  0  0  3  0  0  0  0  0  0
  193.2140  174.3690  140.5760 C   0  0  0  0  0  1  0  0  0  0  0  0
  189.6290  177.0080  143.5800 C   0  0  0  0  0  3  0  0  0  0  0  0
  187.4550  173.6410  142.1830 O   0  0  0  0  0  1  0  0  0  0  0  0
  189.3370  174.5140  143.3320 C   0  0  2  0  0  3  0  0  0  0  0  0
  188.5450  174.4920  142.0370 C   0  0  1  0  0  3  0  0  0  0  0  0
  192.4320  175.6410  142.5400 C   0  0  0  0  0  2  0  0  0  0  0  0
  190.1500  175.7700  143.5420 C   0  0  0  0  0  0  0  0  0  0  0  0
  189.8160  173.6820  142.1230 C   0  0  1  0  0  3  0  0  0  0  0  0
  190.8110  174.3320  141.1540 C   0  0  0  0  0  2  0  0  0  0  0  0
  187.2280  177.1350  144.5660 C   0  0  0  0  0  0  0  0  0  0  0  0
  187.5810  177.9270  142.4640 C   0  0  0  0  0  3  0  0  0  0  0  0
  187.5060  176.9040  145.8210 C   0  0  0  0  0  0  0  0  0  0  0  0
  187.7680  176.6910  147.0110 O   0  0  0  0  0  0  0  0  0  0  0  0
  185.9650  177.6450  144.0650 C   0  0  0  0  0  0  0  0  0  0  0  0
  186.1660  178.0820  142.8240 C   0  0  0  0  0  0  0  0  0  0  0  0
  188.2050  177.3930  143.5120 C   0  0  0  0  0  0  0  0  0  0  0  0
  185.0800  178.2440  140.6240 C   0  0  0  0  0  1  0  0  0  0  0  0
  185.1770  178.6100  141.9940 O   0  0  0  0  0  0  0  0  0  0  0  0
  184.7650  177.6530  144.7880 O   0  0  0  0  0  0  0  0  0  0  0  0
  184.3400  178.7510  145.5790 C   0  0  0  0  0  1  0  0  0  0  0  0
  192.0880  176.5040  144.7600 O   0  0  0  0  0  0  0  0  0  0  0  0
  192.8700  175.7630  145.6590 C   0  0  0  0  0  2  0  0  0  0  0  0
  194.6060  177.4810  146.1410 C   0  0  0  0  0  1  0  0  0  0  0  0
  194.3440  176.1250  145.5180 C   0  0  1  0  0  3  0  0  0  0  0  0
  195.8430  174.1010  145.3970 C   0  0  0  0  0  0  0  0  0  0  0  0
  195.1750  175.1140  146.1510 N   0  0  0  0  0  2  0  0  0  0  0  0
  197.4780  172.7620  143.5200 S   0  0  0  0  0  0  0  0  0  0  0  0
  197.0830  172.1950  145.1600 C   0  0  0  0  0  0  0  0  0  0  0  0
  197.2560  170.9330  145.5250 C   0  0  0  0  0  2  0  0  0  0  0  0
  195.7810  174.0580  143.5980 S   0  0  0  0  0  0  0  0  0  0  0  0
  196.4150  173.1160  146.0050 N   0  0  0  0  0  0  0  0  0  0  0  0
  1 23  1  1  0  0  0
  2  3  1  6  0  0  0
  2  8  1  0  0  0  0
  6  9  1  6  0  0  0
  7 10  1  0  0  0  0
  7  5  1  1  0  0  0
  7  6  1  0  0  0  0
  8  1  1  0  0  0  0
  9  4  2  0  0  0  0
  9  1  1  0  0  0  0
 10 11  1  6  0  0  0
 10  6  1  0  0  0  0
 11  2  1  0  0  0  0
 12 14  2  0  0  0  0
 13 17  1  0  0  0  0
 13 18  2  0  0  0  0
 14 15  2  0  0  0  0
 16 12  1  0  0  0  0
 16 21  1  0  0  0  0
 17 16  2  0  0  0  0
 18  4  1  0  0  0  0
 18 12  1  0  0  0  0
 19 20  1  0  0  0  0
 20 17  1  0  0  0  0
 21 22  1  0  0  0  0
 23 24  1  0  0  0  0
 26 24  1  0  0  0  0
 26 25  1  1  0  0  0
 26 28  1  0  0  0  0
 27 33  2  0  0  0  0
 27 28  1  0  0  0  0
 29 32  1  0  0  0  0
 29 30  1  0  0  0  0
 30 31  2  0  0  0  0
 30 33  1  0  0  0  0
 32 27  1  0  0  0  0
M  END
>  <MODEL>
3

>  <REMARK>
 VINA RESULT:      -6.5      2.171      5.569
  Name = 
  7 active torsions:
  status: ('A' for Active; 'I' for Inactive)
    1  A    between atoms: C_1  and  O_15
    2  A    between atoms: N_8  and  C_29
    3  A    between atoms: C_9  and  O_15
    4  A    between atoms: C_9  and  C_29
    5  A    between atoms: C_10  and  C_32
    6  A    between atoms: O_18  and  C_26
    7  A    between atoms: C_27  and  O_33
                            x       y       z     vdW  Elec       q    Type
                         _______ _______ _______ _____ _____    ______ ____

>  <TORSDO>
F 7

$$$$
=
 OpenBabel11042417363D

 33 36  0  0  1  0  0  0  0  0999 V2000
  190.2150  174.0740  144.5790 C   0  0  2  0  0  3  0  0  0  0  0  0
  191.0950  175.3910  146.5060 C   0  0  1  0  0  3  0  0  0  0  0  0
  191.1270  175.4410  148.0190 C   0  0  0  0  0  1  0  0  0  0  0  0
  188.3060  175.1470  143.4590 C   0  0  0  0  0  3  0  0  0  0  0  0
  190.6590  178.6400  142.9370 O   0  0  0  0  0  1  0  0  0  0  0  0
  190.5420  176.3130  143.3780 C   0  0  2  0  0  3  0  0  0  0  0  0
  190.1030  177.7030  143.8020 C   0  0  1  0  0  3  0  0  0  0  0  0
  190.1110  174.3100  146.0760 C   0  0  0  0  0  2  0  0  0  0  0  0
  189.6020  175.2080  143.8040 C   0  0  0  0  0  0  0  0  0  0  0  0
  191.2130  177.0260  144.5710 C   0  0  1  0  0  3  0  0  0  0  0  0
  190.6610  176.7490  145.9740 C   0  0  0  0  0  2  0  0  0  0  0  0
  186.3670  176.7990  142.9450 C   0  0  0  0  0  0  0  0  0  0  0  0
  187.7990  176.2510  141.2660 C   0  0  0  0  0  3  0  0  0  0  0  0
  186.0080  177.0860  144.1680 C   0  0  0  0  0  0  0  0  0  0  0  0
  185.6710  177.3640  145.3250 O   0  0  0  0  0  0  0  0  0  0  0  0
  185.9580  177.5250  141.7570 C   0  0  0  0  0  0  0  0  0  0  0  0
  186.7790  177.1820  140.7680 C   0  0  0  0  0  0  0  0  0  0  0  0
  187.5630  176.0550  142.5630 C   0  0  0  0  0  0  0  0  0  0  0  0
  186.3760  176.7670  138.3780 C   0  0  0  0  0  1  0  0  0  0  0  0
  186.6830  177.6420  139.4540 O   0  0  0  0  0  0  0  0  0  0  0  0
  184.8790  178.4160  141.6990 O   0  0  0  0  0  0  0  0  0  0  0  0
  183.8110  178.2870  140.7740 C   0  0  0  0  0  1  0  0  0  0  0  0
  189.6460  172.8420  144.2270 O   0  0  0  0  0  0  0  0  0  0  0  0
  190.6970  171.9150  144.2700 C   0  0  0  0  0  2  0  0  0  0  0  0
  192.0830  170.4060  142.8550 C   0  0  0  0  0  1  0  0  0  0  0  0
  191.2760  171.6890  142.8780 C   0  0  1  0  0  3  0  0  0  0  0  0
  190.2660  172.3720  140.6720 C   0  0  0  0  0  0  0  0  0  0  0  0
  190.2120  171.6290  141.8910 N   0  0  0  0  0  2  0  0  0  0  0  0
  191.0860  173.4270  138.1810 S   0  0  0  0  0  0  0  0  0  0  0  0
  189.4060  173.1680  138.7090 C   0  0  0  0  0  0  0  0  0  0  0  0
  188.3840  173.7550  138.1040 C   0  0  0  0  0  2  0  0  0  0  0  0
  191.7000  173.3650  140.2270 S   0  0  0  0  0  0  0  0  0  0  0  0
  189.2250  172.4400  139.9110 N   0  0  0  0  0  0  0  0  0  0  0  0
  1 23  1  1  0  0  0
  1  8  1  0  0  0  0
  2  3  1  1  0  0  0
  4  9  2  0  0  0  0
  6  7  1  0  0  0  0
  6  9  1  1  0  0  0
  6 10  1  0  0  0  0
  7  5  1  6  0  0  0
  7 10  1  0  0  0  0
  8  2  1  0  0  0  0
  9  1  1  0  0  0  0
 10 11  1  1  0  0  0
 11  2  1  0  0  0  0
 12 14  2  0  0  0  0
 13 18  2  0  0  0  0
 14 15  2  0  0  0  0
 16 12  1  0  0  0  0
 17 13  1  0  0  0  0
 17 16  2  0  0  0  0
 18 12  1  0  0  0  0
 18  4  1  0  0  0  0
 19 20  1  0  0  0  0
 20 17  1  0  0  0  0
 21 16  1  0  0  0  0
 22 21  1  0  0  0  0
 23 24  1  0  0  0  0
 26 25  1  1  0  0  0
 26 24  1  0  0  0  0
 27 28  1  0  0  0  0
 28 26  1  0  0  0  0
 29 30  1  0  0  0  0
 29 32  1  0  0  0  0
 30 33  1  0  0  0  0
 31 30  2  0  0  0  0
 32 27  1  0  0  0  0
 33 27  2  0  0  0  0
M  END
>  <MODEL>
4

>  <REMARK>
 VINA RESULT:      -6.4      3.397      6.085
  Name = 
  7 active torsions:
  status: ('A' for Active; 'I' for Inactive)
    1  A    between atoms: C_1  and  O_15
    2  A    between atoms: N_8  and  C_29
    3  A    between atoms: C_9  and  O_15
    4  A    between atoms: C_9  and  C_29
    5  A    between atoms: C_10  and  C_32
    6  A    between atoms: O_18  and  C_26
    7  A    between atoms: C_27  and  O_33
                            x       y       z     vdW  Elec       q    Type
                         _______ _______ _______ _____ _____    ______ ____

>  <TORSDO>
F 7

$$$$
=
 OpenBabel11042417363D

 33 36  0  0  1  0  0  0  0  0999 V2000
  190.9310  174.1530  143.3180 C   0  0  2  0  0  3  0  0  0  0  0  0
  192.7880  174.6640  144.9030 C   0  0  1  0  0  3  0  0  0  0  0  0
  193.5450  174.1120  146.0920 C   0  0  0  0  0  1  0  0  0  0  0  0
  188.8770  175.4260  143.7840 C   0  0  0  0  0  3  0  0  0  0  0  0
  191.1300  179.0160  143.5610 O   0  0  0  0  0  1  0  0  0  0  0  0
  190.9340  176.7030  143.0730 C   0  0  2  0  0  3  0  0  0  0  0  0
  190.9380  177.7710  144.1520 C   0  0  1  0  0  3  0  0  0  0  0  0
  191.5860  173.7680  144.6330 C   0  0  0  0  0  2  0  0  0  0  0  0
  190.1770  175.4490  143.4440 C   0  0  0  0  0  0  0  0  0  0  0  0
  192.1810  176.9360  143.9540 C   0  0  1  0  0  3  0  0  0  0  0  0
  192.3350  176.0820  145.2180 C   0  0  0  0  0  2  0  0  0  0  0  0
  187.4650  177.2390  144.9950 C   0  0  0  0  0  0  0  0  0  0  0  0
  187.2660  177.0370  142.7390 C   0  0  0  0  0  3  0  0  0  0  0  0
  188.0790  177.2470  146.1480 C   0  0  0  0  0  0  0  0  0  0  0  0
  188.6630  177.2590  147.2380 O   0  0  0  0  0  0  0  0  0  0  0  0
  186.5200  178.2430  144.5400 C   0  0  0  0  0  0  0  0  0  0  0  0
  186.3830  178.1050  143.2230 C   0  0  0  0  0  0  0  0  0  0  0  0
  187.9230  176.5520  143.7910 C   0  0  0  0  0  0  0  0  0  0  0  0
  184.5070  178.2630  141.6410 C   0  0  0  0  0  1  0  0  0  0  0  0
  185.5270  178.8650  142.4260 O   0  0  0  0  0  0  0  0  0  0  0  0
  185.8800  179.1710  145.3710 O   0  0  0  0  0  0  0  0  0  0  0  0
  184.6040  178.9500  145.9490 C   0  0  0  0  0  1  0  0  0  0  0  0
  190.1060  173.1210  142.8490 O   0  0  0  0  0  0  0  0  0  0  0  0
  190.2800  173.1020  141.4580 C   0  0  0  0  0  2  0  0  0  0  0  0
  187.8200  172.8200  141.7190 C   0  0  0  0  0  1  0  0  0  0  0  0
  188.9850  172.7090  140.7560 C   0  0  1  0  0  3  0  0  0  0  0  0
  189.1830  173.1770  138.2870 C   0  0  0  0  0  0  0  0  0  0  0  0
  188.7610  173.5570  139.5970 N   0  0  0  0  0  2  0  0  0  0  0  0
  189.5490  171.7630  135.8660 S   0  0  0  0  0  0  0  0  0  0  0  0
  189.5380  173.5330  136.0560 C   0  0  0  0  0  0  0  0  0  0  0  0
  190.0300  174.3390  135.1270 C   0  0  0  0  0  2  0  0  0  0  0  0
  189.9410  171.5770  137.9590 S   0  0  0  0  0  0  0  0  0  0  0  0
  189.1360  174.0310  137.3210 N   0  0  0  0  0  0  0  0  0  0  0  0
  1 23  1  1  0  0  0
  1  9  1  0  0  0  0
  1  8  1  0  0  0  0
  2 11  1  0  0  0  0
  2  3  1  1  0  0  0
  4 18  1  0  0  0  0
  6  9  1  1  0  0  0
  6 10  1  0  0  0  0
  6  7  1  0  0  0  0
  7  5  1  6  0  0  0
  8  2  1  0  0  0  0
  9  4  2  0  0  0  0
 10  7  1  0  0  0  0
 10 11  1  1  0  0  0
 12 14  2  0  0  0  0
 13 17  1  0  0  0  0
 13 18  2  0  0  0  0
 14 15  2  0  0  0  0
 16 12  1  0  0  0  0
 16 21  1  0  0  0  0
 17 16  2  0  0  0  0
 18 12  1  0  0  0  0
 19 20  1  0  0  0  0
 20 17  1  0  0  0  0
 21 22  1  0  0  0  0
 24 23  1  0  0  0  0
 26 24  1  0  0  0  0
 26 25  1  1  0  0  0
 27 28  1  0  0  0  0
 28 26  1  0  0  0  0
 29 30  1  0  0  0  0
 29 32  1  0  0  0  0
 30 33  1  0  0  0  0
 31 30  2  0  0  0  0
 32 27  1  0  0  0  0
 33 27  2  0  0  0  0
M  END
>  <MODEL>
5

>  <REMARK>
 VINA RESULT:      -6.4      3.994      7.391
  Name = 
  7 active torsions:
  status: ('A' for Active; 'I' for Inactive)
    1  A    between atoms: C_1  and  O_15
    2  A    between atoms: N_8  and  C_29
    3  A    between atoms: C_9  and  O_15
    4  A    between atoms: C_9  and  C_29
    5  A    between atoms: C_10  and  C_32
    6  A    between atoms: O_18  and  C_26
    7  A    between atoms: C_27  and  O_33
                            x       y       z     vdW  Elec       q    Type
                         _______ _______ _______ _____ _____    ______ ____

>  <TORSDO>
F 7

$$$$
=
 OpenBabel11042417363D

 33 36  0  0  1  0  0  0  0  0999 V2000
  191.8490  174.0370  144.3110 C   0  0  2  0  0  3  0  0  0  0  0  0
  193.8060  175.3220  145.1730 C   0  0  1  0  0  3  0  0  0  0  0  0
  194.8690  175.3220  146.2510 C   0  0  0  0  0  1  0  0  0  0  0  0
  189.6870  175.0700  144.8650 C   0  0  0  0  0  3  0  0  0  0  0  0
  191.0160  178.6690  143.0510 O   0  0  0  0  0  1  0  0  0  0  0  0
  191.2480  176.3260  143.3310 C   0  0  2  0  0  3  0  0  0  0  0  0
  191.2130  177.6830  144.0120 C   0  0  1  0  0  3  0  0  0  0  0  0
  192.8020  174.2180  145.4800 C   0  0  0  0  0  2  0  0  0  0  0  0
  190.8650  175.1710  144.2280 C   0  0  0  0  0  0  0  0  0  0  0  0
  192.5510  177.0250  143.7730 C   0  0  1  0  0  3  0  0  0  0  0  0
  193.1170  176.6790  145.1550 C   0  0  0  0  0  2  0  0  0  0  0  0
  188.1340  176.9290  145.8080 C   0  0  0  0  0  0  0  0  0  0  0  0
  187.6150  175.9970  143.7990 C   0  0  0  0  0  3  0  0  0  0  0  0
  188.9130  177.3960  146.7460 C   0  0  0  0  0  0  0  0  0  0  0  0
  189.6530  177.8430  147.6320 O   0  0  0  0  0  0  0  0  0  0  0  0
  186.9330  177.5760  145.3130 C   0  0  0  0  0  0  0  0  0  0  0  0
  186.6140  177.0110  144.1520 C   0  0  0  0  0  0  0  0  0  0  0  0
  188.5260  175.9770  144.7710 C   0  0  0  0  0  0  0  0  0  0  0  0
  185.4930  178.4490  142.5020 C   0  0  0  0  0  1  0  0  0  0  0  0
  185.4950  177.3370  143.3860 O   0  0  0  0  0  0  0  0  0  0  0  0
  186.2530  178.6080  145.9750 O   0  0  0  0  0  0  0  0  0  0  0  0
  185.1430  178.3860  146.8290 C   0  0  0  0  0  1  0  0  0  0  0  0
  191.2010  172.7960  144.3830 O   0  0  0  0  0  0  0  0  0  0  0  0
  191.4440  172.1710  143.1520 C   0  0  0  0  0  2  0  0  0  0  0  0
  188.9800  171.9110  143.3900 C   0  0  0  0  0  1  0  0  0  0  0  0
  190.1380  171.9020  142.4130 C   0  0  1  0  0  3  0  0  0  0  0  0
  190.2410  172.6470  140.0070 C   0  0  0  0  0  0  0  0  0  0  0  0
  189.9280  172.9000  141.3780 N   0  0  0  0  0  2  0  0  0  0  0  0
  190.3410  171.5120  137.4200 S   0  0  0  0  0  0  0  0  0  0  0  0
  190.5030  173.2400  137.8150 C   0  0  0  0  0  0  0  0  0  0  0  0
  191.0140  174.1090  136.9550 C   0  0  0  0  0  2  0  0  0  0  0  0
  190.8310  171.0410  139.4470 S   0  0  0  0  0  0  0  0  0  0  0  0
  190.2180  173.6130  139.1520 N   0  0  0  0  0  0  0  0  0  0  0  0
  1 23  1  1  0  0  0
  1  8  1  0  0  0  0
  2  8  1  0  0  0  0
  2  3  1  1  0  0  0
  6 10  1  0  0  0  0
  6  7  1  0  0  0  0
  6  9  1  1  0  0  0
  7  5  1  6  0  0  0
  9  1  1  0  0  0  0
  9  4  2  0  0  0  0
 10  7  1  0  0  0  0
 10 11  1  1  0  0  0
 11  2  1  0  0  0  0
 12 14  2  0  0  0  0
 13 17  1  0  0  0  0
 13 18  2  0  0  0  0
 14 15  2  0  0  0  0
 16 12  1  0  0  0  0
 16 21  1  0  0  0  0
 17 16  2  0  0  0  0
 18  4  1  0  0  0  0
 18 12  1  0  0  0  0
 19 20  1  0  0  0  0
 20 17  1  0  0  0  0
 21 22  1  0  0  0  0
 24 23  1  0  0  0  0
 26 24  1  0  0  0  0
 26 25  1  1  0  0  0
 27 28  1  0  0  0  0
 28 26  1  0  0  0  0
 29 30  1  0  0  0  0
 29 32  1  0  0  0  0
 30 33  1  0  0  0  0
 31 30  2  0  0  0  0
 32 27  1  0  0  0  0
 33 27  2  0  0  0  0
M  END
>  <MODEL>
6

>  <REMARK>
 VINA RESULT:      -6.4      3.507      6.868
  Name = 
  7 active torsions:
  status: ('A' for Active; 'I' for Inactive)
    1  A    between atoms: C_1  and  O_15
    2  A    between atoms: N_8  and  C_29
    3  A    between atoms: C_9  and  O_15
    4  A    between atoms: C_9  and  C_29
    5  A    between atoms: C_10  and  C_32
    6  A    between atoms: O_18  and  C_26
    7  A    between atoms: C_27  and  O_33
                            x       y       z     vdW  Elec       q    Type
                         _______ _______ _______ _____ _____    ______ ____

>  <TORSDO>
F 7

$$$$
=
 OpenBabel11042417363D

 33 36  0  0  1  0  0  0  0  0999 V2000
  187.6440  177.0200  142.6170 C   0  0  2  0  0  3  0  0  0  0  0  0
  186.1970  178.4750  144.0350 C   0  0  1  0  0  3  0  0  0  0  0  0
  185.5480  179.8420  144.0930 C   0  0  0  0  0  1  0  0  0  0  0  0
  189.9510  176.8340  143.4510 C   0  0  0  0  0  3  0  0  0  0  0  0
  188.4230  175.5560  147.1990 O   0  0  0  0  0  1  0  0  0  0  0  0
  188.0910  175.8970  144.8760 C   0  0  2  0  0  3  0  0  0  0  0  0
  188.4650  176.5280  146.2050 C   0  0  1  0  0  3  0  0  0  0  0  0
  187.1450  178.4360  142.8440 C   0  0  0  0  0  2  0  0  0  0  0  0
  188.6430  176.6190  143.6680 C   0  0  0  0  0  0  0  0  0  0  0  0
  187.0700  176.7410  145.6680 C   0  0  1  0  0  3  0  0  0  0  0  0
  186.9580  178.2330  145.3300 C   0  0  0  0  0  2  0  0  0  0  0  0
  191.4310  174.9610  144.4770 C   0  0  0  0  0  0  0  0  0  0  0  0
  191.9080  177.1240  144.9910 C   0  0  0  0  0  3  0  0  0  0  0  0
  191.0600  173.9640  143.7200 C   0  0  0  0  0  0  0  0  0  0  0  0
  190.7130  173.0190  143.0000 O   0  0  0  0  0  0  0  0  0  0  0  0
  192.5890  174.9660  145.3520 C   0  0  0  0  0  0  0  0  0  0  0  0
  192.8500  176.2300  145.6760 C   0  0  0  0  0  0  0  0  0  0  0  0
  191.0920  176.3650  144.2610 C   0  0  0  0  0  0  0  0  0  0  0  0
  194.8780  177.5480  146.1190 C   0  0  0  0  0  1  0  0  0  0  0  0
  193.8680  176.6400  146.5360 O   0  0  0  0  0  0  0  0  0  0  0  0
  193.2790  173.8200  145.7670 O   0  0  0  0  0  0  0  0  0  0  0  0
  194.4430  173.3340  145.1180 C   0  0  0  0  0  1  0  0  0  0  0  0
  188.1690  176.8750  141.3250 O   0  0  0  0  0  0  0  0  0  0  0  0
  187.4510  175.8210  140.7420 C   0  0  0  0  0  2  0  0  0  0  0  0
  187.9250  173.4830  141.4530 C   0  0  0  0  0  1  0  0  0  0  0  0
  188.3480  174.6080  140.5300 C   0  0  1  0  0  3  0  0  0  0  0  0
  189.4010  173.5600  138.4930 C   0  0  0  0  0  0  0  0  0  0  0  0
  188.2860  174.1690  139.1460 N   0  0  0  0  0  2  0  0  0  0  0  0
  191.5440  171.8340  137.8430 S   0  0  0  0  0  0  0  0  0  0  0  0
  190.5130  172.7090  136.6860 C   0  0  0  0  0  0  0  0  0  0  0  0
  190.8720  172.8830  135.4220 C   0  0  0  0  0  2  0  0  0  0  0  0
  190.9360  173.2060  139.3650 S   0  0  0  0  0  0  0  0  0  0  0  0
  189.3710  173.3570  137.2190 N   0  0  0  0  0  0  0  0  0  0  0  0
  1 23  1  6  0  0  0
  1  8  1  0  0  0  0
  1  9  1  0  0  0  0
  2  3  1  1  0  0  0
  2 11  1  0  0  0  0
  4  9  2  0  0  0  0
  4 18  1  0  0  0  0
  6  9  1  6  0  0  0
  6 10  1  0  0  0  0
  6  7  1  0  0  0  0
  7  5  1  1  0  0  0
  8  2  1  0  0  0  0
 10 11  1  6  0  0  0
 10  7  1  0  0  0  0
 12 16  1  0  0  0  0
 13 17  1  0  0  0  0
 14 12  2  0  0  0  0
 15 14  2  0  0  0  0
 16 17  2  0  0  0  0
 16 21  1  0  0  0  0
 17 20  1  0  0  0  0
 18 12  1  0  0  0  0
 18 13  2  0  0  0  0
 19 20  1  0  0  0  0
 22 21  1  0  0  0  0
 24 23  1  0  0  0  0
 26 24  1  0  0  0  0
 26 25  1  1  0  0  0
 27 28  1  0  0  0  0
 27 32  1  0  0  0  0
 28 26  1  0  0  0  0
 29 32  1  0  0  0  0
 30 33  1  0  0  0  0
 30 29  1  0  0  0  0
 31 30  2  0  0  0  0
 33 27  2  0  0  0  0
M  END
>  <MODEL>
7

>  <REMARK>
 VINA RESULT:      -6.2      3.635      6.376
  Name = 
  7 active torsions:
  status: ('A' for Active; 'I' for Inactive)
    1  A    between atoms: C_1  and  O_15
    2  A    between atoms: N_8  and  C_29
    3  A    between atoms: C_9  and  O_15
    4  A    between atoms: C_9  and  C_29
    5  A    between atoms: C_10  and  C_32
    6  A    between atoms: O_18  and  C_26
    7  A    between atoms: C_27  and  O_33
                            x       y       z     vdW  Elec       q    Type
                         _______ _______ _______ _____ _____    ______ ____

>  <TORSDO>
F 7

$$$$
=
 OpenBabel11042417363D

 33 36  0  0  1  0  0  0  0  0999 V2000
  186.9330  176.6740  143.9990 C   0  0  2  0  0  3  0  0  0  0  0  0
  186.0660  177.7130  146.0950 C   0  0  1  0  0  3  0  0  0  0  0  0
  185.3170  178.9180  146.6240 C   0  0  0  0  0  1  0  0  0  0  0  0
  189.3710  176.8880  143.7440 C   0  0  0  0  0  3  0  0  0  0  0  0
  189.8610  175.0730  147.5490 O   0  0  0  0  0  1  0  0  0  0  0  0
  188.4910  175.5040  145.6630 C   0  0  2  0  0  3  0  0  0  0  0  0
  189.3170  176.1010  146.7880 C   0  0  1  0  0  3  0  0  0  0  0  0
  186.3850  177.9450  144.6230 C   0  0  0  0  0  2  0  0  0  0  0  0
  188.3400  176.4040  144.4580 C   0  0  0  0  0  0  0  0  0  0  0  0
  187.8130  176.0740  146.9280 C   0  0  1  0  0  3  0  0  0  0  0  0
  187.3480  177.5340  146.8960 C   0  0  0  0  0  2  0  0  0  0  0  0
  191.4860  175.4290  143.3630 C   0  0  0  0  0  0  0  0  0  0  0  0
  191.6660  177.2770  144.6760 C   0  0  0  0  0  3  0  0  0  0  0  0
  191.0660  174.7110  142.3560 C   0  0  0  0  0  0  0  0  0  0  0  0
  190.6710  174.0330  141.3990 O   0  0  0  0  0  0  0  0  0  0  0  0
  192.8650  175.5280  143.8060 C   0  0  0  0  0  0  0  0  0  0  0  0
  192.9630  176.5930  144.5970 C   0  0  0  0  0  0  0  0  0  0  0  0
  190.8070  176.5960  143.9180 C   0  0  0  0  0  0  0  0  0  0  0  0
  194.8230  176.1330  146.1380 C   0  0  0  0  0  1  0  0  0  0  0  0
  194.1260  176.9980  145.2520 O   0  0  0  0  0  0  0  0  0  0  0  0
  193.8840  174.6350  143.4490 O   0  0  0  0  0  0  0  0  0  0  0  0
  194.7360  174.8320  142.3320 C   0  0  0  0  0  1  0  0  0  0  0  0
  186.8480  176.7270  142.6010 O   0  0  0  0  0  0  0  0  0  0  0  0
  185.5590  177.2020  142.3190 C   0  0  0  0  0  2  0  0  0  0  0  0
  186.6850  177.7130  140.1580 C   0  0  0  0  0  1  0  0  0  0  0  0
  185.5750  178.1230  141.1050 C   0  0  1  0  0  3  0  0  0  0  0  0
  183.0590  178.2880  141.1120 C   0  0  0  0  0  0  0  0  0  0  0  0
  184.2930  178.0810  140.4220 N   0  0  0  0  0  2  0  0  0  0  0  0
  180.9950  179.4060  142.6880 S   0  0  0  0  0  0  0  0  0  0  0  0
  180.7800  178.3390  141.2800 C   0  0  0  0  0  0  0  0  0  0  0  0
  179.6370  177.7100  141.0470 C   0  0  0  0  0  2  0  0  0  0  0  0
  183.0080  178.7080  142.8620 S   0  0  0  0  0  0  0  0  0  0  0  0
  181.9390  178.0590  140.5140 N   0  0  0  0  0  0  0  0  0  0  0  0
  1 23  1  6  0  0  0
  1  9  1  0  0  0  0
  1  8  1  0  0  0  0
  2  3  1  1  0  0  0
  2 11  1  0  0  0  0
  4 18  1  0  0  0  0
  4  9  2  0  0  0  0
  6  9  1  6  0  0  0
  6  7  1  0  0  0  0
  6 10  1  0  0  0  0
  7 10  1  0  0  0  0
  7  5  1  1  0  0  0
  8  2  1  0  0  0  0
 10 11  1  6  0  0  0
 12 16  1  0  0  0  0
 12 18  1  0  0  0  0
 14 12  2  0  0  0  0
 15 14  2  0  0  0  0
 16 17  2  0  0  0  0
 17 13  1  0  0  0  0
 17 20  1  0  0  0  0
 18 13  2  0  0  0  0
 20 19  1  0  0  0  0
 21 16  1  0  0  0  0
 22 21  1  0  0  0  0
 24 23  1  0  0  0  0
 26 25  1  6  0  0  0
 26 24  1  0  0  0  0
 27 32  1  0  0  0  0
 28 26  1  0  0  0  0
 28 27  1  0  0  0  0
 29 32  1  0  0  0  0
 30 29  1  0  0  0  0
 31 30  2  0  0  0  0
 33 27  2  0  0  0  0
 33 30  1  0  0  0  0
M  END
>  <MODEL>
8

>  <REMARK>
 VINA RESULT:      -6.2      4.790      7.661
  Name = 
  7 active torsions:
  status: ('A' for Active; 'I' for Inactive)
    1  A    between atoms: C_1  and  O_15
    2  A    between atoms: N_8  and  C_29
    3  A    between atoms: C_9  and  O_15
    4  A    between atoms: C_9  and  C_29
    5  A    between atoms: C_10  and  C_32
    6  A    between atoms: O_18  and  C_26
    7  A    between atoms: C_27  and  O_33
                            x       y       z     vdW  Elec       q    Type
                         _______ _______ _______ _____ _____    ______ ____

>  <TORSDO>
F 7

$$$$
=
 OpenBabel11042417363D

 33 36  0  0  1  0  0  0  0  0999 V2000
  188.1340  175.0680  142.8140 C   0  0  2  0  0  3  0  0  0  0  0  0
  187.0800  177.3190  143.0220 C   0  0  1  0  0  3  0  0  0  0  0  0
  186.4390  178.4300  142.2170 C   0  0  0  0  0  1  0  0  0  0  0  0
  190.5830  175.1160  143.0440 C   0  0  0  0  0  3  0  0  0  0  0  0
  190.1280  177.0750  146.7820 O   0  0  0  0  0  1  0  0  0  0  0  0
  189.1870  175.7640  145.0430 C   0  0  2  0  0  3  0  0  0  0  0  0
  189.8840  177.0620  145.4120 C   0  0  1  0  0  3  0  0  0  0  0  0
  187.6810  176.3040  142.0570 C   0  0  0  0  0  2  0  0  0  0  0  0
  189.3840  175.3410  143.6060 C   0  0  0  0  0  0  0  0  0  0  0  0
  188.3920  177.0810  145.1790 C   0  0  1  0  0  3  0  0  0  0  0  0
  188.1620  177.9130  143.9120 C   0  0  0  0  0  2  0  0  0  0  0  0
  192.4470  174.0790  144.5280 C   0  0  0  0  0  0  0  0  0  0  0  0
  192.7540  176.1790  143.7100 C   0  0  0  0  0  3  0  0  0  0  0  0
  192.0570  172.8330  144.5130 C   0  0  0  0  0  0  0  0  0  0  0  0
  191.6910  171.6510  144.4960 O   0  0  0  0  0  0  0  0  0  0  0  0
  193.7440  174.5480  144.9800 C   0  0  0  0  0  0  0  0  0  0  0  0
  193.9110  175.7870  144.5240 C   0  0  0  0  0  0  0  0  0  0  0  0
  191.9080  175.1500  143.6940 C   0  0  0  0  0  0  0  0  0  0  0  0
  196.0740  176.7370  143.8400 C   0  0  0  0  0  1  0  0  0  0  0  0
  195.0220  176.5910  144.7840 O   0  0  0  0  0  0  0  0  0  0  0  0
  194.6340  173.8010  145.7630 O   0  0  0  0  0  0  0  0  0  0  0  0
  195.7730  173.1410  145.2340 C   0  0  0  0  0  1  0  0  0  0  0  0
  188.3030  173.9820  141.9430 O   0  0  0  0  0  0  0  0  0  0  0  0
  188.1880  174.5140  140.6510 C   0  0  0  0  0  2  0  0  0  0  0  0
  188.2340  173.8430  138.2540 C   0  0  0  0  0  1  0  0  0  0  0  0
  188.8270  173.5860  139.6250 C   0  0  1  0  0  3  0  0  0  0  0  0
  191.1690  172.8950  140.2540 C   0  0  0  0  0  0  0  0  0  0  0  0
  190.2670  173.7830  139.5920 N   0  0  0  0  0  2  0  0  0  0  0  0
  192.5630  170.5810  141.0880 S   0  0  0  0  0  0  0  0  0  0  0  0
  193.2260  172.2300  140.9980 C   0  0  0  0  0  0  0  0  0  0  0  0
  194.3400  172.5720  141.6290 C   0  0  0  0  0  2  0  0  0  0  0  0
  190.5940  171.4130  141.1000 S   0  0  0  0  0  0  0  0  0  0  0  0
  192.4170  173.2040  140.3610 N   0  0  0  0  0  0  0  0  0  0  0  0
  1 23  1  6  0  0  0
  1  9  1  0  0  0  0
  2  3  1  6  0  0  0
  2 11  1  0  0  0  0
  4  9  2  0  0  0  0
  4 18  1  0  0  0  0
  6  9  1  6  0  0  0
  6 10  1  0  0  0  0
  6  7  1  0  0  0  0
  7  5  1  1  0  0  0
  8  1  1  0  0  0  0
  8  2  1  0  0  0  0
 10 11  1  6  0  0  0
 10  7  1  0  0  0  0
 12 16  1  0  0  0  0
 13 17  1  0  0  0  0
 14 12  2  0  0  0  0
 15 14  2  0  0  0  0
 16 21  1  0  0  0  0
 17 20  1  0  0  0  0
 17 16  2  0  0  0  0
 18 13  2  0  0  0  0
 18 12  1  0  0  0  0
 19 20  1  0  0  0  0
 22 21  1  0  0  0  0
 24 23  1  0  0  0  0
 26 25  1  6  0  0  0
 26 24  1  0  0  0  0
 27 33  2  0  0  0  0
 27 32  1  0  0  0  0
 28 26  1  0  0  0  0
 28 27  1  0  0  0  0
 29 32  1  0  0  0  0
 30 29  1  0  0  0  0
 30 31  2  0  0  0  0
 33 30  1  0  0  0  0
M  END
>  <MODEL>
9

>  <REMARK>
 VINA RESULT:      -6.1      3.159      5.902
  Name = 
  7 active torsions:
  status: ('A' for Active; 'I' for Inactive)
    1  A    between atoms: C_1  and  O_15
    2  A    between atoms: N_8  and  C_29
    3  A    between atoms: C_9  and  O_15
    4  A    between atoms: C_9  and  C_29
    5  A    between atoms: C_10  and  C_32
    6  A    between atoms: O_18  and  C_26
    7  A    between atoms: C_27  and  O_33
                            x       y       z     vdW  Elec       q    Type
                         _______ _______ _______ _____ _____    ______ ____

>  <TORSDO>
F 7

$$$$
