=
 OpenBabel11042418563D

 31 34  0  0  1  0  0  0  0  0999 V2000
  187.7570  178.0250  142.6770 C   0  0  0  0  0  3  0  0  0  0  0  0
  188.5830  172.8740  142.4460 C   0  0  0  0  0  3  0  0  0  0  0  0
  189.2990  173.9860  143.0070 N   0  0  0  0  0  0  0  0  0  0  0  0
  188.2570  175.0910  140.4500 N   0  0  0  0  0  0  0  0  0  0  0  0
  188.0690  177.7280  144.0490 N   0  0  0  0  0  0  0  0  0  0  0  0
  188.3800  173.3750  138.7820 C   0  0  0  0  0  1  0  0  0  0  0  0
  189.9300  176.2760  143.4530 C   0  0  2  0  0  3  0  0  0  0  0  0
  189.0280  176.9490  144.4580 C   0  0  0  0  0  0  0  0  0  0  0  0
  187.8240  177.1690  141.6440 C   0  0  0  0  0  0  0  0  0  0  0  0
  189.1660  175.2390  142.6900 C   0  0  0  0  0  0  0  0  0  0  0  0
  187.5510  177.6880  140.3830 O   0  0  0  0  0  1  0  0  0  0  0  0
  188.0560  175.6710  141.7700 C   0  0  2  0  0  3  0  0  0  0  0  0
  188.2870  173.8190  140.1980 C   0  0  0  0  0  0  0  0  0  0  0  0
  188.1480  172.8230  141.2210 N   0  0  0  0  0  0  0  0  0  0  0  0
  192.1210  176.9970  144.0770 C   0  0  0  0  0  2  0  0  0  0  0  0
  193.5470  176.5530  144.4010 C   0  0  0  0  0  2  0  0  0  0  0  0
  192.5470  174.5770  145.6010 C   0  0  0  0  0  2  0  0  0  0  0  0
  193.5720  175.7100  145.6770 C   0  0  2  0  0  3  0  0  0  0  0  0
  191.1730  175.1240  145.2200 C   0  0  0  0  0  2  0  0  0  0  0  0
  191.2520  175.8270  143.9330 N   0  0  1  0  0  0  0  0  0  0  0  0
  193.3210  176.5120  146.7930 O   0  0  0  0  0  0  0  0  0  0  0  0
  194.3620  177.3130  146.8700 O   0  0  0  0  0  1  0  0  0  0  0  0
  189.2050  176.7410  145.8250 O   0  0  0  0  0  0  0  0  0  0  0  0
  188.3770  177.2890  146.7250 O   0  0  0  0  0  0  0  0  0  0  0  0
  187.4990  176.2590  147.0690 C   0  0  0  0  0  2  0  0  0  0  0  0
  186.1460  176.8340  147.4490 C   0  0  0  0  0  2  0  0  0  0  0  0
  185.3750  177.1200  146.2470 N   0  0  0  0  0  2  0  0  0  0  0  0
  185.6930  179.4040  147.1410 O   0  0  0  0  0  1  0  0  0  0  0  0
  184.8680  179.0690  144.9900 O   0  0  0  0  0  0  0  0  0  0  0  0
  185.0730  178.5410  146.2360 C   0  0  0  0  0  0  0  0  0  0  0  0
  183.8160  178.8940  145.8190 O   0  0  0  0  0  0  0  0  0  0  0  0
  1  5  1  0  0  0  0
  2  3  1  0  0  0  0
  5  8  2  0  0  0  0
  6 13  1  0  0  0  0
  7 10  1  1  0  0  0
  7 20  1  0  0  0  0
  7  8  1  0  0  0  0
  8 23  1  0  0  0  0
  9 12  1  0  0  0  0
  9  1  2  0  0  0  0
 10  3  2  0  0  0  0
 11  9  1  0  0  0  0
 12  4  1  6  0  0  0
 12 10  1  0  0  0  0
 13  4  2  0  0  0  0
 13 14  1  0  0  0  0
 14  2  2  0  0  0  0
 15 16  1  0  0  0  0
 16 18  1  0  0  0  0
 17 18  1  0  0  0  0
 18 21  1  1  0  0  0
 19 17  1  0  0  0  0
 20 15  1  1  0  0  0
 20 19  1  0  0  0  0
 21 22  1  0  0  0  0
 23 24  1  0  0  0  0
 24 25  1  0  0  0  0
 25 26  1  0  0  0  0
 27 26  1  0  0  0  0
 29 31  1  0  0  0  0
 29 30  1  0  0  0  0
 30 27  1  0  0  0  0
 30 28  1  0  0  0  0
 31 30  1  0  0  0  0
M  END
>  <MODEL>
1

>  <REMARK>
 VINA RESULT:      -6.7      0.000      0.000
  Name = 
  8 active torsions:
  status: ('A' for Active; 'I' for Inactive)
    1  A    between atoms: C_7  and  O_15
    2  A    between atoms: C_7  and  C_20
    3  A    between atoms: O_9  and  C_21
    4  A    between atoms: O_10  and  O_15
    5  A    between atoms: O_10  and  C_16
    6  A    between atoms: C_12  and  N_30
    7  A    between atoms: C_20  and  N_28
    8  A    between atoms: C_22  and  N_28
                            x       y       z     vdW  Elec       q    Type
                         _______ _______ _______ _____ _____    ______ ____

>  <TORSDO>
F 8

$$$$
=
 OpenBabel11042418563D

 31 34  0  0  1  0  0  0  0  0999 V2000
  191.9140  176.0560  142.7380 C   0  0  0  0  0  3  0  0  0  0  0  0
  189.3960  174.6360  147.0860 C   0  0  0  0  0  3  0  0  0  0  0  0
  188.9910  175.1710  145.8160 N   0  0  0  0  0  0  0  0  0  0  0  0
  191.5100  176.6480  146.3850 N   0  0  0  0  0  0  0  0  0  0  0  0
  190.8680  175.2280  142.2010 N   0  0  0  0  0  0  0  0  0  0  0  0
  191.5870  177.1270  148.7320 C   0  0  0  0  0  1  0  0  0  0  0  0
  189.1660  176.2070  143.6400 C   0  0  2  0  0  3  0  0  0  0  0  0
  189.6200  175.2480  142.5670 C   0  0  0  0  0  0  0  0  0  0  0  0
  192.0500  176.4310  144.0200 C   0  0  0  0  0  0  0  0  0  0  0  0
  189.7390  175.8060  144.9640 C   0  0  0  0  0  0  0  0  0  0  0  0
  193.0950  177.3020  144.3100 O   0  0  0  0  0  1  0  0  0  0  0  0
  191.2270  175.8860  145.1770 C   0  0  2  0  0  3  0  0  0  0  0  0
  191.1200  176.3160  147.5780 C   0  0  0  0  0  0  0  0  0  0  0  0
  190.3270  175.1480  147.8360 N   0  0  0  0  0  0  0  0  0  0  0  0
  187.5170  177.5920  144.6760 C   0  0  0  0  0  2  0  0  0  0  0  0
  186.0210  177.8400  144.8650 C   0  0  0  0  0  2  0  0  0  0  0  0
  185.7200  177.2240  142.4410 C   0  0  0  0  0  2  0  0  0  0  0  0
  185.3680  178.2300  143.5380 C   0  0  2  0  0  3  0  0  0  0  0  0
  187.2310  177.0120  142.3750 C   0  0  0  0  0  2  0  0  0  0  0  0
  187.7300  176.5450  143.6750 N   0  0  1  0  0  0  0  0  0  0  0  0
  185.7690  179.5140  143.1600 O   0  0  0  0  0  0  0  0  0  0  0  0
  185.4280  180.2820  144.1720 O   0  0  0  0  0  1  0  0  0  0  0  0
  188.7150  174.3740  141.9660 O   0  0  0  0  0  0  0  0  0  0  0  0
  189.0940  173.1580  141.5520 O   0  0  0  0  0  0  0  0  0  0  0  0
  188.7650  172.3070  142.6100 C   0  0  0  0  0  2  0  0  0  0  0  0
  189.9980  171.5530  143.0760 C   0  0  0  0  0  2  0  0  0  0  0  0
  190.5920  172.2350  144.2160 N   0  0  0  0  0  2  0  0  0  0  0  0
  192.4040  170.5510  144.2020 O   0  0  0  0  0  1  0  0  0  0  0  0
  192.8260  172.7620  143.6080 O   0  0  0  0  0  0  0  0  0  0  0  0
  192.0030  171.8860  144.2620 C   0  0  0  0  0  0  0  0  0  0  0  0
  192.8190  172.7380  144.9590 O   0  0  0  0  0  0  0  0  0  0  0  0
  1  9  2  0  0  0  0
  2 14  2  0  0  0  0
  3  2  1  0  0  0  0
  4 13  2  0  0  0  0
  5  8  2  0  0  0  0
  5  1  1  0  0  0  0
  7  8  1  6  0  0  0
  7 20  1  0  0  0  0
  7 10  1  0  0  0  0
  9 11  1  0  0  0  0
 10 12  1  0  0  0  0
 10  3  2  0  0  0  0
 12  9  1  6  0  0  0
 12  4  1  0  0  0  0
 13 14  1  0  0  0  0
 13  6  1  0  0  0  0
 15 16  1  0  0  0  0
 17 18  1  0  0  0  0
 18 21  1  6  0  0  0
 18 16  1  0  0  0  0
 19 17  1  0  0  0  0
 20 19  1  6  0  0  0
 20 15  1  0  0  0  0
 21 22  1  0  0  0  0
 23  8  1  0  0  0  0
 24 23  1  0  0  0  0
 24 25  1  0  0  0  0
 25 26  1  0  0  0  0
 26 27  1  0  0  0  0
 27 30  1  0  0  0  0
 28 30  1  0  0  0  0
 29 30  1  0  0  0  0
 29 31  1  0  0  0  0
 30 31  1  0  0  0  0
M  END
>  <MODEL>
2

>  <REMARK>
 VINA RESULT:      -6.7      2.835      7.145
  Name = 
  8 active torsions:
  status: ('A' for Active; 'I' for Inactive)
    1  A    between atoms: C_7  and  O_15
    2  A    between atoms: C_7  and  C_20
    3  A    between atoms: O_9  and  C_21
    4  A    between atoms: O_10  and  O_15
    5  A    between atoms: O_10  and  C_16
    6  A    between atoms: C_12  and  N_30
    7  A    between atoms: C_20  and  N_28
    8  A    between atoms: C_22  and  N_28
                            x       y       z     vdW  Elec       q    Type
                         _______ _______ _______ _____ _____    ______ ____

>  <TORSDO>
F 8

$$$$
=
 OpenBabel11042418563D

 31 34  0  0  1  0  0  0  0  0999 V2000
  187.8460  177.9290  142.6580 C   0  0  0  0  0  3  0  0  0  0  0  0
  188.7650  172.7920  142.8420 C   0  0  0  0  0  3  0  0  0  0  0  0
  189.4860  173.9610  143.2640 N   0  0  0  0  0  0  0  0  0  0  0  0
  188.2920  174.8150  140.6770 N   0  0  0  0  0  0  0  0  0  0  0  0
  188.2340  177.7610  144.0330 N   0  0  0  0  0  0  0  0  0  0  0  0
  188.3650  172.9590  139.1640 C   0  0  0  0  0  1  0  0  0  0  0  0
  190.0910  176.2910  143.4710 C   0  0  2  0  0  3  0  0  0  0  0  0
  189.2280  177.0380  144.4580 C   0  0  0  0  0  0  0  0  0  0  0  0
  187.8770  176.9850  141.7030 C   0  0  0  0  0  0  0  0  0  0  0  0
  189.3100  175.1780  142.8440 C   0  0  0  0  0  0  0  0  0  0  0  0
  187.5300  177.3840  140.4170 O   0  0  0  0  0  1  0  0  0  0  0  0
  188.1460  175.5080  141.9490 C   0  0  2  0  0  3  0  0  0  0  0  0
  188.3360  173.5260  140.5380 C   0  0  0  0  0  0  0  0  0  0  0  0
  188.2690  172.6240  141.6510 N   0  0  0  0  0  0  0  0  0  0  0  0
  192.0800  175.1130  142.8670 C   0  0  0  0  0  2  0  0  0  0  0  0
  193.4110  174.5520  143.3660 C   0  0  0  0  0  2  0  0  0  0  0  0
  193.6260  176.6170  144.7930 C   0  0  0  0  0  2  0  0  0  0  0  0
  194.3390  175.6830  143.8130 C   0  0  2  0  0  3  0  0  0  0  0  0
  192.2870  177.0740  144.2170 C   0  0  0  0  0  2  0  0  0  0  0  0
  191.4450  175.9090  143.9190 N   0  0  1  0  0  0  0  0  0  0  0  0
  194.7930  176.4030  142.7050 O   0  0  0  0  0  0  0  0  0  0  0  0
  195.5770  175.5650  142.0610 O   0  0  0  0  0  1  0  0  0  0  0  0
  189.4780  176.9560  145.8270 O   0  0  0  0  0  0  0  0  0  0  0  0
  188.5730  177.3660  146.7250 O   0  0  0  0  0  0  0  0  0  0  0  0
  187.6860  176.2940  146.8460 C   0  0  0  0  0  2  0  0  0  0  0  0
  186.3370  176.7880  147.3410 C   0  0  0  0  0  2  0  0  0  0  0  0
  185.5100  177.1810  146.2100 N   0  0  0  0  0  2  0  0  0  0  0  0
  185.7650  179.3400  147.3890 O   0  0  0  0  0  1  0  0  0  0  0  0
  185.2770  179.2750  145.1130 O   0  0  0  0  0  0  0  0  0  0  0  0
  185.2640  178.6100  146.3100 C   0  0  0  0  0  0  0  0  0  0  0  0
  184.1030  179.0700  145.7480 O   0  0  0  0  0  0  0  0  0  0  0  0
  1  5  1  0  0  0  0
  2  3  1  0  0  0  0
  5  8  2  0  0  0  0
  6 13  1  0  0  0  0
  7 10  1  1  0  0  0
  7 20  1  0  0  0  0
  7  8  1  0  0  0  0
  8 23  1  0  0  0  0
  9 12  1  0  0  0  0
  9  1  2  0  0  0  0
 10  3  2  0  0  0  0
 11  9  1  0  0  0  0
 12  4  1  6  0  0  0
 12 10  1  0  0  0  0
 13  4  2  0  0  0  0
 13 14  1  0  0  0  0
 14  2  2  0  0  0  0
 15 16  1  0  0  0  0
 16 18  1  0  0  0  0
 18 21  1  6  0  0  0
 18 17  1  0  0  0  0
 19 17  1  0  0  0  0
 20 15  1  6  0  0  0
 20 19  1  0  0  0  0
 22 21  1  0  0  0  0
 23 24  1  0  0  0  0
 24 25  1  0  0  0  0
 25 26  1  0  0  0  0
 27 30  1  0  0  0  0
 27 26  1  0  0  0  0
 29 31  1  0  0  0  0
 29 30  1  0  0  0  0
 30 28  1  0  0  0  0
 31 30  1  0  0  0  0
M  END
>  <MODEL>
3

>  <REMARK>
 VINA RESULT:      -6.6      1.397      1.557
  Name = 
  8 active torsions:
  status: ('A' for Active; 'I' for Inactive)
    1  A    between atoms: C_7  and  O_15
    2  A    between atoms: C_7  and  C_20
    3  A    between atoms: O_9  and  C_21
    4  A    between atoms: O_10  and  O_15
    5  A    between atoms: O_10  and  C_16
    6  A    between atoms: C_12  and  N_30
    7  A    between atoms: C_20  and  N_28
    8  A    between atoms: C_22  and  N_28
                            x       y       z     vdW  Elec       q    Type
                         _______ _______ _______ _____ _____    ______ ____

>  <TORSDO>
F 8

$$$$
=
 OpenBabel11042418563D

 31 34  0  0  1  0  0  0  0  0999 V2000
  188.3880  175.9730  146.4110 C   0  0  0  0  0  3  0  0  0  0  0  0
  192.7380  177.4880  143.9530 C   0  0  0  0  0  3  0  0  0  0  0  0
  191.5280  176.8310  143.5470 N   0  0  0  0  0  0  0  0  0  0  0  0
  192.0820  175.6140  146.2040 N   0  0  0  0  0  0  0  0  0  0  0  0
  187.8430  176.6700  145.2780 N   0  0  0  0  0  0  0  0  0  0  0  0
  194.4500  175.3140  146.4150 C   0  0  0  0  0  1  0  0  0  0  0  0
  189.4220  175.6590  143.7250 C   0  0  2  0  0  3  0  0  0  0  0  0
  188.2660  176.5720  144.0520 C   0  0  0  0  0  0  0  0  0  0  0  0
  189.6860  175.7040  146.6290 C   0  0  0  0  0  0  0  0  0  0  0  0
  190.6880  176.2010  144.3130 C   0  0  0  0  0  0  0  0  0  0  0  0
  189.9870  174.9470  147.7570 O   0  0  0  0  0  1  0  0  0  0  0  0
  190.8390  176.2610  145.8090 C   0  0  2  0  0  3  0  0  0  0  0  0
  193.2650  175.9980  145.8340 C   0  0  0  0  0  0  0  0  0  0  0  0
  193.4790  177.1110  144.9540 N   0  0  0  0  0  0  0  0  0  0  0  0
  190.6510  174.2500  142.2360 C   0  0  0  0  0  2  0  0  0  0  0  0
  190.9200  173.8970  140.7740 C   0  0  0  0  0  2  0  0  0  0  0  0
  188.4620  174.2390  140.3470 C   0  0  0  0  0  2  0  0  0  0  0  0
  189.6640  173.3210  140.1180 C   0  0  2  0  0  3  0  0  0  0  0  0
  188.3180  174.5700  141.8310 C   0  0  0  0  0  2  0  0  0  0  0  0
  189.5450  175.2060  142.3250 N   0  0  1  0  0  0  0  0  0  0  0  0
  189.3980  172.0450  140.6200 O   0  0  0  0  0  0  0  0  0  0  0  0
  190.4130  171.3100  140.2170 O   0  0  0  0  0  1  0  0  0  0  0  0
  187.6480  177.3220  143.0520 O   0  0  0  0  0  0  0  0  0  0  0  0
  186.3390  177.1950  142.7970 O   0  0  0  0  0  0  0  0  0  0  0  0
  185.9310  178.4720  142.4040 C   0  0  0  0  0  2  0  0  0  0  0  0
  185.4190  179.2480  143.6040 C   0  0  0  0  0  2  0  0  0  0  0  0
  184.4360  178.4530  144.3240 N   0  0  0  0  0  2  0  0  0  0  0  0
  185.8040  179.2860  146.2080 O   0  0  0  0  0  1  0  0  0  0  0  0
  183.8000  178.1650  146.5940 O   0  0  0  0  0  0  0  0  0  0  0  0
  184.8260  178.4160  145.7240 C   0  0  0  0  0  0  0  0  0  0  0  0
  184.7190  177.2050  146.3540 O   0  0  0  0  0  0  0  0  0  0  0  0
  1  9  2  0  0  0  0
  2 14  2  0  0  0  0
  3  2  1  0  0  0  0
  3 10  2  0  0  0  0
  5  1  1  0  0  0  0
  7  8  1  6  0  0  0
  7 10  1  0  0  0  0
  8  5  2  0  0  0  0
  9 11  1  0  0  0  0
 12 10  1  6  0  0  0
 12  4  1  0  0  0  0
 12  9  1  0  0  0  0
 13  4  2  0  0  0  0
 13  6  1  0  0  0  0
 14 13  1  0  0  0  0
 15 20  1  0  0  0  0
 16 15  1  0  0  0  0
 17 19  1  0  0  0  0
 18 17  1  0  0  0  0
 18 21  1  1  0  0  0
 18 16  1  0  0  0  0
 20 19  1  1  0  0  0
 20  7  1  0  0  0  0
 22 21  1  0  0  0  0
 23  8  1  0  0  0  0
 24 23  1  0  0  0  0
 25 24  1  0  0  0  0
 25 26  1  0  0  0  0
 26 27  1  0  0  0  0
 27 30  1  0  0  0  0
 30 28  1  0  0  0  0
 30 31  1  0  0  0  0
 30 29  1  0  0  0  0
 31 29  1  0  0  0  0
M  END
>  <MODEL>
4

>  <REMARK>
 VINA RESULT:      -6.5      2.390      5.396
  Name = 
  8 active torsions:
  status: ('A' for Active; 'I' for Inactive)
    1  A    between atoms: C_7  and  O_15
    2  A    between atoms: C_7  and  C_20
    3  A    between atoms: O_9  and  C_21
    4  A    between atoms: O_10  and  O_15
    5  A    between atoms: O_10  and  C_16
    6  A    between atoms: C_12  and  N_30
    7  A    between atoms: C_20  and  N_28
    8  A    between atoms: C_22  and  N_28
                            x       y       z     vdW  Elec       q    Type
                         _______ _______ _______ _____ _____    ______ ____

>  <TORSDO>
F 8

$$$$
=
 OpenBabel11042418563D

 31 34  0  0  1  0  0  0  0  0999 V2000
  188.0640  178.3280  141.8540 C   0  0  0  0  0  3  0  0  0  0  0  0
  188.0310  177.0610  146.9200 C   0  0  0  0  0  3  0  0  0  0  0  0
  188.3870  176.3730  145.7110 N   0  0  0  0  0  0  0  0  0  0  0  0
  185.9800  177.9230  144.9060 N   0  0  0  0  0  0  0  0  0  0  0  0
  189.3790  177.7670  142.0130 N   0  0  0  0  0  0  0  0  0  0  0  0
  184.4310  177.9120  146.7340 C   0  0  0  0  0  1  0  0  0  0  0  0
  188.5690  175.8990  143.3480 C   0  0  2  0  0  3  0  0  0  0  0  0
  189.6670  176.6840  142.6740 C   0  0  0  0  0  0  0  0  0  0  0  0
  187.0930  178.3510  142.7820 C   0  0  0  0  0  0  0  0  0  0  0  0
  188.0170  176.6760  144.5030 C   0  0  0  0  0  0  0  0  0  0  0  0
  185.8660  178.8760  142.3900 O   0  0  0  0  0  1  0  0  0  0  0  0
  187.2750  177.9590  144.2400 C   0  0  2  0  0  3  0  0  0  0  0  0
  185.8100  177.8120  146.1870 C   0  0  0  0  0  0  0  0  0  0  0  0
  186.9040  177.6850  147.1060 N   0  0  0  0  0  0  0  0  0  0  0  0
  188.7680  173.7160  142.3970 C   0  0  0  0  0  2  0  0  0  0  0  0
  188.8710  172.2200  142.6920 C   0  0  0  0  0  2  0  0  0  0  0  0
  190.3380  172.8140  144.6500 C   0  0  0  0  0  2  0  0  0  0  0  0
  190.1720  171.9050  143.4310 C   0  0  2  0  0  3  0  0  0  0  0  0
  190.1640  174.2780  144.2530 C   0  0  0  0  0  2  0  0  0  0  0  0
  188.8430  174.4790  143.6440 N   0  0  1  0  0  0  0  0  0  0  0  0
  191.2640  172.0470  142.5720 O   0  0  0  0  0  0  0  0  0  0  0  0
  191.1070  171.0990  141.6730 O   0  0  0  0  0  1  0  0  0  0  0  0
  190.9940  176.2650  142.7560 O   0  0  0  0  0  0  0  0  0  0  0  0
  191.9560  177.0850  143.2010 O   0  0  0  0  0  0  0  0  0  0  0  0
  193.1480  176.4110  142.9270 C   0  0  0  0  0  2  0  0  0  0  0  0
  194.0050  176.3380  144.1780 C   0  0  0  0  0  2  0  0  0  0  0  0
  193.4380  175.3740  145.1100 N   0  0  0  0  0  2  0  0  0  0  0  0
  194.0240  176.9920  146.8860 O   0  0  0  0  0  1  0  0  0  0  0  0
  191.8050  176.4160  146.4830 O   0  0  0  0  0  0  0  0  0  0  0  0
  193.1230  176.0750  146.3430 C   0  0  0  0  0  0  0  0  0  0  0  0
  192.3160  175.4140  147.2300 O   0  0  0  0  0  0  0  0  0  0  0  0
  1  5  1  0  0  0  0
  1  9  2  0  0  0  0
  2 14  2  0  0  0  0
  3  2  1  0  0  0  0
  4 13  2  0  0  0  0
  5  8  2  0  0  0  0
  7  8  1  1  0  0  0
  7 20  1  0  0  0  0
  7 10  1  0  0  0  0
  8 23  1  0  0  0  0
 10  3  2  0  0  0  0
 11  9  1  0  0  0  0
 12  9  1  6  0  0  0
 12 10  1  0  0  0  0
 12  4  1  0  0  0  0
 13  6  1  0  0  0  0
 13 14  1  0  0  0  0
 15 16  1  0  0  0  0
 16 18  1  0  0  0  0
 18 21  1  6  0  0  0
 18 17  1  0  0  0  0
 19 17  1  0  0  0  0
 20 15  1  6  0  0  0
 20 19  1  0  0  0  0
 22 21  1  0  0  0  0
 23 24  1  0  0  0  0
 25 24  1  0  0  0  0
 25 26  1  0  0  0  0
 26 27  1  0  0  0  0
 27 30  1  0  0  0  0
 29 31  1  0  0  0  0
 30 29  1  0  0  0  0
 30 28  1  0  0  0  0
 30 31  1  0  0  0  0
M  END
>  <MODEL>
5

>  <REMARK>
 VINA RESULT:      -6.4      2.425      5.958
  Name = 
  8 active torsions:
  status: ('A' for Active; 'I' for Inactive)
    1  A    between atoms: C_7  and  O_15
    2  A    between atoms: C_7  and  C_20
    3  A    between atoms: O_9  and  C_21
    4  A    between atoms: O_10  and  O_15
    5  A    between atoms: O_10  and  C_16
    6  A    between atoms: C_12  and  N_30
    7  A    between atoms: C_20  and  N_28
    8  A    between atoms: C_22  and  N_28
                            x       y       z     vdW  Elec       q    Type
                         _______ _______ _______ _____ _____    ______ ____

>  <TORSDO>
F 8

$$$$
=
 OpenBabel11042418563D

 31 34  0  0  1  0  0  0  0  0999 V2000
  191.9780  175.9480  142.7530 C   0  0  0  0  0  3  0  0  0  0  0  0
  189.3760  174.6150  147.0790 C   0  0  0  0  0  3  0  0  0  0  0  0
  188.9970  175.1360  145.7940 N   0  0  0  0  0  0  0  0  0  0  0  0
  191.5200  176.5970  146.3840 N   0  0  0  0  0  0  0  0  0  0  0  0
  190.9340  175.1220  142.2100 N   0  0  0  0  0  0  0  0  0  0  0  0
  191.5630  177.1110  148.7240 C   0  0  0  0  0  1  0  0  0  0  0  0
  189.2180  176.1370  143.6060 C   0  0  2  0  0  3  0  0  0  0  0  0
  189.6800  175.1590  142.5550 C   0  0  0  0  0  0  0  0  0  0  0  0
  192.0970  176.3400  144.0320 C   0  0  0  0  0  0  0  0  0  0  0  0
  189.7650  175.7500  144.9460 C   0  0  0  0  0  0  0  0  0  0  0  0
  193.1450  177.2060  144.3260 O   0  0  0  0  0  1  0  0  0  0  0  0
  191.2500  175.8200  145.1830 C   0  0  2  0  0  3  0  0  0  0  0  0
  191.1070  176.2860  147.5740 C   0  0  0  0  0  0  0  0  0  0  0  0
  190.2990  175.1300  147.8370 N   0  0  0  0  0  0  0  0  0  0  0  0
  187.5550  177.5100  144.6360 C   0  0  0  0  0  2  0  0  0  0  0  0
  186.0570  177.7680  144.7910 C   0  0  0  0  0  2  0  0  0  0  0  0
  185.8150  177.2210  142.3450 C   0  0  0  0  0  2  0  0  0  0  0  0
  185.4430  178.2010  143.4590 C   0  0  2  0  0  3  0  0  0  0  0  0
  187.3250  176.9960  142.3140 C   0  0  0  0  0  2  0  0  0  0  0  0
  187.7840  176.4880  143.6120 N   0  0  1  0  0  0  0  0  0  0  0  0
  185.8670  179.4910  143.1270 O   0  0  0  0  0  0  0  0  0  0  0  0
  185.4490  180.2450  144.1210 O   0  0  0  0  0  1  0  0  0  0  0  0
  188.7780  174.2840  141.9520 O   0  0  0  0  0  0  0  0  0  0  0  0
  188.7220  172.9920  142.3020 O   0  0  0  0  0  0  0  0  0  0  0  0
  189.2600  172.3080  141.2090 C   0  0  0  0  0  2  0  0  0  0  0  0
  188.5540  172.7280  139.9320 C   0  0  0  0  0  2  0  0  0  0  0  0
  189.4930  172.7120  138.8200 N   0  0  0  0  0  2  0  0  0  0  0  0
  187.8890  174.4330  138.0560 O   0  0  0  0  0  1  0  0  0  0  0  0
  189.9730  174.2100  137.0410 O   0  0  0  0  0  0  0  0  0  0  0  0
  188.9980  173.6240  137.8020 C   0  0  0  0  0  0  0  0  0  0  0  0
  189.1940  173.2480  136.5000 O   0  0  0  0  0  0  0  0  0  0  0  0
  1  9  2  0  0  0  0
  2 14  2  0  0  0  0
  3  2  1  0  0  0  0
  4 13  2  0  0  0  0
  5  8  2  0  0  0  0
  5  1  1  0  0  0  0
  7  8  1  6  0  0  0
  7 20  1  0  0  0  0
  7 10  1  0  0  0  0
  9 11  1  0  0  0  0
 10 12  1  0  0  0  0
 10  3  2  0  0  0  0
 12  9  1  6  0  0  0
 12  4  1  0  0  0  0
 13 14  1  0  0  0  0
 13  6  1  0  0  0  0
 15 16  1  0  0  0  0
 17 18  1  0  0  0  0
 18 21  1  6  0  0  0
 18 16  1  0  0  0  0
 19 17  1  0  0  0  0
 20 19  1  6  0  0  0
 20 15  1  0  0  0  0
 21 22  1  0  0  0  0
 23 24  1  0  0  0  0
 23  8  1  0  0  0  0
 25 24  1  0  0  0  0
 26 25  1  0  0  0  0
 27 26  1  0  0  0  0
 29 30  1  0  0  0  0
 30 28  1  0  0  0  0
 30 27  1  0  0  0  0
 31 29  1  0  0  0  0
 31 30  1  0  0  0  0
M  END
>  <MODEL>
6

>  <REMARK>
 VINA RESULT:      -6.4      2.792      7.348
  Name = 
  8 active torsions:
  status: ('A' for Active; 'I' for Inactive)
    1  A    between atoms: C_7  and  O_15
    2  A    between atoms: C_7  and  C_20
    3  A    between atoms: O_9  and  C_21
    4  A    between atoms: O_10  and  O_15
    5  A    between atoms: O_10  and  C_16
    6  A    between atoms: C_12  and  N_30
    7  A    between atoms: C_20  and  N_28
    8  A    between atoms: C_22  and  N_28
                            x       y       z     vdW  Elec       q    Type
                         _______ _______ _______ _____ _____    ______ ____

>  <TORSDO>
F 8

$$$$
=
 OpenBabel11042418563D

 31 34  0  0  1  0  0  0  0  0999 V2000
  187.5310  176.5310  142.2440 C   0  0  0  0  0  3  0  0  0  0  0  0
  189.6990  172.4300  144.6400 C   0  0  0  0  0  3  0  0  0  0  0  0
  189.8810  173.8530  144.7140 N   0  0  0  0  0  0  0  0  0  0  0  0
  189.4680  173.3890  141.8060 N   0  0  0  0  0  0  0  0  0  0  0  0
  187.4520  176.9350  143.6220 N   0  0  0  0  0  0  0  0  0  0  0  0
  190.5640  171.3440  141.2060 C   0  0  0  0  0  1  0  0  0  0  0  0
  189.7150  176.1880  144.1140 C   0  0  2  0  0  3  0  0  0  0  0  0
  188.3950  176.8030  144.5070 C   0  0  0  0  0  0  0  0  0  0  0  0
  188.1470  175.4350  141.7720 C   0  0  0  0  0  0  0  0  0  0  0  0
  189.5350  174.7300  143.8210 C   0  0  0  0  0  0  0  0  0  0  0  0
  188.1700  175.2760  140.3910 O   0  0  0  0  0  1  0  0  0  0  0  0
  188.7080  174.3150  142.6340 C   0  0  2  0  0  3  0  0  0  0  0  0
  189.9080  172.2340  142.2000 C   0  0  0  0  0  0  0  0  0  0  0  0
  189.7120  171.7440  143.5340 N   0  0  0  0  0  0  0  0  0  0  0  0
  190.8680  175.6040  146.1240 C   0  0  0  0  0  2  0  0  0  0  0  0
  191.9580  176.0150  147.1140 C   0  0  0  0  0  2  0  0  0  0  0  0
  193.3100  176.7980  145.1390 C   0  0  0  0  0  2  0  0  0  0  0  0
  193.3310  175.9970  146.4420 C   0  0  2  0  0  3  0  0  0  0  0  0
  192.1540  176.3430  144.2510 C   0  0  0  0  0  2  0  0  0  0  0  0
  190.8810  176.4990  144.9650 N   0  0  1  0  0  0  0  0  0  0  0  0
  193.7300  174.6820  146.1910 O   0  0  0  0  0  0  0  0  0  0  0  0
  194.9860  174.7810  145.8090 O   0  0  0  0  0  1  0  0  0  0  0  0
  188.1710  177.2290  145.8160 O   0  0  0  0  0  0  0  0  0  0  0  0
  187.2770  176.6150  146.6030 O   0  0  0  0  0  0  0  0  0  0  0  0
  186.4220  177.6340  147.0270 C   0  0  0  0  0  2  0  0  0  0  0  0
  185.0170  177.3850  146.5070 C   0  0  0  0  0  2  0  0  0  0  0  0
  184.3720  178.6530  146.1980 N   0  0  0  0  0  2  0  0  0  0  0  0
  185.7740  179.7950  144.5100 O   0  0  0  0  0  1  0  0  0  0  0  0
  184.4430  177.9770  143.9220 O   0  0  0  0  0  0  0  0  0  0  0  0
  184.6780  178.9860  144.8160 C   0  0  0  0  0  0  0  0  0  0  0  0
  183.6160  179.0450  143.9540 O   0  0  0  0  0  0  0  0  0  0  0  0
  1  5  1  0  0  0  0
  2  3  1  0  0  0  0
  4 13  2  0  0  0  0
  4 12  1  0  0  0  0
  5  8  2  0  0  0  0
  6 13  1  0  0  0  0
  7 10  1  1  0  0  0
  7  8  1  0  0  0  0
  7 20  1  0  0  0  0
  8 23  1  0  0  0  0
  9  1  2  0  0  0  0
 10  3  2  0  0  0  0
 11  9  1  0  0  0  0
 12  9  1  6  0  0  0
 12 10  1  0  0  0  0
 13 14  1  0  0  0  0
 14  2  2  0  0  0  0
 15 16  1  0  0  0  0
 17 18  1  0  0  0  0
 18 21  1  6  0  0  0
 18 16  1  0  0  0  0
 19 17  1  0  0  0  0
 20 19  1  6  0  0  0
 20 15  1  0  0  0  0
 22 21  1  0  0  0  0
 23 24  1  0  0  0  0
 24 25  1  0  0  0  0
 26 25  1  0  0  0  0
 27 26  1  0  0  0  0
 28 30  1  0  0  0  0
 29 31  1  0  0  0  0
 29 30  1  0  0  0  0
 30 27  1  0  0  0  0
 31 30  1  0  0  0  0
M  END
>  <MODEL>
7

>  <REMARK>
 VINA RESULT:      -6.4      1.670      2.093
  Name = 
  8 active torsions:
  status: ('A' for Active; 'I' for Inactive)
    1  A    between atoms: C_7  and  O_15
    2  A    between atoms: C_7  and  C_20
    3  A    between atoms: O_9  and  C_21
    4  A    between atoms: O_10  and  O_15
    5  A    between atoms: O_10  and  C_16
    6  A    between atoms: C_12  and  N_30
    7  A    between atoms: C_20  and  N_28
    8  A    between atoms: C_22  and  N_28
                            x       y       z     vdW  Elec       q    Type
                         _______ _______ _______ _____ _____    ______ ____

>  <TORSDO>
F 8

$$$$
=
 OpenBabel11042418563D

 31 34  0  0  1  0  0  0  0  0999 V2000
  189.6400  177.2170  146.1190 C   0  0  0  0  0  3  0  0  0  0  0  0
  193.8370  176.4890  143.0980 C   0  0  0  0  0  3  0  0  0  0  0  0
  192.4600  176.0880  143.0240 N   0  0  0  0  0  0  0  0  0  0  0  0
  193.0760  175.8100  145.9210 N   0  0  0  0  0  0  0  0  0  0  0  0
  189.1240  177.5780  144.8260 N   0  0  0  0  0  0  0  0  0  0  0  0
  195.3090  174.9700  146.1380 C   0  0  0  0  0  1  0  0  0  0  0  0
  190.1820  175.6840  143.7220 C   0  0  2  0  0  3  0  0  0  0  0  0
  189.3350  176.9330  143.7170 C   0  0  0  0  0  0  0  0  0  0  0  0
  190.8540  176.7000  146.3720 C   0  0  0  0  0  0  0  0  0  0  0  0
  191.6100  176.0330  144.0050 C   0  0  0  0  0  0  0  0  0  0  0  0
  191.1210  176.3500  147.6920 O   0  0  0  0  0  1  0  0  0  0  0  0
  191.9790  176.5850  145.3560 C   0  0  2  0  0  3  0  0  0  0  0  0
  194.2520  175.6950  145.3850 C   0  0  0  0  0  0  0  0  0  0  0  0
  194.5990  176.3110  144.1380 N   0  0  0  0  0  0  0  0  0  0  0  0
  191.1160  173.8000  142.5880 C   0  0  0  0  0  2  0  0  0  0  0  0
  191.0490  172.9240  141.3380 C   0  0  0  0  0  2  0  0  0  0  0  0
  188.5420  173.1310  141.4550 C   0  0  0  0  0  2  0  0  0  0  0  0
  189.7190  172.1710  141.2790 C   0  0  2  0  0  3  0  0  0  0  0  0
  188.7370  173.9920  142.7010 C   0  0  0  0  0  2  0  0  0  0  0  0
  189.9950  174.7420  142.6010 N   0  0  1  0  0  0  0  0  0  0  0  0
  189.6810  171.1770  142.2600 O   0  0  0  0  0  0  0  0  0  0  0  0
  190.5580  170.2810  141.8610 O   0  0  0  0  0  1  0  0  0  0  0  0
  188.7790  177.4100  142.5300 O   0  0  0  0  0  0  0  0  0  0  0  0
  187.6930  178.1950  142.5380 O   0  0  0  0  0  0  0  0  0  0  0  0
  186.6530  177.3600  142.1230 C   0  0  0  0  0  2  0  0  0  0  0  0
  185.4540  177.5270  143.0390 C   0  0  0  0  0  2  0  0  0  0  0  0
  185.6920  176.8330  144.2970 N   0  0  0  0  0  2  0  0  0  0  0  0
  185.7960  179.1400  145.1840 O   0  0  0  0  0  1  0  0  0  0  0  0
  184.4230  177.5420  146.1750 O   0  0  0  0  0  0  0  0  0  0  0  0
  185.5080  177.7880  145.3770 C   0  0  0  0  0  0  0  0  0  0  0  0
  185.6660  177.3060  146.6500 O   0  0  0  0  0  0  0  0  0  0  0  0
  1  9  2  0  0  0  0
  2 14  2  0  0  0  0
  3  2  1  0  0  0  0
  3 10  2  0  0  0  0
  5  1  1  0  0  0  0
  7  8  1  6  0  0  0
  7 10  1  0  0  0  0
  8  5  2  0  0  0  0
  9 11  1  0  0  0  0
 12 10  1  6  0  0  0
 12  4  1  0  0  0  0
 12  9  1  0  0  0  0
 13  4  2  0  0  0  0
 13  6  1  0  0  0  0
 14 13  1  0  0  0  0
 16 15  1  0  0  0  0
 17 19  1  0  0  0  0
 18 16  1  0  0  0  0
 18 17  1  0  0  0  0
 18 21  1  1  0  0  0
 20 15  1  1  0  0  0
 20 19  1  0  0  0  0
 20  7  1  0  0  0  0
 22 21  1  0  0  0  0
 23 24  1  0  0  0  0
 23  8  1  0  0  0  0
 25 24  1  0  0  0  0
 25 26  1  0  0  0  0
 26 27  1  0  0  0  0
 27 30  1  0  0  0  0
 28 30  1  0  0  0  0
 29 31  1  0  0  0  0
 30 29  1  0  0  0  0
 30 31  1  0  0  0  0
M  END
>  <MODEL>
8

>  <REMARK>
 VINA RESULT:      -6.3      2.545      5.355
  Name = 
  8 active torsions:
  status: ('A' for Active; 'I' for Inactive)
    1  A    between atoms: C_7  and  O_15
    2  A    between atoms: C_7  and  C_20
    3  A    between atoms: O_9  and  C_21
    4  A    between atoms: O_10  and  O_15
    5  A    between atoms: O_10  and  C_16
    6  A    between atoms: C_12  and  N_30
    7  A    between atoms: C_20  and  N_28
    8  A    between atoms: C_22  and  N_28
                            x       y       z     vdW  Elec       q    Type
                         _______ _______ _______ _____ _____    ______ ____

>  <TORSDO>
F 8

$$$$
=
 OpenBabel11042418563D

 31 34  0  0  1  0  0  0  0  0999 V2000
  192.0760  175.9400  142.7770 C   0  0  0  0  0  3  0  0  0  0  0  0
  189.4140  174.6410  147.0770 C   0  0  0  0  0  3  0  0  0  0  0  0
  189.0520  175.1410  145.7800 N   0  0  0  0  0  0  0  0  0  0  0  0
  191.5530  176.6310  146.3920 N   0  0  0  0  0  0  0  0  0  0  0  0
  191.0470  175.0990  142.2280 N   0  0  0  0  0  0  0  0  0  0  0  0
  191.5540  177.1740  148.7250 C   0  0  0  0  0  1  0  0  0  0  0  0
  189.3010  176.1180  143.5830 C   0  0  2  0  0  3  0  0  0  0  0  0
  189.7880  175.1290  142.5520 C   0  0  0  0  0  0  0  0  0  0  0  0
  192.1700  176.3500  144.0520 C   0  0  0  0  0  0  0  0  0  0  0  0
  189.8290  175.7520  144.9360 C   0  0  0  0  0  0  0  0  0  0  0  0
  193.2070  177.2270  144.3530 O   0  0  0  0  0  1  0  0  0  0  0  0
  191.3090  175.8370  145.1960 C   0  0  2  0  0  3  0  0  0  0  0  0
  191.1230  176.3320  147.5790 C   0  0  0  0  0  0  0  0  0  0  0  0
  190.3210  175.1730  147.8430 N   0  0  0  0  0  0  0  0  0  0  0  0
  187.5950  177.4310  144.6210 C   0  0  0  0  0  2  0  0  0  0  0  0
  186.0910  177.6700  144.7430 C   0  0  0  0  0  2  0  0  0  0  0  0
  185.9260  177.2290  142.2690 C   0  0  0  0  0  2  0  0  0  0  0  0
  185.5130  178.1560  143.4130 C   0  0  2  0  0  3  0  0  0  0  0  0
  187.4390  177.0170  142.2730 C   0  0  0  0  0  2  0  0  0  0  0  0
  187.8640  176.4570  143.5610 N   0  0  1  0  0  0  0  0  0  0  0  0
  185.9340  179.4620  143.1500 O   0  0  0  0  0  0  0  0  0  0  0  0
  185.5400  180.1570  144.1960 O   0  0  0  0  0  1  0  0  0  0  0  0
  188.9020  174.2400  141.9460 O   0  0  0  0  0  0  0  0  0  0  0  0
  188.5820  174.3530  140.6500 O   0  0  0  0  0  0  0  0  0  0  0  0
  188.5800  173.0410  140.1710 C   0  0  0  0  0  2  0  0  0  0  0  0
  190.0040  172.5750  139.9230 C   0  0  0  0  0  2  0  0  0  0  0  0
  190.0710  171.1240  140.0100 N   0  0  0  0  0  2  0  0  0  0  0  0
  191.1020  171.7240  142.1770 O   0  0  0  0  0  1  0  0  0  0  0  0
  190.7090  169.4980  141.6180 O   0  0  0  0  0  0  0  0  0  0  0  0
  190.8730  170.7820  141.1730 C   0  0  0  0  0  0  0  0  0  0  0  0
  191.8510  169.8410  140.9840 O   0  0  0  0  0  0  0  0  0  0  0  0
  1  9  2  0  0  0  0
  2 14  2  0  0  0  0
  3  2  1  0  0  0  0
  4 13  2  0  0  0  0
  5  8  2  0  0  0  0
  5  1  1  0  0  0  0
  7  8  1  6  0  0  0
  7 10  1  0  0  0  0
  9 11  1  0  0  0  0
 10 12  1  0  0  0  0
 10  3  2  0  0  0  0
 12  9  1  6  0  0  0
 12  4  1  0  0  0  0
 13 14  1  0  0  0  0
 13  6  1  0  0  0  0
 15 16  1  0  0  0  0
 17 19  1  0  0  0  0
 17 18  1  0  0  0  0
 18 21  1  6  0  0  0
 18 16  1  0  0  0  0
 20 19  1  6  0  0  0
 20  7  1  0  0  0  0
 20 15  1  0  0  0  0
 21 22  1  0  0  0  0
 23  8  1  0  0  0  0
 24 23  1  0  0  0  0
 25 24  1  0  0  0  0
 26 27  1  0  0  0  0
 26 25  1  0  0  0  0
 27 30  1  0  0  0  0
 30 29  1  0  0  0  0
 30 28  1  0  0  0  0
 31 30  1  0  0  0  0
 31 29  1  0  0  0  0
M  END
>  <MODEL>
9

>  <REMARK>
 VINA RESULT:      -6.2      3.353      7.527
  Name = 
  8 active torsions:
  status: ('A' for Active; 'I' for Inactive)
    1  A    between atoms: C_7  and  O_15
    2  A    between atoms: C_7  and  C_20
    3  A    between atoms: O_9  and  C_21
    4  A    between atoms: O_10  and  O_15
    5  A    between atoms: O_10  and  C_16
    6  A    between atoms: C_12  and  N_30
    7  A    between atoms: C_20  and  N_28
    8  A    between atoms: C_22  and  N_28
                            x       y       z     vdW  Elec       q    Type
                         _______ _______ _______ _____ _____    ______ ____

>  <TORSDO>
F 8

$$$$
