=
 OpenBabel11042418543D

 31 34  0  0  1  0  0  0  0  0999 V2000
  187.0000  177.8350  145.0820 C   0  0  1  0  0  3  0  0  0  0  0  0
  187.2900  176.5750  144.5920 C   0  0  1  0  0  3  0  0  0  0  0  0
  186.4410  177.4680  143.7460 N   0  0  0  0  0  0  0  0  0  0  0  0
  185.6860  177.7580  142.5720 C   0  0  0  0  0  0  0  0  0  0  0  0
  184.2310  178.0480  142.5410 C   0  0  0  0  0  2  0  0  0  0  0  0
  184.0670  178.2480  141.0610 C   0  0  0  0  0  0  0  0  0  0  0  0
  186.1710  177.8000  141.3460 C   0  0  0  0  0  0  0  0  0  0  0  0
  185.1660  178.1050  140.3930 N   0  0  0  0  0  0  0  0  0  0  0  0
  182.8630  178.5570  140.4300 O   0  0  0  0  0  0  0  0  0  0  0  0
  181.6130  178.1750  140.9820 C   0  0  0  0  0  1  0  0  0  0  0  0
  187.5310  177.5420  141.0040 N   0  0  0  0  0  2  0  0  0  0  0  0
  188.5020  178.4260  141.3310 O   0  0  0  0  0  1  0  0  0  0  0  0
  188.9830  175.1770  143.4290 C   0  0  0  0  0  1  0  0  0  0  0  0
  188.7090  176.5370  144.0380 C   0  0  2  0  0  3  0  0  0  0  0  0
  189.7200  176.7830  145.1500 C   0  0  0  0  0  2  0  0  0  0  0  0
  191.8090  175.3200  147.4590 N   0  0  0  0  0  2  0  0  0  0  0  0
  194.9920  176.6110  144.6360 C   0  0  0  0  0  3  0  0  0  0  0  0
  192.6760  175.9000  146.5080 C   0  0  0  0  0  0  0  0  0  0  0  0
  193.8410  176.4490  146.8500 C   0  0  0  0  0  3  0  0  0  0  0  0
  192.6480  175.9740  144.0160 C   0  0  0  0  0  3  0  0  0  0  0  0
  194.1030  176.0850  143.7910 C   0  0  0  0  0  3  0  0  0  0  0  0
  190.6120  175.5620  145.3670 C   0  0  2  0  0  3  0  0  0  0  0  0
  189.4910  175.5280  147.5470 F   0  0  0  0  0  0  0  0  0  0  0  0
  190.5410  175.0020  146.8130 C   0  0  2  0  0  3  0  0  0  0  0  0
  194.6380  177.2990  145.9150 C   0  0  0  0  0  2  0  0  0  0  0  0
  192.0380  175.9550  145.2060 C   0  0  0  0  0  0  0  0  0  0  0  0
  185.9010  177.7600  146.1370 C   0  0  2  0  0  3  0  0  0  0  0  0
  185.0400  178.9830  146.1050 C   0  0  0  0  0  3  0  0  0  0  0  0
  183.8360  178.8900  145.9290 O   0  0  0  0  0  0  0  0  0  0  0  0
  186.6900  178.8030  148.1630 O   0  0  0  0  0  1  0  0  0  0  0  0
  186.4940  177.5730  147.5310 C   0  0  0  0  0  2  0  0  0  0  0  0
  1 27  1  1  0  0  0
  2 14  1  6  0  0  0
  2  1  1  0  0  0  0
  3  2  1  0  0  0  0
  3  1  1  0  0  0  0
  4  3  1  0  0  0  0
  5  4  1  0  0  0  0
  6  5  1  0  0  0  0
  7  4  2  0  0  0  0
  8  6  2  0  0  0  0
  8  7  1  0  0  0  0
  9 10  1  0  0  0  0
  9  6  1  0  0  0  0
 11 12  1  0  0  0  0
 11  7  1  0  0  0  0
 14 13  1  1  0  0  0
 14 15  1  0  0  0  0
 17 25  1  0  0  0  0
 18 19  2  0  0  0  0
 18 16  1  0  0  0  0
 20 26  2  0  0  0  0
 21 20  1  0  0  0  0
 21 17  2  0  0  0  0
 22 15  1  1  0  0  0
 22 24  1  0  0  0  0
 24 16  1  0  0  0  0
 24 23  1  1  0  0  0
 25 19  1  0  0  0  0
 26 22  1  0  0  0  0
 26 18  1  0  0  0  0
 27 28  1  1  0  0  0
 27 31  1  0  0  0  0
 29 28  2  0  0  0  0
 31 30  1  0  0  0  0
M  END
>  <MODEL>
1

>  <REMARK>
 VINA RESULT:      -7.5      0.000      0.000
  Name = 
  9 active torsions:
  status: ('A' for Active; 'I' for Inactive)
    1  A    between atoms: O_2  and  C_11
    2  A    between atoms: C_4  and  C_25
    3  A    between atoms: C_5  and  C_25
    4  A    between atoms: C_6  and  N_31
    5  A    between atoms: N_7  and  C_20
    6  A    between atoms: C_14  and  C_25
    7  A    between atoms: C_16  and  C_21
    8  A    between atoms: C_18  and  C_21
    9  A    between atoms: C_18  and  C_22
                            x       y       z     vdW  Elec       q    Type
                         _______ _______ _______ _____ _____    ______ ____

>  <TORSDO>
F 9

$$$$
=
 OpenBabel11042418543D

 31 34  0  0  1  0  0  0  0  0999 V2000
  189.5880  175.2390  143.9460 C   0  0  1  0  0  3  0  0  0  0  0  0
  189.5390  174.6000  145.1700 C   0  0  1  0  0  3  0  0  0  0  0  0
  190.8770  175.0470  144.6760 N   0  0  0  0  0  0  0  0  0  0  0  0
  192.2900  175.1920  144.8010 C   0  0  0  0  0  0  0  0  0  0  0  0
  193.1130  174.6320  145.9020 C   0  0  0  0  0  2  0  0  0  0  0  0
  194.4590  175.1320  145.4610 C   0  0  0  0  0  0  0  0  0  0  0  0
  193.0640  175.8510  143.9610 C   0  0  0  0  0  0  0  0  0  0  0  0
  194.4240  175.8200  144.3650 N   0  0  0  0  0  0  0  0  0  0  0  0
  195.6530  174.8990  146.1400 O   0  0  0  0  0  0  0  0  0  0  0  0
  196.6730  174.0770  145.5970 C   0  0  0  0  0  1  0  0  0  0  0  0
  192.6010  176.5400  142.8020 N   0  0  0  0  0  2  0  0  0  0  0  0
  191.8460  177.6560  142.9210 O   0  0  0  0  0  1  0  0  0  0  0  0
  189.1220  174.8870  147.6030 C   0  0  0  0  0  1  0  0  0  0  0  0
  189.0410  175.5570  146.2470 C   0  0  2  0  0  3  0  0  0  0  0  0
  187.5930  175.9450  145.9840 C   0  0  0  0  0  2  0  0  0  0  0  0
  185.2840  178.4620  146.4000 N   0  0  0  0  0  2  0  0  0  0  0  0
  185.4510  178.6490  141.9600 C   0  0  0  0  0  3  0  0  0  0  0  0
  185.3880  178.2980  145.0010 C   0  0  0  0  0  0  0  0  0  0  0  0
  184.3400  178.4320  144.1900 C   0  0  0  0  0  3  0  0  0  0  0  0
  187.3340  177.9820  143.4740 C   0  0  0  0  0  3  0  0  0  0  0  0
  186.7490  178.5840  142.2590 C   0  0  0  0  0  3  0  0  0  0  0  0
  187.4320  177.4610  145.8950 C   0  0  2  0  0  3  0  0  0  0  0  0
  186.2850  177.1440  148.0390 F   0  0  0  0  0  0  0  0  0  0  0  0
  186.5380  178.0480  147.0200 C   0  0  2  0  0  3  0  0  0  0  0  0
  184.3660  178.0020  142.7600 C   0  0  0  0  0  2  0  0  0  0  0  0
  186.7070  177.8110  144.6440 C   0  0  0  0  0  0  0  0  0  0  0  0
  189.4860  174.2260  142.8090 C   0  0  2  0  0  3  0  0  0  0  0  0
  188.2300  174.4280  142.0210 C   0  0  0  0  0  3  0  0  0  0  0  0
  188.1220  175.3720  141.2560 O   0  0  0  0  0  0  0  0  0  0  0  0
  188.9080  171.9100  142.4730 O   0  0  0  0  0  1  0  0  0  0  0  0
  189.5470  172.7980  143.3420 C   0  0  0  0  0  2  0  0  0  0  0  0
  1 27  1  6  0  0  0
  1  3  1  0  0  0  0
  1  2  1  0  0  0  0
  2 14  1  1  0  0  0
  3  4  1  0  0  0  0
  3  2  1  0  0  0  0
  4  5  1  0  0  0  0
  6  5  1  0  0  0  0
  6  9  1  0  0  0  0
  7  8  1  0  0  0  0
  7  4  2  0  0  0  0
  8  6  2  0  0  0  0
 10  9  1  0  0  0  0
 11 12  1  0  0  0  0
 11  7  1  0  0  0  0
 14 13  1  1  0  0  0
 15 14  1  0  0  0  0
 16 24  1  0  0  0  0
 17 21  2  0  0  0  0
 17 25  1  0  0  0  0
 18 16  1  0  0  0  0
 19 18  2  0  0  0  0
 20 26  2  0  0  0  0
 21 20  1  0  0  0  0
 22 15  1  1  0  0  0
 22 24  1  0  0  0  0
 24 23  1  1  0  0  0
 25 19  1  0  0  0  0
 26 18  1  0  0  0  0
 26 22  1  0  0  0  0
 27 28  1  1  0  0  0
 27 31  1  0  0  0  0
 29 28  2  0  0  0  0
 30 31  1  0  0  0  0
M  END
>  <MODEL>
2

>  <REMARK>
 VINA RESULT:      -7.1      3.127      7.916
  Name = 
  9 active torsions:
  status: ('A' for Active; 'I' for Inactive)
    1  A    between atoms: O_2  and  C_11
    2  A    between atoms: C_4  and  C_25
    3  A    between atoms: C_5  and  C_25
    4  A    between atoms: C_6  and  N_31
    5  A    between atoms: N_7  and  C_20
    6  A    between atoms: C_14  and  C_25
    7  A    between atoms: C_16  and  C_21
    8  A    between atoms: C_18  and  C_21
    9  A    between atoms: C_18  and  C_22
                            x       y       z     vdW  Elec       q    Type
                         _______ _______ _______ _____ _____    ______ ____

>  <TORSDO>
F 9

$$$$
=
 OpenBabel11042418543D

 31 34  0  0  1  0  0  0  0  0999 V2000
  189.6930  175.3620  144.0200 C   0  0  1  0  0  3  0  0  0  0  0  0
  189.7200  174.6960  145.2310 C   0  0  1  0  0  3  0  0  0  0  0  0
  190.9730  175.3800  144.7890 N   0  0  0  0  0  0  0  0  0  0  0  0
  192.3350  175.7630  144.9620 C   0  0  0  0  0  0  0  0  0  0  0  0
  193.3120  175.9690  143.8630 C   0  0  0  0  0  2  0  0  0  0  0  0
  194.5130  176.3350  144.6870 C   0  0  0  0  0  0  0  0  0  0  0  0
  192.9240  175.9810  146.1220 C   0  0  0  0  0  0  0  0  0  0  0  0
  194.2870  176.3390  145.9610 N   0  0  0  0  0  0  0  0  0  0  0  0
  195.7680  176.6460  144.1660 O   0  0  0  0  0  0  0  0  0  0  0  0
  196.0810  176.4370  142.7990 C   0  0  0  0  0  1  0  0  0  0  0  0
  192.2870  175.8470  147.3900 N   0  0  0  0  0  2  0  0  0  0  0  0
  191.7360  176.9220  148.0010 O   0  0  0  0  0  1  0  0  0  0  0  0
  188.9240  174.7210  147.5850 C   0  0  0  0  0  1  0  0  0  0  0  0
  189.0320  175.5280  146.3080 C   0  0  2  0  0  3  0  0  0  0  0  0
  187.6300  175.9190  145.8620 C   0  0  0  0  0  2  0  0  0  0  0  0
  185.3440  178.4390  146.3710 N   0  0  0  0  0  2  0  0  0  0  0  0
  185.3880  178.6770  141.9300 C   0  0  0  0  0  3  0  0  0  0  0  0
  185.4080  178.2910  144.9680 C   0  0  0  0  0  0  0  0  0  0  0  0
  184.3380  178.4380  144.1880 C   0  0  0  0  0  3  0  0  0  0  0  0
  187.3100  177.9860  143.3840 C   0  0  0  0  0  3  0  0  0  0  0  0
  186.6940  178.6040  142.1930 C   0  0  0  0  0  3  0  0  0  0  0  0
  187.4720  177.4370  145.7950 C   0  0  2  0  0  3  0  0  0  0  0  0
  186.3840  177.1000  147.9660 F   0  0  0  0  0  0  0  0  0  0  0  0
  186.6120  178.0140  146.9500 C   0  0  2  0  0  3  0  0  0  0  0  0
  184.3230  178.0240  142.7520 C   0  0  0  0  0  2  0  0  0  0  0  0
  186.7150  177.8040  144.5680 C   0  0  0  0  0  0  0  0  0  0  0  0
  189.8010  174.3740  142.8630 C   0  0  2  0  0  3  0  0  0  0  0  0
  188.6900  174.5730  141.8810 C   0  0  0  0  0  3  0  0  0  0  0  0
  187.5420  174.7300  142.2650 O   0  0  0  0  0  0  0  0  0  0  0  0
  190.9610  172.2630  142.9810 O   0  0  0  0  0  1  0  0  0  0  0  0
  189.8000  172.9340  143.3720 C   0  0  0  0  0  2  0  0  0  0  0  0
  1 27  1  6  0  0  0
  1  3  1  0  0  0  0
  1  2  1  0  0  0  0
  2 14  1  1  0  0  0
  3  4  1  0  0  0  0
  3  2  1  0  0  0  0
  4  7  2  0  0  0  0
  5  6  1  0  0  0  0
  5  4  1  0  0  0  0
  6  8  2  0  0  0  0
  7 11  1  0  0  0  0
  8  7  1  0  0  0  0
  9  6  1  0  0  0  0
 10  9  1  0  0  0  0
 11 12  1  0  0  0  0
 14 13  1  1  0  0  0
 15 14  1  0  0  0  0
 16 24  1  0  0  0  0
 17 21  2  0  0  0  0
 17 25  1  0  0  0  0
 18 16  1  0  0  0  0
 19 18  2  0  0  0  0
 20 26  2  0  0  0  0
 21 20  1  0  0  0  0
 22 15  1  1  0  0  0
 22 24  1  0  0  0  0
 24 23  1  1  0  0  0
 25 19  1  0  0  0  0
 26 18  1  0  0  0  0
 26 22  1  0  0  0  0
 27 28  1  6  0  0  0
 27 31  1  0  0  0  0
 28 29  2  0  0  0  0
 30 31  1  0  0  0  0
M  END
>  <MODEL>
3

>  <REMARK>
 VINA RESULT:      -7.0      2.875      7.922
  Name = 
  9 active torsions:
  status: ('A' for Active; 'I' for Inactive)
    1  A    between atoms: O_2  and  C_11
    2  A    between atoms: C_4  and  C_25
    3  A    between atoms: C_5  and  C_25
    4  A    between atoms: C_6  and  N_31
    5  A    between atoms: N_7  and  C_20
    6  A    between atoms: C_14  and  C_25
    7  A    between atoms: C_16  and  C_21
    8  A    between atoms: C_18  and  C_21
    9  A    between atoms: C_18  and  C_22
                            x       y       z     vdW  Elec       q    Type
                         _______ _______ _______ _____ _____    ______ ____

>  <TORSDO>
F 9

$$$$
=
 OpenBabel11042418543D

 31 34  0  0  1  0  0  0  0  0999 V2000
  190.6850  175.2310  142.7880 C   0  0  1  0  0  3  0  0  0  0  0  0
  190.1530  175.4160  144.0500 C   0  0  1  0  0  3  0  0  0  0  0  0
  191.5700  174.9490  143.9580 N   0  0  0  0  0  0  0  0  0  0  0  0
  192.8120  174.5490  144.5320 C   0  0  0  0  0  0  0  0  0  0  0  0
  193.2420  173.1440  144.7460 C   0  0  0  0  0  2  0  0  0  0  0  0
  194.5840  173.4070  145.3690 C   0  0  0  0  0  0  0  0  0  0  0  0
  193.7500  175.3690  144.9630 C   0  0  0  0  0  0  0  0  0  0  0  0
  194.8630  174.6650  145.4900 N   0  0  0  0  0  0  0  0  0  0  0  0
  195.4690  172.4170  145.7910 O   0  0  0  0  0  0  0  0  0  0  0  0
  196.8320  172.7020  146.0630 C   0  0  0  0  0  1  0  0  0  0  0  0
  193.6570  176.7910  144.9370 N   0  0  0  0  0  2  0  0  0  0  0  0
  194.5710  177.5530  145.5810 O   0  0  0  0  0  1  0  0  0  0  0  0
  190.1140  177.0690  145.9050 C   0  0  0  0  0  1  0  0  0  0  0  0
  190.1220  176.8990  144.3990 C   0  0  2  0  0  3  0  0  0  0  0  0
  188.8690  177.5520  143.8320 C   0  0  0  0  0  2  0  0  0  0  0  0
  185.7650  177.0700  142.4280 N   0  0  0  0  0  2  0  0  0  0  0  0
  184.3330  177.9650  146.5410 C   0  0  0  0  0  3  0  0  0  0  0  0
  185.4990  177.4820  143.7520 C   0  0  0  0  0  0  0  0  0  0  0  0
  184.4600  178.2560  144.0600 C   0  0  0  0  0  3  0  0  0  0  0  0
  186.5090  176.8710  145.9490 C   0  0  0  0  0  3  0  0  0  0  0  0
  185.3270  177.1130  146.7990 C   0  0  0  0  0  3  0  0  0  0  0  0
  187.7000  176.5690  143.7960 C   0  0  2  0  0  3  0  0  0  0  0  0
  187.8450  176.9780  141.3830 F   0  0  0  0  0  0  0  0  0  0  0  0
  187.0690  176.4190  142.3860 C   0  0  2  0  0  3  0  0  0  0  0  0
  184.3160  178.9200  145.3910 C   0  0  0  0  0  2  0  0  0  0  0  0
  186.5850  177.0930  144.6320 C   0  0  0  0  0  0  0  0  0  0  0  0
  190.1930  173.9190  142.1860 C   0  0  2  0  0  3  0  0  0  0  0  0
  189.5070  174.1520  140.8770 C   0  0  0  0  0  3  0  0  0  0  0  0
  189.3490  173.2360  140.0870 O   0  0  0  0  0  0  0  0  0  0  0  0
  189.5280  171.8240  143.1780 O   0  0  0  0  0  1  0  0  0  0  0  0
  189.2550  173.1940  143.1480 C   0  0  0  0  0  2  0  0  0  0  0  0
  1 27  1  1  0  0  0
  1  3  1  0  0  0  0
  1  2  1  0  0  0  0
  2 14  1  6  0  0  0
  3  2  1  0  0  0  0
  3  4  1  0  0  0  0
  4  5  1  0  0  0  0
  4  7  2  0  0  0  0
  5  6  1  0  0  0  0
  6  8  2  0  0  0  0
  6  9  1  0  0  0  0
  7  8  1  0  0  0  0
  9 10  1  0  0  0  0
 11  7  1  0  0  0  0
 11 12  1  0  0  0  0
 14 13  1  1  0  0  0
 15 14  1  0  0  0  0
 16 18  1  0  0  0  0
 17 21  2  0  0  0  0
 18 19  2  0  0  0  0
 18 26  1  0  0  0  0
 19 25  1  0  0  0  0
 20 21  1  0  0  0  0
 22 15  1  6  0  0  0
 22 26  1  0  0  0  0
 24 23  1  6  0  0  0
 24 16  1  0  0  0  0
 24 22  1  0  0  0  0
 25 17  1  0  0  0  0
 26 20  2  0  0  0  0
 27 28  1  6  0  0  0
 27 31  1  0  0  0  0
 29 28  2  0  0  0  0
 31 30  1  0  0  0  0
M  END
>  <MODEL>
4

>  <REMARK>
 VINA RESULT:      -7.0      3.609      8.593
  Name = 
  9 active torsions:
  status: ('A' for Active; 'I' for Inactive)
    1  A    between atoms: O_2  and  C_11
    2  A    between atoms: C_4  and  C_25
    3  A    between atoms: C_5  and  C_25
    4  A    between atoms: C_6  and  N_31
    5  A    between atoms: N_7  and  C_20
    6  A    between atoms: C_14  and  C_25
    7  A    between atoms: C_16  and  C_21
    8  A    between atoms: C_18  and  C_21
    9  A    between atoms: C_18  and  C_22
                            x       y       z     vdW  Elec       q    Type
                         _______ _______ _______ _____ _____    ______ ____

>  <TORSDO>
F 9

$$$$
=
 OpenBabel11042418543D

 31 34  0  0  1  0  0  0  0  0999 V2000
  190.0880  174.9910  144.0410 C   0  0  1  0  0  3  0  0  0  0  0  0
  190.2090  176.2810  144.5220 C   0  0  1  0  0  3  0  0  0  0  0  0
  191.4520  175.4570  144.4320 N   0  0  0  0  0  0  0  0  0  0  0  0
  192.8550  175.2610  144.5870 C   0  0  0  0  0  0  0  0  0  0  0  0
  193.5290  174.8690  145.8510 C   0  0  0  0  0  2  0  0  0  0  0  0
  194.9470  174.8440  145.3570 C   0  0  0  0  0  0  0  0  0  0  0  0
  193.7550  175.4100  143.6350 C   0  0  0  0  0  0  0  0  0  0  0  0
  195.0680  175.1510  144.1060 N   0  0  0  0  0  0  0  0  0  0  0  0
  196.0550  174.5270  146.1420 O   0  0  0  0  0  0  0  0  0  0  0  0
  196.8780  173.4070  145.8540 C   0  0  0  0  0  1  0  0  0  0  0  0
  193.4600  175.8100  142.2980 N   0  0  0  0  0  2  0  0  0  0  0  0
  194.3990  176.4230  141.5410 O   0  0  0  0  0  1  0  0  0  0  0  0
  191.1930  178.3710  143.6050 C   0  0  0  0  0  1  0  0  0  0  0  0
  190.1680  177.2800  143.3710 C   0  0  2  0  0  3  0  0  0  0  0  0
  188.7910  177.9230  143.2740 C   0  0  0  0  0  2  0  0  0  0  0  0
  185.5920  177.3330  142.1550 N   0  0  0  0  0  2  0  0  0  0  0  0
  184.5480  177.8350  146.4480 C   0  0  0  0  0  3  0  0  0  0  0  0
  185.4420  177.6310  143.5260 C   0  0  0  0  0  0  0  0  0  0  0  0
  184.3970  178.3090  143.9960 C   0  0  0  0  0  3  0  0  0  0  0  0
  186.7120  176.9360  145.5580 C   0  0  0  0  0  3  0  0  0  0  0  0
  185.6120  177.0370  146.5380 C   0  0  0  0  0  3  0  0  0  0  0  0
  187.6860  176.8680  143.2800 C   0  0  2  0  0  3  0  0  0  0  0  0
  187.5520  177.4550  140.9030 F   0  0  0  0  0  0  0  0  0  0  0  0
  186.9210  176.7760  141.9330 C   0  0  2  0  0  3  0  0  0  0  0  0
  184.3530  178.8660  145.3820 C   0  0  0  0  0  2  0  0  0  0  0  0
  186.6360  177.2550  144.2610 C   0  0  0  0  0  0  0  0  0  0  0  0
  189.5310  174.0680  145.1200 C   0  0  2  0  0  3  0  0  0  0  0  0
  189.8320  174.5960  146.4870 C   0  0  0  0  0  3  0  0  0  0  0  0
  188.9850  174.5680  147.3640 O   0  0  0  0  0  0  0  0  0  0  0  0
  189.4670  171.9800  143.9150 O   0  0  0  0  0  1  0  0  0  0  0  0
  190.0870  172.6540  144.9700 C   0  0  0  0  0  2  0  0  0  0  0  0
  1  3  1  0  0  0  0
  1  2  1  0  0  0  0
  1 27  1  1  0  0  0
  2 14  1  6  0  0  0
  3  2  1  0  0  0  0
  3  4  1  0  0  0  0
  4  5  1  0  0  0  0
  6  5  1  0  0  0  0
  6  9  1  0  0  0  0
  7  8  1  0  0  0  0
  7  4  2  0  0  0  0
  8  6  2  0  0  0  0
 10  9  1  0  0  0  0
 11  7  1  0  0  0  0
 12 11  1  0  0  0  0
 14 13  1  1  0  0  0
 15 14  1  0  0  0  0
 16 18  1  0  0  0  0
 17 21  2  0  0  0  0
 18 19  2  0  0  0  0
 18 26  1  0  0  0  0
 19 25  1  0  0  0  0
 20 21  1  0  0  0  0
 22 15  1  6  0  0  0
 22 26  1  0  0  0  0
 24 23  1  6  0  0  0
 24 16  1  0  0  0  0
 24 22  1  0  0  0  0
 25 17  1  0  0  0  0
 26 20  2  0  0  0  0
 27 31  1  1  0  0  0
 27 28  1  0  0  0  0
 28 29  2  0  0  0  0
 30 31  1  0  0  0  0
M  END
>  <MODEL>
5

>  <REMARK>
 VINA RESULT:      -6.9      3.530      8.265
  Name = 
  9 active torsions:
  status: ('A' for Active; 'I' for Inactive)
    1  A    between atoms: O_2  and  C_11
    2  A    between atoms: C_4  and  C_25
    3  A    between atoms: C_5  and  C_25
    4  A    between atoms: C_6  and  N_31
    5  A    between atoms: N_7  and  C_20
    6  A    between atoms: C_14  and  C_25
    7  A    between atoms: C_16  and  C_21
    8  A    between atoms: C_18  and  C_21
    9  A    between atoms: C_18  and  C_22
                            x       y       z     vdW  Elec       q    Type
                         _______ _______ _______ _____ _____    ______ ____

>  <TORSDO>
F 9

$$$$
=
 OpenBabel11042418543D

 31 34  0  0  1  0  0  0  0  0999 V2000
  190.6270  175.1650  142.5570 C   0  0  1  0  0  3  0  0  0  0  0  0
  190.0500  175.3970  143.7910 C   0  0  1  0  0  3  0  0  0  0  0  0
  191.4460  174.8640  143.7690 N   0  0  0  0  0  0  0  0  0  0  0  0
  192.6420  174.4180  144.4040 C   0  0  0  0  0  0  0  0  0  0  0  0
  193.7600  175.2960  144.8350 C   0  0  0  0  0  2  0  0  0  0  0  0
  194.6730  174.2450  145.3990 C   0  0  0  0  0  0  0  0  0  0  0  0
  192.9300  173.1640  144.6900 C   0  0  0  0  0  0  0  0  0  0  0  0
  194.1990  173.0440  145.3120 N   0  0  0  0  0  0  0  0  0  0  0  0
  195.9210  174.5000  145.9660 O   0  0  0  0  0  0  0  0  0  0  0  0
  197.1180  174.0060  145.3880 C   0  0  0  0  0  1  0  0  0  0  0  0
  192.0910  172.0510  144.3890 N   0  0  0  0  0  2  0  0  0  0  0  0
  192.2770  171.3340  143.2570 O   0  0  0  0  0  1  0  0  0  0  0  0
  190.1350  177.0830  145.6150 C   0  0  0  0  0  1  0  0  0  0  0  0
  190.0730  176.8870  144.1140 C   0  0  2  0  0  3  0  0  0  0  0  0
  188.8150  177.5630  143.5880 C   0  0  0  0  0  2  0  0  0  0  0  0
  185.6290  177.1630  142.3520 N   0  0  0  0  0  2  0  0  0  0  0  0
  184.4420  178.0820  146.5380 C   0  0  0  0  0  3  0  0  0  0  0  0
  185.4450  177.5780  143.6890 C   0  0  0  0  0  0  0  0  0  0  0  0
  184.4440  178.3770  144.0540 C   0  0  0  0  0  3  0  0  0  0  0  0
  186.5550  176.9360  145.8280 C   0  0  0  0  0  3  0  0  0  0  0  0
  185.4260  177.2050  146.7410 C   0  0  0  0  0  3  0  0  0  0  0  0
  187.6210  176.6100  143.6140 C   0  0  2  0  0  3  0  0  0  0  0  0
  187.6470  177.0210  141.1970 F   0  0  0  0  0  0  0  0  0  0  0  0
  186.9120  176.4800  142.2400 C   0  0  2  0  0  3  0  0  0  0  0  0
  184.3870  179.0400  145.3910 C   0  0  0  0  0  2  0  0  0  0  0  0
  186.5670  177.1590  144.5090 C   0  0  0  0  0  0  0  0  0  0  0  0
  190.1010  173.8660  141.9560 C   0  0  2  0  0  3  0  0  0  0  0  0
  189.6930  174.0600  140.5290 C   0  0  0  0  0  3  0  0  0  0  0  0
  188.5130  174.1140  140.2230 O   0  0  0  0  0  0  0  0  0  0  0  0
  189.0010  171.9330  142.8890 O   0  0  0  0  0  1  0  0  0  0  0  0
  188.9280  173.3230  142.7680 C   0  0  0  0  0  2  0  0  0  0  0  0
  1 27  1  1  0  0  0
  1  3  1  0  0  0  0
  1  2  1  0  0  0  0
  2 14  1  6  0  0  0
  3  2  1  0  0  0  0
  3  4  1  0  0  0  0
  4  7  2  0  0  0  0
  4  5  1  0  0  0  0
  5  6  1  0  0  0  0
  6  9  1  0  0  0  0
  7  8  1  0  0  0  0
  8  6  2  0  0  0  0
 10  9  1  0  0  0  0
 11  7  1  0  0  0  0
 12 11  1  0  0  0  0
 14 13  1  1  0  0  0
 15 14  1  0  0  0  0
 16 18  1  0  0  0  0
 17 21  2  0  0  0  0
 18 19  2  0  0  0  0
 18 26  1  0  0  0  0
 19 25  1  0  0  0  0
 20 21  1  0  0  0  0
 22 15  1  6  0  0  0
 22 26  1  0  0  0  0
 24 23  1  6  0  0  0
 24 16  1  0  0  0  0
 24 22  1  0  0  0  0
 25 17  1  0  0  0  0
 26 20  2  0  0  0  0
 27 28  1  6  0  0  0
 27 31  1  0  0  0  0
 29 28  2  0  0  0  0
 31 30  1  0  0  0  0
M  END
>  <MODEL>
6

>  <REMARK>
 VINA RESULT:      -6.9      3.566      8.565
  Name = 
  9 active torsions:
  status: ('A' for Active; 'I' for Inactive)
    1  A    between atoms: O_2  and  C_11
    2  A    between atoms: C_4  and  C_25
    3  A    between atoms: C_5  and  C_25
    4  A    between atoms: C_6  and  N_31
    5  A    between atoms: N_7  and  C_20
    6  A    between atoms: C_14  and  C_25
    7  A    between atoms: C_16  and  C_21
    8  A    between atoms: C_18  and  C_21
    9  A    between atoms: C_18  and  C_22
                            x       y       z     vdW  Elec       q    Type
                         _______ _______ _______ _____ _____    ______ ____

>  <TORSDO>
F 9

$$$$
=
 OpenBabel11042418543D

 31 34  0  0  1  0  0  0  0  0999 V2000
  190.7030  175.6540  145.4960 C   0  0  1  0  0  3  0  0  0  0  0  0
  190.8650  176.9450  145.0270 C   0  0  1  0  0  3  0  0  0  0  0  0
  192.0180  176.0050  144.8790 N   0  0  0  0  0  0  0  0  0  0  0  0
  193.3430  175.6820  144.4660 C   0  0  0  0  0  0  0  0  0  0  0  0
  193.7200  175.1720  143.1230 C   0  0  0  0  0  2  0  0  0  0  0  0
  195.2000  175.0320  143.3370 C   0  0  0  0  0  0  0  0  0  0  0  0
  194.4210  175.7810  145.2190 C   0  0  0  0  0  0  0  0  0  0  0  0
  195.5880  175.3760  144.5220 N   0  0  0  0  0  0  0  0  0  0  0  0
  196.1000  174.5760  142.3760 O   0  0  0  0  0  0  0  0  0  0  0  0
  196.3940  175.3290  141.2110 C   0  0  0  0  0  1  0  0  0  0  0  0
  194.4220  176.2130  146.5780 N   0  0  0  0  0  2  0  0  0  0  0  0
  194.4490  177.5310  146.8810 O   0  0  0  0  0  1  0  0  0  0  0  0
  191.0200  177.9500  142.7600 C   0  0  0  0  0  1  0  0  0  0  0  0
  190.1610  177.1120  143.6850 C   0  0  2  0  0  3  0  0  0  0  0  0
  188.8230  177.8130  143.8710 C   0  0  0  0  0  2  0  0  0  0  0  0
  185.7490  177.4390  142.3710 N   0  0  0  0  0  2  0  0  0  0  0  0
  184.2330  177.9840  146.5160 C   0  0  0  0  0  3  0  0  0  0  0  0
  185.4560  177.7380  143.7190 C   0  0  0  0  0  0  0  0  0  0  0  0
  184.4070  178.4800  144.0700 C   0  0  0  0  0  3  0  0  0  0  0  0
  186.4260  176.9510  145.8780 C   0  0  0  0  0  3  0  0  0  0  0  0
  185.2260  177.1180  146.7220 C   0  0  0  0  0  3  0  0  0  0  0  0
  187.6600  176.8330  143.7320 C   0  0  2  0  0  3  0  0  0  0  0  0
  187.8490  177.4400  141.3640 F   0  0  0  0  0  0  0  0  0  0  0  0
  187.0570  176.7980  142.3020 C   0  0  2  0  0  3  0  0  0  0  0  0
  184.2330  179.0310  145.4480 C   0  0  0  0  0  2  0  0  0  0  0  0
  186.5270  177.2820  144.5850 C   0  0  0  0  0  0  0  0  0  0  0  0
  190.8410  175.6140  147.0140 C   0  0  2  0  0  3  0  0  0  0  0  0
  189.7780  174.7600  147.6280 C   0  0  0  0  0  3  0  0  0  0  0  0
  188.6060  174.9150  147.3270 O   0  0  0  0  0  0  0  0  0  0  0  0
  191.5680  177.1090  148.7610 O   0  0  0  0  0  1  0  0  0  0  0  0
  190.7900  177.0210  147.6050 C   0  0  0  0  0  2  0  0  0  0  0  0
  1 27  1  1  0  0  0
  2 14  1  6  0  0  0
  2  1  1  0  0  0  0
  3  2  1  0  0  0  0
  3  1  1  0  0  0  0
  4  3  1  0  0  0  0
  4  7  2  0  0  0  0
  5  6  1  0  0  0  0
  5  4  1  0  0  0  0
  6  8  2  0  0  0  0
  7 11  1  0  0  0  0
  8  7  1  0  0  0  0
  9  6  1  0  0  0  0
 10  9  1  0  0  0  0
 11 12  1  0  0  0  0
 14 13  1  6  0  0  0
 14 15  1  0  0  0  0
 16 18  1  0  0  0  0
 17 21  2  0  0  0  0
 18 19  2  0  0  0  0
 18 26  1  0  0  0  0
 19 25  1  0  0  0  0
 20 21  1  0  0  0  0
 22 15  1  6  0  0  0
 22 26  1  0  0  0  0
 24 23  1  6  0  0  0
 24 16  1  0  0  0  0
 24 22  1  0  0  0  0
 25 17  1  0  0  0  0
 26 20  2  0  0  0  0
 27 31  1  1  0  0  0
 27 28  1  0  0  0  0
 29 28  2  0  0  0  0
 31 30  1  0  0  0  0
M  END
>  <MODEL>
7

>  <REMARK>
 VINA RESULT:      -6.9      3.256      8.148
  Name = 
  9 active torsions:
  status: ('A' for Active; 'I' for Inactive)
    1  A    between atoms: O_2  and  C_11
    2  A    between atoms: C_4  and  C_25
    3  A    between atoms: C_5  and  C_25
    4  A    between atoms: C_6  and  N_31
    5  A    between atoms: N_7  and  C_20
    6  A    between atoms: C_14  and  C_25
    7  A    between atoms: C_16  and  C_21
    8  A    between atoms: C_18  and  C_21
    9  A    between atoms: C_18  and  C_22
                            x       y       z     vdW  Elec       q    Type
                         _______ _______ _______ _____ _____    ______ ____

>  <TORSDO>
F 9

$$$$
=
 OpenBabel11042418543D

 31 34  0  0  1  0  0  0  0  0999 V2000
  190.9610  175.2640  146.0560 C   0  0  1  0  0  3  0  0  0  0  0  0
  191.3130  175.7200  144.8000 C   0  0  1  0  0  3  0  0  0  0  0  0
  191.7180  174.3300  145.1700 N   0  0  0  0  0  0  0  0  0  0  0  0
  192.3380  173.0760  144.8950 C   0  0  0  0  0  0  0  0  0  0  0  0
  193.7260  172.7070  145.2720 C   0  0  0  0  0  2  0  0  0  0  0  0
  193.7560  171.3160  144.7060 C   0  0  0  0  0  0  0  0  0  0  0  0
  191.7720  172.0700  144.2580 C   0  0  0  0  0  0  0  0  0  0  0  0
  192.6500  170.9640  144.1340 N   0  0  0  0  0  0  0  0  0  0  0  0
  194.8530  170.4580  144.7690 O   0  0  0  0  0  0  0  0  0  0  0  0
  196.0150  170.7860  145.5130 C   0  0  0  0  0  1  0  0  0  0  0  0
  190.4480  172.0900  143.7280 N   0  0  0  0  0  2  0  0  0  0  0  0
  189.3770  171.9670  144.5460 O   0  0  0  0  0  1  0  0  0  0  0  0
  190.5830  175.5170  142.4340 C   0  0  0  0  0  1  0  0  0  0  0  0
  190.1110  175.6750  143.8650 C   0  0  2  0  0  3  0  0  0  0  0  0
  189.3080  176.9640  143.9700 C   0  0  0  0  0  2  0  0  0  0  0  0
  186.6890  178.7050  142.5740 N   0  0  0  0  0  2  0  0  0  0  0  0
  184.7870  178.0070  146.5320 C   0  0  0  0  0  3  0  0  0  0  0  0
  186.2990  178.4840  143.9130 C   0  0  0  0  0  0  0  0  0  0  0  0
  185.6010  179.3810  144.6070 C   0  0  0  0  0  3  0  0  0  0  0  0
  186.4410  176.4940  145.4100 C   0  0  0  0  0  3  0  0  0  0  0  0
  185.2800  176.7950  146.2720 C   0  0  0  0  0  3  0  0  0  0  0  0
  187.8930  176.7830  143.4220 C   0  0  2  0  0  3  0  0  0  0  0  0
  188.7520  178.2030  141.6180 F   0  0  0  0  0  0  0  0  0  0  0  0
  187.6070  177.6480  142.1670 C   0  0  2  0  0  3  0  0  0  0  0  0
  185.4150  179.2890  146.0870 C   0  0  0  0  0  2  0  0  0  0  0  0
  186.9070  177.2700  144.4240 C   0  0  0  0  0  0  0  0  0  0  0  0
  191.8960  175.8380  147.1170 C   0  0  2  0  0  3  0  0  0  0  0  0
  191.1530  176.7300  148.0610 C   0  0  0  0  0  3  0  0  0  0  0  0
  191.7510  177.5440  148.7450 O   0  0  0  0  0  0  0  0  0  0  0  0
  194.2790  176.0160  146.7920 O   0  0  0  0  0  1  0  0  0  0  0  0
  193.0510  176.6000  146.4720 C   0  0  0  0  0  2  0  0  0  0  0  0
  1 27  1  1  0  0  0
  2 14  1  6  0  0  0
  2  3  1  0  0  0  0
  2  1  1  0  0  0  0
  3  1  1  0  0  0  0
  4  3  1  0  0  0  0
  4  5  1  0  0  0  0
  6  9  1  0  0  0  0
  6  5  1  0  0  0  0
  7  4  2  0  0  0  0
  8  7  1  0  0  0  0
  8  6  2  0  0  0  0
  9 10  1  0  0  0  0
 11  7  1  0  0  0  0
 11 12  1  0  0  0  0
 14 13  1  6  0  0  0
 14 15  1  0  0  0  0
 16 18  1  0  0  0  0
 18 26  1  0  0  0  0
 18 19  2  0  0  0  0
 19 25  1  0  0  0  0
 20 21  1  0  0  0  0
 21 17  2  0  0  0  0
 22 15  1  1  0  0  0
 22 26  1  0  0  0  0
 24 23  1  1  0  0  0
 24 16  1  0  0  0  0
 24 22  1  0  0  0  0
 25 17  1  0  0  0  0
 26 20  2  0  0  0  0
 27 31  1  6  0  0  0
 27 28  1  0  0  0  0
 28 29  2  0  0  0  0
 31 30  1  0  0  0  0
M  END
>  <MODEL>
8

>  <REMARK>
 VINA RESULT:      -6.8      3.992      8.343
  Name = 
  9 active torsions:
  status: ('A' for Active; 'I' for Inactive)
    1  A    between atoms: O_2  and  C_11
    2  A    between atoms: C_4  and  C_25
    3  A    between atoms: C_5  and  C_25
    4  A    between atoms: C_6  and  N_31
    5  A    between atoms: N_7  and  C_20
    6  A    between atoms: C_14  and  C_25
    7  A    between atoms: C_16  and  C_21
    8  A    between atoms: C_18  and  C_21
    9  A    between atoms: C_18  and  C_22
                            x       y       z     vdW  Elec       q    Type
                         _______ _______ _______ _____ _____    ______ ____

>  <TORSDO>
F 9

$$$$
=
 OpenBabel11042418543D

 31 34  0  0  1  0  0  0  0  0999 V2000
  186.8520  177.8400  144.4880 C   0  0  1  0  0  3  0  0  0  0  0  0
  186.3460  176.7100  145.1020 C   0  0  1  0  0  3  0  0  0  0  0  0
  187.2400  176.5140  143.9210 N   0  0  0  0  0  0  0  0  0  0  0  0
  187.9360  175.6990  142.9810 C   0  0  0  0  0  0  0  0  0  0  0  0
  187.4150  174.4410  142.3880 C   0  0  0  0  0  2  0  0  0  0  0  0
  188.5910  174.0900  141.5230 C   0  0  0  0  0  0  0  0  0  0  0  0
  189.1440  175.9410  142.5110 C   0  0  0  0  0  0  0  0  0  0  0  0
  189.5640  174.9400  141.5990 N   0  0  0  0  0  0  0  0  0  0  0  0
  188.6670  172.9630  140.7060 O   0  0  0  0  0  0  0  0  0  0  0  0
  189.9050  172.3430  140.4020 C   0  0  0  0  0  1  0  0  0  0  0  0
  189.9520  177.0540  142.8890 N   0  0  0  0  0  2  0  0  0  0  0  0
  189.7050  178.2860  142.3880 O   0  0  0  0  0  1  0  0  0  0  0  0
  186.5340  177.2260  147.5250 C   0  0  0  0  0  1  0  0  0  0  0  0
  187.1150  176.4160  146.3850 C   0  0  2  0  0  3  0  0  0  0  0  0
  188.5810  176.7900  146.2220 C   0  0  0  0  0  2  0  0  0  0  0  0
  191.8730  176.2250  147.0500 N   0  0  0  0  0  2  0  0  0  0  0  0
  191.5540  173.0080  143.9960 C   0  0  0  0  0  3  0  0  0  0  0  0
  191.6150  175.3380  145.9820 C   0  0  0  0  0  0  0  0  0  0  0  0
  192.5320  175.0500  145.0600 C   0  0  0  0  0  3  0  0  0  0  0  0
  189.6910  173.8420  145.4520 C   0  0  0  0  0  3  0  0  0  0  0  0
  190.4260  172.8180  144.6820 C   0  0  0  0  0  3  0  0  0  0  0  0
  189.4900  175.8030  146.9540 C   0  0  2  0  0  3  0  0  0  0  0  0
  190.4420  177.8620  147.8850 F   0  0  0  0  0  0  0  0  0  0  0  0
  190.6250  176.4940  147.7550 C   0  0  2  0  0  3  0  0  0  0  0  0
  192.2020  174.3390  143.7880 C   0  0  0  0  0  2  0  0  0  0  0  0
  190.2130  174.9640  145.9610 C   0  0  0  0  0  0  0  0  0  0  0  0
  185.7920  178.4880  143.6020 C   0  0  2  0  0  3  0  0  0  0  0  0
  186.3490  178.8190  142.2530 C   0  0  0  0  0  3  0  0  0  0  0  0
  185.9000  178.2910  141.2500 O   0  0  0  0  0  0  0  0  0  0  0  0
  184.3590  179.4160  145.3050 O   0  0  0  0  0  1  0  0  0  0  0  0
  185.2240  179.7440  144.2580 C   0  0  0  0  0  2  0  0  0  0  0  0
  1 27  1  6  0  0  0
  1  2  1  0  0  0  0
  2 14  1  1  0  0  0
  3  1  1  0  0  0  0
  3  2  1  0  0  0  0
  4  3  1  0  0  0  0
  5  4  1  0  0  0  0
  6  8  2  0  0  0  0
  6  5  1  0  0  0  0
  7 11  1  0  0  0  0
  7  4  2  0  0  0  0
  8  7  1  0  0  0  0
  9  6  1  0  0  0  0
 10  9  1  0  0  0  0
 12 11  1  0  0  0  0
 14 13  1  1  0  0  0
 15 14  1  0  0  0  0
 16 24  1  0  0  0  0
 17 21  2  0  0  0  0
 18 16  1  0  0  0  0
 19 18  2  0  0  0  0
 20 26  2  0  0  0  0
 21 20  1  0  0  0  0
 22 15  1  6  0  0  0
 22 24  1  0  0  0  0
 24 23  1  6  0  0  0
 25 17  1  0  0  0  0
 25 19  1  0  0  0  0
 26 18  1  0  0  0  0
 26 22  1  0  0  0  0
 27 28  1  6  0  0  0
 27 31  1  0  0  0  0
 29 28  2  0  0  0  0
 31 30  1  0  0  0  0
M  END
>  <MODEL>
9

>  <REMARK>
 VINA RESULT:      -6.7      2.242      4.134
  Name = 
  9 active torsions:
  status: ('A' for Active; 'I' for Inactive)
    1  A    between atoms: O_2  and  C_11
    2  A    between atoms: C_4  and  C_25
    3  A    between atoms: C_5  and  C_25
    4  A    between atoms: C_6  and  N_31
    5  A    between atoms: N_7  and  C_20
    6  A    between atoms: C_14  and  C_25
    7  A    between atoms: C_16  and  C_21
    8  A    between atoms: C_18  and  C_21
    9  A    between atoms: C_18  and  C_22
                            x       y       z     vdW  Elec       q    Type
                         _______ _______ _______ _____ _____    ______ ____

>  <TORSDO>
F 9

$$$$
