=
 OpenBabel11042414003D

 36 41  0  0  1  0  0  0  0  0999 V2000
  190.9540  175.7530  142.6030 C   0  0  0  0  0  0  0  0  0  0  0  0
  191.1290  171.5010  142.2260 C   0  0  0  0  0  3  0  0  0  0  0  0
  187.8110  177.3530  143.9050 C   0  0  0  0  0  0  0  0  0  0  0  0
  190.7700  171.5870  139.8320 C   0  0  0  0  0  0  0  0  0  0  0  0
  190.3970  172.1890  138.6210 O   0  0  0  0  0  0  0  0  0  0  0  0
  190.7290  172.2380  141.0980 C   0  0  0  0  0  0  0  0  0  0  0  0
  189.0850  174.1990  140.6880 C   0  0  0  0  0  0  0  0  0  0  0  0
  189.5410  177.8040  143.7970 S   0  0  0  0  0  0  0  0  0  0  0  0
  189.8920  173.5070  138.4610 C   0  0  2  0  0  3  0  0  0  0  0  0
  190.3160  173.6510  141.3240 C   0  0  0  0  0  0  0  0  0  0  0  0
  188.6690  173.7370  139.3340 C   0  0  1  0  0  3  0  0  0  0  0  0
  191.5760  169.5870  140.8590 C   0  0  0  0  0  3  0  0  0  0  0  0
  189.7550  176.3070  142.8260 C   0  0  0  0  0  0  0  0  0  0  0  0
  188.5280  175.6570  142.5140 N   0  0  0  0  0  0  0  0  0  0  0  0
  188.2900  175.0390  141.2800 N   0  0  0  0  0  0  0  0  0  0  0  0
  189.5300  173.7300  137.0070 C   0  0  0  0  0  1  0  0  0  0  0  0
  187.4560  176.2930  143.1920 C   0  0  0  0  0  3  0  0  0  0  0  0
  191.1910  170.2940  139.7660 N   0  0  0  0  0  0  0  0  0  0  0  0
  187.8710  172.5920  139.4240 O   0  0  0  0  0  1  0  0  0  0  0  0
  191.5500  170.1810  142.1140 C   0  0  0  0  0  3  0  0  0  0  0  0
  191.1190  174.3790  142.1100 C   0  0  0  0  0  3  0  0  0  0  0  0
  186.8460  178.1220  144.7400 C   0  0  0  0  0  2  0  0  0  0  0  0
  186.6760  177.4680  146.0980 C   0  0  0  0  0  2  0  0  0  0  0  0
  184.3230  178.0740  146.5500 C   0  0  0  0  0  1  0  0  0  0  0  0
  185.2660  176.9340  146.2270 C   0  0  0  0  0  2  0  0  0  0  0  0
  192.2020  176.4340  143.0660 C   0  0  0  0  0  2  0  0  0  0  0  0
  193.1860  175.4140  143.6160 C   0  0  0  0  0  2  0  0  0  0  0  0
  194.8290  176.7330  144.7180 O   0  0  0  0  0  0  0  0  0  0  0  0
  193.8400  175.9640  144.8390 C   0  0  0  0  0  0  0  0  0  0  0  0
  193.3930  175.5910  146.1450 N   0  0  0  0  0  2  0  0  0  0  0  0
  192.2240  174.7470  146.3490 C   0  0  0  0  0  2  0  0  0  0  0  0
  189.7160  174.7740  146.1680 C   0  0  0  0  0  2  0  0  0  0  0  0
  190.8740  176.4550  147.6170 C   0  0  1  0  0  3  0  0  0  0  0  0
  190.1600  175.1210  147.5700 C   0  0  2  0  0  3  0  0  0  0  0  0
  190.9700  175.5960  146.3730 C   0  0  2  0  0  0  0  0  0  0  0  0
  189.9570  177.4850  147.4050 O   0  0  0  0  0  1  0  0  0  0  0  0
  1 13  2  0  0  0  0
  1 26  1  0  0  0  0
  3 22  1  0  0  0  0
  4  6  1  0  0  0  0
  5  4  1  0  0  0  0
  6 10  1  0  0  0  0
  6  2  2  0  0  0  0
  7 15  2  0  0  0  0
  7 10  1  0  0  0  0
  8  3  1  0  0  0  0
  9 16  1  6  0  0  0
  9  5  1  0  0  0  0
  9 11  1  0  0  0  0
 10 21  2  0  0  0  0
 11 19  1  1  0  0  0
 11  7  1  0  0  0  0
 12 20  2  0  0  0  0
 13  8  1  0  0  0  0
 14 13  1  0  0  0  0
 14 17  1  0  0  0  0
 15 14  1  0  0  0  0
 17  3  2  0  0  0  0
 18  4  2  0  0  0  0
 18 12  1  0  0  0  0
 20  2  1  0  0  0  0
 21  1  1  0  0  0  0
 22 23  1  0  0  0  0
 23 25  1  0  0  0  0
 25 24  1  0  0  0  0
 26 27  1  0  0  0  0
 27 29  1  0  0  0  0
 28 29  2  0  0  0  0
 29 30  1  0  0  0  0
 30 31  1  0  0  0  0
 32 35  1  0  0  0  0
 33 36  1  6  0  0  0
 34 32  1  6  0  0  0
 34 33  1  0  0  0  0
 35 31  1  6  0  0  0
 35 34  1  0  0  0  0
 35 33  1  0  0  0  0
M  END
>  <MODEL>
1

>  <REMARK>
 VINA RESULT:      -7.2      0.000      0.000
  Name = 
  8 active torsions:
  status: ('A' for Active; 'I' for Inactive)
    1  A    between atoms: C_1  and  C_33
    2  A    between atoms: C_3  and  C_12
    3  A    between atoms: C_12  and  C_22
    4  A    between atoms: C_16  and  C_26
    5  A    between atoms: C_16  and  N_31
    6  A    between atoms: C_22  and  C_23
    7  A    between atoms: C_24  and  C_34
    8  A    between atoms: C_33  and  C_34
                            x       y       z     vdW  Elec       q    Type
                         _______ _______ _______ _____ _____    ______ ____

>  <TORSDO>
F 8

$$$$
=
 OpenBabel11042414003D

 36 41  0  0  1  0  0  0  0  0999 V2000
  192.2560  175.9040  145.3010 C   0  0  0  0  0  0  0  0  0  0  0  0
  189.6510  177.7450  142.4600 C   0  0  0  0  0  3  0  0  0  0  0  0
  195.7440  174.9670  144.2560 C   0  0  0  0  0  0  0  0  0  0  0  0
  188.4460  175.6820  142.0610 C   0  0  0  0  0  0  0  0  0  0  0  0
  188.2470  174.2940  142.1070 O   0  0  0  0  0  0  0  0  0  0  0  0
  189.5900  176.3470  142.5860 C   0  0  0  0  0  0  0  0  0  0  0  0
  191.3500  174.4490  142.7240 C   0  0  0  0  0  0  0  0  0  0  0  0
  194.9080  175.3140  145.8010 S   0  0  0  0  0  0  0  0  0  0  0  0
  189.1490  173.3350  142.6410 C   0  0  2  0  0  3  0  0  0  0  0  0
  190.7250  175.6800  143.2840 C   0  0  0  0  0  0  0  0  0  0  0  0
  190.5200  173.4510  141.9940 C   0  0  1  0  0  3  0  0  0  0  0  0
  187.5320  177.7690  141.3440 C   0  0  0  0  0  3  0  0  0  0  0  0
  193.3890  175.3580  144.8410 C   0  0  0  0  0  0  0  0  0  0  0  0
  193.5690  174.9670  143.4840 N   0  0  0  0  0  0  0  0  0  0  0  0
  192.6250  174.2060  142.7820 N   0  0  0  0  0  0  0  0  0  0  0  0
  188.5930  171.9450  142.4130 C   0  0  0  0  0  1  0  0  0  0  0  0
  194.9500  174.7880  143.2100 C   0  0  0  0  0  3  0  0  0  0  0  0
  187.4680  176.4190  141.4640 N   0  0  0  0  0  0  0  0  0  0  0  0
  190.4290  173.7790  140.6380 O   0  0  0  0  0  1  0  0  0  0  0  0
  188.6300  178.4590  141.8410 C   0  0  0  0  0  3  0  0  0  0  0  0
  191.1250  176.2480  144.4290 C   0  0  0  0  0  3  0  0  0  0  0  0
  197.2290  174.8860  144.1630 C   0  0  0  0  0  2  0  0  0  0  0  0
  197.7760  173.9110  145.1880 C   0  0  0  0  0  2  0  0  0  0  0  0
  196.8200  171.7900  146.0200 C   0  0  0  0  0  1  0  0  0  0  0  0
  197.3760  172.5020  144.8060 C   0  0  0  0  0  2  0  0  0  0  0  0
  192.1730  176.4070  146.7070 C   0  0  0  0  0  2  0  0  0  0  0  0
  190.8000  176.1150  147.2890 C   0  0  0  0  0  2  0  0  0  0  0  0
  190.7990  178.0850  148.6210 O   0  0  0  0  0  0  0  0  0  0  0  0
  190.1850  177.3850  147.7750 C   0  0  0  0  0  0  0  0  0  0  0  0
  188.8880  177.7920  147.3310 N   0  0  0  0  0  2  0  0  0  0  0  0
  188.1520  177.0530  146.3160 C   0  0  0  0  0  2  0  0  0  0  0  0
  186.6840  178.4000  144.7820 C   0  0  0  0  0  2  0  0  0  0  0  0
  185.6600  176.6820  146.2880 C   0  0  1  0  0  3  0  0  0  0  0  0
  186.1830  176.9780  144.8990 C   0  0  2  0  0  3  0  0  0  0  0  0
  186.7880  177.6770  146.1080 C   0  0  2  0  0  0  0  0  0  0  0  0
  184.4620  177.3660  146.4940 O   0  0  0  0  0  1  0  0  0  0  0  0
  1 26  1  0  0  0  0
  2  6  2  0  0  0  0
  3  8  1  0  0  0  0
  4  5  1  0  0  0  0
  4  6  1  0  0  0  0
  5  9  1  0  0  0  0
  6 10  1  0  0  0  0
  7 15  2  0  0  0  0
  7 10  1  0  0  0  0
  9 16  1  6  0  0  0
 10 21  2  0  0  0  0
 11 19  1  6  0  0  0
 11  9  1  0  0  0  0
 11  7  1  0  0  0  0
 12 18  1  0  0  0  0
 12 20  2  0  0  0  0
 13  1  2  0  0  0  0
 13  8  1  0  0  0  0
 14 13  1  0  0  0  0
 15 14  1  0  0  0  0
 17 14  1  0  0  0  0
 17  3  2  0  0  0  0
 18  4  2  0  0  0  0
 20  2  1  0  0  0  0
 21  1  1  0  0  0  0
 22  3  1  0  0  0  0
 22 23  1  0  0  0  0
 25 23  1  0  0  0  0
 25 24  1  0  0  0  0
 26 27  1  0  0  0  0
 27 29  1  0  0  0  0
 29 28  2  0  0  0  0
 30 29  1  0  0  0  0
 31 30  1  0  0  0  0
 32 35  1  0  0  0  0
 33 36  1  6  0  0  0
 34 32  1  6  0  0  0
 34 35  1  0  0  0  0
 34 33  1  0  0  0  0
 35 33  1  0  0  0  0
 35 31  1  1  0  0  0
M  END
>  <MODEL>
2

>  <REMARK>
 VINA RESULT:      -7.1      2.768      6.573
  Name = 
  8 active torsions:
  status: ('A' for Active; 'I' for Inactive)
    1  A    between atoms: C_1  and  C_33
    2  A    between atoms: C_3  and  C_12
    3  A    between atoms: C_12  and  C_22
    4  A    between atoms: C_16  and  C_26
    5  A    between atoms: C_16  and  N_31
    6  A    between atoms: C_22  and  C_23
    7  A    between atoms: C_24  and  C_34
    8  A    between atoms: C_33  and  C_34
                            x       y       z     vdW  Elec       q    Type
                         _______ _______ _______ _____ _____    ______ ____

>  <TORSDO>
F 8

$$$$
=
 OpenBabel11042414003D

 36 41  0  0  1  0  0  0  0  0999 V2000
  189.0530  175.0440  141.6560 C   0  0  0  0  0  0  0  0  0  0  0  0
  189.4490  174.5710  145.8830 C   0  0  0  0  0  3  0  0  0  0  0  0
  189.5440  172.0620  139.4200 C   0  0  0  0  0  0  0  0  0  0  0  0
  191.6660  175.5470  145.8970 C   0  0  0  0  0  0  0  0  0  0  0  0
  192.8670  175.9890  145.3210 O   0  0  0  0  0  0  0  0  0  0  0  0
  190.5880  174.9730  145.1640 C   0  0  0  0  0  0  0  0  0  0  0  0
  191.7270  174.2020  142.9670 C   0  0  0  0  0  0  0  0  0  0  0  0
  188.7050  173.6390  139.3030 S   0  0  0  0  0  0  0  0  0  0  0  0
  193.2170  175.9080  143.9470 C   0  0  2  0  0  3  0  0  0  0  0  0
  190.5590  174.7840  143.6870 C   0  0  0  0  0  0  0  0  0  0  0  0
  193.1130  174.4790  143.4360 C   0  0  1  0  0  3  0  0  0  0  0  0
  190.4500  175.2920  147.9360 C   0  0  0  0  0  3  0  0  0  0  0  0
  189.4750  174.0400  140.8770 C   0  0  0  0  0  0  0  0  0  0  0  0
  190.4130  173.0620  141.3100 N   0  0  0  0  0  0  0  0  0  0  0  0
  191.6110  173.3930  141.9570 N   0  0  0  0  0  0  0  0  0  0  0  0
  194.6320  176.4140  143.7610 C   0  0  0  0  0  1  0  0  0  0  0  0
  190.3790  171.9390  140.4430 C   0  0  0  0  0  3  0  0  0  0  0  0
  191.5520  175.6820  147.2470 N   0  0  0  0  0  0  0  0  0  0  0  0
  193.5030  173.5510  144.4060 O   0  0  0  0  0  1  0  0  0  0  0  0
  189.3750  174.7250  147.2630 C   0  0  0  0  0  3  0  0  0  0  0  0
  189.4390  175.1760  143.0670 C   0  0  0  0  0  3  0  0  0  0  0  0
  189.3150  170.9710  138.4310 C   0  0  0  0  0  2  0  0  0  0  0  0
  190.6080  170.6120  137.7240 C   0  0  0  0  0  2  0  0  0  0  0  0
  189.3950  171.5400  135.7830 C   0  0  0  0  0  1  0  0  0  0  0  0
  190.3450  170.4560  136.2420 C   0  0  0  0  0  2  0  0  0  0  0  0
  187.9740  175.9670  141.1860 C   0  0  0  0  0  2  0  0  0  0  0  0
  186.9800  176.2280  142.3050 C   0  0  0  0  0  2  0  0  0  0  0  0
  186.1260  178.1660  141.2230 O   0  0  0  0  0  0  0  0  0  0  0  0
  186.5750  177.6640  142.2870 C   0  0  0  0  0  0  0  0  0  0  0  0
  186.7360  178.4900  143.4430 N   0  0  0  0  0  2  0  0  0  0  0  0
  187.2000  177.9550  144.7150 C   0  0  0  0  0  2  0  0  0  0  0  0
  186.3860  176.7880  146.7880 C   0  0  0  0  0  2  0  0  0  0  0  0
  185.3420  178.9550  146.0920 C   0  0  1  0  0  3  0  0  0  0  0  0
  186.3760  178.2890  146.9730 C   0  0  2  0  0  3  0  0  0  0  0  0
  186.0200  177.6830  145.6240 C   0  0  2  0  0  0  0  0  0  0  0  0
  184.0630  178.6570  146.5640 O   0  0  0  0  0  1  0  0  0  0  0  0
  1 21  1  0  0  0  0
  2 20  1  0  0  0  0
  3 17  2  0  0  0  0
  4 18  2  0  0  0  0
  5  4  1  0  0  0  0
  6  2  2  0  0  0  0
  6  4  1  0  0  0  0
  7 11  1  0  0  0  0
  7 10  1  0  0  0  0
  8  3  1  0  0  0  0
  8 13  1  0  0  0  0
  9 16  1  1  0  0  0
  9  5  1  0  0  0  0
 10  6  1  0  0  0  0
 11  9  1  0  0  0  0
 11 19  1  1  0  0  0
 13 14  1  0  0  0  0
 13  1  2  0  0  0  0
 14 15  1  0  0  0  0
 15  7  2  0  0  0  0
 17 14  1  0  0  0  0
 18 12  1  0  0  0  0
 20 12  2  0  0  0  0
 21 10  2  0  0  0  0
 22  3  1  0  0  0  0
 23 22  1  0  0  0  0
 24 25  1  0  0  0  0
 25 23  1  0  0  0  0
 26  1  1  0  0  0  0
 26 27  1  0  0  0  0
 28 29  2  0  0  0  0
 29 27  1  0  0  0  0
 29 30  1  0  0  0  0
 30 31  1  0  0  0  0
 33 36  1  1  0  0  0
 33 34  1  0  0  0  0
 34 32  1  1  0  0  0
 35 31  1  6  0  0  0
 35 33  1  0  0  0  0
 35 32  1  0  0  0  0
 35 34  1  0  0  0  0
M  END
>  <MODEL>
3

>  <REMARK>
 VINA RESULT:      -7.1      2.519      7.144
  Name = 
  8 active torsions:
  status: ('A' for Active; 'I' for Inactive)
    1  A    between atoms: C_1  and  C_33
    2  A    between atoms: C_3  and  C_12
    3  A    between atoms: C_12  and  C_22
    4  A    between atoms: C_16  and  C_26
    5  A    between atoms: C_16  and  N_31
    6  A    between atoms: C_22  and  C_23
    7  A    between atoms: C_24  and  C_34
    8  A    between atoms: C_33  and  C_34
                            x       y       z     vdW  Elec       q    Type
                         _______ _______ _______ _____ _____    ______ ____

>  <TORSDO>
F 8

$$$$
=
 OpenBabel11042414003D

 36 41  0  0  1  0  0  0  0  0999 V2000
  189.8510  174.3080  144.0820 C   0  0  0  0  0  0  0  0  0  0  0  0
  186.9120  176.8480  145.8610 C   0  0  0  0  0  3  0  0  0  0  0  0
  193.3470  175.6010  143.6000 C   0  0  0  0  0  0  0  0  0  0  0  0
  185.8990  177.3610  143.7220 C   0  0  0  0  0  0  0  0  0  0  0  0
  185.8430  177.4230  142.3220 O   0  0  0  0  0  0  0  0  0  0  0  0
  186.9990  176.8380  144.4580 C   0  0  0  0  0  0  0  0  0  0  0  0
  188.9450  176.9510  142.7500 C   0  0  0  0  0  0  0  0  0  0  0  0
  192.5720  173.9930  143.7330 S   0  0  0  0  0  0  0  0  0  0  0  0
  186.8650  177.0190  141.4230 C   0  0  2  0  0  3  0  0  0  0  0  0
  188.2340  176.2570  143.8600 C   0  0  0  0  0  0  0  0  0  0  0  0
  188.1780  177.7220  141.7320 C   0  0  1  0  0  3  0  0  0  0  0  0
  184.7400  177.8490  145.7520 C   0  0  0  0  0  3  0  0  0  0  0  0
  191.0040  174.8690  143.6950 C   0  0  0  0  0  0  0  0  0  0  0  0
  191.1420  176.2610  143.4350 N   0  0  0  0  0  0  0  0  0  0  0  0
  190.2390  176.9770  142.6380 N   0  0  0  0  0  0  0  0  0  0  0  0
  186.4390  177.3370  140.0040 C   0  0  0  0  0  1  0  0  0  0  0  0
  192.5150  176.6190  143.4230 C   0  0  0  0  0  3  0  0  0  0  0  0
  184.8190  177.8420  144.3980 N   0  0  0  0  0  0  0  0  0  0  0  0
  187.9760  179.0380  142.1560 O   0  0  0  0  0  1  0  0  0  0  0  0
  185.7910  177.3510  146.5110 C   0  0  0  0  0  3  0  0  0  0  0  0
  188.6410  175.0890  144.3730 C   0  0  0  0  0  3  0  0  0  0  0  0
  194.8250  175.7750  143.6830 C   0  0  0  0  0  2  0  0  0  0  0  0
  195.2170  176.3900  145.0140 C   0  0  0  0  0  2  0  0  0  0  0  0
  196.0840  174.2050  145.7760 C   0  0  0  0  0  1  0  0  0  0  0  0
  195.1330  175.3380  146.0990 C   0  0  0  0  0  2  0  0  0  0  0  0
  189.7990  172.8620  144.4590 C   0  0  0  0  0  2  0  0  0  0  0  0
  189.0800  172.0630  143.3850 C   0  0  0  0  0  2  0  0  0  0  0  0
  190.7900  170.5650  142.6900 O   0  0  0  0  0  0  0  0  0  0  0  0
  190.0720  171.5550  142.3940 C   0  0  0  0  0  0  0  0  0  0  0  0
  190.2540  172.2040  141.1330 N   0  0  0  0  0  2  0  0  0  0  0  0
  189.4190  173.3200  140.7130 C   0  0  0  0  0  2  0  0  0  0  0  0
  189.5830  172.0740  138.5340 C   0  0  0  0  0  2  0  0  0  0  0  0
  188.1970  174.1540  138.6730 C   0  0  1  0  0  3  0  0  0  0  0  0
  188.1950  172.6420  138.7290 C   0  0  2  0  0  3  0  0  0  0  0  0
  189.4130  173.4220  139.2020 C   0  0  2  0  0  0  0  0  0  0  0  0
  188.4360  174.5750  137.3650 O   0  0  0  0  0  1  0  0  0  0  0  0
  1 21  1  0  0  0  0
  1 26  1  0  0  0  0
  2 20  1  0  0  0  0
  3 22  1  0  0  0  0
  3  8  1  0  0  0  0
  4 18  2  0  0  0  0
  4  6  1  0  0  0  0
  5  4  1  0  0  0  0
  6  2  2  0  0  0  0
  7 10  1  0  0  0  0
  9 16  1  6  0  0  0
  9 11  1  0  0  0  0
  9  5  1  0  0  0  0
 10 21  2  0  0  0  0
 10  6  1  0  0  0  0
 11 19  1  1  0  0  0
 11  7  1  0  0  0  0
 12 20  2  0  0  0  0
 13  8  1  0  0  0  0
 13  1  2  0  0  0  0
 14 13  1  0  0  0  0
 15  7  2  0  0  0  0
 15 14  1  0  0  0  0
 17 14  1  0  0  0  0
 17  3  2  0  0  0  0
 18 12  1  0  0  0  0
 22 23  1  0  0  0  0
 23 25  1  0  0  0  0
 24 25  1  0  0  0  0
 27 26  1  0  0  0  0
 29 28  2  0  0  0  0
 29 27  1  0  0  0  0
 30 29  1  0  0  0  0
 31 30  1  0  0  0  0
 32 35  1  0  0  0  0
 33 36  1  6  0  0  0
 33 34  1  0  0  0  0
 33 35  1  0  0  0  0
 34 32  1  6  0  0  0
 34 35  1  0  0  0  0
 35 31  1  1  0  0  0
M  END
>  <MODEL>
4

>  <REMARK>
 VINA RESULT:      -6.8      2.696      7.335
  Name = 
  8 active torsions:
  status: ('A' for Active; 'I' for Inactive)
    1  A    between atoms: C_1  and  C_33
    2  A    between atoms: C_3  and  C_12
    3  A    between atoms: C_12  and  C_22
    4  A    between atoms: C_16  and  C_26
    5  A    between atoms: C_16  and  N_31
    6  A    between atoms: C_22  and  C_23
    7  A    between atoms: C_24  and  C_34
    8  A    between atoms: C_33  and  C_34
                            x       y       z     vdW  Elec       q    Type
                         _______ _______ _______ _____ _____    ______ ____

>  <TORSDO>
F 8

$$$$
=
 OpenBabel11042414003D

 36 41  0  0  1  0  0  0  0  0999 V2000
  190.9660  174.0640  144.0840 C   0  0  0  0  0  0  0  0  0  0  0  0
  193.8210  175.2910  141.1530 C   0  0  0  0  0  3  0  0  0  0  0  0
  189.3190  176.6630  146.2450 C   0  0  0  0  0  0  0  0  0  0  0  0
  195.6940  174.6180  142.5330 C   0  0  0  0  0  0  0  0  0  0  0  0
  196.3240  174.2390  143.7280 O   0  0  0  0  0  0  0  0  0  0  0  0
  194.3070  174.9190  142.4180 C   0  0  0  0  0  0  0  0  0  0  0  0
  193.6240  175.4450  144.8630 C   0  0  0  0  0  0  0  0  0  0  0  0
  188.9390  174.9960  145.7130 S   0  0  0  0  0  0  0  0  0  0  0  0
  195.7080  174.1300  145.0030 C   0  0  2  0  0  3  0  0  0  0  0  0
  193.3190  174.8510  143.5310 C   0  0  0  0  0  0  0  0  0  0  0  0
  195.0160  175.4270  145.3920 C   0  0  1  0  0  3  0  0  0  0  0  0
  196.0090  175.0590  140.2080 C   0  0  0  0  0  3  0  0  0  0  0  0
  190.5880  174.9670  144.9980 C   0  0  0  0  0  0  0  0  0  0  0  0
  191.3630  176.1140  145.3250 N   0  0  0  0  0  0  0  0  0  0  0  0
  192.7370  176.0500  145.5940 N   0  0  0  0  0  0  0  0  0  0  0  0
  196.7570  173.7820  146.0380 C   0  0  0  0  0  1  0  0  0  0  0  0
  190.5630  177.0610  146.0150 C   0  0  0  0  0  3  0  0  0  0  0  0
  196.4840  174.6990  141.4270 N   0  0  0  0  0  0  0  0  0  0  0  0
  195.7280  176.5480  144.9530 O   0  0  0  0  0  1  0  0  0  0  0  0
  194.6630  175.3640  140.0490 C   0  0  0  0  0  3  0  0  0  0  0  0
  192.1690  174.2220  143.2560 C   0  0  0  0  0  3  0  0  0  0  0  0
  188.3030  177.5340  146.8990 C   0  0  0  0  0  2  0  0  0  0  0  0
  186.9660  177.4190  146.1910 C   0  0  0  0  0  2  0  0  0  0  0  0
  184.6820  178.2180  146.6920 C   0  0  0  0  0  1  0  0  0  0  0  0
  185.8520  177.4130  147.2150 C   0  0  0  0  0  2  0  0  0  0  0  0
  190.0500  172.9470  143.6970 C   0  0  0  0  0  2  0  0  0  0  0  0
  189.7150  173.0290  142.2180 C   0  0  0  0  0  2  0  0  0  0  0  0
  187.4010  172.4860  142.1620 O   0  0  0  0  0  0  0  0  0  0  0  0
  188.2750  173.3840  142.0530 C   0  0  0  0  0  0  0  0  0  0  0  0
  187.8780  174.7180  141.7250 N   0  0  0  0  0  2  0  0  0  0  0  0
  188.8370  175.8090  141.6370 C   0  0  0  0  0  2  0  0  0  0  0  0
  189.4990  177.9410  142.7960 C   0  0  0  0  0  2  0  0  0  0  0  0
  187.1760  177.6860  141.8970 C   0  0  1  0  0  3  0  0  0  0  0  0
  188.5680  178.2220  141.6380 C   0  0  2  0  0  3  0  0  0  0  0  0
  188.3760  176.9740  142.4880 C   0  0  2  0  0  0  0  0  0  0  0  0
  186.5550  178.4530  142.8830 O   0  0  0  0  0  1  0  0  0  0  0  0
  1 13  2  0  0  0  0
  2  6  2  0  0  0  0
  3 22  1  0  0  0  0
  4  5  1  0  0  0  0
  5  9  1  0  0  0  0
  6  4  1  0  0  0  0
  6 10  1  0  0  0  0
  7 11  1  0  0  0  0
  7 15  2  0  0  0  0
  8  3  1  0  0  0  0
  9 11  1  0  0  0  0
  9 16  1  1  0  0  0
 10  7  1  0  0  0  0
 11 19  1  6  0  0  0
 12 18  1  0  0  0  0
 13 14  1  0  0  0  0
 13  8  1  0  0  0  0
 14 15  1  0  0  0  0
 14 17  1  0  0  0  0
 17  3  2  0  0  0  0
 18  4  2  0  0  0  0
 20 12  2  0  0  0  0
 20  2  1  0  0  0  0
 21 10  2  0  0  0  0
 21  1  1  0  0  0  0
 23 22  1  0  0  0  0
 23 25  1  0  0  0  0
 24 25  1  0  0  0  0
 26  1  1  0  0  0  0
 27 26  1  0  0  0  0
 29 28  2  0  0  0  0
 29 27  1  0  0  0  0
 30 29  1  0  0  0  0
 31 30  1  0  0  0  0
 33 35  1  0  0  0  0
 33 36  1  1  0  0  0
 34 33  1  0  0  0  0
 34 35  1  0  0  0  0
 34 32  1  1  0  0  0
 35 31  1  6  0  0  0
 35 32  1  0  0  0  0
M  END
>  <MODEL>
5

>  <REMARK>
 VINA RESULT:      -6.7      2.636      5.971
  Name = 
  8 active torsions:
  status: ('A' for Active; 'I' for Inactive)
    1  A    between atoms: C_1  and  C_33
    2  A    between atoms: C_3  and  C_12
    3  A    between atoms: C_12  and  C_22
    4  A    between atoms: C_16  and  C_26
    5  A    between atoms: C_16  and  N_31
    6  A    between atoms: C_22  and  C_23
    7  A    between atoms: C_24  and  C_34
    8  A    between atoms: C_33  and  C_34
                            x       y       z     vdW  Elec       q    Type
                         _______ _______ _______ _____ _____    ______ ____

>  <TORSDO>
F 8

$$$$
=
 OpenBabel11042414003D

 36 41  0  0  1  0  0  0  0  0999 V2000
  194.1960  175.8410  143.1400 C   0  0  0  0  0  0  0  0  0  0  0  0
  190.2580  177.4220  142.6400 C   0  0  0  0  0  3  0  0  0  0  0  0
  196.4370  175.5120  140.1400 C   0  0  0  0  0  0  0  0  0  0  0  0
  189.2430  175.2250  142.7390 C   0  0  0  0  0  0  0  0  0  0  0  0
  189.2350  173.8230  142.7010 O   0  0  0  0  0  0  0  0  0  0  0  0
  190.4100  176.0260  142.5840 C   0  0  0  0  0  0  0  0  0  0  0  0
  192.0650  174.4160  141.4060 C   0  0  0  0  0  0  0  0  0  0  0  0
  196.6610  175.6360  141.9120 S   0  0  0  0  0  0  0  0  0  0  0  0
  190.3580  172.9840  142.4700 C   0  0  2  0  0  3  0  0  0  0  0  0
  191.7910  175.5020  142.3880 C   0  0  0  0  0  0  0  0  0  0  0  0
  191.0560  173.3460  141.1680 C   0  0  1  0  0  3  0  0  0  0  0  0
  187.9010  177.1850  142.9860 C   0  0  0  0  0  3  0  0  0  0  0  0
  194.8730  175.5030  142.0360 C   0  0  0  0  0  0  0  0  0  0  0  0
  194.2420  175.2230  140.7910 N   0  0  0  0  0  0  0  0  0  0  0  0
  193.1380  174.3680  140.6750 N   0  0  0  0  0  0  0  0  0  0  0  0
  189.9030  171.5410  142.4210 C   0  0  0  0  0  1  0  0  0  0  0  0
  195.1950  175.2740  139.7410 C   0  0  0  0  0  3  0  0  0  0  0  0
  188.0420  175.8360  142.9340 N   0  0  0  0  0  0  0  0  0  0  0  0
  190.1450  173.7340  140.1810 O   0  0  0  0  0  1  0  0  0  0  0  0
  189.0120  178.0050  142.8380 C   0  0  0  0  0  3  0  0  0  0  0  0
  192.7420  176.0570  143.1500 C   0  0  0  0  0  3  0  0  0  0  0  0
  197.5730  175.6660  139.1880 C   0  0  0  0  0  2  0  0  0  0  0  0
  197.3410  174.8330  137.9410 C   0  0  0  0  0  2  0  0  0  0  0  0
  196.3590  175.9940  135.9940 C   0  0  0  0  0  1  0  0  0  0  0  0
  197.6490  175.6660  136.7160 C   0  0  0  0  0  2  0  0  0  0  0  0
  194.9230  176.2430  144.3830 C   0  0  0  0  0  2  0  0  0  0  0  0
  194.3660  175.4950  145.5830 C   0  0  0  0  0  2  0  0  0  0  0  0
  194.4460  177.5410  146.7930 O   0  0  0  0  0  0  0  0  0  0  0  0
  193.8190  176.4730  146.5690 C   0  0  0  0  0  0  0  0  0  0  0  0
  192.6210  176.1920  147.2970 N   0  0  0  0  0  2  0  0  0  0  0  0
  191.8250  175.0000  147.0450 C   0  0  0  0  0  2  0  0  0  0  0  0
  189.6910  174.1660  146.0080 C   0  0  0  0  0  2  0  0  0  0  0  0
  189.7480  176.4250  147.0860 C   0  0  1  0  0  3  0  0  0  0  0  0
  189.4080  174.9610  147.2630 C   0  0  2  0  0  3  0  0  0  0  0  0
  190.5410  175.3750  146.3360 C   0  0  2  0  0  0  0  0  0  0  0  0
  188.8250  177.0190  146.2240 O   0  0  0  0  0  1  0  0  0  0  0  0
  1 21  1  0  0  0  0
  1 26  1  0  0  0  0
  2 20  1  0  0  0  0
  3  8  1  0  0  0  0
  4 18  2  0  0  0  0
  5  4  1  0  0  0  0
  6  2  2  0  0  0  0
  6  4  1  0  0  0  0
  7 10  1  0  0  0  0
  8 13  1  0  0  0  0
  9 16  1  6  0  0  0
  9  5  1  0  0  0  0
 10  6  1  0  0  0  0
 10 21  2  0  0  0  0
 11 19  1  6  0  0  0
 11  7  1  0  0  0  0
 11  9  1  0  0  0  0
 13  1  2  0  0  0  0
 14 13  1  0  0  0  0
 15 14  1  0  0  0  0
 15  7  2  0  0  0  0
 17  3  2  0  0  0  0
 17 14  1  0  0  0  0
 18 12  1  0  0  0  0
 20 12  2  0  0  0  0
 22  3  1  0  0  0  0
 23 22  1  0  0  0  0
 24 25  1  0  0  0  0
 25 23  1  0  0  0  0
 26 27  1  0  0  0  0
 27 29  1  0  0  0  0
 29 28  2  0  0  0  0
 29 30  1  0  0  0  0
 31 30  1  0  0  0  0
 32 35  1  0  0  0  0
 33 36  1  6  0  0  0
 33 34  1  0  0  0  0
 34 32  1  6  0  0  0
 35 31  1  1  0  0  0
 35 33  1  0  0  0  0
 35 34  1  0  0  0  0
M  END
>  <MODEL>
6

>  <REMARK>
 VINA RESULT:      -6.5      3.416      6.626
  Name = 
  8 active torsions:
  status: ('A' for Active; 'I' for Inactive)
    1  A    between atoms: C_1  and  C_33
    2  A    between atoms: C_3  and  C_12
    3  A    between atoms: C_12  and  C_22
    4  A    between atoms: C_16  and  C_26
    5  A    between atoms: C_16  and  N_31
    6  A    between atoms: C_22  and  C_23
    7  A    between atoms: C_24  and  C_34
    8  A    between atoms: C_33  and  C_34
                            x       y       z     vdW  Elec       q    Type
                         _______ _______ _______ _____ _____    ______ ____

>  <TORSDO>
F 8

$$$$
=
 OpenBabel11042414003D

 36 41  0  0  1  0  0  0  0  0999 V2000
  191.3530  175.5340  143.9740 C   0  0  0  0  0  0  0  0  0  0  0  0
  191.6720  171.2970  143.5300 C   0  0  0  0  0  3  0  0  0  0  0  0
  187.9570  177.0840  144.4170 C   0  0  0  0  0  0  0  0  0  0  0  0
  191.9780  171.4590  141.1330 C   0  0  0  0  0  0  0  0  0  0  0  0
  191.9430  172.0980  139.8850 O   0  0  0  0  0  0  0  0  0  0  0  0
  191.5860  172.0680  142.3580 C   0  0  0  0  0  0  0  0  0  0  0  0
  190.0940  174.0380  141.5750 C   0  0  0  0  0  0  0  0  0  0  0  0
  189.6450  177.5420  144.7990 S   0  0  0  0  0  0  0  0  0  0  0  0
  191.4860  173.4200  139.6330 C   0  0  2  0  0  3  0  0  0  0  0  0
  191.1120  173.4730  142.5050 C   0  0  0  0  0  0  0  0  0  0  0  0
  190.0690  173.6190  140.1460 C   0  0  1  0  0  3  0  0  0  0  0  0
  192.4960  169.4290  142.2790 C   0  0  0  0  0  3  0  0  0  0  0  0
  190.1330  176.0780  143.8770 C   0  0  0  0  0  0  0  0  0  0  0  0
  189.0450  175.4350  143.2230 N   0  0  0  0  0  0  0  0  0  0  0  0
  189.1590  174.8560  141.9520 N   0  0  0  0  0  0  0  0  0  0  0  0
  191.5320  173.6890  138.1430 C   0  0  0  0  0  1  0  0  0  0  0  0
  187.8210  176.0460  143.6020 C   0  0  0  0  0  3  0  0  0  0  0  0
  192.4160  170.1690  141.1450 N   0  0  0  0  0  0  0  0  0  0  0  0
  189.2900  172.4700  139.9800 O   0  0  0  0  0  1  0  0  0  0  0  0
  192.1220  169.9820  143.4970 C   0  0  0  0  0  3  0  0  0  0  0  0
  191.6620  174.1770  143.5030 C   0  0  0  0  0  3  0  0  0  0  0  0
  186.7920  177.8230  144.9790 C   0  0  0  0  0  2  0  0  0  0  0  0
  185.7030  176.8570  145.4060 C   0  0  0  0  0  2  0  0  0  0  0  0
  184.0760  178.5760  146.1170 C   0  0  0  0  0  1  0  0  0  0  0  0
  184.9520  177.4340  146.5870 C   0  0  0  0  0  2  0  0  0  0  0  0
  192.4200  176.2030  144.7800 C   0  0  0  0  0  2  0  0  0  0  0  0
  193.6950  176.3310  143.9620 C   0  0  0  0  0  2  0  0  0  0  0  0
  194.9390  177.6380  145.5100 O   0  0  0  0  0  0  0  0  0  0  0  0
  194.8530  176.5540  144.8770 C   0  0  0  0  0  0  0  0  0  0  0  0
  195.8880  175.5770  145.0070 N   0  0  0  0  0  2  0  0  0  0  0  0
  195.8180  174.2850  144.3410 C   0  0  0  0  0  2  0  0  0  0  0  0
  194.3020  172.7740  145.6620 C   0  0  0  0  0  2  0  0  0  0  0  0
  196.5820  171.9770  145.0050 C   0  0  1  0  0  3  0  0  0  0  0  0
  195.1090  171.9850  144.6570 C   0  0  2  0  0  3  0  0  0  0  0  0
  195.7310  173.1770  145.3690 C   0  0  2  0  0  0  0  0  0  0  0  0
  196.7920  171.1900  146.1370 O   0  0  0  0  0  1  0  0  0  0  0  0
  1 26  1  0  0  0  0
  3  8  1  0  0  0  0
  3 22  1  0  0  0  0
  4 18  2  0  0  0  0
  4  6  1  0  0  0  0
  5  4  1  0  0  0  0
  6 10  1  0  0  0  0
  6  2  2  0  0  0  0
  7 15  2  0  0  0  0
  7 10  1  0  0  0  0
  9 16  1  6  0  0  0
  9  5  1  0  0  0  0
  9 11  1  0  0  0  0
 10 21  2  0  0  0  0
 11 19  1  1  0  0  0
 11  7  1  0  0  0  0
 12 20  2  0  0  0  0
 13  1  2  0  0  0  0
 13  8  1  0  0  0  0
 14 17  1  0  0  0  0
 14 13  1  0  0  0  0
 15 14  1  0  0  0  0
 17  3  2  0  0  0  0
 18 12  1  0  0  0  0
 20  2  1  0  0  0  0
 21  1  1  0  0  0  0
 22 23  1  0  0  0  0
 23 25  1  0  0  0  0
 24 25  1  0  0  0  0
 27 26  1  0  0  0  0
 27 29  1  0  0  0  0
 29 30  1  0  0  0  0
 29 28  2  0  0  0  0
 31 30  1  0  0  0  0
 33 35  1  0  0  0  0
 33 36  1  1  0  0  0
 34 33  1  0  0  0  0
 34 35  1  0  0  0  0
 34 32  1  1  0  0  0
 35 31  1  6  0  0  0
 35 32  1  0  0  0  0
M  END
>  <MODEL>
7

>  <REMARK>
 VINA RESULT:      -6.3      2.083      3.016
  Name = 
  8 active torsions:
  status: ('A' for Active; 'I' for Inactive)
    1  A    between atoms: C_1  and  C_33
    2  A    between atoms: C_3  and  C_12
    3  A    between atoms: C_12  and  C_22
    4  A    between atoms: C_16  and  C_26
    5  A    between atoms: C_16  and  N_31
    6  A    between atoms: C_22  and  C_23
    7  A    between atoms: C_24  and  C_34
    8  A    between atoms: C_33  and  C_34
                            x       y       z     vdW  Elec       q    Type
                         _______ _______ _______ _____ _____    ______ ____

>  <TORSDO>
F 8

$$$$
=
 OpenBabel11042414003D

 36 41  0  0  1  0  0  0  0  0999 V2000
  189.9930  175.3190  142.7390 C   0  0  0  0  0  0  0  0  0  0  0  0
  194.0510  176.3340  141.8710 C   0  0  0  0  0  3  0  0  0  0  0  0
  188.2260  177.0670  145.5590 C   0  0  0  0  0  0  0  0  0  0  0  0
  194.9000  174.3520  142.9750 C   0  0  0  0  0  0  0  0  0  0  0  0
  194.8260  173.2340  143.8190 O   0  0  0  0  0  0  0  0  0  0  0  0
  193.8230  175.2530  142.7410 C   0  0  0  0  0  0  0  0  0  0  0  0
  192.2730  174.8460  144.7780 C   0  0  0  0  0  0  0  0  0  0  0  0
  187.7390  176.1940  144.0730 S   0  0  0  0  0  0  0  0  0  0  0  0
  193.7020  172.8420  144.5940 C   0  0  2  0  0  3  0  0  0  0  0  0
  192.4590  175.1320  143.3270 C   0  0  0  0  0  0  0  0  0  0  0  0
  193.2380  173.9710  145.5010 C   0  0  1  0  0  3  0  0  0  0  0  0
  196.3070  175.6140  141.5150 C   0  0  0  0  0  3  0  0  0  0  0  0
  189.4750  175.7650  143.8900 C   0  0  0  0  0  0  0  0  0  0  0  0
  190.2720  176.1560  145.0020 N   0  0  0  0  0  0  0  0  0  0  0  0
  191.3250  175.3720  145.4930 N   0  0  0  0  0  0  0  0  0  0  0  0
  194.0690  171.6340  145.4310 C   0  0  0  0  0  1  0  0  0  0  0  0
  189.4980  176.9260  145.9080 C   0  0  0  0  0  3  0  0  0  0  0  0
  196.0920  174.5690  142.3540 N   0  0  0  0  0  0  0  0  0  0  0  0
  194.3130  174.7190  145.9920 O   0  0  0  0  0  1  0  0  0  0  0  0
  195.2860  176.5200  141.2590 C   0  0  0  0  0  3  0  0  0  0  0  0
  191.4380  175.2840  142.4750 C   0  0  0  0  0  3  0  0  0  0  0  0
  187.2630  177.8910  146.3430 C   0  0  0  0  0  2  0  0  0  0  0  0
  185.9040  177.2170  146.3960 C   0  0  0  0  0  2  0  0  0  0  0  0
  184.0410  178.7440  145.8470 C   0  0  0  0  0  1  0  0  0  0  0  0
  184.8870  178.1800  146.9680 C   0  0  0  0  0  2  0  0  0  0  0  0
  189.1090  175.0420  141.5650 C   0  0  0  0  0  2  0  0  0  0  0  0
  189.2880  173.6070  141.0990 C   0  0  0  0  0  2  0  0  0  0  0  0
  187.2340  172.7280  141.9130 O   0  0  0  0  0  0  0  0  0  0  0  0
  188.4900  172.6970  141.9720 C   0  0  0  0  0  0  0  0  0  0  0  0
  189.1300  171.8260  142.9080 N   0  0  0  0  0  2  0  0  0  0  0  0
  190.5790  171.7080  142.9870 C   0  0  0  0  0  2  0  0  0  0  0  0
  192.4660  171.5640  141.3300 C   0  0  0  0  0  2  0  0  0  0  0  0
  191.1250  169.5190  141.8650 C   0  0  1  0  0  3  0  0  0  0  0  0
  192.3820  170.3060  142.1650 C   0  0  2  0  0  3  0  0  0  0  0  0
  191.1110  171.0290  141.7430 C   0  0  2  0  0  0  0  0  0  0  0  0
  191.2220  168.9470  140.5960 O   0  0  0  0  0  1  0  0  0  0  0  0
  1 13  2  0  0  0  0
  2  6  2  0  0  0  0
  3 17  2  0  0  0  0
  3 22  1  0  0  0  0
  4  5  1  0  0  0  0
  5  9  1  0  0  0  0
  6  4  1  0  0  0  0
  6 10  1  0  0  0  0
  7 15  2  0  0  0  0
  7 11  1  0  0  0  0
  8  3  1  0  0  0  0
  9 16  1  1  0  0  0
  9 11  1  0  0  0  0
 10  7  1  0  0  0  0
 11 19  1  6  0  0  0
 12 18  1  0  0  0  0
 13  8  1  0  0  0  0
 13 14  1  0  0  0  0
 14 15  1  0  0  0  0
 14 17  1  0  0  0  0
 18  4  2  0  0  0  0
 20 12  2  0  0  0  0
 20  2  1  0  0  0  0
 21  1  1  0  0  0  0
 21 10  2  0  0  0  0
 22 23  1  0  0  0  0
 23 25  1  0  0  0  0
 24 25  1  0  0  0  0
 26  1  1  0  0  0  0
 27 26  1  0  0  0  0
 27 29  1  0  0  0  0
 28 29  2  0  0  0  0
 29 30  1  0  0  0  0
 30 31  1  0  0  0  0
 32 35  1  0  0  0  0
 33 36  1  6  0  0  0
 33 34  1  0  0  0  0
 34 32  1  6  0  0  0
 35 33  1  0  0  0  0
 35 34  1  0  0  0  0
 35 31  1  1  0  0  0
M  END
>  <MODEL>
8

>  <REMARK>
 VINA RESULT:      -6.3      2.286      5.958
  Name = 
  8 active torsions:
  status: ('A' for Active; 'I' for Inactive)
    1  A    between atoms: C_1  and  C_33
    2  A    between atoms: C_3  and  C_12
    3  A    between atoms: C_12  and  C_22
    4  A    between atoms: C_16  and  C_26
    5  A    between atoms: C_16  and  N_31
    6  A    between atoms: C_22  and  C_23
    7  A    between atoms: C_24  and  C_34
    8  A    between atoms: C_33  and  C_34
                            x       y       z     vdW  Elec       q    Type
                         _______ _______ _______ _____ _____    ______ ____

>  <TORSDO>
F 8

$$$$
=
 OpenBabel11042414003D

 36 41  0  0  1  0  0  0  0  0999 V2000
  190.7840  173.8150  144.1380 C   0  0  0  0  0  0  0  0  0  0  0  0
  194.1480  171.3530  145.0770 C   0  0  0  0  0  3  0  0  0  0  0  0
  189.4620  173.8530  140.6190 C   0  0  0  0  0  0  0  0  0  0  0  0
  195.6730  173.2350  145.0490 C   0  0  0  0  0  0  0  0  0  0  0  0
  196.0720  174.5470  144.7550 O   0  0  0  0  0  0  0  0  0  0  0  0
  194.4000  172.6900  144.7210 C   0  0  0  0  0  0  0  0  0  0  0  0
  193.5600  174.2690  142.8450 C   0  0  0  0  0  0  0  0  0  0  0  0
  188.8150  174.2290  142.2460 S   0  0  0  0  0  0  0  0  0  0  0  0
  195.3030  175.5210  144.0640 C   0  0  2  0  0  3  0  0  0  0  0  0
  193.2960  173.4310  144.0490 C   0  0  0  0  0  0  0  0  0  0  0  0
  194.8490  175.0030  142.7080 C   0  0  1  0  0  3  0  0  0  0  0  0
  196.3370  171.1590  146.0270 C   0  0  0  0  0  3  0  0  0  0  0  0
  190.4950  174.0020  142.8440 C   0  0  0  0  0  0  0  0  0  0  0  0
  191.4440  173.8190  141.8000 N   0  0  0  0  0  0  0  0  0  0  0  0
  192.7360  174.3600  141.8450 N   0  0  0  0  0  0  0  0  0  0  0  0
  196.1340  176.7740  143.8780 C   0  0  0  0  0  1  0  0  0  0  0  0
  190.7790  173.7120  140.5510 C   0  0  0  0  0  3  0  0  0  0  0  0
  196.5850  172.4490  145.6870 N   0  0  0  0  0  0  0  0  0  0  0  0
  195.8190  174.1930  142.1100 O   0  0  0  0  0  1  0  0  0  0  0  0
  195.1090  170.5860  145.7250 C   0  0  0  0  0  3  0  0  0  0  0  0
  192.0820  173.3030  144.5990 C   0  0  0  0  0  3  0  0  0  0  0  0
  188.5750  173.7130  139.4300 C   0  0  0  0  0  2  0  0  0  0  0  0
  188.6140  172.2920  138.9000 C   0  0  0  0  0  2  0  0  0  0  0  0
  189.2060  173.6230  136.9040 C   0  0  0  0  0  1  0  0  0  0  0  0
  189.3380  172.2700  137.5710 C   0  0  0  0  0  2  0  0  0  0  0  0
  189.7120  173.9040  145.1760 C   0  0  0  0  0  2  0  0  0  0  0  0
  189.4830  175.3530  145.5730 C   0  0  0  0  0  2  0  0  0  0  0  0
  188.7490  174.5370  147.6830 O   0  0  0  0  0  0  0  0  0  0  0  0
  188.6100  175.4050  146.7820 C   0  0  0  0  0  0  0  0  0  0  0  0
  187.5860  176.3940  146.9100 N   0  0  0  0  0  2  0  0  0  0  0  0
  187.4110  177.4540  145.9280 C   0  0  0  0  0  2  0  0  0  0  0  0
  185.0510  177.8570  146.7000 C   0  0  0  0  0  2  0  0  0  0  0  0
  185.7300  178.5240  144.3850 C   0  0  1  0  0  3  0  0  0  0  0  0
  185.5290  178.9840  145.8130 C   0  0  2  0  0  3  0  0  0  0  0  0
  185.9550  177.5510  145.5250 C   0  0  2  0  0  0  0  0  0  0  0  0
  184.4920  178.2750  143.7940 O   0  0  0  0  0  1  0  0  0  0  0  0
  1 21  1  0  0  0  0
  1 26  1  0  0  0  0
  2 20  1  0  0  0  0
  3  8  1  0  0  0  0
  4 18  2  0  0  0  0
  5  4  1  0  0  0  0
  6  4  1  0  0  0  0
  6  2  2  0  0  0  0
  7 10  1  0  0  0  0
  8 13  1  0  0  0  0
  9 16  1  6  0  0  0
  9  5  1  0  0  0  0
 10 21  2  0  0  0  0
 10  6  1  0  0  0  0
 11 19  1  1  0  0  0
 11  7  1  0  0  0  0
 11  9  1  0  0  0  0
 13  1  2  0  0  0  0
 14 15  1  0  0  0  0
 14 13  1  0  0  0  0
 15  7  2  0  0  0  0
 17  3  2  0  0  0  0
 17 14  1  0  0  0  0
 18 12  1  0  0  0  0
 20 12  2  0  0  0  0
 22  3  1  0  0  0  0
 23 22  1  0  0  0  0
 24 25  1  0  0  0  0
 25 23  1  0  0  0  0
 26 27  1  0  0  0  0
 27 29  1  0  0  0  0
 29 30  1  0  0  0  0
 29 28  2  0  0  0  0
 31 30  1  0  0  0  0
 33 36  1  6  0  0  0
 33 35  1  0  0  0  0
 33 34  1  0  0  0  0
 34 32  1  6  0  0  0
 35 34  1  0  0  0  0
 35 31  1  1  0  0  0
 35 32  1  0  0  0  0
M  END
>  <MODEL>
9

>  <REMARK>
 VINA RESULT:      -6.1      2.939      6.498
  Name = 
  8 active torsions:
  status: ('A' for Active; 'I' for Inactive)
    1  A    between atoms: C_1  and  C_33
    2  A    between atoms: C_3  and  C_12
    3  A    between atoms: C_12  and  C_22
    4  A    between atoms: C_16  and  C_26
    5  A    between atoms: C_16  and  N_31
    6  A    between atoms: C_22  and  C_23
    7  A    between atoms: C_24  and  C_34
    8  A    between atoms: C_33  and  C_34
                            x       y       z     vdW  Elec       q    Type
                         _______ _______ _______ _____ _____    ______ ____

>  <TORSDO>
F 8

$$$$
