=
 OpenBabel11042416463D

 37 40  0  0  1  0  0  0  0  0999 V2000
  192.4670  176.0310  143.7620 C   0  0  0  0  0  0  0  0  0  0  0  0
  191.5320  174.9710  143.6420 C   0  0  0  0  0  0  0  0  0  0  0  0
  190.6610  177.5530  144.3240 C   0  0  0  0  0  3  0  0  0  0  0  0
  192.0180  177.3090  144.1040 C   0  0  0  0  0  3  0  0  0  0  0  0
  190.1740  175.2320  143.8630 C   0  0  0  0  0  3  0  0  0  0  0  0
  189.7290  176.5190  144.1900 C   0  0  0  0  0  0  0  0  0  0  0  0
  188.7250  175.9040  147.0200 Cl  0  0  0  0  0  0  0  0  0  0  0  0
  187.7680  176.5440  145.6870 C   0  0  0  0  0  0  0  0  0  0  0  0
  186.4360  178.0680  143.3550 C   0  0  0  0  0  3  0  0  0  0  0  0
  185.8010  178.0370  145.7450 C   0  0  0  0  0  3  0  0  0  0  0  0
  186.2990  176.6440  145.9370 C   0  0  0  0  0  2  0  0  0  0  0  0
  185.8480  178.6630  144.5700 C   0  0  0  0  0  0  0  0  0  0  0  0
  187.4930  177.2460  143.3130 C   0  0  0  0  0  3  0  0  0  0  0  0
  188.3010  176.7750  144.4660 C   0  0  0  0  0  0  0  0  0  0  0  0
  185.0970  180.2380  144.4390 Cl  0  0  0  0  0  0  0  0  0  0  0  0
  195.0670  175.0670  144.8250 O   0  0  0  0  0  0  0  0  0  0  0  0
  195.3290  176.3900  144.8120 C   0  0  0  0  0  1  0  0  0  0  0  0
  194.2320  175.8270  143.5010 P   0  0  1  0  0  0  0  0  0  0  0  0
  194.8300  175.2110  139.5720 C   0  0  0  0  0  1  0  0  0  0  0  0
  194.9710  175.5120  141.9030 C   0  0  0  0  0  3  0  0  0  0  0  0
  194.2350  175.4580  140.8560 N   0  0  0  0  0  0  0  0  0  0  0  0
  191.8970  173.5510  143.3150 C   0  0  2  0  0  3  0  0  0  0  0  0
  190.2310  172.5240  141.3580 C   0  0  0  0  0  0  0  0  0  0  0  0
  190.2000  172.5880  139.7270 S   0  0  0  0  0  0  0  0  0  0  0  0
  189.6880  172.0610  142.5790 N   0  0  0  0  0  2  0  0  0  0  0  0
  190.8280  172.8870  142.5870 N   0  0  0  0  0  0  0  0  0  0  0  0
  192.3040  172.7560  144.5530 C   0  0  2  0  0  3  0  0  0  0  0  0
  193.5580  171.9740  144.3860 C   0  0  1  0  0  0  0  0  0  0  0  0
  192.2930  171.3740  144.2620 O   0  0  0  0  0  0  0  0  0  0  0  0
  195.4930  172.2320  143.0560 O   0  0  0  0  0  0  0  0  0  0  0  0
  194.3020  171.9730  143.0830 C   0  0  0  0  0  3  0  0  0  0  0  0
  194.2660  171.5600  145.6710 C   0  0  0  0  0  2  0  0  0  0  0  0
  194.5930  170.0710  145.6870 C   0  0  0  0  0  2  0  0  0  0  0  0
  196.0570  169.8280  146.0270 C   0  0  1  0  0  3  0  0  0  0  0  0
  196.7620  171.0930  146.1650 N   0  0  0  0  0  1  0  0  0  0  0  0
  194.9300  168.7550  147.8600 O   0  0  0  0  0  1  0  0  0  0  0  0
  196.1860  169.0140  147.3060 C   0  0  0  0  0  2  0  0  0  0  0  0
  1  4  1  0  0  0  0
  2  1  2  0  0  0  0
  2  5  1  0  0  0  0
  4  3  2  0  0  0  0
  5  6  2  0  0  0  0
  6  3  1  0  0  0  0
  6 14  1  0  0  0  0
  8 11  1  0  0  0  0
  8  7  1  0  0  0  0
  9 12  1  0  0  0  0
 10 11  1  0  0  0  0
 12 10  2  0  0  0  0
 13  9  2  0  0  0  0
 13 14  1  0  0  0  0
 14  8  2  0  0  0  0
 15 12  1  0  0  0  0
 17 16  1  0  0  0  0
 18 20  1  6  0  0  0
 18  1  1  0  0  0  0
 18 16  1  0  0  0  0
 19 21  1  0  0  0  0
 21 20  2  0  0  0  0
 22  2  1  1  0  0  0
 23 25  1  0  0  0  0
 23 26  1  0  0  0  0
 24 23  2  0  0  0  0
 25 26  1  0  0  0  0
 26 22  1  0  0  0  0
 27 22  1  6  0  0  0
 28 31  1  6  0  0  0
 28 27  1  0  0  0  0
 28 32  1  0  0  0  0
 29 28  1  0  0  0  0
 29 27  1  0  0  0  0
 30 31  2  0  0  0  0
 32 33  1  0  0  0  0
 33 34  1  0  0  0  0
 34 35  1  1  0  0  0
 34 37  1  0  0  0  0
 37 36  1  0  0  0  0
M  END
>  <MODEL>
1

>  <REMARK>
 VINA RESULT:      -6.3      0.000      0.000
  Name = 
  11 active torsions:
  status: ('A' for Active; 'I' for Inactive)
    1  A    between atoms: C_2  and  P_36
    2  A    between atoms: C_3  and  C_20
    3  A    between atoms: C_6  and  C_20
    4  A    between atoms: C_14  and  P_36
    5  A    between atoms: C_16  and  CA_24
    6  A    between atoms: C_16  and  C_25
    7  A    between atoms: C_20  and  N_28
    8  A    between atoms: CA_24  and  C_31
    9  A    between atoms: C_25  and  C_34
   10  A    between atoms: C_26  and  C_33
   11  A    between atoms: C_30  and  C_34
                            x       y       z     vdW  Elec       q    Type
                         _______ _______ _______ _____ _____    ______ ____

>  <TORSDO>
F 11

$$$$
=
 OpenBabel11042416463D

 37 40  0  0  1  0  0  0  0  0999 V2000
  192.5700  175.8190  143.4120 C   0  0  0  0  0  0  0  0  0  0  0  0
  191.6200  174.7680  143.4720 C   0  0  0  0  0  0  0  0  0  0  0  0
  190.8390  177.4110  144.0120 C   0  0  0  0  0  3  0  0  0  0  0  0
  192.1660  177.1290  143.6860 C   0  0  0  0  0  3  0  0  0  0  0  0
  190.2920  175.0680  143.7990 C   0  0  0  0  0  3  0  0  0  0  0  0
  189.8900  176.3850  144.0570 C   0  0  0  0  0  0  0  0  0  0  0  0
  189.1950  176.1650  147.0330 Cl  0  0  0  0  0  0  0  0  0  0  0  0
  188.0980  176.6250  145.7350 C   0  0  0  0  0  0  0  0  0  0  0  0
  186.5160  177.8300  143.3720 C   0  0  0  0  0  3  0  0  0  0  0  0
  186.1370  178.1260  145.7970 C   0  0  0  0  0  3  0  0  0  0  0  0
  186.6620  176.7680  146.1230 C   0  0  0  0  0  2  0  0  0  0  0  0
  186.0550  178.5870  144.5500 C   0  0  0  0  0  0  0  0  0  0  0  0
  187.5690  177.0020  143.3300 C   0  0  0  0  0  3  0  0  0  0  0  0
  188.4980  176.6850  144.4440 C   0  0  0  0  0  0  0  0  0  0  0  0
  185.2830  180.1360  144.2870 Cl  0  0  0  0  0  0  0  0  0  0  0  0
  194.8180  176.3750  141.5520 O   0  0  0  0  0  0  0  0  0  0  0  0
  194.6820  175.0530  141.3200 C   0  0  0  0  0  1  0  0  0  0  0  0
  194.3010  175.5660  143.0020 P   0  0  1  0  0  0  0  0  0  0  0  0
  197.2750  174.1140  145.2860 C   0  0  0  0  0  1  0  0  0  0  0  0
  195.5930  175.3720  144.2230 C   0  0  0  0  0  3  0  0  0  0  0  0
  196.2330  174.2660  144.3090 N   0  0  0  0  0  0  0  0  0  0  0  0
  191.9400  173.3200  143.2340 C   0  0  2  0  0  3  0  0  0  0  0  0
  190.2080  172.0770  141.4690 C   0  0  0  0  0  0  0  0  0  0  0  0
  190.2080  171.8070  139.8590 S   0  0  0  0  0  0  0  0  0  0  0  0
  189.6020  171.9310  142.7390 N   0  0  0  0  0  2  0  0  0  0  0  0
  190.8200  172.6270  142.6190 N   0  0  0  0  0  0  0  0  0  0  0  0
  192.4040  172.6100  144.5040 C   0  0  2  0  0  3  0  0  0  0  0  0
  193.5890  171.7340  144.3100 C   0  0  1  0  0  0  0  0  0  0  0  0
  192.2840  171.2120  144.3440 O   0  0  0  0  0  0  0  0  0  0  0  0
  195.4290  171.4820  142.8500 O   0  0  0  0  0  0  0  0  0  0  0  0
  194.2180  171.5670  142.9580 C   0  0  0  0  0  3  0  0  0  0  0  0
  194.3780  171.3860  145.5680 C   0  0  0  0  0  2  0  0  0  0  0  0
  194.4900  169.8800  145.7730 C   0  0  0  0  0  2  0  0  0  0  0  0
  195.9220  169.4670  146.0870 C   0  0  1  0  0  3  0  0  0  0  0  0
  196.7880  170.6350  146.1290 N   0  0  0  0  0  1  0  0  0  0  0  0
  194.7180  168.5960  147.9770 O   0  0  0  0  0  1  0  0  0  0  0  0
  195.9880  168.7180  147.4100 C   0  0  0  0  0  2  0  0  0  0  0  0
  1  2  2  0  0  0  0
  1  4  1  0  0  0  0
  2  5  1  0  0  0  0
  3  6  1  0  0  0  0
  4  3  2  0  0  0  0
  5  6  2  0  0  0  0
  6 14  1  0  0  0  0
  8 11  1  0  0  0  0
  8  7  1  0  0  0  0
  9 12  1  0  0  0  0
 10 11  1  0  0  0  0
 12 10  2  0  0  0  0
 13  9  2  0  0  0  0
 13 14  1  0  0  0  0
 14  8  2  0  0  0  0
 15 12  1  0  0  0  0
 16 18  1  0  0  0  0
 17 16  1  0  0  0  0
 18  1  1  0  0  0  0
 18 20  1  1  0  0  0
 20 21  2  0  0  0  0
 21 19  1  0  0  0  0
 22  2  1  1  0  0  0
 23 26  1  0  0  0  0
 23 25  1  0  0  0  0
 24 23  2  0  0  0  0
 26 25  1  0  0  0  0
 26 22  1  0  0  0  0
 27 22  1  6  0  0  0
 28 31  1  6  0  0  0
 28 29  1  0  0  0  0
 28 27  1  0  0  0  0
 28 32  1  0  0  0  0
 29 27  1  0  0  0  0
 30 31  2  0  0  0  0
 32 33  1  0  0  0  0
 33 34  1  0  0  0  0
 34 35  1  1  0  0  0
 34 37  1  0  0  0  0
 37 36  1  0  0  0  0
M  END
>  <MODEL>
2

>  <REMARK>
 VINA RESULT:      -6.3      1.069      1.599
  Name = 
  11 active torsions:
  status: ('A' for Active; 'I' for Inactive)
    1  A    between atoms: C_2  and  P_36
    2  A    between atoms: C_3  and  C_20
    3  A    between atoms: C_6  and  C_20
    4  A    between atoms: C_14  and  P_36
    5  A    between atoms: C_16  and  CA_24
    6  A    between atoms: C_16  and  C_25
    7  A    between atoms: C_20  and  N_28
    8  A    between atoms: CA_24  and  C_31
    9  A    between atoms: C_25  and  C_34
   10  A    between atoms: C_26  and  C_33
   11  A    between atoms: C_30  and  C_34
                            x       y       z     vdW  Elec       q    Type
                         _______ _______ _______ _____ _____    ______ ____

>  <TORSDO>
F 11

$$$$
=
 OpenBabel11042416463D

 37 40  0  0  1  0  0  0  0  0999 V2000
  189.8900  174.1050  142.4750 C   0  0  0  0  0  0  0  0  0  0  0  0
  190.4650  175.1450  143.2500 C   0  0  0  0  0  0  0  0  0  0  0  0
  187.7520  175.2540  142.5320 C   0  0  0  0  0  3  0  0  0  0  0  0
  188.5390  174.1760  142.1240 C   0  0  0  0  0  3  0  0  0  0  0  0
  189.6620  176.2180  143.6520 C   0  0  0  0  0  3  0  0  0  0  0  0
  188.3050  176.2750  143.3110 C   0  0  0  0  0  0  0  0  0  0  0  0
  186.9700  177.8580  141.0520 Cl  0  0  0  0  0  0  0  0  0  0  0  0
  186.8400  178.1870  142.7770 C   0  0  0  0  0  0  0  0  0  0  0  0
  186.4120  178.2720  145.8340 C   0  0  0  0  0  3  0  0  0  0  0  0
  184.9750  179.1930  144.0460 C   0  0  0  0  0  3  0  0  0  0  0  0
  186.1340  179.4510  143.1420 C   0  0  0  0  0  2  0  0  0  0  0  0
  185.1140  178.6800  145.2670 C   0  0  0  0  0  0  0  0  0  0  0  0
  187.4360  177.7400  145.1540 C   0  0  0  0  0  3  0  0  0  0  0  0
  187.4780  177.4330  143.7020 C   0  0  0  0  0  0  0  0  0  0  0  0
  183.6940  178.5650  146.2840 Cl  0  0  0  0  0  0  0  0  0  0  0  0
  190.1210  171.1460  142.3630 O   0  0  0  0  0  0  0  0  0  0  0  0
  191.2090  171.4080  143.1150 C   0  0  0  0  0  1  0  0  0  0  0  0
  190.8120  172.6740  141.9000 P   0  0  1  0  0  0  0  0  0  0  0  0
  192.7980  173.6760  138.5500 C   0  0  0  0  0  1  0  0  0  0  0  0
  191.7070  172.6250  140.3530 C   0  0  0  0  0  3  0  0  0  0  0  0
  192.0740  173.7160  139.7900 N   0  0  0  0  0  0  0  0  0  0  0  0
  191.9100  175.1990  143.6580 C   0  0  2  0  0  3  0  0  0  0  0  0
  191.5330  175.6060  146.3700 C   0  0  0  0  0  0  0  0  0  0  0  0
  190.3290  175.2810  147.4220 S   0  0  0  0  0  0  0  0  0  0  0  0
  192.8260  176.1110  146.1010 N   0  0  0  0  0  2  0  0  0  0  0  0
  192.0490  175.5820  145.0530 N   0  0  0  0  0  0  0  0  0  0  0  0
  192.7380  176.1020  142.7480 C   0  0  2  0  0  3  0  0  0  0  0  0
  194.0070  175.4880  142.2750 C   0  0  1  0  0  0  0  0  0  0  0  0
  193.9810  176.3870  143.3550 O   0  0  0  0  0  0  0  0  0  0  0  0
  194.7870  173.2910  141.8890 O   0  0  0  0  0  0  0  0  0  0  0  0
  194.4100  174.1090  142.7110 C   0  0  0  0  0  3  0  0  0  0  0  0
  194.6280  176.1070  141.0280 C   0  0  0  0  0  2  0  0  0  0  0  0
  196.0540  176.5830  141.2770 C   0  0  0  0  0  2  0  0  0  0  0  0
  197.0480  175.8460  140.3900 C   0  0  1  0  0  3  0  0  0  0  0  0
  197.8010  174.8750  141.1690 N   0  0  0  0  0  1  0  0  0  0  0  0
  196.6870  173.8030  139.1730 O   0  0  0  0  0  1  0  0  0  0  0  0
  196.3320  175.1530  139.2400 C   0  0  0  0  0  2  0  0  0  0  0  0
  1  2  1  0  0  0  0
  2  5  2  0  0  0  0
  3  6  2  0  0  0  0
  4  1  2  0  0  0  0
  4  3  1  0  0  0  0
  6  5  1  0  0  0  0
  6 14  1  0  0  0  0
  7  8  1  0  0  0  0
  8 11  1  0  0  0  0
  8 14  2  0  0  0  0
 10 12  2  0  0  0  0
 11 10  1  0  0  0  0
 12  9  1  0  0  0  0
 12 15  1  0  0  0  0
 13  9  2  0  0  0  0
 14 13  1  0  0  0  0
 16 17  1  0  0  0  0
 18 20  1  6  0  0  0
 18 16  1  0  0  0  0
 18  1  1  0  0  0  0
 19 21  1  0  0  0  0
 21 20  2  0  0  0  0
 22  2  1  6  0  0  0
 22 26  1  0  0  0  0
 23 24  2  0  0  0  0
 25 23  1  0  0  0  0
 26 25  1  0  0  0  0
 26 23  1  0  0  0  0
 27 29  1  0  0  0  0
 27 22  1  1  0  0  0
 28 32  1  6  0  0  0
 28 31  1  0  0  0  0
 28 27  1  0  0  0  0
 28 29  1  0  0  0  0
 30 31  2  0  0  0  0
 32 33  1  0  0  0  0
 34 35  1  1  0  0  0
 34 33  1  0  0  0  0
 36 37  1  0  0  0  0
 37 34  1  0  0  0  0
M  END
>  <MODEL>
3

>  <REMARK>
 VINA RESULT:      -6.2      3.481      5.090
  Name = 
  11 active torsions:
  status: ('A' for Active; 'I' for Inactive)
    1  A    between atoms: C_2  and  P_36
    2  A    between atoms: C_3  and  C_20
    3  A    between atoms: C_6  and  C_20
    4  A    between atoms: C_14  and  P_36
    5  A    between atoms: C_16  and  CA_24
    6  A    between atoms: C_16  and  C_25
    7  A    between atoms: C_20  and  N_28
    8  A    between atoms: CA_24  and  C_31
    9  A    between atoms: C_25  and  C_34
   10  A    between atoms: C_26  and  C_33
   11  A    between atoms: C_30  and  C_34
                            x       y       z     vdW  Elec       q    Type
                         _______ _______ _______ _____ _____    ______ ____

>  <TORSDO>
F 11

$$$$
=
 OpenBabel11042416463D

 37 40  0  0  1  0  0  0  0  0999 V2000
  191.6680  176.3500  144.0080 C   0  0  0  0  0  0  0  0  0  0  0  0
  190.4450  175.7150  144.3460 C   0  0  0  0  0  0  0  0  0  0  0  0
  190.4750  177.8280  142.4970 C   0  0  0  0  0  3  0  0  0  0  0  0
  191.6650  177.4020  143.0880 C   0  0  0  0  0  3  0  0  0  0  0  0
  189.2600  176.1530  143.7430 C   0  0  0  0  0  3  0  0  0  0  0  0
  189.2670  177.1980  142.8090 C   0  0  0  0  0  0  0  0  0  0  0  0
  188.1020  175.5590  140.4960 Cl  0  0  0  0  0  0  0  0  0  0  0  0
  187.4110  177.0210  141.1940 C   0  0  0  0  0  0  0  0  0  0  0  0
  186.1880  179.3080  142.8700 C   0  0  0  0  0  3  0  0  0  0  0  0
  185.0440  177.7050  141.3750 C   0  0  0  0  0  3  0  0  0  0  0  0
  186.2280  177.5830  140.4750 C   0  0  0  0  0  2  0  0  0  0  0  0
  185.0290  178.5030  142.4420 C   0  0  0  0  0  0  0  0  0  0  0  0
  187.4760  178.9540  142.7630 C   0  0  0  0  0  3  0  0  0  0  0  0
  188.0070  177.6820  142.2120 C   0  0  0  0  0  0  0  0  0  0  0  0
  183.5310  178.6720  143.3310 Cl  0  0  0  0  0  0  0  0  0  0  0  0
  193.5630  176.5480  146.2860 O   0  0  0  0  0  0  0  0  0  0  0  0
  194.2910  177.2000  145.3560 C   0  0  0  0  0  1  0  0  0  0  0  0
  193.2530  175.8800  144.7100 P   0  0  1  0  0  0  0  0  0  0  0  0
  194.7720  172.1840  145.1600 C   0  0  0  0  0  1  0  0  0  0  0  0
  194.0350  174.2960  144.4270 C   0  0  0  0  0  3  0  0  0  0  0  0
  194.1500  173.4580  145.3900 N   0  0  0  0  0  0  0  0  0  0  0  0
  190.3150  174.6010  145.3460 C   0  0  2  0  0  3  0  0  0  0  0  0
  190.1340  172.4310  143.6360 C   0  0  0  0  0  0  0  0  0  0  0  0
  189.3220  172.1240  142.2550 S   0  0  0  0  0  0  0  0  0  0  0  0
  191.0450  172.0290  144.6410 N   0  0  0  0  0  2  0  0  0  0  0  0
  190.4460  173.3030  144.7060 N   0  0  0  0  0  0  0  0  0  0  0  0
  189.0260  174.6940  146.1570 C   0  0  2  0  0  3  0  0  0  0  0  0
  188.9930  175.8290  147.1170 C   0  0  1  0  0  0  0  0  0  0  0  0
  189.3080  174.5230  147.5300 O   0  0  0  0  0  0  0  0  0  0  0  0
  190.9260  176.6390  148.2090 O   0  0  0  0  0  0  0  0  0  0  0  0
  190.1660  176.7550  147.2630 C   0  0  0  0  0  3  0  0  0  0  0  0
  187.6120  176.2650  147.5940 C   0  0  0  0  0  2  0  0  0  0  0  0
  187.3320  177.7280  147.2680 C   0  0  0  0  0  2  0  0  0  0  0  0
  186.2430  177.8630  146.2130 C   0  0  1  0  0  3  0  0  0  0  0  0
  185.4620  176.6380  146.1310 N   0  0  0  0  0  1  0  0  0  0  0  0
  185.8050  179.7550  147.6300 O   0  0  0  0  0  1  0  0  0  0  0  0
  185.3340  179.0430  146.5240 C   0  0  0  0  0  2  0  0  0  0  0  0
  1  2  1  0  0  0  0
  1 18  1  0  0  0  0
  3  6  2  0  0  0  0
  3  4  1  0  0  0  0
  4  1  2  0  0  0  0
  5  2  2  0  0  0  0
  6  5  1  0  0  0  0
  7  8  1  0  0  0  0
  8 14  2  0  0  0  0
 10 12  2  0  0  0  0
 11  8  1  0  0  0  0
 11 10  1  0  0  0  0
 12  9  1  0  0  0  0
 12 15  1  0  0  0  0
 13  9  2  0  0  0  0
 14 13  1  0  0  0  0
 14  6  1  0  0  0  0
 17 16  1  0  0  0  0
 18 20  1  1  0  0  0
 18 16  1  0  0  0  0
 19 21  1  0  0  0  0
 20 21  2  0  0  0  0
 22  2  1  6  0  0  0
 23 25  1  0  0  0  0
 23 26  1  0  0  0  0
 24 23  2  0  0  0  0
 25 26  1  0  0  0  0
 26 22  1  0  0  0  0
 27 22  1  6  0  0  0
 27 28  1  0  0  0  0
 27 29  1  0  0  0  0
 28 31  1  6  0  0  0
 28 29  1  0  0  0  0
 28 32  1  0  0  0  0
 31 30  2  0  0  0  0
 33 32  1  0  0  0  0
 34 35  1  1  0  0  0
 34 37  1  0  0  0  0
 34 33  1  0  0  0  0
 37 36  1  0  0  0  0
M  END
>  <MODEL>
4

>  <REMARK>
 VINA RESULT:      -6.2      3.271      6.162
  Name = 
  11 active torsions:
  status: ('A' for Active; 'I' for Inactive)
    1  A    between atoms: C_2  and  P_36
    2  A    between atoms: C_3  and  C_20
    3  A    between atoms: C_6  and  C_20
    4  A    between atoms: C_14  and  P_36
    5  A    between atoms: C_16  and  CA_24
    6  A    between atoms: C_16  and  C_25
    7  A    between atoms: C_20  and  N_28
    8  A    between atoms: CA_24  and  C_31
    9  A    between atoms: C_25  and  C_34
   10  A    between atoms: C_26  and  C_33
   11  A    between atoms: C_30  and  C_34
                            x       y       z     vdW  Elec       q    Type
                         _______ _______ _______ _____ _____    ______ ____

>  <TORSDO>
F 11

$$$$
=
 OpenBabel11042416463D

 37 40  0  0  1  0  0  0  0  0999 V2000
  189.8460  174.1040  142.4440 C   0  0  0  0  0  0  0  0  0  0  0  0
  190.4250  175.1420  143.2190 C   0  0  0  0  0  0  0  0  0  0  0  0
  187.7090  175.2540  142.5110 C   0  0  0  0  0  3  0  0  0  0  0  0
  188.4940  174.1760  142.0980 C   0  0  0  0  0  3  0  0  0  0  0  0
  189.6240  176.2150  143.6280 C   0  0  0  0  0  3  0  0  0  0  0  0
  188.2650  176.2730  143.2910 C   0  0  0  0  0  0  0  0  0  0  0  0
  186.9130  177.8550  141.0410 Cl  0  0  0  0  0  0  0  0  0  0  0  0
  186.7950  178.1840  142.7680 C   0  0  0  0  0  0  0  0  0  0  0  0
  186.3890  178.2680  145.8280 C   0  0  0  0  0  3  0  0  0  0  0  0
  184.9380  179.1880  144.0500 C   0  0  0  0  0  3  0  0  0  0  0  0
  186.0900  179.4470  143.1380 C   0  0  0  0  0  2  0  0  0  0  0  0
  185.0860  178.6760  145.2710 C   0  0  0  0  0  0  0  0  0  0  0  0
  187.4080  177.7370  145.1400 C   0  0  0  0  0  3  0  0  0  0  0  0
  187.4390  177.4300  143.6880 C   0  0  0  0  0  0  0  0  0  0  0  0
  183.6740  178.5590  146.2980 Cl  0  0  0  0  0  0  0  0  0  0  0  0
  190.0120  171.1470  142.2190 O   0  0  0  0  0  0  0  0  0  0  0  0
  191.0610  171.3500  143.0420 C   0  0  0  0  0  1  0  0  0  0  0  0
  190.7650  172.6750  141.8620 P   0  0  1  0  0  0  0  0  0  0  0  0
  192.5150  173.6690  138.3810 C   0  0  0  0  0  1  0  0  0  0  0  0
  191.7470  172.6660  140.3670 C   0  0  0  0  0  3  0  0  0  0  0  0
  191.7210  173.6740  139.5770 N   0  0  0  0  0  0  0  0  0  0  0  0
  191.8710  175.1940  143.6220 C   0  0  2  0  0  3  0  0  0  0  0  0
  191.6580  175.8330  146.3080 C   0  0  0  0  0  0  0  0  0  0  0  0
  190.7100  175.3280  147.5360 S   0  0  0  0  0  0  0  0  0  0  0  0
  192.7170  176.6370  145.8240 N   0  0  0  0  0  2  0  0  0  0  0  0
  192.0280  175.7800  144.9430 N   0  0  0  0  0  0  0  0  0  0  0  0
  192.7370  175.9100  142.5890 C   0  0  2  0  0  3  0  0  0  0  0  0
  193.9610  175.1610  142.2000 C   0  0  1  0  0  0  0  0  0  0  0  0
  194.0030  176.2020  143.1430 O   0  0  0  0  0  0  0  0  0  0  0  0
  194.7620  172.9380  142.1450 O   0  0  0  0  0  0  0  0  0  0  0  0
  194.2890  173.8350  142.8220 C   0  0  0  0  0  3  0  0  0  0  0  0
  194.5980  175.5610  140.8740 C   0  0  0  0  0  2  0  0  0  0  0  0
  195.8720  176.3740  141.0760 C   0  0  0  0  0  2  0  0  0  0  0  0
  197.0950  175.4720  141.1810 C   0  0  1  0  0  3  0  0  0  0  0  0
  197.8990  175.5660  139.9730 N   0  0  0  0  0  1  0  0  0  0  0  0
  197.2880  175.4590  143.5780 O   0  0  0  0  0  1  0  0  0  0  0  0
  197.9320  175.8390  142.3980 C   0  0  0  0  0  2  0  0  0  0  0  0
  1  2  1  0  0  0  0
  2  5  2  0  0  0  0
  3  6  2  0  0  0  0
  4  1  2  0  0  0  0
  4  3  1  0  0  0  0
  6  5  1  0  0  0  0
  6 14  1  0  0  0  0
  7  8  1  0  0  0  0
  8 11  1  0  0  0  0
  8 14  2  0  0  0  0
 10 12  2  0  0  0  0
 11 10  1  0  0  0  0
 12  9  1  0  0  0  0
 12 15  1  0  0  0  0
 13  9  2  0  0  0  0
 14 13  1  0  0  0  0
 16 17  1  0  0  0  0
 18 20  1  6  0  0  0
 18 16  1  0  0  0  0
 18  1  1  0  0  0  0
 19 21  1  0  0  0  0
 21 20  2  0  0  0  0
 22  2  1  6  0  0  0
 22 26  1  0  0  0  0
 23 24  2  0  0  0  0
 25 23  1  0  0  0  0
 26 25  1  0  0  0  0
 26 23  1  0  0  0  0
 27 29  1  0  0  0  0
 27 22  1  1  0  0  0
 28 32  1  6  0  0  0
 28 27  1  0  0  0  0
 28 31  1  0  0  0  0
 28 29  1  0  0  0  0
 30 31  2  0  0  0  0
 32 33  1  0  0  0  0
 33 34  1  0  0  0  0
 34 35  1  6  0  0  0
 34 37  1  0  0  0  0
 37 36  1  0  0  0  0
M  END
>  <MODEL>
5

>  <REMARK>
 VINA RESULT:      -6.2      3.484      4.948
  Name = 
  11 active torsions:
  status: ('A' for Active; 'I' for Inactive)
    1  A    between atoms: C_2  and  P_36
    2  A    between atoms: C_3  and  C_20
    3  A    between atoms: C_6  and  C_20
    4  A    between atoms: C_14  and  P_36
    5  A    between atoms: C_16  and  CA_24
    6  A    between atoms: C_16  and  C_25
    7  A    between atoms: C_20  and  N_28
    8  A    between atoms: CA_24  and  C_31
    9  A    between atoms: C_25  and  C_34
   10  A    between atoms: C_26  and  C_33
   11  A    between atoms: C_30  and  C_34
                            x       y       z     vdW  Elec       q    Type
                         _______ _______ _______ _____ _____    ______ ____

>  <TORSDO>
F 11

$$$$
=
 OpenBabel11042416463D

 37 40  0  0  1  0  0  0  0  0999 V2000
  189.8000  176.7450  143.5880 C   0  0  0  0  0  0  0  0  0  0  0  0
  190.3870  175.5200  143.9970 C   0  0  0  0  0  0  0  0  0  0  0  0
  191.9520  177.4870  142.7450 C   0  0  0  0  0  3  0  0  0  0  0  0
  190.5920  177.7130  142.9640 C   0  0  0  0  0  3  0  0  0  0  0  0
  191.7520  175.3100  143.7710 C   0  0  0  0  0  3  0  0  0  0  0  0
  192.5440  176.2910  143.1600 C   0  0  0  0  0  0  0  0  0  0  0  0
  194.5300  176.9920  145.3860 Cl  0  0  0  0  0  0  0  0  0  0  0  0
  194.9240  176.3100  143.8100 C   0  0  0  0  0  0  0  0  0  0  0  0
  195.2980  174.7120  141.1940 C   0  0  0  0  0  3  0  0  0  0  0  0
  196.7830  174.8160  143.1680 C   0  0  0  0  0  3  0  0  0  0  0  0
  196.3800  176.2160  143.4930 C   0  0  0  0  0  2  0  0  0  0  0  0
  196.3050  174.1540  142.1150 C   0  0  0  0  0  0  0  0  0  0  0  0
  194.2940  175.5340  141.5280 C   0  0  0  0  0  3  0  0  0  0  0  0
  193.9730  176.0420  142.8860 C   0  0  0  0  0  0  0  0  0  0  0  0
  196.9680  172.5750  141.7580 Cl  0  0  0  0  0  0  0  0  0  0  0  0
  186.9790  176.1910  142.8440 O   0  0  0  0  0  0  0  0  0  0  0  0
  187.0810  177.4400  142.3460 C   0  0  0  0  0  1  0  0  0  0  0  0
  188.0630  177.1370  143.8230 P   0  0  1  0  0  0  0  0  0  0  0  0
  186.2620  177.2110  147.4170 C   0  0  0  0  0  1  0  0  0  0  0  0
  187.3630  177.6560  145.3840 C   0  0  0  0  0  3  0  0  0  0  0  0
  186.8190  176.7940  146.1600 N   0  0  0  0  0  0  0  0  0  0  0  0
  189.6330  174.3930  144.6430 C   0  0  2  0  0  3  0  0  0  0  0  0
  190.1120  175.1230  147.2700 C   0  0  0  0  0  0  0  0  0  0  0  0
  191.2310  176.0450  148.0190 S   0  0  0  0  0  0  0  0  0  0  0  0
  188.9500  174.3180  147.3200 N   0  0  0  0  0  2  0  0  0  0  0  0
  189.5900  174.5480  146.0870 N   0  0  0  0  0  0  0  0  0  0  0  0
  190.1810  173.0240  144.2460 C   0  0  2  0  0  3  0  0  0  0  0  0
  189.5190  172.4270  143.0570 C   0  0  1  0  0  0  0  0  0  0  0  0
  189.1670  172.0480  144.3640 O   0  0  0  0  0  0  0  0  0  0  0  0
  187.3670  172.5300  142.0850 O   0  0  0  0  0  0  0  0  0  0  0  0
  188.3910  173.1320  142.3620 C   0  0  0  0  0  3  0  0  0  0  0  0
  190.2990  171.3350  142.3330 C   0  0  0  0  0  2  0  0  0  0  0  0
  190.6690  171.7450  140.9120 C   0  0  0  0  0  2  0  0  0  0  0  0
  191.9120  172.6250  140.8950 C   0  0  1  0  0  3  0  0  0  0  0  0
  192.8960  172.1300  141.8440 N   0  0  0  0  0  1  0  0  0  0  0  0
  192.0780  171.6010  138.7260 O   0  0  0  0  0  1  0  0  0  0  0  0
  192.5120  172.6810  139.4980 C   0  0  0  0  0  2  0  0  0  0  0  0
  1 18  1  0  0  0  0
  1  2  1  0  0  0  0
  3  4  1  0  0  0  0
  3  6  2  0  0  0  0
  4  1  2  0  0  0  0
  5  2  2  0  0  0  0
  6  5  1  0  0  0  0
  8  7  1  0  0  0  0
  9 13  2  0  0  0  0
  9 12  1  0  0  0  0
 10 11  1  0  0  0  0
 11  8  1  0  0  0  0
 12 10  2  0  0  0  0
 13 14  1  0  0  0  0
 14  6  1  0  0  0  0
 14  8  2  0  0  0  0
 15 12  1  0  0  0  0
 16 18  1  0  0  0  0
 17 16  1  0  0  0  0
 18 20  1  1  0  0  0
 20 21  2  0  0  0  0
 21 19  1  0  0  0  0
 22  2  1  6  0  0  0
 22 26  1  0  0  0  0
 23 25  1  0  0  0  0
 23 24  2  0  0  0  0
 26 23  1  0  0  0  0
 26 25  1  0  0  0  0
 27 29  1  0  0  0  0
 27 22  1  1  0  0  0
 28 32  1  6  0  0  0
 28 27  1  0  0  0  0
 28 29  1  0  0  0  0
 30 31  2  0  0  0  0
 31 28  1  0  0  0  0
 33 32  1  0  0  0  0
 34 33  1  0  0  0  0
 34 35  1  1  0  0  0
 36 37  1  0  0  0  0
 37 34  1  0  0  0  0
M  END
>  <MODEL>
6

>  <REMARK>
 VINA RESULT:      -6.1      4.220      7.406
  Name = 
  11 active torsions:
  status: ('A' for Active; 'I' for Inactive)
    1  A    between atoms: C_2  and  P_36
    2  A    between atoms: C_3  and  C_20
    3  A    between atoms: C_6  and  C_20
    4  A    between atoms: C_14  and  P_36
    5  A    between atoms: C_16  and  CA_24
    6  A    between atoms: C_16  and  C_25
    7  A    between atoms: C_20  and  N_28
    8  A    between atoms: CA_24  and  C_31
    9  A    between atoms: C_25  and  C_34
   10  A    between atoms: C_26  and  C_33
   11  A    between atoms: C_30  and  C_34
                            x       y       z     vdW  Elec       q    Type
                         _______ _______ _______ _____ _____    ______ ____

>  <TORSDO>
F 11

$$$$
=
 OpenBabel11042416463D

 37 40  0  0  1  0  0  0  0  0999 V2000
  189.5450  174.1320  141.9240 C   0  0  0  0  0  0  0  0  0  0  0  0
  190.2030  174.9750  142.8570 C   0  0  0  0  0  0  0  0  0  0  0  0
  187.4980  175.3990  142.2320 C   0  0  0  0  0  3  0  0  0  0  0  0
  188.2000  174.3580  141.6220 C   0  0  0  0  0  3  0  0  0  0  0  0
  189.4840  176.0130  143.4620 C   0  0  0  0  0  3  0  0  0  0  0  0
  188.1310  176.2240  143.1670 C   0  0  0  0  0  0  0  0  0  0  0  0
  186.5120  178.0130  141.2770 Cl  0  0  0  0  0  0  0  0  0  0  0  0
  186.6440  178.1870  143.0250 C   0  0  0  0  0  0  0  0  0  0  0  0
  186.6710  178.0020  146.1070 C   0  0  0  0  0  3  0  0  0  0  0  0
  185.0060  179.0900  144.6380 C   0  0  0  0  0  3  0  0  0  0  0  0
  186.0250  179.4190  143.5990 C   0  0  0  0  0  2  0  0  0  0  0  0
  185.3120  178.4690  145.7770 C   0  0  0  0  0  0  0  0  0  0  0  0
  187.5730  177.5250  145.2390 C   0  0  0  0  0  3  0  0  0  0  0  0
  187.3940  177.3490  143.7750 C   0  0  0  0  0  0  0  0  0  0  0  0
  184.0560  178.2740  146.9790 Cl  0  0  0  0  0  0  0  0  0  0  0  0
  191.7340  173.2300  140.1300 O   0  0  0  0  0  0  0  0  0  0  0  0
  190.6850  172.9620  139.3260 C   0  0  0  0  0  1  0  0  0  0  0  0
  190.3540  172.7660  141.0840 P   0  0  1  0  0  0  0  0  0  0  0  0
  191.0420  168.8360  141.5810 C   0  0  0  0  0  1  0  0  0  0  0  0
  190.4590  171.1100  141.7510 C   0  0  0  0  0  3  0  0  0  0  0  0
  190.9520  170.1640  141.0420 N   0  0  0  0  0  0  0  0  0  0  0  0
  191.6510  174.8540  143.2350 C   0  0  2  0  0  3  0  0  0  0  0  0
  191.5320  175.3410  145.9570 C   0  0  0  0  0  0  0  0  0  0  0  0
  190.8310  176.4830  146.8890 S   0  0  0  0  0  0  0  0  0  0  0  0
  192.2940  174.1560  145.8320 N   0  0  0  0  0  2  0  0  0  0  0  0
  191.8170  174.8090  144.6790 N   0  0  0  0  0  0  0  0  0  0  0  0
  192.5090  175.9520  142.6110 C   0  0  2  0  0  3  0  0  0  0  0  0
  193.8560  175.4970  142.1790 C   0  0  1  0  0  0  0  0  0  0  0  0
  193.6620  176.1680  143.3980 O   0  0  0  0  0  0  0  0  0  0  0  0
  195.1500  173.8200  143.2260 O   0  0  0  0  0  0  0  0  0  0  0  0
  194.3010  174.0790  142.3900 C   0  0  0  0  0  3  0  0  0  0  0  0
  194.5610  176.3730  141.1490 C   0  0  0  0  0  2  0  0  0  0  0  0
  195.9820  176.7250  141.5760 C   0  0  0  0  0  2  0  0  0  0  0  0
  197.0130  176.0460  140.6850 C   0  0  1  0  0  3  0  0  0  0  0  0
  197.8340  175.1330  141.4650 N   0  0  0  0  0  1  0  0  0  0  0  0
  197.1480  175.2700  138.4130 O   0  0  0  0  0  1  0  0  0  0  0  0
  196.3340  175.2980  139.5470 C   0  0  0  0  0  2  0  0  0  0  0  0
  1  2  1  0  0  0  0
  2  5  2  0  0  0  0
  3  6  2  0  0  0  0
  4  1  2  0  0  0  0
  4  3  1  0  0  0  0
  6  5  1  0  0  0  0
  6 14  1  0  0  0  0
  7  8  1  0  0  0  0
  8 11  1  0  0  0  0
  8 14  2  0  0  0  0
 10 12  2  0  0  0  0
 11 10  1  0  0  0  0
 12  9  1  0  0  0  0
 12 15  1  0  0  0  0
 13  9  2  0  0  0  0
 14 13  1  0  0  0  0
 16 18  1  0  0  0  0
 17 16  1  0  0  0  0
 18 20  1  1  0  0  0
 18  1  1  0  0  0  0
 21 19  1  0  0  0  0
 21 20  2  0  0  0  0
 22  2  1  1  0  0  0
 22 26  1  0  0  0  0
 23 24  2  0  0  0  0
 25 23  1  0  0  0  0
 26 25  1  0  0  0  0
 26 23  1  0  0  0  0
 27 22  1  1  0  0  0
 27 29  1  0  0  0  0
 28 32  1  6  0  0  0
 28 31  1  0  0  0  0
 28 27  1  0  0  0  0
 28 29  1  0  0  0  0
 31 30  2  0  0  0  0
 32 33  1  0  0  0  0
 34 35  1  1  0  0  0
 34 33  1  0  0  0  0
 36 37  1  0  0  0  0
 37 34  1  0  0  0  0
M  END
>  <MODEL>
7

>  <REMARK>
 VINA RESULT:      -5.9      3.500      5.404
  Name = 
  11 active torsions:
  status: ('A' for Active; 'I' for Inactive)
    1  A    between atoms: C_2  and  P_36
    2  A    between atoms: C_3  and  C_20
    3  A    between atoms: C_6  and  C_20
    4  A    between atoms: C_14  and  P_36
    5  A    between atoms: C_16  and  CA_24
    6  A    between atoms: C_16  and  C_25
    7  A    between atoms: C_20  and  N_28
    8  A    between atoms: CA_24  and  C_31
    9  A    between atoms: C_25  and  C_34
   10  A    between atoms: C_26  and  C_33
   11  A    between atoms: C_30  and  C_34
                            x       y       z     vdW  Elec       q    Type
                         _______ _______ _______ _____ _____    ______ ____

>  <TORSDO>
F 11

$$$$
=
 OpenBabel11042416463D

 37 40  0  0  1  0  0  0  0  0999 V2000
  191.9710  173.0720  144.3310 C   0  0  0  0  0  0  0  0  0  0  0  0
  192.1430  174.1890  143.4730 C   0  0  0  0  0  0  0  0  0  0  0  0
  189.6960  173.7810  144.7900 C   0  0  0  0  0  3  0  0  0  0  0  0
  190.7470  172.8820  144.9760 C   0  0  0  0  0  3  0  0  0  0  0  0
  191.0800  175.0830  143.2980 C   0  0  0  0  0  3  0  0  0  0  0  0
  189.8600  174.8950  143.9610 C   0  0  0  0  0  0  0  0  0  0  0  0
  187.9460  174.2170  141.6650 Cl  0  0  0  0  0  0  0  0  0  0  0  0
  187.8270  175.5980  142.7530 C   0  0  0  0  0  0  0  0  0  0  0  0
  187.5890  177.6530  145.0450 C   0  0  0  0  0  3  0  0  0  0  0  0
  185.8220  176.8070  143.5370 C   0  0  0  0  0  3  0  0  0  0  0  0
  186.7760  176.6010  142.4090 C   0  0  0  0  0  2  0  0  0  0  0  0
  186.1950  177.3030  144.7160 C   0  0  0  0  0  0  0  0  0  0  0  0
  188.6840  177.0140  144.6140 C   0  0  0  0  0  3  0  0  0  0  0  0
  188.7300  175.8180  143.7350 C   0  0  0  0  0  0  0  0  0  0  0  0
  184.9560  177.6360  145.9060 Cl  0  0  0  0  0  0  0  0  0  0  0  0
  193.6080  170.8260  143.2830 O   0  0  0  0  0  0  0  0  0  0  0  0
  192.8960  170.1480  144.2060 C   0  0  0  0  0  1  0  0  0  0  0  0
  193.2570  171.8560  144.6400 P   0  0  1  0  0  0  0  0  0  0  0  0
  196.8140  172.9930  146.1320 C   0  0  0  0  0  1  0  0  0  0  0  0
  194.6590  172.1430  145.7130 C   0  0  0  0  0  3  0  0  0  0  0  0
  195.6910  172.7580  145.2680 N   0  0  0  0  0  0  0  0  0  0  0  0
  193.3970  174.4790  142.6990 C   0  0  2  0  0  3  0  0  0  0  0  0
  195.4960  176.0690  143.5500 C   0  0  0  0  0  0  0  0  0  0  0  0
  197.0440  176.2770  143.0770 S   0  0  0  0  0  0  0  0  0  0  0  0
  194.4140  176.4100  144.3960 N   0  0  0  0  0  2  0  0  0  0  0  0
  194.2490  175.4180  143.4100 N   0  0  0  0  0  0  0  0  0  0  0  0
  193.1050  174.9580  141.2790 C   0  0  2  0  0  3  0  0  0  0  0  0
  193.4950  173.9890  140.2210 C   0  0  1  0  0  0  0  0  0  0  0  0
  194.3130  175.0810  140.5560 O   0  0  0  0  0  0  0  0  0  0  0  0
  195.3410  172.5240  140.3900 O   0  0  0  0  0  0  0  0  0  0  0  0
  194.1450  172.6810  140.5680 C   0  0  0  0  0  3  0  0  0  0  0  0
  192.8220  174.1700  138.8640 C   0  0  0  0  0  2  0  0  0  0  0  0
  191.8740  173.0220  138.5390 C   0  0  0  0  0  2  0  0  0  0  0  0
  190.5880  173.1170  139.3500 C   0  0  1  0  0  3  0  0  0  0  0  0
  189.4790  173.5150  138.4970 N   0  0  0  0  0  1  0  0  0  0  0  0
  190.5360  171.8580  141.3990 O   0  0  0  0  0  1  0  0  0  0  0  0
  190.2790  171.7900  140.0270 C   0  0  0  0  0  2  0  0  0  0  0  0
  1 18  1  0  0  0  0
  1  4  1  0  0  0  0
  2  1  2  0  0  0  0
  3  4  2  0  0  0  0
  5  2  1  0  0  0  0
  5  6  2  0  0  0  0
  6  3  1  0  0  0  0
  7  8  1  0  0  0  0
  8 14  2  0  0  0  0
 10 12  2  0  0  0  0
 11  8  1  0  0  0  0
 11 10  1  0  0  0  0
 12  9  1  0  0  0  0
 12 15  1  0  0  0  0
 13  9  2  0  0  0  0
 14  6  1  0  0  0  0
 14 13  1  0  0  0  0
 16 17  1  0  0  0  0
 16 18  1  0  0  0  0
 18 20  1  6  0  0  0
 21 20  2  0  0  0  0
 21 19  1  0  0  0  0
 22 26  1  0  0  0  0
 22  2  1  1  0  0  0
 23 25  1  0  0  0  0
 24 23  2  0  0  0  0
 26 23  1  0  0  0  0
 26 25  1  0  0  0  0
 27 22  1  1  0  0  0
 28 32  1  6  0  0  0
 28 29  1  0  0  0  0
 28 31  1  0  0  0  0
 28 27  1  0  0  0  0
 29 27  1  0  0  0  0
 30 31  2  0  0  0  0
 33 32  1  0  0  0  0
 33 34  1  0  0  0  0
 34 35  1  6  0  0  0
 34 37  1  0  0  0  0
 37 36  1  0  0  0  0
M  END
>  <MODEL>
8

>  <REMARK>
 VINA RESULT:      -5.9      2.827      5.411
  Name = 
  11 active torsions:
  status: ('A' for Active; 'I' for Inactive)
    1  A    between atoms: C_2  and  P_36
    2  A    between atoms: C_3  and  C_20
    3  A    between atoms: C_6  and  C_20
    4  A    between atoms: C_14  and  P_36
    5  A    between atoms: C_16  and  CA_24
    6  A    between atoms: C_16  and  C_25
    7  A    between atoms: C_20  and  N_28
    8  A    between atoms: CA_24  and  C_31
    9  A    between atoms: C_25  and  C_34
   10  A    between atoms: C_26  and  C_33
   11  A    between atoms: C_30  and  C_34
                            x       y       z     vdW  Elec       q    Type
                         _______ _______ _______ _____ _____    ______ ____

>  <TORSDO>
F 11

$$$$
=
 OpenBabel11042416463D

 37 40  0  0  1  0  0  0  0  0999 V2000
  192.5810  176.1510  143.1430 C   0  0  0  0  0  0  0  0  0  0  0  0
  191.5310  175.2170  143.3360 C   0  0  0  0  0  0  0  0  0  0  0  0
  191.0300  177.9710  143.5620 C   0  0  0  0  0  3  0  0  0  0  0  0
  192.3160  177.5180  143.2610 C   0  0  0  0  0  3  0  0  0  0  0  0
  190.2470  175.6870  143.6350 C   0  0  0  0  0  3  0  0  0  0  0  0
  189.9850  177.0590  143.7360 C   0  0  0  0  0  0  0  0  0  0  0  0
  188.0560  177.6500  141.4290 Cl  0  0  0  0  0  0  0  0  0  0  0  0
  187.7130  177.8220  143.1480 C   0  0  0  0  0  0  0  0  0  0  0  0
  187.2230  177.6030  146.1890 C   0  0  0  0  0  3  0  0  0  0  0  0
  185.5690  177.5820  144.3520 C   0  0  0  0  0  3  0  0  0  0  0  0
  186.4070  178.4620  143.4860 C   0  0  0  0  0  2  0  0  0  0  0  0
  185.9380  177.2170  145.5790 C   0  0  0  0  0  0  0  0  0  0  0  0
  188.3880  177.7510  145.5450 C   0  0  0  0  0  3  0  0  0  0  0  0
  188.6370  177.5430  144.0960 C   0  0  0  0  0  0  0  0  0  0  0  0
  184.8020  176.3060  146.5500 Cl  0  0  0  0  0  0  0  0  0  0  0  0
  195.1870  175.1120  144.1190 O   0  0  0  0  0  0  0  0  0  0  0  0
  195.5760  176.3600  143.7840 C   0  0  0  0  0  1  0  0  0  0  0  0
  194.2690  175.6760  142.7530 P   0  0  1  0  0  0  0  0  0  0  0  0
  195.5470  175.0990  138.9840 C   0  0  0  0  0  1  0  0  0  0  0  0
  194.7610  174.9430  141.1980 C   0  0  0  0  0  3  0  0  0  0  0  0
  195.1460  175.6890  140.2310 N   0  0  0  0  0  0  0  0  0  0  0  0
  191.7010  173.7260  143.2700 C   0  0  2  0  0  3  0  0  0  0  0  0
  189.7050  172.5580  141.7480 C   0  0  0  0  0  0  0  0  0  0  0  0
  189.4810  172.3000  140.1520 S   0  0  0  0  0  0  0  0  0  0  0  0
  189.2680  172.4250  143.0870 N   0  0  0  0  0  2  0  0  0  0  0  0
  190.4840  173.0780  142.8080 N   0  0  0  0  0  0  0  0  0  0  0  0
  192.1760  173.1350  144.5950 C   0  0  2  0  0  3  0  0  0  0  0  0
  193.3490  172.2300  144.4700 C   0  0  1  0  0  0  0  0  0  0  0  0
  192.0400  171.7290  144.5720 O   0  0  0  0  0  0  0  0  0  0  0  0
  193.7930  170.8350  142.6150 O   0  0  0  0  0  0  0  0  0  0  0  0
  193.9550  171.9280  143.1300 C   0  0  0  0  0  3  0  0  0  0  0  0
  194.1540  171.9950  145.7430 C   0  0  0  0  0  2  0  0  0  0  0  0
  195.1540  170.8550  145.5840 C   0  0  0  0  0  2  0  0  0  0  0  0
  194.5720  169.5350  146.0710 C   0  0  1  0  0  3  0  0  0  0  0  0
  194.5230  168.5710  144.9830 N   0  0  0  0  0  1  0  0  0  0  0  0
  196.6830  169.5100  147.2220 O   0  0  0  0  0  1  0  0  0  0  0  0
  195.3910  168.9800  147.2270 C   0  0  0  0  0  2  0  0  0  0  0  0
  1  4  2  0  0  0  0
  1  2  1  0  0  0  0
  2  5  2  0  0  0  0
  3  6  2  0  0  0  0
  4  3  1  0  0  0  0
  5  6  1  0  0  0  0
  6 14  1  0  0  0  0
  7  8  1  0  0  0  0
  8 11  1  0  0  0  0
  8 14  2  0  0  0  0
 10 12  2  0  0  0  0
 11 10  1  0  0  0  0
 12  9  1  0  0  0  0
 12 15  1  0  0  0  0
 13  9  2  0  0  0  0
 14 13  1  0  0  0  0
 17 16  1  0  0  0  0
 18 20  1  6  0  0  0
 18  1  1  0  0  0  0
 18 16  1  0  0  0  0
 19 21  1  0  0  0  0
 21 20  2  0  0  0  0
 22  2  1  1  0  0  0
 23 26  1  0  0  0  0
 23 25  1  0  0  0  0
 24 23  2  0  0  0  0
 26 25  1  0  0  0  0
 26 22  1  0  0  0  0
 27 22  1  6  0  0  0
 28 31  1  6  0  0  0
 28 29  1  0  0  0  0
 28 27  1  0  0  0  0
 28 32  1  0  0  0  0
 29 27  1  0  0  0  0
 30 31  2  0  0  0  0
 33 32  1  0  0  0  0
 33 34  1  0  0  0  0
 34 35  1  6  0  0  0
 34 37  1  0  0  0  0
 36 37  1  0  0  0  0
M  END
>  <MODEL>
9

>  <REMARK>
 VINA RESULT:      -5.8      1.491      1.876
  Name = 
  11 active torsions:
  status: ('A' for Active; 'I' for Inactive)
    1  A    between atoms: C_2  and  P_36
    2  A    between atoms: C_3  and  C_20
    3  A    between atoms: C_6  and  C_20
    4  A    between atoms: C_14  and  P_36
    5  A    between atoms: C_16  and  CA_24
    6  A    between atoms: C_16  and  C_25
    7  A    between atoms: C_20  and  N_28
    8  A    between atoms: CA_24  and  C_31
    9  A    between atoms: C_25  and  C_34
   10  A    between atoms: C_26  and  C_33
   11  A    between atoms: C_30  and  C_34
                            x       y       z     vdW  Elec       q    Type
                         _______ _______ _______ _____ _____    ______ ____

>  <TORSDO>
F 11

$$$$
