=
 OpenBabel11042413383D

 42 48  0  0  1  0  0  0  0  0999 V2000
  188.5380  175.9090  144.4590 C   0  0  0  0  0  0  0  0  0  0  0  0
  190.0540  174.1400  145.1670 C   0  0  0  0  0  0  0  0  0  0  0  0
  188.0790  176.0610  145.7910 C   0  0  0  0  0  0  0  0  0  0  0  0
  186.9040  177.4930  147.4820 C   0  0  0  0  0  3  0  0  0  0  0  0
  188.0540  176.7120  143.3900 N   0  0  0  0  0  0  0  0  0  0  0  0
  189.5160  174.9540  144.1640 C   0  0  0  0  0  3  0  0  0  0  0  0
  185.2170  178.3500  146.4720 C   0  0  0  0  0  0  0  0  0  0  0  0
  187.0440  177.0410  146.2190 C   0  0  0  0  0  0  0  0  0  0  0  0
  184.0890  179.0440  145.8860 C   0  0  0  0  0  3  0  0  0  0  0  0
  185.2980  177.7860  144.3570 C   0  0  0  0  0  0  0  0  0  0  0  0
  185.9020  177.6120  145.5180 C   0  0  0  0  0  0  0  0  0  0  0  0
  188.6510  175.2490  146.7880 C   0  0  0  0  0  3  0  0  0  0  0  0
  185.7540  177.3050  143.0250 C   0  0  0  0  0  2  0  0  0  0  0  0
  189.6240  174.2980  146.4820 C   0  0  0  0  0  3  0  0  0  0  0  0
  187.2020  177.7410  142.8180 C   0  0  2  0  0  3  0  0  0  0  0  0
  187.9700  177.0210  141.9580 N   0  0  0  0  0  0  0  0  0  0  0  0
  185.7550  178.3510  147.6390 N   0  0  0  0  0  0  0  0  0  0  0  0
  184.1440  178.6920  144.5890 C   0  0  0  0  0  3  0  0  0  0  0  0
  190.4980  171.8890  144.2100 C   0  0  0  0  0  1  0  0  0  0  0  0
  191.1040  173.1220  144.8580 C   0  0  1  0  0  3  0  0  0  0  0  0
  192.1210  173.6940  143.9930 N   0  0  0  0  0  2  0  0  0  0  0  0
  194.1790  173.5370  145.3410 C   0  0  0  0  0  0  0  0  0  0  0  0
  193.3280  173.0530  144.3020 N   0  0  0  0  0  2  0  0  0  0  0  0
  195.2770  172.9110  145.6080 N   0  0  0  0  0  2  0  0  0  0  0  0
  193.8240  174.7690  146.1050 C   0  0  0  0  0  2  0  0  0  0  0  0
  194.8220  175.8800  145.8470 C   0  0  0  0  0  2  0  0  0  0  0  0
  194.1050  177.1350  145.3580 C   0  0  0  0  0  2  0  0  0  0  0  0
  192.6120  176.8830  145.2110 C   0  0  0  0  0  2  0  0  0  0  0  0
  192.1260  177.3290  143.8710 C   0  0  0  0  0  0  0  0  0  0  0  0
  191.1620  178.3690  143.7760 N   0  0  0  0  0  1  0  0  0  0  0  0
  192.5770  176.7970  142.8230 O   0  0  0  0  0  0  0  0  0  0  0  0
  187.3110  175.8790  141.3190 C   0  0  0  0  0  2  0  0  0  0  0  0
  188.3430  175.0100  140.6250 C   0  0  0  0  0  2  0  0  0  0  0  0
  188.2590  173.5810  141.1370 C   0  0  0  0  0  2  0  0  0  0  0  0
  190.6790  173.3400  140.6210 C   0  0  0  0  0  2  0  0  0  0  0  0
  189.0110  172.6530  138.6930 S   0  0  0  0  0  0  0  0  0  0  0  0
  191.5650  172.7570  139.6250 N   0  0  2  0  0  0  0  0  0  0  0  0
  191.1820  173.6490  137.4450 N   0  0  0  0  0  2  0  0  0  0  0  0
  192.5870  173.7470  139.3460 C   0  0  0  0  0  2  0  0  0  0  0  0
  190.8070  172.5990  138.3800 C   0  0  2  0  0  3  0  0  0  0  0  0
  192.4940  174.0780  137.8800 C   0  0  0  0  0  2  0  0  0  0  0  0
  189.3150  172.7210  140.4650 C   0  0  2  0  0  3  0  0  0  0  0  0
  1  3  1  0  0  0  0
  2 14  2  0  0  0  0
  3  8  1  0  0  0  0
  3 12  2  0  0  0  0
  4 17  1  0  0  0  0
  5  1  1  0  0  0  0
  6  1  2  0  0  0  0
  6  2  1  0  0  0  0
  7 17  2  0  0  0  0
  8  4  2  0  0  0  0
  9  7  1  0  0  0  0
 10 18  1  0  0  0  0
 10 11  2  0  0  0  0
 11  8  1  0  0  0  0
 11  7  1  0  0  0  0
 13 10  1  0  0  0  0
 14 12  1  0  0  0  0
 15 13  1  6  0  0  0
 15  5  1  0  0  0  0
 16 15  1  0  0  0  0
 16  5  1  0  0  0  0
 18  9  2  0  0  0  0
 20 19  1  6  0  0  0
 20  2  1  0  0  0  0
 21 23  1  0  0  0  0
 21 20  1  0  0  0  0
 22 24  2  0  0  0  0
 22 25  1  0  0  0  0
 23 22  1  0  0  0  0
 26 25  1  0  0  0  0
 27 26  1  0  0  0  0
 28 27  1  0  0  0  0
 29 28  1  0  0  0  0
 30 29  1  0  0  0  0
 31 29  2  0  0  0  0
 32 16  1  0  0  0  0
 33 34  1  0  0  0  0
 33 32  1  0  0  0  0
 36 42  1  0  0  0  0
 37 39  1  6  0  0  0
 37 35  1  0  0  0  0
 38 41  1  0  0  0  0
 40 38  1  6  0  0  0
 40 36  1  0  0  0  0
 40 37  1  0  0  0  0
 41 39  1  0  0  0  0
 42 35  1  0  0  0  0
 42 34  1  1  0  0  0
M  END
>  <MODEL>
1

>  <REMARK>
 VINA RESULT:      -7.5      0.000      0.000
  Name = 
  12 active torsions:
  status: ('A' for Active; 'I' for Inactive)
    1  A    between atoms: C_1  and  C_10
    2  A    between atoms: C_1  and  C_34
    3  A    between atoms: C_2  and  C_11
    4  A    between atoms: C_2  and  C_16
    5  A    between atoms: C_4  and  C_10
    6  A    between atoms: C_6  and  C_30
    7  A    between atoms: C_8  and  C_40
    8  A    between atoms: C_11  and  C_38
    9  A    between atoms: N_12  and  N_24
   10  A    between atoms: C_16  and  N_39
   11  A    between atoms: N_24  and  C_30
   12  A    between atoms: C_34  and  C_40
                            x       y       z     vdW  Elec       q    Type
                         _______ _______ _______ _____ _____    ______ ____

>  <TORSDO>
F 12

$$$$
=
 OpenBabel11042413383D

 42 48  0  0  1  0  0  0  0  0999 V2000
  188.4660  176.0950  144.5590 C   0  0  0  0  0  0  0  0  0  0  0  0
  190.0200  174.4180  145.3950 C   0  0  0  0  0  0  0  0  0  0  0  0
  187.9360  176.2660  145.8610 C   0  0  0  0  0  0  0  0  0  0  0  0
  186.6170  177.6930  147.4470 C   0  0  0  0  0  3  0  0  0  0  0  0
  188.0020  176.8440  143.4430 N   0  0  0  0  0  0  0  0  0  0  0  0
  189.4980  175.1760  144.3420 C   0  0  0  0  0  3  0  0  0  0  0  0
  184.9470  178.4440  146.3300 C   0  0  0  0  0  0  0  0  0  0  0  0
  186.8390  177.2100  146.2080 C   0  0  0  0  0  0  0  0  0  0  0  0
  183.8210  179.0690  145.6690 C   0  0  0  0  0  3  0  0  0  0  0  0
  185.1580  177.8220  144.2400 C   0  0  0  0  0  0  0  0  0  0  0  0
  185.7100  177.7090  145.4350 C   0  0  0  0  0  0  0  0  0  0  0  0
  188.4910  175.5100  146.9100 C   0  0  0  0  0  3  0  0  0  0  0  0
  185.6990  177.3230  142.9480 C   0  0  0  0  0  2  0  0  0  0  0  0
  189.5190  174.5940  146.6820 C   0  0  0  0  0  3  0  0  0  0  0  0
  187.1360  177.8160  142.7980 C   0  0  2  0  0  3  0  0  0  0  0  0
  187.9760  177.1060  141.9990 N   0  0  0  0  0  0  0  0  0  0  0  0
  185.4250  178.5030  147.5220 N   0  0  0  0  0  0  0  0  0  0  0  0
  183.9550  178.6810  144.3870 C   0  0  0  0  0  3  0  0  0  0  0  0
  190.6380  172.2260  144.3980 C   0  0  0  0  0  1  0  0  0  0  0  0
  191.1280  173.4380  145.1700 C   0  0  1  0  0  3  0  0  0  0  0  0
  192.2240  174.0740  144.4610 N   0  0  0  0  0  2  0  0  0  0  0  0
  194.0690  175.0270  145.7900 C   0  0  0  0  0  0  0  0  0  0  0  0
  192.7280  175.0750  145.3030 N   0  0  0  0  0  2  0  0  0  0  0  0
  194.5040  175.9750  146.5520 N   0  0  0  0  0  2  0  0  0  0  0  0
  194.9630  173.8820  145.4480 C   0  0  0  0  0  2  0  0  0  0  0  0
  196.4180  174.3070  145.4410 C   0  0  0  0  0  2  0  0  0  0  0  0
  196.9110  174.4860  144.0080 C   0  0  0  0  0  2  0  0  0  0  0  0
  196.8330  175.9450  143.5860 C   0  0  0  0  0  2  0  0  0  0  0  0
  196.0010  176.0980  142.3540 C   0  0  0  0  0  0  0  0  0  0  0  0
  194.8900  175.2390  142.1370 N   0  0  0  0  0  1  0  0  0  0  0  0
  196.2720  176.9940  141.5120 O   0  0  0  0  0  0  0  0  0  0  0  0
  187.4000  175.9180  141.3650 C   0  0  0  0  0  2  0  0  0  0  0  0
  188.5040  175.0620  140.7740 C   0  0  0  0  0  2  0  0  0  0  0  0
  188.3560  173.6210  141.2330 C   0  0  0  0  0  2  0  0  0  0  0  0
  190.8050  173.5690  140.8030 C   0  0  0  0  0  2  0  0  0  0  0  0
  189.2860  172.4090  138.9820 S   0  0  0  0  0  0  0  0  0  0  0  0
  191.7800  172.9380  139.9280 N   0  0  2  0  0  0  0  0  0  0  0  0
  191.3800  173.4290  137.6270 N   0  0  0  0  0  2  0  0  0  0  0  0
  192.7010  173.9790  139.5110 C   0  0  0  0  0  2  0  0  0  0  0  0
  191.0870  172.5050  138.7110 C   0  0  2  0  0  3  0  0  0  0  0  0
  192.6240  174.0630  138.0110 C   0  0  0  0  0  2  0  0  0  0  0  0
  189.5200  172.7870  140.7250 C   0  0  2  0  0  3  0  0  0  0  0  0
  1  3  1  0  0  0  0
  2 14  2  0  0  0  0
  3  8  1  0  0  0  0
  3 12  2  0  0  0  0
  4 17  1  0  0  0  0
  5  1  1  0  0  0  0
  6  1  2  0  0  0  0
  6  2  1  0  0  0  0
  7 17  2  0  0  0  0
  8  4  2  0  0  0  0
  9  7  1  0  0  0  0
 10 18  1  0  0  0  0
 10 11  2  0  0  0  0
 11  8  1  0  0  0  0
 11  7  1  0  0  0  0
 13 10  1  0  0  0  0
 14 12  1  0  0  0  0
 15 13  1  6  0  0  0
 15  5  1  0  0  0  0
 16 15  1  0  0  0  0
 16  5  1  0  0  0  0
 18  9  2  0  0  0  0
 20 19  1  6  0  0  0
 20  2  1  0  0  0  0
 21 20  1  0  0  0  0
 21 23  1  0  0  0  0
 22 24  2  0  0  0  0
 23 22  1  0  0  0  0
 25 22  1  0  0  0  0
 26 25  1  0  0  0  0
 27 26  1  0  0  0  0
 28 27  1  0  0  0  0
 29 28  1  0  0  0  0
 30 29  1  0  0  0  0
 31 29  2  0  0  0  0
 32 16  1  0  0  0  0
 33 34  1  0  0  0  0
 33 32  1  0  0  0  0
 36 42  1  0  0  0  0
 37 39  1  6  0  0  0
 37 35  1  0  0  0  0
 38 41  1  0  0  0  0
 40 38  1  6  0  0  0
 40 36  1  0  0  0  0
 40 37  1  0  0  0  0
 41 39  1  0  0  0  0
 42 35  1  0  0  0  0
 42 34  1  6  0  0  0
M  END
>  <MODEL>
2

>  <REMARK>
 VINA RESULT:      -7.2      1.415      1.748
  Name = 
  12 active torsions:
  status: ('A' for Active; 'I' for Inactive)
    1  A    between atoms: C_1  and  C_10
    2  A    between atoms: C_1  and  C_34
    3  A    between atoms: C_2  and  C_11
    4  A    between atoms: C_2  and  C_16
    5  A    between atoms: C_4  and  C_10
    6  A    between atoms: C_6  and  C_30
    7  A    between atoms: C_8  and  C_40
    8  A    between atoms: C_11  and  C_38
    9  A    between atoms: N_12  and  N_24
   10  A    between atoms: C_16  and  N_39
   11  A    between atoms: N_24  and  C_30
   12  A    between atoms: C_34  and  C_40
                            x       y       z     vdW  Elec       q    Type
                         _______ _______ _______ _____ _____    ______ ____

>  <TORSDO>
F 12

$$$$
=
 OpenBabel11042413383D

 42 48  0  0  1  0  0  0  0  0999 V2000
  189.8460  173.3960  143.2390 C   0  0  0  0  0  0  0  0  0  0  0  0
  190.9210  174.2840  145.2350 C   0  0  0  0  0  0  0  0  0  0  0  0
  190.8280  172.3790  143.1510 C   0  0  0  0  0  0  0  0  0  0  0  0
  191.5000  170.1490  142.2200 C   0  0  0  0  0  3  0  0  0  0  0  0
  188.7700  173.4980  142.3150 N   0  0  0  0  0  0  0  0  0  0  0  0
  189.9040  174.3330  144.2760 C   0  0  0  0  0  3  0  0  0  0  0  0
  190.8540  170.1360  140.1740 C   0  0  0  0  0  0  0  0  0  0  0  0
  190.8670  171.3340  142.0930 C   0  0  0  0  0  0  0  0  0  0  0  0
  190.4070  169.9770  138.8070 C   0  0  0  0  0  3  0  0  0  0  0  0
  189.7250  171.9700  139.7780 C   0  0  0  0  0  0  0  0  0  0  0  0
  190.4230  171.3420  140.7060 C   0  0  0  0  0  0  0  0  0  0  0  0
  191.8290  172.3340  144.1390 C   0  0  0  0  0  3  0  0  0  0  0  0
  188.9520  173.2310  139.9330 C   0  0  0  0  0  2  0  0  0  0  0  0
  191.8790  173.2750  145.1680 C   0  0  0  0  0  3  0  0  0  0  0  0
  188.0230  173.0890  141.1370 C   0  0  2  0  0  3  0  0  0  0  0  0
  187.6170  174.2220  141.7690 N   0  0  0  0  0  0  0  0  0  0  0  0
  191.4690  169.3710  141.0050 N   0  0  0  0  0  0  0  0  0  0  0  0
  189.7170  171.1070  138.5690 C   0  0  0  0  0  3  0  0  0  0  0  0
  189.8800  175.0370  147.3630 C   0  0  0  0  0  1  0  0  0  0  0  0
  190.9840  175.2790  146.3490 C   0  0  1  0  0  3  0  0  0  0  0  0
  192.2820  175.2260  146.9980 N   0  0  0  0  0  2  0  0  0  0  0  0
  194.2630  176.4920  146.2560 C   0  0  0  0  0  0  0  0  0  0  0  0
  192.9190  176.4470  146.7370 N   0  0  0  0  0  2  0  0  0  0  0  0
  194.8130  177.6360  146.0130 N   0  0  0  0  0  2  0  0  0  0  0  0
  195.0430  175.2360  146.0540 C   0  0  0  0  0  2  0  0  0  0  0  0
  195.7640  175.2490  144.7200 C   0  0  0  0  0  2  0  0  0  0  0  0
  194.8380  174.7540  143.6130 C   0  0  0  0  0  2  0  0  0  0  0  0
  194.4510  175.8930  142.6810 C   0  0  0  0  0  2  0  0  0  0  0  0
  192.9680  175.9700  142.5210 C   0  0  0  0  0  0  0  0  0  0  0  0
  192.2300  176.9630  143.2220 N   0  0  0  0  0  1  0  0  0  0  0  0
  192.3690  175.1680  141.7580 O   0  0  0  0  0  0  0  0  0  0  0  0
  188.1310  175.4780  141.2170 C   0  0  0  0  0  2  0  0  0  0  0  0
  187.8520  176.6170  142.1800 C   0  0  0  0  0  2  0  0  0  0  0  0
  186.3550  176.8510  142.2990 C   0  0  0  0  0  2  0  0  0  0  0  0
  186.6560  178.1100  144.4210 C   0  0  0  0  0  2  0  0  0  0  0  0
  184.3120  178.3820  143.2390 S   0  0  0  0  0  0  0  0  0  0  0  0
  186.0160  179.1470  145.2150 N   0  0  2  0  0  0  0  0  0  0  0  0
  183.8070  178.5410  145.8810 N   0  0  0  0  0  2  0  0  0  0  0  0
  186.0570  178.7020  146.5950 C   0  0  0  0  0  2  0  0  0  0  0  0
  184.5980  179.1910  144.8480 C   0  0  2  0  0  3  0  0  0  0  0  0
  184.6320  178.6020  147.0690 C   0  0  0  0  0  2  0  0  0  0  0  0
  186.0840  178.1550  143.0290 C   0  0  2  0  0  3  0  0  0  0  0  0
  1  6  1  0  0  0  0
  2 20  1  0  0  0  0
  3  1  2  0  0  0  0
  3 12  1  0  0  0  0
  5  1  1  0  0  0  0
  6  2  2  0  0  0  0
  7 11  1  0  0  0  0
  7 17  1  0  0  0  0
  8  4  1  0  0  0  0
  8  3  1  0  0  0  0
  9  7  2  0  0  0  0
 10 13  1  0  0  0  0
 10 11  1  0  0  0  0
 11  8  2  0  0  0  0
 12 14  2  0  0  0  0
 14  2  1  0  0  0  0
 15 13  1  6  0  0  0
 15 16  1  0  0  0  0
 15  5  1  0  0  0  0
 16  5  1  0  0  0  0
 17  4  2  0  0  0  0
 18  9  1  0  0  0  0
 18 10  2  0  0  0  0
 20 21  1  0  0  0  0
 20 19  1  1  0  0  0
 22 23  1  0  0  0  0
 23 21  1  0  0  0  0
 24 22  2  0  0  0  0
 25 22  1  0  0  0  0
 26 25  1  0  0  0  0
 27 26  1  0  0  0  0
 28 27  1  0  0  0  0
 29 28  1  0  0  0  0
 29 30  1  0  0  0  0
 31 29  2  0  0  0  0
 32 16  1  0  0  0  0
 32 33  1  0  0  0  0
 33 34  1  0  0  0  0
 37 35  1  6  0  0  0
 37 39  1  0  0  0  0
 38 41  1  0  0  0  0
 39 41  1  0  0  0  0
 40 36  1  6  0  0  0
 40 37  1  0  0  0  0
 40 38  1  0  0  0  0
 42 34  1  1  0  0  0
 42 36  1  0  0  0  0
 42 35  1  0  0  0  0
M  END
>  <MODEL>
3

>  <REMARK>
 VINA RESULT:      -7.2      2.565      6.996
  Name = 
  12 active torsions:
  status: ('A' for Active; 'I' for Inactive)
    1  A    between atoms: C_1  and  C_10
    2  A    between atoms: C_1  and  C_34
    3  A    between atoms: C_2  and  C_11
    4  A    between atoms: C_2  and  C_16
    5  A    between atoms: C_4  and  C_10
    6  A    between atoms: C_6  and  C_30
    7  A    between atoms: C_8  and  C_40
    8  A    between atoms: C_11  and  C_38
    9  A    between atoms: N_12  and  N_24
   10  A    between atoms: C_16  and  N_39
   11  A    between atoms: N_24  and  C_30
   12  A    between atoms: C_34  and  C_40
                            x       y       z     vdW  Elec       q    Type
                         _______ _______ _______ _____ _____    ______ ____

>  <TORSDO>
F 12

$$$$
=
 OpenBabel11042413383D

 42 48  0  0  1  0  0  0  0  0999 V2000
  190.6780  175.3220  143.8750 C   0  0  0  0  0  0  0  0  0  0  0  0
  189.2020  176.8690  142.7090 C   0  0  0  0  0  0  0  0  0  0  0  0
  191.6200  176.3600  144.0770 C   0  0  0  0  0  0  0  0  0  0  0  0
  193.6120  177.2030  145.3480 C   0  0  0  0  0  3  0  0  0  0  0  0
  190.8840  174.0010  144.3590 N   0  0  0  0  0  0  0  0  0  0  0  0
  189.4840  175.5880  143.1960 C   0  0  0  0  0  3  0  0  0  0  0  0
  194.9390  175.5310  145.5580 C   0  0  0  0  0  0  0  0  0  0  0  0
  192.9200  176.1920  144.7820 C   0  0  0  0  0  0  0  0  0  0  0  0
  195.8850  174.4680  145.8260 C   0  0  0  0  0  3  0  0  0  0  0  0
  193.9600  173.7450  144.7530 C   0  0  0  0  0  0  0  0  0  0  0  0
  193.8100  175.0470  144.9140 C   0  0  0  0  0  0  0  0  0  0  0  0
  191.3070  177.6460  143.6000 C   0  0  0  0  0  3  0  0  0  0  0  0
  192.9510  172.7810  144.2370 C   0  0  0  0  0  2  0  0  0  0  0  0
  190.1140  177.8990  142.9220 C   0  0  0  0  0  3  0  0  0  0  0  0
  191.6550  172.9640  145.0230 C   0  0  2  0  0  3  0  0  0  0  0  0
  190.4900  172.5890  144.4320 N   0  0  0  0  0  0  0  0  0  0  0  0
  194.8890  176.7770  145.8690 N   0  0  0  0  0  0  0  0  0  0  0  0
  195.2780  173.3760  145.3280 C   0  0  0  0  0  3  0  0  0  0  0  0
  186.9060  176.0550  142.2110 C   0  0  0  0  0  1  0  0  0  0  0  0
  187.9250  177.1590  141.9880 C   0  0  1  0  0  3  0  0  0  0  0  0
  187.3840  178.4350  142.4190 N   0  0  0  0  0  2  0  0  0  0  0  0
  185.0760  178.5400  143.2800 C   0  0  0  0  0  0  0  0  0  0  0  0
  186.0000  178.3860  142.2020 N   0  0  0  0  0  2  0  0  0  0  0  0
  183.8070  178.5040  143.0410 N   0  0  0  0  0  2  0  0  0  0  0  0
  185.5610  178.7200  144.6800 C   0  0  0  0  0  2  0  0  0  0  0  0
  184.9960  177.6530  145.5970 C   0  0  0  0  0  2  0  0  0  0  0  0
  186.1210  176.9610  146.3600 C   0  0  0  0  0  2  0  0  0  0  0  0
  187.4790  177.4930  145.9260 C   0  0  0  0  0  2  0  0  0  0  0  0
  188.5840  176.7240  146.5740 C   0  0  0  0  0  0  0  0  0  0  0  0
  189.7640  177.3960  146.9940 N   0  0  0  0  0  1  0  0  0  0  0  0
  188.4690  175.4850  146.7620 O   0  0  0  0  0  0  0  0  0  0  0  0
  190.6090  172.0480  143.0760 C   0  0  0  0  0  2  0  0  0  0  0  0
  189.2330  171.9040  142.4540 C   0  0  0  0  0  2  0  0  0  0  0  0
  189.1980  172.5760  141.0910 C   0  0  0  0  0  2  0  0  0  0  0  0
  190.8000  173.5790  139.4760 C   0  0  0  0  0  2  0  0  0  0  0  0
  190.5030  170.9600  139.3340 S   0  0  0  0  0  0  0  0  0  0  0  0
  191.8290  173.1910  138.5230 N   0  0  2  0  0  0  0  0  0  0  0  0
  190.9810  171.7660  136.8080 N   0  0  0  0  0  2  0  0  0  0  0  0
  191.6130  173.9860  137.3290 C   0  0  0  0  0  2  0  0  0  0  0  0
  191.5850  171.8010  138.1310 C   0  0  2  0  0  3  0  0  0  0  0  0
  191.3570  173.0250  136.2000 C   0  0  0  0  0  2  0  0  0  0  0  0
  190.5380  172.4140  140.3930 C   0  0  2  0  0  3  0  0  0  0  0  0
  1  3  1  0  0  0  0
  1  5  1  0  0  0  0
  2 14  2  0  0  0  0
  2  6  1  0  0  0  0
  3  8  1  0  0  0  0
  4 17  1  0  0  0  0
  5 16  1  0  0  0  0
  5 15  1  0  0  0  0
  6  1  2  0  0  0  0
  7  9  1  0  0  0  0
  7 17  2  0  0  0  0
  8 11  1  0  0  0  0
  8  4  2  0  0  0  0
 10 11  2  0  0  0  0
 10 18  1  0  0  0  0
 11  7  1  0  0  0  0
 12  3  2  0  0  0  0
 13 10  1  0  0  0  0
 14 12  1  0  0  0  0
 15 13  1  6  0  0  0
 16 15  1  0  0  0  0
 18  9  2  0  0  0  0
 20 19  1  1  0  0  0
 20 21  1  0  0  0  0
 20  2  1  0  0  0  0
 22 25  1  0  0  0  0
 23 21  1  0  0  0  0
 23 22  1  0  0  0  0
 24 22  2  0  0  0  0
 25 26  1  0  0  0  0
 26 27  1  0  0  0  0
 28 27  1  0  0  0  0
 28 29  1  0  0  0  0
 29 31  2  0  0  0  0
 29 30  1  0  0  0  0
 32 16  1  0  0  0  0
 33 32  1  0  0  0  0
 34 33  1  0  0  0  0
 35 42  1  0  0  0  0
 36 42  1  0  0  0  0
 37 39  1  6  0  0  0
 37 35  1  0  0  0  0
 40 38  1  6  0  0  0
 40 37  1  0  0  0  0
 40 36  1  0  0  0  0
 41 38  1  0  0  0  0
 41 39  1  0  0  0  0
 42 34  1  6  0  0  0
M  END
>  <MODEL>
4

>  <REMARK>
 VINA RESULT:      -7.1      1.948      6.739
  Name = 
  12 active torsions:
  status: ('A' for Active; 'I' for Inactive)
    1  A    between atoms: C_1  and  C_10
    2  A    between atoms: C_1  and  C_34
    3  A    between atoms: C_2  and  C_11
    4  A    between atoms: C_2  and  C_16
    5  A    between atoms: C_4  and  C_10
    6  A    between atoms: C_6  and  C_30
    7  A    between atoms: C_8  and  C_40
    8  A    between atoms: C_11  and  C_38
    9  A    between atoms: N_12  and  N_24
   10  A    between atoms: C_16  and  N_39
   11  A    between atoms: N_24  and  C_30
   12  A    between atoms: C_34  and  C_40
                            x       y       z     vdW  Elec       q    Type
                         _______ _______ _______ _____ _____    ______ ____

>  <TORSDO>
F 12

$$$$
=
 OpenBabel11042413383D

 42 48  0  0  1  0  0  0  0  0999 V2000
  188.6120  176.1320  144.5140 C   0  0  0  0  0  0  0  0  0  0  0  0
  190.2440  174.4900  145.2660 C   0  0  0  0  0  0  0  0  0  0  0  0
  188.1170  176.2590  145.8350 C   0  0  0  0  0  0  0  0  0  0  0  0
  186.8030  177.6090  147.4910 C   0  0  0  0  0  3  0  0  0  0  0  0
  188.0900  176.8890  143.4290 N   0  0  0  0  0  0  0  0  0  0  0  0
  189.6660  175.2520  144.2460 C   0  0  0  0  0  3  0  0  0  0  0  0
  185.0760  178.3280  146.4420 C   0  0  0  0  0  0  0  0  0  0  0  0
  187.0020  177.1600  146.2350 C   0  0  0  0  0  0  0  0  0  0  0  0
  183.9110  178.9300  145.8290 C   0  0  0  0  0  3  0  0  0  0  0  0
  185.2420  177.7570  144.3330 C   0  0  0  0  0  0  0  0  0  0  0  0
  185.8340  177.6370  145.5080 C   0  0  0  0  0  0  0  0  0  0  0  0
  188.7290  175.5000  146.8500 C   0  0  0  0  0  3  0  0  0  0  0  0
  185.7590  177.3020  143.0150 C   0  0  0  0  0  2  0  0  0  0  0  0
  189.7780  174.6230  146.5710 C   0  0  0  0  0  3  0  0  0  0  0  0
  187.1740  177.8460  142.8320 C   0  0  2  0  0  3  0  0  0  0  0  0
  188.0110  177.1800  141.9930 N   0  0  0  0  0  0  0  0  0  0  0  0
  185.5890  178.3780  147.6190 N   0  0  0  0  0  0  0  0  0  0  0  0
  184.0180  178.5730  144.5350 C   0  0  0  0  0  3  0  0  0  0  0  0
  191.6030  173.4000  143.4920 C   0  0  0  0  0  1  0  0  0  0  0  0
  191.3750  173.5520  144.9860 C   0  0  1  0  0  3  0  0  0  0  0  0
  192.5870  174.0190  145.6330 N   0  0  0  0  0  2  0  0  0  0  0  0
  194.4740  175.4610  144.9690 C   0  0  0  0  0  0  0  0  0  0  0  0
  193.1200  175.0300  144.8210 N   0  0  0  0  0  2  0  0  0  0  0  0
  194.9350  176.3850  144.1920 N   0  0  0  0  0  2  0  0  0  0  0  0
  195.3510  174.8720  146.0230 C   0  0  0  0  0  2  0  0  0  0  0  0
  196.6070  174.2760  145.4190 C   0  0  0  0  0  2  0  0  0  0  0  0
  196.8550  172.8800  145.9830 C   0  0  0  0  0  2  0  0  0  0  0  0
  195.6800  171.9590  145.6880 C   0  0  0  0  0  2  0  0  0  0  0  0
  196.0240  170.5400  146.0040 C   0  0  0  0  0  0  0  0  0  0  0  0
  194.9870  169.5870  146.2000 N   0  0  0  0  0  1  0  0  0  0  0  0
  197.2270  170.1810  146.0860 O   0  0  0  0  0  0  0  0  0  0  0  0
  187.4540  175.9870  141.3510 C   0  0  0  0  0  2  0  0  0  0  0  0
  188.5750  175.1270  140.7990 C   0  0  0  0  0  2  0  0  0  0  0  0
  188.3310  173.6650  141.1350 C   0  0  0  0  0  2  0  0  0  0  0  0
  190.0310  172.3110  139.9270 C   0  0  0  0  0  2  0  0  0  0  0  0
  188.4300  173.7700  138.4190 S   0  0  0  0  0  0  0  0  0  0  0  0
  190.3760  171.8770  138.5820 N   0  0  2  0  0  0  0  0  0  0  0  0
  190.7900  173.7160  137.1180 N   0  0  0  0  0  2  0  0  0  0  0  0
  191.8100  172.0430  138.4450 C   0  0  0  0  0  2  0  0  0  0  0  0
  189.7700  172.8140  137.6330 C   0  0  2  0  0  3  0  0  0  0  0  0
  192.0370  173.0070  137.3110 C   0  0  0  0  0  2  0  0  0  0  0  0
  188.6060  172.7950  139.9200 C   0  0  2  0  0  3  0  0  0  0  0  0
  1  3  1  0  0  0  0
  2 14  2  0  0  0  0
  3  8  1  0  0  0  0
  3 12  2  0  0  0  0
  4 17  1  0  0  0  0
  5  1  1  0  0  0  0
  6  1  2  0  0  0  0
  6  2  1  0  0  0  0
  7 17  2  0  0  0  0
  8  4  2  0  0  0  0
  9  7  1  0  0  0  0
 10 18  1  0  0  0  0
 10 11  2  0  0  0  0
 11  8  1  0  0  0  0
 11  7  1  0  0  0  0
 13 10  1  0  0  0  0
 14 12  1  0  0  0  0
 15 13  1  6  0  0  0
 15  5  1  0  0  0  0
 16 15  1  0  0  0  0
 16  5  1  0  0  0  0
 18  9  2  0  0  0  0
 20 19  1  6  0  0  0
 20  2  1  0  0  0  0
 20 21  1  0  0  0  0
 22 25  1  0  0  0  0
 23 22  1  0  0  0  0
 23 21  1  0  0  0  0
 24 22  2  0  0  0  0
 26 27  1  0  0  0  0
 26 25  1  0  0  0  0
 28 27  1  0  0  0  0
 28 29  1  0  0  0  0
 29 31  2  0  0  0  0
 29 30  1  0  0  0  0
 32 16  1  0  0  0  0
 33 34  1  0  0  0  0
 33 32  1  0  0  0  0
 36 42  1  0  0  0  0
 37 39  1  1  0  0  0
 37 35  1  0  0  0  0
 38 41  1  0  0  0  0
 40 38  1  1  0  0  0
 40 36  1  0  0  0  0
 40 37  1  0  0  0  0
 41 39  1  0  0  0  0
 42 35  1  0  0  0  0
 42 34  1  1  0  0  0
M  END
>  <MODEL>
5

>  <REMARK>
 VINA RESULT:      -7.1      1.933      2.903
  Name = 
  12 active torsions:
  status: ('A' for Active; 'I' for Inactive)
    1  A    between atoms: C_1  and  C_10
    2  A    between atoms: C_1  and  C_34
    3  A    between atoms: C_2  and  C_11
    4  A    between atoms: C_2  and  C_16
    5  A    between atoms: C_4  and  C_10
    6  A    between atoms: C_6  and  C_30
    7  A    between atoms: C_8  and  C_40
    8  A    between atoms: C_11  and  C_38
    9  A    between atoms: N_12  and  N_24
   10  A    between atoms: C_16  and  N_39
   11  A    between atoms: N_24  and  C_30
   12  A    between atoms: C_34  and  C_40
                            x       y       z     vdW  Elec       q    Type
                         _______ _______ _______ _____ _____    ______ ____

>  <TORSDO>
F 12

$$$$
=
 OpenBabel11042413383D

 42 48  0  0  1  0  0  0  0  0999 V2000
  192.2830  172.6800  143.9180 C   0  0  0  0  0  0  0  0  0  0  0  0
  194.6420  172.7470  144.5160 C   0  0  0  0  0  0  0  0  0  0  0  0
  192.6210  172.3430  142.5850 C   0  0  0  0  0  0  0  0  0  0  0  0
  191.8850  171.3990  140.3810 C   0  0  0  0  0  3  0  0  0  0  0  0
  190.9350  172.8090  144.3540 N   0  0  0  0  0  0  0  0  0  0  0  0
  193.2940  172.8770  144.8650 C   0  0  0  0  0  3  0  0  0  0  0  0
  189.9250  172.1910  140.0140 C   0  0  0  0  0  0  0  0  0  0  0  0
  191.6320  172.1120  141.4970 C   0  0  0  0  0  0  0  0  0  0  0  0
  188.5760  172.6010  139.6870 C   0  0  0  0  0  3  0  0  0  0  0  0
  189.2890  173.3410  141.7670 C   0  0  0  0  0  0  0  0  0  0  0  0
  190.3030  172.6610  141.2630 C   0  0  0  0  0  0  0  0  0  0  0  0
  193.9820  172.1940  142.2610 C   0  0  0  0  0  3  0  0  0  0  0  0
  189.1800  173.9110  143.1360 C   0  0  0  0  0  2  0  0  0  0  0  0
  194.9830  172.3960  143.2120 C   0  0  0  0  0  3  0  0  0  0  0  0
  189.4970  172.8130  144.1490 C   0  0  2  0  0  3  0  0  0  0  0  0
  189.9510  173.1850  145.3750 N   0  0  0  0  0  0  0  0  0  0  0  0
  190.7860  171.4240  139.4450 N   0  0  0  0  0  0  0  0  0  0  0  0
  188.1930  173.3080  140.7650 C   0  0  0  0  0  3  0  0  0  0  0  0
  197.0530  172.4100  145.0210 C   0  0  0  0  0  1  0  0  0  0  0  0
  195.7270  172.9510  145.5250 C   0  0  1  0  0  3  0  0  0  0  0  0
  195.8510  174.3610  145.8500 N   0  0  0  0  0  2  0  0  0  0  0  0
  196.3180  175.8400  143.9340 C   0  0  0  0  0  0  0  0  0  0  0  0
  196.7530  174.9140  144.9300 N   0  0  0  0  0  2  0  0  0  0  0  0
  197.1800  176.3410  143.1120 N   0  0  0  0  0  2  0  0  0  0  0  0
  194.8790  176.2180  143.8200 C   0  0  0  0  0  2  0  0  0  0  0  0
  194.3280  175.8660  142.4520 C   0  0  0  0  0  2  0  0  0  0  0  0
  192.8170  176.0810  142.4190 C   0  0  0  0  0  2  0  0  0  0  0  0
  192.3270  176.6930  143.7220 C   0  0  0  0  0  2  0  0  0  0  0  0
  191.2350  177.6800  143.4690 C   0  0  0  0  0  0  0  0  0  0  0  0
  190.0660  177.2800  142.7660 N   0  0  0  0  0  1  0  0  0  0  0  0
  191.3390  178.8630  143.8880 O   0  0  0  0  0  0  0  0  0  0  0  0
  190.0970  174.6270  145.5900 C   0  0  0  0  0  2  0  0  0  0  0  0
  189.2580  175.0590  146.7770 C   0  0  0  0  0  2  0  0  0  0  0  0
  188.7230  176.4650  146.5600 C   0  0  0  0  0  2  0  0  0  0  0  0
  187.0140  176.8860  144.8030 C   0  0  0  0  0  2  0  0  0  0  0  0
  186.3330  177.5580  147.2630 S   0  0  0  0  0  0  0  0  0  0  0  0
  185.6110  177.2430  144.6600 N   0  0  2  0  0  0  0  0  0  0  0  0
  185.1070  179.3470  145.6650 N   0  0  0  0  0  2  0  0  0  0  0  0
  185.5400  178.2460  143.6160 C   0  0  0  0  0  2  0  0  0  0  0  0
  185.1840  177.9130  145.8920 C   0  0  2  0  0  3  0  0  0  0  0  0
  184.9470  179.4840  144.2320 C   0  0  0  0  0  2  0  0  0  0  0  0
  187.2440  176.4150  146.2140 C   0  0  2  0  0  3  0  0  0  0  0  0
  1  5  1  0  0  0  0
  1  6  1  0  0  0  0
  2  6  2  0  0  0  0
  2 20  1  0  0  0  0
  3  1  2  0  0  0  0
  4  8  1  0  0  0  0
  5 16  1  0  0  0  0
  7 11  1  0  0  0  0
  8  3  1  0  0  0  0
  9  7  2  0  0  0  0
  9 18  1  0  0  0  0
 10 13  1  0  0  0  0
 11  8  2  0  0  0  0
 11 10  1  0  0  0  0
 12  3  1  0  0  0  0
 12 14  2  0  0  0  0
 14  2  1  0  0  0  0
 15 13  1  6  0  0  0
 15  5  1  0  0  0  0
 15 16  1  0  0  0  0
 16 32  1  0  0  0  0
 17  7  1  0  0  0  0
 17  4  2  0  0  0  0
 18 10  2  0  0  0  0
 20 19  1  6  0  0  0
 20 21  1  0  0  0  0
 22 23  1  0  0  0  0
 23 21  1  0  0  0  0
 24 22  2  0  0  0  0
 25 22  1  0  0  0  0
 26 25  1  0  0  0  0
 27 26  1  0  0  0  0
 27 28  1  0  0  0  0
 29 28  1  0  0  0  0
 29 31  2  0  0  0  0
 30 29  1  0  0  0  0
 32 33  1  0  0  0  0
 34 33  1  0  0  0  0
 35 42  1  0  0  0  0
 37 39  1  6  0  0  0
 37 35  1  0  0  0  0
 37 40  1  0  0  0  0
 39 41  1  0  0  0  0
 40 38  1  6  0  0  0
 40 36  1  0  0  0  0
 41 38  1  0  0  0  0
 42 34  1  1  0  0  0
 42 36  1  0  0  0  0
M  END
>  <MODEL>
6

>  <REMARK>
 VINA RESULT:      -7.1      2.500      6.968
  Name = 
  12 active torsions:
  status: ('A' for Active; 'I' for Inactive)
    1  A    between atoms: C_1  and  C_10
    2  A    between atoms: C_1  and  C_34
    3  A    between atoms: C_2  and  C_11
    4  A    between atoms: C_2  and  C_16
    5  A    between atoms: C_4  and  C_10
    6  A    between atoms: C_6  and  C_30
    7  A    between atoms: C_8  and  C_40
    8  A    between atoms: C_11  and  C_38
    9  A    between atoms: N_12  and  N_24
   10  A    between atoms: C_16  and  N_39
   11  A    between atoms: N_24  and  C_30
   12  A    between atoms: C_34  and  C_40
                            x       y       z     vdW  Elec       q    Type
                         _______ _______ _______ _____ _____    ______ ____

>  <TORSDO>
F 12

$$$$
=
 OpenBabel11042413383D

 42 48  0  0  1  0  0  0  0  0999 V2000
  188.5630  176.0060  144.5140 C   0  0  0  0  0  0  0  0  0  0  0  0
  190.1040  174.3730  145.4570 C   0  0  0  0  0  0  0  0  0  0  0  0
  188.0220  176.2510  145.8000 C   0  0  0  0  0  0  0  0  0  0  0  0
  186.6940  177.7680  147.2920 C   0  0  0  0  0  3  0  0  0  0  0  0
  188.1120  176.6940  143.3530 N   0  0  0  0  0  0  0  0  0  0  0  0
  189.5940  175.0730  144.3580 C   0  0  0  0  0  3  0  0  0  0  0  0
  185.0360  178.4610  146.1190 C   0  0  0  0  0  0  0  0  0  0  0  0
  186.9250  177.2170  146.0830 C   0  0  0  0  0  0  0  0  0  0  0  0
  183.9190  179.0520  145.4130 C   0  0  0  0  0  3  0  0  0  0  0  0
  185.2640  177.7230  144.0690 C   0  0  0  0  0  0  0  0  0  0  0  0
  185.8050  177.6750  145.2730 C   0  0  0  0  0  0  0  0  0  0  0  0
  188.5640  175.5530  146.8950 C   0  0  0  0  0  3  0  0  0  0  0  0
  185.8160  177.1510  142.8120 C   0  0  0  0  0  2  0  0  0  0  0  0
  189.5910  174.6230  146.7280 C   0  0  0  0  0  3  0  0  0  0  0  0
  187.2560  177.6310  142.6470 C   0  0  2  0  0  3  0  0  0  0  0  0
  188.1010  176.8750  141.8980 N   0  0  0  0  0  0  0  0  0  0  0  0
  185.5040  178.5850  147.3090 N   0  0  0  0  0  0  0  0  0  0  0  0
  184.0640  178.5930  144.1560 C   0  0  0  0  0  3  0  0  0  0  0  0
  190.7830  172.2240  144.4080 C   0  0  0  0  0  1  0  0  0  0  0  0
  191.2090  173.3790  145.2970 C   0  0  1  0  0  3  0  0  0  0  0  0
  192.3890  174.0240  144.7490 N   0  0  0  0  0  2  0  0  0  0  0  0
  193.7620  175.9160  145.5320 C   0  0  0  0  0  0  0  0  0  0  0  0
  192.9790  174.7510  145.7920 N   0  0  0  0  0  2  0  0  0  0  0  0
  194.2780  176.5700  146.5200 N   0  0  0  0  0  2  0  0  0  0  0  0
  194.0080  176.3720  144.1330 C   0  0  0  0  0  2  0  0  0  0  0  0
  195.4900  176.3920  143.8160 C   0  0  0  0  0  2  0  0  0  0  0  0
  195.9680  174.9940  143.4330 C   0  0  0  0  0  2  0  0  0  0  0  0
  197.1350  174.5610  144.3080 C   0  0  0  0  0  2  0  0  0  0  0  0
  196.6830  173.6050  145.3640 C   0  0  0  0  0  0  0  0  0  0  0  0
  195.6820  172.6410  145.0640 N   0  0  0  0  0  1  0  0  0  0  0  0
  197.1930  173.6410  146.5130 O   0  0  0  0  0  0  0  0  0  0  0  0
  187.5260  175.6550  141.3260 C   0  0  0  0  0  2  0  0  0  0  0  0
  188.5790  174.9170  140.5200 C   0  0  0  0  0  2  0  0  0  0  0  0
  188.6470  173.4610  140.9510 C   0  0  0  0  0  2  0  0  0  0  0  0
  190.0660  171.4210  140.8710 C   0  0  0  0  0  2  0  0  0  0  0  0
  191.2990  173.7060  140.4000 S   0  0  0  0  0  0  0  0  0  0  0  0
  191.3940  170.9890  140.4660 N   0  0  2  0  0  0  0  0  0  0  0  0
  193.1180  172.1500  141.6380 N   0  0  0  0  0  2  0  0  0  0  0  0
  191.8940  170.1290  141.5210 C   0  0  0  0  0  2  0  0  0  0  0  0
  192.2700  172.1640  140.4560 C   0  0  2  0  0  3  0  0  0  0  0  0
  193.1520  170.7620  142.0500 C   0  0  0  0  0  2  0  0  0  0  0  0
  189.7830  172.7540  140.2310 C   0  0  2  0  0  3  0  0  0  0  0  0
  1  3  1  0  0  0  0
  2 14  2  0  0  0  0
  3  8  1  0  0  0  0
  3 12  2  0  0  0  0
  4 17  1  0  0  0  0
  5  1  1  0  0  0  0
  6  1  2  0  0  0  0
  6  2  1  0  0  0  0
  7 17  2  0  0  0  0
  8  4  2  0  0  0  0
  9  7  1  0  0  0  0
 10 18  1  0  0  0  0
 10 11  2  0  0  0  0
 11  8  1  0  0  0  0
 11  7  1  0  0  0  0
 13 10  1  0  0  0  0
 14 12  1  0  0  0  0
 15 13  1  6  0  0  0
 15  5  1  0  0  0  0
 16 15  1  0  0  0  0
 16  5  1  0  0  0  0
 18  9  2  0  0  0  0
 20 19  1  6  0  0  0
 20  2  1  0  0  0  0
 21 20  1  0  0  0  0
 21 23  1  0  0  0  0
 22 23  1  0  0  0  0
 22 24  2  0  0  0  0
 25 22  1  0  0  0  0
 26 25  1  0  0  0  0
 27 26  1  0  0  0  0
 27 28  1  0  0  0  0
 28 29  1  0  0  0  0
 29 31  2  0  0  0  0
 30 29  1  0  0  0  0
 32 16  1  0  0  0  0
 33 34  1  0  0  0  0
 33 32  1  0  0  0  0
 37 35  1  1  0  0  0
 37 39  1  0  0  0  0
 38 41  1  0  0  0  0
 39 41  1  0  0  0  0
 40 36  1  1  0  0  0
 40 37  1  0  0  0  0
 40 38  1  0  0  0  0
 42 36  1  0  0  0  0
 42 35  1  0  0  0  0
 42 34  1  1  0  0  0
M  END
>  <MODEL>
7

>  <REMARK>
 VINA RESULT:      -7.1      1.908      2.722
  Name = 
  12 active torsions:
  status: ('A' for Active; 'I' for Inactive)
    1  A    between atoms: C_1  and  C_10
    2  A    between atoms: C_1  and  C_34
    3  A    between atoms: C_2  and  C_11
    4  A    between atoms: C_2  and  C_16
    5  A    between atoms: C_4  and  C_10
    6  A    between atoms: C_6  and  C_30
    7  A    between atoms: C_8  and  C_40
    8  A    between atoms: C_11  and  C_38
    9  A    between atoms: N_12  and  N_24
   10  A    between atoms: C_16  and  N_39
   11  A    between atoms: N_24  and  C_30
   12  A    between atoms: C_34  and  C_40
                            x       y       z     vdW  Elec       q    Type
                         _______ _______ _______ _____ _____    ______ ____

>  <TORSDO>
F 12

$$$$
=
 OpenBabel11042413383D

 42 48  0  0  1  0  0  0  0  0999 V2000
  188.7140  175.5360  144.2780 C   0  0  0  0  0  0  0  0  0  0  0  0
  190.0760  174.7150  142.4350 C   0  0  0  0  0  0  0  0  0  0  0  0
  187.8050  176.1160  143.3590 C   0  0  0  0  0  0  0  0  0  0  0  0
  185.5160  177.0530  142.9410 C   0  0  0  0  0  3  0  0  0  0  0  0
  188.5250  175.6090  145.6860 N   0  0  0  0  0  0  0  0  0  0  0  0
  189.8350  174.8460  143.8070 C   0  0  0  0  0  3  0  0  0  0  0  0
  185.0410  178.2580  144.6510 C   0  0  0  0  0  0  0  0  0  0  0  0
  186.5830  176.8730  143.7460 C   0  0  0  0  0  0  0  0  0  0  0  0
  184.5750  179.0410  145.7760 C   0  0  0  0  0  3  0  0  0  0  0  0
  186.6400  178.0440  146.1330 C   0  0  0  0  0  0  0  0  0  0  0  0
  186.2780  177.6880  144.9140 C   0  0  0  0  0  0  0  0  0  0  0  0
  188.0530  175.9520  141.9840 C   0  0  0  0  0  3  0  0  0  0  0  0
  187.8220  177.5630  146.8960 C   0  0  0  0  0  2  0  0  0  0  0  0
  189.1760  175.2630  141.5250 C   0  0  0  0  0  3  0  0  0  0  0  0
  187.8230  176.0360  146.8840 C   0  0  2  0  0  3  0  0  0  0  0  0
  189.0100  175.3950  147.0540 N   0  0  0  0  0  0  0  0  0  0  0  0
  184.5180  177.9150  143.5280 N   0  0  0  0  0  0  0  0  0  0  0  0
  185.5620  178.9060  146.6810 C   0  0  0  0  0  3  0  0  0  0  0  0
  191.4940  172.6910  142.7100 C   0  0  0  0  0  1  0  0  0  0  0  0
  191.2700  173.9720  141.9260 C   0  0  1  0  0  3  0  0  0  0  0  0
  191.1120  173.6740  140.5140 N   0  0  0  0  0  2  0  0  0  0  0  0
  192.2130  172.0720  138.9970 C   0  0  0  0  0  0  0  0  0  0  0  0
  191.7190  172.4310  140.2880 N   0  0  0  0  0  2  0  0  0  0  0  0
  192.7800  170.9230  138.8300 N   0  0  0  0  0  2  0  0  0  0  0  0
  192.0600  172.9990  137.8380 C   0  0  0  0  0  2  0  0  0  0  0  0
  191.3810  172.3090  136.6710 C   0  0  0  0  0  2  0  0  0  0  0  0
  189.8640  172.4090  136.8060 C   0  0  0  0  0  2  0  0  0  0  0  0
  189.4390  173.8420  137.0900 C   0  0  0  0  0  2  0  0  0  0  0  0
  188.3850  173.8840  138.1490 C   0  0  0  0  0  0  0  0  0  0  0  0
  188.1930  172.7640  139.0020 N   0  0  0  0  0  1  0  0  0  0  0  0
  187.6750  174.9130  138.2960 O   0  0  0  0  0  0  0  0  0  0  0  0
  190.1810  176.2590  147.2260 C   0  0  0  0  0  2  0  0  0  0  0  0
  191.4050  175.4150  147.5220 C   0  0  0  0  0  2  0  0  0  0  0  0
  192.6430  176.0490  146.9080 C   0  0  0  0  0  2  0  0  0  0  0  0
  194.4230  174.7390  145.7690 C   0  0  0  0  0  2  0  0  0  0  0  0
  193.1120  176.4640  144.2610 S   0  0  0  0  0  0  0  0  0  0  0  0
  194.9240  174.4440  144.4350 N   0  0  2  0  0  0  0  0  0  0  0  0
  195.6200  176.4100  143.2760 N   0  0  0  0  0  2  0  0  0  0  0  0
  196.3700  174.5320  144.5040 C   0  0  0  0  0  2  0  0  0  0  0  0
  194.4970  175.5220  143.5400 C   0  0  2  0  0  3  0  0  0  0  0  0
  196.7940  175.6040  143.5380 C   0  0  0  0  0  2  0  0  0  0  0  0
  193.0360  175.3110  145.6390 C   0  0  2  0  0  3  0  0  0  0  0  0
  1  5  1  0  0  0  0
  2  6  2  0  0  0  0
  3  8  1  0  0  0  0
  3  1  2  0  0  0  0
  4 17  2  0  0  0  0
  4  8  1  0  0  0  0
  5 15  1  0  0  0  0
  5 16  1  0  0  0  0
  6  1  1  0  0  0  0
  7 11  1  0  0  0  0
  7  9  2  0  0  0  0
  8 11  2  0  0  0  0
  9 18  1  0  0  0  0
 10 18  2  0  0  0  0
 10 13  1  0  0  0  0
 11 10  1  0  0  0  0
 12  3  1  0  0  0  0
 14 12  2  0  0  0  0
 14  2  1  0  0  0  0
 15 13  1  6  0  0  0
 15 16  1  0  0  0  0
 16 32  1  0  0  0  0
 17  7  1  0  0  0  0
 20  2  1  0  0  0  0
 20 19  1  1  0  0  0
 21 20  1  0  0  0  0
 22 23  1  0  0  0  0
 23 21  1  0  0  0  0
 24 22  2  0  0  0  0
 25 22  1  0  0  0  0
 26 27  1  0  0  0  0
 26 25  1  0  0  0  0
 27 28  1  0  0  0  0
 28 29  1  0  0  0  0
 29 31  2  0  0  0  0
 29 30  1  0  0  0  0
 32 33  1  0  0  0  0
 34 33  1  0  0  0  0
 36 42  1  0  0  0  0
 37 39  1  1  0  0  0
 37 35  1  0  0  0  0
 38 41  1  0  0  0  0
 40 38  1  1  0  0  0
 40 36  1  0  0  0  0
 40 37  1  0  0  0  0
 41 39  1  0  0  0  0
 42 35  1  0  0  0  0
 42 34  1  1  0  0  0
M  END
>  <MODEL>
8

>  <REMARK>
 VINA RESULT:      -7.0      2.525      5.886
  Name = 
  12 active torsions:
  status: ('A' for Active; 'I' for Inactive)
    1  A    between atoms: C_1  and  C_10
    2  A    between atoms: C_1  and  C_34
    3  A    between atoms: C_2  and  C_11
    4  A    between atoms: C_2  and  C_16
    5  A    between atoms: C_4  and  C_10
    6  A    between atoms: C_6  and  C_30
    7  A    between atoms: C_8  and  C_40
    8  A    between atoms: C_11  and  C_38
    9  A    between atoms: N_12  and  N_24
   10  A    between atoms: C_16  and  N_39
   11  A    between atoms: N_24  and  C_30
   12  A    between atoms: C_34  and  C_40
                            x       y       z     vdW  Elec       q    Type
                         _______ _______ _______ _____ _____    ______ ____

>  <TORSDO>
F 12

$$$$
=
 OpenBabel11042413383D

 42 48  0  0  1  0  0  0  0  0999 V2000
  188.8600  175.4770  144.3350 C   0  0  0  0  0  0  0  0  0  0  0  0
  190.2650  174.6230  142.5390 C   0  0  0  0  0  0  0  0  0  0  0  0
  187.9700  176.0360  143.3860 C   0  0  0  0  0  0  0  0  0  0  0  0
  185.6890  176.9590  142.8990 C   0  0  0  0  0  3  0  0  0  0  0  0
  188.6410  175.5760  145.7370 N   0  0  0  0  0  0  0  0  0  0  0  0
  189.9930  174.7800  143.9020 C   0  0  0  0  0  3  0  0  0  0  0  0
  185.1740  178.1950  144.5750 C   0  0  0  0  0  0  0  0  0  0  0  0
  186.7390  176.7970  143.7310 C   0  0  0  0  0  0  0  0  0  0  0  0
  184.6820  178.9980  145.6740 C   0  0  0  0  0  3  0  0  0  0  0  0
  186.7410  178.0140  146.0960 C   0  0  0  0  0  0  0  0  0  0  0  0
  186.4060  177.6340  144.8760 C   0  0  0  0  0  0  0  0  0  0  0  0
  188.2500  175.8470  142.0200 C   0  0  0  0  0  3  0  0  0  0  0  0
  187.9070  177.5510  146.8940 C   0  0  0  0  0  2  0  0  0  0  0  0
  189.3840  175.1510  141.5990 C   0  0  0  0  0  3  0  0  0  0  0  0
  187.9110  176.0240  146.9110 C   0  0  2  0  0  3  0  0  0  0  0  0
  189.0950  175.3900  147.1200 N   0  0  0  0  0  0  0  0  0  0  0  0
  184.6770  177.8290  143.4470 N   0  0  0  0  0  0  0  0  0  0  0  0
  185.6490  178.8840  146.6030 C   0  0  0  0  0  3  0  0  0  0  0  0
  191.3510  172.3930  142.3820 C   0  0  0  0  0  1  0  0  0  0  0  0
  191.4710  173.8740  142.0700 C   0  0  1  0  0  3  0  0  0  0  0  0
  191.6630  174.0720  140.6450 N   0  0  0  0  0  2  0  0  0  0  0  0
  191.0030  172.4820  138.8800 C   0  0  0  0  0  0  0  0  0  0  0  0
  191.7390  172.8000  140.0620 N   0  0  0  0  0  2  0  0  0  0  0  0
  191.1090  171.3040  138.3620 N   0  0  0  0  0  2  0  0  0  0  0  0
  190.0990  173.4900  138.2520 C   0  0  0  0  0  2  0  0  0  0  0  0
  188.6520  173.2340  138.6250 C   0  0  0  0  0  2  0  0  0  0  0  0
  187.8010  174.4650  138.3240 C   0  0  0  0  0  2  0  0  0  0  0  0
  188.1040  175.0070  136.9350 C   0  0  0  0  0  2  0  0  0  0  0  0
  187.1020  176.0420  136.5380 C   0  0  0  0  0  0  0  0  0  0  0  0
  187.4370  177.0100  135.5530 N   0  0  0  0  0  1  0  0  0  0  0  0
  185.9580  176.0520  137.0620 O   0  0  0  0  0  0  0  0  0  0  0  0
  190.2600  176.2600  147.3000 C   0  0  0  0  0  2  0  0  0  0  0  0
  191.5340  175.4390  147.2260 C   0  0  0  0  0  2  0  0  0  0  0  0
  192.6370  176.2380  146.5520 C   0  0  0  0  0  2  0  0  0  0  0  0
  194.9160  176.1070  145.5670 C   0  0  0  0  0  2  0  0  0  0  0  0
  193.4570  173.9140  145.4020 S   0  0  0  0  0  0  0  0  0  0  0  0
  195.8610  175.1340  145.0420 N   0  0  2  0  0  0  0  0  0  0  0  0
  194.9790  173.9340  143.1780 N   0  0  0  0  0  2  0  0  0  0  0  0
  196.4120  175.7010  143.8270 C   0  0  0  0  0  2  0  0  0  0  0  0
  195.1080  173.9470  144.6270 C   0  0  2  0  0  3  0  0  0  0  0  0
  196.0710  174.7580  142.7050 C   0  0  0  0  0  2  0  0  0  0  0  0
  193.8720  175.3740  146.3670 C   0  0  2  0  0  3  0  0  0  0  0  0
  1  5  1  0  0  0  0
  2  6  2  0  0  0  0
  3  8  1  0  0  0  0
  3  1  2  0  0  0  0
  4 17  2  0  0  0  0
  4  8  1  0  0  0  0
  5 15  1  0  0  0  0
  5 16  1  0  0  0  0
  6  1  1  0  0  0  0
  7 11  1  0  0  0  0
  7  9  2  0  0  0  0
  8 11  2  0  0  0  0
  9 18  1  0  0  0  0
 10 18  2  0  0  0  0
 10 13  1  0  0  0  0
 11 10  1  0  0  0  0
 12  3  1  0  0  0  0
 14 12  2  0  0  0  0
 14  2  1  0  0  0  0
 15 13  1  6  0  0  0
 15 16  1  0  0  0  0
 16 32  1  0  0  0  0
 17  7  1  0  0  0  0
 20 19  1  6  0  0  0
 20  2  1  0  0  0  0
 21 20  1  0  0  0  0
 22 23  1  0  0  0  0
 23 21  1  0  0  0  0
 24 22  2  0  0  0  0
 25 26  1  0  0  0  0
 25 22  1  0  0  0  0
 27 26  1  0  0  0  0
 28 27  1  0  0  0  0
 29 28  1  0  0  0  0
 29 31  2  0  0  0  0
 30 29  1  0  0  0  0
 33 32  1  0  0  0  0
 34 33  1  0  0  0  0
 35 42  1  0  0  0  0
 36 42  1  0  0  0  0
 37 39  1  6  0  0  0
 37 35  1  0  0  0  0
 40 38  1  6  0  0  0
 40 37  1  0  0  0  0
 40 36  1  0  0  0  0
 41 38  1  0  0  0  0
 41 39  1  0  0  0  0
 42 34  1  6  0  0  0
M  END
>  <MODEL>
9

>  <REMARK>
 VINA RESULT:      -7.0      2.790      6.069
  Name = 
  12 active torsions:
  status: ('A' for Active; 'I' for Inactive)
    1  A    between atoms: C_1  and  C_10
    2  A    between atoms: C_1  and  C_34
    3  A    between atoms: C_2  and  C_11
    4  A    between atoms: C_2  and  C_16
    5  A    between atoms: C_4  and  C_10
    6  A    between atoms: C_6  and  C_30
    7  A    between atoms: C_8  and  C_40
    8  A    between atoms: C_11  and  C_38
    9  A    between atoms: N_12  and  N_24
   10  A    between atoms: C_16  and  N_39
   11  A    between atoms: N_24  and  C_30
   12  A    between atoms: C_34  and  C_40
                            x       y       z     vdW  Elec       q    Type
                         _______ _______ _______ _____ _____    ______ ____

>  <TORSDO>
F 12

$$$$
