=
 OpenBabel11042416163D

 33 36  0  0  1  0  0  0  0  0999 V2000
  188.2220  177.0020  143.3960 C   0  0  0  0  0  3  0  0  0  0  0  0
  189.0070  175.5850  145.2080 C   0  0  0  0  0  0  0  0  0  0  0  0
  191.8090  176.2590  145.9250 C   0  0  2  0  0  3  0  0  0  0  0  0
  191.4060  174.8290  145.5290 C   0  0  1  0  0  3  0  0  0  0  0  0
  186.3630  178.6040  143.6360 C   0  0  0  0  0  1  0  0  0  0  0  0
  188.4830  173.6260  142.3950 C   0  0  0  0  0  1  0  0  0  0  0  0
  187.2510  177.5620  144.2280 C   0  0  0  0  0  0  0  0  0  0  0  0
  188.0270  176.1490  146.0350 C   0  0  0  0  0  3  0  0  0  0  0  0
  189.7900  174.3410  142.2440 C   0  0  0  0  0  0  0  0  0  0  0  0
  192.0380  172.8190  139.8700 C   0  0  0  0  0  0  0  0  0  0  0  0
  191.9840  174.5530  141.2230 C   0  0  0  0  0  0  0  0  0  0  0  0
  192.3230  173.7240  146.0340 C   0  0  0  0  0  1  0  0  0  0  0  0
  191.6550  177.3310  143.6430 C   0  0  0  0  0  2  0  0  0  0  0  0
  191.3020  176.1340  142.8070 C   0  0  0  0  0  0  0  0  0  0  0  0
  190.8060  172.7880  140.5080 C   0  0  0  0  0  0  0  0  0  0  0  0
  190.7460  173.8620  141.3610 C   0  0  0  0  0  0  0  0  0  0  0  0
  192.7940  173.9160  140.3030 C   0  0  0  0  0  3  0  0  0  0  0  0
  189.7040  174.3360  147.1360 F   0  0  0  0  0  0  0  0  0  0  0  0
  189.9280  174.5260  145.7790 C   0  0  1  0  0  3  0  0  0  0  0  0
  190.0850  175.4820  142.9630 N   0  0  0  0  0  0  0  0  0  0  0  0
  189.8130  171.8340  140.3140 O   0  0  0  0  0  1  0  0  0  0  0  0
  192.2490  175.6630  141.9410 N   0  0  0  0  0  0  0  0  0  0  0  0
  192.5790  176.9510  144.7990 C   0  0  0  0  0  2  0  0  0  0  0  0
  187.1430  177.1320  145.5710 C   0  0  0  0  0  0  0  0  0  0  0  0
  189.0990  176.0190  143.8660 C   0  0  0  0  0  0  0  0  0  0  0  0
  192.4790  176.3840  147.2960 C   0  0  2  0  0  3  0  0  0  0  0  0
  191.5350  177.0340  148.2880 C   0  0  0  0  0  1  0  0  0  0  0  0
  193.6590  177.1260  147.2140 O   0  0  0  0  0  1  0  0  0  0  0  0
  184.8350  177.1930  146.4950 O   0  0  0  0  0  0  0  0  0  0  0  0
  186.1430  177.6660  146.5270 C   0  0  0  0  0  0  0  0  0  0  0  0
  186.4480  178.5450  147.3750 O   0  0  0  0  0  1  0  0  0  0  0  0
  192.4490  171.8730  138.9290 O   0  0  0  0  0  0  0  0  0  0  0  0
  192.0780  171.9620  137.5630 C   0  0  0  0  0  1  0  0  0  0  0  0
  1 25  2  0  0  0  0
  1  7  1  0  0  0  0
  2 19  1  0  0  0  0
  2  8  2  0  0  0  0
  3 26  1  1  0  0  0
  4 19  1  0  0  0  0
  4  3  1  0  0  0  0
  4 12  1  1  0  0  0
  5  7  1  0  0  0  0
  7 24  2  0  0  0  0
  9  6  1  0  0  0  0
  9 20  1  0  0  0  0
 10 17  1  0  0  0  0
 10 15  2  0  0  0  0
 11 16  1  0  0  0  0
 11 22  1  0  0  0  0
 13 23  1  0  0  0  0
 14 20  1  0  0  0  0
 14 13  1  0  0  0  0
 15 16  1  0  0  0  0
 16  9  2  0  0  0  0
 17 11  2  0  0  0  0
 19 18  1  1  0  0  0
 20 25  1  0  0  0  0
 21 15  1  0  0  0  0
 22 14  2  0  0  0  0
 23  3  1  0  0  0  0
 24  8  1  0  0  0  0
 24 30  1  0  0  0  0
 25  2  1  0  0  0  0
 26 27  1  1  0  0  0
 28 26  1  0  0  0  0
 29 30  2  0  0  0  0
 30 31  1  0  0  0  0
 32 10  1  0  0  0  0
 33 32  1  0  0  0  0
M  END
>  <MODEL>
1

>  <REMARK>
 VINA RESULT:      -7.6      0.000      0.000
  Name = 
  3 active torsions:
  status: ('A' for Active; 'I' for Inactive)
    1  A    between atoms: C_3  and  C_6
    2  A    between atoms: O_5  and  C_16
    3  A    between atoms: C_14  and  C_31
                            x       y       z     vdW  Elec       q    Type
                         _______ _______ _______ _____ _____    ______ ____

>  <TORSDO>
F 3

$$$$
=
 OpenBabel11042416163D

 33 36  0  0  1  0  0  0  0  0999 V2000
  192.5450  176.4280  145.0990 C   0  0  0  0  0  3  0  0  0  0  0  0
  191.9580  174.0770  144.9170 C   0  0  0  0  0  0  0  0  0  0  0  0
  190.8380  173.4830  142.2320 C   0  0  2  0  0  3  0  0  0  0  0  0
  190.0560  173.1560  143.5150 C   0  0  1  0  0  3  0  0  0  0  0  0
  194.8530  177.2280  145.4330 C   0  0  0  0  0  1  0  0  0  0  0  0
  189.8720  175.5780  147.2450 C   0  0  0  0  0  1  0  0  0  0  0  0
  193.8910  176.1010  145.2610 C   0  0  0  0  0  0  0  0  0  0  0  0
  193.3110  173.7560  145.0850 C   0  0  0  0  0  3  0  0  0  0  0  0
  189.3810  175.9190  145.8710 C   0  0  0  0  0  0  0  0  0  0  0  0
  185.9270  176.9500  145.7540 C   0  0  0  0  0  0  0  0  0  0  0  0
  187.6160  176.6570  144.3750 C   0  0  0  0  0  0  0  0  0  0  0  0
  188.9990  172.0690  143.3830 C   0  0  0  0  0  1  0  0  0  0  0  0
  190.5910  175.9960  142.2790 C   0  0  0  0  0  2  0  0  0  0  0  0
  189.7260  176.1580  143.4970 C   0  0  0  0  0  0  0  0  0  0  0  0
  187.0000  176.5240  146.5240 C   0  0  0  0  0  0  0  0  0  0  0  0
  188.0700  176.3320  145.6850 C   0  0  0  0  0  0  0  0  0  0  0  0
  186.2890  177.0400  144.4030 C   0  0  0  0  0  3  0  0  0  0  0  0
  191.5820  171.7190  144.6670 F   0  0  0  0  0  0  0  0  0  0  0  0
  190.9560  172.9550  144.7370 C   0  0  1  0  0  3  0  0  0  0  0  0
  190.1990  175.8350  144.7630 N   0  0  0  0  0  0  0  0  0  0  0  0
  186.9870  176.3270  147.9000 O   0  0  0  0  0  1  0  0  0  0  0  0
  188.4340  176.5620  143.3080 N   0  0  0  0  0  0  0  0  0  0  0  0
  190.2580  174.7090  141.5260 C   0  0  0  0  0  2  0  0  0  0  0  0
  194.2900  174.7440  145.2570 C   0  0  0  0  0  0  0  0  0  0  0  0
  191.5730  175.4360  144.9310 C   0  0  0  0  0  0  0  0  0  0  0  0
  191.0750  172.2910  141.3010 C   0  0  2  0  0  3  0  0  0  0  0  0
  192.5120  171.8190  141.4010 C   0  0  0  0  0  1  0  0  0  0  0  0
  190.7800  172.6200  139.9760 O   0  0  0  0  0  1  0  0  0  0  0  0
  196.4550  173.9760  144.3040 O   0  0  0  0  0  0  0  0  0  0  0  0
  195.6950  174.3000  145.4230 C   0  0  0  0  0  0  0  0  0  0  0  0
  196.2240  174.2060  146.5620 O   0  0  0  0  0  1  0  0  0  0  0  0
  184.6660  177.2420  146.2760 O   0  0  0  0  0  0  0  0  0  0  0  0
  184.0390  178.4980  146.0680 C   0  0  0  0  0  1  0  0  0  0  0  0
  1  7  1  0  0  0  0
  2 25  1  0  0  0  0
  2  8  2  0  0  0  0
  3 26  1  6  0  0  0
  3  4  1  0  0  0  0
  4 12  1  6  0  0  0
  4 19  1  0  0  0  0
  7  5  1  0  0  0  0
  8 24  1  0  0  0  0
  9  6  1  0  0  0  0
 10 32  1  0  0  0  0
 10 15  2  0  0  0  0
 11 17  2  0  0  0  0
 11 16  1  0  0  0  0
 13 14  1  0  0  0  0
 14 20  1  0  0  0  0
 15 21  1  0  0  0  0
 16  9  2  0  0  0  0
 16 15  1  0  0  0  0
 17 10  1  0  0  0  0
 19 18  1  6  0  0  0
 19  2  1  0  0  0  0
 20 25  1  0  0  0  0
 20  9  1  0  0  0  0
 22 14  2  0  0  0  0
 22 11  1  0  0  0  0
 23  3  1  0  0  0  0
 23 13  1  0  0  0  0
 24  7  2  0  0  0  0
 24 30  1  0  0  0  0
 25  1  2  0  0  0  0
 26 27  1  6  0  0  0
 28 26  1  0  0  0  0
 29 30  2  0  0  0  0
 30 31  1  0  0  0  0
 33 32  1  0  0  0  0
M  END
>  <MODEL>
2

>  <REMARK>
 VINA RESULT:      -7.4      2.027      7.179
  Name = 
  3 active torsions:
  status: ('A' for Active; 'I' for Inactive)
    1  A    between atoms: C_3  and  C_6
    2  A    between atoms: O_5  and  C_16
    3  A    between atoms: C_14  and  C_31
                            x       y       z     vdW  Elec       q    Type
                         _______ _______ _______ _____ _____    ______ ____

>  <TORSDO>
F 3

$$$$
=
 OpenBabel11042416163D

 33 36  0  0  1  0  0  0  0  0999 V2000
  190.0790  172.9500  143.1360 C   0  0  0  0  0  3  0  0  0  0  0  0
  191.3860  174.9360  142.6310 C   0  0  0  0  0  0  0  0  0  0  0  0
  192.3700  176.2040  145.1290 C   0  0  2  0  0  3  0  0  0  0  0  0
  191.5360  176.9930  144.1060 C   0  0  1  0  0  3  0  0  0  0  0  0
  190.7420  170.6780  142.4440 C   0  0  0  0  0  1  0  0  0  0  0  0
  188.0890  175.5000  141.7190 C   0  0  0  0  0  1  0  0  0  0  0  0
  191.0100  172.1450  142.4790 C   0  0  0  0  0  0  0  0  0  0  0  0
  192.3140  174.1210  141.9690 C   0  0  0  0  0  3  0  0  0  0  0  0
  188.2110  175.6650  143.2030 C   0  0  0  0  0  0  0  0  0  0  0  0
  185.5580  177.6010  144.6940 C   0  0  0  0  0  0  0  0  0  0  0  0
  187.3790  176.5330  145.3140 C   0  0  0  0  0  0  0  0  0  0  0  0
  191.7040  178.5050  144.1470 C   0  0  0  0  0  1  0  0  0  0  0  0
  190.5300  174.7440  146.0570 C   0  0  0  0  0  2  0  0  0  0  0  0
  189.3530  175.2770  145.2910 C   0  0  0  0  0  0  0  0  0  0  0  0
  186.1130  177.0590  143.5430 C   0  0  0  0  0  0  0  0  0  0  0  0
  187.2550  176.3860  143.9020 C   0  0  0  0  0  0  0  0  0  0  0  0
  186.3350  177.2840  145.8160 C   0  0  0  0  0  3  0  0  0  0  0  0
  192.8530  176.7670  142.1210 F   0  0  0  0  0  0  0  0  0  0  0  0
  191.6310  176.4300  142.6860 C   0  0  1  0  0  3  0  0  0  0  0  0
  189.2580  175.1150  143.9140 N   0  0  0  0  0  0  0  0  0  0  0  0
  185.6000  177.1810  142.2570 O   0  0  0  0  0  1  0  0  0  0  0  0
  188.4150  175.9900  145.9840 N   0  0  0  0  0  0  0  0  0  0  0  0
  191.5410  175.8470  146.3640 C   0  0  0  0  0  2  0  0  0  0  0  0
  192.1490  172.7330  141.8800 C   0  0  0  0  0  0  0  0  0  0  0  0
  190.2500  174.3360  143.2180 C   0  0  0  0  0  0  0  0  0  0  0  0
  193.7340  176.8170  145.4590 C   0  0  2  0  0  3  0  0  0  0  0  0
  194.8420  176.0370  144.7810 C   0  0  0  0  0  1  0  0  0  0  0  0
  193.9540  176.8440  146.8380 O   0  0  0  0  0  1  0  0  0  0  0  0
  192.9740  171.5720  139.8410 O   0  0  0  0  0  0  0  0  0  0  0  0
  193.1900  171.9600  141.1590 C   0  0  0  0  0  0  0  0  0  0  0  0
  194.2740  171.6410  141.7140 O   0  0  0  0  0  1  0  0  0  0  0  0
  184.3840  178.3550  144.7080 O   0  0  0  0  0  0  0  0  0  0  0  0
  183.7750  178.7750  145.9190 C   0  0  0  0  0  1  0  0  0  0  0  0
  1 25  1  0  0  0  0
  2 19  1  0  0  0  0
  2 25  2  0  0  0  0
  3 26  1  1  0  0  0
  3 23  1  0  0  0  0
  4 12  1  6  0  0  0
  4  3  1  0  0  0  0
  5  7  1  0  0  0  0
  6  9  1  0  0  0  0
  7  1  2  0  0  0  0
  8  2  1  0  0  0  0
  9 16  2  0  0  0  0
  9 20  1  0  0  0  0
 10 32  1  0  0  0  0
 10 17  1  0  0  0  0
 11 17  2  0  0  0  0
 11 22  1  0  0  0  0
 13 23  1  0  0  0  0
 14 22  2  0  0  0  0
 14 13  1  0  0  0  0
 15 16  1  0  0  0  0
 15 10  2  0  0  0  0
 16 11  1  0  0  0  0
 19 18  1  1  0  0  0
 19  4  1  0  0  0  0
 20 14  1  0  0  0  0
 21 15  1  0  0  0  0
 24  8  2  0  0  0  0
 24  7  1  0  0  0  0
 25 20  1  0  0  0  0
 26 27  1  6  0  0  0
 26 28  1  0  0  0  0
 29 30  2  0  0  0  0
 30 31  1  0  0  0  0
 30 24  1  0  0  0  0
 32 33  1  0  0  0  0
M  END
>  <MODEL>
3

>  <REMARK>
 VINA RESULT:      -7.3      2.123      6.775
  Name = 
  3 active torsions:
  status: ('A' for Active; 'I' for Inactive)
    1  A    between atoms: C_3  and  C_6
    2  A    between atoms: O_5  and  C_16
    3  A    between atoms: C_14  and  C_31
                            x       y       z     vdW  Elec       q    Type
                         _______ _______ _______ _____ _____    ______ ____

>  <TORSDO>
F 3

$$$$
=
 OpenBabel11042416163D

 33 36  0  0  1  0  0  0  0  0999 V2000
  192.0240  174.1280  141.4440 C   0  0  0  0  0  3  0  0  0  0  0  0
  193.6680  175.5170  142.5720 C   0  0  0  0  0  0  0  0  0  0  0  0
  194.7310  174.1360  144.9770 C   0  0  2  0  0  3  0  0  0  0  0  0
  194.0900  175.5320  145.0720 C   0  0  1  0  0  3  0  0  0  0  0  0
  192.3280  173.2500  139.1600 C   0  0  0  0  0  1  0  0  0  0  0  0
  190.5590  177.0320  142.8180 C   0  0  0  0  0  1  0  0  0  0  0  0
  192.8370  174.0490  140.3130 C   0  0  0  0  0  0  0  0  0  0  0  0
  194.4760  175.4370  141.4310 C   0  0  0  0  0  3  0  0  0  0  0  0
  190.6360  175.9310  143.8290 C   0  0  0  0  0  0  0  0  0  0  0  0
  188.2780  176.2500  146.5400 C   0  0  0  0  0  0  0  0  0  0  0  0
  189.8630  174.8750  145.8760 C   0  0  0  0  0  0  0  0  0  0  0  0
  194.5070  176.3650  146.2760 C   0  0  0  0  0  1  0  0  0  0  0  0
  192.6300  172.7930  144.5760 C   0  0  0  0  0  2  0  0  0  0  0  0
  191.5960  173.8800  144.6600 C   0  0  0  0  0  0  0  0  0  0  0  0
  188.7880  176.7710  145.3590 C   0  0  0  0  0  0  0  0  0  0  0  0
  189.7830  175.9300  144.9230 C   0  0  0  0  0  0  0  0  0  0  0  0
  188.9370  175.0620  146.8840 C   0  0  0  0  0  3  0  0  0  0  0  0
  195.4430  176.7970  143.5590 F   0  0  0  0  0  0  0  0  0  0  0  0
  194.1570  176.3180  143.7620 C   0  0  1  0  0  3  0  0  0  0  0  0
  191.5410  174.8950  143.7130 N   0  0  0  0  0  0  0  0  0  0  0  0
  188.3640  177.9380  144.7350 O   0  0  0  0  0  1  0  0  0  0  0  0
  190.7600  173.8780  145.7410 N   0  0  0  0  0  0  0  0  0  0  0  0
  193.7960  173.0580  145.5260 C   0  0  0  0  0  2  0  0  0  0  0  0
  194.0850  174.7140  140.2970 C   0  0  0  0  0  0  0  0  0  0  0  0
  192.4200  174.8540  142.5710 C   0  0  0  0  0  0  0  0  0  0  0  0
  196.1610  174.0450  145.5170 C   0  0  2  0  0  3  0  0  0  0  0  0
  197.1620  174.2430  144.3960 C   0  0  0  0  0  1  0  0  0  0  0  0
  196.3870  172.8150  146.1380 O   0  0  0  0  0  1  0  0  0  0  0  0
  194.6450  175.2940  137.9440 O   0  0  0  0  0  0  0  0  0  0  0  0
  195.0140  174.6890  139.1410 C   0  0  0  0  0  0  0  0  0  0  0  0
  196.1400  174.1290  139.2140 O   0  0  0  0  0  1  0  0  0  0  0  0
  187.2480  176.8450  147.2690 O   0  0  0  0  0  0  0  0  0  0  0  0
  185.8950  176.7900  146.8440 C   0  0  0  0  0  1  0  0  0  0  0  0
  1 25  1  0  0  0  0
  2 19  1  0  0  0  0
  3  4  1  0  0  0  0
  3 26  1  1  0  0  0
  3 23  1  0  0  0  0
  4 12  1  1  0  0  0
  5  7  1  0  0  0  0
  6  9  1  0  0  0  0
  7  1  2  0  0  0  0
  8  2  1  0  0  0  0
  9 16  2  0  0  0  0
 10 17  1  0  0  0  0
 10 32  1  0  0  0  0
 11 17  2  0  0  0  0
 13 14  1  0  0  0  0
 13 23  1  0  0  0  0
 14 22  2  0  0  0  0
 15 10  2  0  0  0  0
 16 15  1  0  0  0  0
 16 11  1  0  0  0  0
 19 18  1  6  0  0  0
 19  4  1  0  0  0  0
 20  9  1  0  0  0  0
 20 14  1  0  0  0  0
 21 15  1  0  0  0  0
 22 11  1  0  0  0  0
 24  7  1  0  0  0  0
 24  8  2  0  0  0  0
 25  2  2  0  0  0  0
 25 20  1  0  0  0  0
 26 27  1  6  0  0  0
 26 28  1  0  0  0  0
 29 30  2  0  0  0  0
 30 31  1  0  0  0  0
 30 24  1  0  0  0  0
 33 32  1  0  0  0  0
M  END
>  <MODEL>
4

>  <REMARK>
 VINA RESULT:      -6.9      2.733      7.189
  Name = 
  3 active torsions:
  status: ('A' for Active; 'I' for Inactive)
    1  A    between atoms: C_3  and  C_6
    2  A    between atoms: O_5  and  C_16
    3  A    between atoms: C_14  and  C_31
                            x       y       z     vdW  Elec       q    Type
                         _______ _______ _______ _____ _____    ______ ____

>  <TORSDO>
F 3

$$$$
=
 OpenBabel11042416163D

 33 36  0  0  1  0  0  0  0  0999 V2000
  194.1290  176.1700  143.6260 C   0  0  0  0  0  3  0  0  0  0  0  0
  193.4700  173.9890  144.4720 C   0  0  0  0  0  0  0  0  0  0  0  0
  191.7560  172.5770  142.5020 C   0  0  2  0  0  3  0  0  0  0  0  0
  191.2820  172.8240  143.9440 C   0  0  1  0  0  3  0  0  0  0  0  0
  196.4670  176.7920  143.1530 C   0  0  0  0  0  1  0  0  0  0  0  0
  192.0000  176.4450  146.4300 C   0  0  0  0  0  1  0  0  0  0  0  0
  195.4700  175.7860  143.6210 C   0  0  0  0  0  0  0  0  0  0  0  0
  194.8200  173.6130  144.4680 C   0  0  0  0  0  3  0  0  0  0  0  0
  191.2160  176.3100  145.1620 C   0  0  0  0  0  0  0  0  0  0  0  0
  187.8470  177.5800  145.3700 C   0  0  0  0  0  0  0  0  0  0  0  0
  189.1700  176.6310  143.8910 C   0  0  0  0  0  0  0  0  0  0  0  0
  190.2010  171.8790  144.4520 C   0  0  0  0  0  1  0  0  0  0  0  0
  191.5750  174.9450  141.6430 C   0  0  0  0  0  2  0  0  0  0  0  0
  191.0140  175.6290  142.8570 C   0  0  0  0  0  0  0  0  0  0  0  0
  189.0590  177.3550  146.0080 C   0  0  0  0  0  0  0  0  0  0  0  0
  189.9050  176.7610  145.1040 C   0  0  0  0  0  0  0  0  0  0  0  0
  187.8930  177.1330  144.0430 C   0  0  0  0  0  3  0  0  0  0  0  0
  193.0020  171.7560  145.2170 F   0  0  0  0  0  0  0  0  0  0  0  0
  192.4320  172.9900  144.9390 C   0  0  1  0  0  3  0  0  0  0  0  0
  191.7570  175.7430  144.0260 N   0  0  0  0  0  0  0  0  0  0  0  0
  189.3560  177.6770  147.3270 O   0  0  0  0  0  1  0  0  0  0  0  0
  189.7210  176.0690  142.7970 N   0  0  0  0  0  0  0  0  0  0  0  0
  191.0540  173.5140  141.5180 C   0  0  0  0  0  2  0  0  0  0  0  0
  195.8310  174.4880  144.0500 C   0  0  0  0  0  0  0  0  0  0  0  0
  193.1260  175.2920  144.0480 C   0  0  0  0  0  0  0  0  0  0  0  0
  191.7500  171.1090  142.0650 C   0  0  2  0  0  3  0  0  0  0  0  0
  193.1650  170.5660  142.0200 C   0  0  0  0  0  1  0  0  0  0  0  0
  191.1500  170.9590  140.8130 O   0  0  0  0  0  1  0  0  0  0  0  0
  197.7750  173.3920  142.9520 O   0  0  0  0  0  0  0  0  0  0  0  0
  197.2280  173.9910  144.0820 C   0  0  0  0  0  0  0  0  0  0  0  0
  197.9400  174.0980  145.1150 O   0  0  0  0  0  1  0  0  0  0  0  0
  186.7440  178.1720  145.9880 O   0  0  0  0  0  0  0  0  0  0  0  0
  185.8800  177.4430  146.8450 C   0  0  0  0  0  1  0  0  0  0  0  0
  1 25  1  0  0  0  0
  2 19  1  0  0  0  0
  3 26  1  6  0  0  0
  3  4  1  0  0  0  0
  4 12  1  1  0  0  0
  4 19  1  0  0  0  0
  5  7  1  0  0  0  0
  7  1  2  0  0  0  0
  7 24  1  0  0  0  0
  8  2  1  0  0  0  0
  9  6  1  0  0  0  0
 10 32  1  0  0  0  0
 10 15  2  0  0  0  0
 11 17  2  0  0  0  0
 11 16  1  0  0  0  0
 13 14  1  0  0  0  0
 14 20  1  0  0  0  0
 15 21  1  0  0  0  0
 16  9  2  0  0  0  0
 16 15  1  0  0  0  0
 17 10  1  0  0  0  0
 19 18  1  6  0  0  0
 20 25  1  0  0  0  0
 20  9  1  0  0  0  0
 22 14  2  0  0  0  0
 22 11  1  0  0  0  0
 23 13  1  0  0  0  0
 23  3  1  0  0  0  0
 24 30  1  0  0  0  0
 24  8  2  0  0  0  0
 25  2  2  0  0  0  0
 26 27  1  6  0  0  0
 28 26  1  0  0  0  0
 29 30  2  0  0  0  0
 30 31  1  0  0  0  0
 32 33  1  0  0  0  0
M  END
>  <MODEL>
5

>  <REMARK>
 VINA RESULT:      -6.8      2.806      7.500
  Name = 
  3 active torsions:
  status: ('A' for Active; 'I' for Inactive)
    1  A    between atoms: C_3  and  C_6
    2  A    between atoms: O_5  and  C_16
    3  A    between atoms: C_14  and  C_31
                            x       y       z     vdW  Elec       q    Type
                         _______ _______ _______ _____ _____    ______ ____

>  <TORSDO>
F 3

$$$$
=
 OpenBabel11042416163D

 33 36  0  0  1  0  0  0  0  0999 V2000
  189.0590  176.5970  142.3840 C   0  0  0  0  0  3  0  0  0  0  0  0
  189.5720  175.1800  144.2910 C   0  0  0  0  0  0  0  0  0  0  0  0
  192.3020  175.7470  145.3110 C   0  0  2  0  0  3  0  0  0  0  0  0
  191.8840  174.3280  144.8900 C   0  0  1  0  0  3  0  0  0  0  0  0
  187.2580  178.2810  142.3920 C   0  0  0  0  0  1  0  0  0  0  0  0
  189.2810  173.1960  141.4620 C   0  0  0  0  0  1  0  0  0  0  0  0
  188.0270  177.2120  143.0940 C   0  0  0  0  0  0  0  0  0  0  0  0
  188.5300  175.7990  144.9940 C   0  0  0  0  0  3  0  0  0  0  0  0
  190.6270  173.8520  141.4500 C   0  0  0  0  0  0  0  0  0  0  0  0
  193.0580  172.1940  139.3650 C   0  0  0  0  0  0  0  0  0  0  0  0
  192.9290  173.9530  140.6810 C   0  0  0  0  0  0  0  0  0  0  0  0
  192.6880  173.1940  145.5090 C   0  0  0  0  0  1  0  0  0  0  0  0
  192.4540  176.7840  143.0140 C   0  0  0  0  0  2  0  0  0  0  0  0
  192.1440  175.5880  142.1580 C   0  0  0  0  0  0  0  0  0  0  0  0
  191.7610  172.2270  139.8600 C   0  0  0  0  0  0  0  0  0  0  0  0
  191.6540  173.3170  140.6870 C   0  0  0  0  0  0  0  0  0  0  0  0
  193.8080  173.2660  139.8670 C   0  0  0  0  0  3  0  0  0  0  0  0
  189.9920  173.9360  146.3000 F   0  0  0  0  0  0  0  0  0  0  0  0
  190.3740  174.0920  144.9760 C   0  0  1  0  0  3  0  0  0  0  0  0
  190.8890  174.9920  142.1840 N   0  0  0  0  0  0  0  0  0  0  0  0
  190.7560  171.3130  139.5670 O   0  0  0  0  0  1  0  0  0  0  0  0
  193.1600  175.0630  141.4100 N   0  0  0  0  0  0  0  0  0  0  0  0
  193.2240  176.3850  144.2710 C   0  0  0  0  0  2  0  0  0  0  0  0
  187.7490  176.8110  144.4210 C   0  0  0  0  0  0  0  0  0  0  0  0
  189.8330  175.5860  142.9630 C   0  0  0  0  0  0  0  0  0  0  0  0
  192.8190  175.8660  146.7480 C   0  0  2  0  0  3  0  0  0  0  0  0
  191.7260  176.3850  147.6610 C   0  0  0  0  0  1  0  0  0  0  0  0
  193.9280  176.7120  146.8150 O   0  0  0  0  0  1  0  0  0  0  0  0
  185.3400  177.1670  144.9280 O   0  0  0  0  0  0  0  0  0  0  0  0
  186.6730  177.4040  145.2510 C   0  0  0  0  0  0  0  0  0  0  0  0
  186.9340  178.1240  146.2510 O   0  0  0  0  0  1  0  0  0  0  0  0
  193.5290  171.2150  138.4890 O   0  0  0  0  0  0  0  0  0  0  0  0
  194.0430  169.9760  138.9510 C   0  0  0  0  0  1  0  0  0  0  0  0
  1 25  2  0  0  0  0
  1  7  1  0  0  0  0
  2 19  1  0  0  0  0
  2  8  2  0  0  0  0
  3 26  1  1  0  0  0
  4 19  1  0  0  0  0
  4  3  1  0  0  0  0
  4 12  1  1  0  0  0
  5  7  1  0  0  0  0
  7 24  2  0  0  0  0
  9  6  1  0  0  0  0
  9 20  1  0  0  0  0
 10 15  2  0  0  0  0
 10 17  1  0  0  0  0
 11 16  1  0  0  0  0
 11 22  1  0  0  0  0
 13 23  1  0  0  0  0
 14 20  1  0  0  0  0
 14 13  1  0  0  0  0
 15 16  1  0  0  0  0
 16  9  2  0  0  0  0
 17 11  2  0  0  0  0
 19 18  1  1  0  0  0
 20 25  1  0  0  0  0
 21 15  1  0  0  0  0
 22 14  2  0  0  0  0
 23  3  1  0  0  0  0
 24  8  1  0  0  0  0
 24 30  1  0  0  0  0
 25  2  1  0  0  0  0
 26 28  1  0  0  0  0
 26 27  1  1  0  0  0
 29 30  2  0  0  0  0
 30 31  1  0  0  0  0
 32 33  1  0  0  0  0
 32 10  1  0  0  0  0
M  END
>  <MODEL>
6

>  <REMARK>
 VINA RESULT:      -6.7      1.181      1.309
  Name = 
  3 active torsions:
  status: ('A' for Active; 'I' for Inactive)
    1  A    between atoms: C_3  and  C_6
    2  A    between atoms: O_5  and  C_16
    3  A    between atoms: C_14  and  C_31
                            x       y       z     vdW  Elec       q    Type
                         _______ _______ _______ _____ _____    ______ ____

>  <TORSDO>
F 3

$$$$
=
 OpenBabel11042416163D

 33 36  0  0  1  0  0  0  0  0999 V2000
  189.0730  176.4680  146.0860 C   0  0  0  0  0  3  0  0  0  0  0  0
  189.1550  176.3790  143.6580 C   0  0  0  0  0  0  0  0  0  0  0  0
  189.0680  173.5660  142.7120 C   0  0  2  0  0  3  0  0  0  0  0  0
  190.2100  174.5120  142.3060 C   0  0  1  0  0  3  0  0  0  0  0  0
  187.2250  177.5090  147.3430 C   0  0  0  0  0  1  0  0  0  0  0  0
  192.1790  177.5960  144.8400 C   0  0  0  0  0  1  0  0  0  0  0  0
  187.8520  177.1430  146.0400 C   0  0  0  0  0  0  0  0  0  0  0  0
  187.9310  177.0600  143.6210 C   0  0  0  0  0  3  0  0  0  0  0  0
  192.1650  176.1070  145.0020 C   0  0  0  0  0  0  0  0  0  0  0  0
  195.4400  174.6290  145.3230 C   0  0  0  0  0  0  0  0  0  0  0  0
  193.3320  173.9970  145.2960 C   0  0  0  0  0  0  0  0  0  0  0  0
  190.9470  174.1430  141.0250 C   0  0  0  0  0  1  0  0  0  0  0  0
  189.7220  173.2110  145.1250 C   0  0  0  0  0  2  0  0  0  0  0  0
  190.9960  174.0050  145.1770 C   0  0  0  0  0  0  0  0  0  0  0  0
  194.6810  175.7800  145.1590 C   0  0  0  0  0  0  0  0  0  0  0  0
  193.3580  175.4120  145.1380 C   0  0  0  0  0  0  0  0  0  0  0  0
  194.6150  173.4990  145.4100 C   0  0  0  0  0  3  0  0  0  0  0  0
  189.0170  176.3030  141.2630 F   0  0  0  0  0  0  0  0  0  0  0  0
  189.8170  175.9900  142.3520 C   0  0  1  0  0  3  0  0  0  0  0  0
  190.9880  175.3860  145.0230 N   0  0  0  0  0  0  0  0  0  0  0  0
  195.1790  177.0710  145.0370 O   0  0  0  0  0  1  0  0  0  0  0  0
  192.1690  173.3160  145.3080 N   0  0  0  0  0  0  0  0  0  0  0  0
  189.5310  172.5530  143.7590 C   0  0  0  0  0  2  0  0  0  0  0  0
  187.2650  177.4500  144.7900 C   0  0  0  0  0  0  0  0  0  0  0  0
  189.7330  176.0850  144.9130 C   0  0  0  0  0  0  0  0  0  0  0  0
  188.3060  172.9360  141.5410 C   0  0  2  0  0  3  0  0  0  0  0  0
  186.9750  172.3860  142.0130 C   0  0  0  0  0  1  0  0  0  0  0  0
  189.0520  171.9170  140.9460 O   0  0  0  0  0  1  0  0  0  0  0  0
  185.9410  179.5540  144.7060 O   0  0  0  0  0  1  0  0  0  0  0  0
  185.9740  178.1640  144.6420 C   0  0  0  0  0  0  0  0  0  0  0  0
  184.8950  177.5410  144.4590 O   0  0  0  0  0  0  0  0  0  0  0  0
  196.8340  174.6210  145.3870 O   0  0  0  0  0  0  0  0  0  0  0  0
  197.6400  174.5000  144.2260 C   0  0  0  0  0  1  0  0  0  0  0  0
  2 25  1  0  0  0  0
  3 26  1  6  0  0  0
  3 23  1  0  0  0  0
  4 12  1  6  0  0  0
  4 19  1  0  0  0  0
  4  3  1  0  0  0  0
  6  9  1  0  0  0  0
  7  1  1  0  0  0  0
  7  5  1  0  0  0  0
  8  2  2  0  0  0  0
  8 24  1  0  0  0  0
  9 20  1  0  0  0  0
  9 16  2  0  0  0  0
 10 32  1  0  0  0  0
 10 17  1  0  0  0  0
 11 22  1  0  0  0  0
 11 17  2  0  0  0  0
 13 14  1  0  0  0  0
 14 22  2  0  0  0  0
 15 10  2  0  0  0  0
 16 15  1  0  0  0  0
 16 11  1  0  0  0  0
 19 18  1  6  0  0  0
 19  2  1  0  0  0  0
 20 14  1  0  0  0  0
 21 15  1  0  0  0  0
 23 13  1  0  0  0  0
 24  7  2  0  0  0  0
 25 20  1  0  0  0  0
 25  1  2  0  0  0  0
 26 27  1  1  0  0  0
 28 26  1  0  0  0  0
 30 29  1  0  0  0  0
 30 24  1  0  0  0  0
 31 30  2  0  0  0  0
 33 32  1  0  0  0  0
M  END
>  <MODEL>
7

>  <REMARK>
 VINA RESULT:      -6.6      2.349      5.341
  Name = 
  3 active torsions:
  status: ('A' for Active; 'I' for Inactive)
    1  A    between atoms: C_3  and  C_6
    2  A    between atoms: O_5  and  C_16
    3  A    between atoms: C_14  and  C_31
                            x       y       z     vdW  Elec       q    Type
                         _______ _______ _______ _____ _____    ______ ____

>  <TORSDO>
F 3

$$$$
=
 OpenBabel11042416163D

 33 36  0  0  1  0  0  0  0  0999 V2000
  190.0300  174.3050  146.4720 C   0  0  0  0  0  3  0  0  0  0  0  0
  190.4290  175.4410  144.3610 C   0  0  0  0  0  0  0  0  0  0  0  0
  190.0570  173.5750  142.0820 C   0  0  2  0  0  3  0  0  0  0  0  0
  191.3720  174.3490  142.2760 C   0  0  1  0  0  3  0  0  0  0  0  0
  188.2020  174.9070  148.0130 C   0  0  0  0  0  1  0  0  0  0  0  0
  193.4090  175.2690  146.1250 C   0  0  0  0  0  1  0  0  0  0  0  0
  188.9400  175.1340  146.7370 C   0  0  0  0  0  0  0  0  0  0  0  0
  189.3350  176.2730  144.6370 C   0  0  0  0  0  3  0  0  0  0  0  0
  193.1540  173.9400  145.4850 C   0  0  0  0  0  0  0  0  0  0  0  0
  196.0990  171.8910  145.1160 C   0  0  0  0  0  0  0  0  0  0  0  0
  193.9450  171.7890  144.6790 C   0  0  0  0  0  0  0  0  0  0  0  0
  192.2130  174.5420  141.0230 C   0  0  0  0  0  1  0  0  0  0  0  0
  190.3160  171.9270  143.9780 C   0  0  0  0  0  2  0  0  0  0  0  0
  191.6740  172.3160  144.4890 C   0  0  0  0  0  0  0  0  0  0  0  0
  195.5480  173.0900  145.5480 C   0  0  0  0  0  0  0  0  0  0  0  0
  194.2010  173.0520  145.2850 C   0  0  0  0  0  0  0  0  0  0  0  0
  195.1130  171.0600  144.5670 C   0  0  0  0  0  3  0  0  0  0  0  0
  190.6100  176.6170  142.2760 F   0  0  0  0  0  0  0  0  0  0  0  0
  191.1980  175.6440  143.0720 C   0  0  1  0  0  3  0  0  0  0  0  0
  191.8920  173.5560  145.0790 N   0  0  0  0  0  0  0  0  0  0  0  0
  196.2430  174.1380  146.1390 O   0  0  0  0  0  1  0  0  0  0  0  0
  192.7030  171.4400  144.2870 N   0  0  0  0  0  0  0  0  0  0  0  0
  190.2190  172.1030  142.4640 C   0  0  0  0  0  2  0  0  0  0  0  0
  188.5810  176.1400  145.8090 C   0  0  0  0  0  0  0  0  0  0  0  0
  190.7800  174.4460  145.3000 C   0  0  0  0  0  0  0  0  0  0  0  0
  189.3780  173.7880  140.7260 C   0  0  2  0  0  3  0  0  0  0  0  0
  188.2300  174.7690  140.8590 C   0  0  0  0  0  1  0  0  0  0  0  0
  188.9070  172.5820  140.2040 O   0  0  0  0  0  1  0  0  0  0  0  0
  186.3430  177.0050  145.1540 O   0  0  0  0  0  0  0  0  0  0  0  0
  187.4420  177.0690  146.0050 C   0  0  0  0  0  0  0  0  0  0  0  0
  187.4420  177.9250  146.9290 O   0  0  0  0  0  1  0  0  0  0  0  0
  197.4550  171.5770  145.2230 O   0  0  0  0  0  0  0  0  0  0  0  0
  197.9410  170.2610  145.0100 C   0  0  0  0  0  1  0  0  0  0  0  0
  1  7  1  0  0  0  0
  2  8  2  0  0  0  0
  2 25  1  0  0  0  0
  3 26  1  6  0  0  0
  3  4  1  0  0  0  0
  3 23  1  0  0  0  0
  4 12  1  6  0  0  0
  4 19  1  0  0  0  0
  7  5  1  0  0  0  0
  8 24  1  0  0  0  0
  9  6  1  0  0  0  0
 10 32  1  0  0  0  0
 10 15  2  0  0  0  0
 11 16  1  0  0  0  0
 13 14  1  0  0  0  0
 14 20  1  0  0  0  0
 15 21  1  0  0  0  0
 16  9  2  0  0  0  0
 16 15  1  0  0  0  0
 17 11  2  0  0  0  0
 17 10  1  0  0  0  0
 19 18  1  6  0  0  0
 19  2  1  0  0  0  0
 20 25  1  0  0  0  0
 20  9  1  0  0  0  0
 22 14  2  0  0  0  0
 22 11  1  0  0  0  0
 23 13  1  0  0  0  0
 24 30  1  0  0  0  0
 24  7  2  0  0  0  0
 25  1  2  0  0  0  0
 26 27  1  1  0  0  0
 28 26  1  0  0  0  0
 29 30  2  0  0  0  0
 30 31  1  0  0  0  0
 33 32  1  0  0  0  0
M  END
>  <MODEL>
8

>  <REMARK>
 VINA RESULT:      -6.6      2.940      5.548
  Name = 
  3 active torsions:
  status: ('A' for Active; 'I' for Inactive)
    1  A    between atoms: C_3  and  C_6
    2  A    between atoms: O_5  and  C_16
    3  A    between atoms: C_14  and  C_31
                            x       y       z     vdW  Elec       q    Type
                         _______ _______ _______ _____ _____    ______ ____

>  <TORSDO>
F 3

$$$$
=
 OpenBabel11042416163D

 33 36  0  0  1  0  0  0  0  0999 V2000
  188.6600  175.9780  143.3790 C   0  0  0  0  0  3  0  0  0  0  0  0
  189.8820  174.9810  145.2280 C   0  0  0  0  0  0  0  0  0  0  0  0
  192.6440  176.0620  145.3620 C   0  0  2  0  0  3  0  0  0  0  0  0
  192.3800  174.5500  145.2580 C   0  0  1  0  0  3  0  0  0  0  0  0
  186.6620  177.3900  143.6790 C   0  0  0  0  0  1  0  0  0  0  0  0
  189.2160  172.5290  142.8690 C   0  0  0  0  0  1  0  0  0  0  0  0
  187.7560  176.5640  144.2660 C   0  0  0  0  0  0  0  0  0  0  0  0
  188.9670  175.5690  146.1120 C   0  0  0  0  0  3  0  0  0  0  0  0
  190.3800  173.3430  142.3980 C   0  0  0  0  0  0  0  0  0  0  0  0
  192.4390  171.6890  139.9410 C   0  0  0  0  0  0  0  0  0  0  0  0
  192.3540  173.6120  141.0070 C   0  0  0  0  0  0  0  0  0  0  0  0
  193.4990  173.6510  145.7650 C   0  0  0  0  0  1  0  0  0  0  0  0
  192.0190  176.7090  143.0020 C   0  0  0  0  0  2  0  0  0  0  0  0
  191.7090  175.3560  142.4260 C   0  0  0  0  0  0  0  0  0  0  0  0
  191.3280  171.6350  140.7720 C   0  0  0  0  0  0  0  0  0  0  0  0
  191.2520  172.8260  141.4510 C   0  0  0  0  0  0  0  0  0  0  0  0
  193.0980  172.9180  140.0730 C   0  0  0  0  0  3  0  0  0  0  0  0
  191.0120  174.1580  147.1800 F   0  0  0  0  0  0  0  0  0  0  0  0
  191.0080  174.1380  145.7930 C   0  0  1  0  0  3  0  0  0  0  0  0
  190.6240  174.6140  142.8780 N   0  0  0  0  0  0  0  0  0  0  0  0
  190.4530  170.5620  140.8900 O   0  0  0  0  0  1  0  0  0  0  0  0
  192.5720  174.8490  141.4960 N   0  0  0  0  0  0  0  0  0  0  0  0
  193.1440  176.6310  144.0330 C   0  0  0  0  0  2  0  0  0  0  0  0
  187.9030  176.3590  145.6580 C   0  0  0  0  0  0  0  0  0  0  0  0
  189.7180  175.1880  143.8400 C   0  0  0  0  0  0  0  0  0  0  0  0
  193.4850  176.4870  146.5690 C   0  0  2  0  0  3  0  0  0  0  0  0
  192.6130  177.1650  147.6070 C   0  0  0  0  0  1  0  0  0  0  0  0
  194.5160  177.3490  146.1860 O   0  0  0  0  0  1  0  0  0  0  0  0
  187.3840  178.0600  147.3960 O   0  0  0  0  0  1  0  0  0  0  0  0
  186.9920  176.9380  146.6740 C   0  0  0  0  0  0  0  0  0  0  0  0
  185.8610  176.4350  146.9050 O   0  0  0  0  0  0  0  0  0  0  0  0
  192.8290  170.6470  139.0990 O   0  0  0  0  0  0  0  0  0  0  0  0
  193.6390  169.5750  139.5540 C   0  0  0  0  0  1  0  0  0  0  0  0
  1 25  2  0  0  0  0
  1  7  1  0  0  0  0
  2 19  1  0  0  0  0
  2  8  2  0  0  0  0
  3 26  1  1  0  0  0
  4  3  1  0  0  0  0
  4 12  1  1  0  0  0
  4 19  1  0  0  0  0
  5  7  1  0  0  0  0
  7 24  2  0  0  0  0
  9  6  1  0  0  0  0
  9 20  1  0  0  0  0
 10 17  1  0  0  0  0
 10 15  2  0  0  0  0
 11 16  1  0  0  0  0
 11 22  1  0  0  0  0
 13 23  1  0  0  0  0
 14 20  1  0  0  0  0
 14 13  1  0  0  0  0
 15 21  1  0  0  0  0
 15 16  1  0  0  0  0
 16  9  2  0  0  0  0
 17 11  2  0  0  0  0
 19 18  1  1  0  0  0
 20 25  1  0  0  0  0
 22 14  2  0  0  0  0
 23  3  1  0  0  0  0
 24  8  1  0  0  0  0
 24 30  1  0  0  0  0
 25  2  1  0  0  0  0
 26 27  1  1  0  0  0
 28 26  1  0  0  0  0
 30 31  2  0  0  0  0
 30 29  1  0  0  0  0
 32 33  1  0  0  0  0
 32 10  1  0  0  0  0
M  END
>  <MODEL>
9

>  <REMARK>
 VINA RESULT:      -6.5      1.227      1.412
  Name = 
  3 active torsions:
  status: ('A' for Active; 'I' for Inactive)
    1  A    between atoms: C_3  and  C_6
    2  A    between atoms: O_5  and  C_16
    3  A    between atoms: C_14  and  C_31
                            x       y       z     vdW  Elec       q    Type
                         _______ _______ _______ _____ _____    ______ ____

>  <TORSDO>
F 3

$$$$
