=
 OpenBabel11042416393D

 65 72  0  0  1  0  0  0  0  0999 V2000
  187.0600  176.0410  138.5690 C   0  0  0  0  0  0  0  0  0  0  0  0
  190.1270  172.3910  136.9070 C   0  0  0  0  0  3  0  0  0  0  0  0
  187.0930  176.0410  137.1400 N   0  0  0  0  0  2  0  0  0  0  0  0
  187.9150  175.1340  136.4520 N   0  0  0  0  0  0  0  0  0  0  0  0
  186.3490  176.9700  139.2100 C   0  0  0  0  0  3  0  0  0  0  0  0
  189.4980  173.3820  136.3510 N   0  0  0  0  0  0  0  0  0  0  0  0
  189.4880  173.1710  139.2580 C   0  0  1  0  0  3  0  0  0  0  0  0
  189.9190  172.0050  138.3490 C   0  0  2  0  0  3  0  0  0  0  0  0
  188.6230  174.2460  137.0840 C   0  0  0  0  0  0  0  0  0  0  0  0
  188.5870  174.1570  138.5650 C   0  0  0  0  0  0  0  0  0  0  0  0
  187.8690  175.0340  139.2720 C   0  0  0  0  0  3  0  0  0  0  0  0
  192.1470  170.8830  139.2920 C   0  0  0  0  0  0  0  0  0  0  0  0
  191.1460  171.4070  138.8760 C   0  0  0  0  0  0  0  0  0  0  0  0
  194.1240  172.2440  140.7610 N   0  0  0  0  0  2  0  0  0  0  0  0
  193.3090  170.2490  139.7530 N   0  0  0  0  0  0  0  0  0  0  0  0
  194.2430  170.8500  140.4240 C   0  0  0  0  0  0  0  0  0  0  0  0
  195.1690  173.1000  141.3380 C   0  0  1  0  0  3  0  0  0  0  0  0
  196.5840  174.9550  140.5190 C   0  0  0  0  0  2  0  0  0  0  0  0
  196.6290  176.3640  141.0560 C   0  0  0  0  0  2  0  0  0  0  0  0
  195.5910  176.4150  142.1500 C   0  0  0  0  0  2  0  0  0  0  0  0
  195.1650  174.4720  140.7210 C   0  0  2  0  0  3  0  0  0  0  0  0
  194.9590  173.4010  142.8140 C   0  0  1  0  0  3  0  0  0  0  0  0
  194.2350  174.5950  142.9370 O   0  0  0  0  0  0  0  0  0  0  0  0
  194.5590  175.3620  141.7970 C   0  0  1  0  0  3  0  0  0  0  0  0
  195.8990  169.7750  146.3440 C   0  0  0  0  0  3  0  0  0  0  0  0
  192.9380  170.7580  144.6340 N   0  0  0  0  0  0  0  0  0  0  0  0
  196.3260  171.5760  144.8070 N   0  0  0  0  0  0  0  0  0  0  0  0
  194.5810  169.7640  145.9860 N   0  0  0  0  0  0  0  0  0  0  0  0
  192.9290  171.8470  143.6460 C   0  0  0  0  0  2  0  0  0  0  0  0
  194.1530  170.6500  145.0510 C   0  0  0  0  0  0  0  0  0  0  0  0
  195.0090  171.5400  144.4810 C   0  0  0  0  0  0  0  0  0  0  0  0
  194.3610  172.2980  143.6260 C   0  0  0  0  0  0  0  0  0  0  0  0
  196.7870  170.6960  145.7450 C   0  0  0  0  0  3  0  0  0  0  0  0
  195.3860  170.1430  140.8090 O   0  0  0  0  0  0  0  0  0  0  0  0
  196.1100  168.6740  138.5630 O   0  0  0  0  0  0  0  0  0  0  0  0
  197.2260  171.1690  138.9680 O   0  0  0  0  0  1  0  0  0  0  0  0
  196.6730  169.7590  139.7310 P   0  0  0  0  0  0  0  0  0  0  0  0
  197.8080  169.1220  140.4990 O   0  0  0  0  0  1  0  0  0  0  0  0
  186.2680  177.0710  140.7030 C   0  0  0  0  0  2  0  0  0  0  0  0
  187.0230  178.2860  141.2240 C   0  0  0  0  0  2  0  0  0  0  0  0
  186.4700  178.7330  142.4940 N   0  0  0  0  0  2  0  0  0  0  0  0
  185.7170  177.6240  143.0630 C   0  0  0  0  0  2  0  0  0  0  0  0
  186.8150  176.9440  145.1790 C   0  0  0  0  0  0  0  0  0  0  0  0
  184.0380  179.4160  144.6820 C   0  0  0  0  0  1  0  0  0  0  0  0
  185.1700  178.6890  146.7760 C   0  0  0  0  0  2  0  0  0  0  0  0
  185.9410  177.3930  148.6300 O   0  0  0  0  0  0  0  0  0  0  0  0
  185.9940  177.6140  147.3910 C   0  0  0  0  0  0  0  0  0  0  0  0
  185.8410  177.6440  144.5610 C   0  0  0  0  0  0  0  0  0  0  0  0
  186.8380  176.8540  146.5820 O   0  0  0  0  0  0  0  0  0  0  0  0
  184.7190  178.2520  145.3840 C   0  0  2  0  0  3  0  0  0  0  0  0
  187.8450  176.1850  144.3820 C   0  0  0  0  0  2  0  0  0  0  0  0
  189.2270  176.7360  144.5660 C   0  0  0  0  0  0  0  0  0  0  0  0
  191.4970  176.7950  145.7940 C   0  0  2  0  0  3  0  0  0  0  0  0
  190.0100  176.3660  145.8230 C   0  0  0  0  0  2  0  0  0  0  0  0
  192.0230  177.0520  144.3800 C   0  0  0  0  0  2  0  0  0  0  0  0
  189.7430  177.5150  143.5980 C   0  0  0  0  0  3  0  0  0  0  0  0
  191.1270  178.0780  143.7080 C   0  0  0  0  0  2  0  0  0  0  0  0
  192.3550  175.7650  146.5310 C   0  0  0  0  0  3  0  0  0  0  0  0
  192.5560  174.6280  145.7360 O   0  0  0  0  0  1  0  0  0  0  0  0
  193.5930  176.3130  146.8860 O   0  0  0  0  0  1  0  0  0  0  0  0
  188.9270  172.6870  140.4910 O   0  0  0  0  0  0  0  0  0  0  0  0
  190.1110  173.9800  142.1110 C   0  0  0  0  0  2  0  0  0  0  0  0
  189.4990  172.8520  141.7650 C   0  0  0  0  0  0  0  0  0  0  0  0
  189.4190  171.7960  142.6760 O   0  0  0  0  0  0  0  0  0  0  0  0
  189.4120  172.0110  144.0040 O   0  0  0  0  0  1  0  0  0  0  0  0
  1  5  2  0  0  0  0
  1 11  1  0  0  0  0
  2  8  1  0  0  0  0
  3  1  1  0  0  0  0
  4  9  2  0  0  0  0
  4  3  1  0  0  0  0
  5 39  1  0  0  0  0
  6  2  2  0  0  0  0
  6  9  1  0  0  0  0
  7 61  1  1  0  0  0
  8 13  1  1  0  0  0
  8  7  1  0  0  0  0
  9 10  1  0  0  0  0
 10  7  1  0  0  0  0
 10 11  2  0  0  0  0
 12 15  1  0  0  0  0
 13 12  3  0  0  0  0
 15 16  2  0  0  0  0
 16 14  1  0  0  0  0
 16 34  1  0  0  0  0
 17 14  1  6  0  0  0
 17 22  1  0  0  0  0
 18 19  1  0  0  0  0
 19 20  1  0  0  0  0
 21 18  1  1  0  0  0
 21 17  1  0  0  0  0
 21 24  1  0  0  0  0
 22 23  1  0  0  0  0
 22 32  1  6  0  0  0
 24 20  1  1  0  0  0
 24 23  1  0  0  0  0
 26 30  2  0  0  0  0
 27 33  2  0  0  0  0
 28 25  2  0  0  0  0
 29 26  1  0  0  0  0
 30 28  1  0  0  0  0
 31 27  1  0  0  0  0
 31 30  1  0  0  0  0
 32 29  1  0  0  0  0
 32 31  2  0  0  0  0
 33 25  1  0  0  0  0
 35 37  2  0  0  0  0
 36 37  1  0  0  0  0
 37 38  1  0  0  0  0
 37 34  1  0  0  0  0
 39 40  1  0  0  0  0
 40 41  1  0  0  0  0
 41 42  1  0  0  0  0
 42 48  1  0  0  0  0
 43 49  1  0  0  0  0
 45 47  1  0  0  0  0
 47 46  2  0  0  0  0
 48 43  2  0  0  0  0
 48 50  1  0  0  0  0
 49 47  1  0  0  0  0
 50 44  1  6  0  0  0
 50 45  1  0  0  0  0
 51 52  1  0  0  0  0
 51 43  1  0  0  0  0
 52 54  1  0  0  0  0
 53 54  1  0  0  0  0
 53 58  1  6  0  0  0
 55 53  1  0  0  0  0
 56 57  1  0  0  0  0
 56 52  2  0  0  0  0
 57 55  1  0  0  0  0
 58 60  1  0  0  0  0
 59 58  1  0  0  0  0
 61 63  1  0  0  0  0
 63 62  2  0  0  0  0
 63 64  1  0  0  0  0
 64 65  1  0  0  0  0
M  END
>  <MODEL>
1

>  <REMARK>
 VINA RESULT:      -7.0      0.000      0.000
  Name = 
  17 active torsions:
  status: ('A' for Active; 'I' for Inactive)
    1  A    between atoms: C_2  and  C_19
    2  A    between atoms: C_3  and  N_15
    3  A    between atoms: C_5  and  C_19
    4  A    between atoms: C_6  and  C_9
    5  A    between atoms: C_7  and  N_30
    6  A    between atoms: O_11  and  C_42
    7  A    between atoms: C_13  and  N_28
    8  A    between atoms: C_13  and  C_53
    9  A    between atoms: O_14  and  P_27
   10  A    between atoms: O_14  and  C_59
   11  A    between atoms: O_24  and  C_42
   12  A    between atoms: O_24  and  C_46
   13  A    between atoms: N_28  and  C_29
   14  A    between atoms: C_29  and  C_40
   15  A    between atoms: C_33  and  C_53
   16  A    between atoms: C_35  and  C_50
   17  A    between atoms: C_56  and  C_63
                            x       y       z     vdW  Elec       q    Type
                         _______ _______ _______ _____ _____    ______ ____

>  <TORSDO>
F 17

$$$$
=
 OpenBabel11042416393D

 65 72  0  0  1  0  0  0  0  0999 V2000
  187.0720  176.0930  138.0330 C   0  0  0  0  0  0  0  0  0  0  0  0
  190.2780  172.6900  136.1300 C   0  0  0  0  0  3  0  0  0  0  0  0
  187.0950  176.1860  136.6080 N   0  0  0  0  0  2  0  0  0  0  0  0
  187.9510  175.3610  135.8590 N   0  0  0  0  0  0  0  0  0  0  0  0
  186.3260  176.9490  138.7360 C   0  0  0  0  0  3  0  0  0  0  0  0
  189.6050  173.6870  135.6400 N   0  0  0  0  0  0  0  0  0  0  0  0
  189.6220  173.2900  138.5280 C   0  0  1  0  0  3  0  0  0  0  0  0
  190.0960  172.2040  137.5440 C   0  0  2  0  0  3  0  0  0  0  0  0
  188.6990  174.4640  136.4310 C   0  0  0  0  0  0  0  0  0  0  0  0
  188.6760  174.2800  137.9030 C   0  0  0  0  0  0  0  0  0  0  0  0
  187.9270  175.0790  138.6680 C   0  0  0  0  0  3  0  0  0  0  0  0
  192.3890  171.1390  138.3900 C   0  0  0  0  0  0  0  0  0  0  0  0
  191.3500  171.6260  138.0270 C   0  0  0  0  0  0  0  0  0  0  0  0
  194.8340  172.5120  138.1620 N   0  0  0  0  0  2  0  0  0  0  0  0
  193.6090  170.5690  138.7800 N   0  0  0  0  0  0  0  0  0  0  0  0
  194.7550  171.1720  138.6800 C   0  0  0  0  0  0  0  0  0  0  0  0
  196.0580  173.2450  137.8100 C   0  0  1  0  0  3  0  0  0  0  0  0
  197.6210  173.2550  135.8950 C   0  0  0  0  0  2  0  0  0  0  0  0
  197.9400  174.4230  134.9930 C   0  0  0  0  0  2  0  0  0  0  0  0
  197.0640  175.5550  135.4690 C   0  0  0  0  0  2  0  0  0  0  0  0
  196.1820  173.4350  136.3230 C   0  0  2  0  0  3  0  0  0  0  0  0
  196.0780  174.6750  138.3290 C   0  0  1  0  0  3  0  0  0  0  0  0
  195.5600  175.5250  137.3420 O   0  0  0  0  0  0  0  0  0  0  0  0
  195.8520  174.9060  136.1070 C   0  0  1  0  0  3  0  0  0  0  0  0
  196.8850  175.8050  143.2850 C   0  0  0  0  0  3  0  0  0  0  0  0
  193.9280  175.1670  141.4130 N   0  0  0  0  0  0  0  0  0  0  0  0
  197.3860  175.3260  140.9810 N   0  0  0  0  0  0  0  0  0  0  0  0
  195.5500  175.6450  143.0420 N   0  0  0  0  0  0  0  0  0  0  0  0
  193.9610  174.8580  139.9760 C   0  0  0  0  0  2  0  0  0  0  0  0
  195.1510  175.3300  141.7830 C   0  0  0  0  0  0  0  0  0  0  0  0
  196.0520  175.1810  140.7760 C   0  0  0  0  0  0  0  0  0  0  0  0
  195.4280  174.8960  139.6560 C   0  0  0  0  0  0  0  0  0  0  0  0
  197.8190  175.6430  142.2380 C   0  0  0  0  0  3  0  0  0  0  0  0
  195.9240  170.5080  139.0590 O   0  0  0  0  0  0  0  0  0  0  0  0
  195.3570  169.8220  141.6920 O   0  0  0  0  0  1  0  0  0  0  0  0
  197.9410  169.5600  140.7500 O   0  0  0  0  0  0  0  0  0  0  0  0
  196.5270  170.4930  140.6720 P   0  0  0  0  0  0  0  0  0  0  0  0
  196.8280  171.9050  141.1170 O   0  0  0  0  0  1  0  0  0  0  0  0
  186.2510  176.9500  140.2330 C   0  0  0  0  0  2  0  0  0  0  0  0
  187.1240  178.0420  140.8360 C   0  0  0  0  0  2  0  0  0  0  0  0
  186.5460  178.5400  142.0750 N   0  0  0  0  0  2  0  0  0  0  0  0
  185.7550  177.4650  142.6570 C   0  0  0  0  0  2  0  0  0  0  0  0
  186.9330  176.7990  144.7350 C   0  0  0  0  0  0  0  0  0  0  0  0
  184.0510  179.1680  144.3450 C   0  0  0  0  0  1  0  0  0  0  0  0
  185.2640  178.4570  146.3980 C   0  0  0  0  0  2  0  0  0  0  0  0
  186.1320  177.1670  148.2130 O   0  0  0  0  0  0  0  0  0  0  0  0
  186.1440  177.4060  146.9760 C   0  0  0  0  0  0  0  0  0  0  0  0
  185.9160  177.4690  144.1510 C   0  0  0  0  0  0  0  0  0  0  0  0
  186.9950  176.6900  146.1350 O   0  0  0  0  0  0  0  0  0  0  0  0
  184.7940  178.0220  145.0120 C   0  0  2  0  0  3  0  0  0  0  0  0
  187.9700  176.0910  143.9010 C   0  0  0  0  0  2  0  0  0  0  0  0
  189.3530  176.6140  144.1490 C   0  0  0  0  0  0  0  0  0  0  0  0
  191.7500  176.3320  145.0650 C   0  0  2  0  0  3  0  0  0  0  0  0
  190.2850  175.8320  145.0700 C   0  0  0  0  0  2  0  0  0  0  0  0
  192.1010  177.1550  143.8240 C   0  0  0  0  0  2  0  0  0  0  0  0
  189.7370  177.7410  143.5220 C   0  0  0  0  0  3  0  0  0  0  0  0
  191.1130  178.3040  143.7070 C   0  0  0  0  0  2  0  0  0  0  0  0
  192.7080  175.1530  145.2430 C   0  0  0  0  0  3  0  0  0  0  0  0
  192.7280  174.7280  146.5780 O   0  0  0  0  0  1  0  0  0  0  0  0
  192.3410  174.0850  144.4160 O   0  0  0  0  0  1  0  0  0  0  0  0
  189.0900  172.7050  139.7290 O   0  0  0  0  0  0  0  0  0  0  0  0
  190.4210  173.9250  141.2920 C   0  0  0  0  0  2  0  0  0  0  0  0
  189.5760  172.9340  141.0300 C   0  0  0  0  0  0  0  0  0  0  0  0
  189.1550  172.0880  142.0590 O   0  0  0  0  0  0  0  0  0  0  0  0
  187.9650  172.2520  142.6620 O   0  0  0  0  0  1  0  0  0  0  0  0
  1 11  1  0  0  0  0
  1  5  2  0  0  0  0
  2  8  1  0  0  0  0
  3  1  1  0  0  0  0
  4  9  2  0  0  0  0
  4  3  1  0  0  0  0
  5 39  1  0  0  0  0
  6  2  2  0  0  0  0
  6  9  1  0  0  0  0
  7 61  1  1  0  0  0
  8 13  1  1  0  0  0
  8  7  1  0  0  0  0
  9 10  1  0  0  0  0
 10  7  1  0  0  0  0
 10 11  2  0  0  0  0
 12 15  1  0  0  0  0
 13 12  3  0  0  0  0
 14 16  1  0  0  0  0
 16 15  2  0  0  0  0
 16 34  1  0  0  0  0
 17 14  1  6  0  0  0
 17 22  1  0  0  0  0
 19 20  1  0  0  0  0
 19 18  1  0  0  0  0
 21 18  1  1  0  0  0
 21 17  1  0  0  0  0
 22 32  1  1  0  0  0
 23 22  1  0  0  0  0
 24 20  1  1  0  0  0
 24 21  1  0  0  0  0
 24 23  1  0  0  0  0
 26 30  2  0  0  0  0
 27 33  2  0  0  0  0
 28 25  2  0  0  0  0
 29 26  1  0  0  0  0
 30 28  1  0  0  0  0
 31 27  1  0  0  0  0
 31 30  1  0  0  0  0
 32 29  1  0  0  0  0
 32 31  2  0  0  0  0
 33 25  1  0  0  0  0
 34 37  1  0  0  0  0
 37 36  2  0  0  0  0
 37 38  1  0  0  0  0
 37 35  1  0  0  0  0
 39 40  1  0  0  0  0
 40 41  1  0  0  0  0
 41 42  1  0  0  0  0
 42 48  1  0  0  0  0
 43 49  1  0  0  0  0
 45 47  1  0  0  0  0
 47 46  2  0  0  0  0
 48 43  2  0  0  0  0
 48 50  1  0  0  0  0
 49 47  1  0  0  0  0
 50 44  1  6  0  0  0
 50 45  1  0  0  0  0
 51 52  1  0  0  0  0
 51 43  1  0  0  0  0
 52 54  1  0  0  0  0
 53 54  1  0  0  0  0
 53 58  1  6  0  0  0
 55 53  1  0  0  0  0
 56 57  1  0  0  0  0
 56 52  2  0  0  0  0
 57 55  1  0  0  0  0
 58 59  1  0  0  0  0
 60 58  1  0  0  0  0
 61 63  1  0  0  0  0
 63 62  2  0  0  0  0
 63 64  1  0  0  0  0
 64 65  1  0  0  0  0
M  END
>  <MODEL>
2

>  <REMARK>
 VINA RESULT:      -6.9      2.154      3.081
  Name = 
  17 active torsions:
  status: ('A' for Active; 'I' for Inactive)
    1  A    between atoms: C_2  and  C_19
    2  A    between atoms: C_3  and  N_15
    3  A    between atoms: C_5  and  C_19
    4  A    between atoms: C_6  and  C_9
    5  A    between atoms: C_7  and  N_30
    6  A    between atoms: O_11  and  C_42
    7  A    between atoms: C_13  and  N_28
    8  A    between atoms: C_13  and  C_53
    9  A    between atoms: O_14  and  P_27
   10  A    between atoms: O_14  and  C_59
   11  A    between atoms: O_24  and  C_42
   12  A    between atoms: O_24  and  C_46
   13  A    between atoms: N_28  and  C_29
   14  A    between atoms: C_29  and  C_40
   15  A    between atoms: C_33  and  C_53
   16  A    between atoms: C_35  and  C_50
   17  A    between atoms: C_56  and  C_63
                            x       y       z     vdW  Elec       q    Type
                         _______ _______ _______ _____ _____    ______ ____

>  <TORSDO>
F 17

$$$$
=
 OpenBabel11042416393D

 65 72  0  0  1  0  0  0  0  0999 V2000
  187.3930  176.3400  139.8420 C   0  0  0  0  0  0  0  0  0  0  0  0
  189.4610  171.9800  138.3590 C   0  0  0  0  0  3  0  0  0  0  0  0
  186.9750  176.0270  138.5120 N   0  0  0  0  0  2  0  0  0  0  0  0
  187.4590  174.8740  137.8710 N   0  0  0  0  0  0  0  0  0  0  0  0
  187.0000  177.4860  140.4010 C   0  0  0  0  0  3  0  0  0  0  0  0
  188.7760  172.9140  137.7720 N   0  0  0  0  0  0  0  0  0  0  0  0
  189.6620  173.3390  140.5160 C   0  0  1  0  0  3  0  0  0  0  0  0
  189.6850  171.9520  139.8490 C   0  0  2  0  0  3  0  0  0  0  0  0
  188.2520  174.0430  138.4800 C   0  0  0  0  0  0  0  0  0  0  0  0
  188.6760  174.2830  139.8820 C   0  0  0  0  0  0  0  0  0  0  0  0
  188.2940  175.3940  140.5170 C   0  0  0  0  0  3  0  0  0  0  0  0
  191.9910  170.7220  140.3760 C   0  0  0  0  0  0  0  0  0  0  0  0
  190.9600  171.2950  140.1380 C   0  0  0  0  0  0  0  0  0  0  0  0
  193.3790  170.9870  142.8090 N   0  0  0  0  0  2  0  0  0  0  0  0
  193.1780  170.0260  140.6420 N   0  0  0  0  0  0  0  0  0  0  0  0
  193.8470  170.1330  141.7500 C   0  0  0  0  0  0  0  0  0  0  0  0
  194.1140  171.3590  144.0260 C   0  0  1  0  0  3  0  0  0  0  0  0
  195.0200  170.1480  145.9810 C   0  0  0  0  0  2  0  0  0  0  0  0
  196.4640  170.0790  146.4150 C   0  0  0  0  0  2  0  0  0  0  0  0
  197.2370  170.8520  145.3750 C   0  0  0  0  0  2  0  0  0  0  0  0
  195.0380  170.2590  144.4730 C   0  0  2  0  0  3  0  0  0  0  0  0
  195.0670  172.5280  143.8250 C   0  0  1  0  0  3  0  0  0  0  0  0
  196.3340  172.0310  143.4870 O   0  0  0  0  0  0  0  0  0  0  0  0
  196.4250  170.7620  144.0980 C   0  0  1  0  0  3  0  0  0  0  0  0
  196.3660  176.8880  141.4170 C   0  0  0  0  0  3  0  0  0  0  0  0
  193.4230  174.8920  141.3570 N   0  0  0  0  0  0  0  0  0  0  0  0
  196.5620  174.9850  142.8760 N   0  0  0  0  0  0  0  0  0  0  0  0
  195.1050  176.5040  141.0630 N   0  0  0  0  0  0  0  0  0  0  0  0
  193.2920  173.6640  142.1550 C   0  0  0  0  0  2  0  0  0  0  0  0
  194.5890  175.3750  141.6140 C   0  0  0  0  0  0  0  0  0  0  0  0
  195.3080  174.6310  142.4960 C   0  0  0  0  0  0  0  0  0  0  0  0
  194.6080  173.5860  142.8730 C   0  0  0  0  0  0  0  0  0  0  0  0
  197.1080  176.1170  142.3390 C   0  0  0  0  0  3  0  0  0  0  0  0
  195.0430  169.4280  141.9100 O   0  0  0  0  0  0  0  0  0  0  0  0
  195.7350  168.1660  139.5320 O   0  0  0  0  0  0  0  0  0  0  0  0
  196.4590  170.8030  139.9280 O   0  0  0  0  0  1  0  0  0  0  0  0
  196.2410  169.2990  140.6800 P   0  0  0  0  0  0  0  0  0  0  0  0
  197.5480  168.8440  141.2880 O   0  0  0  0  0  1  0  0  0  0  0  0
  187.4010  177.9180  141.7800 C   0  0  0  0  0  2  0  0  0  0  0  0
  188.8950  178.2060  141.8630 C   0  0  0  0  0  2  0  0  0  0  0  0
  189.3620  178.1110  143.2380 N   0  0  0  0  0  2  0  0  0  0  0  0
  189.6880  176.7150  143.4990 C   0  0  0  0  0  2  0  0  0  0  0  0
  189.3710  176.2180  145.9070 C   0  0  0  0  0  0  0  0  0  0  0  0
  192.5690  176.8920  144.0660 C   0  0  0  0  0  1  0  0  0  0  0  0
  192.1890  176.3970  146.4750 C   0  0  0  0  0  2  0  0  0  0  0  0
  191.5170  176.5430  148.7640 O   0  0  0  0  0  0  0  0  0  0  0  0
  191.1730  176.3970  147.5610 C   0  0  0  0  0  0  0  0  0  0  0  0
  190.2030  176.5690  144.9030 C   0  0  0  0  0  0  0  0  0  0  0  0
  189.8280  176.2210  147.2360 O   0  0  0  0  0  0  0  0  0  0  0  0
  191.6030  177.0560  145.2280 C   0  0  2  0  0  3  0  0  0  0  0  0
  187.9240  175.8960  145.6330 C   0  0  0  0  0  2  0  0  0  0  0  0
  186.9980  176.9530  146.1540 C   0  0  0  0  0  0  0  0  0  0  0  0
  185.5330  179.0510  145.8110 C   0  0  2  0  0  3  0  0  0  0  0  0
  186.6730  178.1540  145.2700 C   0  0  0  0  0  2  0  0  0  0  0  0
  184.6350  178.3390  146.8250 C   0  0  0  0  0  2  0  0  0  0  0  0
  186.4560  176.7890  147.3760 C   0  0  0  0  0  3  0  0  0  0  0  0
  185.5040  177.7950  147.9460 C   0  0  0  0  0  2  0  0  0  0  0  0
  184.7200  179.6240  144.6490 C   0  0  0  0  0  3  0  0  0  0  0  0
  185.5580  180.2630  143.7250 O   0  0  0  0  0  1  0  0  0  0  0  0
  183.9960  178.6140  144.0040 O   0  0  0  0  0  1  0  0  0  0  0  0
  189.4780  173.2280  141.9380 O   0  0  0  0  0  0  0  0  0  0  0  0
  187.2610  172.3750  142.1800 C   0  0  0  0  0  2  0  0  0  0  0  0
  188.5290  172.4060  142.5740 C   0  0  0  0  0  0  0  0  0  0  0  0
  188.9440  171.6120  143.6460 O   0  0  0  0  0  0  0  0  0  0  0  0
  189.6470  172.1240  144.6710 O   0  0  0  0  0  1  0  0  0  0  0  0
  1  5  2  0  0  0  0
  1 11  1  0  0  0  0
  2  8  1  0  0  0  0
  3  1  1  0  0  0  0
  4  9  2  0  0  0  0
  4  3  1  0  0  0  0
  5 39  1  0  0  0  0
  6  2  2  0  0  0  0
  6  9  1  0  0  0  0
  7 61  1  1  0  0  0
  8 13  1  6  0  0  0
  8  7  1  0  0  0  0
  9 10  1  0  0  0  0
 10  7  1  0  0  0  0
 10 11  2  0  0  0  0
 12 15  1  0  0  0  0
 13 12  3  0  0  0  0
 15 16  2  0  0  0  0
 16 34  1  0  0  0  0
 16 14  1  0  0  0  0
 17 14  1  6  0  0  0
 17 21  1  0  0  0  0
 18 19  1  0  0  0  0
 20 19  1  0  0  0  0
 21 18  1  1  0  0  0
 22 32  1  6  0  0  0
 22 17  1  0  0  0  0
 23 22  1  0  0  0  0
 23 24  1  0  0  0  0
 24 21  1  0  0  0  0
 24 20  1  1  0  0  0
 25 33  1  0  0  0  0
 26 30  2  0  0  0  0
 26 29  1  0  0  0  0
 28 25  2  0  0  0  0
 28 30  1  0  0  0  0
 29 32  1  0  0  0  0
 30 31  1  0  0  0  0
 31 32  2  0  0  0  0
 31 27  1  0  0  0  0
 33 27  2  0  0  0  0
 35 37  2  0  0  0  0
 36 37  1  0  0  0  0
 37 38  1  0  0  0  0
 37 34  1  0  0  0  0
 39 40  1  0  0  0  0
 40 41  1  0  0  0  0
 41 42  1  0  0  0  0
 42 48  1  0  0  0  0
 43 49  1  0  0  0  0
 45 47  1  0  0  0  0
 47 46  2  0  0  0  0
 48 50  1  0  0  0  0
 48 43  2  0  0  0  0
 49 47  1  0  0  0  0
 50 44  1  6  0  0  0
 50 45  1  0  0  0  0
 51 43  1  0  0  0  0
 51 52  1  0  0  0  0
 52 56  2  0  0  0  0
 53 58  1  6  0  0  0
 53 55  1  0  0  0  0
 54 53  1  0  0  0  0
 54 52  1  0  0  0  0
 55 57  1  0  0  0  0
 56 57  1  0  0  0  0
 59 58  1  0  0  0  0
 60 58  1  0  0  0  0
 61 63  1  0  0  0  0
 62 63  2  0  0  0  0
 63 64  1  0  0  0  0
 64 65  1  0  0  0  0
M  END
>  <MODEL>
3

>  <REMARK>
 VINA RESULT:      -6.4      1.742      4.611
  Name = 
  17 active torsions:
  status: ('A' for Active; 'I' for Inactive)
    1  A    between atoms: C_2  and  C_19
    2  A    between atoms: C_3  and  N_15
    3  A    between atoms: C_5  and  C_19
    4  A    between atoms: C_6  and  C_9
    5  A    between atoms: C_7  and  N_30
    6  A    between atoms: O_11  and  C_42
    7  A    between atoms: C_13  and  N_28
    8  A    between atoms: C_13  and  C_53
    9  A    between atoms: O_14  and  P_27
   10  A    between atoms: O_14  and  C_59
   11  A    between atoms: O_24  and  C_42
   12  A    between atoms: O_24  and  C_46
   13  A    between atoms: N_28  and  C_29
   14  A    between atoms: C_29  and  C_40
   15  A    between atoms: C_33  and  C_53
   16  A    between atoms: C_35  and  C_50
   17  A    between atoms: C_56  and  C_63
                            x       y       z     vdW  Elec       q    Type
                         _______ _______ _______ _____ _____    ______ ____

>  <TORSDO>
F 17

$$$$
=
 OpenBabel11042416393D

 65 72  0  0  1  0  0  0  0  0999 V2000
  194.6220  170.4780  136.9120 C   0  0  0  0  0  0  0  0  0  0  0  0
  189.9300  170.8810  138.7310 C   0  0  0  0  0  3  0  0  0  0  0  0
  194.0430  169.1810  137.0630 N   0  0  0  0  0  2  0  0  0  0  0  0
  192.7500  169.0410  137.5950 N   0  0  0  0  0  0  0  0  0  0  0  0
  195.8850  170.5890  136.4950 C   0  0  0  0  0  3  0  0  0  0  0  0
  190.7460  169.8940  138.5130 N   0  0  0  0  0  0  0  0  0  0  0  0
  191.7260  172.6190  138.1880 C   0  0  1  0  0  3  0  0  0  0  0  0
  190.2250  172.2900  138.2860 C   0  0  2  0  0  3  0  0  0  0  0  0
  192.0330  170.0780  137.9140 C   0  0  0  0  0  0  0  0  0  0  0  0
  192.5570  171.4540  137.7260 C   0  0  0  0  0  0  0  0  0  0  0  0
  193.8020  171.6420  137.2810 C   0  0  0  0  0  3  0  0  0  0  0  0
  189.0500  173.9870  139.9740 C   0  0  0  0  0  0  0  0  0  0  0  0
  189.5780  173.2350  139.1970 C   0  0  0  0  0  0  0  0  0  0  0  0
  190.2040  174.5470  142.4780 N   0  0  0  0  0  2  0  0  0  0  0  0
  188.4450  174.8430  140.9040 N   0  0  0  0  0  0  0  0  0  0  0  0
  188.9460  175.1150  142.0710 C   0  0  0  0  0  0  0  0  0  0  0  0
  190.7970  174.6020  143.8210 C   0  0  1  0  0  3  0  0  0  0  0  0
  190.9270  176.2870  145.6260 C   0  0  0  0  0  2  0  0  0  0  0  0
  190.3940  176.1510  147.0310 C   0  0  0  0  0  2  0  0  0  0  0  0
  189.7180  174.8030  147.0810 C   0  0  0  0  0  2  0  0  0  0  0  0
  189.9990  175.4820  144.7440 C   0  0  2  0  0  3  0  0  0  0  0  0
  190.7820  173.2650  144.5460 C   0  0  1  0  0  3  0  0  0  0  0  0
  189.6140  173.1770  145.3160 O   0  0  0  0  0  0  0  0  0  0  0  0
  189.2780  174.5040  145.6610 C   0  0  1  0  0  3  0  0  0  0  0  0
  193.9210  169.3350  143.4540 C   0  0  0  0  0  3  0  0  0  0  0  0
  190.7560  170.3160  142.1610 N   0  0  0  0  0  0  0  0  0  0  0  0
  193.1230  171.3440  144.5100 N   0  0  0  0  0  0  0  0  0  0  0  0
  192.8010  169.2830  142.6750 N   0  0  0  0  0  0  0  0  0  0  0  0
  190.0460  171.5090  142.6480 C   0  0  0  0  0  2  0  0  0  0  0  0
  191.8630  170.2530  142.8180 C   0  0  0  0  0  0  0  0  0  0  0  0
  192.0210  171.2570  143.7220 C   0  0  0  0  0  0  0  0  0  0  0  0
  190.9800  172.0570  143.6890 C   0  0  0  0  0  0  0  0  0  0  0  0
  194.0860  170.3820  144.3880 C   0  0  0  0  0  3  0  0  0  0  0  0
  188.2500  175.9520  142.9470 O   0  0  0  0  0  0  0  0  0  0  0  0
  186.3780  177.4360  141.5280 O   0  0  0  0  0  0  0  0  0  0  0  0
  187.3240  178.3980  143.9390 O   0  0  0  0  0  1  0  0  0  0  0  0
  187.7330  177.5410  142.5340 P   0  0  0  0  0  0  0  0  0  0  0  0
  188.8410  178.2650  141.8050 O   0  0  0  0  0  1  0  0  0  0  0  0
  196.5920  171.9000  136.3260 C   0  0  0  0  0  2  0  0  0  0  0  0
  197.9190  171.9200  137.0730 C   0  0  0  0  0  2  0  0  0  0  0  0
  197.7020  171.9070  138.5120 N   0  0  0  0  0  2  0  0  0  0  0  0
  197.8140  173.2780  138.9890 C   0  0  0  0  0  2  0  0  0  0  0  0
  196.0910  173.3500  140.7700 C   0  0  0  0  0  0  0  0  0  0  0  0
  196.1870  175.2530  137.5400 C   0  0  0  0  0  1  0  0  0  0  0  0
  194.4850  175.2780  139.3560 C   0  0  0  0  0  2  0  0  0  0  0  0
  192.7490  174.6530  140.8750 O   0  0  0  0  0  0  0  0  0  0  0  0
  193.9500  174.5190  140.5180 C   0  0  0  0  0  0  0  0  0  0  0  0
  196.4920  173.7330  139.5400 C   0  0  0  0  0  0  0  0  0  0  0  0
  194.7960  173.6610  141.2200 O   0  0  0  0  0  0  0  0  0  0  0  0
  195.5050  174.4180  138.6120 C   0  0  2  0  0  3  0  0  0  0  0  0
  196.9880  172.5170  141.6500 C   0  0  0  0  0  2  0  0  0  0  0  0
  196.9550  172.9630  143.0810 C   0  0  0  0  0  0  0  0  0  0  0  0
  196.3850  174.7060  144.8970 C   0  0  2  0  0  3  0  0  0  0  0  0
  196.6220  174.4180  143.3940 C   0  0  0  0  0  2  0  0  0  0  0  0
  196.0460  173.4520  145.7050 C   0  0  0  0  0  2  0  0  0  0  0  0
  197.1900  172.0520  144.0440 C   0  0  0  0  0  3  0  0  0  0  0  0
  197.1480  172.4260  145.4940 C   0  0  0  0  0  2  0  0  0  0  0  0
  195.3120  175.7840  145.0630 C   0  0  0  0  0  3  0  0  0  0  0  0
  194.7120  176.0790  143.8310 O   0  0  0  0  0  1  0  0  0  0  0  0
  194.3330  175.3730  145.9750 O   0  0  0  0  0  1  0  0  0  0  0  0
  191.9470  173.8000  137.3970 O   0  0  0  0  0  0  0  0  0  0  0  0
  191.7560  173.6010  135.0260 C   0  0  0  0  0  2  0  0  0  0  0  0
  191.3110  174.0930  136.1770 C   0  0  0  0  0  0  0  0  0  0  0  0
  190.1890  174.9240  136.1910 O   0  0  0  0  0  0  0  0  0  0  0  0
  188.9860  174.4910  135.7730 O   0  0  0  0  0  1  0  0  0  0  0  0
  1  3  1  0  0  0  0
  1 11  1  0  0  0  0
  3  4  1  0  0  0  0
  4  9  2  0  0  0  0
  5  1  2  0  0  0  0
  6  2  2  0  0  0  0
  7 61  1  6  0  0  0
  7  8  1  0  0  0  0
  8  2  1  0  0  0  0
  8 13  1  1  0  0  0
  9  6  1  0  0  0  0
 10  9  1  0  0  0  0
 10  7  1  0  0  0  0
 11 10  2  0  0  0  0
 12 15  1  0  0  0  0
 13 12  3  0  0  0  0
 15 16  2  0  0  0  0
 16 14  1  0  0  0  0
 16 34  1  0  0  0  0
 17 14  1  6  0  0  0
 17 22  1  0  0  0  0
 17 21  1  0  0  0  0
 18 19  1  0  0  0  0
 19 20  1  0  0  0  0
 21 18  1  1  0  0  0
 21 24  1  0  0  0  0
 22 32  1  6  0  0  0
 22 23  1  0  0  0  0
 23 24  1  0  0  0  0
 24 20  1  1  0  0  0
 25 33  1  0  0  0  0
 26 29  1  0  0  0  0
 26 30  2  0  0  0  0
 28 30  1  0  0  0  0
 28 25  2  0  0  0  0
 29 32  1  0  0  0  0
 30 31  1  0  0  0  0
 31 27  1  0  0  0  0
 32 31  2  0  0  0  0
 33 27  2  0  0  0  0
 35 37  2  0  0  0  0
 37 34  1  0  0  0  0
 37 36  1  0  0  0  0
 38 37  1  0  0  0  0
 39  5  1  0  0  0  0
 39 40  1  0  0  0  0
 40 41  1  0  0  0  0
 41 42  1  0  0  0  0
 42 48  1  0  0  0  0
 43 49  1  0  0  0  0
 43 51  1  0  0  0  0
 45 47  1  0  0  0  0
 47 46  2  0  0  0  0
 47 49  1  0  0  0  0
 48 43  2  0  0  0  0
 50 44  1  6  0  0  0
 50 45  1  0  0  0  0
 50 48  1  0  0  0  0
 51 52  1  0  0  0  0
 52 54  1  0  0  0  0
 52 56  2  0  0  0  0
 53 58  1  6  0  0  0
 53 55  1  0  0  0  0
 54 53  1  0  0  0  0
 56 57  1  0  0  0  0
 57 55  1  0  0  0  0
 58 60  1  0  0  0  0
 59 58  1  0  0  0  0
 62 63  2  0  0  0  0
 63 64  1  0  0  0  0
 63 61  1  0  0  0  0
 65 64  1  0  0  0  0
M  END
>  <MODEL>
4

>  <REMARK>
 VINA RESULT:      -6.1      3.474      8.272
  Name = 
  17 active torsions:
  status: ('A' for Active; 'I' for Inactive)
    1  A    between atoms: C_2  and  C_19
    2  A    between atoms: C_3  and  N_15
    3  A    between atoms: C_5  and  C_19
    4  A    between atoms: C_6  and  C_9
    5  A    between atoms: C_7  and  N_30
    6  A    between atoms: O_11  and  C_42
    7  A    between atoms: C_13  and  N_28
    8  A    between atoms: C_13  and  C_53
    9  A    between atoms: O_14  and  P_27
   10  A    between atoms: O_14  and  C_59
   11  A    between atoms: O_24  and  C_42
   12  A    between atoms: O_24  and  C_46
   13  A    between atoms: N_28  and  C_29
   14  A    between atoms: C_29  and  C_40
   15  A    between atoms: C_33  and  C_53
   16  A    between atoms: C_35  and  C_50
   17  A    between atoms: C_56  and  C_63
                            x       y       z     vdW  Elec       q    Type
                         _______ _______ _______ _____ _____    ______ ____

>  <TORSDO>
F 17

$$$$
=
 OpenBabel11042416393D

 65 72  0  0  1  0  0  0  0  0999 V2000
  190.1430  176.1060  146.7340 C   0  0  0  0  0  0  0  0  0  0  0  0
  194.9630  176.0240  145.2360 C   0  0  0  0  0  3  0  0  0  0  0  0
  191.0080  176.0490  147.8700 N   0  0  0  0  0  2  0  0  0  0  0  0
  192.4000  175.9760  147.6960 N   0  0  0  0  0  0  0  0  0  0  0  0
  188.8210  176.0790  146.9130 C   0  0  0  0  0  3  0  0  0  0  0  0
  194.3550  175.8670  146.3730 N   0  0  0  0  0  0  0  0  0  0  0  0
  192.7550  176.0740  143.9450 C   0  0  1  0  0  3  0  0  0  0  0  0
  194.2450  176.4620  143.9860 C   0  0  2  0  0  3  0  0  0  0  0  0
  192.9370  176.0090  146.5130 C   0  0  0  0  0  0  0  0  0  0  0  0
  192.0950  176.1260  145.2960 C   0  0  0  0  0  0  0  0  0  0  0  0
  190.7640  176.1380  145.4020 C   0  0  0  0  0  3  0  0  0  0  0  0
  195.4850  175.4200  141.8680 C   0  0  0  0  0  0  0  0  0  0  0  0
  194.9230  175.9080  142.8140 C   0  0  0  0  0  0  0  0  0  0  0  0
  195.2250  172.6800  141.2800 N   0  0  0  0  0  2  0  0  0  0  0  0
  196.1340  174.8210  140.7800 N   0  0  0  0  0  0  0  0  0  0  0  0
  196.0430  173.5590  140.4870 C   0  0  0  0  0  0  0  0  0  0  0  0
  195.1740  171.2140  141.1950 C   0  0  1  0  0  3  0  0  0  0  0  0
  196.3820  169.4770  139.9180 C   0  0  0  0  0  2  0  0  0  0  0  0
  197.2100  168.3480  140.4830 C   0  0  0  0  0  2  0  0  0  0  0  0
  197.1910  168.5410  141.9800 C   0  0  0  0  0  2  0  0  0  0  0  0
  196.5250  170.6300  140.8860 C   0  0  2  0  0  3  0  0  0  0  0  0
  194.8170  170.5430  142.5130 C   0  0  1  0  0  3  0  0  0  0  0  0
  195.9990  170.2320  143.2000 O   0  0  0  0  0  0  0  0  0  0  0  0
  196.9800  170.0250  142.2070 C   0  0  1  0  0  3  0  0  0  0  0  0
  189.8340  171.4780  143.3970 C   0  0  0  0  0  3  0  0  0  0  0  0
  192.8100  172.5790  145.0040 N   0  0  0  0  0  0  0  0  0  0  0  0
  191.7950  170.5810  142.3300 N   0  0  0  0  0  0  0  0  0  0  0  0
  190.6130  172.1430  144.3010 N   0  0  0  0  0  0  0  0  0  0  0  0
  194.1460  172.1630  144.5500 C   0  0  0  0  0  2  0  0  0  0  0  0
  191.9620  172.0220  144.2110 C   0  0  0  0  0  0  0  0  0  0  0  0
  192.5360  171.2510  143.2490 C   0  0  0  0  0  0  0  0  0  0  0  0
  193.8430  171.2770  143.3760 C   0  0  0  0  0  0  0  0  0  0  0  0
  190.4330  170.6840  142.3950 C   0  0  0  0  0  3  0  0  0  0  0  0
  196.7590  173.0440  139.4030 O   0  0  0  0  0  0  0  0  0  0  0  0
  197.3530  172.4080  136.7640 O   0  0  0  0  0  0  0  0  0  0  0  0
  194.7640  172.1080  137.6800 O   0  0  0  0  0  1  0  0  0  0  0  0
  196.1690  173.0510  137.7860 P   0  0  0  0  0  0  0  0  0  0  0  0
  195.8590  174.4680  137.3620 O   0  0  0  0  0  1  0  0  0  0  0  0
  187.8290  176.1100  145.7890 C   0  0  0  0  0  2  0  0  0  0  0  0
  186.8010  177.2170  145.9810 C   0  0  0  0  0  2  0  0  0  0  0  0
  186.2530  177.6410  144.7010 N   0  0  0  0  0  2  0  0  0  0  0  0
  185.9120  176.4420  143.9480 C   0  0  0  0  0  2  0  0  0  0  0  0
  187.0730  175.9580  141.8120 C   0  0  0  0  0  0  0  0  0  0  0  0
  184.1820  178.2680  142.4220 C   0  0  0  0  0  1  0  0  0  0  0  0
  185.3900  177.7500  140.3090 C   0  0  0  0  0  2  0  0  0  0  0  0
  187.0640  177.5820  138.6120 O   0  0  0  0  0  0  0  0  0  0  0  0
  186.6570  177.2120  139.7450 C   0  0  0  0  0  0  0  0  0  0  0  0
  186.1510  176.6790  142.4830 C   0  0  0  0  0  0  0  0  0  0  0  0
  187.3910  176.2810  140.4810 O   0  0  0  0  0  0  0  0  0  0  0  0
  185.5290  177.8970  141.8230 C   0  0  2  0  0  3  0  0  0  0  0  0
  187.8350  174.8510  142.4950 C   0  0  0  0  0  2  0  0  0  0  0  0
  188.8650  174.2320  141.5990 C   0  0  0  0  0  0  0  0  0  0  0  0
  189.5270  172.9290  139.4720 C   0  0  2  0  0  3  0  0  0  0  0  0
  188.4070  173.3160  140.4680 C   0  0  0  0  0  2  0  0  0  0  0  0
  190.7210  173.8860  139.5040 C   0  0  0  0  0  2  0  0  0  0  0  0
  190.1610  174.5330  141.8050 C   0  0  0  0  0  3  0  0  0  0  0  0
  191.2390  173.9690  140.9300 C   0  0  0  0  0  2  0  0  0  0  0  0
  188.9530  172.8000  138.0600 C   0  0  0  0  0  3  0  0  0  0  0  0
  187.8370  173.6330  137.9010 O   0  0  0  0  0  1  0  0  0  0  0  0
  189.9190  173.1220  137.0990 O   0  0  0  0  0  1  0  0  0  0  0  0
  192.0460  176.8410  142.9580 O   0  0  0  0  0  0  0  0  0  0  0  0
  191.7390  179.0010  143.9280 C   0  0  0  0  0  2  0  0  0  0  0  0
  191.2650  177.9820  143.2200 C   0  0  0  0  0  0  0  0  0  0  0  0
  189.9610  178.0280  142.7220 O   0  0  0  0  0  0  0  0  0  0  0  0
  188.9230  178.3830  143.4990 O   0  0  0  0  0  1  0  0  0  0  0  0
  1  5  2  0  0  0  0
  1  3  1  0  0  0  0
  2  6  2  0  0  0  0
  4  3  1  0  0  0  0
  6  9  1  0  0  0  0
  7 61  1  6  0  0  0
  7  8  1  0  0  0  0
  7 10  1  0  0  0  0
  8 13  1  6  0  0  0
  8  2  1  0  0  0  0
  9  4  2  0  0  0  0
 10 11  2  0  0  0  0
 10  9  1  0  0  0  0
 11  1  1  0  0  0  0
 12 13  3  0  0  0  0
 15 12  1  0  0  0  0
 16 15  2  0  0  0  0
 16 14  1  0  0  0  0
 17 14  1  1  0  0  0
 17 22  1  0  0  0  0
 18 19  1  0  0  0  0
 19 20  1  0  0  0  0
 21 18  1  6  0  0  0
 21 17  1  0  0  0  0
 21 24  1  0  0  0  0
 22 23  1  0  0  0  0
 22 32  1  1  0  0  0
 24 20  1  6  0  0  0
 24 23  1  0  0  0  0
 25 28  2  0  0  0  0
 27 33  2  0  0  0  0
 27 31  1  0  0  0  0
 29 26  1  0  0  0  0
 30 28  1  0  0  0  0
 30 26  2  0  0  0  0
 31 32  2  0  0  0  0
 31 30  1  0  0  0  0
 32 29  1  0  0  0  0
 33 25  1  0  0  0  0
 34 16  1  0  0  0  0
 35 37  2  0  0  0  0
 36 37  1  0  0  0  0
 37 34  1  0  0  0  0
 38 37  1  0  0  0  0
 39 40  1  0  0  0  0
 39  5  1  0  0  0  0
 41 40  1  0  0  0  0
 42 41  1  0  0  0  0
 43 48  2  0  0  0  0
 43 51  1  0  0  0  0
 45 50  1  0  0  0  0
 46 47  2  0  0  0  0
 47 45  1  0  0  0  0
 47 49  1  0  0  0  0
 48 42  1  0  0  0  0
 49 43  1  0  0  0  0
 50 44  1  1  0  0  0
 50 48  1  0  0  0  0
 52 56  2  0  0  0  0
 52 51  1  0  0  0  0
 53 58  1  6  0  0  0
 53 55  1  0  0  0  0
 53 54  1  0  0  0  0
 54 52  1  0  0  0  0
 55 57  1  0  0  0  0
 57 56  1  0  0  0  0
 59 58  1  0  0  0  0
 60 58  1  0  0  0  0
 61 63  1  0  0  0  0
 63 62  2  0  0  0  0
 64 63  1  0  0  0  0
 64 65  1  0  0  0  0
M  END
>  <MODEL>
5

>  <REMARK>
 VINA RESULT:      -5.9      2.938      6.371
  Name = 
  17 active torsions:
  status: ('A' for Active; 'I' for Inactive)
    1  A    between atoms: C_2  and  C_19
    2  A    between atoms: C_3  and  N_15
    3  A    between atoms: C_5  and  C_19
    4  A    between atoms: C_6  and  C_9
    5  A    between atoms: C_7  and  N_30
    6  A    between atoms: O_11  and  C_42
    7  A    between atoms: C_13  and  N_28
    8  A    between atoms: C_13  and  C_53
    9  A    between atoms: O_14  and  P_27
   10  A    between atoms: O_14  and  C_59
   11  A    between atoms: O_24  and  C_42
   12  A    between atoms: O_24  and  C_46
   13  A    between atoms: N_28  and  C_29
   14  A    between atoms: C_29  and  C_40
   15  A    between atoms: C_33  and  C_53
   16  A    between atoms: C_35  and  C_50
   17  A    between atoms: C_56  and  C_63
                            x       y       z     vdW  Elec       q    Type
                         _______ _______ _______ _____ _____    ______ ____

>  <TORSDO>
F 17

$$$$
=
 OpenBabel11042416393D

 65 72  0  0  1  0  0  0  0  0999 V2000
  186.0500  177.5010  146.0380 C   0  0  0  0  0  0  0  0  0  0  0  0
  189.9210  174.4660  147.1760 C   0  0  0  0  0  3  0  0  0  0  0  0
  186.0700  177.2380  147.4430 N   0  0  0  0  0  2  0  0  0  0  0  0
  187.0400  176.3800  147.9880 N   0  0  0  0  0  0  0  0  0  0  0  0
  185.0660  178.2410  145.5220 C   0  0  0  0  0  3  0  0  0  0  0  0
  188.8960  174.9270  147.8290 N   0  0  0  0  0  0  0  0  0  0  0  0
  189.0690  175.4210  144.9610 C   0  0  1  0  0  3  0  0  0  0  0  0
  190.2730  174.9300  145.7860 C   0  0  2  0  0  3  0  0  0  0  0  0
  187.9660  175.8470  147.2480 C   0  0  0  0  0  0  0  0  0  0  0  0
  188.0330  176.1270  145.7920 C   0  0  0  0  0  0  0  0  0  0  0  0
  187.1000  176.8870  145.2120 C   0  0  0  0  0  3  0  0  0  0  0  0
  191.5320  172.9780  144.4770 C   0  0  0  0  0  0  0  0  0  0  0  0
  190.9470  173.8490  145.0670 C   0  0  0  0  0  0  0  0  0  0  0  0
  194.0810  173.4280  143.3730 N   0  0  0  0  0  2  0  0  0  0  0  0
  192.2430  171.9790  143.7980 N   0  0  0  0  0  0  0  0  0  0  0  0
  193.4160  172.1570  143.2700 C   0  0  0  0  0  0  0  0  0  0  0  0
  195.3060  173.8380  142.6710 C   0  0  1  0  0  3  0  0  0  0  0  0
  195.8730  175.5060  140.9380 C   0  0  0  0  0  2  0  0  0  0  0  0
  196.8420  176.6550  141.0700 C   0  0  0  0  0  2  0  0  0  0  0  0
  197.3400  176.6050  142.4940 C   0  0  0  0  0  2  0  0  0  0  0  0
  195.2760  175.2980  142.3120 C   0  0  2  0  0  3  0  0  0  0  0  0
  196.5580  173.7340  143.5280 C   0  0  1  0  0  3  0  0  0  0  0  0
  196.7820  174.9660  144.1590 O   0  0  0  0  0  0  0  0  0  0  0  0
  196.2390  175.9440  143.2990 C   0  0  1  0  0  3  0  0  0  0  0  0
  197.8350  168.7900  144.1790 C   0  0  0  0  0  3  0  0  0  0  0  0
  196.4520  171.2260  146.3710 N   0  0  0  0  0  0  0  0  0  0  0  0
  197.5170  170.8990  143.0650 N   0  0  0  0  0  0  0  0  0  0  0  0
  197.3320  169.3110  145.3370 N   0  0  0  0  0  0  0  0  0  0  0  0
  196.1690  172.6020  145.9360 C   0  0  0  0  0  2  0  0  0  0  0  0
  196.9290  170.6070  145.3470 C   0  0  0  0  0  0  0  0  0  0  0  0
  197.0270  171.3830  144.2350 C   0  0  0  0  0  0  0  0  0  0  0  0
  196.5940  172.5950  144.4950 C   0  0  0  0  0  0  0  0  0  0  0  0
  197.9300  169.5970  143.0230 C   0  0  0  0  0  3  0  0  0  0  0  0
  194.0320  171.1100  142.5780 O   0  0  0  0  0  0  0  0  0  0  0  0
  193.9200  169.0020  144.3860 O   0  0  0  0  0  1  0  0  0  0  0  0
  191.9600  169.2350  142.4530 O   0  0  0  0  0  1  0  0  0  0  0  0
  193.6080  169.4550  142.7870 P   0  0  0  0  0  0  0  0  0  0  0  0
  194.4310  168.5960  141.8550 O   0  0  0  0  0  0  0  0  0  0  0  0
  184.9410  178.5540  144.0620 C   0  0  0  0  0  2  0  0  0  0  0  0
  186.0790  179.4460  143.5810 C   0  0  0  0  0  2  0  0  0  0  0  0
  186.7070  178.8870  142.3940 N   0  0  0  0  0  2  0  0  0  0  0  0
  186.2280  177.5200  142.2430 C   0  0  0  0  0  2  0  0  0  0  0  0
  187.3030  176.3870  140.3170 C   0  0  0  0  0  0  0  0  0  0  0  0
  183.9550  178.0720  140.4600 C   0  0  0  0  0  1  0  0  0  0  0  0
  185.0850  176.9300  138.5600 C   0  0  0  0  0  2  0  0  0  0  0  0
  186.6000  176.3740  136.7980 O   0  0  0  0  0  0  0  0  0  0  0  0
  186.4000  176.4720  138.0380 C   0  0  0  0  0  0  0  0  0  0  0  0
  186.2770  177.1230  140.7940 C   0  0  0  0  0  0  0  0  0  0  0  0
  187.4140  176.1410  138.9370 O   0  0  0  0  0  0  0  0  0  0  0  0
  185.2990  177.7610  139.8230 C   0  0  2  0  0  3  0  0  0  0  0  0
  188.3860  175.8850  141.2370 C   0  0  0  0  0  2  0  0  0  0  0  0
  188.5760  174.4010  141.1350 C   0  0  0  0  0  0  0  0  0  0  0  0
  189.5290  172.3160  139.9500 C   0  0  2  0  0  3  0  0  0  0  0  0
  189.1610  173.8160  139.8530 C   0  0  0  0  0  2  0  0  0  0  0  0
  189.7050  171.8300  141.3900 C   0  0  0  0  0  2  0  0  0  0  0  0
  188.2530  173.6370  142.1950 C   0  0  0  0  0  3  0  0  0  0  0  0
  188.4410  172.1510  142.1690 C   0  0  0  0  0  2  0  0  0  0  0  0
  190.7720  172.0240  139.1060 C   0  0  0  0  0  3  0  0  0  0  0  0
  191.3470  173.2160  138.6430 O   0  0  0  0  0  1  0  0  0  0  0  0
  191.7170  171.3050  139.8470 O   0  0  0  0  0  1  0  0  0  0  0  0
  189.4980  176.2050  143.8340 O   0  0  0  0  0  0  0  0  0  0  0  0
  190.5000  178.3210  144.2990 C   0  0  0  0  0  2  0  0  0  0  0  0
  190.5960  177.0840  143.8260 C   0  0  0  0  0  0  0  0  0  0  0  0
  191.8100  176.6320  143.3000 O   0  0  0  0  0  0  0  0  0  0  0  0
  191.8520  175.7780  142.2630 O   0  0  0  0  0  1  0  0  0  0  0  0
  1  3  1  0  0  0  0
  2  6  2  0  0  0  0
  3  4  1  0  0  0  0
  5  1  2  0  0  0  0
  7 61  1  6  0  0  0
  7  8  1  0  0  0  0
  7 10  1  0  0  0  0
  8 13  1  6  0  0  0
  8  2  1  0  0  0  0
  9  6  1  0  0  0  0
  9  4  2  0  0  0  0
 10  9  1  0  0  0  0
 11 10  2  0  0  0  0
 11  1  1  0  0  0  0
 12 13  3  0  0  0  0
 15 12  1  0  0  0  0
 16 14  1  0  0  0  0
 16 15  2  0  0  0  0
 17 14  1  1  0  0  0
 17 22  1  0  0  0  0
 18 19  1  0  0  0  0
 19 20  1  0  0  0  0
 21 18  1  6  0  0  0
 21 17  1  0  0  0  0
 21 24  1  0  0  0  0
 22 23  1  0  0  0  0
 22 32  1  1  0  0  0
 24 20  1  6  0  0  0
 24 23  1  0  0  0  0
 25 28  2  0  0  0  0
 27 31  1  0  0  0  0
 28 30  1  0  0  0  0
 29 26  1  0  0  0  0
 30 26  2  0  0  0  0
 31 32  2  0  0  0  0
 31 30  1  0  0  0  0
 32 29  1  0  0  0  0
 33 27  2  0  0  0  0
 33 25  1  0  0  0  0
 34 37  1  0  0  0  0
 34 16  1  0  0  0  0
 36 37  1  0  0  0  0
 37 35  1  0  0  0  0
 38 37  2  0  0  0  0
 39  5  1  0  0  0  0
 40 39  1  0  0  0  0
 41 40  1  0  0  0  0
 42 41  1  0  0  0  0
 43 48  2  0  0  0  0
 43 51  1  0  0  0  0
 45 50  1  0  0  0  0
 46 47  2  0  0  0  0
 47 45  1  0  0  0  0
 47 49  1  0  0  0  0
 48 42  1  0  0  0  0
 49 43  1  0  0  0  0
 50 44  1  1  0  0  0
 50 48  1  0  0  0  0
 52 51  1  0  0  0  0
 52 56  2  0  0  0  0
 53 58  1  6  0  0  0
 53 55  1  0  0  0  0
 54 53  1  0  0  0  0
 54 52  1  0  0  0  0
 55 57  1  0  0  0  0
 57 56  1  0  0  0  0
 58 60  1  0  0  0  0
 59 58  1  0  0  0  0
 63 61  1  0  0  0  0
 63 62  2  0  0  0  0
 64 63  1  0  0  0  0
 65 64  1  0  0  0  0
M  END
>  <MODEL>
6

>  <REMARK>
 VINA RESULT:      -5.7      2.733      5.916
  Name = 
  17 active torsions:
  status: ('A' for Active; 'I' for Inactive)
    1  A    between atoms: C_2  and  C_19
    2  A    between atoms: C_3  and  N_15
    3  A    between atoms: C_5  and  C_19
    4  A    between atoms: C_6  and  C_9
    5  A    between atoms: C_7  and  N_30
    6  A    between atoms: O_11  and  C_42
    7  A    between atoms: C_13  and  N_28
    8  A    between atoms: C_13  and  C_53
    9  A    between atoms: O_14  and  P_27
   10  A    between atoms: O_14  and  C_59
   11  A    between atoms: O_24  and  C_42
   12  A    between atoms: O_24  and  C_46
   13  A    between atoms: N_28  and  C_29
   14  A    between atoms: C_29  and  C_40
   15  A    between atoms: C_33  and  C_53
   16  A    between atoms: C_35  and  C_50
   17  A    between atoms: C_56  and  C_63
                            x       y       z     vdW  Elec       q    Type
                         _______ _______ _______ _____ _____    ______ ____

>  <TORSDO>
F 17

$$$$
=
 OpenBabel11042416393D

 65 72  0  0  1  0  0  0  0  0999 V2000
  188.3200  176.1770  141.2810 C   0  0  0  0  0  0  0  0  0  0  0  0
  189.2810  172.0960  138.4680 C   0  0  0  0  0  3  0  0  0  0  0  0
  187.3530  176.0650  140.2350 N   0  0  0  0  0  2  0  0  0  0  0  0
  187.4450  175.0230  139.2970 N   0  0  0  0  0  0  0  0  0  0  0  0
  188.2760  177.2250  142.1070 C   0  0  0  0  0  3  0  0  0  0  0  0
  188.4680  173.1050  138.3700 N   0  0  0  0  0  0  0  0  0  0  0  0
  190.4700  173.1180  140.4890 C   0  0  1  0  0  3  0  0  0  0  0  0
  190.1200  171.8470  139.6940 C   0  0  2  0  0  3  0  0  0  0  0  0
  188.3690  174.1130  139.3820 C   0  0  0  0  0  0  0  0  0  0  0  0
  189.3670  174.1420  140.4800 C   0  0  0  0  0  0  0  0  0  0  0  0
  189.3640  175.1440  141.3630 C   0  0  0  0  0  3  0  0  0  0  0  0
  192.3540  170.5630  139.0100 C   0  0  0  0  0  0  0  0  0  0  0  0
  191.3530  171.1590  139.3100 C   0  0  0  0  0  0  0  0  0  0  0  0
  194.9330  171.3760  139.7890 N   0  0  0  0  0  2  0  0  0  0  0  0
  193.5050  169.8390  138.6680 N   0  0  0  0  0  0  0  0  0  0  0  0
  194.7090  170.1920  139.0030 C   0  0  0  0  0  0  0  0  0  0  0  0
  196.2300  172.0040  140.0790 C   0  0  1  0  0  3  0  0  0  0  0  0
  197.4970  173.9300  139.1870 C   0  0  0  0  0  2  0  0  0  0  0  0
  197.9390  175.1550  139.9510 C   0  0  0  0  0  2  0  0  0  0  0  0
  197.3960  174.9810  141.3480 C   0  0  0  0  0  2  0  0  0  0  0  0
  196.1970  173.4860  139.8210 C   0  0  2  0  0  3  0  0  0  0  0  0
  196.6230  171.9330  141.5470 C   0  0  1  0  0  3  0  0  0  0  0  0
  196.1750  173.0930  142.1950 O   0  0  0  0  0  0  0  0  0  0  0  0
  196.1660  174.1050  141.2110 C   0  0  1  0  0  3  0  0  0  0  0  0
  194.7040  170.0500  145.9360 C   0  0  0  0  0  3  0  0  0  0  0  0
  195.7090  168.5070  142.8920 N   0  0  0  0  0  0  0  0  0  0  0  0
  195.5270  171.6680  144.3570 N   0  0  0  0  0  0  0  0  0  0  0  0
  194.9360  169.0420  145.0440 N   0  0  0  0  0  0  0  0  0  0  0  0
  196.2400  169.2800  141.7600 C   0  0  0  0  0  2  0  0  0  0  0  0
  195.4570  169.3540  143.8300 C   0  0  0  0  0  0  0  0  0  0  0  0
  195.7380  170.6420  143.4950 C   0  0  0  0  0  0  0  0  0  0  0  0
  196.2130  170.6920  142.2720 C   0  0  0  0  0  0  0  0  0  0  0  0
  195.0040  171.3860  145.5880 C   0  0  0  0  0  3  0  0  0  0  0  0
  195.7990  169.4260  138.5820 O   0  0  0  0  0  0  0  0  0  0  0  0
  195.3180  169.3870  135.8450 O   0  0  0  0  0  0  0  0  0  0  0  0
  197.2340  171.0990  136.8590 O   0  0  0  0  0  1  0  0  0  0  0  0
  196.5160  169.5720  137.0230 P   0  0  0  0  0  0  0  0  0  0  0  0
  197.5650  168.4990  136.8420 O   0  0  0  0  0  1  0  0  0  0  0  0
  189.2560  177.4470  143.2190 C   0  0  0  0  0  2  0  0  0  0  0  0
  190.3660  178.4030  142.8050 C   0  0  0  0  0  2  0  0  0  0  0  0
  191.5420  178.2240  143.6430 N   0  0  0  0  0  2  0  0  0  0  0  0
  191.2350  177.1860  144.6180 C   0  0  0  0  0  2  0  0  0  0  0  0
  192.8800  176.4020  146.2990 C   0  0  0  0  0  0  0  0  0  0  0  0
  192.7560  175.6440  142.6280 C   0  0  0  0  0  1  0  0  0  0  0  0
  194.3820  174.8940  144.3560 C   0  0  0  0  0  2  0  0  0  0  0  0
  196.1030  174.8500  146.0130 O   0  0  0  0  0  0  0  0  0  0  0  0
  194.9310  175.1940  145.7060 C   0  0  0  0  0  0  0  0  0  0  0  0
  192.4970  176.4670  145.0060 C   0  0  0  0  0  0  0  0  0  0  0  0
  194.1290  175.8520  146.6380 O   0  0  0  0  0  0  0  0  0  0  0  0
  193.4600  176.0310  143.9180 C   0  0  2  0  0  3  0  0  0  0  0  0
  192.0190  176.9850  147.3900 C   0  0  0  0  0  2  0  0  0  0  0  0
  190.6140  176.4650  147.3450 C   0  0  0  0  0  0  0  0  0  0  0  0
  188.0810  176.8120  146.9850 C   0  0  2  0  0  3  0  0  0  0  0  0
  189.4590  177.4600  147.2640 C   0  0  0  0  0  2  0  0  0  0  0  0
  188.1850  175.4150  146.3680 C   0  0  0  0  0  2  0  0  0  0  0  0
  190.4200  175.1330  147.3430 C   0  0  0  0  0  3  0  0  0  0  0  0
  189.0430  174.5480  147.2740 C   0  0  0  0  0  2  0  0  0  0  0  0
  187.2290  177.7420  146.1200 C   0  0  0  0  0  3  0  0  0  0  0  0
  186.3980  177.0020  145.2670 O   0  0  0  0  0  1  0  0  0  0  0  0
  186.4490  178.5870  146.9180 O   0  0  0  0  0  1  0  0  0  0  0  0
  190.9080  172.7950  141.8200 O   0  0  0  0  0  0  0  0  0  0  0  0
  189.2230  171.9450  143.2830 C   0  0  0  0  0  2  0  0  0  0  0  0
  190.3680  171.7780  142.6290 C   0  0  0  0  0  0  0  0  0  0  0  0
  191.0640  170.5720  142.7410 O   0  0  0  0  0  0  0  0  0  0  0  0
  192.1930  170.4760  143.4640 O   0  0  0  0  0  1  0  0  0  0  0  0
  1 11  1  0  0  0  0
  1  5  2  0  0  0  0
  2  8  1  0  0  0  0
  3  1  1  0  0  0  0
  4  9  2  0  0  0  0
  4  3  1  0  0  0  0
  5 39  1  0  0  0  0
  6  2  2  0  0  0  0
  6  9  1  0  0  0  0
  7 61  1  1  0  0  0
  8 13  1  6  0  0  0
  8  7  1  0  0  0  0
  9 10  1  0  0  0  0
 10  7  1  0  0  0  0
 10 11  2  0  0  0  0
 12 13  3  0  0  0  0
 15 16  2  0  0  0  0
 15 12  1  0  0  0  0
 16 14  1  0  0  0  0
 17 14  1  1  0  0  0
 17 22  1  0  0  0  0
 18 19  1  0  0  0  0
 19 20  1  0  0  0  0
 21 18  1  1  0  0  0
 21 17  1  0  0  0  0
 21 24  1  0  0  0  0
 22 23  1  0  0  0  0
 22 32  1  1  0  0  0
 24 20  1  1  0  0  0
 24 23  1  0  0  0  0
 26 30  2  0  0  0  0
 27 33  2  0  0  0  0
 28 25  2  0  0  0  0
 29 32  1  0  0  0  0
 29 26  1  0  0  0  0
 30 28  1  0  0  0  0
 31 30  1  0  0  0  0
 31 27  1  0  0  0  0
 32 31  2  0  0  0  0
 33 25  1  0  0  0  0
 34 16  1  0  0  0  0
 35 37  2  0  0  0  0
 36 37  1  0  0  0  0
 37 34  1  0  0  0  0
 38 37  1  0  0  0  0
 40 39  1  0  0  0  0
 40 41  1  0  0  0  0
 41 42  1  0  0  0  0
 42 48  1  0  0  0  0
 43 49  1  0  0  0  0
 43 51  1  0  0  0  0
 45 47  1  0  0  0  0
 47 46  2  0  0  0  0
 47 49  1  0  0  0  0
 48 43  2  0  0  0  0
 50 44  1  6  0  0  0
 50 45  1  0  0  0  0
 50 48  1  0  0  0  0
 52 51  1  0  0  0  0
 53 58  1  6  0  0  0
 53 54  1  0  0  0  0
 54 52  1  0  0  0  0
 55 53  1  0  0  0  0
 55 57  1  0  0  0  0
 56 52  2  0  0  0  0
 57 56  1  0  0  0  0
 58 60  1  0  0  0  0
 59 58  1  0  0  0  0
 61 63  1  0  0  0  0
 63 64  1  0  0  0  0
 63 62  2  0  0  0  0
 64 65  1  0  0  0  0
M  END
>  <MODEL>
7

>  <REMARK>
 VINA RESULT:      -5.5      1.996      4.320
  Name = 
  17 active torsions:
  status: ('A' for Active; 'I' for Inactive)
    1  A    between atoms: C_2  and  C_19
    2  A    between atoms: C_3  and  N_15
    3  A    between atoms: C_5  and  C_19
    4  A    between atoms: C_6  and  C_9
    5  A    between atoms: C_7  and  N_30
    6  A    between atoms: O_11  and  C_42
    7  A    between atoms: C_13  and  N_28
    8  A    between atoms: C_13  and  C_53
    9  A    between atoms: O_14  and  P_27
   10  A    between atoms: O_14  and  C_59
   11  A    between atoms: O_24  and  C_42
   12  A    between atoms: O_24  and  C_46
   13  A    between atoms: N_28  and  C_29
   14  A    between atoms: C_29  and  C_40
   15  A    between atoms: C_33  and  C_53
   16  A    between atoms: C_35  and  C_50
   17  A    between atoms: C_56  and  C_63
                            x       y       z     vdW  Elec       q    Type
                         _______ _______ _______ _____ _____    ______ ____

>  <TORSDO>
F 17

$$$$
=
 OpenBabel11042416393D

 65 72  0  0  1  0  0  0  0  0999 V2000
  189.8040  174.5070  146.0880 C   0  0  0  0  0  0  0  0  0  0  0  0
  192.0350  171.8210  142.4420 C   0  0  0  0  0  3  0  0  0  0  0  0
  189.3170  173.1640  146.1030 N   0  0  0  0  0  2  0  0  0  0  0  0
  189.7680  172.2380  145.1460 N   0  0  0  0  0  0  0  0  0  0  0  0
  189.2960  175.3990  146.9420 C   0  0  0  0  0  3  0  0  0  0  0  0
  191.0530  171.6090  143.2650 N   0  0  0  0  0  0  0  0  0  0  0  0
  192.2260  174.2740  143.1410 C   0  0  1  0  0  3  0  0  0  0  0  0
  192.9150  173.0420  142.5270 C   0  0  2  0  0  3  0  0  0  0  0  0
  190.6670  172.5600  144.2630 C   0  0  0  0  0  0  0  0  0  0  0  0
  191.2530  173.9230  144.2340 C   0  0  0  0  0  0  0  0  0  0  0  0
  190.8160  174.8590  145.0820 C   0  0  0  0  0  3  0  0  0  0  0  0
  193.8340  173.6200  140.0920 C   0  0  0  0  0  0  0  0  0  0  0  0
  193.4120  173.3780  141.1930 C   0  0  0  0  0  0  0  0  0  0  0  0
  194.0190  171.6080  138.1350 N   0  0  0  0  0  2  0  0  0  0  0  0
  194.3280  173.8690  138.8040 N   0  0  0  0  0  0  0  0  0  0  0  0
  194.4350  172.9620  137.8820 C   0  0  0  0  0  0  0  0  0  0  0  0
  194.2540  170.4420  137.2710 C   0  0  1  0  0  3  0  0  0  0  0  0
  195.0790  170.0890  134.9680 C   0  0  0  0  0  2  0  0  0  0  0  0
  196.2970  169.3000  134.5530 C   0  0  0  0  0  2  0  0  0  0  0  0
  196.9320  168.8280  135.8380 C   0  0  0  0  0  2  0  0  0  0  0  0
  195.3990  170.6760  136.3240 C   0  0  2  0  0  3  0  0  0  0  0  0
  194.7050  169.2050  138.0340 C   0  0  1  0  0  3  0  0  0  0  0  0
  196.1060  169.1740  138.0670 O   0  0  0  0  0  0  0  0  0  0  0  0
  196.5340  169.8370  136.8970 C   0  0  1  0  0  3  0  0  0  0  0  0
  190.3910  168.1660  140.6420 C   0  0  0  0  0  3  0  0  0  0  0  0
  193.7310  168.8150  141.6780 N   0  0  0  0  0  0  0  0  0  0  0  0
  191.8310  168.5870  138.7610 N   0  0  0  0  0  0  0  0  0  0  0  0
  191.4380  168.3430  141.5010 N   0  0  0  0  0  0  0  0  0  0  0  0
  194.8090  169.0940  140.7180 C   0  0  0  0  0  2  0  0  0  0  0  0
  192.6590  168.6390  140.9860 C   0  0  0  0  0  0  0  0  0  0  0  0
  192.8480  168.7510  139.6440 C   0  0  0  0  0  0  0  0  0  0  0  0
  194.1080  169.0230  139.3920 C   0  0  0  0  0  0  0  0  0  0  0  0
  190.5890  168.2890  139.2490 C   0  0  0  0  0  3  0  0  0  0  0  0
  194.9770  173.2960  136.6380 O   0  0  0  0  0  0  0  0  0  0  0  0
  196.3620  175.6460  137.1700 O   0  0  0  0  0  1  0  0  0  0  0  0
  197.7200  173.2390  137.1850 O   0  0  0  0  0  1  0  0  0  0  0  0
  196.4750  174.1220  136.4450 P   0  0  0  0  0  0  0  0  0  0  0  0
  196.7800  174.2890  134.9750 O   0  0  0  0  0  0  0  0  0  0  0  0
  189.7200  176.8360  146.9920 C   0  0  0  0  0  2  0  0  0  0  0  0
  188.5540  177.7730  146.7060 C   0  0  0  0  0  2  0  0  0  0  0  0
  188.3330  177.9010  145.2740 N   0  0  0  0  0  2  0  0  0  0  0  0
  187.4210  176.8390  144.8710 C   0  0  0  0  0  2  0  0  0  0  0  0
  187.0820  177.0820  142.4270 C   0  0  0  0  0  0  0  0  0  0  0  0
  184.6940  177.8920  145.2030 C   0  0  0  0  0  1  0  0  0  0  0  0
  184.4140  178.1220  142.7410 C   0  0  0  0  0  2  0  0  0  0  0  0
  184.6340  178.8270  140.4690 O   0  0  0  0  0  0  0  0  0  0  0  0
  185.1430  178.2210  141.4490 C   0  0  0  0  0  0  0  0  0  0  0  0
  186.6200  177.2840  143.6790 C   0  0  0  0  0  0  0  0  0  0  0  0
  186.3980  177.6260  141.3260 O   0  0  0  0  0  0  0  0  0  0  0  0
  185.4130  178.1790  143.8950 C   0  0  2  0  0  3  0  0  0  0  0  0
  188.3750  176.3440  142.1910 C   0  0  0  0  0  2  0  0  0  0  0  0
  188.1580  175.0110  141.5410 C   0  0  0  0  0  0  0  0  0  0  0  0
  188.1950  173.4670  139.4720 C   0  0  2  0  0  3  0  0  0  0  0  0
  188.1940  174.9160  140.0180 C   0  0  0  0  0  2  0  0  0  0  0  0
  188.6460  172.4330  140.5060 C   0  0  0  0  0  2  0  0  0  0  0  0
  187.9710  173.9340  142.3270 C   0  0  0  0  0  3  0  0  0  0  0  0
  187.7730  172.5690  141.7420 C   0  0  0  0  0  2  0  0  0  0  0  0
  189.0360  173.3870  138.1970 C   0  0  0  0  0  3  0  0  0  0  0  0
  188.9030  174.5600  137.4400 O   0  0  0  0  0  1  0  0  0  0  0  0
  190.3860  173.1780  138.5050 O   0  0  0  0  0  1  0  0  0  0  0  0
  193.1920  175.2540  143.5610 O   0  0  0  0  0  0  0  0  0  0  0  0
  194.6000  174.2190  145.1870 C   0  0  0  0  0  2  0  0  0  0  0  0
  194.4600  174.9670  144.0980 C   0  0  0  0  0  0  0  0  0  0  0  0
  195.5890  175.4920  143.4640 O   0  0  0  0  0  0  0  0  0  0  0  0
  195.5010  176.1210  142.2800 O   0  0  0  0  0  1  0  0  0  0  0  0
  1  3  1  0  0  0  0
  1  5  2  0  0  0  0
  2  8  1  0  0  0  0
  2  6  2  0  0  0  0
  4  3  1  0  0  0  0
  5 39  1  0  0  0  0
  6  9  1  0  0  0  0
  7 61  1  1  0  0  0
  7 10  1  0  0  0  0
  8 13  1  6  0  0  0
  8  7  1  0  0  0  0
  9  4  2  0  0  0  0
 10  9  1  0  0  0  0
 10 11  2  0  0  0  0
 11  1  1  0  0  0  0
 12 13  3  0  0  0  0
 15 12  1  0  0  0  0
 16 14  1  0  0  0  0
 16 15  2  0  0  0  0
 17 22  1  0  0  0  0
 17 14  1  1  0  0  0
 19 18  1  0  0  0  0
 19 20  1  0  0  0  0
 21 18  1  6  0  0  0
 21 24  1  0  0  0  0
 21 17  1  0  0  0  0
 22 23  1  0  0  0  0
 22 32  1  1  0  0  0
 24 20  1  6  0  0  0
 24 23  1  0  0  0  0
 25 28  2  0  0  0  0
 27 33  2  0  0  0  0
 27 31  1  0  0  0  0
 29 26  1  0  0  0  0
 30 28  1  0  0  0  0
 30 26  2  0  0  0  0
 31 30  1  0  0  0  0
 32 31  2  0  0  0  0
 32 29  1  0  0  0  0
 33 25  1  0  0  0  0
 34 16  1  0  0  0  0
 37 34  1  0  0  0  0
 37 35  1  0  0  0  0
 37 36  1  0  0  0  0
 38 37  2  0  0  0  0
 40 39  1  0  0  0  0
 41 40  1  0  0  0  0
 42 41  1  0  0  0  0
 43 48  2  0  0  0  0
 45 50  1  0  0  0  0
 46 47  2  0  0  0  0
 47 45  1  0  0  0  0
 48 50  1  0  0  0  0
 48 42  1  0  0  0  0
 49 47  1  0  0  0  0
 49 43  1  0  0  0  0
 50 44  1  1  0  0  0
 51 43  1  0  0  0  0
 52 51  1  0  0  0  0
 52 56  2  0  0  0  0
 53 58  1  6  0  0  0
 53 54  1  0  0  0  0
 53 55  1  0  0  0  0
 54 52  1  0  0  0  0
 55 57  1  0  0  0  0
 57 56  1  0  0  0  0
 58 60  1  0  0  0  0
 59 58  1  0  0  0  0
 61 63  1  0  0  0  0
 63 62  2  0  0  0  0
 64 63  1  0  0  0  0
 65 64  1  0  0  0  0
M  END
>  <MODEL>
8

>  <REMARK>
 VINA RESULT:      -5.4      3.144      6.360
  Name = 
  17 active torsions:
  status: ('A' for Active; 'I' for Inactive)
    1  A    between atoms: C_2  and  C_19
    2  A    between atoms: C_3  and  N_15
    3  A    between atoms: C_5  and  C_19
    4  A    between atoms: C_6  and  C_9
    5  A    between atoms: C_7  and  N_30
    6  A    between atoms: O_11  and  C_42
    7  A    between atoms: C_13  and  N_28
    8  A    between atoms: C_13  and  C_53
    9  A    between atoms: O_14  and  P_27
   10  A    between atoms: O_14  and  C_59
   11  A    between atoms: O_24  and  C_42
   12  A    between atoms: O_24  and  C_46
   13  A    between atoms: N_28  and  C_29
   14  A    between atoms: C_29  and  C_40
   15  A    between atoms: C_33  and  C_53
   16  A    between atoms: C_35  and  C_50
   17  A    between atoms: C_56  and  C_63
                            x       y       z     vdW  Elec       q    Type
                         _______ _______ _______ _____ _____    ______ ____

>  <TORSDO>
F 17

$$$$
=
 OpenBabel11042416393D

 65 72  0  0  1  0  0  0  0  0999 V2000
  189.6490  175.7950  146.7940 C   0  0  0  0  0  0  0  0  0  0  0  0
  194.1820  175.4930  144.5910 C   0  0  0  0  0  3  0  0  0  0  0  0
  190.6510  175.5100  147.7720 N   0  0  0  0  0  2  0  0  0  0  0  0
  191.9900  175.3390  147.3840 N   0  0  0  0  0  0  0  0  0  0  0  0
  188.3690  175.8590  147.1640 C   0  0  0  0  0  3  0  0  0  0  0  0
  193.7230  175.2380  145.7790 N   0  0  0  0  0  0  0  0  0  0  0  0
  191.8350  175.9090  143.6610 C   0  0  1  0  0  3  0  0  0  0  0  0
  193.3490  176.1560  143.5240 C   0  0  2  0  0  3  0  0  0  0  0  0
  192.3610  175.4840  146.1460 C   0  0  0  0  0  0  0  0  0  0  0  0
  191.3760  175.8370  145.0920 C   0  0  0  0  0  0  0  0  0  0  0  0
  190.0810  175.9510  145.3970 C   0  0  0  0  0  3  0  0  0  0  0  0
  194.1790  175.3070  141.1370 C   0  0  0  0  0  0  0  0  0  0  0  0
  193.7970  175.7070  142.2060 C   0  0  0  0  0  0  0  0  0  0  0  0
  193.5130  172.7320  140.2190 N   0  0  0  0  0  2  0  0  0  0  0  0
  194.6270  174.8100  139.9060 N   0  0  0  0  0  0  0  0  0  0  0  0
  194.3460  173.6240  139.4580 C   0  0  0  0  0  0  0  0  0  0  0  0
  193.2680  171.3100  139.9420 C   0  0  1  0  0  3  0  0  0  0  0  0
  192.0170  170.0340  138.2340 C   0  0  0  0  0  2  0  0  0  0  0  0
  192.5820  169.0260  137.2620 C   0  0  0  0  0  2  0  0  0  0  0  0
  194.0690  169.0090  137.5140 C   0  0  0  0  0  2  0  0  0  0  0  0
  193.1110  171.0510  138.4680 C   0  0  2  0  0  3  0  0  0  0  0  0
  194.4380  170.4100  140.3110 C   0  0  1  0  0  3  0  0  0  0  0  0
  195.2620  170.2510  139.1890 O   0  0  0  0  0  0  0  0  0  0  0  0
  194.4150  170.3770  138.0670 C   0  0  1  0  0  3  0  0  0  0  0  0
  194.5630  170.3450  145.4570 C   0  0  0  0  0  3  0  0  0  0  0  0
  196.8060  171.6290  143.0120 N   0  0  0  0  0  0  0  0  0  0  0  0
  193.7380  169.9800  143.2260 N   0  0  0  0  0  0  0  0  0  0  0  0
  195.6740  170.9640  144.9590 N   0  0  0  0  0  0  0  0  0  0  0  0
  196.5370  171.5240  141.5700 C   0  0  0  0  0  2  0  0  0  0  0  0
  195.8050  171.0840  143.6130 C   0  0  0  0  0  0  0  0  0  0  0  0
  194.8580  170.5960  142.7680 C   0  0  0  0  0  0  0  0  0  0  0  0
  195.2140  170.8150  141.5240 C   0  0  0  0  0  0  0  0  0  0  0  0
  193.5780  169.8440  144.5770 C   0  0  0  0  0  3  0  0  0  0  0  0
  194.8710  173.2020  138.2330 O   0  0  0  0  0  0  0  0  0  0  0  0
  195.1570  173.2810  135.4700 O   0  0  0  0  0  0  0  0  0  0  0  0
  193.6720  175.2370  136.7350 O   0  0  0  0  0  1  0  0  0  0  0  0
  195.0310  174.2310  136.8630 P   0  0  0  0  0  0  0  0  0  0  0  0
  196.2750  175.0790  137.0040 O   0  0  0  0  0  1  0  0  0  0  0  0
  187.2420  176.1290  146.2140 C   0  0  0  0  0  2  0  0  0  0  0  0
  186.9350  177.6180  146.1160 C   0  0  0  0  0  2  0  0  0  0  0  0
  186.6330  177.9940  144.7430 N   0  0  0  0  0  2  0  0  0  0  0  0
  185.9390  176.8750  144.1210 C   0  0  0  0  0  2  0  0  0  0  0  0
  187.0950  176.2510  142.0180 C   0  0  0  0  0  0  0  0  0  0  0  0
  183.9570  178.2600  142.4480 C   0  0  0  0  0  1  0  0  0  0  0  0
  185.1640  177.6120  140.3700 C   0  0  0  0  0  2  0  0  0  0  0  0
  186.7990  177.4190  138.6380 O   0  0  0  0  0  0  0  0  0  0  0  0
  186.4720  177.1580  139.8270 C   0  0  0  0  0  0  0  0  0  0  0  0
  186.1080  176.9400  142.6290 C   0  0  0  0  0  0  0  0  0  0  0  0
  187.3340  176.4280  140.6450 O   0  0  0  0  0  0  0  0  0  0  0  0
  185.3230  177.9750  141.8450 C   0  0  2  0  0  3  0  0  0  0  0  0
  188.0050  175.3440  142.8060 C   0  0  0  0  0  2  0  0  0  0  0  0
  188.3740  174.1070  142.0440 C   0  0  0  0  0  0  0  0  0  0  0  0
  188.7600  172.8440  139.8260 C   0  0  2  0  0  3  0  0  0  0  0  0
  188.1290  174.0650  140.5380 C   0  0  0  0  0  2  0  0  0  0  0  0
  189.8880  172.1930  140.6300 C   0  0  0  0  0  2  0  0  0  0  0  0
  188.9400  173.0840  142.7120 C   0  0  0  0  0  3  0  0  0  0  0  0
  189.3550  171.8290  142.0060 C   0  0  0  0  0  2  0  0  0  0  0  0
  189.2300  173.2380  138.4250 C   0  0  0  0  0  3  0  0  0  0  0  0
  188.3470  174.1620  137.8480 O   0  0  0  0  0  1  0  0  0  0  0  0
  190.5180  173.7850  138.4680 O   0  0  0  0  0  1  0  0  0  0  0  0
  191.0820  176.8620  142.8910 O   0  0  0  0  0  0  0  0  0  0  0  0
  191.5980  178.9250  143.9760 C   0  0  0  0  0  2  0  0  0  0  0  0
  190.7390  178.1590  143.3130 C   0  0  0  0  0  0  0  0  0  0  0  0
  189.4590  178.6390  143.0240 O   0  0  0  0  0  0  0  0  0  0  0  0
  188.9910  178.6820  141.7640 O   0  0  0  0  0  1  0  0  0  0  0  0
  1  5  2  0  0  0  0
  1  3  1  0  0  0  0
  2  6  2  0  0  0  0
  4  3  1  0  0  0  0
  6  9  1  0  0  0  0
  7 61  1  6  0  0  0
  7 10  1  0  0  0  0
  8 13  1  6  0  0  0
  8  7  1  0  0  0  0
  8  2  1  0  0  0  0
  9  4  2  0  0  0  0
 10 11  2  0  0  0  0
 10  9  1  0  0  0  0
 11  1  1  0  0  0  0
 12 13  3  0  0  0  0
 15 12  1  0  0  0  0
 16 15  2  0  0  0  0
 16 14  1  0  0  0  0
 17 14  1  6  0  0  0
 17 22  1  0  0  0  0
 19 20  1  0  0  0  0
 19 18  1  0  0  0  0
 21 18  1  1  0  0  0
 21 17  1  0  0  0  0
 22 32  1  1  0  0  0
 23 22  1  0  0  0  0
 24 20  1  1  0  0  0
 24 21  1  0  0  0  0
 24 23  1  0  0  0  0
 26 30  2  0  0  0  0
 27 33  2  0  0  0  0
 28 25  2  0  0  0  0
 29 26  1  0  0  0  0
 30 28  1  0  0  0  0
 31 27  1  0  0  0  0
 31 30  1  0  0  0  0
 32 29  1  0  0  0  0
 32 31  2  0  0  0  0
 33 25  1  0  0  0  0
 34 16  1  0  0  0  0
 35 37  2  0  0  0  0
 36 37  1  0  0  0  0
 37 38  1  0  0  0  0
 37 34  1  0  0  0  0
 39  5  1  0  0  0  0
 40 39  1  0  0  0  0
 41 40  1  0  0  0  0
 42 41  1  0  0  0  0
 43 48  2  0  0  0  0
 43 51  1  0  0  0  0
 45 50  1  0  0  0  0
 46 47  2  0  0  0  0
 47 45  1  0  0  0  0
 47 49  1  0  0  0  0
 48 42  1  0  0  0  0
 49 43  1  0  0  0  0
 50 44  1  1  0  0  0
 50 48  1  0  0  0  0
 52 56  2  0  0  0  0
 52 51  1  0  0  0  0
 53 58  1  6  0  0  0
 53 54  1  0  0  0  0
 53 55  1  0  0  0  0
 54 52  1  0  0  0  0
 55 57  1  0  0  0  0
 57 56  1  0  0  0  0
 58 60  1  0  0  0  0
 59 58  1  0  0  0  0
 61 63  1  0  0  0  0
 63 62  2  0  0  0  0
 64 63  1  0  0  0  0
 65 64  1  0  0  0  0
M  END
>  <MODEL>
9

>  <REMARK>
 VINA RESULT:      -5.3      2.795      6.259
  Name = 
  17 active torsions:
  status: ('A' for Active; 'I' for Inactive)
    1  A    between atoms: C_2  and  C_19
    2  A    between atoms: C_3  and  N_15
    3  A    between atoms: C_5  and  C_19
    4  A    between atoms: C_6  and  C_9
    5  A    between atoms: C_7  and  N_30
    6  A    between atoms: O_11  and  C_42
    7  A    between atoms: C_13  and  N_28
    8  A    between atoms: C_13  and  C_53
    9  A    between atoms: O_14  and  P_27
   10  A    between atoms: O_14  and  C_59
   11  A    between atoms: O_24  and  C_42
   12  A    between atoms: O_24  and  C_46
   13  A    between atoms: N_28  and  C_29
   14  A    between atoms: C_29  and  C_40
   15  A    between atoms: C_33  and  C_53
   16  A    between atoms: C_35  and  C_50
   17  A    between atoms: C_56  and  C_63
                            x       y       z     vdW  Elec       q    Type
                         _______ _______ _______ _____ _____    ______ ____

>  <TORSDO>
F 17

$$$$
