=
 OpenBabel11042414003D

 31 35  0  0  1  0  0  0  0  0999 V2000
  186.5410  176.7220  143.1330 C   0  0  0  0  0  0  0  0  0  0  0  0
  187.7310  176.0040  142.7650 N   0  0  0  0  0  0  0  0  0  0  0  0
  185.5880  176.7870  142.3110 O   0  0  0  0  0  0  0  0  0  0  0  0
  188.7220  174.1720  139.8920 C   0  0  0  0  0  0  0  0  0  0  0  0
  190.6420  173.1670  141.2730 C   0  0  0  0  0  3  0  0  0  0  0  0
  190.0610  173.3910  142.5220 N   0  0  0  0  0  0  0  0  0  0  0  0
  190.0130  173.5350  139.9880 C   0  0  0  0  0  3  0  0  0  0  0  0
  188.0600  174.5630  138.6210 C   0  0  0  0  0  1  0  0  0  0  0  0
  188.8780  173.9730  142.3530 C   0  0  0  0  0  0  0  0  0  0  0  0
  187.6160  174.5900  142.3940 C   0  0  2  0  0  3  0  0  0  0  0  0
  188.2010  174.3640  141.1310 C   0  0  0  0  0  0  0  0  0  0  0  0
  186.4240  177.3340  144.4790 C   0  0  0  0  0  0  0  0  0  0  0  0
  186.2440  178.3800  147.0870 C   0  0  0  0  0  3  0  0  0  0  0  0
  185.9100  178.6380  144.6960 C   0  0  0  0  0  0  0  0  0  0  0  0
  185.8270  179.1450  145.9970 C   0  0  0  0  0  3  0  0  0  0  0  0
  185.4710  179.5260  143.5810 C   0  0  0  0  0  1  0  0  0  0  0  0
  186.8350  176.5790  145.5890 C   0  0  0  0  0  3  0  0  0  0  0  0
  186.7480  177.0950  146.8830 C   0  0  0  0  0  3  0  0  0  0  0  0
  188.7060  178.2440  142.5750 C   0  0  0  0  0  2  0  0  0  0  0  0
  189.7100  177.3600  143.2780 C   0  0  1  0  0  3  0  0  0  0  0  0
  188.8270  176.7820  142.1850 C   0  0  1  0  0  3  0  0  0  0  0  0
  191.0890  177.6280  142.7090 C   0  0  0  0  0  2  0  0  0  0  0  0
  192.0860  176.5800  143.1910 C   0  0  0  0  0  2  0  0  0  0  0  0
  189.9610  175.1280  145.9470 C   0  0  0  0  0  2  0  0  0  0  0  0
  192.7100  176.4810  146.9120 C   0  0  0  0  0  2  0  0  0  0  0  0
  192.5050  176.8460  144.5490 N   0  0  0  0  0  0  0  0  0  0  0  0
  191.5790  176.6350  147.9230 C   0  0  0  0  0  2  0  0  0  0  0  0
  191.0360  175.2640  148.3020 C   0  0  0  0  0  2  0  0  0  0  0  0
  192.2010  176.0970  145.5550 C   0  0  0  0  0  0  0  0  0  0  0  0
  191.3550  174.8610  145.3980 C   0  0  0  0  0  2  0  0  0  0  0  0
  189.8380  174.8360  147.4460 C   0  0  0  0  0  2  0  0  0  0  0  0
  1 12  1  0  0  0  0
  2  1  1  0  0  0  0
  3  1  2  0  0  0  0
  4  7  2  0  0  0  0
  4 11  1  0  0  0  0
  5  6  2  0  0  0  0
  7  5  1  0  0  0  0
  8  4  1  0  0  0  0
  9 10  1  0  0  0  0
  9  6  1  0  0  0  0
 10  2  1  1  0  0  0
 11  9  2  0  0  0  0
 11 10  1  0  0  0  0
 12 14  2  0  0  0  0
 12 17  1  0  0  0  0
 14 15  1  0  0  0  0
 15 13  2  0  0  0  0
 16 14  1  0  0  0  0
 17 18  2  0  0  0  0
 18 13  1  0  0  0  0
 19 20  1  0  0  0  0
 20 22  1  6  0  0  0
 21 19  1  0  0  0  0
 21  2  1  1  0  0  0
 21 20  1  0  0  0  0
 22 23  1  0  0  0  0
 23 26  1  0  0  0  0
 24 31  1  0  0  0  0
 25 27  1  0  0  0  0
 26 29  2  0  0  0  0
 27 28  1  0  0  0  0
 29 25  1  0  0  0  0
 30 29  1  0  0  0  0
 30 24  1  0  0  0  0
 31 28  1  0  0  0  0
M  END
>  <MODEL>
1

>  <REMARK>
 VINA RESULT:      -7.8      0.000      0.000
  Name = 
  6 active torsions:
  status: ('A' for Active; 'I' for Inactive)
    1  A    between atoms: C_3  and  C_13
    2  A    between atoms: C_10  and  N_15
    3  A    between atoms: C_10  and  C_28
    4  A    between atoms: C_14  and  C_28
    5  A    between atoms: N_16  and  C_18
    6  A    between atoms: N_16  and  C_21
                            x       y       z     vdW  Elec       q    Type
                         _______ _______ _______ _____ _____    ______ ____

>  <TORSDO>
F 6

$$$$
=
 OpenBabel11042414003D

 31 35  0  0  1  0  0  0  0  0999 V2000
  191.8770  175.6990  145.4460 C   0  0  0  0  0  0  0  0  0  0  0  0
  190.6510  175.7930  144.7020 N   0  0  0  0  0  0  0  0  0  0  0  0
  191.8290  175.7010  146.7050 O   0  0  0  0  0  0  0  0  0  0  0  0
  188.9520  173.5650  142.5230 C   0  0  0  0  0  0  0  0  0  0  0  0
  190.3650  171.6470  143.4880 C   0  0  0  0  0  3  0  0  0  0  0  0
  190.6830  172.2830  144.6870 N   0  0  0  0  0  0  0  0  0  0  0  0
  189.5290  172.2450  142.4270 C   0  0  0  0  0  3  0  0  0  0  0  0
  188.1130  174.2040  141.4770 C   0  0  0  0  0  1  0  0  0  0  0  0
  190.1160  173.4850  144.7050 C   0  0  0  0  0  0  0  0  0  0  0  0
  189.6120  174.7800  144.9200 C   0  0  2  0  0  3  0  0  0  0  0  0
  189.2900  174.1380  143.7070 C   0  0  0  0  0  0  0  0  0  0  0  0
  193.1710  175.5540  144.7370 C   0  0  0  0  0  0  0  0  0  0  0  0
  195.5720  175.1840  143.3140 C   0  0  0  0  0  3  0  0  0  0  0  0
  194.3470  176.2480  145.1200 C   0  0  0  0  0  0  0  0  0  0  0  0
  195.5330  176.0550  144.4030 C   0  0  0  0  0  3  0  0  0  0  0  0
  194.3770  177.2170  146.2540 C   0  0  0  0  0  1  0  0  0  0  0  0
  193.2320  174.6790  143.6400 C   0  0  0  0  0  3  0  0  0  0  0  0
  194.4210  174.4940  142.9320 C   0  0  0  0  0  3  0  0  0  0  0  0
  191.3010  177.7710  143.4090 C   0  0  0  0  0  2  0  0  0  0  0  0
  190.0700  177.1800  142.7630 C   0  0  1  0  0  3  0  0  0  0  0  0
  190.2310  177.1290  144.2730 C   0  0  1  0  0  3  0  0  0  0  0  0
  189.1120  178.3000  142.4060 C   0  0  0  0  0  2  0  0  0  0  0  0
  187.7110  177.7540  142.1550 C   0  0  0  0  0  2  0  0  0  0  0  0
  185.8910  176.6800  145.2790 C   0  0  0  0  0  2  0  0  0  0  0  0
  185.2750  179.6780  144.3030 C   0  0  0  0  0  2  0  0  0  0  0  0
  186.7020  178.6550  142.6680 N   0  0  0  0  0  0  0  0  0  0  0  0
  184.0770  179.0040  144.9640 C   0  0  0  0  0  2  0  0  0  0  0  0
  184.4520  178.5440  146.3660 C   0  0  0  0  0  2  0  0  0  0  0  0
  186.3250  178.6860  143.9020 C   0  0  0  0  0  0  0  0  0  0  0  0
  186.9080  177.7580  144.9340 C   0  0  0  0  0  2  0  0  0  0  0  0
  184.9390  177.0900  146.4080 C   0  0  0  0  0  2  0  0  0  0  0  0
  1  3  2  0  0  0  0
  2  1  1  0  0  0  0
  4 11  1  0  0  0  0
  5  6  2  0  0  0  0
  6  9  1  0  0  0  0
  7  4  2  0  0  0  0
  7  5  1  0  0  0  0
  8  4  1  0  0  0  0
  9 10  1  0  0  0  0
 10  2  1  6  0  0  0
 11  9  2  0  0  0  0
 11 10  1  0  0  0  0
 12 14  1  0  0  0  0
 12  1  1  0  0  0  0
 13 15  1  0  0  0  0
 14 16  1  0  0  0  0
 15 14  2  0  0  0  0
 17 12  2  0  0  0  0
 18 13  2  0  0  0  0
 18 17  1  0  0  0  0
 19 21  1  0  0  0  0
 20 22  1  1  0  0  0
 20 19  1  0  0  0  0
 20 21  1  0  0  0  0
 21  2  1  6  0  0  0
 23 22  1  0  0  0  0
 23 26  1  0  0  0  0
 24 31  1  0  0  0  0
 25 27  1  0  0  0  0
 26 29  2  0  0  0  0
 27 28  1  0  0  0  0
 28 31  1  0  0  0  0
 29 25  1  0  0  0  0
 29 30  1  0  0  0  0
 30 24  1  0  0  0  0
M  END
>  <MODEL>
2

>  <REMARK>
 VINA RESULT:      -7.6      2.310      6.059
  Name = 
  6 active torsions:
  status: ('A' for Active; 'I' for Inactive)
    1  A    between atoms: C_3  and  C_13
    2  A    between atoms: C_10  and  N_15
    3  A    between atoms: C_10  and  C_28
    4  A    between atoms: C_14  and  C_28
    5  A    between atoms: N_16  and  C_18
    6  A    between atoms: N_16  and  C_21
                            x       y       z     vdW  Elec       q    Type
                         _______ _______ _______ _____ _____    ______ ____

>  <TORSDO>
F 6

$$$$
=
 OpenBabel11042414003D

 31 35  0  0  1  0  0  0  0  0999 V2000
  191.3410  175.0510  142.6450 C   0  0  0  0  0  0  0  0  0  0  0  0
  190.1480  175.6740  143.1500 N   0  0  0  0  0  0  0  0  0  0  0  0
  192.2730  175.7780  142.2100 O   0  0  0  0  0  0  0  0  0  0  0  0
  190.3180  175.2840  146.6730 C   0  0  0  0  0  0  0  0  0  0  0  0
  192.8230  175.8400  146.5500 C   0  0  0  0  0  3  0  0  0  0  0  0
  192.7680  176.5130  145.3290 N   0  0  0  0  0  0  0  0  0  0  0  0
  191.6530  175.2380  147.2200 C   0  0  0  0  0  3  0  0  0  0  0  0
  189.1170  174.6860  147.3120 C   0  0  0  0  0  1  0  0  0  0  0  0
  191.5120  176.5180  144.8920 C   0  0  0  0  0  0  0  0  0  0  0  0
  190.2640  176.6300  144.2560 C   0  0  2  0  0  3  0  0  0  0  0  0
  190.3190  175.9500  145.4900 C   0  0  0  0  0  0  0  0  0  0  0  0
  191.4860  173.5750  142.6830 C   0  0  0  0  0  0  0  0  0  0  0  0
  191.7880  170.7830  142.8870 C   0  0  0  0  0  3  0  0  0  0  0  0
  191.4160  172.7590  141.5260 C   0  0  0  0  0  0  0  0  0  0  0  0
  191.5660  171.3720  141.6420 C   0  0  0  0  0  3  0  0  0  0  0  0
  191.1540  173.3120  140.1660 C   0  0  0  0  0  1  0  0  0  0  0  0
  191.7120  172.9630  143.9270 C   0  0  0  0  0  3  0  0  0  0  0  0
  191.8620  171.5790  144.0310 C   0  0  0  0  0  3  0  0  0  0  0  0
  188.2110  174.5600  142.1430 C   0  0  0  0  0  2  0  0  0  0  0  0
  187.7040  175.7350  142.9450 C   0  0  1  0  0  3  0  0  0  0  0  0
  189.0320  175.8330  142.2150 C   0  0  1  0  0  3  0  0  0  0  0  0
  186.6430  176.4620  142.1420 C   0  0  0  0  0  2  0  0  0  0  0  0
  186.7500  177.9690  142.3420 C   0  0  0  0  0  2  0  0  0  0  0  0
  186.7730  177.1440  146.0220 C   0  0  0  0  0  2  0  0  0  0  0  0
  184.4930  179.2120  145.1010 C   0  0  0  0  0  2  0  0  0  0  0  0
  185.6460  178.4690  143.1320 N   0  0  0  0  0  0  0  0  0  0  0  0
  184.0560  178.3120  146.2520 C   0  0  0  0  0  2  0  0  0  0  0  0
  185.0250  178.4580  147.4170 C   0  0  0  0  0  2  0  0  0  0  0  0
  185.7090  178.6810  144.4040 C   0  0  0  0  0  0  0  0  0  0  0  0
  186.9620  178.4060  145.1930 C   0  0  0  0  0  2  0  0  0  0  0  0
  186.1490  177.4150  147.3960 C   0  0  0  0  0  2  0  0  0  0  0  0
  1 12  1  0  0  0  0
  1  2  1  0  0  0  0
  3  1  2  0  0  0  0
  4  7  1  0  0  0  0
  4  8  1  0  0  0  0
  5  7  2  0  0  0  0
  6  5  1  0  0  0  0
  9  6  2  0  0  0  0
  9 11  1  0  0  0  0
 10  2  1  6  0  0  0
 10  9  1  0  0  0  0
 10 11  1  0  0  0  0
 11  4  2  0  0  0  0
 12 17  1  0  0  0  0
 13 18  1  0  0  0  0
 14 15  1  0  0  0  0
 14 12  2  0  0  0  0
 15 13  2  0  0  0  0
 16 14  1  0  0  0  0
 17 18  2  0  0  0  0
 19 21  1  0  0  0  0
 19 20  1  0  0  0  0
 20 22  1  6  0  0  0
 21 20  1  0  0  0  0
 21  2  1  1  0  0  0
 22 23  1  0  0  0  0
 23 26  1  0  0  0  0
 24 31  1  0  0  0  0
 25 27  1  0  0  0  0
 26 29  2  0  0  0  0
 27 28  1  0  0  0  0
 29 25  1  0  0  0  0
 29 30  1  0  0  0  0
 30 24  1  0  0  0  0
 31 28  1  0  0  0  0
M  END
>  <MODEL>
3

>  <REMARK>
 VINA RESULT:      -7.5      2.021      6.576
  Name = 
  6 active torsions:
  status: ('A' for Active; 'I' for Inactive)
    1  A    between atoms: C_3  and  C_13
    2  A    between atoms: C_10  and  N_15
    3  A    between atoms: C_10  and  C_28
    4  A    between atoms: C_14  and  C_28
    5  A    between atoms: N_16  and  C_18
    6  A    between atoms: N_16  and  C_21
                            x       y       z     vdW  Elec       q    Type
                         _______ _______ _______ _____ _____    ______ ____

>  <TORSDO>
F 6

$$$$
=
 OpenBabel11042414003D

 31 35  0  0  1  0  0  0  0  0999 V2000
  190.2310  176.7860  146.7670 C   0  0  0  0  0  0  0  0  0  0  0  0
  188.9810  176.7210  146.0610 N   0  0  0  0  0  0  0  0  0  0  0  0
  190.3360  177.5590  147.7550 O   0  0  0  0  0  0  0  0  0  0  0  0
  186.3360  178.6300  147.4610 C   0  0  0  0  0  0  0  0  0  0  0  0
  184.8300  177.8370  145.5360 C   0  0  0  0  0  3  0  0  0  0  0  0
  185.5720  176.6970  145.2240 N   0  0  0  0  0  0  0  0  0  0  0  0
  185.1790  178.7860  146.6130 C   0  0  0  0  0  3  0  0  0  0  0  0
  186.7250  179.5640  148.5490 C   0  0  0  0  0  1  0  0  0  0  0  0
  186.6140  176.6190  146.0460 C   0  0  0  0  0  0  0  0  0  0  0  0
  187.7690  176.3560  146.8020 C   0  0  2  0  0  3  0  0  0  0  0  0
  187.0200  177.5080  147.1180 C   0  0  0  0  0  0  0  0  0  0  0  0
  191.3620  175.9150  146.3620 C   0  0  0  0  0  0  0  0  0  0  0  0
  193.5920  174.3680  145.6130 C   0  0  0  0  0  3  0  0  0  0  0  0
  191.1910  174.5850  145.9030 C   0  0  0  0  0  0  0  0  0  0  0  0
  192.3090  173.8270  145.5350 C   0  0  0  0  0  3  0  0  0  0  0  0
  189.8550  173.9280  145.8190 C   0  0  0  0  0  1  0  0  0  0  0  0
  192.6620  176.4430  146.4310 C   0  0  0  0  0  3  0  0  0  0  0  0
  193.7700  175.6780  146.0610 C   0  0  0  0  0  3  0  0  0  0  0  0
  190.1590  177.7050  144.1510 C   0  0  0  0  0  2  0  0  0  0  0  0
  189.0890  176.7850  143.6110 C   0  0  1  0  0  3  0  0  0  0  0  0
  188.8360  177.5780  144.8820 C   0  0  1  0  0  3  0  0  0  0  0  0
  188.3860  177.4690  142.4540 C   0  0  0  0  0  2  0  0  0  0  0  0
  187.3680  176.5350  141.8110 C   0  0  0  0  0  2  0  0  0  0  0  0
  189.3460  173.3870  142.4420 C   0  0  0  0  0  2  0  0  0  0  0  0
  188.7850  174.0490  139.3490 C   0  0  0  0  0  2  0  0  0  0  0  0
  187.9280  175.8710  140.6550 N   0  0  0  0  0  0  0  0  0  0  0  0
  190.1250  173.3600  139.5800 C   0  0  0  0  0  2  0  0  0  0  0  0
  189.9070  172.0360  140.3000 C   0  0  0  0  0  2  0  0  0  0  0  0
  188.2180  174.6140  140.6170 C   0  0  0  0  0  0  0  0  0  0  0  0
  188.0040  173.7140  141.8050 C   0  0  0  0  0  2  0  0  0  0  0  0
  190.0220  172.1570  141.8250 C   0  0  0  0  0  2  0  0  0  0  0  0
  1  3  2  0  0  0  0
  2  1  1  0  0  0  0
  4  8  1  0  0  0  0
  5  7  1  0  0  0  0
  6  5  2  0  0  0  0
  6  9  1  0  0  0  0
  7  4  2  0  0  0  0
  9 10  1  0  0  0  0
  9 11  2  0  0  0  0
 10  2  1  6  0  0  0
 10 11  1  0  0  0  0
 11  4  1  0  0  0  0
 12 17  1  0  0  0  0
 12  1  1  0  0  0  0
 13 18  1  0  0  0  0
 14 12  2  0  0  0  0
 15 13  2  0  0  0  0
 15 14  1  0  0  0  0
 16 14  1  0  0  0  0
 18 17  2  0  0  0  0
 19 21  1  0  0  0  0
 20 22  1  6  0  0  0
 20 19  1  0  0  0  0
 20 21  1  0  0  0  0
 21  2  1  1  0  0  0
 23 22  1  0  0  0  0
 25 27  1  0  0  0  0
 25 29  1  0  0  0  0
 26 23  1  0  0  0  0
 27 28  1  0  0  0  0
 28 31  1  0  0  0  0
 29 26  2  0  0  0  0
 29 30  1  0  0  0  0
 30 24  1  0  0  0  0
 31 24  1  0  0  0  0
M  END
>  <MODEL>
4

>  <REMARK>
 VINA RESULT:      -7.4      2.077      6.733
  Name = 
  6 active torsions:
  status: ('A' for Active; 'I' for Inactive)
    1  A    between atoms: C_3  and  C_13
    2  A    between atoms: C_10  and  N_15
    3  A    between atoms: C_10  and  C_28
    4  A    between atoms: C_14  and  C_28
    5  A    between atoms: N_16  and  C_18
    6  A    between atoms: N_16  and  C_21
                            x       y       z     vdW  Elec       q    Type
                         _______ _______ _______ _____ _____    ______ ____

>  <TORSDO>
F 6

$$$$
=
 OpenBabel11042414003D

 31 35  0  0  1  0  0  0  0  0999 V2000
  192.3640  175.9930  143.6750 C   0  0  0  0  0  0  0  0  0  0  0  0
  193.0050  175.4460  144.8390 N   0  0  0  0  0  0  0  0  0  0  0  0
  191.9470  177.1820  143.7080 O   0  0  0  0  0  0  0  0  0  0  0  0
  196.3880  174.4390  145.2180 C   0  0  0  0  0  0  0  0  0  0  0  0
  196.9950  175.9590  143.2360 C   0  0  0  0  0  3  0  0  0  0  0  0
  195.8790  176.7900  143.3370 N   0  0  0  0  0  0  0  0  0  0  0  0
  197.2630  174.8170  144.1340 C   0  0  0  0  0  3  0  0  0  0  0  0
  196.6180  173.2960  146.1380 C   0  0  0  0  0  1  0  0  0  0  0  0
  195.1260  176.3840  144.3540 C   0  0  0  0  0  0  0  0  0  0  0  0
  194.1940  176.1200  145.3730 C   0  0  2  0  0  3  0  0  0  0  0  0
  195.3220  175.2790  145.2730 C   0  0  0  0  0  0  0  0  0  0  0  0
  192.2410  175.1810  142.4400 C   0  0  0  0  0  0  0  0  0  0  0  0
  192.1340  173.6770  140.0620 C   0  0  0  0  0  3  0  0  0  0  0  0
  191.0430  174.5260  142.0580 C   0  0  0  0  0  0  0  0  0  0  0  0
  191.0040  173.7810  140.8740 C   0  0  0  0  0  3  0  0  0  0  0  0
  189.8040  174.5680  142.8880 C   0  0  0  0  0  1  0  0  0  0  0  0
  193.3660  175.0670  141.6070 C   0  0  0  0  0  3  0  0  0  0  0  0
  193.3160  174.3210  140.4280 C   0  0  0  0  0  3  0  0  0  0  0  0
  192.2170  175.3080  147.1550 C   0  0  0  0  0  2  0  0  0  0  0  0
  191.0160  175.5490  146.2710 C   0  0  1  0  0  3  0  0  0  0  0  0
  192.1650  174.6900  145.7700 C   0  0  1  0  0  3  0  0  0  0  0  0
  189.8830  174.6460  146.7180 C   0  0  0  0  0  2  0  0  0  0  0  0
  188.5930  175.4410  146.8890 C   0  0  0  0  0  2  0  0  0  0  0  0
  185.3020  177.2800  146.8210 C   0  0  0  0  0  2  0  0  0  0  0  0
  187.3220  178.0060  144.4300 C   0  0  0  0  0  2  0  0  0  0  0  0
  188.3160  176.2430  145.7180 N   0  0  0  0  0  0  0  0  0  0  0  0
  185.8550  178.0680  144.0150 C   0  0  0  0  0  2  0  0  0  0  0  0
  185.1040  179.0340  144.9200 C   0  0  0  0  0  2  0  0  0  0  0  0
  187.5110  177.2520  145.7110 C   0  0  0  0  0  0  0  0  0  0  0  0
  186.7650  177.6800  146.9470 C   0  0  0  0  0  2  0  0  0  0  0  0
  184.4460  178.3420  146.1210 C   0  0  0  0  0  2  0  0  0  0  0  0
  1  3  2  0  0  0  0
  1  2  1  0  0  0  0
  4 11  1  0  0  0  0
  4  8  1  0  0  0  0
  5  6  2  0  0  0  0
  5  7  1  0  0  0  0
  6  9  1  0  0  0  0
  7  4  2  0  0  0  0
  9 11  2  0  0  0  0
  9 10  1  0  0  0  0
 10  2  1  6  0  0  0
 11 10  1  0  0  0  0
 12  1  1  0  0  0  0
 13 18  2  0  0  0  0
 13 15  1  0  0  0  0
 14 12  1  0  0  0  0
 14 16  1  0  0  0  0
 15 14  2  0  0  0  0
 17 12  2  0  0  0  0
 18 17  1  0  0  0  0
 20 22  1  1  0  0  0
 20 19  1  0  0  0  0
 21  2  1  6  0  0  0
 21 20  1  0  0  0  0
 21 19  1  0  0  0  0
 22 23  1  0  0  0  0
 24 30  1  0  0  0  0
 25 29  1  0  0  0  0
 26 23  1  0  0  0  0
 27 25  1  0  0  0  0
 27 28  1  0  0  0  0
 28 31  1  0  0  0  0
 29 26  2  0  0  0  0
 29 30  1  0  0  0  0
 31 24  1  0  0  0  0
M  END
>  <MODEL>
5

>  <REMARK>
 VINA RESULT:      -7.4      2.751      7.135
  Name = 
  6 active torsions:
  status: ('A' for Active; 'I' for Inactive)
    1  A    between atoms: C_3  and  C_13
    2  A    between atoms: C_10  and  N_15
    3  A    between atoms: C_10  and  C_28
    4  A    between atoms: C_14  and  C_28
    5  A    between atoms: N_16  and  C_18
    6  A    between atoms: N_16  and  C_21
                            x       y       z     vdW  Elec       q    Type
                         _______ _______ _______ _____ _____    ______ ____

>  <TORSDO>
F 6

$$$$
=
 OpenBabel11042414003D

 31 35  0  0  1  0  0  0  0  0999 V2000
  190.1600  173.8900  143.7210 C   0  0  0  0  0  0  0  0  0  0  0  0
  189.0790  174.1000  142.7970 N   0  0  0  0  0  0  0  0  0  0  0  0
  189.9620  173.1810  144.7430 O   0  0  0  0  0  0  0  0  0  0  0  0
  188.9790  172.8840  139.4640 C   0  0  0  0  0  0  0  0  0  0  0  0
  190.6210  171.0330  140.1580 C   0  0  0  0  0  3  0  0  0  0  0  0
  190.3320  171.0790  141.5220 N   0  0  0  0  0  0  0  0  0  0  0  0
  189.9800  171.8940  139.1440 C   0  0  0  0  0  3  0  0  0  0  0  0
  188.3160  173.7730  138.4760 C   0  0  0  0  0  1  0  0  0  0  0  0
  189.4030  172.0050  141.7380 C   0  0  0  0  0  0  0  0  0  0  0  0
  188.4420  172.9310  142.1790 C   0  0  2  0  0  3  0  0  0  0  0  0
  188.7340  172.8860  140.8000 C   0  0  0  0  0  0  0  0  0  0  0  0
  191.5000  174.4640  143.4450 C   0  0  0  0  0  0  0  0  0  0  0  0
  194.0590  175.4600  142.8240 C   0  0  0  0  0  3  0  0  0  0  0  0
  192.0750  175.4990  144.2230 C   0  0  0  0  0  0  0  0  0  0  0  0
  193.3470  175.9860  143.9030 C   0  0  0  0  0  3  0  0  0  0  0  0
  191.3660  176.1310  145.3740 C   0  0  0  0  0  1  0  0  0  0  0  0
  192.2330  173.9460  142.3650 C   0  0  0  0  0  3  0  0  0  0  0  0
  193.5020  174.4390  142.0540 C   0  0  0  0  0  3  0  0  0  0  0  0
  189.0460  176.5340  142.5190 C   0  0  0  0  0  2  0  0  0  0  0  0
  187.9710  175.9520  141.6320 C   0  0  1  0  0  3  0  0  0  0  0  0
  188.2740  175.3100  142.9750 C   0  0  1  0  0  3  0  0  0  0  0  0
  186.7150  176.7930  141.7600 C   0  0  0  0  0  2  0  0  0  0  0  0
  187.0660  178.2460  142.0580 C   0  0  0  0  0  2  0  0  0  0  0  0
  186.3060  176.9110  145.5020 C   0  0  0  0  0  2  0  0  0  0  0  0
  184.7660  179.6190  144.7180 C   0  0  0  0  0  2  0  0  0  0  0  0
  186.0040  178.8980  142.7930 N   0  0  0  0  0  0  0  0  0  0  0  0
  183.9490  178.7070  145.6260 C   0  0  0  0  0  2  0  0  0  0  0  0
  184.7270  178.4190  146.9020 C   0  0  0  0  0  2  0  0  0  0  0  0
  185.9130  178.8950  144.0810 C   0  0  0  0  0  0  0  0  0  0  0  0
  186.9220  178.1870  144.9460 C   0  0  0  0  0  2  0  0  0  0  0  0
  185.5560  177.1310  146.8210 C   0  0  0  0  0  2  0  0  0  0  0  0
  1  3  2  0  0  0  0
  2  1  1  0  0  0  0
  4 11  1  0  0  0  0
  5  6  2  0  0  0  0
  6  9  1  0  0  0  0
  7  4  2  0  0  0  0
  7  5  1  0  0  0  0
  8  4  1  0  0  0  0
  9 10  1  0  0  0  0
 10  2  1  1  0  0  0
 11  9  2  0  0  0  0
 11 10  1  0  0  0  0
 12  1  1  0  0  0  0
 12 14  1  0  0  0  0
 13 15  1  0  0  0  0
 14 16  1  0  0  0  0
 15 14  2  0  0  0  0
 17 12  2  0  0  0  0
 18 17  1  0  0  0  0
 18 13  2  0  0  0  0
 19 21  1  0  0  0  0
 20 22  1  1  0  0  0
 20 19  1  0  0  0  0
 20 21  1  0  0  0  0
 21  2  1  6  0  0  0
 22 23  1  0  0  0  0
 23 26  1  0  0  0  0
 24 31  1  0  0  0  0
 25 27  1  0  0  0  0
 26 29  2  0  0  0  0
 27 28  1  0  0  0  0
 29 25  1  0  0  0  0
 29 30  1  0  0  0  0
 30 24  1  0  0  0  0
 31 28  1  0  0  0  0
M  END
>  <MODEL>
6

>  <REMARK>
 VINA RESULT:      -7.3      2.110      5.505
  Name = 
  6 active torsions:
  status: ('A' for Active; 'I' for Inactive)
    1  A    between atoms: C_3  and  C_13
    2  A    between atoms: C_10  and  N_15
    3  A    between atoms: C_10  and  C_28
    4  A    between atoms: C_14  and  C_28
    5  A    between atoms: N_16  and  C_18
    6  A    between atoms: N_16  and  C_21
                            x       y       z     vdW  Elec       q    Type
                         _______ _______ _______ _____ _____    ______ ____

>  <TORSDO>
F 6

$$$$
=
 OpenBabel11042414003D

 31 35  0  0  1  0  0  0  0  0999 V2000
  191.8230  175.5520  146.8390 C   0  0  0  0  0  0  0  0  0  0  0  0
  193.0000  175.1270  146.1320 N   0  0  0  0  0  0  0  0  0  0  0  0
  191.7890  175.4390  148.0930 O   0  0  0  0  0  0  0  0  0  0  0  0
  196.3630  174.1750  145.5150 C   0  0  0  0  0  0  0  0  0  0  0  0
  196.4970  176.0330  143.7440 C   0  0  0  0  0  3  0  0  0  0  0  0
  195.4470  176.7990  144.2510 N   0  0  0  0  0  0  0  0  0  0  0  0
  196.9580  174.7620  144.3380 C   0  0  0  0  0  3  0  0  0  0  0  0
  196.7930  172.8970  146.1380 C   0  0  0  0  0  1  0  0  0  0  0  0
  194.9540  176.2010  145.3310 C   0  0  0  0  0  0  0  0  0  0  0  0
  194.2900  175.7340  146.4780 C   0  0  2  0  0  3  0  0  0  0  0  0
  195.3500  174.9590  145.9670 C   0  0  0  0  0  0  0  0  0  0  0  0
  190.6870  176.1580  146.1020 C   0  0  0  0  0  0  0  0  0  0  0  0
  188.6180  177.3930  144.6460 C   0  0  0  0  0  3  0  0  0  0  0  0
  189.3370  175.7760  146.3070 C   0  0  0  0  0  0  0  0  0  0  0  0
  188.3190  176.3970  145.5760 C   0  0  0  0  0  3  0  0  0  0  0  0
  188.9410  174.7000  147.2620 C   0  0  0  0  0  1  0  0  0  0  0  0
  190.9670  177.1650  145.1640 C   0  0  0  0  0  3  0  0  0  0  0  0
  189.9430  177.7790  144.4400 C   0  0  0  0  0  3  0  0  0  0  0  0
  191.6470  173.4250  145.0020 C   0  0  0  0  0  2  0  0  0  0  0  0
  192.7980  173.7810  144.0900 C   0  0  1  0  0  3  0  0  0  0  0  0
  193.0010  173.7640  145.5960 C   0  0  1  0  0  3  0  0  0  0  0  0
  193.3740  172.5090  143.5000 C   0  0  0  0  0  2  0  0  0  0  0  0
  192.9920  172.3720  142.0310 C   0  0  0  0  0  2  0  0  0  0  0  0
  190.2090  174.9170  142.0330 C   0  0  0  0  0  2  0  0  0  0  0  0
  189.3130  171.9150  141.3190 C   0  0  0  0  0  2  0  0  0  0  0  0
  191.6440  171.8680  141.8890 N   0  0  0  0  0  0  0  0  0  0  0  0
  188.2430  172.6960  142.0740 C   0  0  0  0  0  2  0  0  0  0  0  0
  187.9030  173.9710  141.3150 C   0  0  0  0  0  2  0  0  0  0  0  0
  190.6610  172.5640  141.4250 C   0  0  0  0  0  0  0  0  0  0  0  0
  190.8350  173.9960  140.9950 C   0  0  0  0  0  2  0  0  0  0  0  0
  188.7200  175.1820  141.7810 C   0  0  0  0  0  2  0  0  0  0  0  0
  1  3  2  0  0  0  0
  2  1  1  0  0  0  0
  4 11  1  0  0  0  0
  4  8  1  0  0  0  0
  5  6  2  0  0  0  0
  5  7  1  0  0  0  0
  6  9  1  0  0  0  0
  7  4  2  0  0  0  0
  9 11  2  0  0  0  0
  9 10  1  0  0  0  0
 10  2  1  6  0  0  0
 11 10  1  0  0  0  0
 12 14  1  0  0  0  0
 12  1  1  0  0  0  0
 13 15  1  0  0  0  0
 14 16  1  0  0  0  0
 15 14  2  0  0  0  0
 17 12  2  0  0  0  0
 18 13  2  0  0  0  0
 18 17  1  0  0  0  0
 19 21  1  0  0  0  0
 20 22  1  6  0  0  0
 20 19  1  0  0  0  0
 20 21  1  0  0  0  0
 21  2  1  1  0  0  0
 23 22  1  0  0  0  0
 25 29  1  0  0  0  0
 25 27  1  0  0  0  0
 26 23  1  0  0  0  0
 28 31  1  0  0  0  0
 28 27  1  0  0  0  0
 29 26  2  0  0  0  0
 30 29  1  0  0  0  0
 30 24  1  0  0  0  0
 31 24  1  0  0  0  0
M  END
>  <MODEL>
7

>  <REMARK>
 VINA RESULT:      -7.3      2.939      6.611
  Name = 
  6 active torsions:
  status: ('A' for Active; 'I' for Inactive)
    1  A    between atoms: C_3  and  C_13
    2  A    between atoms: C_10  and  N_15
    3  A    between atoms: C_10  and  C_28
    4  A    between atoms: C_14  and  C_28
    5  A    between atoms: N_16  and  C_18
    6  A    between atoms: N_16  and  C_21
                            x       y       z     vdW  Elec       q    Type
                         _______ _______ _______ _____ _____    ______ ____

>  <TORSDO>
F 6

$$$$
=
 OpenBabel11042414003D

 31 35  0  0  1  0  0  0  0  0999 V2000
  188.6090  176.8200  144.0710 C   0  0  0  0  0  0  0  0  0  0  0  0
  187.7760  175.9200  143.3210 N   0  0  0  0  0  0  0  0  0  0  0  0
  188.6380  178.0380  143.7500 O   0  0  0  0  0  0  0  0  0  0  0  0
  185.5100  177.6220  145.4570 C   0  0  0  0  0  0  0  0  0  0  0  0
  185.5060  179.5780  143.7890 C   0  0  0  0  0  3  0  0  0  0  0  0
  185.9260  178.8340  142.6860 N   0  0  0  0  0  0  0  0  0  0  0  0
  185.2970  179.0140  145.1390 C   0  0  0  0  0  3  0  0  0  0  0  0
  185.3170  177.0180  146.8000 C   0  0  0  0  0  1  0  0  0  0  0  0
  186.0960  177.5680  143.0540 C   0  0  0  0  0  0  0  0  0  0  0  0
  186.3380  176.1960  143.2350 C   0  0  2  0  0  3  0  0  0  0  0  0
  185.9140  176.9460  144.3510 C   0  0  0  0  0  0  0  0  0  0  0  0
  189.3850  176.3250  145.2340 C   0  0  0  0  0  0  0  0  0  0  0  0
  190.7430  175.3310  147.4910 C   0  0  0  0  0  3  0  0  0  0  0  0
  190.7500  176.6410  145.4470 C   0  0  0  0  0  0  0  0  0  0  0  0
  191.4140  176.1390  146.5720 C   0  0  0  0  0  3  0  0  0  0  0  0
  191.5410  177.4740  144.4960 C   0  0  0  0  0  1  0  0  0  0  0  0
  188.7270  175.5130  146.1730 C   0  0  0  0  0  3  0  0  0  0  0  0
  189.3990  175.0180  147.2920 C   0  0  0  0  0  3  0  0  0  0  0  0
  189.8930  175.0240  142.4720 C   0  0  0  0  0  2  0  0  0  0  0  0
  188.9580  173.8600  142.7050 C   0  0  1  0  0  3  0  0  0  0  0  0
  188.4060  175.1900  142.2190 C   0  0  1  0  0  3  0  0  0  0  0  0
  189.0520  172.9060  141.5300 C   0  0  0  0  0  2  0  0  0  0  0  0
  189.8770  171.6780  141.8960 C   0  0  0  0  0  2  0  0  0  0  0  0
  191.9410  173.0270  144.7500 C   0  0  0  0  0  2  0  0  0  0  0  0
  193.6150  172.1400  142.1550 C   0  0  0  0  0  2  0  0  0  0  0  0
  191.2830  171.8990  141.6400 N   0  0  0  0  0  0  0  0  0  0  0  0
  194.2310  173.3260  142.8890 C   0  0  0  0  0  2  0  0  0  0  0  0
  194.5000  172.9500  144.3400 C   0  0  0  0  0  2  0  0  0  0  0  0
  192.1890  171.9090  142.5590 C   0  0  0  0  0  0  0  0  0  0  0  0
  191.8490  171.7000  144.0110 C   0  0  0  0  0  2  0  0  0  0  0  0
  193.3480  173.3250  145.2800 C   0  0  0  0  0  2  0  0  0  0  0  0
  1 12  1  0  0  0  0
  2  1  1  0  0  0  0
  3  1  2  0  0  0  0
  4  8  1  0  0  0  0
  5  7  2  0  0  0  0
  6  9  2  0  0  0  0
  6  5  1  0  0  0  0
  7  4  1  0  0  0  0
  9 10  1  0  0  0  0
  9 11  1  0  0  0  0
 10  2  1  1  0  0  0
 10 11  1  0  0  0  0
 11  4  2  0  0  0  0
 12 14  2  0  0  0  0
 12 17  1  0  0  0  0
 14 15  1  0  0  0  0
 15 13  2  0  0  0  0
 16 14  1  0  0  0  0
 17 18  2  0  0  0  0
 18 13  1  0  0  0  0
 19 20  1  0  0  0  0
 20 22  1  6  0  0  0
 21 19  1  0  0  0  0
 21 20  1  0  0  0  0
 21  2  1  1  0  0  0
 22 23  1  0  0  0  0
 24 31  1  0  0  0  0
 25 29  1  0  0  0  0
 25 27  1  0  0  0  0
 26 23  1  0  0  0  0
 26 29  2  0  0  0  0
 27 28  1  0  0  0  0
 28 31  1  0  0  0  0
 29 30  1  0  0  0  0
 30 24  1  0  0  0  0
M  END
>  <MODEL>
8

>  <REMARK>
 VINA RESULT:      -7.2      2.012      5.309
  Name = 
  6 active torsions:
  status: ('A' for Active; 'I' for Inactive)
    1  A    between atoms: C_3  and  C_13
    2  A    between atoms: C_10  and  N_15
    3  A    between atoms: C_10  and  C_28
    4  A    between atoms: C_14  and  C_28
    5  A    between atoms: N_16  and  C_18
    6  A    between atoms: N_16  and  C_21
                            x       y       z     vdW  Elec       q    Type
                         _______ _______ _______ _____ _____    ______ ____

>  <TORSDO>
F 6

$$$$
=
 OpenBabel11042414003D

 31 35  0  0  1  0  0  0  0  0999 V2000
  189.4180  177.2240  146.3470 C   0  0  0  0  0  0  0  0  0  0  0  0
  190.2930  176.4680  145.4930 N   0  0  0  0  0  0  0  0  0  0  0  0
  189.9150  177.9010  147.2860 O   0  0  0  0  0  0  0  0  0  0  0  0
  193.7890  175.9300  145.2000 C   0  0  0  0  0  0  0  0  0  0  0  0
  193.3900  175.0520  142.8180 C   0  0  0  0  0  3  0  0  0  0  0  0
  192.1630  175.6890  142.6270 N   0  0  0  0  0  0  0  0  0  0  0  0
  194.1940  175.1540  144.0530 C   0  0  0  0  0  3  0  0  0  0  0  0
  194.5650  176.0540  146.4610 C   0  0  0  0  0  1  0  0  0  0  0  0
  191.8600  176.3840  143.7180 C   0  0  0  0  0  0  0  0  0  0  0  0
  191.3540  177.1730  144.7660 C   0  0  2  0  0  3  0  0  0  0  0  0
  192.5940  176.5300  144.9610 C   0  0  0  0  0  0  0  0  0  0  0  0
  187.9570  177.2420  146.0910 C   0  0  0  0  0  0  0  0  0  0  0  0
  185.1640  177.2520  145.7370 C   0  0  0  0  0  3  0  0  0  0  0  0
  187.3990  177.3730  144.7950 C   0  0  0  0  0  0  0  0  0  0  0  0
  186.0090  177.3770  144.6330 C   0  0  0  0  0  3  0  0  0  0  0  0
  188.2350  177.5390  143.5710 C   0  0  0  0  0  1  0  0  0  0  0  0
  187.0900  177.1150  147.1890 C   0  0  0  0  0  3  0  0  0  0  0  0
  185.7050  177.1200  147.0160 C   0  0  0  0  0  3  0  0  0  0  0  0
  189.3170  174.5080  146.5940 C   0  0  0  0  0  2  0  0  0  0  0  0
  189.5010  174.1740  145.1320 C   0  0  1  0  0  3  0  0  0  0  0  0
  190.5110  175.0620  145.8390 C   0  0  1  0  0  3  0  0  0  0  0  0
  190.0730  172.7750  145.0130 C   0  0  0  0  0  2  0  0  0  0  0  0
  189.4930  172.0550  143.8010 C   0  0  0  0  0  2  0  0  0  0  0  0
  188.1930  173.0450  140.4020 C   0  0  0  0  0  2  0  0  0  0  0  0
  191.3740  172.6310  140.5790 C   0  0  0  0  0  2  0  0  0  0  0  0
  190.4390  172.0320  142.7070 N   0  0  0  0  0  0  0  0  0  0  0  0
  190.7930  172.2370  139.2260 C   0  0  0  0  0  2  0  0  0  0  0  0
  190.0440  173.4180  138.6240 C   0  0  0  0  0  2  0  0  0  0  0  0
  190.3140  172.7400  141.6340 C   0  0  0  0  0  0  0  0  0  0  0  0
  189.1420  173.6600  141.4210 C   0  0  0  0  0  2  0  0  0  0  0  0
  188.5470  173.4090  138.9560 C   0  0  0  0  0  2  0  0  0  0  0  0
  1  3  2  0  0  0  0
  2  1  1  0  0  0  0
  4  8  1  0  0  0  0
  5  7  1  0  0  0  0
  6  5  2  0  0  0  0
  6  9  1  0  0  0  0
  7  4  2  0  0  0  0
  9 10  1  0  0  0  0
  9 11  2  0  0  0  0
 10 11  1  0  0  0  0
 10  2  1  1  0  0  0
 11  4  1  0  0  0  0
 12  1  1  0  0  0  0
 12 17  1  0  0  0  0
 13 18  1  0  0  0  0
 14 12  2  0  0  0  0
 15 14  1  0  0  0  0
 15 13  2  0  0  0  0
 16 14  1  0  0  0  0
 18 17  2  0  0  0  0
 20 22  1  1  0  0  0
 20 21  1  0  0  0  0
 20 19  1  0  0  0  0
 21  2  1  6  0  0  0
 21 19  1  0  0  0  0
 23 22  1  0  0  0  0
 24 30  1  0  0  0  0
 25 29  1  0  0  0  0
 26 23  1  0  0  0  0
 27 25  1  0  0  0  0
 28 31  1  0  0  0  0
 28 27  1  0  0  0  0
 29 26  2  0  0  0  0
 30 29  1  0  0  0  0
 31 24  1  0  0  0  0
M  END
>  <MODEL>
9

>  <REMARK>
 VINA RESULT:      -7.1      2.031      5.634
  Name = 
  6 active torsions:
  status: ('A' for Active; 'I' for Inactive)
    1  A    between atoms: C_3  and  C_13
    2  A    between atoms: C_10  and  N_15
    3  A    between atoms: C_10  and  C_28
    4  A    between atoms: C_14  and  C_28
    5  A    between atoms: N_16  and  C_18
    6  A    between atoms: N_16  and  C_21
                            x       y       z     vdW  Elec       q    Type
                         _______ _______ _______ _____ _____    ______ ____

>  <TORSDO>
F 6

$$$$
