=
 OpenBabel11042419283D

 40 46  0  0  1  0  0  0  0  0999 V2000
  194.4680  174.3410  142.9560 C   0  0  0  0  0  3  0  0  0  0  0  0
  195.8480  176.4950  143.8520 S   0  0  0  0  0  0  0  0  0  0  0  0
  195.1180  175.2270  146.1470 N   0  0  0  0  0  2  0  0  0  0  0  0
  194.6090  175.6210  144.8290 C   0  0  2  0  0  0  0  0  0  0  0  0
  195.4800  175.3450  142.4650 C   0  0  1  0  0  3  0  0  0  0  0  0
  194.0340  174.5020  144.1460 N   0  0  0  0  0  0  0  0  0  0  0  0
  194.0000  176.1910  146.0330 C   0  0  1  0  0  3  0  0  0  0  0  0
  196.7510  174.6930  141.8630 C   0  0  0  0  0  0  0  0  0  0  0  0
  197.0880  173.4320  142.6410 C   0  0  0  0  0  1  0  0  0  0  0  0
  197.9410  175.6430  141.9730 C   0  0  0  0  0  1  0  0  0  0  0  0
  194.3190  173.8550  137.9350 C   0  0  2  0  0  3  0  0  0  0  0  0
  191.8590  173.5650  137.9510 C   0  0  0  0  0  1  0  0  0  0  0  0
  195.2320  175.1180  135.6400 C   0  0  0  0  0  2  0  0  0  0  0  0
  197.0280  173.0730  139.8080 C   0  0  0  0  0  3  0  0  0  0  0  0
  195.7810  174.9630  139.6060 N   0  0  0  0  0  0  0  0  0  0  0  0
  196.5160  175.2870  136.9850 S   0  0  0  0  0  0  0  0  0  0  0  0
  193.6900  175.2080  137.6110 C   0  0  2  0  0  3  0  0  0  0  0  0
  196.5630  173.0450  138.5680 C   0  0  0  0  0  3  0  0  0  0  0  0
  193.0310  174.2700  138.6020 C   0  0  2  0  0  3  0  0  0  0  0  0
  195.7350  174.2650  138.3260 C   0  0  2  0  0  0  0  0  0  0  0  0
  193.7480  175.1230  136.1000 C   0  0  0  0  0  2  0  0  0  0  0  0
  196.5350  174.2980  140.4190 C   0  0  0  0  0  0  0  0  0  0  0  0
  192.6780  175.5230  146.3800 C   0  0  0  0  0  2  0  0  0  0  0  0
  190.4870  173.7080  144.8930 C   0  0  0  0  0  1  0  0  0  0  0  0
  188.7170  176.4930  144.0280 N   0  0  0  0  0  0  0  0  0  0  0  0
  191.5810  176.4500  146.1500 N   0  0  0  0  0  2  0  0  0  0  0  0
  189.3190  175.3330  143.4680 C   0  0  0  0  0  0  0  0  0  0  0  0
  190.5510  176.1760  145.1980 C   0  0  0  0  0  0  0  0  0  0  0  0
  189.5150  176.9420  145.0790 N   0  0  0  0  0  0  0  0  0  0  0  0
  189.0180  174.8460  142.2680 C   0  0  0  0  0  2  0  0  0  0  0  0
  190.5920  175.0530  144.1910 C   0  0  1  0  0  3  0  0  0  0  0  0
  186.1400  178.6960  142.4500 N   0  0  0  0  0  2  0  0  0  0  0  0
  185.6280  179.3030  143.6760 C   0  0  0  0  0  2  0  0  0  0  0  0
  187.4650  178.1480  142.7170 C   0  0  0  0  0  2  0  0  0  0  0  0
  187.3860  177.0270  143.7570 C   0  0  2  0  0  3  0  0  0  0  0  0
  185.4160  178.2250  144.7350 C   0  0  1  0  0  3  0  0  0  0  0  0
  186.7360  177.5310  145.0460 C   0  0  0  0  0  2  0  0  0  0  0  0
  184.8200  178.8080  145.9720 C   0  0  0  0  0  0  0  0  0  0  0  0
  183.5810  178.7130  146.1690 O   0  0  0  0  0  0  0  0  0  0  0  0
  185.6230  179.4320  146.9210 O   0  0  0  0  0  1  0  0  0  0  0  0
  1  6  2  0  0  0  0
  4  2  1  6  0  0  0
  4  7  1  0  0  0  0
  4  3  1  0  0  0  0
  5  8  1  1  0  0  0
  5  1  1  0  0  0  0
  5  2  1  0  0  0  0
  6  4  1  0  0  0  0
  7  3  1  0  0  0  0
  7 23  1  1  0  0  0
  8 10  1  0  0  0  0
  8  9  1  0  0  0  0
 11 20  1  0  0  0  0
 11 19  1  0  0  0  0
 12 19  1  0  0  0  0
 13 21  1  0  0  0  0
 13 16  1  0  0  0  0
 14 22  1  0  0  0  0
 15 22  2  0  0  0  0
 16 20  1  0  0  0  0
 17 11  1  0  0  0  0
 17 19  1  0  0  0  0
 18 14  2  0  0  0  0
 20 18  1  0  0  0  0
 20 15  1  0  0  0  0
 21 17  1  0  0  0  0
 22  8  1  0  0  0  0
 25 29  1  0  0  0  0
 26 23  1  0  0  0  0
 27 25  1  0  0  0  0
 27 31  1  0  0  0  0
 28 26  1  0  0  0  0
 29 28  2  0  0  0  0
 30 27  2  0  0  0  0
 31 24  1  0  0  0  0
 31 28  1  0  0  0  0
 32 34  1  0  0  0  0
 32 33  1  0  0  0  0
 33 36  1  0  0  0  0
 34 35  1  0  0  0  0
 35 25  1  0  0  0  0
 35 37  1  0  0  0  0
 36 37  1  0  0  0  0
 36 38  1  0  0  0  0
 38 39  2  0  0  0  0
 38 40  1  0  0  0  0
M  END
>  <MODEL>
1

>  <REMARK>
 VINA RESULT:      -7.6      0.000      0.000
  Name = 
  6 active torsions:
  status: ('A' for Active; 'I' for Inactive)
    1  A    between atoms: N_10  and  C_16
    2  A    between atoms: N_13  and  C_24
    3  A    between atoms: C_17  and  C_31
    4  A    between atoms: C_17  and  C_34
    5  A    between atoms: C_19  and  C_28
    6  A    between atoms: C_24  and  C_39
                            x       y       z     vdW  Elec       q    Type
                         _______ _______ _______ _____ _____    ______ ____

>  <TORSDO>
F 6

$$$$
=
 OpenBabel11042419283D

 40 46  0  0  1  0  0  0  0  0999 V2000
  194.4660  174.1530  142.7250 C   0  0  0  0  0  3  0  0  0  0  0  0
  196.0060  176.3330  143.1990 S   0  0  0  0  0  0  0  0  0  0  0  0
  195.4150  175.4350  145.6990 N   0  0  0  0  0  2  0  0  0  0  0  0
  194.8160  175.6700  144.3810 C   0  0  2  0  0  0  0  0  0  0  0  0
  195.4760  175.0240  142.0210 C   0  0  1  0  0  3  0  0  0  0  0  0
  194.1400  174.5010  143.9100 N   0  0  0  0  0  0  0  0  0  0  0  0
  194.3350  176.4330  145.5350 C   0  0  1  0  0  3  0  0  0  0  0  0
  196.6640  174.2280  141.4230 C   0  0  0  0  0  0  0  0  0  0  0  0
  196.9470  173.0150  142.2920 C   0  0  0  0  0  1  0  0  0  0  0  0
  197.9240  175.0890  141.3950 C   0  0  0  0  0  1  0  0  0  0  0  0
  196.4720  174.3560  136.7330 C   0  0  2  0  0  3  0  0  0  0  0  0
  196.7820  176.4600  135.4630 C   0  0  0  0  0  1  0  0  0  0  0  0
  197.5000  172.1460  135.4070 C   0  0  0  0  0  2  0  0  0  0  0  0
  195.0440  173.2480  139.5950 C   0  0  0  0  0  3  0  0  0  0  0  0
  197.1800  173.7970  139.0450 N   0  0  0  0  0  0  0  0  0  0  0  0
  197.3430  171.7520  137.2270 S   0  0  0  0  0  0  0  0  0  0  0  0
  197.9400  174.4370  136.3190 C   0  0  2  0  0  3  0  0  0  0  0  0
  195.1400  172.9900  138.3000 C   0  0  0  0  0  3  0  0  0  0  0  0
  197.1780  175.6880  136.7050 C   0  0  2  0  0  3  0  0  0  0  0  0
  196.5260  173.3050  137.8370 C   0  0  2  0  0  0  0  0  0  0  0  0
  197.8580  173.6140  135.0500 C   0  0  0  0  0  2  0  0  0  0  0  0
  196.3460  173.7310  140.0300 C   0  0  0  0  0  0  0  0  0  0  0  0
  193.0190  175.8910  146.0730 C   0  0  0  0  0  2  0  0  0  0  0  0
  190.6210  173.8970  145.3090 C   0  0  0  0  0  1  0  0  0  0  0  0
  188.8580  176.4820  143.9490 N   0  0  0  0  0  0  0  0  0  0  0  0
  191.9340  176.7960  145.7250 N   0  0  0  0  0  2  0  0  0  0  0  0
  189.3590  175.1870  143.6420 C   0  0  0  0  0  0  0  0  0  0  0  0
  190.7970  176.3560  144.9770 C   0  0  0  0  0  0  0  0  0  0  0  0
  189.7800  177.1280  144.7720 N   0  0  0  0  0  0  0  0  0  0  0  0
  188.9130  174.4380  142.6390 C   0  0  0  0  0  2  0  0  0  0  0  0
  190.6930  175.0190  144.2850 C   0  0  1  0  0  3  0  0  0  0  0  0
  186.2660  178.6830  142.3940 N   0  0  0  0  0  2  0  0  0  0  0  0
  185.7510  179.2750  143.6260 C   0  0  0  0  0  2  0  0  0  0  0  0
  187.5950  178.1410  142.6550 C   0  0  0  0  0  2  0  0  0  0  0  0
  187.5240  177.0100  143.6840 C   0  0  2  0  0  3  0  0  0  0  0  0
  185.5450  178.1840  144.6740 C   0  0  1  0  0  3  0  0  0  0  0  0
  186.8710  177.4970  144.9780 C   0  0  0  0  0  2  0  0  0  0  0  0
  184.9460  178.7510  145.9170 C   0  0  0  0  0  0  0  0  0  0  0  0
  183.7070  178.9660  145.9670 O   0  0  0  0  0  0  0  0  0  0  0  0
  185.7370  179.0190  147.0290 O   0  0  0  0  0  1  0  0  0  0  0  0
  1  6  2  0  0  0  0
  4  2  1  6  0  0  0
  4  7  1  0  0  0  0
  4  3  1  0  0  0  0
  5  8  1  1  0  0  0
  5  1  1  0  0  0  0
  5  2  1  0  0  0  0
  6  4  1  0  0  0  0
  7  3  1  0  0  0  0
  7 23  1  1  0  0  0
  8  9  1  0  0  0  0
 10  8  1  0  0  0  0
 11 20  1  0  0  0  0
 12 19  1  0  0  0  0
 13 16  1  0  0  0  0
 14 22  1  0  0  0  0
 15 22  2  0  0  0  0
 16 20  1  0  0  0  0
 17 19  1  0  0  0  0
 17 11  1  0  0  0  0
 18 14  2  0  0  0  0
 19 11  1  0  0  0  0
 20 18  1  0  0  0  0
 20 15  1  0  0  0  0
 21 13  1  0  0  0  0
 21 17  1  0  0  0  0
 22  8  1  0  0  0  0
 25 29  1  0  0  0  0
 26 23  1  0  0  0  0
 27 25  1  0  0  0  0
 27 31  1  0  0  0  0
 28 26  1  0  0  0  0
 29 28  2  0  0  0  0
 30 27  2  0  0  0  0
 31 28  1  0  0  0  0
 31 24  1  0  0  0  0
 32 34  1  0  0  0  0
 32 33  1  0  0  0  0
 33 36  1  0  0  0  0
 34 35  1  0  0  0  0
 35 25  1  0  0  0  0
 35 37  1  0  0  0  0
 36 37  1  0  0  0  0
 36 38  1  0  0  0  0
 38 39  2  0  0  0  0
 38 40  1  0  0  0  0
M  END
>  <MODEL>
2

>  <REMARK>
 VINA RESULT:      -7.5      1.325      1.958
  Name = 
  6 active torsions:
  status: ('A' for Active; 'I' for Inactive)
    1  A    between atoms: N_10  and  C_16
    2  A    between atoms: N_13  and  C_24
    3  A    between atoms: C_17  and  C_31
    4  A    between atoms: C_17  and  C_34
    5  A    between atoms: C_19  and  C_28
    6  A    between atoms: C_24  and  C_39
                            x       y       z     vdW  Elec       q    Type
                         _______ _______ _______ _____ _____    ______ ____

>  <TORSDO>
F 6

$$$$
=
 OpenBabel11042419283D

 40 46  0  0  1  0  0  0  0  0999 V2000
  190.3610  173.5490  144.8070 C   0  0  0  0  0  3  0  0  0  0  0  0
  192.6140  174.9050  145.4650 S   0  0  0  0  0  0  0  0  0  0  0  0
  192.4970  175.1710  142.7590 N   0  0  0  0  0  2  0  0  0  0  0  0
  192.3120  174.1920  143.8360 C   0  0  2  0  0  0  0  0  0  0  0  0
  191.0010  174.2060  146.0040 C   0  0  1  0  0  3  0  0  0  0  0  0
  191.0410  173.5450  143.7260 N   0  0  0  0  0  0  0  0  0  0  0  0
  193.3770  173.9840  142.8500 C   0  0  1  0  0  3  0  0  0  0  0  0
  190.0880  175.2510  146.6950 C   0  0  0  0  0  0  0  0  0  0  0  0
  190.8950  176.0250  147.7230 C   0  0  0  0  0  1  0  0  0  0  0  0
  188.9400  174.5590  147.4250 C   0  0  0  0  0  1  0  0  0  0  0  0
  188.1160  176.7100  142.6910 C   0  0  2  0  0  3  0  0  0  0  0  0
  187.9640  175.2520  140.6940 C   0  0  0  0  0  1  0  0  0  0  0  0
  185.9300  178.3990  142.9500 C   0  0  0  0  0  2  0  0  0  0  0  0
  190.2520  177.4230  145.2180 C   0  0  0  0  0  3  0  0  0  0  0  0
  188.4200  176.0860  145.0730 N   0  0  0  0  0  0  0  0  0  0  0  0
  186.7720  178.2260  144.6090 S   0  0  0  0  0  0  0  0  0  0  0  0
  186.7430  176.0420  142.7070 C   0  0  2  0  0  3  0  0  0  0  0  0
  189.4890  177.9890  144.2960 C   0  0  0  0  0  3  0  0  0  0  0  0
  187.9600  175.2900  142.2090 C   0  0  2  0  0  3  0  0  0  0  0  0
  188.2380  177.1870  144.1350 C   0  0  2  0  0  0  0  0  0  0  0  0
  185.9520  177.1450  142.0340 C   0  0  0  0  0  2  0  0  0  0  0  0
  189.5410  176.2470  145.6960 C   0  0  0  0  0  0  0  0  0  0  0  0
  192.9930  172.9500  141.8020 C   0  0  0  0  0  2  0  0  0  0  0  0
  190.0590  172.1030  140.8110 C   0  0  0  0  0  1  0  0  0  0  0  0
  190.7790  173.1730  137.6530 N   0  0  0  0  0  0  0  0  0  0  0  0
  192.8880  173.5860  140.4970 N   0  0  0  0  0  2  0  0  0  0  0  0
  190.3140  172.0350  138.3690 C   0  0  0  0  0  0  0  0  0  0  0  0
  191.9050  173.1820  139.5410 C   0  0  0  0  0  0  0  0  0  0  0  0
  191.7350  173.8250  138.4310 N   0  0  0  0  0  0  0  0  0  0  0  0
  189.6620  171.0220  137.8090 C   0  0  0  0  0  2  0  0  0  0  0  0
  191.0460  171.9480  139.6640 C   0  0  1  0  0  3  0  0  0  0  0  0
  190.7130  175.2250  134.5270 N   0  0  0  0  0  2  0  0  0  0  0  0
  189.5940  176.0900  134.8880 C   0  0  0  0  0  2  0  0  0  0  0  0
  191.2640  174.6380  135.7440 C   0  0  0  0  0  2  0  0  0  0  0  0
  190.2260  173.7450  136.4290 C   0  0  2  0  0  3  0  0  0  0  0  0
  188.4640  175.2520  135.4810 C   0  0  1  0  0  3  0  0  0  0  0  0
  188.9510  174.5320  136.7330 C   0  0  0  0  0  2  0  0  0  0  0  0
  187.2780  176.1030  135.7860 C   0  0  0  0  0  0  0  0  0  0  0  0
  186.8830  176.9460  134.9400 O   0  0  0  0  0  0  0  0  0  0  0  0
  186.5870  175.9550  136.9850 O   0  0  0  0  0  1  0  0  0  0  0  0
  1  5  1  0  0  0  0
  2  5  1  0  0  0  0
  3  7  1  0  0  0  0
  4  3  1  6  0  0  0
  4  2  1  0  0  0  0
  5  8  1  6  0  0  0
  6  4  1  0  0  0  0
  6  1  2  0  0  0  0
  7 23  1  6  0  0  0
  7  4  1  0  0  0  0
  8 10  1  0  0  0  0
  8  9  1  0  0  0  0
 11 17  1  0  0  0  0
 11 20  1  0  0  0  0
 12 19  1  0  0  0  0
 13 16  1  0  0  0  0
 14 22  1  0  0  0  0
 15 22  2  0  0  0  0
 18 14  2  0  0  0  0
 19 11  1  0  0  0  0
 19 17  1  0  0  0  0
 20 18  1  0  0  0  0
 20 16  1  0  0  0  0
 20 15  1  0  0  0  0
 21 17  1  0  0  0  0
 21 13  1  0  0  0  0
 22  8  1  0  0  0  0
 25 27  1  0  0  0  0
 25 29  1  0  0  0  0
 26 23  1  0  0  0  0
 27 31  1  0  0  0  0
 28 31  1  0  0  0  0
 28 26  1  0  0  0  0
 29 28  2  0  0  0  0
 30 27  2  0  0  0  0
 31 24  1  0  0  0  0
 32 33  1  0  0  0  0
 32 34  1  0  0  0  0
 33 36  1  0  0  0  0
 34 35  1  0  0  0  0
 35 37  1  0  0  0  0
 35 25  1  0  0  0  0
 36 38  1  0  0  0  0
 36 37  1  0  0  0  0
 38 40  1  0  0  0  0
 39 38  2  0  0  0  0
M  END
>  <MODEL>
3

>  <REMARK>
 VINA RESULT:      -7.2      4.052      8.236
  Name = 
  6 active torsions:
  status: ('A' for Active; 'I' for Inactive)
    1  A    between atoms: N_10  and  C_16
    2  A    between atoms: N_13  and  C_24
    3  A    between atoms: C_17  and  C_31
    4  A    between atoms: C_17  and  C_34
    5  A    between atoms: C_19  and  C_28
    6  A    between atoms: C_24  and  C_39
                            x       y       z     vdW  Elec       q    Type
                         _______ _______ _______ _____ _____    ______ ____

>  <TORSDO>
F 6

$$$$
=
 OpenBabel11042419283D

 40 46  0  0  1  0  0  0  0  0999 V2000
  193.4540  173.4140  143.5890 C   0  0  0  0  0  3  0  0  0  0  0  0
  195.8280  174.5190  142.8860 S   0  0  0  0  0  0  0  0  0  0  0  0
  195.7870  174.8060  145.5930 N   0  0  0  0  0  2  0  0  0  0  0  0
  194.9400  174.9310  144.4020 C   0  0  2  0  0  0  0  0  0  0  0  0
  194.4360  173.3990  142.4460 C   0  0  1  0  0  3  0  0  0  0  0  0
  193.7210  174.1990  144.5610 N   0  0  0  0  0  0  0  0  0  0  0  0
  195.2390  176.1230  145.1980 C   0  0  1  0  0  3  0  0  0  0  0  0
  194.9050  171.9740  142.0550 C   0  0  0  0  0  0  0  0  0  0  0  0
  195.4700  171.2760  143.2810 C   0  0  0  0  0  1  0  0  0  0  0  0
  196.0100  172.0440  141.0050 C   0  0  0  0  0  1  0  0  0  0  0  0
  190.5630  171.1040  140.4950 C   0  0  2  0  0  3  0  0  0  0  0  0
  188.7150  172.7290  140.7800 C   0  0  0  0  0  1  0  0  0  0  0  0
  190.3800  169.6840  138.1190 C   0  0  0  0  0  2  0  0  0  0  0  0
  193.2550  169.9270  142.1750 C   0  0  0  0  0  3  0  0  0  0  0  0
  193.0140  171.4880  140.5410 N   0  0  0  0  0  0  0  0  0  0  0  0
  192.1400  169.6140  138.7420 S   0  0  0  0  0  0  0  0  0  0  0  0
  190.4720  171.9340  139.2160 C   0  0  2  0  0  3  0  0  0  0  0  0
  192.1940  169.5380  141.4860 C   0  0  0  0  0  3  0  0  0  0  0  0
  190.2060  172.5680  140.5660 C   0  0  2  0  0  3  0  0  0  0  0  0
  191.9570  170.4990  140.3660 C   0  0  2  0  0  0  0  0  0  0  0  0
  189.6010  170.9960  138.4060 C   0  0  0  0  0  2  0  0  0  0  0  0
  193.7540  171.1380  141.5410 C   0  0  0  0  0  0  0  0  0  0  0  0
  194.0800  176.5140  146.1030 C   0  0  0  0  0  2  0  0  0  0  0  0
  191.6380  176.1620  148.1570 C   0  0  0  0  0  1  0  0  0  0  0  0
  189.4050  176.3210  145.5830 N   0  0  0  0  0  0  0  0  0  0  0  0
  192.9180  176.8560  145.2980 N   0  0  0  0  0  2  0  0  0  0  0  0
  189.7860  175.5040  146.6830 C   0  0  0  0  0  0  0  0  0  0  0  0
  191.5950  176.4860  145.6910 C   0  0  0  0  0  0  0  0  0  0  0  0
  190.5550  176.8920  145.0380 N   0  0  0  0  0  0  0  0  0  0  0  0
  189.0080  174.5690  147.2180 C   0  0  0  0  0  2  0  0  0  0  0  0
  191.2700  175.5390  146.8200 C   0  0  1  0  0  3  0  0  0  0  0  0
  186.7660  178.0600  143.5850 N   0  0  0  0  0  2  0  0  0  0  0  0
  186.1850  178.8420  144.6720 C   0  0  0  0  0  2  0  0  0  0  0  0
  188.1100  177.6440  143.9730 C   0  0  0  0  0  2  0  0  0  0  0  0
  188.0570  176.7210  145.1930 C   0  0  2  0  0  3  0  0  0  0  0  0
  185.9960  177.9560  145.9010 C   0  0  1  0  0  3  0  0  0  0  0  0
  187.3410  177.4050  146.3580 C   0  0  0  0  0  2  0  0  0  0  0  0
  185.3310  178.7120  147.0010 C   0  0  0  0  0  0  0  0  0  0  0  0
  184.1320  178.4640  147.2890 O   0  0  0  0  0  0  0  0  0  0  0  0
  186.0310  179.6680  147.7300 O   0  0  0  0  0  1  0  0  0  0  0  0
  1  6  2  0  0  0  0
  4  2  1  6  0  0  0
  4  6  1  0  0  0  0
  4  7  1  0  0  0  0
  4  3  1  0  0  0  0
  5  8  1  1  0  0  0
  5  2  1  0  0  0  0
  5  1  1  0  0  0  0
  7  3  1  0  0  0  0
  7 23  1  1  0  0  0
  8  9  1  0  0  0  0
 10  8  1  0  0  0  0
 11 19  1  0  0  0  0
 13 21  1  0  0  0  0
 13 16  1  0  0  0  0
 15 22  2  0  0  0  0
 16 20  1  0  0  0  0
 17 11  1  0  0  0  0
 17 19  1  0  0  0  0
 18 14  2  0  0  0  0
 19 12  1  0  0  0  0
 20 11  1  0  0  0  0
 20 15  1  0  0  0  0
 20 18  1  0  0  0  0
 21 17  1  0  0  0  0
 22  8  1  0  0  0  0
 22 14  1  0  0  0  0
 25 27  1  0  0  0  0
 26 28  1  0  0  0  0
 26 23  1  0  0  0  0
 27 31  1  0  0  0  0
 27 30  2  0  0  0  0
 28 31  1  0  0  0  0
 29 25  1  0  0  0  0
 29 28  2  0  0  0  0
 31 24  1  0  0  0  0
 32 34  1  0  0  0  0
 32 33  1  0  0  0  0
 33 36  1  0  0  0  0
 34 35  1  0  0  0  0
 35 25  1  0  0  0  0
 35 37  1  0  0  0  0
 36 37  1  0  0  0  0
 36 38  1  0  0  0  0
 38 39  2  0  0  0  0
 38 40  1  0  0  0  0
M  END
>  <MODEL>
4

>  <REMARK>
 VINA RESULT:      -7.2      2.746      3.608
  Name = 
  6 active torsions:
  status: ('A' for Active; 'I' for Inactive)
    1  A    between atoms: N_10  and  C_16
    2  A    between atoms: N_13  and  C_24
    3  A    between atoms: C_17  and  C_31
    4  A    between atoms: C_17  and  C_34
    5  A    between atoms: C_19  and  C_28
    6  A    between atoms: C_24  and  C_39
                            x       y       z     vdW  Elec       q    Type
                         _______ _______ _______ _____ _____    ______ ____

>  <TORSDO>
F 6

$$$$
=
 OpenBabel11042419283D

 40 46  0  0  1  0  0  0  0  0999 V2000
  191.5480  174.1740  144.9950 C   0  0  0  0  0  3  0  0  0  0  0  0
  193.2550  176.0180  146.0130 S   0  0  0  0  0  0  0  0  0  0  0  0
  193.6120  176.2580  143.3260 N   0  0  0  0  0  2  0  0  0  0  0  0
  193.4510  175.2600  144.3880 C   0  0  2  0  0  0  0  0  0  0  0  0
  191.7720  174.9580  146.2630 C   0  0  1  0  0  3  0  0  0  0  0  0
  192.4100  174.3330  144.0660 N   0  0  0  0  0  0  0  0  0  0  0  0
  194.7060  175.3100  143.6350 C   0  0  1  0  0  3  0  0  0  0  0  0
  190.5260  175.7580  146.7210 C   0  0  0  0  0  0  0  0  0  0  0  0
  190.9240  176.7250  147.8240 C   0  0  0  0  0  1  0  0  0  0  0  0
  189.4640  174.8170  147.2840 C   0  0  0  0  0  1  0  0  0  0  0  0
  188.4930  176.5200  142.5580 C   0  0  2  0  0  3  0  0  0  0  0  0
  188.3690  174.7630  140.8160 C   0  0  0  0  0  1  0  0  0  0  0  0
  186.2640  178.1720  142.5700 C   0  0  0  0  0  2  0  0  0  0  0  0
  190.6240  177.6740  144.9200 C   0  0  0  0  0  3  0  0  0  0  0  0
  188.8270  176.2850  145.0050 N   0  0  0  0  0  0  0  0  0  0  0  0
  187.1200  178.2840  144.2270 S   0  0  0  0  0  0  0  0  0  0  0  0
  187.1380  175.8280  142.6920 C   0  0  2  0  0  3  0  0  0  0  0  0
  189.8410  178.0680  143.9280 C   0  0  0  0  0  3  0  0  0  0  0  0
  188.3720  175.0380  142.3060 C   0  0  2  0  0  3  0  0  0  0  0  0
  188.6100  177.2200  143.9080 C   0  0  2  0  0  0  0  0  0  0  0  0
  186.3150  176.7910  141.8620 C   0  0  0  0  0  2  0  0  0  0  0  0
  189.9470  176.5710  145.5840 C   0  0  0  0  0  0  0  0  0  0  0  0
  194.7850  174.2190  142.5770 C   0  0  0  0  0  2  0  0  0  0  0  0
  192.4420  173.9800  140.3940 C   0  0  0  0  0  1  0  0  0  0  0  0
  194.6740  174.5770  137.8840 N   0  0  0  0  0  0  0  0  0  0  0  0
  195.4020  174.7450  141.3700 N   0  0  0  0  0  2  0  0  0  0  0  0
  193.6880  173.6430  138.3030 C   0  0  0  0  0  0  0  0  0  0  0  0
  194.8550  174.4940  140.0730 C   0  0  0  0  0  0  0  0  0  0  0  0
  195.3350  175.0590  139.0130 N   0  0  0  0  0  0  0  0  0  0  0  0
  193.1100  172.7600  137.4950 C   0  0  0  0  0  2  0  0  0  0  0  0
  193.7530  173.5040  139.7860 C   0  0  1  0  0  3  0  0  0  0  0  0
  196.4650  176.2550  135.0620 N   0  0  0  0  0  2  0  0  0  0  0  0
  195.5880  177.4150  134.9400 C   0  0  0  0  0  2  0  0  0  0  0  0
  196.2840  175.6670  136.3850 C   0  0  0  0  0  2  0  0  0  0  0  0
  194.8520  175.1500  136.5540 C   0  0  2  0  0  3  0  0  0  0  0  0
  194.1300  176.9660  134.9870 C   0  0  1  0  0  3  0  0  0  0  0  0
  193.8410  176.2710  136.3120 C   0  0  0  0  0  2  0  0  0  0  0  0
  193.2130  178.1250  134.7860 C   0  0  0  0  0  0  0  0  0  0  0  0
  191.9860  177.9210  134.5960 O   0  0  0  0  0  0  0  0  0  0  0  0
  193.6940  179.4290  134.8320 O   0  0  0  0  0  1  0  0  0  0  0  0
  1  5  1  0  0  0  0
  2  5  1  0  0  0  0
  3  7  1  0  0  0  0
  4  3  1  6  0  0  0
  4  2  1  0  0  0  0
  5  8  1  6  0  0  0
  6  4  1  0  0  0  0
  6  1  2  0  0  0  0
  7 23  1  6  0  0  0
  7  4  1  0  0  0  0
  8 10  1  0  0  0  0
  8  9  1  0  0  0  0
 11 17  1  0  0  0  0
 11 20  1  0  0  0  0
 12 19  1  0  0  0  0
 13 16  1  0  0  0  0
 14 22  1  0  0  0  0
 15 22  2  0  0  0  0
 18 14  2  0  0  0  0
 19 11  1  0  0  0  0
 19 17  1  0  0  0  0
 20 18  1  0  0  0  0
 20 16  1  0  0  0  0
 20 15  1  0  0  0  0
 21 13  1  0  0  0  0
 21 17  1  0  0  0  0
 22  8  1  0  0  0  0
 25 27  1  0  0  0  0
 25 29  1  0  0  0  0
 26 23  1  0  0  0  0
 27 31  1  0  0  0  0
 28 26  1  0  0  0  0
 29 28  2  0  0  0  0
 30 27  2  0  0  0  0
 31 28  1  0  0  0  0
 31 24  1  0  0  0  0
 32 34  1  0  0  0  0
 33 36  1  0  0  0  0
 33 32  1  0  0  0  0
 34 35  1  0  0  0  0
 35 25  1  0  0  0  0
 36 37  1  0  0  0  0
 37 35  1  0  0  0  0
 38 40  1  0  0  0  0
 38 36  1  0  0  0  0
 39 38  2  0  0  0  0
M  END
>  <MODEL>
5

>  <REMARK>
 VINA RESULT:      -7.2      4.024      8.971
  Name = 
  6 active torsions:
  status: ('A' for Active; 'I' for Inactive)
    1  A    between atoms: N_10  and  C_16
    2  A    between atoms: N_13  and  C_24
    3  A    between atoms: C_17  and  C_31
    4  A    between atoms: C_17  and  C_34
    5  A    between atoms: C_19  and  C_28
    6  A    between atoms: C_24  and  C_39
                            x       y       z     vdW  Elec       q    Type
                         _______ _______ _______ _____ _____    ______ ____

>  <TORSDO>
F 6

$$$$
=
 OpenBabel11042419283D

 40 46  0  0  1  0  0  0  0  0999 V2000
  194.2290  175.1830  143.1690 C   0  0  0  0  0  3  0  0  0  0  0  0
  195.2300  173.4290  144.9780 S   0  0  0  0  0  0  0  0  0  0  0  0
  193.5750  171.8850  143.4660 N   0  0  0  0  0  2  0  0  0  0  0  0
  193.6620  173.1970  144.1180 C   0  0  2  0  0  0  0  0  0  0  0  0
  195.4000  175.0410  144.1090 C   0  0  1  0  0  3  0  0  0  0  0  0
  193.3600  174.2470  143.1950 N   0  0  0  0  0  0  0  0  0  0  0  0
  192.6460  172.2390  144.5630 C   0  0  1  0  0  3  0  0  0  0  0  0
  196.7740  175.2120  143.4120 C   0  0  0  0  0  0  0  0  0  0  0  0
  197.8530  174.5570  144.2570 C   0  0  0  0  0  1  0  0  0  0  0  0
  197.1220  176.6920  143.2720 C   0  0  0  0  0  1  0  0  0  0  0  0
  195.1080  173.9520  139.2070 C   0  0  2  0  0  3  0  0  0  0  0  0
  192.7010  174.1100  138.6470 C   0  0  0  0  0  1  0  0  0  0  0  0
  196.7480  174.4840  137.0330 C   0  0  0  0  0  2  0  0  0  0  0  0
  197.1100  173.1480  141.8150 C   0  0  0  0  0  3  0  0  0  0  0  0
  196.3920  175.1330  140.9720 N   0  0  0  0  0  0  0  0  0  0  0  0
  197.7220  174.7240  138.6100 S   0  0  0  0  0  0  0  0  0  0  0  0
  194.8830  175.2860  138.4990 C   0  0  2  0  0  3  0  0  0  0  0  0
  196.9260  172.9230  140.5230 C   0  0  0  0  0  3  0  0  0  0  0  0
  193.8350  174.7260  139.4390 C   0  0  2  0  0  3  0  0  0  0  0  0
  196.4640  174.1840  139.8660 C   0  0  2  0  0  0  0  0  0  0  0  0
  195.2410  174.8540  137.0920 C   0  0  0  0  0  2  0  0  0  0  0  0
  196.7870  174.5460  142.0530 C   0  0  0  0  0  0  0  0  0  0  0  0
  191.2660  172.5680  144.0120 C   0  0  0  0  0  2  0  0  0  0  0  0
  189.9170  175.0080  142.4190 C   0  0  0  0  0  1  0  0  0  0  0  0
  188.9540  176.4410  145.3610 N   0  0  0  0  0  0  0  0  0  0  0  0
  190.4720  173.2320  145.0340 N   0  0  0  0  0  2  0  0  0  0  0  0
  189.6700  176.7190  144.1640 C   0  0  0  0  0  0  0  0  0  0  0  0
  189.9950  174.5690  144.8660 C   0  0  0  0  0  0  0  0  0  0  0  0
  189.1910  175.1150  145.7200 N   0  0  0  0  0  0  0  0  0  0  0  0
  189.9370  177.9450  143.7270 C   0  0  0  0  0  2  0  0  0  0  0  0
  190.4300  175.5020  143.7630 C   0  0  1  0  0  3  0  0  0  0  0  0
  186.0550  177.2430  147.5830 N   0  0  0  0  0  2  0  0  0  0  0  0
  185.1680  177.7830  146.5550 C   0  0  0  0  0  2  0  0  0  0  0  0
  187.0730  176.4210  146.9380 C   0  0  0  0  0  2  0  0  0  0  0  0
  187.9460  177.2720  146.0130 C   0  0  2  0  0  3  0  0  0  0  0  0
  185.9460  178.7360  145.6520 C   0  0  1  0  0  3  0  0  0  0  0  0
  187.0890  177.9930  144.9720 C   0  0  0  0  0  2  0  0  0  0  0  0
  185.0450  179.3610  144.6410 C   0  0  0  0  0  0  0  0  0  0  0  0
  185.2610  180.5410  144.2620 O   0  0  0  0  0  1  0  0  0  0  0  0
  183.9850  178.6450  144.0940 O   0  0  0  0  0  0  0  0  0  0  0  0
  1  6  2  0  0  0  0
  1  5  1  0  0  0  0
  3  4  1  0  0  0  0
  3  7  1  0  0  0  0
  4  6  1  6  0  0  0
  4  7  1  0  0  0  0
  4  2  1  0  0  0  0
  5  8  1  6  0  0  0
  5  2  1  0  0  0  0
  7 23  1  6  0  0  0
  8  9  1  0  0  0  0
 10  8  1  0  0  0  0
 11 19  1  0  0  0  0
 11 20  1  0  0  0  0
 12 19  1  0  0  0  0
 13 21  1  0  0  0  0
 13 16  1  0  0  0  0
 14 22  1  0  0  0  0
 15 22  2  0  0  0  0
 16 20  1  0  0  0  0
 17 11  1  0  0  0  0
 17 19  1  0  0  0  0
 18 14  2  0  0  0  0
 20 18  1  0  0  0  0
 20 15  1  0  0  0  0
 21 17  1  0  0  0  0
 22  8  1  0  0  0  0
 23 26  1  0  0  0  0
 24 31  1  0  0  0  0
 25 29  1  0  0  0  0
 25 35  1  0  0  0  0
 27 25  1  0  0  0  0
 28 26  1  0  0  0  0
 28 29  2  0  0  0  0
 30 27  2  0  0  0  0
 31 27  1  0  0  0  0
 31 28  1  0  0  0  0
 33 32  1  0  0  0  0
 34 32  1  0  0  0  0
 35 34  1  0  0  0  0
 36 33  1  0  0  0  0
 37 36  1  0  0  0  0
 37 35  1  0  0  0  0
 38 36  1  0  0  0  0
 39 38  1  0  0  0  0
 40 38  2  0  0  0  0
M  END
>  <MODEL>
6

>  <REMARK>
 VINA RESULT:      -7.1      1.844      2.561
  Name = 
  6 active torsions:
  status: ('A' for Active; 'I' for Inactive)
    1  A    between atoms: N_10  and  C_16
    2  A    between atoms: N_13  and  C_24
    3  A    between atoms: C_17  and  C_31
    4  A    between atoms: C_17  and  C_34
    5  A    between atoms: C_19  and  C_28
    6  A    between atoms: C_24  and  C_39
                            x       y       z     vdW  Elec       q    Type
                         _______ _______ _______ _____ _____    ______ ____

>  <TORSDO>
F 6

$$$$
=
 OpenBabel11042419283D

 40 46  0  0  1  0  0  0  0  0999 V2000
  191.9200  174.3200  145.0620 C   0  0  0  0  0  3  0  0  0  0  0  0
  190.1160  175.9140  143.8170 S   0  0  0  0  0  0  0  0  0  0  0  0
  190.1900  173.7040  142.2300 N   0  0  0  0  0  2  0  0  0  0  0  0
  191.0550  174.6200  142.9810 C   0  0  2  0  0  0  0  0  0  0  0  0
  191.0260  175.4960  145.3600 C   0  0  1  0  0  3  0  0  0  0  0  0
  191.9280  173.8990  143.8550 N   0  0  0  0  0  0  0  0  0  0  0  0
  191.1810  174.5470  141.5240 C   0  0  1  0  0  3  0  0  0  0  0  0
  190.0880  175.2650  146.5730 C   0  0  0  0  0  0  0  0  0  0  0  0
  190.9170  175.2000  147.8450 C   0  0  0  0  0  1  0  0  0  0  0  0
  189.3460  173.9390  146.4300 C   0  0  0  0  0  1  0  0  0  0  0  0
  186.7460  178.2850  145.2480 C   0  0  2  0  0  3  0  0  0  0  0  0
  186.2180  178.6960  142.8630 C   0  0  0  0  0  1  0  0  0  0  0  0
  184.5040  178.4180  146.8770 C   0  0  0  0  0  2  0  0  0  0  0  0
  189.4190  177.7190  147.2460 C   0  0  0  0  0  3  0  0  0  0  0  0
  187.8820  176.3420  146.2940 N   0  0  0  0  0  0  0  0  0  0  0  0
  185.8410  177.4490  147.7510 S   0  0  0  0  0  0  0  0  0  0  0  0
  185.5780  177.3780  144.8680 C   0  0  2  0  0  3  0  0  0  0  0  0
  188.3220  178.4530  147.1400 C   0  0  0  0  0  3  0  0  0  0  0  0
  186.6840  177.6680  143.8740 C   0  0  2  0  0  3  0  0  0  0  0  0
  187.2350  177.6270  146.5350 C   0  0  2  0  0  0  0  0  0  0  0  0
  184.4450  178.2690  145.3320 C   0  0  0  0  0  2  0  0  0  0  0  0
  189.0990  176.3990  146.7260 C   0  0  0  0  0  0  0  0  0  0  0  0
  192.3810  173.7160  141.0930 C   0  0  0  0  0  2  0  0  0  0  0  0
  191.4030  173.1660  138.0850 C   0  0  0  0  0  1  0  0  0  0  0  0
  194.2340  174.6240  136.8610 N   0  0  0  0  0  0  0  0  0  0  0  0
  193.2860  174.5300  140.2970 N   0  0  0  0  0  2  0  0  0  0  0  0
  193.4740  173.4240  136.7900 C   0  0  0  0  0  0  0  0  0  0  0  0
  193.4560  174.3140  138.8940 C   0  0  0  0  0  0  0  0  0  0  0  0
  194.1680  175.1120  138.1660 N   0  0  0  0  0  0  0  0  0  0  0  0
  193.5850  172.5330  135.8110 C   0  0  0  0  0  2  0  0  0  0  0  0
  192.9220  173.1210  138.1410 C   0  0  1  0  0  3  0  0  0  0  0  0
  196.8980  176.2630  134.8110 N   0  0  0  0  0  2  0  0  0  0  0  0
  196.3820  177.6270  134.8800 C   0  0  0  0  0  2  0  0  0  0  0  0
  196.3230  175.4890  135.9070 C   0  0  0  0  0  2  0  0  0  0  0  0
  194.8030  175.3880  135.7560 C   0  0  2  0  0  3  0  0  0  0  0  0
  194.8770  177.6230  134.6270 C   0  0  1  0  0  3  0  0  0  0  0  0
  194.1730  176.7790  135.6830 C   0  0  0  0  0  2  0  0  0  0  0  0
  194.3380  179.0130  134.6140 C   0  0  0  0  0  0  0  0  0  0  0  0
  193.0940  179.1970  134.5730 O   0  0  0  0  0  0  0  0  0  0  0  0
  195.1950  180.1080  134.6740 O   0  0  0  0  0  1  0  0  0  0  0  0
  1  5  1  0  0  0  0
  2  5  1  0  0  0  0
  4  3  1  1  0  0  0
  4  2  1  0  0  0  0
  4  6  1  0  0  0  0
  5  8  1  1  0  0  0
  6  1  2  0  0  0  0
  7 23  1  1  0  0  0
  7  3  1  0  0  0  0
  7  4  1  0  0  0  0
  8 22  1  0  0  0  0
  8  9  1  0  0  0  0
 10  8  1  0  0  0  0
 11 20  1  0  0  0  0
 12 19  1  0  0  0  0
 13 16  1  0  0  0  0
 15 20  1  0  0  0  0
 15 22  2  0  0  0  0
 17 11  1  0  0  0  0
 17 21  1  0  0  0  0
 18 14  2  0  0  0  0
 19 17  1  0  0  0  0
 19 11  1  0  0  0  0
 20 18  1  0  0  0  0
 20 16  1  0  0  0  0
 21 13  1  0  0  0  0
 22 14  1  0  0  0  0
 24 31  1  0  0  0  0
 25 29  1  0  0  0  0
 26 23  1  0  0  0  0
 27 25  1  0  0  0  0
 27 31  1  0  0  0  0
 28 26  1  0  0  0  0
 29 28  2  0  0  0  0
 30 27  2  0  0  0  0
 31 28  1  0  0  0  0
 32 33  1  0  0  0  0
 32 34  1  0  0  0  0
 35 34  1  0  0  0  0
 35 25  1  0  0  0  0
 36 33  1  0  0  0  0
 36 37  1  0  0  0  0
 37 35  1  0  0  0  0
 38 36  1  0  0  0  0
 38 40  1  0  0  0  0
 39 38  2  0  0  0  0
M  END
>  <MODEL>
7

>  <REMARK>
 VINA RESULT:      -7.1      4.519     10.378
  Name = 
  6 active torsions:
  status: ('A' for Active; 'I' for Inactive)
    1  A    between atoms: N_10  and  C_16
    2  A    between atoms: N_13  and  C_24
    3  A    between atoms: C_17  and  C_31
    4  A    between atoms: C_17  and  C_34
    5  A    between atoms: C_19  and  C_28
    6  A    between atoms: C_24  and  C_39
                            x       y       z     vdW  Elec       q    Type
                         _______ _______ _______ _____ _____    ______ ____

>  <TORSDO>
F 6

$$$$
=
 OpenBabel11042419283D

 40 46  0  0  1  0  0  0  0  0999 V2000
  194.2970  174.6110  141.5420 C   0  0  0  0  0  3  0  0  0  0  0  0
  195.9240  176.7710  141.7330 S   0  0  0  0  0  0  0  0  0  0  0  0
  196.1890  175.5780  144.1650 N   0  0  0  0  0  2  0  0  0  0  0  0
  195.1880  175.9420  143.1560 C   0  0  2  0  0  0  0  0  0  0  0  0
  195.0230  175.5880  140.6520 C   0  0  1  0  0  3  0  0  0  0  0  0
  194.3860  174.8120  142.8010 N   0  0  0  0  0  0  0  0  0  0  0  0
  195.1230  176.5530  144.4850 C   0  0  1  0  0  3  0  0  0  0  0  0
  195.9400  174.9030  139.6060 C   0  0  0  0  0  0  0  0  0  0  0  0
  196.1550  173.4510  139.9980 C   0  0  0  0  0  1  0  0  0  0  0  0
  197.3050  175.5850  139.5640 C   0  0  0  0  0  1  0  0  0  0  0  0
  192.8660  173.7410  136.2520 C   0  0  2  0  0  3  0  0  0  0  0  0
  191.3960  171.7570  136.4480 C   0  0  0  0  0  1  0  0  0  0  0  0
  191.6410  175.8520  134.9320 C   0  0  0  0  0  2  0  0  0  0  0  0
  196.0280  174.7010  136.9830 C   0  0  0  0  0  3  0  0  0  0  0  0
  194.0360  175.0120  138.0330 N   0  0  0  0  0  0  0  0  0  0  0  0
  193.0610  176.5080  135.9530 S   0  0  0  0  0  0  0  0  0  0  0  0
  191.5270  174.2090  136.8190 C   0  0  2  0  0  3  0  0  0  0  0  0
  195.1280  174.7010  136.0130 C   0  0  0  0  0  3  0  0  0  0  0  0
  192.1010  172.8620  137.2080 C   0  0  2  0  0  3  0  0  0  0  0  0
  193.7710  174.9180  136.6020 C   0  0  2  0  0  0  0  0  0  0  0  0
  190.8740  174.6370  135.5210 C   0  0  0  0  0  2  0  0  0  0  0  0
  195.3100  174.9190  138.2300 C   0  0  0  0  0  0  0  0  0  0  0  0
  194.0550  175.9120  145.3600 C   0  0  0  0  0  2  0  0  0  0  0  0
  191.6900  173.7660  145.0250 C   0  0  0  0  0  1  0  0  0  0  0  0
  189.4690  176.2680  144.3530 N   0  0  0  0  0  0  0  0  0  0  0  0
  192.8570  176.7370  145.3610 N   0  0  0  0  0  2  0  0  0  0  0  0
  189.9690  175.0450  143.8260 C   0  0  0  0  0  0  0  0  0  0  0  0
  191.6060  176.2480  144.8720 C   0  0  0  0  0  0  0  0  0  0  0  0
  190.5180  176.9380  144.9830 N   0  0  0  0  0  0  0  0  0  0  0  0
  189.3450  174.3270  142.8980 C   0  0  0  0  0  2  0  0  0  0  0  0
  191.4290  174.9550  144.1140 C   0  0  1  0  0  3  0  0  0  0  0  0
  186.4120  178.2920  143.6170 N   0  0  0  0  0  2  0  0  0  0  0  0
  186.1890  178.8010  144.9680 C   0  0  0  0  0  2  0  0  0  0  0  0
  187.8000  177.8540  143.5050 C   0  0  0  0  0  2  0  0  0  0  0  0
  188.0770  176.6910  144.4610 C   0  0  2  0  0  3  0  0  0  0  0  0
  186.3390  177.6670  145.9780 C   0  0  1  0  0  3  0  0  0  0  0  0
  187.7440  177.0830  145.9010 C   0  0  0  0  0  2  0  0  0  0  0  0
  186.0380  178.1440  147.3580 C   0  0  0  0  0  0  0  0  0  0  0  0
  185.9490  177.3130  148.2980 O   0  0  0  0  0  1  0  0  0  0  0  0
  185.8830  179.5020  147.6230 O   0  0  0  0  0  0  0  0  0  0  0  0
  1  6  2  0  0  0  0
  3  7  1  0  0  0  0
  4  2  1  6  0  0  0
  4  3  1  0  0  0  0
  4  7  1  0  0  0  0
  5  8  1  6  0  0  0
  5  1  1  0  0  0  0
  5  2  1  0  0  0  0
  6  4  1  0  0  0  0
  7 23  1  1  0  0  0
  8  9  1  0  0  0  0
 10  8  1  0  0  0  0
 11 20  1  0  0  0  0
 11 17  1  0  0  0  0
 11 19  1  0  0  0  0
 12 19  1  0  0  0  0
 13 21  1  0  0  0  0
 13 16  1  0  0  0  0
 14 22  1  0  0  0  0
 15 22  2  0  0  0  0
 16 20  1  0  0  0  0
 17 19  1  0  0  0  0
 18 20  1  0  0  0  0
 18 14  2  0  0  0  0
 20 15  1  0  0  0  0
 21 17  1  0  0  0  0
 22  8  1  0  0  0  0
 23 26  1  0  0  0  0
 25 35  1  0  0  0  0
 25 29  1  0  0  0  0
 27 31  1  0  0  0  0
 27 25  1  0  0  0  0
 28 29  2  0  0  0  0
 28 26  1  0  0  0  0
 30 27  2  0  0  0  0
 31 28  1  0  0  0  0
 31 24  1  0  0  0  0
 32 33  1  0  0  0  0
 33 36  1  0  0  0  0
 34 32  1  0  0  0  0
 34 35  1  0  0  0  0
 35 37  1  0  0  0  0
 36 38  1  0  0  0  0
 37 36  1  0  0  0  0
 38 40  2  0  0  0  0
 38 39  1  0  0  0  0
M  END
>  <MODEL>
8

>  <REMARK>
 VINA RESULT:      -7.1      1.594      2.149
  Name = 
  6 active torsions:
  status: ('A' for Active; 'I' for Inactive)
    1  A    between atoms: N_10  and  C_16
    2  A    between atoms: N_13  and  C_24
    3  A    between atoms: C_17  and  C_31
    4  A    between atoms: C_17  and  C_34
    5  A    between atoms: C_19  and  C_28
    6  A    between atoms: C_24  and  C_39
                            x       y       z     vdW  Elec       q    Type
                         _______ _______ _______ _____ _____    ______ ____

>  <TORSDO>
F 6

$$$$
=
 OpenBabel11042419283D

 40 46  0  0  1  0  0  0  0  0999 V2000
  193.1900  174.1300  140.9850 C   0  0  0  0  0  3  0  0  0  0  0  0
  195.1320  176.0150  141.1420 S   0  0  0  0  0  0  0  0  0  0  0  0
  195.1180  174.9290  143.6370 N   0  0  0  0  0  2  0  0  0  0  0  0
  194.2240  175.3890  142.5690 C   0  0  2  0  0  0  0  0  0  0  0  0
  194.0920  174.9310  140.0800 C   0  0  1  0  0  3  0  0  0  0  0  0
  193.2650  174.3830  142.2350 N   0  0  0  0  0  0  0  0  0  0  0  0
  194.2100  176.0750  143.8640 C   0  0  1  0  0  3  0  0  0  0  0  0
  194.9240  174.0550  139.1090 C   0  0  0  0  0  0  0  0  0  0  0  0
  196.0520  173.3840  139.8750 C   0  0  0  0  0  1  0  0  0  0  0  0
  195.5490  174.9160  138.0140 C   0  0  0  0  0  1  0  0  0  0  0  0
  190.9790  171.7960  137.9350 C   0  0  2  0  0  3  0  0  0  0  0  0
  188.8090  172.2930  139.0210 C   0  0  0  0  0  1  0  0  0  0  0  0
  190.7050  171.1260  135.2570 C   0  0  0  0  0  2  0  0  0  0  0  0
  194.2630  171.5390  138.7140 C   0  0  0  0  0  3  0  0  0  0  0  0
  193.0190  173.2000  137.7870 N   0  0  0  0  0  0  0  0  0  0  0  0
  192.4600  171.6820  135.5740 S   0  0  0  0  0  0  0  0  0  0  0  0
  190.2400  172.8040  137.0570 C   0  0  2  0  0  3  0  0  0  0  0  0
  193.2810  170.9170  138.0800 C   0  0  0  0  0  3  0  0  0  0  0  0
  190.1320  172.8730  138.5670 C   0  0  2  0  0  3  0  0  0  0  0  0
  192.4060  171.9300  137.4150 C   0  0  2  0  0  0  0  0  0  0  0  0
  189.5990  171.8290  136.0910 C   0  0  0  0  0  2  0  0  0  0  0  0
  194.0770  172.9640  138.4900 C   0  0  0  0  0  0  0  0  0  0  0  0
  193.0240  175.6580  144.7210 C   0  0  0  0  0  2  0  0  0  0  0  0
  190.3970  173.8190  144.5730 C   0  0  0  0  0  1  0  0  0  0  0  0
  188.5460  176.4860  143.5260 N   0  0  0  0  0  0  0  0  0  0  0  0
  191.9490  176.6280  144.5810 N   0  0  0  0  0  2  0  0  0  0  0  0
  188.8850  175.1520  143.1690 C   0  0  0  0  0  0  0  0  0  0  0  0
  190.6510  176.2500  144.1140 C   0  0  0  0  0  0  0  0  0  0  0  0
  189.6650  177.0870  144.1030 N   0  0  0  0  0  0  0  0  0  0  0  0
  188.1850  174.4120  142.3160 C   0  0  0  0  0  2  0  0  0  0  0  0
  190.3140  174.9070  143.5150 C   0  0  1  0  0  3  0  0  0  0  0  0
  185.9220  179.0390  142.7630 N   0  0  0  0  0  2  0  0  0  0  0  0
  185.5830  179.3850  144.1410 C   0  0  0  0  0  2  0  0  0  0  0  0
  187.2400  178.4130  142.7470 C   0  0  0  0  0  2  0  0  0  0  0  0
  187.2220  177.1000  143.5340 C   0  0  2  0  0  3  0  0  0  0  0  0
  185.4370  178.1130  144.9710 C   0  0  1  0  0  3  0  0  0  0  0  0
  186.7480  177.3360  144.9690 C   0  0  0  0  0  2  0  0  0  0  0  0
  185.0150  178.4350  146.3640 C   0  0  0  0  0  0  0  0  0  0  0  0
  184.0670  177.7970  146.8900 O   0  0  0  0  0  0  0  0  0  0  0  0
  185.6750  179.4160  147.0980 O   0  0  0  0  0  1  0  0  0  0  0  0
  1  6  2  0  0  0  0
  3  7  1  0  0  0  0
  4  2  1  6  0  0  0
  4  3  1  0  0  0  0
  4  7  1  0  0  0  0
  5  8  1  1  0  0  0
  5  1  1  0  0  0  0
  5  2  1  0  0  0  0
  6  4  1  0  0  0  0
  7 23  1  1  0  0  0
  8  9  1  0  0  0  0
 10  8  1  0  0  0  0
 11 19  1  0  0  0  0
 13 16  1  0  0  0  0
 13 21  1  0  0  0  0
 15 22  2  0  0  0  0
 16 20  1  0  0  0  0
 17 11  1  0  0  0  0
 17 19  1  0  0  0  0
 18 14  2  0  0  0  0
 19 12  1  0  0  0  0
 20 15  1  0  0  0  0
 20 11  1  0  0  0  0
 20 18  1  0  0  0  0
 21 17  1  0  0  0  0
 22 14  1  0  0  0  0
 22  8  1  0  0  0  0
 25 35  1  0  0  0  0
 25 29  1  0  0  0  0
 26 23  1  0  0  0  0
 27 31  1  0  0  0  0
 27 25  1  0  0  0  0
 28 26  1  0  0  0  0
 29 28  2  0  0  0  0
 30 27  2  0  0  0  0
 31 28  1  0  0  0  0
 31 24  1  0  0  0  0
 32 33  1  0  0  0  0
 33 36  1  0  0  0  0
 34 32  1  0  0  0  0
 34 35  1  0  0  0  0
 35 37  1  0  0  0  0
 36 38  1  0  0  0  0
 37 36  1  0  0  0  0
 38 39  2  0  0  0  0
 38 40  1  0  0  0  0
M  END
>  <MODEL>
9

>  <REMARK>
 VINA RESULT:      -6.9      1.974      2.821
  Name = 
  6 active torsions:
  status: ('A' for Active; 'I' for Inactive)
    1  A    between atoms: N_10  and  C_16
    2  A    between atoms: N_13  and  C_24
    3  A    between atoms: C_17  and  C_31
    4  A    between atoms: C_17  and  C_34
    5  A    between atoms: C_19  and  C_28
    6  A    between atoms: C_24  and  C_39
                            x       y       z     vdW  Elec       q    Type
                         _______ _______ _______ _____ _____    ______ ____

>  <TORSDO>
F 6

$$$$
