=
 OpenBabel11042416303D

 29 31  0  0  1  0  0  0  0  0999 V2000
  187.2660  176.7500  144.4850 C   0  0  0  0  0  0  0  0  0  0  0  0
  184.2420  178.0310  146.1470 N   0  0  0  0  0  1  0  0  0  0  0  0
  186.2530  177.0100  147.0750 C   0  0  0  0  0  3  0  0  0  0  0  0
  186.0420  177.3120  144.7200 N   0  0  0  0  0  0  0  0  0  0  0  0
  188.0340  176.3080  145.5920 C   0  0  0  0  0  0  0  0  0  0  0  0
  185.5240  177.4410  145.9680 C   0  0  0  0  0  0  0  0  0  0  0  0
  187.5130  176.4470  146.8810 C   0  0  0  0  0  3  0  0  0  0  0  0
  188.5780  175.5250  142.9140 O   0  0  0  0  0  1  0  0  0  0  0  0
  187.7900  176.6730  143.0580 C   0  0  2  0  0  0  0  0  0  0  0  0
  188.6220  177.8980  142.7960 C   0  0  0  0  0  3  0  0  0  0  0  0
  189.7710  177.8090  142.3890 O   0  0  0  0  0  0  0  0  0  0  0  0
  186.6250  176.6020  142.0560 C   0  0  0  0  0  2  0  0  0  0  0  0
  185.9000  177.7220  140.0740 C   0  0  0  0  0  2  0  0  0  0  0  0
  184.8940  178.0590  141.1210 N   0  0  0  0  0  0  0  0  0  0  0  0
  186.3630  177.9300  141.3570 C   0  0  1  0  0  3  0  0  0  0  0  0
  183.5620  178.2910  141.5650 C   0  0  0  0  0  0  0  0  0  0  0  0
  183.3350  178.5100  142.7830 O   0  0  0  0  0  0  0  0  0  0  0  0
  182.4420  178.2930  140.5860 C   0  0  0  0  0  2  0  0  0  0  0  0
  181.2600  177.9210  141.2280 O   0  0  0  0  0  1  0  0  0  0  0  0
  189.4150  175.7570  145.4410 C   0  0  0  0  0  2  0  0  0  0  0  0
  190.3940  176.7860  145.7650 N   0  0  0  0  0  2  0  0  0  0  0  0
  193.9990  176.4220  146.6560 C   0  0  0  0  0  3  0  0  0  0  0  0
  192.3900  176.4030  144.3710 C   0  0  0  0  0  3  0  0  0  0  0  0
  194.5760  176.2360  145.3960 C   0  0  0  0  0  3  0  0  0  0  0  0
  192.0590  176.7930  148.0350 O   0  0  0  0  0  1  0  0  0  0  0  0
  193.7710  176.2260  144.2540 C   0  0  0  0  0  0  0  0  0  0  0  0
  194.3860  176.0410  142.9140 C   0  0  0  0  0  1  0  0  0  0  0  0
  192.6160  176.5990  146.7770 C   0  0  0  0  0  0  0  0  0  0  0  0
  191.8040  176.5920  145.6320 C   0  0  0  0  0  0  0  0  0  0  0  0
  1  4  2  0  0  0  0
  1  5  1  0  0  0  0
  4  6  1  0  0  0  0
  5  7  2  0  0  0  0
  6  2  1  0  0  0  0
  6  3  2  0  0  0  0
  7  3  1  0  0  0  0
  9  8  1  6  0  0  0
  9  1  1  0  0  0  0
 10  9  1  0  0  0  0
 11 10  2  0  0  0  0
 12  9  1  0  0  0  0
 13 14  1  0  0  0  0
 13 15  1  0  0  0  0
 14 15  1  0  0  0  0
 14 16  1  0  0  0  0
 15 12  1  1  0  0  0
 16 17  2  0  0  0  0
 18 19  1  0  0  0  0
 18 16  1  0  0  0  0
 20  5  1  0  0  0  0
 20 21  1  0  0  0  0
 22 28  1  0  0  0  0
 23 29  1  0  0  0  0
 24 22  2  0  0  0  0
 26 23  2  0  0  0  0
 26 24  1  0  0  0  0
 27 26  1  0  0  0  0
 28 25  1  0  0  0  0
 29 21  1  0  0  0  0
 29 28  2  0  0  0  0
M  END
>  <MODEL>
1

>  <REMARK>
 VINA RESULT:      -7.1      0.000      0.000
  Name = 
  8 active torsions:
  status: ('A' for Active; 'I' for Inactive)
    1  A    between atoms: C_2  and  C_25
    2  A    between atoms: C_8  and  C_25
    3  A    between atoms: C_11  and  C_17
    4  A    between atoms: C_12  and  C_27
    5  A    between atoms: C_14  and  C_22
    6  A    between atoms: C_21  and  N_24
    7  A    between atoms: C_22  and  C_25
    8  A    between atoms: N_24  and  C_27
                            x       y       z     vdW  Elec       q    Type
                         _______ _______ _______ _____ _____    ______ ____

>  <TORSDO>
F 8

$$$$
=
 OpenBabel11042416303D

 29 31  0  0  1  0  0  0  0  0999 V2000
  190.8530  175.0910  145.3720 C   0  0  0  0  0  0  0  0  0  0  0  0
  194.2720  175.8520  146.5060 N   0  0  0  0  0  1  0  0  0  0  0  0
  192.1130  176.5910  147.3640 C   0  0  0  0  0  3  0  0  0  0  0  0
  192.2150  175.1250  145.4870 N   0  0  0  0  0  0  0  0  0  0  0  0
  190.0760  175.8260  146.3020 C   0  0  0  0  0  0  0  0  0  0  0  0
  192.8510  175.8530  146.4400 C   0  0  0  0  0  0  0  0  0  0  0  0
  190.7210  176.5700  147.2930 C   0  0  0  0  0  3  0  0  0  0  0  0
  189.6770  173.0740  144.8860 O   0  0  0  0  0  1  0  0  0  0  0  0
  190.2180  174.2230  144.2960 C   0  0  2  0  0  0  0  0  0  0  0  0
  191.2880  173.8340  143.3130 C   0  0  0  0  0  3  0  0  0  0  0  0
  191.5890  172.6640  143.1330 O   0  0  0  0  0  0  0  0  0  0  0  0
  189.0930  174.9870  143.5770 C   0  0  0  0  0  2  0  0  0  0  0  0
  188.1740  174.5130  141.4230 C   0  0  0  0  0  2  0  0  0  0  0  0
  188.2920  175.9970  141.4960 N   0  0  0  0  0  0  0  0  0  0  0  0
  189.2790  175.0320  142.0660 C   0  0  1  0  0  3  0  0  0  0  0  0
  187.8190  177.3150  141.2470 C   0  0  0  0  0  0  0  0  0  0  0  0
  188.4580  178.3050  141.6880 O   0  0  0  0  0  0  0  0  0  0  0  0
  186.5790  177.5220  140.4520 C   0  0  0  0  0  2  0  0  0  0  0  0
  186.7110  176.9020  139.2090 O   0  0  0  0  0  1  0  0  0  0  0  0
  188.5810  175.7850  146.3070 C   0  0  0  0  0  2  0  0  0  0  0  0
  188.0570  176.9970  146.9200 N   0  0  0  0  0  2  0  0  0  0  0  0
  184.5850  178.3630  146.8670 C   0  0  0  0  0  3  0  0  0  0  0  0
  186.8080  178.2140  145.1790 C   0  0  0  0  0  3  0  0  0  0  0  0
  184.5280  178.9180  145.5850 C   0  0  0  0  0  3  0  0  0  0  0  0
  185.7920  177.1770  148.5820 O   0  0  0  0  0  1  0  0  0  0  0  0
  185.6390  178.8440  144.7420 C   0  0  0  0  0  0  0  0  0  0  0  0
  185.5740  179.4210  143.3740 C   0  0  0  0  0  1  0  0  0  0  0  0
  185.7530  177.7330  147.3090 C   0  0  0  0  0  0  0  0  0  0  0  0
  186.8720  177.6530  146.4640 C   0  0  0  0  0  0  0  0  0  0  0  0
  1  4  2  0  0  0  0
  1  5  1  0  0  0  0
  4  6  1  0  0  0  0
  5 20  1  0  0  0  0
  5  7  2  0  0  0  0
  6  2  1  0  0  0  0
  6  3  2  0  0  0  0
  7  3  1  0  0  0  0
  9  8  1  1  0  0  0
  9  1  1  0  0  0  0
 10  9  1  0  0  0  0
 11 10  2  0  0  0  0
 12  9  1  0  0  0  0
 13 14  1  0  0  0  0
 13 15  1  0  0  0  0
 14 15  1  0  0  0  0
 15 12  1  1  0  0  0
 16 14  1  0  0  0  0
 16 17  2  0  0  0  0
 18 16  1  0  0  0  0
 19 18  1  0  0  0  0
 20 21  1  0  0  0  0
 22 28  1  0  0  0  0
 23 29  1  0  0  0  0
 24 22  2  0  0  0  0
 26 23  2  0  0  0  0
 26 24  1  0  0  0  0
 27 26  1  0  0  0  0
 28 25  1  0  0  0  0
 29 21  1  0  0  0  0
 29 28  2  0  0  0  0
M  END
>  <MODEL>
2

>  <REMARK>
 VINA RESULT:      -7.0      2.825      5.967
  Name = 
  8 active torsions:
  status: ('A' for Active; 'I' for Inactive)
    1  A    between atoms: C_2  and  C_25
    2  A    between atoms: C_8  and  C_25
    3  A    between atoms: C_11  and  C_17
    4  A    between atoms: C_12  and  C_27
    5  A    between atoms: C_14  and  C_22
    6  A    between atoms: C_21  and  N_24
    7  A    between atoms: C_22  and  C_25
    8  A    between atoms: N_24  and  C_27
                            x       y       z     vdW  Elec       q    Type
                         _______ _______ _______ _____ _____    ______ ____

>  <TORSDO>
F 8

$$$$
=
 OpenBabel11042416303D

 29 31  0  0  1  0  0  0  0  0999 V2000
  190.9920  175.3580  145.0100 C   0  0  0  0  0  0  0  0  0  0  0  0
  194.3900  175.9560  146.2950 N   0  0  0  0  0  1  0  0  0  0  0  0
  192.2110  176.4030  147.2960 C   0  0  0  0  0  3  0  0  0  0  0  0
  192.3530  175.4120  145.1330 N   0  0  0  0  0  0  0  0  0  0  0  0
  190.1960  175.8330  146.0830 C   0  0  0  0  0  0  0  0  0  0  0  0
  192.9690  175.9230  146.2290 C   0  0  0  0  0  0  0  0  0  0  0  0
  190.8200  176.3520  147.2190 C   0  0  0  0  0  3  0  0  0  0  0  0
  189.4820  173.7310  144.1380 O   0  0  0  0  0  1  0  0  0  0  0  0
  190.3800  174.7370  143.7630 C   0  0  2  0  0  0  0  0  0  0  0  0
  191.4910  174.1470  142.9380 C   0  0  0  0  0  3  0  0  0  0  0  0
  191.7850  174.6080  141.8460 O   0  0  0  0  0  0  0  0  0  0  0  0
  189.6230  175.7970  142.9460 C   0  0  0  0  0  2  0  0  0  0  0  0
  187.7320  176.1570  141.5300 C   0  0  0  0  0  2  0  0  0  0  0  0
  188.3110  174.8500  141.1090 N   0  0  0  0  0  0  0  0  0  0  0  0
  188.2350  175.3370  142.5180 C   0  0  1  0  0  3  0  0  0  0  0  0
  188.6820  173.8910  140.1250 C   0  0  0  0  0  0  0  0  0  0  0  0
  189.2860  172.8420  140.4680 O   0  0  0  0  0  0  0  0  0  0  0  0
  188.3400  174.1210  138.6960 C   0  0  0  0  0  2  0  0  0  0  0  0
  188.6600  172.9860  137.9500 O   0  0  0  0  0  1  0  0  0  0  0  0
  188.7030  175.7390  146.0750 C   0  0  0  0  0  2  0  0  0  0  0  0
  188.1330  176.9170  146.7140 N   0  0  0  0  0  2  0  0  0  0  0  0
  184.9120  178.7760  146.4120 C   0  0  0  0  0  3  0  0  0  0  0  0
  187.0590  178.0220  144.7900 C   0  0  0  0  0  3  0  0  0  0  0  0
  184.9210  179.1240  145.0580 C   0  0  0  0  0  3  0  0  0  0  0  0
  185.9480  177.7040  148.3040 O   0  0  0  0  0  1  0  0  0  0  0  0
  185.9950  178.7470  144.2470 C   0  0  0  0  0  0  0  0  0  0  0  0
  185.9990  179.1040  142.8050 C   0  0  0  0  0  1  0  0  0  0  0  0
  185.9760  178.0520  146.9590 C   0  0  0  0  0  0  0  0  0  0  0  0
  187.0560  177.6680  146.1480 C   0  0  0  0  0  0  0  0  0  0  0  0
  1  4  2  0  0  0  0
  1  5  1  0  0  0  0
  4  6  1  0  0  0  0
  5  7  2  0  0  0  0
  6  2  1  0  0  0  0
  6  3  2  0  0  0  0
  7  3  1  0  0  0  0
  9  8  1  1  0  0  0
  9  1  1  0  0  0  0
 10  9  1  0  0  0  0
 11 10  2  0  0  0  0
 12  9  1  0  0  0  0
 13 15  1  0  0  0  0
 14 13  1  0  0  0  0
 14 15  1  0  0  0  0
 15 12  1  6  0  0  0
 16 17  2  0  0  0  0
 16 14  1  0  0  0  0
 18 16  1  0  0  0  0
 19 18  1  0  0  0  0
 20  5  1  0  0  0  0
 20 21  1  0  0  0  0
 22 28  1  0  0  0  0
 23 29  1  0  0  0  0
 24 22  2  0  0  0  0
 26 23  2  0  0  0  0
 26 24  1  0  0  0  0
 27 26  1  0  0  0  0
 28 25  1  0  0  0  0
 29 21  1  0  0  0  0
 29 28  2  0  0  0  0
M  END
>  <MODEL>
3

>  <REMARK>
 VINA RESULT:      -7.0      3.206      6.246
  Name = 
  8 active torsions:
  status: ('A' for Active; 'I' for Inactive)
    1  A    between atoms: C_2  and  C_25
    2  A    between atoms: C_8  and  C_25
    3  A    between atoms: C_11  and  C_17
    4  A    between atoms: C_12  and  C_27
    5  A    between atoms: C_14  and  C_22
    6  A    between atoms: C_21  and  N_24
    7  A    between atoms: C_22  and  C_25
    8  A    between atoms: N_24  and  C_27
                            x       y       z     vdW  Elec       q    Type
                         _______ _______ _______ _____ _____    ______ ____

>  <TORSDO>
F 8

$$$$
=
 OpenBabel11042416303D

 29 31  0  0  1  0  0  0  0  0999 V2000
  190.3210  175.4230  143.2470 C   0  0  0  0  0  0  0  0  0  0  0  0
  189.4250  171.8830  142.7730 N   0  0  0  0  0  1  0  0  0  0  0  0
  188.2890  173.9190  142.0570 C   0  0  0  0  0  3  0  0  0  0  0  0
  190.3350  174.0560  143.2720 N   0  0  0  0  0  0  0  0  0  0  0  0
  189.2520  176.0770  142.5840 C   0  0  0  0  0  0  0  0  0  0  0  0
  189.3560  173.3030  142.7100 C   0  0  0  0  0  0  0  0  0  0  0  0
  188.2440  175.3110  141.9940 C   0  0  0  0  0  3  0  0  0  0  0  0
  192.0940  176.9780  142.8920 O   0  0  0  0  0  1  0  0  0  0  0  0
  191.4750  176.1920  143.8720 C   0  0  2  0  0  0  0  0  0  0  0  0
  192.4600  175.1970  144.4220 C   0  0  0  0  0  3  0  0  0  0  0  0
  193.6070  175.5210  144.6910 O   0  0  0  0  0  0  0  0  0  0  0  0
  190.9690  177.1110  144.9960 C   0  0  0  0  0  2  0  0  0  0  0  0
  190.3300  177.1640  147.2980 C   0  0  0  0  0  2  0  0  0  0  0  0
  189.0820  176.8710  146.5380 N   0  0  0  0  0  0  0  0  0  0  0  0
  190.4350  176.3400  146.1970 C   0  0  1  0  0  3  0  0  0  0  0  0
  187.6870  177.0120  146.2980 C   0  0  0  0  0  0  0  0  0  0  0  0
  187.1640  176.4630  145.2950 O   0  0  0  0  0  0  0  0  0  0  0  0
  186.8450  177.7940  147.2430 C   0  0  0  0  0  2  0  0  0  0  0  0
  186.0060  176.9300  147.9460 O   0  0  0  0  0  1  0  0  0  0  0  0
  189.1930  177.5630  142.4330 C   0  0  0  0  0  2  0  0  0  0  0  0
  188.1860  177.9180  141.4430 N   0  0  0  0  0  2  0  0  0  0  0  0
  184.4720  178.0820  141.1310 C   0  0  0  0  0  3  0  0  0  0  0  0
  186.4460  178.6590  143.0230 C   0  0  0  0  0  3  0  0  0  0  0  0
  184.1130  178.5970  142.3810 C   0  0  0  0  0  3  0  0  0  0  0  0
  186.1580  177.3500  139.5750 O   0  0  0  0  0  1  0  0  0  0  0  0
  185.1010  178.8850  143.3260 C   0  0  0  0  0  0  0  0  0  0  0  0
  184.7220  179.4460  144.6490 C   0  0  0  0  0  1  0  0  0  0  0  0
  185.8170  177.8530  140.8240 C   0  0  0  0  0  0  0  0  0  0  0  0
  186.8130  178.1430  141.7700 C   0  0  0  0  0  0  0  0  0  0  0  0
  1  4  1  0  0  0  0
  1  9  1  0  0  0  0
  3  6  1  0  0  0  0
  5  1  2  0  0  0  0
  6  2  1  0  0  0  0
  6  4  2  0  0  0  0
  7  3  2  0  0  0  0
  7  5  1  0  0  0  0
  9  8  1  6  0  0  0
  9 10  1  0  0  0  0
  9 12  1  0  0  0  0
 10 11  2  0  0  0  0
 14 13  1  0  0  0  0
 15 12  1  6  0  0  0
 15 14  1  0  0  0  0
 15 13  1  0  0  0  0
 16 14  1  0  0  0  0
 16 18  1  0  0  0  0
 17 16  2  0  0  0  0
 18 19  1  0  0  0  0
 20  5  1  0  0  0  0
 21 29  1  0  0  0  0
 21 20  1  0  0  0  0
 22 24  1  0  0  0  0
 23 26  1  0  0  0  0
 24 26  2  0  0  0  0
 25 28  1  0  0  0  0
 26 27  1  0  0  0  0
 28 22  2  0  0  0  0
 28 29  1  0  0  0  0
 29 23  2  0  0  0  0
M  END
>  <MODEL>
4

>  <REMARK>
 VINA RESULT:      -6.9      2.695      7.087
  Name = 
  8 active torsions:
  status: ('A' for Active; 'I' for Inactive)
    1  A    between atoms: C_2  and  C_25
    2  A    between atoms: C_8  and  C_25
    3  A    between atoms: C_11  and  C_17
    4  A    between atoms: C_12  and  C_27
    5  A    between atoms: C_14  and  C_22
    6  A    between atoms: C_21  and  N_24
    7  A    between atoms: C_22  and  C_25
    8  A    between atoms: N_24  and  C_27
                            x       y       z     vdW  Elec       q    Type
                         _______ _______ _______ _____ _____    ______ ____

>  <TORSDO>
F 8

$$$$
=
 OpenBabel11042416303D

 29 31  0  0  1  0  0  0  0  0999 V2000
  186.9220  177.5990  144.1000 C   0  0  0  0  0  0  0  0  0  0  0  0
  184.1500  177.8280  146.5120 N   0  0  0  0  0  1  0  0  0  0  0  0
  186.5570  177.6650  146.8690 C   0  0  0  0  0  3  0  0  0  0  0  0
  185.6760  177.7010  144.6550 N   0  0  0  0  0  0  0  0  0  0  0  0
  188.0450  177.5420  144.9630 C   0  0  0  0  0  0  0  0  0  0  0  0
  185.4720  177.7250  145.9960 C   0  0  0  0  0  0  0  0  0  0  0  0
  187.8460  177.5770  146.3450 C   0  0  0  0  0  3  0  0  0  0  0  0
  188.2450  178.2840  142.2380 O   0  0  0  0  0  1  0  0  0  0  0  0
  187.0670  177.6120  142.5860 C   0  0  2  0  0  0  0  0  0  0  0  0
  185.8810  178.3330  142.0060 C   0  0  0  0  0  3  0  0  0  0  0  0
  185.5140  178.1310  140.8580 O   0  0  0  0  0  0  0  0  0  0  0  0
  187.1340  176.1780  142.0350 C   0  0  0  0  0  2  0  0  0  0  0  0
  188.8140  174.4800  142.1010 C   0  0  0  0  0  2  0  0  0  0  0  0
  188.4540  174.6380  140.6640 N   0  0  0  0  0  0  0  0  0  0  0  0
  188.5460  175.7560  141.6490 C   0  0  1  0  0  3  0  0  0  0  0  0
  188.1910  174.1230  139.3640 C   0  0  0  0  0  0  0  0  0  0  0  0
  187.8160  174.8970  138.4460 O   0  0  0  0  0  0  0  0  0  0  0  0
  188.3760  172.6730  139.0870 C   0  0  0  0  0  2  0  0  0  0  0  0
  189.6410  172.2730  139.5200 O   0  0  0  0  0  1  0  0  0  0  0  0
  189.4490  177.5130  144.4500 C   0  0  0  0  0  2  0  0  0  0  0  0
  190.1330  176.3300  144.9530 N   0  0  0  0  0  2  0  0  0  0  0  0
  193.3230  176.4050  146.8880 C   0  0  0  0  0  3  0  0  0  0  0  0
  192.4850  176.1740  144.2320 C   0  0  0  0  0  3  0  0  0  0  0  0
  194.2680  176.2770  145.8660 C   0  0  0  0  0  3  0  0  0  0  0  0
  191.0300  176.5550  147.6120 O   0  0  0  0  0  1  0  0  0  0  0  0
  193.8480  176.1610  144.5380 C   0  0  0  0  0  0  0  0  0  0  0  0
  194.8530  176.0390  143.4490 C   0  0  0  0  0  1  0  0  0  0  0  0
  191.9570  176.4170  146.5860 C   0  0  0  0  0  0  0  0  0  0  0  0
  191.5310  176.3040  145.2530 C   0  0  0  0  0  0  0  0  0  0  0  0
  1  4  2  0  0  0  0
  1  5  1  0  0  0  0
  4  6  1  0  0  0  0
  5  7  2  0  0  0  0
  6  2  1  0  0  0  0
  6  3  2  0  0  0  0
  7  3  1  0  0  0  0
  9  8  1  6  0  0  0
  9  1  1  0  0  0  0
 10  9  1  0  0  0  0
 11 10  2  0  0  0  0
 12  9  1  0  0  0  0
 14 15  1  0  0  0  0
 14 13  1  0  0  0  0
 15 12  1  1  0  0  0
 15 13  1  0  0  0  0
 16 14  1  0  0  0  0
 17 16  2  0  0  0  0
 18 16  1  0  0  0  0
 18 19  1  0  0  0  0
 20 21  1  0  0  0  0
 20  5  1  0  0  0  0
 21 29  1  0  0  0  0
 23 26  2  0  0  0  0
 23 29  1  0  0  0  0
 24 22  2  0  0  0  0
 26 24  1  0  0  0  0
 27 26  1  0  0  0  0
 28 22  1  0  0  0  0
 28 25  1  0  0  0  0
 29 28  2  0  0  0  0
M  END
>  <MODEL>
5

>  <REMARK>
 VINA RESULT:      -6.7      2.270      3.622
  Name = 
  8 active torsions:
  status: ('A' for Active; 'I' for Inactive)
    1  A    between atoms: C_2  and  C_25
    2  A    between atoms: C_8  and  C_25
    3  A    between atoms: C_11  and  C_17
    4  A    between atoms: C_12  and  C_27
    5  A    between atoms: C_14  and  C_22
    6  A    between atoms: C_21  and  N_24
    7  A    between atoms: C_22  and  C_25
    8  A    between atoms: N_24  and  C_27
                            x       y       z     vdW  Elec       q    Type
                         _______ _______ _______ _____ _____    ______ ____

>  <TORSDO>
F 8

$$$$
=
 OpenBabel11042416303D

 29 31  0  0  1  0  0  0  0  0999 V2000
  187.5130  176.7440  144.5160 C   0  0  0  0  0  0  0  0  0  0  0  0
  184.4330  177.5120  146.3800 N   0  0  0  0  0  1  0  0  0  0  0  0
  186.6640  176.9260  147.1710 C   0  0  0  0  0  3  0  0  0  0  0  0
  186.2260  177.0780  144.8330 N   0  0  0  0  0  0  0  0  0  0  0  0
  188.4300  176.5030  145.5700 C   0  0  0  0  0  0  0  0  0  0  0  0
  185.7870  177.1640  146.1140 C   0  0  0  0  0  0  0  0  0  0  0  0
  187.9900  176.5990  146.8920 C   0  0  0  0  0  3  0  0  0  0  0  0
  188.7340  175.5760  142.8330 O   0  0  0  0  0  1  0  0  0  0  0  0
  187.9340  176.7030  143.0540 C   0  0  2  0  0  0  0  0  0  0  0  0
  188.7200  177.9510  142.7560 C   0  0  0  0  0  3  0  0  0  0  0  0
  189.8840  177.8950  142.3890 O   0  0  0  0  0  0  0  0  0  0  0  0
  186.7030  176.6240  142.1370 C   0  0  0  0  0  2  0  0  0  0  0  0
  185.8520  177.7280  140.1970 C   0  0  0  0  0  2  0  0  0  0  0  0
  184.9090  178.0660  141.3010 N   0  0  0  0  0  0  0  0  0  0  0  0
  186.3900  177.9460  141.4480 C   0  0  1  0  0  3  0  0  0  0  0  0
  183.6060  178.2930  141.8230 C   0  0  0  0  0  0  0  0  0  0  0  0
  183.4520  178.5180  143.0520 O   0  0  0  0  0  0  0  0  0  0  0  0
  182.4280  178.2830  140.9150 C   0  0  0  0  0  2  0  0  0  0  0  0
  181.2840  178.6400  141.6290 O   0  0  0  0  0  1  0  0  0  0  0  0
  189.8760  176.2130  145.3240 C   0  0  0  0  0  2  0  0  0  0  0  0
  190.1400  174.7990  145.5520 N   0  0  0  0  0  2  0  0  0  0  0  0
  192.8030  172.3520  144.6340 C   0  0  0  0  0  3  0  0  0  0  0  0
  192.5900  174.8760  145.8150 C   0  0  0  0  0  3  0  0  0  0  0  0
  193.9520  173.0210  145.0660 C   0  0  0  0  0  3  0  0  0  0  0  0
  190.4110  172.2610  144.3650 O   0  0  0  0  0  1  0  0  0  0  0  0
  193.8460  174.2830  145.6560 C   0  0  0  0  0  0  0  0  0  0  0  0
  195.0650  174.9890  146.1280 C   0  0  0  0  0  1  0  0  0  0  0  0
  191.5450  172.9430  144.7900 C   0  0  0  0  0  0  0  0  0  0  0  0
  191.4320  174.2090  145.3850 C   0  0  0  0  0  0  0  0  0  0  0  0
  1  4  2  0  0  0  0
  1  5  1  0  0  0  0
  4  6  1  0  0  0  0
  5  7  2  0  0  0  0
  6  2  1  0  0  0  0
  6  3  2  0  0  0  0
  7  3  1  0  0  0  0
  9  8  1  6  0  0  0
  9  1  1  0  0  0  0
 10  9  1  0  0  0  0
 11 10  2  0  0  0  0
 12  9  1  0  0  0  0
 13 14  1  0  0  0  0
 13 15  1  0  0  0  0
 14 15  1  0  0  0  0
 14 16  1  0  0  0  0
 15 12  1  1  0  0  0
 16 17  2  0  0  0  0
 18 19  1  0  0  0  0
 18 16  1  0  0  0  0
 20 21  1  0  0  0  0
 20  5  1  0  0  0  0
 22 28  2  0  0  0  0
 22 24  1  0  0  0  0
 24 26  2  0  0  0  0
 25 28  1  0  0  0  0
 26 23  1  0  0  0  0
 26 27  1  0  0  0  0
 28 29  1  0  0  0  0
 29 21  1  0  0  0  0
 29 23  2  0  0  0  0
M  END
>  <MODEL>
6

>  <REMARK>
 VINA RESULT:      -6.6      1.651      2.059
  Name = 
  8 active torsions:
  status: ('A' for Active; 'I' for Inactive)
    1  A    between atoms: C_2  and  C_25
    2  A    between atoms: C_8  and  C_25
    3  A    between atoms: C_11  and  C_17
    4  A    between atoms: C_12  and  C_27
    5  A    between atoms: C_14  and  C_22
    6  A    between atoms: C_21  and  N_24
    7  A    between atoms: C_22  and  C_25
    8  A    between atoms: N_24  and  C_27
                            x       y       z     vdW  Elec       q    Type
                         _______ _______ _______ _____ _____    ______ ____

>  <TORSDO>
F 8

$$$$
=
 OpenBabel11042416303D

 29 31  0  0  1  0  0  0  0  0999 V2000
  189.6560  175.0210  143.4210 C   0  0  0  0  0  0  0  0  0  0  0  0
  190.0800  171.4330  142.7170 N   0  0  0  0  0  1  0  0  0  0  0  0
  188.3390  172.9930  142.0230 C   0  0  0  0  0  3  0  0  0  0  0  0
  190.1470  173.7460  143.3810 N   0  0  0  0  0  0  0  0  0  0  0  0
  188.4590  175.3090  142.7190 C   0  0  0  0  0  0  0  0  0  0  0  0
  189.5210  172.7410  142.7170 C   0  0  0  0  0  0  0  0  0  0  0  0
  187.8130  174.2840  142.0240 C   0  0  0  0  0  3  0  0  0  0  0  0
  189.5670  176.8160  144.9890 O   0  0  0  0  0  1  0  0  0  0  0  0
  190.4370  176.0970  144.1600 C   0  0  2  0  0  0  0  0  0  0  0  0
  191.0470  177.0200  143.1410 C   0  0  0  0  0  3  0  0  0  0  0  0
  190.9340  178.2330  143.2350 O   0  0  0  0  0  0  0  0  0  0  0  0
  191.5400  175.4680  145.0280 C   0  0  0  0  0  2  0  0  0  0  0  0
  193.3510  175.9510  146.5100 C   0  0  0  0  0  2  0  0  0  0  0  0
  193.9310  175.9830  145.1380 N   0  0  0  0  0  0  0  0  0  0  0  0
  192.5720  176.4830  145.5030 C   0  0  1  0  0  3  0  0  0  0  0  0
  194.9640  175.7150  144.1970 C   0  0  0  0  0  0  0  0  0  0  0  0
  194.7850  175.9730  142.9780 O   0  0  0  0  0  0  0  0  0  0  0  0
  196.2600  175.1470  144.6560 C   0  0  0  0  0  2  0  0  0  0  0  0
  196.1880  173.7540  144.6510 O   0  0  0  0  0  1  0  0  0  0  0  0
  187.8900  176.6890  142.6360 C   0  0  0  0  0  2  0  0  0  0  0  0
  186.4470  176.6380  142.8150 N   0  0  0  0  0  2  0  0  0  0  0  0
  184.0700  178.7010  144.8200 C   0  0  0  0  0  3  0  0  0  0  0  0
  186.1660  176.9040  145.2500 C   0  0  0  0  0  3  0  0  0  0  0  0
  184.4630  178.3850  146.1230 C   0  0  0  0  0  3  0  0  0  0  0  0
  184.3260  178.4520  142.4380 O   0  0  0  0  0  1  0  0  0  0  0  0
  185.5110  177.4860  146.3380 C   0  0  0  0  0  0  0  0  0  0  0  0
  185.9390  177.1600  147.7230 C   0  0  0  0  0  1  0  0  0  0  0  0
  184.7220  178.1200  143.7280 C   0  0  0  0  0  0  0  0  0  0  0  0
  185.7770  177.2180  143.9380 C   0  0  0  0  0  0  0  0  0  0  0  0
  1  9  1  0  0  0  0
  2  6  1  0  0  0  0
  3  7  2  0  0  0  0
  3  6  1  0  0  0  0
  4  1  1  0  0  0  0
  5  1  2  0  0  0  0
  6  4  2  0  0  0  0
  7  5  1  0  0  0  0
  9  8  1  1  0  0  0
  9 12  1  0  0  0  0
 10 11  2  0  0  0  0
 10  9  1  0  0  0  0
 14 15  1  0  0  0  0
 14 13  1  0  0  0  0
 15 12  1  6  0  0  0
 15 13  1  0  0  0  0
 16 18  1  0  0  0  0
 16 14  1  0  0  0  0
 17 16  2  0  0  0  0
 19 18  1  0  0  0  0
 20  5  1  0  0  0  0
 20 21  1  0  0  0  0
 21 29  1  0  0  0  0
 22 24  1  0  0  0  0
 23 26  1  0  0  0  0
 24 26  2  0  0  0  0
 25 28  1  0  0  0  0
 26 27  1  0  0  0  0
 28 29  1  0  0  0  0
 28 22  2  0  0  0  0
 29 23  2  0  0  0  0
M  END
>  <MODEL>
7

>  <REMARK>
 VINA RESULT:      -6.5      2.796      8.303
  Name = 
  8 active torsions:
  status: ('A' for Active; 'I' for Inactive)
    1  A    between atoms: C_2  and  C_25
    2  A    between atoms: C_8  and  C_25
    3  A    between atoms: C_11  and  C_17
    4  A    between atoms: C_12  and  C_27
    5  A    between atoms: C_14  and  C_22
    6  A    between atoms: C_21  and  N_24
    7  A    between atoms: C_22  and  C_25
    8  A    between atoms: N_24  and  C_27
                            x       y       z     vdW  Elec       q    Type
                         _______ _______ _______ _____ _____    ______ ____

>  <TORSDO>
F 8

$$$$
=
 OpenBabel11042416303D

 29 31  0  0  1  0  0  0  0  0999 V2000
  190.9570  176.3620  144.8840 C   0  0  0  0  0  0  0  0  0  0  0  0
  194.2580  176.3340  146.5120 N   0  0  0  0  0  1  0  0  0  0  0  0
  192.0160  176.2940  147.4690 C   0  0  0  0  0  3  0  0  0  0  0  0
  192.3060  176.3570  145.1040 N   0  0  0  0  0  0  0  0  0  0  0  0
  190.0880  176.3160  146.0040 C   0  0  0  0  0  0  0  0  0  0  0  0
  192.8450  176.3340  146.3490 C   0  0  0  0  0  0  0  0  0  0  0  0
  190.6330  176.2810  147.2890 C   0  0  0  0  0  3  0  0  0  0  0  0
  191.5120  176.2790  142.5670 O   0  0  0  0  0  1  0  0  0  0  0  0
  190.4330  176.3540  143.4560 C   0  0  2  0  0  0  0  0  0  0  0  0
  189.6730  177.6320  143.2270 C   0  0  0  0  0  3  0  0  0  0  0  0
  189.0000  177.7990  142.2210 O   0  0  0  0  0  0  0  0  0  0  0  0
  189.5140  175.1440  143.2210 C   0  0  0  0  0  2  0  0  0  0  0  0
  189.3670  172.7600  143.1700 C   0  0  0  0  0  2  0  0  0  0  0  0
  190.2400  173.1370  142.0220 N   0  0  0  0  0  0  0  0  0  0  0  0
  190.2400  173.8120  143.3540 C   0  0  1  0  0  3  0  0  0  0  0  0
  190.6970  172.9920  140.6830 C   0  0  0  0  0  0  0  0  0  0  0  0
  191.5540  173.7910  140.2230 O   0  0  0  0  0  0  0  0  0  0  0  0
  190.1760  171.8880  139.8340 C   0  0  0  0  0  2  0  0  0  0  0  0
  190.4420  170.6620  140.4470 O   0  0  0  0  0  1  0  0  0  0  0  0
  188.6020  176.2350  145.8620 C   0  0  0  0  0  2  0  0  0  0  0  0
  187.9920  177.4590  146.3620 N   0  0  0  0  0  2  0  0  0  0  0  0
  184.4150  178.4720  146.6800 C   0  0  0  0  0  3  0  0  0  0  0  0
  186.3130  178.0750  144.6660 C   0  0  0  0  0  3  0  0  0  0  0  0
  184.0650  178.6680  145.3400 C   0  0  0  0  0  3  0  0  0  0  0  0
  186.0440  177.8760  148.3510 O   0  0  0  0  0  1  0  0  0  0  0  0
  185.0140  178.4710  144.3340 C   0  0  0  0  0  0  0  0  0  0  0  0
  184.6390  178.6660  142.9090 C   0  0  0  0  0  1  0  0  0  0  0  0
  185.7140  178.0770  147.0160 C   0  0  0  0  0  0  0  0  0  0  0  0
  186.6700  177.8740  146.0090 C   0  0  0  0  0  0  0  0  0  0  0  0
  1  4  2  0  0  0  0
  1  5  1  0  0  0  0
  4  6  1  0  0  0  0
  5  7  2  0  0  0  0
  6  2  1  0  0  0  0
  6  3  2  0  0  0  0
  7  3  1  0  0  0  0
  9  8  1  6  0  0  0
  9  1  1  0  0  0  0
 10  9  1  0  0  0  0
 11 10  2  0  0  0  0
 12  9  1  0  0  0  0
 13 15  1  0  0  0  0
 14 13  1  0  0  0  0
 14 15  1  0  0  0  0
 15 12  1  6  0  0  0
 16 14  1  0  0  0  0
 17 16  2  0  0  0  0
 18 19  1  0  0  0  0
 18 16  1  0  0  0  0
 20  5  1  0  0  0  0
 20 21  1  0  0  0  0
 22 28  1  0  0  0  0
 23 29  1  0  0  0  0
 24 22  2  0  0  0  0
 26 23  2  0  0  0  0
 26 24  1  0  0  0  0
 27 26  1  0  0  0  0
 28 25  1  0  0  0  0
 29 21  1  0  0  0  0
 29 28  2  0  0  0  0
M  END
>  <MODEL>
8

>  <REMARK>
 VINA RESULT:      -6.5      3.098      6.951
  Name = 
  8 active torsions:
  status: ('A' for Active; 'I' for Inactive)
    1  A    between atoms: C_2  and  C_25
    2  A    between atoms: C_8  and  C_25
    3  A    between atoms: C_11  and  C_17
    4  A    between atoms: C_12  and  C_27
    5  A    between atoms: C_14  and  C_22
    6  A    between atoms: C_21  and  N_24
    7  A    between atoms: C_22  and  C_25
    8  A    between atoms: N_24  and  C_27
                            x       y       z     vdW  Elec       q    Type
                         _______ _______ _______ _____ _____    ______ ____

>  <TORSDO>
F 8

$$$$
=
 OpenBabel11042416303D

 29 31  0  0  1  0  0  0  0  0999 V2000
  191.8580  174.4530  145.0330 C   0  0  0  0  0  0  0  0  0  0  0  0
  195.4780  174.9870  144.6300 N   0  0  0  0  0  1  0  0  0  0  0  0
  193.9490  175.7260  146.3800 C   0  0  0  0  0  3  0  0  0  0  0  0
  193.1380  174.4280  144.5520 N   0  0  0  0  0  0  0  0  0  0  0  0
  191.6050  175.1320  146.2520 C   0  0  0  0  0  0  0  0  0  0  0  0
  194.1690  175.0460  145.1830 C   0  0  0  0  0  0  0  0  0  0  0  0
  192.6610  175.7620  146.9140 C   0  0  0  0  0  3  0  0  0  0  0  0
  189.7440  173.3590  145.1750 O   0  0  0  0  0  1  0  0  0  0  0  0
  190.7650  173.7060  144.2830 C   0  0  2  0  0  0  0  0  0  0  0  0
  191.3680  172.4620  143.6900 C   0  0  0  0  0  3  0  0  0  0  0  0
  191.4680  171.4330  144.3410 O   0  0  0  0  0  0  0  0  0  0  0  0
  190.1720  174.5870  143.1700 C   0  0  0  0  0  2  0  0  0  0  0  0
  188.1490  175.2090  142.0630 C   0  0  0  0  0  2  0  0  0  0  0  0
  188.6390  173.9910  141.3570 N   0  0  0  0  0  0  0  0  0  0  0  0
  188.7330  174.2220  142.8290 C   0  0  1  0  0  3  0  0  0  0  0  0
  188.8710  173.2180  140.1860 C   0  0  0  0  0  0  0  0  0  0  0  0
  189.4780  172.1190  140.2690 O   0  0  0  0  0  0  0  0  0  0  0  0
  188.3800  173.7000  138.8670 C   0  0  0  0  0  2  0  0  0  0  0  0
  189.4530  173.8090  137.9800 O   0  0  0  0  0  1  0  0  0  0  0  0
  190.2560  175.1440  146.8970 C   0  0  0  0  0  2  0  0  0  0  0  0
  189.7420  176.5050  146.9370 N   0  0  0  0  0  2  0  0  0  0  0  0
  187.6700  177.9790  144.2050 C   0  0  0  0  0  3  0  0  0  0  0  0
  187.3010  176.7480  146.6870 C   0  0  0  0  0  3  0  0  0  0  0  0
  186.3790  177.7950  144.7090 C   0  0  0  0  0  3  0  0  0  0  0  0
  190.0570  177.7480  144.4300 O   0  0  0  0  0  1  0  0  0  0  0  0
  186.1950  177.1790  145.9500 C   0  0  0  0  0  0  0  0  0  0  0  0
  184.8240  176.9950  146.4920 C   0  0  0  0  0  1  0  0  0  0  0  0
  188.7800  177.5480  144.9400 C   0  0  0  0  0  0  0  0  0  0  0  0
  188.6010  176.9310  146.1880 C   0  0  0  0  0  0  0  0  0  0  0  0
  1  5  1  0  0  0  0
  2  6  1  0  0  0  0
  3  7  1  0  0  0  0
  4  1  2  0  0  0  0
  4  6  1  0  0  0  0
  5 20  1  0  0  0  0
  5  7  2  0  0  0  0
  6  3  2  0  0  0  0
  9  1  1  0  0  0  0
  9  8  1  1  0  0  0
 10  9  1  0  0  0  0
 10 11  2  0  0  0  0
 12  9  1  0  0  0  0
 13 15  1  0  0  0  0
 14 13  1  0  0  0  0
 14 15  1  0  0  0  0
 15 12  1  6  0  0  0
 16 17  2  0  0  0  0
 16 14  1  0  0  0  0
 18 16  1  0  0  0  0
 19 18  1  0  0  0  0
 20 21  1  0  0  0  0
 22 24  2  0  0  0  0
 22 28  1  0  0  0  0
 24 26  1  0  0  0  0
 25 28  1  0  0  0  0
 26 27  1  0  0  0  0
 26 23  2  0  0  0  0
 28 29  2  0  0  0  0
 29 23  1  0  0  0  0
 29 21  1  0  0  0  0
M  END
>  <MODEL>
9

>  <REMARK>
 VINA RESULT:      -6.5      3.547      6.622
  Name = 
  8 active torsions:
  status: ('A' for Active; 'I' for Inactive)
    1  A    between atoms: C_2  and  C_25
    2  A    between atoms: C_8  and  C_25
    3  A    between atoms: C_11  and  C_17
    4  A    between atoms: C_12  and  C_27
    5  A    between atoms: C_14  and  C_22
    6  A    between atoms: C_21  and  N_24
    7  A    between atoms: C_22  and  C_25
    8  A    between atoms: N_24  and  C_27
                            x       y       z     vdW  Elec       q    Type
                         _______ _______ _______ _____ _____    ______ ____

>  <TORSDO>
F 8

$$$$
