=
 OpenBabel11042419493D

 50 55  0  0  1  0  0  0  0  0999 V2000
  189.0420  172.9500  137.8050 C   0  0  0  0  0  2  0  0  0  0  0  0
  189.2810  173.2780  140.1450 C   0  0  0  0  0  3  0  0  0  0  0  0
  189.5810  173.6380  138.9500 N   0  0  0  0  0  0  0  0  0  0  0  0
  189.8690  173.9930  141.3210 C   0  0  2  0  0  3  0  0  0  0  0  0
  190.7320  173.0780  142.1350 C   0  0  0  0  0  0  0  0  0  0  0  0
  192.6700  171.6320  142.2790 C   0  0  0  0  0  3  0  0  0  0  0  0
  193.1630  170.4850  144.3420 O   0  0  0  0  0  1  0  0  0  0  0  0
  192.3580  171.3440  143.6110 C   0  0  0  0  0  0  0  0  0  0  0  0
  191.8570  172.4970  141.5430 C   0  0  0  0  0  3  0  0  0  0  0  0
  191.2320  171.9190  144.2090 C   0  0  0  0  0  3  0  0  0  0  0  0
  190.4210  172.7850  143.4720 C   0  0  0  0  0  3  0  0  0  0  0  0
  188.8080  174.5470  142.1470 N   0  0  0  0  0  2  0  0  0  0  0  0
  187.1140  176.2780  142.0120 C   0  0  0  0  0  2  0  0  0  0  0  0
  189.4120  176.8970  142.3860 C   0  0  0  0  0  2  0  0  0  0  0  0
  187.1440  177.7440  142.4100 C   0  0  2  0  0  3  0  0  0  0  0  0
  188.5350  175.8940  141.6700 C   0  0  1  0  0  3  0  0  0  0  0  0
  188.6030  178.1740  142.4350 C   0  0  0  0  0  2  0  0  0  0  0  0
  184.0250  179.0900  145.7640 C   0  0  0  0  0  1  0  0  0  0  0  0
  187.2510  177.8990  144.9850 C   0  0  0  0  0  2  0  0  0  0  0  0
  184.2910  177.7790  143.0470 O   0  0  0  0  0  0  0  0  0  0  0  0
  184.8070  177.8440  145.4020 C   0  0  1  0  0  3  0  0  0  0  0  0
  185.1450  177.8560  143.9670 C   0  0  0  0  0  0  0  0  0  0  0  0
  186.1780  177.8860  146.0880 C   0  0  1  0  0  3  0  0  0  0  0  0
  186.5340  177.9240  143.7250 N   0  0  0  0  0  0  0  0  0  0  0  0
  187.7460  176.3480  146.8780 C   0  0  0  0  0  1  0  0  0  0  0  0
  186.3380  176.7000  146.9140 N   0  0  0  0  0  2  0  0  0  0  0  0
  190.0110  172.9270  136.7130 N   0  0  0  0  0  2  0  0  0  0  0  0
  191.0760  173.8550  137.0390 C   0  0  0  0  0  2  0  0  0  0  0  0
  192.4320  173.1660  136.9920 C   0  0  2  0  0  3  0  0  0  0  0  0
  192.4320  171.7470  138.0680 Cl  0  0  0  0  0  0  0  0  0  0  0  0
  193.5780  174.1120  137.3420 C   0  0  0  0  0  2  0  0  0  0  0  0
  194.8140  173.3670  137.8320 C   0  0  0  0  0  2  0  0  0  0  0  0
  196.5160  173.6090  141.2040 C   0  0  2  0  0  3  0  0  0  0  0  0
  193.3490  176.4100  142.9900 C   0  0  0  0  0  3  0  0  0  0  0  0
  194.3840  174.9350  141.1680 C   0  0  0  0  0  0  0  0  0  0  0  0
  195.4090  174.2470  141.9140 N   0  0  0  0  0  0  0  0  0  0  0  0
  197.6490  174.5130  141.1550 N   0  0  0  0  0  1  0  0  0  0  0  0
  193.4200  175.8870  141.7600 C   0  0  0  0  0  3  0  0  0  0  0  0
  195.5660  175.5860  143.9060 C   0  0  0  0  0  2  0  0  0  0  0  0
  196.1350  173.2340  139.8430 N   0  0  0  0  0  0  0  0  0  0  0  0
  195.1260  173.7700  139.2270 C   0  0  0  0  0  0  0  0  0  0  0  0
  195.4200  174.1890  143.3620 C   0  0  0  0  0  2  0  0  0  0  0  0
  194.2510  176.1760  144.0860 N   0  0  0  0  0  0  0  0  0  0  0  0
  194.2650  174.6910  139.9010 N   0  0  0  0  0  0  0  0  0  0  0  0
  193.0590  175.9340  146.2050 C   0  0  2  0  0  3  0  0  0  0  0  0
  194.5310  176.0340  146.5130 C   0  0  0  0  0  2  0  0  0  0  0  0
  193.9520  176.8250  145.3580 C   0  0  1  0  0  3  0  0  0  0  0  0
  192.3420  176.7330  147.0980 O   0  0  0  0  0  0  0  0  0  0  0  0
  191.1430  175.2890  147.9840 O   0  0  0  0  0  1  0  0  0  0  0  0
  191.1210  176.2460  147.0850 O   0  0  0  0  0  0  0  0  0  0  0  0
  1  3  1  0  0  0  0
  3  2  2  0  0  0  0
  4  2  1  6  0  0  0
  4  5  1  0  0  0  0
  4 12  1  0  0  0  0
  5 11  1  0  0  0  0
  6  8  2  0  0  0  0
  8 10  1  0  0  0  0
  8  7  1  0  0  0  0
  9  5  2  0  0  0  0
  9  6  1  0  0  0  0
 11 10  2  0  0  0  0
 14 17  1  0  0  0  0
 15 13  1  1  0  0  0
 15 17  1  0  0  0  0
 15 24  1  0  0  0  0
 16 13  1  0  0  0  0
 16 12  1  1  0  0  0
 16 14  1  0  0  0  0
 19 23  1  0  0  0  0
 20 22  2  0  0  0  0
 21 18  1  1  0  0  0
 21 23  1  0  0  0  0
 22 21  1  0  0  0  0
 23 26  1  1  0  0  0
 24 22  1  0  0  0  0
 24 19  1  0  0  0  0
 25 26  1  0  0  0  0
 27 28  1  0  0  0  0
 27  1  1  0  0  0  0
 29 28  1  0  0  0  0
 29 31  1  0  0  0  0
 29 30  1  1  0  0  0
 31 32  1  0  0  0  0
 32 41  1  0  0  0  0
 33 37  1  6  0  0  0
 33 36  1  0  0  0  0
 34 43  1  0  0  0  0
 35 38  1  0  0  0  0
 35 36  1  0  0  0  0
 36 42  1  0  0  0  0
 38 34  2  0  0  0  0
 39 43  1  0  0  0  0
 40 33  1  0  0  0  0
 41 40  2  0  0  0  0
 41 44  1  0  0  0  0
 42 39  1  0  0  0  0
 44 35  2  0  0  0  0
 45 46  1  0  0  0  0
 45 48  1  1  0  0  0
 47 43  1  6  0  0  0
 47 45  1  0  0  0  0
 47 46  1  0  0  0  0
 50 48  1  0  0  0  0
 50 49  1  0  0  0  0
M  END
>  <MODEL>
1

>  <REMARK>
 VINA RESULT:      -6.3      0.000      0.000
  Name = 
  16 active torsions:
  status: ('A' for Active; 'I' for Inactive)
    1  A    between atoms: C_2  and  C_43
    2  A    between atoms: C_8  and  O_44
    3  A    between atoms: N_13  and  C_32
    4  A    between atoms: N_13  and  C_38
    5  A    between atoms: N_20  and  C_39
    6  A    between atoms: C_25  and  C_35
    7  A    between atoms: C_25  and  C_38
    8  A    between atoms: C_27  and  C_43
    9  A    between atoms: C_28  and  N_42
   10  A    between atoms: C_29  and  N_46
   11  A    between atoms: C_31  and  C_50
   12  A    between atoms: C_32  and  N_48
   13  A    between atoms: C_35  and  C_50
   14  A    between atoms: N_40  and  C_41
   15  A    between atoms: C_43  and  N_46
   16  A    between atoms: O_44  and  O_49
                            x       y       z     vdW  Elec       q    Type
                         _______ _______ _______ _____ _____    ______ ____

>  <TORSDO>
F 16

$$$$
=
 OpenBabel11042419493D

 50 55  0  0  1  0  0  0  0  0999 V2000
  193.9190  171.1610  145.0040 C   0  0  0  0  0  2  0  0  0  0  0  0
  192.1000  170.9890  143.4860 C   0  0  0  0  0  3  0  0  0  0  0  0
  193.3370  171.2660  143.6900 N   0  0  0  0  0  0  0  0  0  0  0  0
  191.5100  171.1250  142.1170 C   0  0  2  0  0  3  0  0  0  0  0  0
  190.4920  172.2240  142.0730 C   0  0  0  0  0  0  0  0  0  0  0  0
  189.9950  174.5930  142.0170 C   0  0  0  0  0  3  0  0  0  0  0  0
  187.7010  175.3400  141.9870 O   0  0  0  0  0  1  0  0  0  0  0  0
  188.6260  174.3090  142.0150 C   0  0  0  0  0  0  0  0  0  0  0  0
  190.9260  173.5530  142.0470 C   0  0  0  0  0  3  0  0  0  0  0  0
  188.1860  172.9810  142.0450 C   0  0  0  0  0  3  0  0  0  0  0  0
  189.1170  171.9410  142.0730 C   0  0  0  0  0  3  0  0  0  0  0  0
  190.9060  169.8670  141.7100 N   0  0  0  0  0  2  0  0  0  0  0  0
  190.6260  169.9570  139.3010 C   0  0  0  0  0  2  0  0  0  0  0  0
  192.8310  170.1780  140.2450 C   0  0  0  0  0  2  0  0  0  0  0  0
  191.5610  170.4270  138.2000 C   0  0  2  0  0  3  0  0  0  0  0  0
  191.5010  169.4830  140.4390 C   0  0  1  0  0  3  0  0  0  0  0  0
  192.9760  170.3570  138.7500 C   0  0  0  0  0  2  0  0  0  0  0  0
  191.9750  174.7520  136.2220 C   0  0  0  0  0  1  0  0  0  0  0  0
  190.2760  172.6480  138.4840 C   0  0  0  0  0  2  0  0  0  0  0  0
  192.3150  171.7840  135.7220 O   0  0  0  0  0  0  0  0  0  0  0  0
  190.9250  173.6640  136.3170 C   0  0  1  0  0  3  0  0  0  0  0  0
  191.5680  172.3580  136.5550 C   0  0  0  0  0  0  0  0  0  0  0  0
  190.0820  173.8780  137.5800 C   0  0  1  0  0  3  0  0  0  0  0  0
  191.2300  171.7930  137.8040 N   0  0  0  0  0  0  0  0  0  0  0  0
  187.9820  174.5230  138.3670 C   0  0  0  0  0  1  0  0  0  0  0  0
  188.6820  173.9990  137.2090 N   0  0  0  0  0  2  0  0  0  0  0  0
  194.2760  172.4800  145.5170 N   0  0  0  0  0  2  0  0  0  0  0  0
  195.5830  172.8260  144.9950 C   0  0  0  0  0  2  0  0  0  0  0  0
  195.6510  174.3030  144.6320 C   0  0  2  0  0  3  0  0  0  0  0  0
  197.1990  174.6610  143.8270 Cl  0  0  0  0  0  0  0  0  0  0  0  0
  195.4470  175.2100  145.8430 C   0  0  0  0  0  2  0  0  0  0  0  0
  194.6870  176.4830  145.4900 C   0  0  0  0  0  2  0  0  0  0  0  0
  191.4460  175.1860  146.9530 C   0  0  2  0  0  3  0  0  0  0  0  0
  188.7850  177.6910  144.1740 C   0  0  0  0  0  3  0  0  0  0  0  0
  191.0120  176.8030  145.0810 C   0  0  0  0  0  0  0  0  0  0  0  0
  190.5610  175.7190  145.9170 N   0  0  0  0  0  0  0  0  0  0  0  0
  191.1510  175.8240  148.2210 N   0  0  0  0  0  1  0  0  0  0  0  0
  190.1210  177.6400  144.2480 C   0  0  0  0  0  3  0  0  0  0  0  0
  188.2150  176.2040  146.1480 C   0  0  0  0  0  2  0  0  0  0  0  0
  192.8520  175.4000  146.6160 N   0  0  0  0  0  0  0  0  0  0  0  0
  193.2380  176.2960  145.7600 C   0  0  0  0  0  0  0  0  0  0  0  0
  189.2340  175.1460  145.8110 C   0  0  0  0  0  2  0  0  0  0  0  0
  187.8440  176.9200  144.9400 N   0  0  0  0  0  0  0  0  0  0  0  0
  192.2810  177.0550  145.0170 N   0  0  0  0  0  0  0  0  0  0  0  0
  185.8700  178.2390  145.5190 C   0  0  2  0  0  3  0  0  0  0  0  0
  186.1780  178.4850  144.0640 C   0  0  0  0  0  2  0  0  0  0  0  0
  186.4250  177.1140  144.6600 C   0  0  1  0  0  3  0  0  0  0  0  0
  184.4960  178.0480  145.6760 O   0  0  0  0  0  0  0  0  0  0  0  0
  185.1710  178.2530  147.6280 O   0  0  0  0  0  1  0  0  0  0  0  0
  184.2020  178.6220  146.8220 O   0  0  0  0  0  0  0  0  0  0  0  0
  1 27  1  0  0  0  0
  2  3  2  0  0  0  0
  3  1  1  0  0  0  0
  4  2  1  1  0  0  0
  5 11  1  0  0  0  0
  5  4  1  0  0  0  0
  6  9  1  0  0  0  0
  7  8  1  0  0  0  0
  8  6  2  0  0  0  0
  8 10  1  0  0  0  0
  9  5  2  0  0  0  0
 10 11  2  0  0  0  0
 12  4  1  0  0  0  0
 13 16  1  0  0  0  0
 14 16  1  0  0  0  0
 15 24  1  1  0  0  0
 15 17  1  0  0  0  0
 15 13  1  0  0  0  0
 16 12  1  1  0  0  0
 17 14  1  0  0  0  0
 20 22  2  0  0  0  0
 21 18  1  1  0  0  0
 21 22  1  0  0  0  0
 21 23  1  0  0  0  0
 22 24  1  0  0  0  0
 23 26  1  6  0  0  0
 23 19  1  0  0  0  0
 24 19  1  0  0  0  0
 26 25  1  0  0  0  0
 28 27  1  0  0  0  0
 29 30  1  1  0  0  0
 29 28  1  0  0  0  0
 29 31  1  0  0  0  0
 32 41  1  0  0  0  0
 32 31  1  0  0  0  0
 33 37  1  1  0  0  0
 34 38  2  0  0  0  0
 34 43  1  0  0  0  0
 35 36  1  0  0  0  0
 36 33  1  0  0  0  0
 38 35  1  0  0  0  0
 40 33  1  0  0  0  0
 41 40  2  0  0  0  0
 42 36  1  0  0  0  0
 42 39  1  0  0  0  0
 43 39  1  0  0  0  0
 44 35  2  0  0  0  0
 44 41  1  0  0  0  0
 45 48  1  6  0  0  0
 46 45  1  0  0  0  0
 47 46  1  6  0  0  0
 47 43  1  0  0  0  0
 47 45  1  0  0  0  0
 48 50  1  0  0  0  0
 50 49  1  0  0  0  0
M  END
>  <MODEL>
2

>  <REMARK>
 VINA RESULT:      -6.2      3.268      7.877
  Name = 
  16 active torsions:
  status: ('A' for Active; 'I' for Inactive)
    1  A    between atoms: C_2  and  C_43
    2  A    between atoms: C_8  and  O_44
    3  A    between atoms: N_13  and  C_32
    4  A    between atoms: N_13  and  C_38
    5  A    between atoms: N_20  and  C_39
    6  A    between atoms: C_25  and  C_35
    7  A    between atoms: C_25  and  C_38
    8  A    between atoms: C_27  and  C_43
    9  A    between atoms: C_28  and  N_42
   10  A    between atoms: C_29  and  N_46
   11  A    between atoms: C_31  and  C_50
   12  A    between atoms: C_32  and  N_48
   13  A    between atoms: C_35  and  C_50
   14  A    between atoms: N_40  and  C_41
   15  A    between atoms: C_43  and  N_46
   16  A    between atoms: O_44  and  O_49
                            x       y       z     vdW  Elec       q    Type
                         _______ _______ _______ _____ _____    ______ ____

>  <TORSDO>
F 16

$$$$
=
 OpenBabel11042419493D

 50 55  0  0  1  0  0  0  0  0999 V2000
  186.5810  176.1860  142.3550 C   0  0  0  0  0  2  0  0  0  0  0  0
  188.5420  174.9970  141.7360 C   0  0  0  0  0  3  0  0  0  0  0  0
  187.2970  174.9730  142.0500 N   0  0  0  0  0  0  0  0  0  0  0  0
  189.2720  173.7230  141.4440 C   0  0  2  0  0  3  0  0  0  0  0  0
  189.5650  173.5900  139.9810 C   0  0  0  0  0  0  0  0  0  0  0  0
  191.1880  173.3140  138.2040 C   0  0  0  0  0  3  0  0  0  0  0  0
  190.4550  173.2490  135.9070 O   0  0  0  0  0  1  0  0  0  0  0  0
  190.1610  173.3620  137.2560 C   0  0  0  0  0  0  0  0  0  0  0  0
  190.8900  173.4290  139.5640 C   0  0  0  0  0  3  0  0  0  0  0  0
  188.8340  173.5260  137.6670 C   0  0  0  0  0  3  0  0  0  0  0  0
  188.5370  173.6400  139.0270 C   0  0  0  0  0  3  0  0  0  0  0  0
  188.4900  172.5870  141.9040 N   0  0  0  0  0  2  0  0  0  0  0  0
  190.4110  171.1680  142.3340 C   0  0  0  0  0  2  0  0  0  0  0  0
  189.8760  172.9370  143.8790 C   0  0  0  0  0  2  0  0  0  0  0  0
  191.5880  171.3330  143.2810 C   0  0  2  0  0  3  0  0  0  0  0  0
  189.2530  171.9210  142.9490 C   0  0  1  0  0  3  0  0  0  0  0  0
  191.1540  172.2970  144.3740 C   0  0  0  0  0  2  0  0  0  0  0  0
  195.6200  171.4320  140.7280 C   0  0  0  0  0  1  0  0  0  0  0  0
  193.3360  173.1660  142.7800 C   0  0  0  0  0  2  0  0  0  0  0  0
  192.8580  170.2010  140.9030 O   0  0  0  0  0  0  0  0  0  0  0  0
  194.2810  172.1410  140.7280 C   0  0  1  0  0  3  0  0  0  0  0  0
  193.2600  171.2960  141.3740 C   0  0  0  0  0  0  0  0  0  0  0  0
  194.3560  173.3690  141.6450 C   0  0  1  0  0  3  0  0  0  0  0  0
  192.7450  171.8590  142.5620 N   0  0  0  0  0  0  0  0  0  0  0  0
  193.0710  175.3170  141.6870 C   0  0  0  0  0  1  0  0  0  0  0  0
  194.0120  174.5580  140.8840 N   0  0  0  0  0  2  0  0  0  0  0  0
  186.5350  177.0650  141.1900 N   0  0  0  0  0  2  0  0  0  0  0  0
  185.7780  178.2470  141.5510 C   0  0  0  0  0  2  0  0  0  0  0  0
  184.5320  177.8750  142.3440 C   0  0  2  0  0  3  0  0  0  0  0  0
  183.0720  178.2850  141.4100 Cl  0  0  0  0  0  0  0  0  0  0  0  0
  184.4990  178.5350  143.7200 C   0  0  0  0  0  2  0  0  0  0  0  0
  185.7470  179.3660  143.9930 C   0  0  0  0  0  2  0  0  0  0  0  0
  187.2830  177.7130  147.0320 C   0  0  2  0  0  3  0  0  0  0  0  0
  191.1030  176.4290  144.8340 C   0  0  0  0  0  3  0  0  0  0  0  0
  188.8180  177.5700  145.0500 C   0  0  0  0  0  0  0  0  0  0  0  0
  188.6260  177.5430  146.4790 N   0  0  0  0  0  0  0  0  0  0  0  0
  186.6880  176.4130  147.2780 N   0  0  0  0  0  1  0  0  0  0  0  0
  190.0340  177.0840  144.3640 C   0  0  0  0  0  3  0  0  0  0  0  0
  190.2680  175.9290  147.1770 C   0  0  0  0  0  2  0  0  0  0  0  0
  186.4250  178.4770  146.1280 N   0  0  0  0  0  0  0  0  0  0  0  0
  186.6800  178.6040  144.8610 C   0  0  0  0  0  0  0  0  0  0  0  0
  189.7090  177.3070  147.4120 C   0  0  0  0  0  2  0  0  0  0  0  0
  191.3300  175.9990  146.1880 N   0  0  0  0  0  0  0  0  0  0  0  0
  187.8890  178.0810  144.3060 N   0  0  0  0  0  0  0  0  0  0  0  0
  193.6580  175.7620  145.4860 C   0  0  2  0  0  3  0  0  0  0  0  0
  193.6530  176.3410  146.8780 C   0  0  0  0  0  2  0  0  0  0  0  0
  192.5940  175.3320  146.4820 C   0  0  1  0  0  3  0  0  0  0  0  0
  194.6280  174.7610  145.4040 O   0  0  0  0  0  0  0  0  0  0  0  0
  195.5970  175.9820  144.0330 O   0  0  0  0  0  1  0  0  0  0  0  0
  195.7590  175.3990  145.1990 O   0  0  0  0  0  0  0  0  0  0  0  0
  2  3  2  0  0  0  0
  3  1  1  0  0  0  0
  4  2  1  6  0  0  0
  4 12  1  0  0  0  0
  5  4  1  0  0  0  0
  6  9  2  0  0  0  0
  7  8  1  0  0  0  0
  8 10  2  0  0  0  0
  8  6  1  0  0  0  0
  9  5  1  0  0  0  0
 10 11  1  0  0  0  0
 11  5  2  0  0  0  0
 13 16  1  0  0  0  0
 14 17  1  0  0  0  0
 15 13  1  6  0  0  0
 15 17  1  0  0  0  0
 16 12  1  6  0  0  0
 16 14  1  0  0  0  0
 20 22  2  0  0  0  0
 21 18  1  1  0  0  0
 21 22  1  0  0  0  0
 21 23  1  0  0  0  0
 22 24  1  0  0  0  0
 23 26  1  6  0  0  0
 23 19  1  0  0  0  0
 24 19  1  0  0  0  0
 24 15  1  0  0  0  0
 26 25  1  0  0  0  0
 27 28  1  0  0  0  0
 27  1  1  0  0  0  0
 28 29  1  0  0  0  0
 29 30  1  6  0  0  0
 29 31  1  0  0  0  0
 31 32  1  0  0  0  0
 32 41  1  0  0  0  0
 33 37  1  6  0  0  0
 34 43  1  0  0  0  0
 35 36  1  0  0  0  0
 36 33  1  0  0  0  0
 36 42  1  0  0  0  0
 38 34  2  0  0  0  0
 38 35  1  0  0  0  0
 39 42  1  0  0  0  0
 40 33  1  0  0  0  0
 41 40  2  0  0  0  0
 43 39  1  0  0  0  0
 44 41  1  0  0  0  0
 44 35  2  0  0  0  0
 45 48  1  1  0  0  0
 45 47  1  0  0  0  0
 45 46  1  0  0  0  0
 47 43  1  6  0  0  0
 47 46  1  0  0  0  0
 49 50  1  0  0  0  0
 50 48  1  0  0  0  0
M  END
>  <MODEL>
3

>  <REMARK>
 VINA RESULT:      -6.1      3.116      7.979
  Name = 
  16 active torsions:
  status: ('A' for Active; 'I' for Inactive)
    1  A    between atoms: C_2  and  C_43
    2  A    between atoms: C_8  and  O_44
    3  A    between atoms: N_13  and  C_32
    4  A    between atoms: N_13  and  C_38
    5  A    between atoms: N_20  and  C_39
    6  A    between atoms: C_25  and  C_35
    7  A    between atoms: C_25  and  C_38
    8  A    between atoms: C_27  and  C_43
    9  A    between atoms: C_28  and  N_42
   10  A    between atoms: C_29  and  N_46
   11  A    between atoms: C_31  and  C_50
   12  A    between atoms: C_32  and  N_48
   13  A    between atoms: C_35  and  C_50
   14  A    between atoms: N_40  and  C_41
   15  A    between atoms: C_43  and  N_46
   16  A    between atoms: O_44  and  O_49
                            x       y       z     vdW  Elec       q    Type
                         _______ _______ _______ _____ _____    ______ ____

>  <TORSDO>
F 16

$$$$
=
 OpenBabel11042419493D

 50 55  0  0  1  0  0  0  0  0999 V2000
  188.9100  173.9990  140.5390 C   0  0  0  0  0  2  0  0  0  0  0  0
  190.5980  173.9690  142.2090 C   0  0  0  0  0  3  0  0  0  0  0  0
  189.3500  173.9580  141.9100 N   0  0  0  0  0  0  0  0  0  0  0  0
  191.0330  173.9480  143.6420 C   0  0  2  0  0  3  0  0  0  0  0  0
  191.9320  172.7820  143.9170 C   0  0  0  0  0  0  0  0  0  0  0  0
  193.7810  171.8330  145.1610 C   0  0  0  0  0  3  0  0  0  0  0  0
  194.5000  169.5750  144.7100 O   0  0  0  0  0  1  0  0  0  0  0  0
  193.6500  170.6370  144.4480 C   0  0  0  0  0  0  0  0  0  0  0  0
  192.9240  172.9030  144.8950 C   0  0  0  0  0  3  0  0  0  0  0  0
  192.6620  170.5110  143.4660 C   0  0  0  0  0  3  0  0  0  0  0  0
  191.8050  171.5810  143.2010 C   0  0  0  0  0  3  0  0  0  0  0  0
  189.8690  173.8990  144.5120 N   0  0  0  0  0  2  0  0  0  0  0  0
  189.5660  176.2530  145.0180 C   0  0  0  0  0  2  0  0  0  0  0  0
  189.1750  174.6130  146.7380 C   0  0  0  0  0  2  0  0  0  0  0  0
  188.8740  176.9480  146.1780 C   0  0  2  0  0  3  0  0  0  0  0  0
  190.0440  174.9160  145.5380 C   0  0  1  0  0  3  0  0  0  0  0  0
  188.8260  175.9600  147.3320 C   0  0  0  0  0  2  0  0  0  0  0  0
  184.2360  178.0210  146.5340 C   0  0  0  0  0  1  0  0  0  0  0  0
  186.9770  177.2530  144.4530 C   0  0  0  0  0  2  0  0  0  0  0  0
  186.9610  178.4770  147.7750 O   0  0  0  0  0  0  0  0  0  0  0  0
  185.4710  178.6100  145.8820 C   0  0  1  0  0  3  0  0  0  0  0  0
  186.6820  178.1570  146.5910 C   0  0  0  0  0  0  0  0  0  0  0  0
  185.6390  178.0140  144.4790 C   0  0  1  0  0  3  0  0  0  0  0  0
  187.5250  177.3540  145.7920 N   0  0  0  0  0  0  0  0  0  0  0  0
  186.4410  178.6100  142.3700 C   0  0  0  0  0  1  0  0  0  0  0  0
  185.6670  179.0880  143.5010 N   0  0  0  0  0  2  0  0  0  0  0  0
  189.9510  173.4990  139.6470 N   0  0  0  0  0  2  0  0  0  0  0  0
  189.3160  172.6910  138.6250 C   0  0  0  0  0  2  0  0  0  0  0  0
  190.3220  172.2650  137.5650 C   0  0  2  0  0  3  0  0  0  0  0  0
  189.4780  171.4880  136.2030 Cl  0  0  0  0  0  0  0  0  0  0  0  0
  191.4060  171.3480  138.1260 C   0  0  0  0  0  2  0  0  0  0  0  0
  192.7830  171.6640  137.5540 C   0  0  0  0  0  2  0  0  0  0  0  0
  195.6140  171.7160  140.0670 C   0  0  2  0  0  3  0  0  0  0  0  0
  194.2620  175.6400  142.0290 C   0  0  0  0  0  3  0  0  0  0  0  0
  194.0860  173.6830  140.3820 C   0  0  0  0  0  0  0  0  0  0  0  0
  195.0770  172.7810  140.9130 N   0  0  0  0  0  0  0  0  0  0  0  0
  196.8510  172.1580  139.4530 N   0  0  0  0  0  1  0  0  0  0  0  0
  193.7200  174.9760  141.0000 C   0  0  0  0  0  3  0  0  0  0  0  0
  196.3340  174.2190  142.3770 C   0  0  0  0  0  2  0  0  0  0  0  0
  194.6640  171.3320  139.0240 N   0  0  0  0  0  0  0  0  0  0  0  0
  193.6920  172.1030  138.6440 C   0  0  0  0  0  0  0  0  0  0  0  0
  195.6110  172.9030  142.2550 C   0  0  0  0  0  2  0  0  0  0  0  0
  195.4020  175.2450  142.8110 N   0  0  0  0  0  0  0  0  0  0  0  0
  193.4390  173.3410  139.3130 N   0  0  0  0  0  0  0  0  0  0  0  0
  194.7740  176.0180  145.0420 C   0  0  2  0  0  3  0  0  0  0  0  0
  196.0900  175.2920  145.1600 C   0  0  0  0  0  2  0  0  0  0  0  0
  195.7940  176.1100  143.9190 C   0  0  1  0  0  3  0  0  0  0  0  0
  194.8250  177.1940  145.7930 O   0  0  0  0  0  0  0  0  0  0  0  0
  193.0160  176.3450  146.3530 O   0  0  0  0  0  1  0  0  0  0  0  0
  194.0670  176.9610  146.8420 O   0  0  0  0  0  0  0  0  0  0  0  0
  1  3  1  0  0  0  0
  3  2  2  0  0  0  0
  4  2  1  6  0  0  0
  4  5  1  0  0  0  0
  4 12  1  0  0  0  0
  5  9  1  0  0  0  0
  8  7  1  0  0  0  0
  8  6  1  0  0  0  0
  9  6  2  0  0  0  0
 10  8  2  0  0  0  0
 11 10  1  0  0  0  0
 11  5  2  0  0  0  0
 13 16  1  0  0  0  0
 14 17  1  0  0  0  0
 15 13  1  6  0  0  0
 15 17  1  0  0  0  0
 16 12  1  6  0  0  0
 16 14  1  0  0  0  0
 19 23  1  0  0  0  0
 19 24  1  0  0  0  0
 21 18  1  1  0  0  0
 21 22  1  0  0  0  0
 22 20  2  0  0  0  0
 23 26  1  6  0  0  0
 23 21  1  0  0  0  0
 24 15  1  0  0  0  0
 24 22  1  0  0  0  0
 25 26  1  0  0  0  0
 27  1  1  0  0  0  0
 28 27  1  0  0  0  0
 29 30  1  6  0  0  0
 29 31  1  0  0  0  0
 29 28  1  0  0  0  0
 32 31  1  0  0  0  0
 32 41  1  0  0  0  0
 33 37  1  6  0  0  0
 33 36  1  0  0  0  0
 34 43  1  0  0  0  0
 35 36  1  0  0  0  0
 35 38  1  0  0  0  0
 36 42  1  0  0  0  0
 38 34  2  0  0  0  0
 39 43  1  0  0  0  0
 40 33  1  0  0  0  0
 41 40  2  0  0  0  0
 41 44  1  0  0  0  0
 42 39  1  0  0  0  0
 44 35  2  0  0  0  0
 45 46  1  0  0  0  0
 45 48  1  1  0  0  0
 47 43  1  6  0  0  0
 47 45  1  0  0  0  0
 47 46  1  0  0  0  0
 48 50  1  0  0  0  0
 49 50  1  0  0  0  0
M  END
>  <MODEL>
4

>  <REMARK>
 VINA RESULT:      -6.1      1.836      2.908
  Name = 
  16 active torsions:
  status: ('A' for Active; 'I' for Inactive)
    1  A    between atoms: C_2  and  C_43
    2  A    between atoms: C_8  and  O_44
    3  A    between atoms: N_13  and  C_32
    4  A    between atoms: N_13  and  C_38
    5  A    between atoms: N_20  and  C_39
    6  A    between atoms: C_25  and  C_35
    7  A    between atoms: C_25  and  C_38
    8  A    between atoms: C_27  and  C_43
    9  A    between atoms: C_28  and  N_42
   10  A    between atoms: C_29  and  N_46
   11  A    between atoms: C_31  and  C_50
   12  A    between atoms: C_32  and  N_48
   13  A    between atoms: C_35  and  C_50
   14  A    between atoms: N_40  and  C_41
   15  A    between atoms: C_43  and  N_46
   16  A    between atoms: O_44  and  O_49
                            x       y       z     vdW  Elec       q    Type
                         _______ _______ _______ _____ _____    ______ ____

>  <TORSDO>
F 16

$$$$
=
 OpenBabel11042419493D

 50 55  0  0  1  0  0  0  0  0999 V2000
  193.7350  171.0440  145.0370 C   0  0  0  0  0  2  0  0  0  0  0  0
  191.8900  171.1630  143.5450 C   0  0  0  0  0  3  0  0  0  0  0  0
  193.1620  171.1380  143.7180 N   0  0  0  0  0  0  0  0  0  0  0  0
  191.3160  171.2820  142.1680 C   0  0  2  0  0  3  0  0  0  0  0  0
  190.3230  172.4010  142.0900 C   0  0  0  0  0  0  0  0  0  0  0  0
  189.8770  174.7690  141.8490 C   0  0  0  0  0  3  0  0  0  0  0  0
  187.6040  175.5760  141.9020 O   0  0  0  0  0  1  0  0  0  0  0  0
  188.5050  174.5250  141.9640 C   0  0  0  0  0  0  0  0  0  0  0  0
  190.7840  173.7090  141.9130 C   0  0  0  0  0  3  0  0  0  0  0  0
  188.0380  173.2190  142.1460 C   0  0  0  0  0  3  0  0  0  0  0  0
  188.9450  172.1600  142.2080 C   0  0  0  0  0  3  0  0  0  0  0  0
  190.6880  170.0290  141.7820 N   0  0  0  0  0  2  0  0  0  0  0  0
  191.0860  170.7490  139.5000 C   0  0  0  0  0  2  0  0  0  0  0  0
  192.7440  169.4110  140.6240 C   0  0  0  0  0  2  0  0  0  0  0  0
  192.3540  170.7750  138.6630 C   0  0  2  0  0  3  0  0  0  0  0  0
  191.2520  169.6290  140.5010 C   0  0  1  0  0  3  0  0  0  0  0  0
  193.3140  169.7630  139.2680 C   0  0  0  0  0  2  0  0  0  0  0  0
  193.7160  175.0930  137.1510 C   0  0  0  0  0  1  0  0  0  0  0  0
  193.9840  172.5530  139.5820 C   0  0  0  0  0  2  0  0  0  0  0  0
  191.4030  173.1400  137.2310 O   0  0  0  0  0  0  0  0  0  0  0  0
  193.0390  174.4990  138.3700 C   0  0  1  0  0  3  0  0  0  0  0  0
  192.3820  173.2270  138.0150 C   0  0  0  0  0  0  0  0  0  0  0  0
  194.1030  174.0750  139.3890 C   0  0  1  0  0  3  0  0  0  0  0  0
  192.9420  172.1120  138.6750 N   0  0  0  0  0  0  0  0  0  0  0  0
  194.8560  175.7960  140.7750 C   0  0  0  0  0  1  0  0  0  0  0  0
  193.8560  174.7510  140.6510 N   0  0  0  0  0  2  0  0  0  0  0  0
  194.1200  172.3640  145.5270 N   0  0  0  0  0  2  0  0  0  0  0  0
  195.5560  172.4940  145.3850 C   0  0  0  0  0  2  0  0  0  0  0  0
  195.9440  173.9310  145.0650 C   0  0  2  0  0  3  0  0  0  0  0  0
  197.7020  174.1430  145.2490 Cl  0  0  0  0  0  0  0  0  0  0  0  0
  195.1830  174.9430  145.9180 C   0  0  0  0  0  2  0  0  0  0  0  0
  194.4360  175.9670  145.0720 C   0  0  0  0  0  2  0  0  0  0  0  0
  191.4530  175.8900  147.4010 C   0  0  2  0  0  3  0  0  0  0  0  0
  188.6190  177.8980  144.3990 C   0  0  0  0  0  3  0  0  0  0  0  0
  190.8450  176.8970  145.1820 C   0  0  0  0  0  0  0  0  0  0  0  0
  190.4440  176.2450  146.4040 N   0  0  0  0  0  0  0  0  0  0  0  0
  191.5410  176.9380  148.3990 N   0  0  0  0  0  1  0  0  0  0  0  0
  189.9170  177.5980  144.2680 C   0  0  0  0  0  3  0  0  0  0  0  0
  188.3000  177.2510  146.8310 C   0  0  0  0  0  2  0  0  0  0  0  0
  192.7650  175.6930  146.7870 N   0  0  0  0  0  0  0  0  0  0  0  0
  193.0730  176.1770  145.6220 C   0  0  0  0  0  0  0  0  0  0  0  0
  189.0590  175.9550  146.7210 C   0  0  0  0  0  2  0  0  0  0  0  0
  187.7730  177.6160  145.5280 N   0  0  0  0  0  0  0  0  0  0  0  0
  192.0900  176.8480  144.8290 N   0  0  0  0  0  0  0  0  0  0  0  0
  185.6810  177.2130  144.3320 C   0  0  2  0  0  3  0  0  0  0  0  0
  185.4670  176.8340  145.7750 C   0  0  0  0  0  2  0  0  0  0  0  0
  186.3690  178.0020  145.4330 C   0  0  1  0  0  3  0  0  0  0  0  0
  184.5810  177.9420  143.8760 O   0  0  0  0  0  0  0  0  0  0  0  0
  185.4880  178.2020  142.0270 O   0  0  0  0  0  1  0  0  0  0  0  0
  184.4630  177.6210  142.6070 O   0  0  0  0  0  0  0  0  0  0  0  0
  1 27  1  0  0  0  0
  2  3  2  0  0  0  0
  3  1  1  0  0  0  0
  4  2  1  1  0  0  0
  5  4  1  0  0  0  0
  5 11  1  0  0  0  0
  6  9  1  0  0  0  0
  6  8  2  0  0  0  0
  7  8  1  0  0  0  0
  8 10  1  0  0  0  0
  9  5  2  0  0  0  0
 10 11  2  0  0  0  0
 12  4  1  0  0  0  0
 13 16  1  0  0  0  0
 15 24  1  1  0  0  0
 15 17  1  0  0  0  0
 15 13  1  0  0  0  0
 16 14  1  0  0  0  0
 16 12  1  1  0  0  0
 17 14  1  0  0  0  0
 20 22  2  0  0  0  0
 21 18  1  6  0  0  0
 21 23  1  0  0  0  0
 22 21  1  0  0  0  0
 22 24  1  0  0  0  0
 23 19  1  0  0  0  0
 23 26  1  1  0  0  0
 24 19  1  0  0  0  0
 26 25  1  0  0  0  0
 28 27  1  0  0  0  0
 29 30  1  1  0  0  0
 29 28  1  0  0  0  0
 29 31  1  0  0  0  0
 32 41  1  0  0  0  0
 32 31  1  0  0  0  0
 33 37  1  1  0  0  0
 34 43  1  0  0  0  0
 35 36  1  0  0  0  0
 36 42  1  0  0  0  0
 36 33  1  0  0  0  0
 38 34  2  0  0  0  0
 38 35  1  0  0  0  0
 40 33  1  0  0  0  0
 41 40  2  0  0  0  0
 42 39  1  0  0  0  0
 43 39  1  0  0  0  0
 44 35  2  0  0  0  0
 44 41  1  0  0  0  0
 45 48  1  1  0  0  0
 45 47  1  0  0  0  0
 45 46  1  0  0  0  0
 47 43  1  6  0  0  0
 47 46  1  0  0  0  0
 49 50  1  0  0  0  0
 50 48  1  0  0  0  0
M  END
>  <MODEL>
5

>  <REMARK>
 VINA RESULT:      -6.1      3.079      8.031
  Name = 
  16 active torsions:
  status: ('A' for Active; 'I' for Inactive)
    1  A    between atoms: C_2  and  C_43
    2  A    between atoms: C_8  and  O_44
    3  A    between atoms: N_13  and  C_32
    4  A    between atoms: N_13  and  C_38
    5  A    between atoms: N_20  and  C_39
    6  A    between atoms: C_25  and  C_35
    7  A    between atoms: C_25  and  C_38
    8  A    between atoms: C_27  and  C_43
    9  A    between atoms: C_28  and  N_42
   10  A    between atoms: C_29  and  N_46
   11  A    between atoms: C_31  and  C_50
   12  A    between atoms: C_32  and  N_48
   13  A    between atoms: C_35  and  C_50
   14  A    between atoms: N_40  and  C_41
   15  A    between atoms: C_43  and  N_46
   16  A    between atoms: O_44  and  O_49
                            x       y       z     vdW  Elec       q    Type
                         _______ _______ _______ _____ _____    ______ ____

>  <TORSDO>
F 16

$$$$
=
 OpenBabel11042419493D

 50 55  0  0  1  0  0  0  0  0999 V2000
  195.6150  175.3350  139.8600 C   0  0  0  0  0  2  0  0  0  0  0  0
  194.3240  173.6150  140.8690 C   0  0  0  0  0  3  0  0  0  0  0  0
  195.3180  173.9510  140.1300 N   0  0  0  0  0  0  0  0  0  0  0  0
  194.0200  172.1710  141.1180 C   0  0  2  0  0  3  0  0  0  0  0  0
  194.7940  171.6500  142.2910 C   0  0  0  0  0  0  0  0  0  0  0  0
  196.6060  170.2890  143.1450 C   0  0  0  0  0  3  0  0  0  0  0  0
  196.9710  170.1300  145.5240 O   0  0  0  0  0  1  0  0  0  0  0  0
  196.2510  170.6330  144.4530 C   0  0  0  0  0  0  0  0  0  0  0  0
  195.8780  170.7970  142.0670 C   0  0  0  0  0  3  0  0  0  0  0  0
  195.1640  171.4830  144.6840 C   0  0  0  0  0  3  0  0  0  0  0  0
  194.4380  171.9910  143.6050 C   0  0  0  0  0  3  0  0  0  0  0  0
  194.3250  171.3880  139.9310 N   0  0  0  0  0  2  0  0  0  0  0  0
  191.9920  170.9250  140.4140 C   0  0  0  0  0  2  0  0  0  0  0  0
  192.5830  171.9800  138.3300 C   0  0  0  0  0  2  0  0  0  0  0  0
  190.7140  171.4350  139.7700 C   0  0  2  0  0  3  0  0  0  0  0  0
  193.0610  170.9660  139.3450 C   0  0  1  0  0  3  0  0  0  0  0  0
  191.0720  171.9040  138.3680 C   0  0  0  0  0  2  0  0  0  0  0  0
  188.0120  175.1920  140.9420 C   0  0  0  0  0  1  0  0  0  0  0  0
  190.8310  173.1980  141.6530 C   0  0  0  0  0  2  0  0  0  0  0  0
  187.9590  172.4130  139.7370 O   0  0  0  0  0  0  0  0  0  0  0  0
  188.4510  173.8900  141.5800 C   0  0  1  0  0  3  0  0  0  0  0  0
  188.7950  172.9050  140.5390 C   0  0  0  0  0  0  0  0  0  0  0  0
  189.7800  174.1060  142.3150 C   0  0  1  0  0  3  0  0  0  0  0  0
  190.1570  172.5350  140.5520 N   0  0  0  0  0  0  0  0  0  0  0  0
  190.8370  173.0460  144.1050 C   0  0  0  0  0  1  0  0  0  0  0  0
  189.6230  173.7360  143.7120 N   0  0  0  0  0  2  0  0  0  0  0  0
  195.2840  176.1680  141.0120 N   0  0  0  0  0  2  0  0  0  0  0  0
  196.4960  176.3740  141.7800 C   0  0  0  0  0  2  0  0  0  0  0  0
  196.2000  176.3830  143.2730 C   0  0  2  0  0  3  0  0  0  0  0  0
  197.1390  175.1090  144.0880 Cl  0  0  0  0  0  0  0  0  0  0  0  0
  194.7100  176.2340  143.5720 C   0  0  0  0  0  2  0  0  0  0  0  0
  194.4510  175.4010  144.8220 C   0  0  0  0  0  2  0  0  0  0  0  0
  191.5230  175.6540  147.2060 C   0  0  2  0  0  3  0  0  0  0  0  0
  188.8000  177.7840  144.1850 C   0  0  0  0  0  3  0  0  0  0  0  0
  190.9520  176.6290  144.9640 C   0  0  0  0  0  0  0  0  0  0  0  0
  190.5250  176.0560  146.2160 N   0  0  0  0  0  0  0  0  0  0  0  0
  191.7180  176.7260  148.1640 N   0  0  0  0  0  1  0  0  0  0  0  0
  190.0660  177.3720  144.0420 C   0  0  0  0  0  3  0  0  0  0  0  0
  188.4810  177.2510  146.6450 C   0  0  0  0  0  2  0  0  0  0  0  0
  192.8010  175.3270  146.5760 N   0  0  0  0  0  0  0  0  0  0  0  0
  193.1220  175.7430  145.3890 C   0  0  0  0  0  0  0  0  0  0  0  0
  189.1280  175.8930  146.5690 C   0  0  0  0  0  2  0  0  0  0  0  0
  187.9580  177.6130  145.3390 N   0  0  0  0  0  0  0  0  0  0  0  0
  192.1810  176.4650  144.5900 N   0  0  0  0  0  0  0  0  0  0  0  0
  185.6870  177.0620  144.6250 C   0  0  2  0  0  3  0  0  0  0  0  0
  185.6620  177.2770  146.1170 C   0  0  0  0  0  2  0  0  0  0  0  0
  186.5890  178.1100  145.2560 C   0  0  1  0  0  3  0  0  0  0  0  0
  184.5890  177.7020  144.0460 O   0  0  0  0  0  0  0  0  0  0  0  0
  184.1360  178.6880  142.2770 O   0  0  0  0  0  1  0  0  0  0  0  0
  184.8250  177.6770  142.7530 O   0  0  0  0  0  0  0  0  0  0  0  0
  1  3  1  0  0  0  0
  1 27  1  0  0  0  0
  3  2  2  0  0  0  0
  4  2  1  6  0  0  0
  4  5  1  0  0  0  0
  5 11  1  0  0  0  0
  6  8  2  0  0  0  0
  8 10  1  0  0  0  0
  8  7  1  0  0  0  0
  9  5  2  0  0  0  0
  9  6  1  0  0  0  0
 11 10  2  0  0  0  0
 12  4  1  0  0  0  0
 14 17  1  0  0  0  0
 14 16  1  0  0  0  0
 15 17  1  6  0  0  0
 15 13  1  0  0  0  0
 15 24  1  0  0  0  0
 16 12  1  1  0  0  0
 16 13  1  0  0  0  0
 19 23  1  0  0  0  0
 20 22  2  0  0  0  0
 21 18  1  6  0  0  0
 21 23  1  0  0  0  0
 22 24  1  0  0  0  0
 22 21  1  0  0  0  0
 23 26  1  1  0  0  0
 24 19  1  0  0  0  0
 26 25  1  0  0  0  0
 27 28  1  0  0  0  0
 28 29  1  0  0  0  0
 29 31  1  0  0  0  0
 29 30  1  1  0  0  0
 31 32  1  0  0  0  0
 32 41  1  0  0  0  0
 33 37  1  1  0  0  0
 34 43  1  0  0  0  0
 35 36  1  0  0  0  0
 36 42  1  0  0  0  0
 36 33  1  0  0  0  0
 38 34  2  0  0  0  0
 38 35  1  0  0  0  0
 40 33  1  0  0  0  0
 41 40  2  0  0  0  0
 42 39  1  0  0  0  0
 43 39  1  0  0  0  0
 44 35  2  0  0  0  0
 44 41  1  0  0  0  0
 45 48  1  6  0  0  0
 45 47  1  0  0  0  0
 45 46  1  0  0  0  0
 47 43  1  1  0  0  0
 47 46  1  0  0  0  0
 49 50  1  0  0  0  0
 50 48  1  0  0  0  0
M  END
>  <MODEL>
6

>  <REMARK>
 VINA RESULT:      -6.1      2.905      6.790
  Name = 
  16 active torsions:
  status: ('A' for Active; 'I' for Inactive)
    1  A    between atoms: C_2  and  C_43
    2  A    between atoms: C_8  and  O_44
    3  A    between atoms: N_13  and  C_32
    4  A    between atoms: N_13  and  C_38
    5  A    between atoms: N_20  and  C_39
    6  A    between atoms: C_25  and  C_35
    7  A    between atoms: C_25  and  C_38
    8  A    between atoms: C_27  and  C_43
    9  A    between atoms: C_28  and  N_42
   10  A    between atoms: C_29  and  N_46
   11  A    between atoms: C_31  and  C_50
   12  A    between atoms: C_32  and  N_48
   13  A    between atoms: C_35  and  C_50
   14  A    between atoms: N_40  and  C_41
   15  A    between atoms: C_43  and  N_46
   16  A    between atoms: O_44  and  O_49
                            x       y       z     vdW  Elec       q    Type
                         _______ _______ _______ _____ _____    ______ ____

>  <TORSDO>
F 16

$$$$
=
 OpenBabel11042419493D

 50 55  0  0  1  0  0  0  0  0999 V2000
  186.8080  176.8080  141.6980 C   0  0  0  0  0  2  0  0  0  0  0  0
  187.7810  174.6640  142.0140 C   0  0  0  0  0  3  0  0  0  0  0  0
  187.9140  175.8850  141.6400 N   0  0  0  0  0  0  0  0  0  0  0  0
  188.9370  173.7170  141.9250 C   0  0  2  0  0  3  0  0  0  0  0  0
  189.2800  173.4140  140.4980 C   0  0  0  0  0  0  0  0  0  0  0  0
  190.8830  173.4950  138.6850 C   0  0  0  0  0  3  0  0  0  0  0  0
  190.2880  172.6280  136.5140 O   0  0  0  0  0  1  0  0  0  0  0  0
  189.9550  172.8880  137.8330 C   0  0  0  0  0  0  0  0  0  0  0  0
  190.5460  173.7570  140.0140 C   0  0  0  0  0  3  0  0  0  0  0  0
  188.6850  172.5450  138.3110 C   0  0  0  0  0  3  0  0  0  0  0  0
  188.3490  172.8070  139.6400 C   0  0  0  0  0  3  0  0  0  0  0  0
  188.6270  172.4870  142.6370 N   0  0  0  0  0  2  0  0  0  0  0  0
  190.5640  171.0360  142.8060 C   0  0  0  0  0  2  0  0  0  0  0  0
  190.7310  173.3240  143.5410 C   0  0  0  0  0  2  0  0  0  0  0  0
  192.0340  171.3480  143.0340 C   0  0  2  0  0  3  0  0  0  0  0  0
  189.7800  172.1510  143.4590 C   0  0  1  0  0  3  0  0  0  0  0  0
  192.1070  172.7140  143.6960 C   0  0  0  0  0  2  0  0  0  0  0  0
  195.0160  172.7260  139.5710 C   0  0  0  0  0  1  0  0  0  0  0  0
  192.3000  170.7010  140.5490 C   0  0  0  0  0  2  0  0  0  0  0  0
  194.7710  172.2540  142.5530 O   0  0  0  0  0  0  0  0  0  0  0  0
  194.6530  171.4400  140.2850 C   0  0  1  0  0  3  0  0  0  0  0  0
  194.1030  171.7390  141.6200 C   0  0  0  0  0  0  0  0  0  0  0  0
  193.4790  170.7690  139.5610 C   0  0  1  0  0  3  0  0  0  0  0  0
  192.7520  171.3540  141.7620 N   0  0  0  0  0  0  0  0  0  0  0  0
  192.9780  169.0350  138.0820 C   0  0  0  0  0  1  0  0  0  0  0  0
  193.8640  169.4250  139.1630 N   0  0  0  0  0  2  0  0  0  0  0  0
  187.2870  178.1760  141.8700 N   0  0  0  0  0  2  0  0  0  0  0  0
  186.1850  178.9770  142.3680 C   0  0  0  0  0  2  0  0  0  0  0  0
  185.4420  178.2490  143.4790 C   0  0  2  0  0  3  0  0  0  0  0  0
  183.8100  178.9350  143.6700 Cl  0  0  0  0  0  0  0  0  0  0  0  0
  186.2010  178.2790  144.8040 C   0  0  0  0  0  2  0  0  0  0  0  0
  186.2350  176.9150  145.4820 C   0  0  0  0  0  2  0  0  0  0  0  0
  189.2860  175.4700  147.1940 C   0  0  2  0  0  3  0  0  0  0  0  0
  192.2380  177.1050  144.0820 C   0  0  0  0  0  3  0  0  0  0  0  0
  189.9270  176.7600  145.1380 C   0  0  0  0  0  0  0  0  0  0  0  0
  190.2860  176.2020  146.4180 N   0  0  0  0  0  0  0  0  0  0  0  0
  189.4100  174.0490  146.9330 N   0  0  0  0  0  1  0  0  0  0  0  0
  190.9040  177.2150  144.1240 C   0  0  0  0  0  3  0  0  0  0  0  0
  192.5770  175.5580  146.0630 C   0  0  0  0  0  2  0  0  0  0  0  0
  187.9300  175.9070  146.8680 N   0  0  0  0  0  0  0  0  0  0  0  0
  187.6410  176.5280  145.7650 C   0  0  0  0  0  0  0  0  0  0  0  0
  191.6240  176.2940  146.9680 C   0  0  0  0  0  2  0  0  0  0  0  0
  193.0870  176.4680  145.0520 N   0  0  0  0  0  0  0  0  0  0  0  0
  188.6730  176.9100  144.8520 N   0  0  0  0  0  0  0  0  0  0  0  0
  195.0580  175.0990  144.5940 C   0  0  2  0  0  3  0  0  0  0  0  0
  194.8560  176.0240  143.4200 C   0  0  0  0  0  2  0  0  0  0  0  0
  194.5260  176.5050  144.8190 C   0  0  1  0  0  3  0  0  0  0  0  0
  196.4120  175.0700  144.9340 O   0  0  0  0  0  0  0  0  0  0  0  0
  196.2770  173.1380  145.6810 O   0  0  0  0  0  1  0  0  0  0  0  0
  196.7950  173.8350  144.6960 O   0  0  0  0  0  0  0  0  0  0  0  0
  1 27  1  0  0  0  0
  3  1  1  0  0  0  0
  3  2  2  0  0  0  0
  4  2  1  6  0  0  0
  4 12  1  0  0  0  0
  5  4  1  0  0  0  0
  6  9  2  0  0  0  0
  7  8  1  0  0  0  0
  8 10  2  0  0  0  0
  8  6  1  0  0  0  0
  9  5  1  0  0  0  0
 10 11  1  0  0  0  0
 11  5  2  0  0  0  0
 13 15  1  0  0  0  0
 13 16  1  0  0  0  0
 14 17  1  0  0  0  0
 15 24  1  6  0  0  0
 15 17  1  0  0  0  0
 16 12  1  6  0  0  0
 16 14  1  0  0  0  0
 19 24  1  0  0  0  0
 21 18  1  6  0  0  0
 21 22  1  0  0  0  0
 22 24  1  0  0  0  0
 22 20  2  0  0  0  0
 23 26  1  1  0  0  0
 23 21  1  0  0  0  0
 23 19  1  0  0  0  0
 25 26  1  0  0  0  0
 27 28  1  0  0  0  0
 28 29  1  0  0  0  0
 29 30  1  1  0  0  0
 29 31  1  0  0  0  0
 31 32  1  0  0  0  0
 32 41  1  0  0  0  0
 33 37  1  6  0  0  0
 34 38  2  0  0  0  0
 34 43  1  0  0  0  0
 35 36  1  0  0  0  0
 36 42  1  0  0  0  0
 36 33  1  0  0  0  0
 38 35  1  0  0  0  0
 39 42  1  0  0  0  0
 40 33  1  0  0  0  0
 41 40  2  0  0  0  0
 43 39  1  0  0  0  0
 44 35  2  0  0  0  0
 44 41  1  0  0  0  0
 45 47  1  0  0  0  0
 45 48  1  1  0  0  0
 46 45  1  0  0  0  0
 47 46  1  6  0  0  0
 47 43  1  0  0  0  0
 50 48  1  0  0  0  0
 50 49  1  0  0  0  0
M  END
>  <MODEL>
7

>  <REMARK>
 VINA RESULT:      -6.1      3.465      7.980
  Name = 
  16 active torsions:
  status: ('A' for Active; 'I' for Inactive)
    1  A    between atoms: C_2  and  C_43
    2  A    between atoms: C_8  and  O_44
    3  A    between atoms: N_13  and  C_32
    4  A    between atoms: N_13  and  C_38
    5  A    between atoms: N_20  and  C_39
    6  A    between atoms: C_25  and  C_35
    7  A    between atoms: C_25  and  C_38
    8  A    between atoms: C_27  and  C_43
    9  A    between atoms: C_28  and  N_42
   10  A    between atoms: C_29  and  N_46
   11  A    between atoms: C_31  and  C_50
   12  A    between atoms: C_32  and  N_48
   13  A    between atoms: C_35  and  C_50
   14  A    between atoms: N_40  and  C_41
   15  A    between atoms: C_43  and  N_46
   16  A    between atoms: O_44  and  O_49
                            x       y       z     vdW  Elec       q    Type
                         _______ _______ _______ _____ _____    ______ ____

>  <TORSDO>
F 16

$$$$
=
 OpenBabel11042419493D

 50 55  0  0  1  0  0  0  0  0999 V2000
  194.9770  175.6730  140.3120 C   0  0  0  0  0  2  0  0  0  0  0  0
  193.3890  174.2030  141.2920 C   0  0  0  0  0  3  0  0  0  0  0  0
  194.0180  174.6000  140.2450 N   0  0  0  0  0  0  0  0  0  0  0  0
  192.3800  173.1020  141.1950 C   0  0  2  0  0  3  0  0  0  0  0  0
  191.0060  173.5940  141.5360 C   0  0  0  0  0  0  0  0  0  0  0  0
  188.8380  174.3780  140.7950 C   0  0  0  0  0  3  0  0  0  0  0  0
  187.1690  175.0090  142.4180 O   0  0  0  0  0  1  0  0  0  0  0  0
  188.4390  174.5400  142.1250 C   0  0  0  0  0  0  0  0  0  0  0  0
  190.1190  173.9070  140.5010 C   0  0  0  0  0  3  0  0  0  0  0  0
  189.3240  174.2330  143.1650 C   0  0  0  0  0  3  0  0  0  0  0  0
  190.6040  173.7600  142.8700 C   0  0  0  0  0  3  0  0  0  0  0  0
  192.7530  172.0090  142.0790 N   0  0  0  0  0  2  0  0  0  0  0  0
  191.6430  170.6070  140.4390 C   0  0  0  0  0  2  0  0  0  0  0  0
  194.0170  170.9790  140.2660 C   0  0  0  0  0  2  0  0  0  0  0  0
  192.0970  170.1010  139.0800 C   0  0  2  0  0  3  0  0  0  0  0  0
  192.8930  170.8120  141.2640 C   0  0  1  0  0  3  0  0  0  0  0  0
  193.6170  170.1450  139.0690 C   0  0  0  0  0  2  0  0  0  0  0  0
  189.3760  171.5030  135.4170 C   0  0  0  0  0  1  0  0  0  0  0  0
  192.2540  172.0400  137.3830 C   0  0  0  0  0  2  0  0  0  0  0  0
  189.3270  170.2030  138.1520 O   0  0  0  0  0  0  0  0  0  0  0  0
  189.8610  172.0790  136.7330 C   0  0  1  0  0  3  0  0  0  0  0  0
  190.1830  170.9910  137.6740 C   0  0  0  0  0  0  0  0  0  0  0  0
  191.2120  172.7720  136.5180 C   0  0  1  0  0  3  0  0  0  0  0  0
  191.5510  170.9420  138.0190 N   0  0  0  0  0  0  0  0  0  0  0  0
  191.4830  174.9750  135.7970 C   0  0  0  0  0  1  0  0  0  0  0  0
  191.1130  174.1590  136.9390 N   0  0  0  0  0  2  0  0  0  0  0  0
  194.8310  176.4190  141.5580 N   0  0  0  0  0  2  0  0  0  0  0  0
  196.1160  176.4280  142.2290 C   0  0  0  0  0  2  0  0  0  0  0  0
  195.9770  175.9780  143.6760 C   0  0  2  0  0  3  0  0  0  0  0  0
  196.0620  174.2020  143.7730 Cl  0  0  0  0  0  0  0  0  0  0  0  0
  194.6970  176.4960  144.3270 C   0  0  0  0  0  2  0  0  0  0  0  0
  194.3370  175.7250  145.5910 C   0  0  0  0  0  2  0  0  0  0  0  0
  191.2120  176.0760  147.6980 C   0  0  2  0  0  3  0  0  0  0  0  0
  188.7130  177.9040  144.3080 C   0  0  0  0  0  3  0  0  0  0  0  0
  190.8140  176.8670  145.3480 C   0  0  0  0  0  0  0  0  0  0  0  0
  190.2940  176.3770  146.6000 N   0  0  0  0  0  0  0  0  0  0  0  0
  191.3040  177.2200  148.5840 N   0  0  0  0  0  1  0  0  0  0  0  0
  189.9950  177.5160  144.3020 C   0  0  0  0  0  3  0  0  0  0  0  0
  188.1980  177.5470  146.7660 C   0  0  0  0  0  2  0  0  0  0  0  0
  192.5450  175.7370  147.2020 N   0  0  0  0  0  0  0  0  0  0  0  0
  192.9580  176.0720  146.0180 C   0  0  0  0  0  0  0  0  0  0  0  0
  188.8760  176.2040  146.8470 C   0  0  0  0  0  2  0  0  0  0  0  0
  187.7800  177.7970  145.3970 N   0  0  0  0  0  0  0  0  0  0  0  0
  192.0740  176.7080  145.0910 N   0  0  0  0  0  0  0  0  0  0  0  0
  185.6320  177.1920  144.4040 C   0  0  2  0  0  3  0  0  0  0  0  0
  185.4220  177.3630  145.8870 C   0  0  0  0  0  2  0  0  0  0  0  0
  186.4140  178.2510  145.1640 C   0  0  1  0  0  3  0  0  0  0  0  0
  184.5880  177.8120  143.7130 O   0  0  0  0  0  0  0  0  0  0  0  0
  184.1200  178.4400  141.7910 O   0  0  0  0  0  1  0  0  0  0  0  0
  184.8050  177.5320  142.4470 O   0  0  0  0  0  0  0  0  0  0  0  0
  1 27  1  0  0  0  0
  3  1  1  0  0  0  0
  3  2  2  0  0  0  0
  4  2  1  1  0  0  0
  4  5  1  0  0  0  0
  4 12  1  0  0  0  0
  5 11  1  0  0  0  0
  6  8  2  0  0  0  0
  8  7  1  0  0  0  0
  8 10  1  0  0  0  0
  9  6  1  0  0  0  0
  9  5  2  0  0  0  0
 11 10  2  0  0  0  0
 13 16  1  0  0  0  0
 14 16  1  0  0  0  0
 15 24  1  6  0  0  0
 15 13  1  0  0  0  0
 16 12  1  6  0  0  0
 17 15  1  0  0  0  0
 17 14  1  0  0  0  0
 19 24  1  0  0  0  0
 21 18  1  6  0  0  0
 21 22  1  0  0  0  0
 22 24  1  0  0  0  0
 22 20  2  0  0  0  0
 23 21  1  0  0  0  0
 23 26  1  1  0  0  0
 23 19  1  0  0  0  0
 25 26  1  0  0  0  0
 27 28  1  0  0  0  0
 28 29  1  0  0  0  0
 29 30  1  6  0  0  0
 29 31  1  0  0  0  0
 31 32  1  0  0  0  0
 32 41  1  0  0  0  0
 33 37  1  1  0  0  0
 34 43  1  0  0  0  0
 35 36  1  0  0  0  0
 36 42  1  0  0  0  0
 36 33  1  0  0  0  0
 38 34  2  0  0  0  0
 38 35  1  0  0  0  0
 39 42  1  0  0  0  0
 40 33  1  0  0  0  0
 41 40  2  0  0  0  0
 43 39  1  0  0  0  0
 44 35  2  0  0  0  0
 44 41  1  0  0  0  0
 45 48  1  6  0  0  0
 45 47  1  0  0  0  0
 45 46  1  0  0  0  0
 47 43  1  1  0  0  0
 47 46  1  0  0  0  0
 49 50  1  0  0  0  0
 50 48  1  0  0  0  0
M  END
>  <MODEL>
8

>  <REMARK>
 VINA RESULT:      -6.0      2.861      8.036
  Name = 
  16 active torsions:
  status: ('A' for Active; 'I' for Inactive)
    1  A    between atoms: C_2  and  C_43
    2  A    between atoms: C_8  and  O_44
    3  A    between atoms: N_13  and  C_32
    4  A    between atoms: N_13  and  C_38
    5  A    between atoms: N_20  and  C_39
    6  A    between atoms: C_25  and  C_35
    7  A    between atoms: C_25  and  C_38
    8  A    between atoms: C_27  and  C_43
    9  A    between atoms: C_28  and  N_42
   10  A    between atoms: C_29  and  N_46
   11  A    between atoms: C_31  and  C_50
   12  A    between atoms: C_32  and  N_48
   13  A    between atoms: C_35  and  C_50
   14  A    between atoms: N_40  and  C_41
   15  A    between atoms: C_43  and  N_46
   16  A    between atoms: O_44  and  O_49
                            x       y       z     vdW  Elec       q    Type
                         _______ _______ _______ _____ _____    ______ ____

>  <TORSDO>
F 16

$$$$
=
 OpenBabel11042419493D

 50 55  0  0  1  0  0  0  0  0999 V2000
  190.4580  170.8830  140.2250 C   0  0  0  0  0  2  0  0  0  0  0  0
  190.9810  172.3990  141.9770 C   0  0  0  0  0  3  0  0  0  0  0  0
  191.1820  172.0020  140.7730 N   0  0  0  0  0  0  0  0  0  0  0  0
  191.7600  173.5500  142.5330 C   0  0  2  0  0  3  0  0  0  0  0  0
  192.9130  173.0730  143.3620 C   0  0  0  0  0  0  0  0  0  0  0  0
  195.1100  172.0600  143.4770 C   0  0  0  0  0  3  0  0  0  0  0  0
  196.1510  171.6880  145.6210 O   0  0  0  0  0  1  0  0  0  0  0  0
  195.0800  172.1460  144.8720 C   0  0  0  0  0  0  0  0  0  0  0  0
  194.0290  172.5220  142.7240 C   0  0  0  0  0  3  0  0  0  0  0  0
  193.9650  172.6930  145.5170 C   0  0  0  0  0  3  0  0  0  0  0  0
  192.8840  173.1560  144.7630 C   0  0  0  0  0  3  0  0  0  0  0  0
  190.8890  174.4000  143.3300 N   0  0  0  0  0  2  0  0  0  0  0  0
  189.6150  176.2380  142.3880 C   0  0  0  0  0  2  0  0  0  0  0  0
  191.4540  176.7100  143.8710 C   0  0  0  0  0  2  0  0  0  0  0  0
  189.5440  177.7070  142.7680 C   0  0  2  0  0  3  0  0  0  0  0  0
  190.9860  175.7510  142.7990 C   0  0  1  0  0  3  0  0  0  0  0  0
  190.8200  178.0390  143.5250 C   0  0  0  0  0  2  0  0  0  0  0  0
  185.3820  179.5330  144.2290 C   0  0  0  0  0  1  0  0  0  0  0  0
  188.3080  177.7380  145.0340 C   0  0  0  0  0  2  0  0  0  0  0  0
  186.8250  178.3000  141.8690 O   0  0  0  0  0  0  0  0  0  0  0  0
  186.0340  178.1670  144.1440 C   0  0  1  0  0  3  0  0  0  0  0  0
  187.0700  178.1650  143.0950 C   0  0  0  0  0  0  0  0  0  0  0  0
  186.8290  177.9020  145.4280 C   0  0  1  0  0  3  0  0  0  0  0  0
  188.3710  177.9570  143.6020 N   0  0  0  0  0  0  0  0  0  0  0  0
  186.0180  177.0020  147.4220 C   0  0  0  0  0  1  0  0  0  0  0  0
  186.3470  176.6780  146.0470 N   0  0  0  0  0  2  0  0  0  0  0  0
  190.1540  171.1060  138.8150 N   0  0  0  0  0  2  0  0  0  0  0  0
  191.3840  171.4820  138.1450 C   0  0  0  0  0  2  0  0  0  0  0  0
  191.1070  171.9620  136.7280 C   0  0  2  0  0  3  0  0  0  0  0  0
  191.1610  170.5880  135.5970 Cl  0  0  0  0  0  0  0  0  0  0  0  0
  192.0690  173.0640  136.2880 C   0  0  0  0  0  2  0  0  0  0  0  0
  193.4730  172.5340  136.0230 C   0  0  0  0  0  2  0  0  0  0  0  0
  196.6070  173.0830  138.0740 C   0  0  2  0  0  3  0  0  0  0  0  0
  194.5460  175.8190  141.1300 C   0  0  0  0  0  3  0  0  0  0  0  0
  194.6450  174.2870  139.0770 C   0  0  0  0  0  0  0  0  0  0  0  0
  195.9550  173.7040  139.2260 N   0  0  0  0  0  0  0  0  0  0  0  0
  197.4890  174.0410  137.4370 N   0  0  0  0  0  1  0  0  0  0  0  0
  194.0340  175.2230  140.0460 C   0  0  0  0  0  3  0  0  0  0  0  0
  196.9810  175.1760  140.8300 C   0  0  0  0  0  2  0  0  0  0  0  0
  195.6270  172.6020  137.1010 N   0  0  0  0  0  0  0  0  0  0  0  0
  194.4070  173.0420  137.0610 C   0  0  0  0  0  0  0  0  0  0  0  0
  196.6930  173.7410  140.4730 C   0  0  0  0  0  2  0  0  0  0  0  0
  195.8890  175.7040  141.6300 N   0  0  0  0  0  0  0  0  0  0  0  0
  193.9290  173.9560  138.0500 N   0  0  0  0  0  0  0  0  0  0  0  0
  195.3700  175.8940  144.0100 C   0  0  2  0  0  3  0  0  0  0  0  0
  196.8120  175.4730  143.8850 C   0  0  0  0  0  2  0  0  0  0  0  0
  196.2160  176.4170  142.8600 C   0  0  1  0  0  3  0  0  0  0  0  0
  195.2600  176.8940  144.9790 O   0  0  0  0  0  0  0  0  0  0  0  0
  194.3480  177.3430  146.7880 O   0  0  0  0  0  1  0  0  0  0  0  0
  194.3720  176.4400  145.8350 O   0  0  0  0  0  0  0  0  0  0  0  0
  1  3  1  0  0  0  0
  3  2  2  0  0  0  0
  4  2  1  1  0  0  0
  4 12  1  0  0  0  0
  4  5  1  0  0  0  0
  5 11  1  0  0  0  0
  6  8  2  0  0  0  0
  8 10  1  0  0  0  0
  8  7  1  0  0  0  0
  9  5  2  0  0  0  0
  9  6  1  0  0  0  0
 11 10  2  0  0  0  0
 13 16  1  0  0  0  0
 15 13  1  1  0  0  0
 15 17  1  0  0  0  0
 15 24  1  0  0  0  0
 16 12  1  1  0  0  0
 16 14  1  0  0  0  0
 17 14  1  0  0  0  0
 19 23  1  0  0  0  0
 20 22  2  0  0  0  0
 21 18  1  1  0  0  0
 21 23  1  0  0  0  0
 22 24  1  0  0  0  0
 22 21  1  0  0  0  0
 23 26  1  6  0  0  0
 24 19  1  0  0  0  0
 26 25  1  0  0  0  0
 27  1  1  0  0  0  0
 28 27  1  0  0  0  0
 29 30  1  6  0  0  0
 29 28  1  0  0  0  0
 31 29  1  0  0  0  0
 32 31  1  0  0  0  0
 32 41  1  0  0  0  0
 33 37  1  6  0  0  0
 33 36  1  0  0  0  0
 34 43  1  0  0  0  0
 35 36  1  0  0  0  0
 35 38  1  0  0  0  0
 36 42  1  0  0  0  0
 38 34  2  0  0  0  0
 39 43  1  0  0  0  0
 40 33  1  0  0  0  0
 41 40  2  0  0  0  0
 41 44  1  0  0  0  0
 42 39  1  0  0  0  0
 44 35  2  0  0  0  0
 45 48  1  1  0  0  0
 46 45  1  0  0  0  0
 47 43  1  6  0  0  0
 47 46  1  0  0  0  0
 47 45  1  0  0  0  0
 48 50  1  0  0  0  0
 50 49  1  0  0  0  0
M  END
>  <MODEL>
9

>  <REMARK>
 VINA RESULT:      -5.9      1.994      2.710
  Name = 
  16 active torsions:
  status: ('A' for Active; 'I' for Inactive)
    1  A    between atoms: C_2  and  C_43
    2  A    between atoms: C_8  and  O_44
    3  A    between atoms: N_13  and  C_32
    4  A    between atoms: N_13  and  C_38
    5  A    between atoms: N_20  and  C_39
    6  A    between atoms: C_25  and  C_35
    7  A    between atoms: C_25  and  C_38
    8  A    between atoms: C_27  and  C_43
    9  A    between atoms: C_28  and  N_42
   10  A    between atoms: C_29  and  N_46
   11  A    between atoms: C_31  and  C_50
   12  A    between atoms: C_32  and  N_48
   13  A    between atoms: C_35  and  C_50
   14  A    between atoms: N_40  and  C_41
   15  A    between atoms: C_43  and  N_46
   16  A    between atoms: O_44  and  O_49
                            x       y       z     vdW  Elec       q    Type
                         _______ _______ _______ _____ _____    ______ ____

>  <TORSDO>
F 16

$$$$
