=
 OpenBabel11042418403D

 34 40  0  0  1  0  0  0  0  0999 V2000
  193.0380  172.5850  144.7540 C   0  0  0  0  0  0  0  0  0  0  0  0
  195.1390  172.2370  145.2390 C   0  0  0  0  0  0  0  0  0  0  0  0
  193.3340  171.1430  144.7910 C   0  0  0  0  0  3  0  0  0  0  0  0
  196.2940  172.5010  145.7600 N   0  0  0  0  0  0  0  0  0  0  0  0
  190.7730  174.2770  144.6430 C   0  0  1  0  0  0  0  0  0  0  0  0
  193.2860  175.9770  145.2170 S   0  0  0  0  0  0  0  0  0  0  0  0
  190.2410  173.0080  144.5670 C   0  0  1  0  0  3  0  0  0  0  0  0
  189.9610  174.0740  142.3820 C   0  0  1  0  0  3  0  0  0  0  0  0
  190.7390  174.9900  143.3010 C   0  0  0  0  0  2  0  0  0  0  0  0
  189.8710  172.7460  143.1140 C   0  0  0  0  0  2  0  0  0  0  0  0
  196.7380  173.8920  145.9710 C   0  0  0  0  0  2  0  0  0  0  0  0
  194.5840  170.9400  145.0880 N   0  0  0  0  0  0  0  0  0  0  0  0
  195.6410  174.8820  145.8670 N   0  0  0  0  0  0  0  0  0  0  0  0
  190.5880  175.0060  145.9800 C   0  0  1  0  0  3  0  0  0  0  0  0
  194.1570  173.2440  145.0110 C   0  0  0  0  0  0  0  0  0  0  0  0
  194.4550  174.6280  145.3890 C   0  0  0  0  0  0  0  0  0  0  0  0
  191.7300  173.1400  144.6890 N   0  0  0  0  0  0  0  0  0  0  0  0
  192.1380  175.3490  146.9040 S   0  0  0  0  0  0  0  0  0  0  0  0
  188.4340  176.0480  142.0160 N   0  0  0  0  0  2  0  0  0  0  0  0
  187.5970  173.8680  142.0370 O   0  0  0  0  0  0  0  0  0  0  0  0
  188.5960  174.6340  142.1300 C   0  0  0  0  0  0  0  0  0  0  0  0
  187.2770  178.0570  141.7820 O   0  0  0  0  0  0  0  0  0  0  0  0
  187.1360  177.4160  140.5380 C   0  0  0  0  0  2  0  0  0  0  0  0
  187.1320  176.6580  141.8060 C   0  0  1  0  0  3  0  0  0  0  0  0
  189.7660  176.2750  145.8170 C   0  0  0  0  0  2  0  0  0  0  0  0
  188.3670  175.9390  145.6040 N   0  0  0  0  0  2  0  0  0  0  0  0
  187.6690  176.1970  146.8530 C   0  0  0  0  0  2  0  0  0  0  0  0
  184.9010  178.0890  145.1160 C   0  0  0  0  0  0  0  0  0  0  0  0
  185.8500  177.7130  147.6700 C   0  0  0  0  0  3  0  0  0  0  0  0
  186.0000  177.2560  145.3140 C   0  0  0  0  0  3  0  0  0  0  0  0
  186.4760  177.0600  146.6090 C   0  0  0  0  0  0  0  0  0  0  0  0
  184.3200  178.6990  146.1830 N   0  0  0  0  0  0  0  0  0  0  0  0
  184.3650  178.3110  143.7470 C   0  0  0  0  0  1  0  0  0  0  0  0
  184.7820  178.5170  147.4230 N   0  0  0  0  0  0  0  0  0  0  0  0
  1  3  1  0  0  0  0
  1 15  2  0  0  0  0
  2  4  2  0  0  0  0
  3 12  2  0  0  0  0
  4 11  1  0  0  0  0
  5  9  1  6  0  0  0
  5 17  1  0  0  0  0
  5 14  1  0  0  0  0
  6 16  1  0  0  0  0
  6 18  1  0  0  0  0
  7 10  1  6  0  0  0
  7  5  1  0  0  0  0
  7 17  1  0  0  0  0
  8 21  1  1  0  0  0
  8 10  1  0  0  0  0
  8  9  1  0  0  0  0
 12  2  1  0  0  0  0
 13 11  1  0  0  0  0
 14 25  1  6  0  0  0
 14 18  1  0  0  0  0
 15  2  1  0  0  0  0
 15 16  1  0  0  0  0
 16 13  2  0  0  0  0
 17  1  1  0  0  0  0
 19 21  1  0  0  0  0
 20 21  2  0  0  0  0
 22 24  1  0  0  0  0
 23 22  1  0  0  0  0
 23 24  1  0  0  0  0
 24 19  1  6  0  0  0
 26 25  1  0  0  0  0
 26 27  1  0  0  0  0
 28 30  2  0  0  0  0
 28 32  1  0  0  0  0
 30 31  1  0  0  0  0
 31 27  1  0  0  0  0
 31 29  2  0  0  0  0
 32 34  2  0  0  0  0
 33 28  1  0  0  0  0
 34 29  1  0  0  0  0
M  END
>  <MODEL>
1

>  <REMARK>
 VINA RESULT:      -7.9      0.000      0.000
  Name = 
  6 active torsions:
  status: ('A' for Active; 'I' for Inactive)
    1  A    between atoms: N_11  and  C_32
    2  A    between atoms: C_14  and  C_26
    3  A    between atoms: C_16  and  C_34
    4  A    between atoms: N_23  and  C_26
    5  A    between atoms: N_23  and  C_28
    6  A    between atoms: C_27  and  C_28
                            x       y       z     vdW  Elec       q    Type
                         _______ _______ _______ _____ _____    ______ ____

>  <TORSDO>
F 6

$$$$
=
 OpenBabel11042418403D

 34 40  0  0  1  0  0  0  0  0999 V2000
  187.5270  177.4460  143.8270 C   0  0  0  0  0  0  0  0  0  0  0  0
  185.7860  178.5570  144.5370 C   0  0  0  0  0  0  0  0  0  0  0  0
  187.0230  178.3510  142.7810 C   0  0  0  0  0  3  0  0  0  0  0  0
  185.0140  179.1170  145.4120 N   0  0  0  0  0  0  0  0  0  0  0  0
  189.8060  175.8420  144.3180 C   0  0  1  0  0  0  0  0  0  0  0  0
  188.0950  175.9910  146.8830 S   0  0  0  0  0  0  0  0  0  0  0  0
  190.0270  176.3510  143.0560 C   0  0  1  0  0  3  0  0  0  0  0  0
  189.5660  173.9570  142.8320 C   0  0  1  0  0  3  0  0  0  0  0  0
  189.4100  174.3740  144.2780 C   0  0  0  0  0  2  0  0  0  0  0  0
  189.7130  175.2520  142.0510 C   0  0  0  0  0  2  0  0  0  0  0  0
  184.9500  178.6240  146.8010 C   0  0  0  0  0  2  0  0  0  0  0  0
  185.9920  179.0170  143.2090 N   0  0  0  0  0  0  0  0  0  0  0  0
  186.0630  177.7130  147.1540 N   0  0  0  0  0  0  0  0  0  0  0  0
  190.6500  176.4480  145.4450 C   0  0  1  0  0  3  0  0  0  0  0  0
  186.7480  177.5670  144.8900 C   0  0  0  0  0  0  0  0  0  0  0  0
  186.8820  177.1740  146.2960 C   0  0  0  0  0  0  0  0  0  0  0  0
  188.7680  176.7530  143.7670 N   0  0  0  0  0  0  0  0  0  0  0  0
  189.7040  177.3840  146.7120 S   0  0  0  0  0  0  0  0  0  0  0  0
  191.4360  172.5930  143.8340 N   0  0  0  0  0  2  0  0  0  0  0  0
  191.2350  172.8420  141.5210 O   0  0  0  0  0  0  0  0  0  0  0  0
  190.7820  173.0990  142.6700 C   0  0  0  0  0  0  0  0  0  0  0  0
  193.7620  172.6300  143.7090 O   0  0  0  0  0  0  0  0  0  0  0  0
  193.4800  172.0120  144.9410 C   0  0  0  0  0  2  0  0  0  0  0  0
  192.6390  171.7830  143.7480 C   0  0  1  0  0  3  0  0  0  0  0  0
  191.5420  175.4050  146.1000 C   0  0  0  0  0  2  0  0  0  0  0  0
  192.7260  176.0400  146.6560 N   0  0  0  0  0  2  0  0  0  0  0  0
  193.3810  176.7530  145.5710 C   0  0  0  0  0  2  0  0  0  0  0  0
  196.3400  174.4100  145.4650 C   0  0  0  0  0  0  0  0  0  0  0  0
  195.0560  176.1820  143.7980 C   0  0  0  0  0  3  0  0  0  0  0  0
  195.2200  175.0920  145.9360 C   0  0  0  0  0  3  0  0  0  0  0  0
  194.5660  175.9850  145.0890 C   0  0  0  0  0  0  0  0  0  0  0  0
  196.7760  174.6320  144.1970 N   0  0  0  0  0  0  0  0  0  0  0  0
  197.0540  173.4460  146.3420 C   0  0  0  0  0  1  0  0  0  0  0  0
  196.1530  175.4920  143.3880 N   0  0  0  0  0  0  0  0  0  0  0  0
  1 15  2  0  0  0  0
  2 15  1  0  0  0  0
  2  4  2  0  0  0  0
  3 12  2  0  0  0  0
  3  1  1  0  0  0  0
  4 11  1  0  0  0  0
  5  9  1  1  0  0  0
  5 14  1  0  0  0  0
  7 10  1  6  0  0  0
  7 17  1  0  0  0  0
  7  5  1  0  0  0  0
  8 21  1  1  0  0  0
  8  9  1  0  0  0  0
 10  8  1  0  0  0  0
 11 13  1  0  0  0  0
 12  2  1  0  0  0  0
 14 25  1  1  0  0  0
 14 18  1  0  0  0  0
 15 16  1  0  0  0  0
 16  6  1  0  0  0  0
 16 13  2  0  0  0  0
 17  1  1  0  0  0  0
 17  5  1  0  0  0  0
 18  6  1  0  0  0  0
 20 21  2  0  0  0  0
 21 19  1  0  0  0  0
 22 24  1  0  0  0  0
 22 23  1  0  0  0  0
 24 19  1  1  0  0  0
 24 23  1  0  0  0  0
 25 26  1  0  0  0  0
 27 26  1  0  0  0  0
 28 30  1  0  0  0  0
 28 33  1  0  0  0  0
 29 31  1  0  0  0  0
 31 27  1  0  0  0  0
 31 30  2  0  0  0  0
 32 28  2  0  0  0  0
 34 29  2  0  0  0  0
 34 32  1  0  0  0  0
M  END
>  <MODEL>
2

>  <REMARK>
 VINA RESULT:      -7.8      2.223      8.298
  Name = 
  6 active torsions:
  status: ('A' for Active; 'I' for Inactive)
    1  A    between atoms: N_11  and  C_32
    2  A    between atoms: C_14  and  C_26
    3  A    between atoms: C_16  and  C_34
    4  A    between atoms: N_23  and  C_26
    5  A    between atoms: N_23  and  C_28
    6  A    between atoms: C_27  and  C_28
                            x       y       z     vdW  Elec       q    Type
                         _______ _______ _______ _____ _____    ______ ____

>  <TORSDO>
F 6

$$$$
=
 OpenBabel11042418403D

 34 40  0  0  1  0  0  0  0  0999 V2000
  187.7040  177.5000  145.5580 C   0  0  0  0  0  0  0  0  0  0  0  0
  185.8780  178.6070  146.0150 C   0  0  0  0  0  0  0  0  0  0  0  0
  187.4430  177.5000  147.0070 C   0  0  0  0  0  3  0  0  0  0  0  0
  184.7020  179.0970  145.7890 N   0  0  0  0  0  0  0  0  0  0  0  0
  189.4060  176.1870  143.7170 C   0  0  1  0  0  0  0  0  0  0  0  0
  187.2660  177.7840  142.1660 S   0  0  0  0  0  0  0  0  0  0  0  0
  189.8090  175.7010  144.9420 C   0  0  1  0  0  3  0  0  0  0  0  0
  191.5820  177.1560  144.0880 C   0  0  1  0  0  3  0  0  0  0  0  0
  190.3990  177.1860  143.1450 C   0  0  0  0  0  2  0  0  0  0  0  0
  191.0980  176.4160  145.3220 C   0  0  0  0  0  2  0  0  0  0  0  0
  184.2670  179.4410  144.4220 C   0  0  0  0  0  2  0  0  0  0  0  0
  186.3510  178.1540  147.2750 N   0  0  0  0  0  0  0  0  0  0  0  0
  185.1300  178.8620  143.3670 N   0  0  0  0  0  0  0  0  0  0  0  0
  188.5980  175.2200  142.8420 C   0  0  1  0  0  3  0  0  0  0  0  0
  186.7500  178.1970  144.9650 C   0  0  0  0  0  0  0  0  0  0  0  0
  186.2970  178.3220  143.5760 C   0  0  0  0  0  0  0  0  0  0  0  0
  188.6800  176.6880  144.9130 N   0  0  0  0  0  0  0  0  0  0  0  0
  186.8580  175.7200  142.5270 S   0  0  0  0  0  0  0  0  0  0  0  0
  193.9970  176.4290  144.1120 N   0  0  0  0  0  2  0  0  0  0  0  0
  192.5860  175.8560  142.3410 O   0  0  0  0  0  0  0  0  0  0  0  0
  192.7310  176.4350  143.4530 C   0  0  0  0  0  0  0  0  0  0  0  0
  196.2950  176.5760  143.7590 O   0  0  0  0  0  0  0  0  0  0  0  0
  196.1330  175.4590  144.5980 C   0  0  0  0  0  2  0  0  0  0  0  0
  195.1600  175.7770  143.5340 C   0  0  1  0  0  3  0  0  0  0  0  0
  189.3150  174.9120  141.5370 C   0  0  0  0  0  2  0  0  0  0  0  0
  189.2480  173.4880  141.2560 N   0  0  0  0  0  2  0  0  0  0  0  0
  189.5360  172.7900  142.4980 C   0  0  0  0  0  2  0  0  0  0  0  0
  192.9580  172.7480  144.0930 C   0  0  0  0  0  0  0  0  0  0  0  0
  191.8440  172.4090  141.6020 C   0  0  0  0  0  3  0  0  0  0  0  0
  191.5760  172.8440  143.9520 C   0  0  0  0  0  3  0  0  0  0  0  0
  191.0110  172.6660  142.6910 C   0  0  0  0  0  0  0  0  0  0  0  0
  193.7280  172.4900  143.0020 N   0  0  0  0  0  0  0  0  0  0  0  0
  193.5900  172.9260  145.4270 C   0  0  0  0  0  1  0  0  0  0  0  0
  193.1870  172.3270  141.7930 N   0  0  0  0  0  0  0  0  0  0  0  0
  1  3  1  0  0  0  0
  2 12  1  0  0  0  0
  3 12  2  0  0  0  0
  4  2  2  0  0  0  0
  5  9  1  6  0  0  0
  5 17  1  0  0  0  0
  5  7  1  0  0  0  0
  6 18  1  0  0  0  0
  6 16  1  0  0  0  0
  7 10  1  1  0  0  0
  8 21  1  6  0  0  0
  8 10  1  0  0  0  0
  9  8  1  0  0  0  0
 11  4  1  0  0  0  0
 13 16  2  0  0  0  0
 13 11  1  0  0  0  0
 14 25  1  6  0  0  0
 14  5  1  0  0  0  0
 15  1  2  0  0  0  0
 15  2  1  0  0  0  0
 16 15  1  0  0  0  0
 17  7  1  0  0  0  0
 17  1  1  0  0  0  0
 18 14  1  0  0  0  0
 20 21  2  0  0  0  0
 21 19  1  0  0  0  0
 22 23  1  0  0  0  0
 24 22  1  0  0  0  0
 24 19  1  1  0  0  0
 24 23  1  0  0  0  0
 26 25  1  0  0  0  0
 26 27  1  0  0  0  0
 27 31  1  0  0  0  0
 28 33  1  0  0  0  0
 29 34  2  0  0  0  0
 29 31  1  0  0  0  0
 30 28  1  0  0  0  0
 31 30  2  0  0  0  0
 32 28  2  0  0  0  0
 34 32  1  0  0  0  0
M  END
>  <MODEL>
3

>  <REMARK>
 VINA RESULT:      -7.7      3.056      8.320
  Name = 
  6 active torsions:
  status: ('A' for Active; 'I' for Inactive)
    1  A    between atoms: N_11  and  C_32
    2  A    between atoms: C_14  and  C_26
    3  A    between atoms: C_16  and  C_34
    4  A    between atoms: N_23  and  C_26
    5  A    between atoms: N_23  and  C_28
    6  A    between atoms: C_27  and  C_28
                            x       y       z     vdW  Elec       q    Type
                         _______ _______ _______ _____ _____    ______ ____

>  <TORSDO>
F 6

$$$$
=
 OpenBabel11042418403D

 34 40  0  0  1  0  0  0  0  0999 V2000
  186.4990  176.8820  143.6220 C   0  0  0  0  0  0  0  0  0  0  0  0
  184.9670  177.8290  144.8560 C   0  0  0  0  0  0  0  0  0  0  0  0
  185.4760  177.5250  142.7820 C   0  0  0  0  0  3  0  0  0  0  0  0
  184.4820  178.4030  145.9100 N   0  0  0  0  0  0  0  0  0  0  0  0
  189.0640  175.7240  143.3180 C   0  0  1  0  0  0  0  0  0  0  0  0
  188.4360  176.0330  146.3260 S   0  0  0  0  0  0  0  0  0  0  0  0
  188.6950  176.0510  142.0320 C   0  0  1  0  0  3  0  0  0  0  0  0
  188.6620  173.6110  142.2270 C   0  0  1  0  0  3  0  0  0  0  0  0
  188.9760  174.2270  143.5720 C   0  0  0  0  0  2  0  0  0  0  0  0
  188.2520  174.7710  141.3360 C   0  0  0  0  0  2  0  0  0  0  0  0
  185.0370  178.1350  147.2500 C   0  0  0  0  0  2  0  0  0  0  0  0
  184.5700  178.0950  143.5200 N   0  0  0  0  0  0  0  0  0  0  0  0
  186.3560  177.4640  147.2170 N   0  0  0  0  0  0  0  0  0  0  0  0
  190.1310  176.6180  143.9620 C   0  0  1  0  0  3  0  0  0  0  0  0
  186.1650  177.0580  144.8900 C   0  0  0  0  0  0  0  0  0  0  0  0
  186.8850  176.9180  146.1590 C   0  0  0  0  0  0  0  0  0  0  0  0
  187.7390  176.3750  143.1410 N   0  0  0  0  0  0  0  0  0  0  0  0
  189.5600  177.5980  145.4080 S   0  0  0  0  0  0  0  0  0  0  0  0
  189.7780  172.2390  140.4290 N   0  0  0  0  0  2  0  0  0  0  0  0
  190.9600  172.9330  142.3200 O   0  0  0  0  0  0  0  0  0  0  0  0
  189.8730  172.9240  141.6780 C   0  0  0  0  0  0  0  0  0  0  0  0
  190.8560  170.1800  140.2700 O   0  0  0  0  0  0  0  0  0  0  0  0
  190.4170  170.4560  138.9620 C   0  0  0  0  0  2  0  0  0  0  0  0
  190.9060  171.5240  139.8570 C   0  0  1  0  0  3  0  0  0  0  0  0
  191.3870  175.8340  144.3040 C   0  0  0  0  0  2  0  0  0  0  0  0
  192.5620  176.6720  144.1250 N   0  0  0  0  0  2  0  0  0  0  0  0
  193.3730  176.5360  145.3240 C   0  0  0  0  0  2  0  0  0  0  0  0
  196.4370  174.3340  145.4520 C   0  0  0  0  0  0  0  0  0  0  0  0
  195.4380  176.3830  143.9140 C   0  0  0  0  0  3  0  0  0  0  0  0
  195.1960  174.8770  145.7740 C   0  0  0  0  0  3  0  0  0  0  0  0
  194.6870  175.9110  144.9910 C   0  0  0  0  0  0  0  0  0  0  0  0
  197.1290  174.8230  144.3890 N   0  0  0  0  0  0  0  0  0  0  0  0
  197.0030  173.2250  146.2640 C   0  0  0  0  0  1  0  0  0  0  0  0
  196.6440  175.8190  143.6430 N   0  0  0  0  0  0  0  0  0  0  0  0
  1 15  2  0  0  0  0
  2 15  1  0  0  0  0
  2  4  2  0  0  0  0
  3 12  2  0  0  0  0
  3  1  1  0  0  0  0
  4 11  1  0  0  0  0
  5  9  1  1  0  0  0
  5 14  1  0  0  0  0
  7 10  1  6  0  0  0
  7 17  1  0  0  0  0
  7  5  1  0  0  0  0
  8 21  1  6  0  0  0
  8  9  1  0  0  0  0
 10  8  1  0  0  0  0
 12  2  1  0  0  0  0
 13 11  1  0  0  0  0
 14 25  1  1  0  0  0
 14 18  1  0  0  0  0
 15 16  1  0  0  0  0
 16  6  1  0  0  0  0
 16 13  2  0  0  0  0
 17  5  1  0  0  0  0
 17  1  1  0  0  0  0
 18  6  1  0  0  0  0
 19 21  1  0  0  0  0
 21 20  2  0  0  0  0
 23 24  1  0  0  0  0
 23 22  1  0  0  0  0
 24 22  1  0  0  0  0
 24 19  1  1  0  0  0
 26 25  1  0  0  0  0
 26 27  1  0  0  0  0
 28 30  1  0  0  0  0
 28 33  1  0  0  0  0
 29 31  1  0  0  0  0
 31 27  1  0  0  0  0
 31 30  2  0  0  0  0
 32 28  2  0  0  0  0
 34 29  2  0  0  0  0
 34 32  1  0  0  0  0
M  END
>  <MODEL>
4

>  <REMARK>
 VINA RESULT:      -7.6      2.536      8.354
  Name = 
  6 active torsions:
  status: ('A' for Active; 'I' for Inactive)
    1  A    between atoms: N_11  and  C_32
    2  A    between atoms: C_14  and  C_26
    3  A    between atoms: C_16  and  C_34
    4  A    between atoms: N_23  and  C_26
    5  A    between atoms: N_23  and  C_28
    6  A    between atoms: C_27  and  C_28
                            x       y       z     vdW  Elec       q    Type
                         _______ _______ _______ _____ _____    ______ ____

>  <TORSDO>
F 6

$$$$
=
 OpenBabel11042418403D

 34 40  0  0  1  0  0  0  0  0999 V2000
  187.1690  177.0090  146.1900 C   0  0  0  0  0  0  0  0  0  0  0  0
  185.3580  178.2210  146.0550 C   0  0  0  0  0  0  0  0  0  0  0  0
  186.3150  176.8050  147.3720 C   0  0  0  0  0  3  0  0  0  0  0  0
  184.4060  178.8680  145.4620 N   0  0  0  0  0  0  0  0  0  0  0  0
  189.4510  175.8310  145.0010 C   0  0  1  0  0  0  0  0  0  0  0  0
  188.2280  177.8820  143.0440 S   0  0  0  0  0  0  0  0  0  0  0  0
  189.2780  175.1130  146.1650 C   0  0  1  0  0  3  0  0  0  0  0  0
  191.2910  176.4830  146.4170 C   0  0  1  0  0  3  0  0  0  0  0  0
  190.6240  176.7930  145.0950 C   0  0  0  0  0  2  0  0  0  0  0  0
  190.3040  175.6110  147.1730 C   0  0  0  0  0  2  0  0  0  0  0  0
  184.6060  179.4730  144.1320 C   0  0  0  0  0  2  0  0  0  0  0  0
  185.2340  177.5220  147.2840 N   0  0  0  0  0  0  0  0  0  0  0  0
  185.8180  178.9800  143.4370 N   0  0  0  0  0  0  0  0  0  0  0  0
  189.0630  175.1120  143.7030 C   0  0  1  0  0  3  0  0  0  0  0  0
  186.5810  177.8930  145.4010 C   0  0  0  0  0  0  0  0  0  0  0  0
  186.7680  178.2890  144.0020 C   0  0  0  0  0  0  0  0  0  0  0  0
  188.3000  176.2100  145.8630 N   0  0  0  0  0  0  0  0  0  0  0  0
  187.6410  175.8440  142.8000 S   0  0  0  0  0  0  0  0  0  0  0  0
  193.6690  176.4400  145.5770 N   0  0  0  0  0  2  0  0  0  0  0  0
  192.6900  174.5380  146.5130 O   0  0  0  0  0  0  0  0  0  0  0  0
  192.5770  175.7520  146.1880 C   0  0  0  0  0  0  0  0  0  0  0  0
  194.8600  175.1670  144.0310 O   0  0  0  0  0  0  0  0  0  0  0  0
  195.5570  176.3870  144.1030 C   0  0  0  0  0  2  0  0  0  0  0  0
  194.9320  175.7800  145.2960 C   0  0  1  0  0  3  0  0  0  0  0  0
  190.2580  174.9410  142.7790 C   0  0  0  0  0  2  0  0  0  0  0  0
  190.7800  173.5880  142.8820 N   0  0  0  0  0  2  0  0  0  0  0  0
  189.6630  172.6800  142.6770 C   0  0  0  0  0  2  0  0  0  0  0  0
  190.2480  171.5300  139.1290 C   0  0  0  0  0  0  0  0  0  0  0  0
  188.3360  172.8900  140.5630 C   0  0  0  0  0  3  0  0  0  0  0  0
  190.4440  171.7340  140.4930 C   0  0  0  0  0  3  0  0  0  0  0  0
  189.4720  172.4180  141.2200 C   0  0  0  0  0  0  0  0  0  0  0  0
  189.1210  172.0030  138.5340 N   0  0  0  0  0  0  0  0  0  0  0  0
  191.2630  170.7980  138.3270 C   0  0  0  0  0  1  0  0  0  0  0  0
  188.1930  172.6640  139.2300 N   0  0  0  0  0  0  0  0  0  0  0  0
  1  3  1  0  0  0  0
  2 12  1  0  0  0  0
  4  2  2  0  0  0  0
  5  9  1  6  0  0  0
  5 17  1  0  0  0  0
  5  7  1  0  0  0  0
  6 16  1  0  0  0  0
  7 10  1  1  0  0  0
  8 21  1  6  0  0  0
  8 10  1  0  0  0  0
  9  8  1  0  0  0  0
 11  4  1  0  0  0  0
 12  3  2  0  0  0  0
 13 16  2  0  0  0  0
 13 11  1  0  0  0  0
 14 25  1  6  0  0  0
 14  5  1  0  0  0  0
 15  2  1  0  0  0  0
 15  1  2  0  0  0  0
 16 15  1  0  0  0  0
 17  7  1  0  0  0  0
 17  1  1  0  0  0  0
 18  6  1  0  0  0  0
 18 14  1  0  0  0  0
 19 21  1  0  0  0  0
 21 20  2  0  0  0  0
 22 23  1  0  0  0  0
 22 24  1  0  0  0  0
 23 24  1  0  0  0  0
 24 19  1  6  0  0  0
 25 26  1  0  0  0  0
 27 26  1  0  0  0  0
 28 30  1  0  0  0  0
 29 31  1  0  0  0  0
 30 31  2  0  0  0  0
 31 27  1  0  0  0  0
 32 28  2  0  0  0  0
 32 34  1  0  0  0  0
 33 28  1  0  0  0  0
 34 29  2  0  0  0  0
M  END
>  <MODEL>
5

>  <REMARK>
 VINA RESULT:      -7.6      3.248      8.267
  Name = 
  6 active torsions:
  status: ('A' for Active; 'I' for Inactive)
    1  A    between atoms: N_11  and  C_32
    2  A    between atoms: C_14  and  C_26
    3  A    between atoms: C_16  and  C_34
    4  A    between atoms: N_23  and  C_26
    5  A    between atoms: N_23  and  C_28
    6  A    between atoms: C_27  and  C_28
                            x       y       z     vdW  Elec       q    Type
                         _______ _______ _______ _____ _____    ______ ____

>  <TORSDO>
F 6

$$$$
=
 OpenBabel11042418403D

 34 40  0  0  1  0  0  0  0  0999 V2000
  192.9210  175.4690  145.5750 C   0  0  0  0  0  0  0  0  0  0  0  0
  194.8420  174.4490  145.7660 C   0  0  0  0  0  0  0  0  0  0  0  0
  193.9600  176.3970  146.0530 C   0  0  0  0  0  3  0  0  0  0  0  0
  195.7420  173.5580  145.5000 N   0  0  0  0  0  0  0  0  0  0  0  0
  190.2710  175.5880  144.5900 C   0  0  1  0  0  0  0  0  0  0  0  0
  191.3820  172.7360  144.1820 S   0  0  0  0  0  0  0  0  0  0  0  0
  190.5620  176.8960  144.9100 C   0  0  1  0  0  3  0  0  0  0  0  0
  188.9140  176.0750  146.5230 C   0  0  1  0  0  3  0  0  0  0  0  0
  189.3270  174.9520  145.5980 C   0  0  0  0  0  2  0  0  0  0  0  0
  189.8760  177.2140  146.2310 C   0  0  0  0  0  2  0  0  0  0  0  0
  195.3700  172.2220  144.9960 C   0  0  0  0  0  2  0  0  0  0  0  0
  195.1030  175.7880  146.1590 N   0  0  0  0  0  0  0  0  0  0  0  0
  193.9720  172.1450  144.5130 N   0  0  0  0  0  0  0  0  0  0  0  0
  190.2440  175.2510  143.0940 C   0  0  1  0  0  3  0  0  0  0  0  0
  193.4710  174.2750  145.4220 C   0  0  0  0  0  0  0  0  0  0  0  0
  193.0600  173.0500  144.7300 C   0  0  0  0  0  0  0  0  0  0  0  0
  191.6260  175.8630  145.1350 N   0  0  0  0  0  0  0  0  0  0  0  0
  191.5450  174.0820  142.5330 S   0  0  0  0  0  0  0  0  0  0  0  0
  186.8120  177.3010  147.1860 N   0  0  0  0  0  2  0  0  0  0  0  0
  186.9240  176.1000  145.1860 O   0  0  0  0  0  0  0  0  0  0  0  0
  187.5030  176.4850  146.2390 C   0  0  0  0  0  0  0  0  0  0  0  0
  185.1210  178.7400  147.8900 O   0  0  0  0  0  0  0  0  0  0  0  0
  185.3840  179.1200  146.5600 C   0  0  0  0  0  2  0  0  0  0  0  0
  185.4320  177.7070  146.9870 C   0  0  1  0  0  3  0  0  0  0  0  0
  188.8680  174.7790  142.6500 C   0  0  0  0  0  2  0  0  0  0  0  0
  188.4460  175.5140  141.4690 N   0  0  0  0  0  2  0  0  0  0  0  0
  188.3140  176.9100  141.8540 C   0  0  0  0  0  2  0  0  0  0  0  0
  184.7920  178.2180  142.2250 C   0  0  0  0  0  0  0  0  0  0  0  0
  186.5050  177.4590  140.2120 C   0  0  0  0  0  3  0  0  0  0  0  0
  186.0740  177.7840  142.5550 C   0  0  0  0  0  3  0  0  0  0  0  0
  186.9440  177.4060  141.5340 C   0  0  0  0  0  0  0  0  0  0  0  0
  184.4120  178.2580  140.9200 N   0  0  0  0  0  0  0  0  0  0  0  0
  183.8440  178.6340  143.2910 C   0  0  0  0  0  1  0  0  0  0  0  0
  185.2440  177.8890  139.9430 N   0  0  0  0  0  0  0  0  0  0  0  0
  1  3  1  0  0  0  0
  2 12  1  0  0  0  0
  3 12  2  0  0  0  0
  4  2  2  0  0  0  0
  5  7  1  0  0  0  0
  5 17  1  0  0  0  0
  5  9  1  1  0  0  0
  6 16  1  0  0  0  0
  7 17  1  0  0  0  0
  7 10  1  1  0  0  0
  8 21  1  6  0  0  0
  9  8  1  0  0  0  0
 10  8  1  0  0  0  0
 11  4  1  0  0  0  0
 13 16  2  0  0  0  0
 13 11  1  0  0  0  0
 14 25  1  1  0  0  0
 14  5  1  0  0  0  0
 15  1  2  0  0  0  0
 15  2  1  0  0  0  0
 16 15  1  0  0  0  0
 17  1  1  0  0  0  0
 18 14  1  0  0  0  0
 18  6  1  0  0  0  0
 20 21  2  0  0  0  0
 21 19  1  0  0  0  0
 23 24  1  0  0  0  0
 23 22  1  0  0  0  0
 24 19  1  1  0  0  0
 24 22  1  0  0  0  0
 26 27  1  0  0  0  0
 26 25  1  0  0  0  0
 28 30  1  0  0  0  0
 28 33  1  0  0  0  0
 29 31  1  0  0  0  0
 31 27  1  0  0  0  0
 31 30  2  0  0  0  0
 32 28  2  0  0  0  0
 34 29  2  0  0  0  0
 34 32  1  0  0  0  0
M  END
>  <MODEL>
6

>  <REMARK>
 VINA RESULT:      -7.5      2.273      4.361
  Name = 
  6 active torsions:
  status: ('A' for Active; 'I' for Inactive)
    1  A    between atoms: N_11  and  C_32
    2  A    between atoms: C_14  and  C_26
    3  A    between atoms: C_16  and  C_34
    4  A    between atoms: N_23  and  C_26
    5  A    between atoms: N_23  and  C_28
    6  A    between atoms: C_27  and  C_28
                            x       y       z     vdW  Elec       q    Type
                         _______ _______ _______ _____ _____    ______ ____

>  <TORSDO>
F 6

$$$$
=
 OpenBabel11042418403D

 34 40  0  0  1  0  0  0  0  0999 V2000
  194.0590  175.5490  144.1060 C   0  0  0  0  0  0  0  0  0  0  0  0
  196.0490  174.9660  143.4190 C   0  0  0  0  0  0  0  0  0  0  0  0
  195.0260  176.6370  144.3240 C   0  0  0  0  0  3  0  0  0  0  0  0
  196.9130  174.3230  142.7030 N   0  0  0  0  0  0  0  0  0  0  0  0
  191.2560  175.1640  144.1780 C   0  0  1  0  0  0  0  0  0  0  0  0
  192.5940  172.6760  142.9310 S   0  0  0  0  0  0  0  0  0  0  0  0
  191.4200  176.4710  144.5830 C   0  0  1  0  0  3  0  0  0  0  0  0
  190.6930  175.1660  146.5230 C   0  0  1  0  0  3  0  0  0  0  0  0
  190.9010  174.2480  145.3390 C   0  0  0  0  0  2  0  0  0  0  0  0
  191.2560  176.5110  146.0960 C   0  0  0  0  0  2  0  0  0  0  0  0
  196.6100  172.9880  142.1530 C   0  0  0  0  0  2  0  0  0  0  0  0
  196.2080  176.2900  143.9070 N   0  0  0  0  0  0  0  0  0  0  0  0
  195.1690  172.6450  142.2020 N   0  0  0  0  0  0  0  0  0  0  0  0
  190.7100  174.9620  142.7590 C   0  0  1  0  0  3  0  0  0  0  0  0
  194.7020  174.5240  143.5700 C   0  0  0  0  0  0  0  0  0  0  0  0
  194.2720  173.3040  142.8800 C   0  0  0  0  0  0  0  0  0  0  0  0
  192.6480  175.6830  144.2350 N   0  0  0  0  0  0  0  0  0  0  0  0
  191.8730  174.1640  141.5810 S   0  0  0  0  0  0  0  0  0  0  0  0
  188.4700  176.3230  146.2390 N   0  0  0  0  0  2  0  0  0  0  0  0
  188.6900  174.4700  147.6430 O   0  0  0  0  0  0  0  0  0  0  0  0
  189.2340  175.2780  146.8400 C   0  0  0  0  0  0  0  0  0  0  0  0
  186.9250  177.3620  147.6400 O   0  0  0  0  0  0  0  0  0  0  0  0
  186.7000  177.9320  146.3730 C   0  0  0  0  0  2  0  0  0  0  0  0
  187.0590  176.5080  146.5300 C   0  0  1  0  0  3  0  0  0  0  0  0
  189.3730  174.2390  142.7710 C   0  0  0  0  0  2  0  0  0  0  0  0
  188.2870  175.2000  142.8690 N   0  0  0  0  0  2  0  0  0  0  0  0
  188.4090  176.1040  141.7360 C   0  0  0  0  0  2  0  0  0  0  0  0
  185.1780  177.9200  142.4560 C   0  0  0  0  0  0  0  0  0  0  0  0
  186.7160  177.2390  140.2800 C   0  0  0  0  0  3  0  0  0  0  0  0
  186.3640  177.2190  142.6590 C   0  0  0  0  0  3  0  0  0  0  0  0
  187.1470  176.8790  141.5570 C   0  0  0  0  0  0  0  0  0  0  0  0
  184.8030  178.2540  141.1920 N   0  0  0  0  0  0  0  0  0  0  0  0
  184.3260  178.3030  143.6120 C   0  0  0  0  0  1  0  0  0  0  0  0
  185.5500  177.9220  140.1360 N   0  0  0  0  0  0  0  0  0  0  0  0
  1 17  1  0  0  0  0
  1  3  1  0  0  0  0
  2 15  1  0  0  0  0
  2 12  1  0  0  0  0
  4  2  2  0  0  0  0
  5 17  1  0  0  0  0
  5  7  1  0  0  0  0
  5  9  1  1  0  0  0
  7 10  1  1  0  0  0
  8 21  1  6  0  0  0
  9  8  1  0  0  0  0
 10  8  1  0  0  0  0
 11 13  1  0  0  0  0
 11  4  1  0  0  0  0
 12  3  2  0  0  0  0
 13 16  2  0  0  0  0
 14 25  1  1  0  0  0
 14  5  1  0  0  0  0
 15  1  2  0  0  0  0
 16  6  1  0  0  0  0
 16 15  1  0  0  0  0
 17  7  1  0  0  0  0
 18 14  1  0  0  0  0
 18  6  1  0  0  0  0
 19 21  1  0  0  0  0
 21 20  2  0  0  0  0
 23 24  1  0  0  0  0
 23 22  1  0  0  0  0
 24 19  1  6  0  0  0
 24 22  1  0  0  0  0
 25 26  1  0  0  0  0
 27 26  1  0  0  0  0
 28 30  1  0  0  0  0
 28 33  1  0  0  0  0
 29 31  1  0  0  0  0
 31 27  1  0  0  0  0
 31 30  2  0  0  0  0
 32 28  2  0  0  0  0
 34 29  2  0  0  0  0
 34 32  1  0  0  0  0
M  END
>  <MODEL>
7

>  <REMARK>
 VINA RESULT:      -7.3      2.694      4.419
  Name = 
  6 active torsions:
  status: ('A' for Active; 'I' for Inactive)
    1  A    between atoms: N_11  and  C_32
    2  A    between atoms: C_14  and  C_26
    3  A    between atoms: C_16  and  C_34
    4  A    between atoms: N_23  and  C_26
    5  A    between atoms: N_23  and  C_28
    6  A    between atoms: C_27  and  C_28
                            x       y       z     vdW  Elec       q    Type
                         _______ _______ _______ _____ _____    ______ ____

>  <TORSDO>
F 6

$$$$
=
 OpenBabel11042418403D

 34 40  0  0  1  0  0  0  0  0999 V2000
  186.4750  177.2640  143.5990 C   0  0  0  0  0  0  0  0  0  0  0  0
  184.8110  178.1360  144.7130 C   0  0  0  0  0  0  0  0  0  0  0  0
  185.5750  178.0050  142.6990 C   0  0  0  0  0  3  0  0  0  0  0  0
  184.2040  178.6270  145.7450 N   0  0  0  0  0  0  0  0  0  0  0  0
  189.0410  176.0750  143.5140 C   0  0  1  0  0  0  0  0  0  0  0  0
  188.0420  176.1330  146.4350 S   0  0  0  0  0  0  0  0  0  0  0  0
  188.8430  176.5230  142.2260 C   0  0  1  0  0  3  0  0  0  0  0  0
  188.7530  174.0770  142.1940 C   0  0  1  0  0  3  0  0  0  0  0  0
  188.9020  174.5650  143.6180 C   0  0  0  0  0  2  0  0  0  0  0  0
  188.4740  175.3220  141.3680 C   0  0  0  0  0  2  0  0  0  0  0  0
  184.5810  178.2280  147.1150 C   0  0  0  0  0  2  0  0  0  0  0  0
  184.5900  178.5290  143.3670 N   0  0  0  0  0  0  0  0  0  0  0  0
  185.8850  177.5300  147.1860 N   0  0  0  0  0  0  0  0  0  0  0  0
  190.0300  176.8830  144.3640 C   0  0  1  0  0  3  0  0  0  0  0  0
  185.9850  177.3360  144.8260 C   0  0  0  0  0  0  0  0  0  0  0  0
  186.5370  177.0670  146.1570 C   0  0  0  0  0  0  0  0  0  0  0  0
  187.7580  176.7720  143.2320 N   0  0  0  0  0  0  0  0  0  0  0  0
  189.2940  177.7450  145.8100 S   0  0  0  0  0  0  0  0  0  0  0  0
  191.1840  173.5100  142.5530 N   0  0  0  0  0  2  0  0  0  0  0  0
  190.0490  172.7860  140.6440 O   0  0  0  0  0  0  0  0  0  0  0  0
  190.0140  173.4120  141.7410 C   0  0  0  0  0  0  0  0  0  0  0  0
  193.3550  173.9410  141.8260 O   0  0  0  0  0  0  0  0  0  0  0  0
  193.5130  173.3380  143.0880 C   0  0  0  0  0  2  0  0  0  0  0  0
  192.4480  172.9160  142.1550 C   0  0  1  0  0  3  0  0  0  0  0  0
  191.2230  176.0410  144.7880 C   0  0  0  0  0  2  0  0  0  0  0  0
  192.4500  176.8080  144.6470 N   0  0  0  0  0  2  0  0  0  0  0  0
  193.2670  176.5300  145.8180 C   0  0  0  0  0  2  0  0  0  0  0  0
  196.4360  175.8280  143.8890 C   0  0  0  0  0  0  0  0  0  0  0  0
  195.1490  174.9080  146.1380 C   0  0  0  0  0  3  0  0  0  0  0  0
  195.2270  176.4100  144.2610 C   0  0  0  0  0  3  0  0  0  0  0  0
  194.5780  175.9480  145.4050 C   0  0  0  0  0  0  0  0  0  0  0  0
  196.9560  174.8210  144.6390 N   0  0  0  0  0  0  0  0  0  0  0  0
  197.1550  176.3050  142.6780 C   0  0  0  0  0  1  0  0  0  0  0  0
  196.3300  174.3740  145.7300 N   0  0  0  0  0  0  0  0  0  0  0  0
  1 15  2  0  0  0  0
  2 15  1  0  0  0  0
  2  4  2  0  0  0  0
  3 12  2  0  0  0  0
  3  1  1  0  0  0  0
  4 11  1  0  0  0  0
  5  9  1  1  0  0  0
  5 14  1  0  0  0  0
  7 10  1  6  0  0  0
  7 17  1  0  0  0  0
  7  5  1  0  0  0  0
  8 21  1  6  0  0  0
  8  9  1  0  0  0  0
 10  8  1  0  0  0  0
 11 13  1  0  0  0  0
 12  2  1  0  0  0  0
 14 25  1  1  0  0  0
 14 18  1  0  0  0  0
 15 16  1  0  0  0  0
 16  6  1  0  0  0  0
 16 13  2  0  0  0  0
 17  5  1  0  0  0  0
 17  1  1  0  0  0  0
 18  6  1  0  0  0  0
 20 21  2  0  0  0  0
 21 19  1  0  0  0  0
 22 24  1  0  0  0  0
 22 23  1  0  0  0  0
 24 19  1  1  0  0  0
 24 23  1  0  0  0  0
 26 25  1  0  0  0  0
 26 27  1  0  0  0  0
 28 30  2  0  0  0  0
 28 32  1  0  0  0  0
 30 31  1  0  0  0  0
 31 27  1  0  0  0  0
 31 29  2  0  0  0  0
 32 34  2  0  0  0  0
 33 28  1  0  0  0  0
 34 29  1  0  0  0  0
M  END
>  <MODEL>
8

>  <REMARK>
 VINA RESULT:      -7.2      2.333      8.307
  Name = 
  6 active torsions:
  status: ('A' for Active; 'I' for Inactive)
    1  A    between atoms: N_11  and  C_32
    2  A    between atoms: C_14  and  C_26
    3  A    between atoms: C_16  and  C_34
    4  A    between atoms: N_23  and  C_26
    5  A    between atoms: N_23  and  C_28
    6  A    between atoms: C_27  and  C_28
                            x       y       z     vdW  Elec       q    Type
                         _______ _______ _______ _____ _____    ______ ____

>  <TORSDO>
F 6

$$$$
=
 OpenBabel11042418403D

 34 40  0  0  1  0  0  0  0  0999 V2000
  187.0710  176.9920  146.0930 C   0  0  0  0  0  0  0  0  0  0  0  0
  185.2050  178.1030  145.8600 C   0  0  0  0  0  0  0  0  0  0  0  0
  186.1930  176.7870  147.2570 C   0  0  0  0  0  3  0  0  0  0  0  0
  184.2400  178.6760  145.2170 N   0  0  0  0  0  0  0  0  0  0  0  0
  189.4450  175.8930  145.0150 C   0  0  1  0  0  0  0  0  0  0  0  0
  188.1780  177.8050  142.9470 S   0  0  0  0  0  0  0  0  0  0  0  0
  189.2740  175.2100  146.1990 C   0  0  1  0  0  3  0  0  0  0  0  0
  191.2050  176.6920  146.4560 C   0  0  1  0  0  3  0  0  0  0  0  0
  190.5640  176.9180  145.1050 C   0  0  0  0  0  2  0  0  0  0  0  0
  190.2420  175.7970  147.2170 C   0  0  0  0  0  2  0  0  0  0  0  0
  184.4490  179.2430  143.8710 C   0  0  0  0  0  2  0  0  0  0  0  0
  185.0800  177.4440  147.1120 N   0  0  0  0  0  0  0  0  0  0  0  0
  185.7050  178.7890  143.2300 N   0  0  0  0  0  0  0  0  0  0  0  0
  189.1340  175.1080  143.7340 C   0  0  1  0  0  3  0  0  0  0  0  0
  186.4620  177.8160  145.2540 C   0  0  0  0  0  0  0  0  0  0  0  0
  186.6710  178.1690  143.8470 C   0  0  0  0  0  0  0  0  0  0  0  0
  188.2510  176.2420  145.8280 N   0  0  0  0  0  0  0  0  0  0  0  0
  187.7040  175.7310  142.7640 S   0  0  0  0  0  0  0  0  0  0  0  0
  193.5280  176.6390  145.4740 N   0  0  0  0  0  2  0  0  0  0  0  0
  192.7660  174.9150  146.8540 O   0  0  0  0  0  0  0  0  0  0  0  0
  192.5340  176.0210  146.2920 C   0  0  0  0  0  0  0  0  0  0  0  0
  194.7340  175.1540  144.1440 O   0  0  0  0  0  0  0  0  0  0  0  0
  195.3290  176.4080  143.9110 C   0  0  0  0  0  2  0  0  0  0  0  0
  194.8240  176.0240  145.2460 C   0  0  1  0  0  3  0  0  0  0  0  0
  190.3640  174.9670  142.8510 C   0  0  0  0  0  2  0  0  0  0  0  0
  190.3960  173.6440  142.2490 N   0  0  0  0  0  2  0  0  0  0  0  0
  191.0620  173.7730  140.9630 C   0  0  0  0  0  2  0  0  0  0  0  0
  194.7860  174.3380  140.7030 C   0  0  0  0  0  0  0  0  0  0  0  0
  193.0530  172.5220  141.8250 C   0  0  0  0  0  3  0  0  0  0  0  0
  193.4150  174.5310  140.5540 C   0  0  0  0  0  3  0  0  0  0  0  0
  192.5370  173.6130  141.1280 C   0  0  0  0  0  0  0  0  0  0  0  0
  195.2420  173.2620  141.3970 N   0  0  0  0  0  0  0  0  0  0  0  0
  195.7470  175.3040  140.1080 C   0  0  0  0  0  1  0  0  0  0  0  0
  194.4000  172.3800  141.9410 N   0  0  0  0  0  0  0  0  0  0  0  0
  1  3  1  0  0  0  0
  2 12  1  0  0  0  0
  4  2  2  0  0  0  0
  5  9  1  6  0  0  0
  5 17  1  0  0  0  0
  5  7  1  0  0  0  0
  6 16  1  0  0  0  0
  7 10  1  1  0  0  0
  8 21  1  6  0  0  0
  8 10  1  0  0  0  0
  9  8  1  0  0  0  0
 11  4  1  0  0  0  0
 12  3  2  0  0  0  0
 13 16  2  0  0  0  0
 13 11  1  0  0  0  0
 14 25  1  6  0  0  0
 14  5  1  0  0  0  0
 15  2  1  0  0  0  0
 15  1  2  0  0  0  0
 16 15  1  0  0  0  0
 17  1  1  0  0  0  0
 17  7  1  0  0  0  0
 18  6  1  0  0  0  0
 18 14  1  0  0  0  0
 19 21  1  0  0  0  0
 21 20  2  0  0  0  0
 22 24  1  0  0  0  0
 23 22  1  0  0  0  0
 23 24  1  0  0  0  0
 24 19  1  6  0  0  0
 26 25  1  0  0  0  0
 27 31  1  0  0  0  0
 27 26  1  0  0  0  0
 28 32  1  0  0  0  0
 29 34  1  0  0  0  0
 30 28  2  0  0  0  0
 30 31  1  0  0  0  0
 31 29  2  0  0  0  0
 32 34  2  0  0  0  0
 33 28  1  0  0  0  0
M  END
>  <MODEL>
9

>  <REMARK>
 VINA RESULT:      -7.1      3.241      8.666
  Name = 
  6 active torsions:
  status: ('A' for Active; 'I' for Inactive)
    1  A    between atoms: N_11  and  C_32
    2  A    between atoms: C_14  and  C_26
    3  A    between atoms: C_16  and  C_34
    4  A    between atoms: N_23  and  C_26
    5  A    between atoms: N_23  and  C_28
    6  A    between atoms: C_27  and  C_28
                            x       y       z     vdW  Elec       q    Type
                         _______ _______ _______ _____ _____    ______ ____

>  <TORSDO>
F 6

$$$$
