=
 OpenBabel11042417583D

 36 38  0  0  1  0  0  0  0  0999 V2000
  186.2630  177.0190  142.5750 C   0  0  0  0  0  2  0  0  0  0  0  0
  188.8620  177.1270  146.1310 C   0  0  0  0  0  0  0  0  0  0  0  0
  189.9980  176.8110  143.2340 C   0  0  0  0  0  0  0  0  0  0  0  0
  185.4270  178.2890  142.6570 C   0  0  2  0  0  3  0  0  0  0  0  0
  188.3750  178.2040  141.8440 C   0  0  0  0  0  2  0  0  0  0  0  0
  188.2930  175.9930  146.6840 C   0  0  0  0  0  0  0  0  0  0  0  0
  186.9860  176.2480  146.8820 N   0  0  0  0  0  0  0  0  0  0  0  0
  187.3380  177.1370  141.5020 C   0  0  0  0  0  2  0  0  0  0  0  0
  185.4800  178.8700  144.0690 C   0  0  0  0  0  2  0  0  0  0  0  0
  184.8370  177.9470  145.0960 C   0  0  0  0  0  2  0  0  0  0  0  0
  186.7940  177.4930  146.4710 N   0  0  0  0  0  0  0  0  0  0  0  0
  187.8980  178.0550  146.0030 N   0  0  0  0  0  0  0  0  0  0  0  0
  185.4910  178.1400  146.4530 C   0  0  0  0  0  2  0  0  0  0  0  0
  190.2710  177.3250  145.6660 C   0  0  0  0  0  2  0  0  0  0  0  0
  190.5570  176.5500  144.4160 C   0  0  0  0  0  2  0  0  0  0  0  0
  189.0630  177.8870  143.0890 N   0  0  0  0  0  0  0  0  0  0  0  0
  183.5740  178.2750  140.9300 C   0  0  0  0  0  0  0  0  0  0  0  0
  184.3520  178.7090  140.0390 O   0  0  0  0  0  0  0  0  0  0  0  0
  184.0540  178.0110  142.2510 N   0  0  0  0  0  2  0  0  0  0  0  0
  182.1490  178.0030  140.5970 C   0  0  0  0  0  2  0  0  0  0  0  0
  180.5800  179.2760  142.2680 N   0  0  0  0  0  0  0  0  0  0  0  0
  181.2730  178.7150  141.5290 C   0  0  0  0  0  0  0  0  0  0  0  0
  188.9390  174.7120  147.0060 C   0  0  0  0  0  0  0  0  0  0  0  0
  189.5700  173.9580  145.9770 N   0  0  0  0  0  1  0  0  0  0  0  0
  188.9390  174.2700  148.1860 O   0  0  0  0  0  0  0  0  0  0  0  0
  190.3940  175.9720  142.0650 C   0  0  0  0  0  2  0  0  0  0  0  0
  189.6690  174.7110  142.0940 N   0  0  0  0  0  2  0  0  0  0  0  0
  190.8790  172.0710  139.5450 C   0  0  0  0  0  2  0  0  0  0  0  0
  191.0280  173.2370  140.5220 C   0  0  0  0  0  2  0  0  0  0  0  0
  188.5550  173.4970  140.3830 C   0  0  0  0  0  3  0  0  0  0  0  0
  189.7010  173.7780  141.0140 C   0  0  0  0  0  0  0  0  0  0  0  0
  188.4710  172.5120  139.2510 C   0  0  0  0  0  2  0  0  0  0  0  0
  189.8030  172.3920  138.5120 C   0  0  2  0  0  3  0  0  0  0  0  0
  190.8330  171.3760  136.5980 O   0  0  0  0  0  1  0  0  0  0  0  0
  189.7290  171.2970  137.4480 C   0  0  1  0  0  3  0  0  0  0  0  0
  189.7140  169.9220  138.0960 C   0  0  0  0  0  1  0  0  0  0  0  0
  1  4  1  0  0  0  0
  2  6  1  0  0  0  0
  3 15  1  0  0  0  0
  4 19  1  1  0  0  0
  4  9  1  0  0  0  0
  5 16  1  0  0  0  0
  6  7  2  0  0  0  0
  6 23  1  0  0  0  0
  8  5  1  0  0  0  0
  8  1  1  0  0  0  0
  9 10  1  0  0  0  0
 10 13  1  0  0  0  0
 11  7  1  0  0  0  0
 12  2  2  0  0  0  0
 12 11  1  0  0  0  0
 13 11  1  0  0  0  0
 14  2  1  0  0  0  0
 15 14  1  0  0  0  0
 16  3  2  0  0  0  0
 17 19  1  0  0  0  0
 18 17  2  0  0  0  0
 20 17  1  0  0  0  0
 20 22  1  0  0  0  0
 22 21  3  0  0  0  0
 23 25  2  0  0  0  0
 24 23  1  0  0  0  0
 26 27  1  0  0  0  0
 26  3  1  0  0  0  0
 28 29  1  0  0  0  0
 29 31  1  0  0  0  0
 30 31  2  0  0  0  0
 31 27  1  0  0  0  0
 32 30  1  0  0  0  0
 33 35  1  6  0  0  0
 33 32  1  0  0  0  0
 33 28  1  0  0  0  0
 34 35  1  0  0  0  0
 35 36  1  1  0  0  0
M  END
>  <MODEL>
1

>  <REMARK>
 VINA RESULT:      -7.3      0.000      0.000
  Name = 
  8 active torsions:
  status: ('A' for Active; 'I' for Inactive)
    1  A    between atoms: C_4  and  C_19
    2  A    between atoms: C_6  and  C_34
    3  A    between atoms: C_7  and  N_24
    4  A    between atoms: C_8  and  C_32
    5  A    between atoms: C_10  and  C_13
    6  A    between atoms: C_19  and  C_33
    7  A    between atoms: N_25  and  C_28
    8  A    between atoms: N_25  and  C_34
                            x       y       z     vdW  Elec       q    Type
                         _______ _______ _______ _____ _____    ______ ____

>  <TORSDO>
F 8

$$$$
=
 OpenBabel11042417583D

 36 38  0  0  1  0  0  0  0  0999 V2000
  193.5280  175.2370  142.1800 C   0  0  0  0  0  2  0  0  0  0  0  0
  191.4360  174.8800  146.0430 C   0  0  0  0  0  0  0  0  0  0  0  0
  190.1150  174.0340  143.3370 C   0  0  0  0  0  0  0  0  0  0  0  0
  194.8350  174.4790  142.3670 C   0  0  2  0  0  3  0  0  0  0  0  0
  192.1010  173.1560  141.9970 C   0  0  0  0  0  2  0  0  0  0  0  0
  191.4870  176.2410  146.2900 C   0  0  0  0  0  0  0  0  0  0  0  0
  192.7850  176.5980  146.3360 N   0  0  0  0  0  0  0  0  0  0  0  0
  192.5520  174.4470  141.3180 C   0  0  0  0  0  2  0  0  0  0  0  0
  195.1180  174.2640  143.8530 C   0  0  0  0  0  2  0  0  0  0  0  0
  195.3540  175.5770  144.5890 C   0  0  0  0  0  2  0  0  0  0  0  0
  193.4730  175.4850  146.1330 N   0  0  0  0  0  0  0  0  0  0  0  0
  192.6980  174.4290  145.9430 N   0  0  0  0  0  0  0  0  0  0  0  0
  194.9250  175.4450  146.0410 C   0  0  0  0  0  2  0  0  0  0  0  0
  190.2280  174.0200  145.8350 C   0  0  0  0  0  2  0  0  0  0  0  0
  189.5650  174.3030  144.5210 C   0  0  0  0  0  2  0  0  0  0  0  0
  191.4140  173.4360  143.2520 N   0  0  0  0  0  0  0  0  0  0  0  0
  196.4110  174.8480  140.4200 C   0  0  0  0  0  0  0  0  0  0  0  0
  195.8610  173.9300  139.7540 O   0  0  0  0  0  0  0  0  0  0  0  0
  195.9260  175.1960  141.7190 N   0  0  0  0  0  2  0  0  0  0  0  0
  197.5560  175.6000  139.8360 C   0  0  0  0  0  2  0  0  0  0  0  0
  197.5980  175.2820  137.2330 N   0  0  0  0  0  0  0  0  0  0  0  0
  197.5810  175.4230  138.3830 C   0  0  0  0  0  0  0  0  0  0  0  0
  190.3690  177.1790  146.4670 C   0  0  0  0  0  0  0  0  0  0  0  0
  189.7090  177.7180  145.3270 N   0  0  0  0  0  1  0  0  0  0  0  0
  189.9870  177.5160  147.6190 O   0  0  0  0  0  0  0  0  0  0  0  0
  189.3290  174.3460  142.1060 C   0  0  0  0  0  2  0  0  0  0  0  0
  189.2680  175.7870  141.9130 N   0  0  0  0  0  2  0  0  0  0  0  0
  186.7530  178.7070  142.1990 C   0  0  0  0  0  2  0  0  0  0  0  0
  188.1320  178.0630  142.0590 C   0  0  0  0  0  2  0  0  0  0  0  0
  187.0690  175.9370  142.7990 C   0  0  0  0  0  3  0  0  0  0  0  0
  188.1100  176.5590  142.2340 C   0  0  0  0  0  0  0  0  0  0  0  0
  185.7930  176.6460  143.1540 C   0  0  0  0  0  2  0  0  0  0  0  0
  186.0320  178.1330  143.4160 C   0  0  2  0  0  3  0  0  0  0  0  0
  183.7170  178.3310  142.8200 O   0  0  0  0  0  1  0  0  0  0  0  0
  184.7060  178.8560  143.6510 C   0  0  1  0  0  3  0  0  0  0  0  0
  184.2600  178.6980  145.0960 C   0  0  0  0  0  1  0  0  0  0  0  0
  1  4  1  0  0  0  0
  2  6  1  0  0  0  0
  3 15  1  0  0  0  0
  4 19  1  1  0  0  0
  4  9  1  0  0  0  0
  5 16  1  0  0  0  0
  6  7  2  0  0  0  0
  6 23  1  0  0  0  0
  8  5  1  0  0  0  0
  8  1  1  0  0  0  0
  9 10  1  0  0  0  0
 10 13  1  0  0  0  0
 11  7  1  0  0  0  0
 12  2  2  0  0  0  0
 12 11  1  0  0  0  0
 13 11  1  0  0  0  0
 14  2  1  0  0  0  0
 15 14  1  0  0  0  0
 16  3  2  0  0  0  0
 17 19  1  0  0  0  0
 18 17  2  0  0  0  0
 20 17  1  0  0  0  0
 21 22  3  0  0  0  0
 22 20  1  0  0  0  0
 23 25  2  0  0  0  0
 24 23  1  0  0  0  0
 26  3  1  0  0  0  0
 27 26  1  0  0  0  0
 27 31  1  0  0  0  0
 28 33  1  0  0  0  0
 29 28  1  0  0  0  0
 29 31  1  0  0  0  0
 30 32  1  0  0  0  0
 31 30  2  0  0  0  0
 32 33  1  0  0  0  0
 33 35  1  6  0  0  0
 34 35  1  0  0  0  0
 35 36  1  1  0  0  0
M  END
>  <MODEL>
2

>  <REMARK>
 VINA RESULT:      -7.2      3.813      8.799
  Name = 
  8 active torsions:
  status: ('A' for Active; 'I' for Inactive)
    1  A    between atoms: C_4  and  C_19
    2  A    between atoms: C_6  and  C_34
    3  A    between atoms: C_7  and  N_24
    4  A    between atoms: C_8  and  C_32
    5  A    between atoms: C_10  and  C_13
    6  A    between atoms: C_19  and  C_33
    7  A    between atoms: N_25  and  C_28
    8  A    between atoms: N_25  and  C_34
                            x       y       z     vdW  Elec       q    Type
                         _______ _______ _______ _____ _____    ______ ____

>  <TORSDO>
F 8

$$$$
=
 OpenBabel11042417583D

 36 38  0  0  1  0  0  0  0  0999 V2000
  190.2360  174.2940  141.5960 C   0  0  0  0  0  2  0  0  0  0  0  0
  193.8980  174.1130  144.0410 C   0  0  0  0  0  0  0  0  0  0  0  0
  191.0420  173.7790  145.2720 C   0  0  0  0  0  0  0  0  0  0  0  0
  190.4410  173.2590  140.4990 C   0  0  2  0  0  3  0  0  0  0  0  0
  189.7660  172.5930  143.4080 C   0  0  0  0  0  2  0  0  0  0  0  0
  194.2720  175.4070  143.7250 C   0  0  0  0  0  0  0  0  0  0  0  0
  194.4380  175.4700  142.3900 N   0  0  0  0  0  0  0  0  0  0  0  0
  189.2410  173.8020  142.6380 C   0  0  0  0  0  2  0  0  0  0  0  0
  191.9170  172.8780  140.3960 C   0  0  0  0  0  2  0  0  0  0  0  0
  192.7840  174.0490  139.9530 C   0  0  0  0  0  2  0  0  0  0  0  0
  194.1820  174.2520  141.9370 N   0  0  0  0  0  0  0  0  0  0  0  0
  193.8440  173.4070  142.8980 N   0  0  0  0  0  0  0  0  0  0  0  0
  194.1850  173.9060  140.5240 C   0  0  0  0  0  2  0  0  0  0  0  0
  193.5300  173.5540  145.3800 C   0  0  0  0  0  2  0  0  0  0  0  0
  192.2060  174.0710  145.8520 C   0  0  0  0  0  2  0  0  0  0  0  0
  190.9920  172.9200  144.1260 N   0  0  0  0  0  0  0  0  0  0  0  0
  188.6840  173.3550  138.6770 C   0  0  0  0  0  0  0  0  0  0  0  0
  187.9320  172.5670  139.3100 O   0  0  0  0  0  0  0  0  0  0  0  0
  189.9360  173.7680  139.2290 N   0  0  0  0  0  2  0  0  0  0  0  0
  188.2500  173.8880  137.3560 C   0  0  0  0  0  2  0  0  0  0  0  0
  186.7950  176.0420  137.6930 N   0  0  0  0  0  0  0  0  0  0  0  0
  187.4360  175.0900  137.5450 C   0  0  0  0  0  0  0  0  0  0  0  0
  194.4560  176.5510  144.6320 C   0  0  0  0  0  0  0  0  0  0  0  0
  193.3220  177.1900  145.2070 N   0  0  0  0  0  1  0  0  0  0  0  0
  195.6110  176.9740  144.9050 O   0  0  0  0  0  0  0  0  0  0  0  0
  189.7950  174.3450  145.8650 C   0  0  0  0  0  2  0  0  0  0  0  0
  189.7650  175.7860  145.6670 N   0  0  0  0  0  2  0  0  0  0  0  0
  186.3370  177.4170  146.3910 C   0  0  0  0  0  2  0  0  0  0  0  0
  187.4560  176.3900  146.5590 C   0  0  0  0  0  2  0  0  0  0  0  0
  188.3580  177.2100  144.3890 C   0  0  0  0  0  3  0  0  0  0  0  0
  188.5480  176.5180  145.5180 C   0  0  0  0  0  0  0  0  0  0  0  0
  187.1270  178.0340  144.1380 C   0  0  0  0  0  2  0  0  0  0  0  0
  185.9270  177.5050  144.9240 C   0  0  2  0  0  3  0  0  0  0  0  0
  184.0670  178.5980  145.9710 O   0  0  0  0  0  1  0  0  0  0  0  0
  184.7230  178.4300  144.7510 C   0  0  1  0  0  3  0  0  0  0  0  0
  185.1640  179.7930  144.2450 C   0  0  0  0  0  1  0  0  0  0  0  0
  1  8  1  0  0  0  0
  2 14  1  0  0  0  0
  3 15  1  0  0  0  0
  3 26  1  0  0  0  0
  4 19  1  6  0  0  0
  4  1  1  0  0  0  0
  5 16  1  0  0  0  0
  6  2  1  0  0  0  0
  6 23  1  0  0  0  0
  7  6  2  0  0  0  0
  8  5  1  0  0  0  0
  9  4  1  0  0  0  0
 10  9  1  0  0  0  0
 10 13  1  0  0  0  0
 11  7  1  0  0  0  0
 11 12  1  0  0  0  0
 12  2  2  0  0  0  0
 13 11  1  0  0  0  0
 14 15  1  0  0  0  0
 16  3  2  0  0  0  0
 17 19  1  0  0  0  0
 17 18  2  0  0  0  0
 20 22  1  0  0  0  0
 20 17  1  0  0  0  0
 22 21  3  0  0  0  0
 23 25  2  0  0  0  0
 23 24  1  0  0  0  0
 27 26  1  0  0  0  0
 28 29  1  0  0  0  0
 30 31  2  0  0  0  0
 31 27  1  0  0  0  0
 31 29  1  0  0  0  0
 32 30  1  0  0  0  0
 32 33  1  0  0  0  0
 33 35  1  1  0  0  0
 33 28  1  0  0  0  0
 35 36  1  1  0  0  0
 35 34  1  0  0  0  0
M  END
>  <MODEL>
3

>  <REMARK>
 VINA RESULT:      -7.1      3.313      7.817
  Name = 
  8 active torsions:
  status: ('A' for Active; 'I' for Inactive)
    1  A    between atoms: C_4  and  C_19
    2  A    between atoms: C_6  and  C_34
    3  A    between atoms: C_7  and  N_24
    4  A    between atoms: C_8  and  C_32
    5  A    between atoms: C_10  and  C_13
    6  A    between atoms: C_19  and  C_33
    7  A    between atoms: N_25  and  C_28
    8  A    between atoms: N_25  and  C_34
                            x       y       z     vdW  Elec       q    Type
                         _______ _______ _______ _____ _____    ______ ____

>  <TORSDO>
F 8

$$$$
=
 OpenBabel11042417583D

 36 38  0  0  1  0  0  0  0  0999 V2000
  191.0740  174.4540  141.5960 C   0  0  0  0  0  2  0  0  0  0  0  0
  194.2420  173.1640  144.3750 C   0  0  0  0  0  0  0  0  0  0  0  0
  191.8170  174.9130  145.2930 C   0  0  0  0  0  0  0  0  0  0  0  0
  190.5620  173.1700  140.9570 C   0  0  2  0  0  3  0  0  0  0  0  0
  189.9220  174.0600  143.8140 C   0  0  0  0  0  2  0  0  0  0  0  0
  195.2370  173.8290  143.6800 C   0  0  0  0  0  0  0  0  0  0  0  0
  195.2780  173.3160  142.4350 N   0  0  0  0  0  0  0  0  0  0  0  0
  190.0810  174.9940  142.6170 C   0  0  0  0  0  2  0  0  0  0  0  0
  191.5620  172.0340  141.1700 C   0  0  0  0  0  2  0  0  0  0  0  0
  192.8840  172.2900  140.4580 C   0  0  0  0  0  2  0  0  0  0  0  0
  194.3470  172.3740  142.4020 N   0  0  0  0  0  0  0  0  0  0  0  0
  193.6940  172.2570  143.5480 N   0  0  0  0  0  0  0  0  0  0  0  0
  194.0190  171.6120  141.2070 C   0  0  0  0  0  2  0  0  0  0  0  0
  193.7610  173.4140  145.7700 C   0  0  0  0  0  2  0  0  0  0  0  0
  192.9980  174.7000  145.8720 C   0  0  0  0  0  2  0  0  0  0  0  0
  191.1870  173.8870  144.5160 N   0  0  0  0  0  0  0  0  0  0  0  0
  189.0150  173.7590  139.0400 C   0  0  0  0  0  0  0  0  0  0  0  0
  188.0580  173.9750  139.8310 O   0  0  0  0  0  0  0  0  0  0  0  0
  190.3020  173.3870  139.5380 N   0  0  0  0  0  2  0  0  0  0  0  0
  188.8130  173.9250  137.5750 C   0  0  0  0  0  2  0  0  0  0  0  0
  186.9490  175.7130  137.1250 N   0  0  0  0  0  0  0  0  0  0  0  0
  187.7710  174.9220  137.3230 C   0  0  0  0  0  0  0  0  0  0  0  0
  196.1120  174.9130  144.1510 C   0  0  0  0  0  0  0  0  0  0  0  0
  195.7340  176.2690  143.9470 N   0  0  0  0  0  1  0  0  0  0  0  0
  197.1980  174.6550  144.7350 O   0  0  0  0  0  0  0  0  0  0  0  0
  191.1570  176.2360  145.5010 C   0  0  0  0  0  2  0  0  0  0  0  0
  190.0330  176.0890  146.4120 N   0  0  0  0  0  2  0  0  0  0  0  0
  186.3050  177.0600  146.7200 C   0  0  0  0  0  2  0  0  0  0  0  0
  187.5500  176.2070  146.9680 C   0  0  0  0  0  2  0  0  0  0  0  0
  188.6010  177.4240  145.0670 C   0  0  0  0  0  3  0  0  0  0  0  0
  188.7420  176.6340  146.1380 C   0  0  0  0  0  0  0  0  0  0  0  0
  187.2950  178.0690  144.7000 C   0  0  0  0  0  2  0  0  0  0  0  0
  186.1050  177.2650  145.2210 C   0  0  2  0  0  3  0  0  0  0  0  0
  184.0980  178.2080  146.1360 O   0  0  0  0  0  1  0  0  0  0  0  0
  184.7960  178.0030  144.9450 C   0  0  1  0  0  3  0  0  0  0  0  0
  185.0680  179.3540  144.3040 C   0  0  0  0  0  1  0  0  0  0  0  0
  1  8  1  0  0  0  0
  2 14  1  0  0  0  0
  3 26  1  0  0  0  0
  3 15  1  0  0  0  0
  4 19  1  6  0  0  0
  4  9  1  0  0  0  0
  4  1  1  0  0  0  0
  5 16  1  0  0  0  0
  6 23  1  0  0  0  0
  6  2  1  0  0  0  0
  7  6  2  0  0  0  0
  8  5  1  0  0  0  0
 10  9  1  0  0  0  0
 10 13  1  0  0  0  0
 11  7  1  0  0  0  0
 11 12  1  0  0  0  0
 12  2  2  0  0  0  0
 13 11  1  0  0  0  0
 14 15  1  0  0  0  0
 16  3  2  0  0  0  0
 17 19  1  0  0  0  0
 17 18  2  0  0  0  0
 20 17  1  0  0  0  0
 21 22  3  0  0  0  0
 22 20  1  0  0  0  0
 23 25  2  0  0  0  0
 24 23  1  0  0  0  0
 26 27  1  0  0  0  0
 28 29  1  0  0  0  0
 30 31  2  0  0  0  0
 31 27  1  0  0  0  0
 31 29  1  0  0  0  0
 32 30  1  0  0  0  0
 32 33  1  0  0  0  0
 33 35  1  1  0  0  0
 33 28  1  0  0  0  0
 35 36  1  1  0  0  0
 35 34  1  0  0  0  0
M  END
>  <MODEL>
4

>  <REMARK>
 VINA RESULT:      -7.1      3.749      8.106
  Name = 
  8 active torsions:
  status: ('A' for Active; 'I' for Inactive)
    1  A    between atoms: C_4  and  C_19
    2  A    between atoms: C_6  and  C_34
    3  A    between atoms: C_7  and  N_24
    4  A    between atoms: C_8  and  C_32
    5  A    between atoms: C_10  and  C_13
    6  A    between atoms: C_19  and  C_33
    7  A    between atoms: N_25  and  C_28
    8  A    between atoms: N_25  and  C_34
                            x       y       z     vdW  Elec       q    Type
                         _______ _______ _______ _____ _____    ______ ____

>  <TORSDO>
F 8

$$$$
=
 OpenBabel11042417583D

 36 38  0  0  1  0  0  0  0  0999 V2000
  191.2750  173.2590  141.3060 C   0  0  0  0  0  2  0  0  0  0  0  0
  193.4430  173.4330  145.1390 C   0  0  0  0  0  0  0  0  0  0  0  0
  191.4890  175.6930  144.2150 C   0  0  0  0  0  0  0  0  0  0  0  0
  190.5380  171.9270  141.3290 C   0  0  2  0  0  3  0  0  0  0  0  0
  189.7050  174.3970  142.9310 C   0  0  0  0  0  2  0  0  0  0  0  0
  194.6870  173.4240  144.5310 C   0  0  0  0  0  0  0  0  0  0  0  0
  194.7890  172.2790  143.8290 N   0  0  0  0  0  0  0  0  0  0  0  0
  190.3180  174.4220  141.5330 C   0  0  0  0  0  2  0  0  0  0  0  0
  191.1280  171.0100  142.4000 C   0  0  0  0  0  2  0  0  0  0  0  0
  192.5690  170.6210  142.0930 C   0  0  0  0  0  2  0  0  0  0  0  0
  193.6510  171.6320  144.0260 N   0  0  0  0  0  0  0  0  0  0  0  0
  192.8090  172.2970  144.8020 N   0  0  0  0  0  0  0  0  0  0  0  0
  193.3260  170.3670  143.3850 C   0  0  0  0  0  2  0  0  0  0  0  0
  192.8250  174.5140  145.9690 C   0  0  0  0  0  2  0  0  0  0  0  0
  192.4490  175.7040  145.1390 C   0  0  0  0  0  2  0  0  0  0  0  0
  190.7350  174.5020  143.9570 N   0  0  0  0  0  0  0  0  0  0  0  0
  189.5980  171.5370  139.0100 C   0  0  0  0  0  0  0  0  0  0  0  0
  188.6590  172.3520  139.2150 O   0  0  0  0  0  0  0  0  0  0  0  0
  190.5900  171.3040  140.0120 N   0  0  0  0  0  2  0  0  0  0  0  0
  189.6940  170.8360  137.7010 C   0  0  0  0  0  2  0  0  0  0  0  0
  190.4340  168.3480  138.0700 N   0  0  0  0  0  0  0  0  0  0  0  0
  190.1060  169.4460  137.9070 C   0  0  0  0  0  0  0  0  0  0  0  0
  195.7390  174.4500  144.5890 C   0  0  0  0  0  0  0  0  0  0  0  0
  195.9090  175.3530  143.5030 N   0  0  0  0  0  1  0  0  0  0  0  0
  196.4960  174.5380  145.5920 O   0  0  0  0  0  0  0  0  0  0  0  0
  191.2020  176.9600  143.4800 C   0  0  0  0  0  2  0  0  0  0  0  0
  190.4510  177.8670  144.3340 N   0  0  0  0  0  2  0  0  0  0  0  0
  186.6490  177.2670  143.9880 C   0  0  0  0  0  2  0  0  0  0  0  0
  188.0310  177.7490  143.5460 C   0  0  0  0  0  2  0  0  0  0  0  0
  188.7210  177.5350  145.9290 C   0  0  0  0  0  3  0  0  0  0  0  0
  189.0710  177.6680  144.6440 C   0  0  0  0  0  0  0  0  0  0  0  0
  187.3040  177.2970  146.3650 C   0  0  0  0  0  2  0  0  0  0  0  0
  186.3040  177.8560  145.3530 C   0  0  2  0  0  3  0  0  0  0  0  0
  184.8850  176.6830  146.8900 O   0  0  0  0  0  1  0  0  0  0  0  0
  184.8750  177.4930  145.7540 C   0  0  1  0  0  3  0  0  0  0  0  0
  184.0700  178.7460  146.0580 C   0  0  0  0  0  1  0  0  0  0  0  0
  1  4  1  0  0  0  0
  1  8  1  0  0  0  0
  2 14  1  0  0  0  0
  3 15  1  0  0  0  0
  4 19  1  6  0  0  0
  4  9  1  0  0  0  0
  5 16  1  0  0  0  0
  6 23  1  0  0  0  0
  6  2  1  0  0  0  0
  7 11  1  0  0  0  0
  7  6  2  0  0  0  0
  8  5  1  0  0  0  0
 10  9  1  0  0  0  0
 10 13  1  0  0  0  0
 11 12  1  0  0  0  0
 12  2  2  0  0  0  0
 13 11  1  0  0  0  0
 15 14  1  0  0  0  0
 16  3  2  0  0  0  0
 17 18  2  0  0  0  0
 17 19  1  0  0  0  0
 20 22  1  0  0  0  0
 20 17  1  0  0  0  0
 22 21  3  0  0  0  0
 23 25  2  0  0  0  0
 24 23  1  0  0  0  0
 26  3  1  0  0  0  0
 26 27  1  0  0  0  0
 27 31  1  0  0  0  0
 28 33  1  0  0  0  0
 29 28  1  0  0  0  0
 29 31  1  0  0  0  0
 30 32  1  0  0  0  0
 31 30  2  0  0  0  0
 33 35  1  1  0  0  0
 33 32  1  0  0  0  0
 35 36  1  1  0  0  0
 35 34  1  0  0  0  0
M  END
>  <MODEL>
5

>  <REMARK>
 VINA RESULT:      -6.9      3.584      8.526
  Name = 
  8 active torsions:
  status: ('A' for Active; 'I' for Inactive)
    1  A    between atoms: C_4  and  C_19
    2  A    between atoms: C_6  and  C_34
    3  A    between atoms: C_7  and  N_24
    4  A    between atoms: C_8  and  C_32
    5  A    between atoms: C_10  and  C_13
    6  A    between atoms: C_19  and  C_33
    7  A    between atoms: N_25  and  C_28
    8  A    between atoms: N_25  and  C_34
                            x       y       z     vdW  Elec       q    Type
                         _______ _______ _______ _____ _____    ______ ____

>  <TORSDO>
F 8

$$$$
=
 OpenBabel11042417583D

 36 38  0  0  1  0  0  0  0  0999 V2000
  189.6250  177.5700  143.1190 C   0  0  0  0  0  2  0  0  0  0  0  0
  186.7870  176.7310  146.3840 C   0  0  0  0  0  0  0  0  0  0  0  0
  185.8470  177.5680  143.5210 C   0  0  0  0  0  0  0  0  0  0  0  0
  190.4980  176.3260  143.0240 C   0  0  2  0  0  3  0  0  0  0  0  0
  187.6130  176.5000  142.0200 C   0  0  0  0  0  2  0  0  0  0  0  0
  187.2750  177.7510  147.1820 C   0  0  0  0  0  0  0  0  0  0  0  0
  188.5730  177.4910  147.4270 N   0  0  0  0  0  0  0  0  0  0  0  0
  188.6320  177.6350  141.9650 C   0  0  0  0  0  2  0  0  0  0  0  0
  190.3660  175.4860  144.2940 C   0  0  0  0  0  2  0  0  0  0  0  0
  190.9020  176.2110  145.5220 C   0  0  0  0  0  2  0  0  0  0  0  0
  188.8370  176.3520  146.8050 N   0  0  0  0  0  0  0  0  0  0  0  0
  187.7900  175.8660  146.1570 N   0  0  0  0  0  0  0  0  0  0  0  0
  190.1610  175.7490  146.7650 C   0  0  0  0  0  2  0  0  0  0  0  0
  185.4220  176.5950  145.7850 C   0  0  0  0  0  2  0  0  0  0  0  0
  185.1980  177.5870  144.6840 C   0  0  0  0  0  2  0  0  0  0  0  0
  186.8280  176.5600  143.2470 N   0  0  0  0  0  0  0  0  0  0  0  0
  192.8220  175.8340  142.1460 C   0  0  0  0  0  0  0  0  0  0  0  0
  192.4580  174.7090  141.7110 O   0  0  0  0  0  0  0  0  0  0  0  0
  191.8850  176.7060  142.7830 N   0  0  0  0  0  2  0  0  0  0  0  0
  194.2330  176.2730  141.9680 C   0  0  0  0  0  2  0  0  0  0  0  0
  195.5780  175.8840  144.1850 N   0  0  0  0  0  0  0  0  0  0  0  0
  194.9850  176.0550  143.2050 C   0  0  0  0  0  0  0  0  0  0  0  0
  186.5620  178.9330  147.6890 C   0  0  0  0  0  0  0  0  0  0  0  0
  187.0470  179.6120  148.8420 N   0  0  0  0  0  1  0  0  0  0  0  0
  185.5240  179.3540  147.1140 O   0  0  0  0  0  0  0  0  0  0  0  0
  185.5050  178.6050  142.5030 C   0  0  0  0  0  2  0  0  0  0  0  0
  184.6220  178.0360  141.4970 N   0  0  0  0  0  2  0  0  0  0  0  0
  181.0790  179.2270  142.4790 C   0  0  0  0  0  2  0  0  0  0  0  0
  182.5200  178.7830  142.7280 C   0  0  0  0  0  2  0  0  0  0  0  0
  182.5220  177.9280  140.3900 C   0  0  0  0  0  3  0  0  0  0  0  0
  183.2140  178.2760  141.4820 C   0  0  0  0  0  0  0  0  0  0  0  0
  181.0440  178.1580  140.2580 C   0  0  0  0  0  2  0  0  0  0  0  0
  180.3560  178.1920  141.6220 C   0  0  2  0  0  3  0  0  0  0  0  0
  178.1950  177.5130  140.8360 O   0  0  0  0  0  1  0  0  0  0  0  0
  178.8790  178.5500  141.4700 C   0  0  1  0  0  3  0  0  0  0  0  0
  178.2440  178.7900  142.8300 C   0  0  0  0  0  1  0  0  0  0  0  0
  2  6  1  0  0  0  0
  3 15  1  0  0  0  0
  4 19  1  1  0  0  0
  4  1  1  0  0  0  0
  4  9  1  0  0  0  0
  5 16  1  0  0  0  0
  6  7  2  0  0  0  0
  6 23  1  0  0  0  0
  8  5  1  0  0  0  0
  8  1  1  0  0  0  0
  9 10  1  0  0  0  0
 10 13  1  0  0  0  0
 11  7  1  0  0  0  0
 12  2  2  0  0  0  0
 12 11  1  0  0  0  0
 13 11  1  0  0  0  0
 14  2  1  0  0  0  0
 15 14  1  0  0  0  0
 16  3  2  0  0  0  0
 17 19  1  0  0  0  0
 18 17  2  0  0  0  0
 20 17  1  0  0  0  0
 20 22  1  0  0  0  0
 22 21  3  0  0  0  0
 23 24  1  0  0  0  0
 25 23  2  0  0  0  0
 26  3  1  0  0  0  0
 27 26  1  0  0  0  0
 28 29  1  0  0  0  0
 30 31  2  0  0  0  0
 31 27  1  0  0  0  0
 31 29  1  0  0  0  0
 32 30  1  0  0  0  0
 32 33  1  0  0  0  0
 33 35  1  6  0  0  0
 33 28  1  0  0  0  0
 34 35  1  0  0  0  0
 35 36  1  1  0  0  0
M  END
>  <MODEL>
6

>  <REMARK>
 VINA RESULT:      -6.8      3.436      8.328
  Name = 
  8 active torsions:
  status: ('A' for Active; 'I' for Inactive)
    1  A    between atoms: C_4  and  C_19
    2  A    between atoms: C_6  and  C_34
    3  A    between atoms: C_7  and  N_24
    4  A    between atoms: C_8  and  C_32
    5  A    between atoms: C_10  and  C_13
    6  A    between atoms: C_19  and  C_33
    7  A    between atoms: N_25  and  C_28
    8  A    between atoms: N_25  and  C_34
                            x       y       z     vdW  Elec       q    Type
                         _______ _______ _______ _____ _____    ______ ____

>  <TORSDO>
F 8

$$$$
=
 OpenBabel11042417583D

 36 38  0  0  1  0  0  0  0  0999 V2000
  187.9740  175.8750  143.7580 C   0  0  0  0  0  2  0  0  0  0  0  0
  192.0410  174.3700  142.9730 C   0  0  0  0  0  0  0  0  0  0  0  0
  189.6190  173.7040  141.1110 C   0  0  0  0  0  0  0  0  0  0  0  0
  188.1270  177.3860  143.8730 C   0  0  2  0  0  3  0  0  0  0  0  0
  188.2140  175.8290  141.2400 C   0  0  0  0  0  2  0  0  0  0  0  0
  192.0990  173.6660  144.1640 C   0  0  0  0  0  0  0  0  0  0  0  0
  191.9650  174.5520  145.1690 N   0  0  0  0  0  0  0  0  0  0  0  0
  187.3280  175.4870  142.4350 C   0  0  0  0  0  2  0  0  0  0  0  0
  189.5920  177.7570  144.0970 C   0  0  0  0  0  2  0  0  0  0  0  0
  190.1190  177.2390  145.4290 C   0  0  0  0  0  2  0  0  0  0  0  0
  191.8440  175.7380  144.5910 N   0  0  0  0  0  0  0  0  0  0  0  0
  191.8750  175.6710  143.2690 N   0  0  0  0  0  0  0  0  0  0  0  0
  191.6110  176.9700  145.3300 C   0  0  0  0  0  2  0  0  0  0  0  0
  192.0720  173.8340  141.5760 C   0  0  0  0  0  2  0  0  0  0  0  0
  190.8060  173.1100  141.2320 C   0  0  0  0  0  3  0  0  0  0  0  0
  189.4830  175.1160  141.3070 N   0  0  0  0  0  2  0  0  0  0  0  0
  186.1550  178.7400  144.7060 C   0  0  0  0  0  0  0  0  0  0  0  0
  185.8120  179.0310  143.5290 O   0  0  0  0  0  0  0  0  0  0  0  0
  187.2810  177.8940  144.9480 N   0  0  0  0  0  2  0  0  0  0  0  0
  185.3600  179.2530  145.8550 C   0  0  0  0  0  2  0  0  0  0  0  0
  185.9240  177.8820  148.0170 N   0  0  0  0  0  0  0  0  0  0  0  0
  185.6760  178.4890  147.0630 C   0  0  0  0  0  0  0  0  0  0  0  0
  192.2620  172.2180  144.3600 C   0  0  0  0  0  0  0  0  0  0  0  0
  193.5450  171.6830  144.6660 N   0  0  0  0  0  1  0  0  0  0  0  0
  191.2750  171.4410  144.2590 O   0  0  0  0  0  0  0  0  0  0  0  0
  188.4440  172.8620  140.7370 C   0  0  0  0  0  2  0  0  0  0  0  0
  188.1780  172.9920  139.3120 N   0  0  0  0  0  2  0  0  0  0  0  0
  190.3390  172.3480  136.1740 C   0  0  0  0  0  2  0  0  0  0  0  0
  189.2770  173.0570  137.0150 C   0  0  0  0  0  2  0  0  0  0  0  0
  189.3350  171.0740  138.5200 C   0  0  0  0  0  3  0  0  0  0  0  0
  188.9750  172.3470  138.3180 C   0  0  0  0  0  0  0  0  0  0  0  0
  190.1920  170.3090  137.5520 C   0  0  0  0  0  2  0  0  0  0  0  0
  190.0530  170.8500  136.1300 C   0  0  2  0  0  3  0  0  0  0  0  0
  192.0780  170.9920  134.8510 O   0  0  0  0  0  1  0  0  0  0  0  0
  191.0250  170.1400  135.1880 C   0  0  1  0  0  3  0  0  0  0  0  0
  191.5990  168.8980  135.8490 C   0  0  0  0  0  1  0  0  0  0  0  0
  1  4  1  0  0  0  0
  2 12  2  0  0  0  0
  2  6  1  0  0  0  0
  3 15  2  0  0  0  0
  3 16  1  0  0  0  0
  4  9  1  0  0  0  0
  4 19  1  1  0  0  0
  5 16  1  0  0  0  0
  5  8  1  0  0  0  0
  6 23  1  0  0  0  0
  6  7  2  0  0  0  0
  8  1  1  0  0  0  0
  9 10  1  0  0  0  0
 11  7  1  0  0  0  0
 11 13  1  0  0  0  0
 12 11  1  0  0  0  0
 13 10  1  0  0  0  0
 14  2  1  0  0  0  0
 15 14  1  0  0  0  0
 17 19  1  0  0  0  0
 17 20  1  0  0  0  0
 18 17  2  0  0  0  0
 20 22  1  0  0  0  0
 22 21  3  0  0  0  0
 23 24  1  0  0  0  0
 25 23  2  0  0  0  0
 26  3  1  0  0  0  0
 27 26  1  0  0  0  0
 28 29  1  0  0  0  0
 29 31  1  0  0  0  0
 31 30  2  0  0  0  0
 31 27  1  0  0  0  0
 32 30  1  0  0  0  0
 33 35  1  6  0  0  0
 33 28  1  0  0  0  0
 33 32  1  0  0  0  0
 34 35  1  0  0  0  0
 35 36  1  1  0  0  0
M  END
>  <MODEL>
7

>  <REMARK>
 VINA RESULT:      -6.7      2.829      4.520
  Name = 
  8 active torsions:
  status: ('A' for Active; 'I' for Inactive)
    1  A    between atoms: C_4  and  C_19
    2  A    between atoms: C_6  and  C_34
    3  A    between atoms: C_7  and  N_24
    4  A    between atoms: C_8  and  C_32
    5  A    between atoms: C_10  and  C_13
    6  A    between atoms: C_19  and  C_33
    7  A    between atoms: N_25  and  C_28
    8  A    between atoms: N_25  and  C_34
                            x       y       z     vdW  Elec       q    Type
                         _______ _______ _______ _____ _____    ______ ____

>  <TORSDO>
F 8

$$$$
=
 OpenBabel11042417583D

 36 38  0  0  1  0  0  0  0  0999 V2000
  194.5550  175.0780  140.0420 C   0  0  0  0  0  2  0  0  0  0  0  0
  195.0430  174.6620  144.4030 C   0  0  0  0  0  0  0  0  0  0  0  0
  192.5670  173.5140  142.8760 C   0  0  0  0  0  0  0  0  0  0  0  0
  195.8320  174.5040  139.4450 C   0  0  2  0  0  3  0  0  0  0  0  0
  193.5640  172.8260  140.6310 C   0  0  0  0  0  2  0  0  0  0  0  0
  195.0390  176.0300  144.6170 C   0  0  0  0  0  0  0  0  0  0  0  0
  196.0790  176.5510  143.9380 N   0  0  0  0  0  0  0  0  0  0  0  0
  193.3810  174.1260  139.8520 C   0  0  0  0  0  2  0  0  0  0  0  0
  196.9220  174.4060  140.5120 C   0  0  0  0  0  2  0  0  0  0  0  0
  197.3480  175.7750  141.0260 C   0  0  0  0  0  2  0  0  0  0  0  0
  196.6810  175.5260  143.3550 N   0  0  0  0  0  0  0  0  0  0  0  0
  196.0820  174.3710  143.6020 N   0  0  0  0  0  0  0  0  0  0  0  0
  197.8230  175.6670  142.4650 C   0  0  0  0  0  2  0  0  0  0  0  0
  194.0540  173.6460  144.8820 C   0  0  0  0  0  2  0  0  0  0  0  0
  192.7400  173.7730  144.1720 C   0  0  0  0  0  2  0  0  0  0  0  0
  193.6640  173.0820  142.0630 N   0  0  0  0  0  0  0  0  0  0  0  0
  196.9490  174.7680  137.1870 C   0  0  0  0  0  0  0  0  0  0  0  0
  197.1460  173.5270  137.0990 O   0  0  0  0  0  0  0  0  0  0  0  0
  196.2680  175.3190  138.3170 N   0  0  0  0  0  2  0  0  0  0  0  0
  197.3990  175.6670  136.0900 C   0  0  0  0  0  2  0  0  0  0  0  0
  195.3470  176.9640  135.0990 N   0  0  0  0  0  0  0  0  0  0  0  0
  196.2550  176.3920  135.5350 C   0  0  0  0  0  0  0  0  0  0  0  0
  194.0950  176.8260  145.4140 C   0  0  0  0  0  0  0  0  0  0  0  0
  194.4440  177.2280  146.7340 N   0  0  0  0  0  1  0  0  0  0  0  0
  192.9750  177.1570  144.9430 O   0  0  0  0  0  0  0  0  0  0  0  0
  191.1950  173.6570  142.3050 C   0  0  0  0  0  2  0  0  0  0  0  0
  190.8620  175.0670  142.1710 N   0  0  0  0  0  2  0  0  0  0  0  0
  188.6420  175.9290  145.2150 C   0  0  0  0  0  2  0  0  0  0  0  0
  189.4090  175.0110  144.2630 C   0  0  0  0  0  2  0  0  0  0  0  0
  189.4750  176.9290  142.6760 C   0  0  0  0  0  3  0  0  0  0  0  0
  189.9400  175.7270  143.0390 C   0  0  0  0  0  0  0  0  0  0  0  0
  188.5220  177.7210  143.5250 C   0  0  0  0  0  2  0  0  0  0  0  0
  187.6820  176.8130  144.4230 C   0  0  2  0  0  3  0  0  0  0  0  0
  186.2900  178.7490  144.6870 O   0  0  0  0  0  1  0  0  0  0  0  0
  186.8120  177.6460  145.3640 C   0  0  1  0  0  3  0  0  0  0  0  0
  185.6580  176.8160  145.9000 C   0  0  0  0  0  1  0  0  0  0  0  0
  2  6  1  0  0  0  0
  2 14  1  0  0  0  0
  3 15  1  0  0  0  0
  4 19  1  6  0  0  0
  4  1  1  0  0  0  0
  4  9  1  0  0  0  0
  5 16  1  0  0  0  0
  6 23  1  0  0  0  0
  7  6  2  0  0  0  0
  8  1  1  0  0  0  0
  8  5  1  0  0  0  0
  9 10  1  0  0  0  0
 10 13  1  0  0  0  0
 11 12  1  0  0  0  0
 11  7  1  0  0  0  0
 12  2  2  0  0  0  0
 13 11  1  0  0  0  0
 15 14  1  0  0  0  0
 16  3  2  0  0  0  0
 17 19  1  0  0  0  0
 18 17  2  0  0  0  0
 20 17  1  0  0  0  0
 21 22  3  0  0  0  0
 22 20  1  0  0  0  0
 23 24  1  0  0  0  0
 25 23  2  0  0  0  0
 26  3  1  0  0  0  0
 27 26  1  0  0  0  0
 27 31  1  0  0  0  0
 29 28  1  0  0  0  0
 30 31  2  0  0  0  0
 30 32  1  0  0  0  0
 31 29  1  0  0  0  0
 32 33  1  0  0  0  0
 33 28  1  0  0  0  0
 33 35  1  1  0  0  0
 34 35  1  0  0  0  0
 35 36  1  6  0  0  0
M  END
>  <MODEL>
8

>  <REMARK>
 VINA RESULT:      -6.5      5.113      9.702
  Name = 
  8 active torsions:
  status: ('A' for Active; 'I' for Inactive)
    1  A    between atoms: C_4  and  C_19
    2  A    between atoms: C_6  and  C_34
    3  A    between atoms: C_7  and  N_24
    4  A    between atoms: C_8  and  C_32
    5  A    between atoms: C_10  and  C_13
    6  A    between atoms: C_19  and  C_33
    7  A    between atoms: N_25  and  C_28
    8  A    between atoms: N_25  and  C_34
                            x       y       z     vdW  Elec       q    Type
                         _______ _______ _______ _____ _____    ______ ____

>  <TORSDO>
F 8

$$$$
=
 OpenBabel11042417583D

 36 38  0  0  1  0  0  0  0  0999 V2000
  189.0100  174.8320  144.2730 C   0  0  0  0  0  2  0  0  0  0  0  0
  193.3750  174.4450  143.8080 C   0  0  0  0  0  0  0  0  0  0  0  0
  191.3610  173.3840  141.6640 C   0  0  0  0  0  0  0  0  0  0  0  0
  188.7680  176.3160  144.5090 C   0  0  2  0  0  3  0  0  0  0  0  0
  189.4600  175.0810  141.7960 C   0  0  0  0  0  2  0  0  0  0  0  0
  193.5110  173.6680  144.9450 C   0  0  0  0  0  0  0  0  0  0  0  0
  193.0760  174.3970  145.9910 N   0  0  0  0  0  0  0  0  0  0  0  0
  188.5940  174.4220  142.8660 C   0  0  0  0  0  2  0  0  0  0  0  0
  190.0690  177.0110  144.9080 C   0  0  0  0  0  2  0  0  0  0  0  0
  190.5980  176.5150  146.2470 C   0  0  0  0  0  2  0  0  0  0  0  0
  192.7080  175.5660  145.4880 N   0  0  0  0  0  0  0  0  0  0  0  0
  192.8640  175.6320  144.1750 N   0  0  0  0  0  0  0  0  0  0  0  0
  192.1130  176.6290  146.2830 C   0  0  0  0  0  2  0  0  0  0  0  0
  193.6550  174.0650  142.3870 C   0  0  0  0  0  2  0  0  0  0  0  0
  192.6450  173.0900  141.8640 C   0  0  0  0  0  3  0  0  0  0  0  0
  190.8580  174.6960  141.9440 N   0  0  0  0  0  2  0  0  0  0  0  0
  186.3640  176.7250  145.1940 C   0  0  0  0  0  0  0  0  0  0  0  0
  185.9820  176.7130  143.9930 O   0  0  0  0  0  0  0  0  0  0  0  0
  187.7370  176.5000  145.5230 N   0  0  0  0  0  2  0  0  0  0  0  0
  185.3720  176.9440  146.2820 C   0  0  0  0  0  2  0  0  0  0  0  0
  185.7680  179.2850  147.3940 N   0  0  0  0  0  0  0  0  0  0  0  0
  185.5920  178.2510  146.9040 C   0  0  0  0  0  0  0  0  0  0  0  0
  194.0160  172.2910  145.0560 C   0  0  0  0  0  0  0  0  0  0  0  0
  193.1690  171.1970  144.7250 N   0  0  0  0  0  1  0  0  0  0  0  0
  195.1930  172.0670  145.4430 O   0  0  0  0  0  0  0  0  0  0  0  0
  190.4700  172.3200  141.1130 C   0  0  0  0  0  2  0  0  0  0  0  0
  190.7610  172.1150  139.7020 N   0  0  0  0  0  2  0  0  0  0  0  0
  188.3670  174.2730  137.5700 C   0  0  0  0  0  2  0  0  0  0  0  0
  188.7470  173.1510  138.5350 C   0  0  0  0  0  2  0  0  0  0  0  0
  191.0980  173.4800  137.7870 C   0  0  0  0  0  3  0  0  0  0  0  0
  190.2430  172.9640  138.6780 C   0  0  0  0  0  0  0  0  0  0  0  0
  190.6650  174.4040  136.6850 C   0  0  0  0  0  2  0  0  0  0  0  0
  189.2050  174.1710  136.2980 C   0  0  2  0  0  3  0  0  0  0  0  0
  187.7410  176.0030  135.7970 O   0  0  0  0  0  1  0  0  0  0  0  0
  188.7520  175.2020  135.2660 C   0  0  1  0  0  3  0  0  0  0  0  0
  189.9120  176.0940  134.8560 C   0  0  0  0  0  1  0  0  0  0  0  0
  1  4  1  0  0  0  0
  2 12  2  0  0  0  0
  2  6  1  0  0  0  0
  3 15  2  0  0  0  0
  3 16  1  0  0  0  0
  4  9  1  0  0  0  0
  4 19  1  1  0  0  0
  5 16  1  0  0  0  0
  5  8  1  0  0  0  0
  6 23  1  0  0  0  0
  6  7  2  0  0  0  0
  8  1  1  0  0  0  0
  9 10  1  0  0  0  0
 10 13  1  0  0  0  0
 11  7  1  0  0  0  0
 11 13  1  0  0  0  0
 12 11  1  0  0  0  0
 14  2  1  0  0  0  0
 15 14  1  0  0  0  0
 17 19  1  0  0  0  0
 17 20  1  0  0  0  0
 18 17  2  0  0  0  0
 20 22  1  0  0  0  0
 22 21  3  0  0  0  0
 23 25  2  0  0  0  0
 24 23  1  0  0  0  0
 26  3  1  0  0  0  0
 27 26  1  0  0  0  0
 28 29  1  0  0  0  0
 29 31  1  0  0  0  0
 30 31  2  0  0  0  0
 31 27  1  0  0  0  0
 32 30  1  0  0  0  0
 33 35  1  6  0  0  0
 33 32  1  0  0  0  0
 33 28  1  0  0  0  0
 35 36  1  1  0  0  0
 35 34  1  0  0  0  0
M  END
>  <MODEL>
9

>  <REMARK>
 VINA RESULT:      -6.5      3.326      5.166
  Name = 
  8 active torsions:
  status: ('A' for Active; 'I' for Inactive)
    1  A    between atoms: C_4  and  C_19
    2  A    between atoms: C_6  and  C_34
    3  A    between atoms: C_7  and  N_24
    4  A    between atoms: C_8  and  C_32
    5  A    between atoms: C_10  and  C_13
    6  A    between atoms: C_19  and  C_33
    7  A    between atoms: N_25  and  C_28
    8  A    between atoms: N_25  and  C_34
                            x       y       z     vdW  Elec       q    Type
                         _______ _______ _______ _____ _____    ______ ____

>  <TORSDO>
F 8

$$$$
