=
 OpenBabel11042418223D

 37 41  0  0  1  0  0  0  0  0999 V2000
  189.1370  172.2690  139.6320 C   0  0  0  0  0  3  0  0  0  0  0  0
  187.9070  175.1860  143.0360 C   0  0  0  0  0  3  0  0  0  0  0  0
  189.2590  176.6140  146.4200 C   0  0  1  0  0  3  0  0  0  0  0  0
  192.8990  175.5200  144.1650 C   0  0  1  0  0  3  0  0  0  0  0  0
  189.6130  173.0290  140.6990 C   0  0  0  0  0  0  0  0  0  0  0  0
  190.6090  176.8590  146.1580 O   0  0  0  0  0  0  0  0  0  0  0  0
  189.8500  172.1750  138.4810 N   0  0  0  0  0  0  0  0  0  0  0  0
  191.5450  173.5540  139.3580 N   0  0  0  0  0  0  0  0  0  0  0  0
  190.8680  173.7020  140.5270 C   0  0  0  0  0  0  0  0  0  0  0  0
  188.7690  177.6330  147.2390 O   0  0  0  0  0  1  0  0  0  0  0  0
  193.3550  174.4580  143.1760 C   0  0  0  0  0  2  0  0  0  0  0  0
  191.1830  175.5870  146.0890 C   0  0  0  0  0  2  0  0  0  0  0  0
  187.8440  174.1700  142.1340 C   0  0  0  0  0  3  0  0  0  0  0  0
  188.9540  175.4320  144.1500 C   0  0  1  0  0  3  0  0  0  0  0  0
  191.4310  174.5890  141.5720 C   0  0  1  0  0  3  0  0  0  0  0  0
  191.0450  172.8040  138.3430 C   0  0  0  0  0  3  0  0  0  0  0  0
  190.5160  175.1260  142.3420 C   0  0  0  0  0  2  0  0  0  0  0  0
  190.4070  175.7760  143.6570 C   0  0  2  0  0  3  0  0  0  0  0  0
  192.9020  174.7970  141.7640 C   0  0  0  0  0  2  0  0  0  0  0  0
  188.4390  176.5310  145.1190 C   0  0  1  0  0  3  0  0  0  0  0  0
  191.4620  175.1990  144.6320 C   0  0  1  0  0  3  0  0  0  0  0  0
  188.8180  173.0130  142.0030 C   0  0  0  0  0  2  0  0  0  0  0  0
  193.9380  175.5860  145.2840 C   0  0  0  0  0  2  0  0  0  0  0  0
  194.7660  174.3020  145.3770 C   0  0  0  0  0  2  0  0  0  0  0  0
  196.2800  174.5260  145.2840 C   0  0  1  0  0  3  0  0  0  0  0  0
  196.8950  172.2760  145.8160 O   0  0  0  0  0  1  0  0  0  0  0  0
  197.0640  173.6050  146.2070 C   0  0  0  0  0  2  0  0  0  0  0  0
  196.7430  174.3720  143.9140 N   0  0  0  0  0  2  0  0  0  0  0  0
  197.3470  175.6330  143.5230 C   0  0  0  0  0  2  0  0  0  0  0  0
  196.4580  176.3260  142.5130 C   0  0  0  0  0  1  0  0  0  0  0  0
  186.9720  176.3020  145.4880 C   0  0  0  0  0  2  0  0  0  0  0  0
  184.3540  179.3960  144.1740 N   0  0  0  0  0  2  0  0  0  0  0  0
  184.8140  177.6880  145.8730 C   0  0  0  0  0  2  0  0  0  0  0  0
  186.1600  177.5250  145.2060 C   0  0  0  0  0  0  0  0  0  0  0  0
  185.7790  179.6150  143.9320 C   0  0  0  0  0  2  0  0  0  0  0  0
  184.1910  179.0570  145.5860 C   0  0  0  0  0  2  0  0  0  0  0  0
  186.5730  178.3780  144.2560 C   0  0  0  0  0  3  0  0  0  0  0  0
  1  5  1  0  0  0  0
  3 10  1  1  0  0  0
  4 21  1  0  0  0  0
  4 23  1  1  0  0  0
  5 22  1  0  0  0  0
  6  3  1  0  0  0  0
  7  1  2  0  0  0  0
  8  9  1  0  0  0  0
  9  5  2  0  0  0  0
  9 15  1  0  0  0  0
 11  4  1  0  0  0  0
 12  6  1  0  0  0  0
 13  2  2  0  0  0  0
 14  2  1  6  0  0  0
 14 20  1  0  0  0  0
 15 19  1  1  0  0  0
 15 17  1  0  0  0  0
 16  7  1  0  0  0  0
 16  8  2  0  0  0  0
 18 17  1  6  0  0  0
 18 14  1  0  0  0  0
 18 21  1  0  0  0  0
 19 11  1  0  0  0  0
 20 31  1  1  0  0  0
 20  3  1  0  0  0  0
 21 12  1  1  0  0  0
 22 13  1  0  0  0  0
 23 24  1  0  0  0  0
 25 24  1  6  0  0  0
 25 27  1  0  0  0  0
 26 27  1  0  0  0  0
 28 25  1  0  0  0  0
 29 28  1  0  0  0  0
 30 29  1  0  0  0  0
 32 36  1  0  0  0  0
 34 31  1  0  0  0  0
 34 33  1  0  0  0  0
 35 32  1  0  0  0  0
 35 37  1  0  0  0  0
 36 33  1  0  0  0  0
 37 34  2  0  0  0  0
M  END
>  <MODEL>
1

>  <REMARK>
 VINA RESULT:      -7.3      0.000      0.000
  Name = 
  8 active torsions:
  status: ('A' for Active; 'I' for Inactive)
    1  A    between atoms: N_3  and  C_9
    2  A    between atoms: N_3  and  CA_14
    3  A    between atoms: C_5  and  C_20
    4  A    between atoms: C_6  and  CA_14
    5  A    between atoms: C_6  and  C_20
    6  A    between atoms: CA_14  and  C_30
    7  A    between atoms: C_22  and  C_29
    8  A    between atoms: C_29  and  C_34
                            x       y       z     vdW  Elec       q    Type
                         _______ _______ _______ _____ _____    ______ ____

>  <TORSDO>
F 8

$$$$
=
 OpenBabel11042418223D

 37 41  0  0  1  0  0  0  0  0999 V2000
  194.8230  175.7620  145.4720 C   0  0  0  0  0  3  0  0  0  0  0  0
  190.2950  176.7200  145.0370 C   0  0  0  0  0  3  0  0  0  0  0  0
  187.3140  176.1430  142.5680 C   0  0  1  0  0  3  0  0  0  0  0  0
  190.0720  172.7870  141.7530 C   0  0  1  0  0  3  0  0  0  0  0  0
  193.6490  175.4070  144.8100 C   0  0  0  0  0  0  0  0  0  0  0  0
  187.4790  174.8180  142.1550 O   0  0  0  0  0  0  0  0  0  0  0  0
  195.7020  174.8110  145.8750 N   0  0  0  0  0  0  0  0  0  0  0  0
  194.3400  173.1050  144.9900 N   0  0  0  0  0  0  0  0  0  0  0  0
  193.4130  174.0110  144.5810 C   0  0  0  0  0  0  0  0  0  0  0  0
  185.9490  176.4010  142.7110 O   0  0  0  0  0  1  0  0  0  0  0  0
  191.5680  172.5180  141.7280 C   0  0  0  0  0  2  0  0  0  0  0  0
  188.5950  174.8560  141.3160 C   0  0  0  0  0  2  0  0  0  0  0  0
  191.6280  176.8950  145.2450 C   0  0  0  0  0  3  0  0  0  0  0  0
  189.5750  176.1210  143.8030 C   0  0  1  0  0  3  0  0  0  0  0  0
  192.1660  173.5210  143.9480 C   0  0  1  0  0  3  0  0  0  0  0  0
  195.4710  173.4950  145.6330 C   0  0  0  0  0  3  0  0  0  0  0  0
  191.1440  174.3230  144.1290 C   0  0  0  0  0  2  0  0  0  0  0  0
  189.8200  174.5890  143.5470 C   0  0  2  0  0  3  0  0  0  0  0  0
  192.1010  172.2670  143.1310 C   0  0  0  0  0  2  0  0  0  0  0  0
  188.0530  176.4170  143.8900 C   0  0  1  0  0  3  0  0  0  0  0  0
  189.8280  174.2870  142.0290 C   0  0  1  0  0  3  0  0  0  0  0  0
  192.7500  176.5280  144.2920 C   0  0  0  0  0  2  0  0  0  0  0  0
  189.4880  172.2730  140.4360 C   0  0  0  0  0  2  0  0  0  0  0  0
  190.5610  171.6660  139.5290 C   0  0  0  0  0  2  0  0  0  0  0  0
  190.5790  172.2440  138.1090 C   0  0  1  0  0  3  0  0  0  0  0  0
  189.7200  170.0990  137.4900 O   0  0  0  0  0  1  0  0  0  0  0  0
  189.7100  171.4510  137.1450 C   0  0  0  0  0  2  0  0  0  0  0  0
  190.1740  173.6400  138.1130 N   0  0  0  0  0  2  0  0  0  0  0  0
  189.0910  173.7740  137.1560 C   0  0  0  0  0  2  0  0  0  0  0  0
  187.9690  174.5800  137.7740 C   0  0  0  0  0  1  0  0  0  0  0  0
  187.7930  177.8700  144.2940 C   0  0  0  0  0  2  0  0  0  0  0  0
  185.2350  178.6100  147.6220 N   0  0  0  0  0  2  0  0  0  0  0  0
  185.5790  178.8680  145.2070 C   0  0  0  0  0  2  0  0  0  0  0  0
  186.7600  177.9390  145.3730 C   0  0  0  0  0  0  0  0  0  0  0  0
  185.9700  177.3470  147.6450 C   0  0  0  0  0  2  0  0  0  0  0  0
  184.5540  178.7030  146.3320 C   0  0  0  0  0  2  0  0  0  0  0  0
  186.9770  177.2920  146.5290 C   0  0  0  0  0  3  0  0  0  0  0  0
  1  7  1  0  0  0  0
  2 13  2  0  0  0  0
  3 10  1  1  0  0  0
  3 20  1  0  0  0  0
  4 23  1  6  0  0  0
  4 21  1  0  0  0  0
  5  1  2  0  0  0  0
  6  3  1  0  0  0  0
  8 16  1  0  0  0  0
  9  5  1  0  0  0  0
  9  8  2  0  0  0  0
 11  4  1  0  0  0  0
 11 19  1  0  0  0  0
 12  6  1  0  0  0  0
 14 20  1  0  0  0  0
 14  2  1  1  0  0  0
 15 19  1  6  0  0  0
 15 17  1  0  0  0  0
 15  9  1  0  0  0  0
 16  7  2  0  0  0  0
 18 14  1  0  0  0  0
 18 17  1  6  0  0  0
 20 31  1  6  0  0  0
 21 12  1  1  0  0  0
 21 18  1  0  0  0  0
 22  5  1  0  0  0  0
 22 13  1  0  0  0  0
 24 23  1  0  0  0  0
 25 27  1  6  0  0  0
 25 28  1  0  0  0  0
 25 24  1  0  0  0  0
 27 26  1  0  0  0  0
 29 30  1  0  0  0  0
 29 28  1  0  0  0  0
 31 34  1  0  0  0  0
 32 35  1  0  0  0  0
 33 34  1  0  0  0  0
 33 36  1  0  0  0  0
 34 37  2  0  0  0  0
 36 32  1  0  0  0  0
 37 35  1  0  0  0  0
M  END
>  <MODEL>
2

>  <REMARK>
 VINA RESULT:      -7.3      2.764      6.158
  Name = 
  8 active torsions:
  status: ('A' for Active; 'I' for Inactive)
    1  A    between atoms: N_3  and  C_9
    2  A    between atoms: N_3  and  CA_14
    3  A    between atoms: C_5  and  C_20
    4  A    between atoms: C_6  and  CA_14
    5  A    between atoms: C_6  and  C_20
    6  A    between atoms: CA_14  and  C_30
    7  A    between atoms: C_22  and  C_29
    8  A    between atoms: C_29  and  C_34
                            x       y       z     vdW  Elec       q    Type
                         _______ _______ _______ _____ _____    ______ ____

>  <TORSDO>
F 8

$$$$
=
 OpenBabel11042418223D

 37 41  0  0  1  0  0  0  0  0999 V2000
  194.0040  174.6710  146.0320 C   0  0  0  0  0  3  0  0  0  0  0  0
  191.8110  172.8950  142.3380 C   0  0  0  0  0  3  0  0  0  0  0  0
  188.4290  173.2180  140.3960 C   0  0  1  0  0  3  0  0  0  0  0  0
  188.9380  177.1440  142.3610 C   0  0  1  0  0  3  0  0  0  0  0  0
  192.9660  174.8760  145.1250 C   0  0  0  0  0  0  0  0  0  0  0  0
  188.1930  174.5950  140.3720 O   0  0  0  0  0  0  0  0  0  0  0  0
  194.7700  175.7100  146.4500 N   0  0  0  0  0  0  0  0  0  0  0  0
  193.5370  177.2170  145.1260 N   0  0  0  0  0  0  0  0  0  0  0  0
  192.7500  176.2140  144.6560 C   0  0  0  0  0  0  0  0  0  0  0  0
  188.0230  172.6720  139.1760 O   0  0  0  0  0  1  0  0  0  0  0  0
  189.5050  177.7090  143.6540 C   0  0  0  0  0  2  0  0  0  0  0  0
  187.8440  174.9070  141.6880 C   0  0  0  0  0  2  0  0  0  0  0  0
  192.5030  172.9630  143.5080 C   0  0  0  0  0  3  0  0  0  0  0  0
  190.4350  173.5120  141.9870 C   0  0  1  0  0  3  0  0  0  0  0  0
  191.7180  176.5310  143.6400 C   0  0  1  0  0  3  0  0  0  0  0  0
  194.5390  176.9730  146.0100 C   0  0  0  0  0  3  0  0  0  0  0  0
  191.4450  175.5220  142.8490 C   0  0  0  0  0  2  0  0  0  0  0  0
  190.3860  175.0820  141.9280 C   0  0  2  0  0  3  0  0  0  0  0  0
  191.0170  177.8520  143.5700 C   0  0  0  0  0  2  0  0  0  0  0  0
  189.9140  172.9060  140.6550 C   0  0  1  0  0  3  0  0  0  0  0  0
  189.0080  175.6010  142.4050 C   0  0  1  0  0  3  0  0  0  0  0  0
  192.0760  173.6860  144.7720 C   0  0  0  0  0  2  0  0  0  0  0  0
  187.5320  177.7180  142.1820 C   0  0  0  0  0  2  0  0  0  0  0  0
  186.9530  178.2420  143.4980 C   0  0  0  0  0  2  0  0  0  0  0  0
  185.6070  178.9600  143.3470 C   0  0  1  0  0  3  0  0  0  0  0  0
  184.1030  178.4180  141.5670 O   0  0  0  0  0  1  0  0  0  0  0  0
  184.5060  178.0360  142.8460 C   0  0  0  0  0  2  0  0  0  0  0  0
  185.2070  179.5790  144.6000 N   0  0  0  0  0  2  0  0  0  0  0  0
  184.2020  178.7200  145.2000 C   0  0  0  0  0  2  0  0  0  0  0  0
  184.5730  178.4410  146.6410 C   0  0  0  0  0  1  0  0  0  0  0  0
  190.0990  171.3870  140.6280 C   0  0  0  0  0  2  0  0  0  0  0  0
  191.4330  170.4310  136.6950 N   0  0  0  0  0  2  0  0  0  0  0  0
  191.6270  171.9510  138.6090 C   0  0  0  0  0  2  0  0  0  0  0  0
  190.7690  170.9610  139.3610 C   0  0  0  0  0  0  0  0  0  0  0  0
  191.1210  169.2950  137.5610 C   0  0  0  0  0  2  0  0  0  0  0  0
  192.3490  171.3060  137.4240 C   0  0  0  0  0  2  0  0  0  0  0  0
  190.4780  169.7580  138.8400 C   0  0  0  0  0  3  0  0  0  0  0  0
  1  7  1  0  0  0  0
  2 13  2  0  0  0  0
  3 10  1  6  0  0  0
  3 20  1  0  0  0  0
  4 23  1  1  0  0  0
  4 21  1  0  0  0  0
  4 11  1  0  0  0  0
  5  1  2  0  0  0  0
  6  3  1  0  0  0  0
  6 12  1  0  0  0  0
  8 16  1  0  0  0  0
  9  5  1  0  0  0  0
  9  8  2  0  0  0  0
 13 22  1  0  0  0  0
 14  2  1  6  0  0  0
 15 17  1  1  0  0  0
 15  9  1  0  0  0  0
 16  7  2  0  0  0  0
 18 14  1  0  0  0  0
 18 21  1  0  0  0  0
 18 17  1  1  0  0  0
 19 15  1  0  0  0  0
 19 11  1  0  0  0  0
 20 31  1  1  0  0  0
 20 14  1  0  0  0  0
 21 12  1  6  0  0  0
 22  5  1  0  0  0  0
 23 24  1  0  0  0  0
 25 27  1  1  0  0  0
 25 24  1  0  0  0  0
 25 28  1  0  0  0  0
 26 27  1  0  0  0  0
 28 29  1  0  0  0  0
 29 30  1  0  0  0  0
 32 36  1  0  0  0  0
 32 35  1  0  0  0  0
 33 34  1  0  0  0  0
 34 31  1  0  0  0  0
 35 37  1  0  0  0  0
 36 33  1  0  0  0  0
 37 34  2  0  0  0  0
M  END
>  <MODEL>
3

>  <REMARK>
 VINA RESULT:      -7.0      3.116      8.906
  Name = 
  8 active torsions:
  status: ('A' for Active; 'I' for Inactive)
    1  A    between atoms: N_3  and  C_9
    2  A    between atoms: N_3  and  CA_14
    3  A    between atoms: C_5  and  C_20
    4  A    between atoms: C_6  and  CA_14
    5  A    between atoms: C_6  and  C_20
    6  A    between atoms: CA_14  and  C_30
    7  A    between atoms: C_22  and  C_29
    8  A    between atoms: C_29  and  C_34
                            x       y       z     vdW  Elec       q    Type
                         _______ _______ _______ _____ _____    ______ ____

>  <TORSDO>
F 8

$$$$
=
 OpenBabel11042418223D

 37 41  0  0  1  0  0  0  0  0999 V2000
  194.9220  175.7110  145.4190 C   0  0  0  0  0  3  0  0  0  0  0  0
  190.3990  176.6670  144.9250 C   0  0  0  0  0  3  0  0  0  0  0  0
  187.4430  176.0580  142.4340 C   0  0  1  0  0  3  0  0  0  0  0  0
  190.2060  172.6880  141.6930 C   0  0  1  0  0  3  0  0  0  0  0  0
  193.7540  175.3480  144.7510 C   0  0  0  0  0  0  0  0  0  0  0  0
  187.6110  174.7270  142.0410 O   0  0  0  0  0  0  0  0  0  0  0  0
  195.7960  174.7640  145.8440 N   0  0  0  0  0  0  0  0  0  0  0  0
  194.4420  173.0480  144.9690 N   0  0  0  0  0  0  0  0  0  0  0  0
  193.5190  173.9490  144.5380 C   0  0  0  0  0  0  0  0  0  0  0  0
  186.0770  176.3190  142.5600 O   0  0  0  0  0  1  0  0  0  0  0  0
  191.7020  172.4180  141.6870 C   0  0  0  0  0  2  0  0  0  0  0  0
  188.7360  174.7530  141.2130 C   0  0  0  0  0  2  0  0  0  0  0  0
  191.7300  176.8430  145.1450 C   0  0  0  0  0  3  0  0  0  0  0  0
  189.6920  176.0510  143.6930 C   0  0  1  0  0  3  0  0  0  0  0  0
  192.2780  173.4510  143.8990 C   0  0  1  0  0  3  0  0  0  0  0  0
  195.5660  173.4460  145.6180 C   0  0  0  0  0  3  0  0  0  0  0  0
  191.2560  174.2560  144.0580 C   0  0  0  0  0  2  0  0  0  0  0  0
  189.9370  174.5160  143.4600 C   0  0  2  0  0  3  0  0  0  0  0  0
  192.2200  172.1860  143.0990 C   0  0  0  0  0  2  0  0  0  0  0  0
  188.1690  176.3500  143.7600 C   0  0  1  0  0  3  0  0  0  0  0  0
  189.9600  174.1930  141.9460 C   0  0  1  0  0  3  0  0  0  0  0  0
  192.8610  176.4620  144.2080 C   0  0  0  0  0  2  0  0  0  0  0  0
  189.6350  172.1580  140.3780 C   0  0  0  0  0  2  0  0  0  0  0  0
  190.7310  171.8650  139.3510 C   0  0  0  0  0  2  0  0  0  0  0  0
  190.6570  170.4610  138.7390 C   0  0  1  0  0  3  0  0  0  0  0  0
  190.4050  171.5820  136.6410 O   0  0  0  0  0  1  0  0  0  0  0  0
  190.9640  170.4580  137.2490 C   0  0  0  0  0  2  0  0  0  0  0  0
  191.5470  169.5460  139.4340 N   0  0  0  0  0  2  0  0  0  0  0  0
  190.7140  168.5510  140.0850 C   0  0  0  0  0  2  0  0  0  0  0  0
  190.7890  168.7340  141.5850 C   0  0  0  0  0  1  0  0  0  0  0  0
  187.9060  177.8080  144.1420 C   0  0  0  0  0  2  0  0  0  0  0  0
  184.4810  177.6280  146.6710 N   0  0  0  0  0  2  0  0  0  0  0  0
  186.7720  176.8500  146.2690 C   0  0  0  0  0  2  0  0  0  0  0  0
  186.8340  177.8960  145.1800 C   0  0  0  0  0  0  0  0  0  0  0  0
  184.7570  178.9250  146.0550 C   0  0  0  0  0  2  0  0  0  0  0  0
  185.7100  177.1770  147.3220 C   0  0  0  0  0  2  0  0  0  0  0  0
  185.8620  178.8110  145.0390 C   0  0  0  0  0  3  0  0  0  0  0  0
  1  7  1  0  0  0  0
  2 13  2  0  0  0  0
  3 10  1  1  0  0  0
  3 20  1  0  0  0  0
  4 23  1  6  0  0  0
  4 21  1  0  0  0  0
  5  1  2  0  0  0  0
  6  3  1  0  0  0  0
  8 16  1  0  0  0  0
  9  5  1  0  0  0  0
  9  8  2  0  0  0  0
 11  4  1  0  0  0  0
 11 19  1  0  0  0  0
 12  6  1  0  0  0  0
 14 20  1  0  0  0  0
 14  2  1  1  0  0  0
 15 19  1  6  0  0  0
 15 17  1  0  0  0  0
 15  9  1  0  0  0  0
 16  7  2  0  0  0  0
 18 14  1  0  0  0  0
 18 17  1  6  0  0  0
 20 31  1  6  0  0  0
 21 12  1  1  0  0  0
 21 18  1  0  0  0  0
 22  5  1  0  0  0  0
 22 13  1  0  0  0  0
 24 23  1  0  0  0  0
 25 27  1  6  0  0  0
 25 24  1  0  0  0  0
 25 28  1  0  0  0  0
 26 27  1  0  0  0  0
 28 29  1  0  0  0  0
 29 30  1  0  0  0  0
 31 34  1  0  0  0  0
 32 36  1  0  0  0  0
 33 36  1  0  0  0  0
 34 33  1  0  0  0  0
 35 32  1  0  0  0  0
 37 34  2  0  0  0  0
 37 35  1  0  0  0  0
M  END
>  <MODEL>
4

>  <REMARK>
 VINA RESULT:      -7.0      2.884      6.076
  Name = 
  8 active torsions:
  status: ('A' for Active; 'I' for Inactive)
    1  A    between atoms: N_3  and  C_9
    2  A    between atoms: N_3  and  CA_14
    3  A    between atoms: C_5  and  C_20
    4  A    between atoms: C_6  and  CA_14
    5  A    between atoms: C_6  and  C_20
    6  A    between atoms: CA_14  and  C_30
    7  A    between atoms: C_22  and  C_29
    8  A    between atoms: C_29  and  C_34
                            x       y       z     vdW  Elec       q    Type
                         _______ _______ _______ _____ _____    ______ ____

>  <TORSDO>
F 8

$$$$
=
 OpenBabel11042418223D

 37 41  0  0  1  0  0  0  0  0999 V2000
  190.8250  172.5180  139.6770 C   0  0  0  0  0  3  0  0  0  0  0  0
  191.6730  173.4680  144.1480 C   0  0  0  0  0  3  0  0  0  0  0  0
  191.0580  176.2750  146.8040 C   0  0  1  0  0  3  0  0  0  0  0  0
  187.7870  176.8050  143.8790 C   0  0  1  0  0  3  0  0  0  0  0  0
  190.4500  173.3170  140.7550 C   0  0  0  0  0  0  0  0  0  0  0  0
  189.7450  176.6830  146.5550 O   0  0  0  0  0  0  0  0  0  0  0  0
  189.8900  172.0280  138.8250 N   0  0  0  0  0  0  0  0  0  0  0  0
  188.1640  173.0870  140.0270 N   0  0  0  0  0  0  0  0  0  0  0  0
  189.0520  173.5900  140.9250 C   0  0  0  0  0  0  0  0  0  0  0  0
  191.2780  176.2890  148.1830 O   0  0  0  0  0  1  0  0  0  0  0  0
  187.5570  176.6580  142.3830 C   0  0  0  0  0  2  0  0  0  0  0  0
  189.8250  177.3850  145.3500 C   0  0  0  0  0  2  0  0  0  0  0  0
  191.8780  173.1030  142.8530 C   0  0  0  0  0  3  0  0  0  0  0  0
  191.0750  174.7840  144.7020 C   0  0  1  0  0  3  0  0  0  0  0  0
  188.5400  174.3720  142.0750 C   0  0  1  0  0  3  0  0  0  0  0  0
  188.5730  172.3120  138.9900 C   0  0  0  0  0  3  0  0  0  0  0  0
  189.3120  174.3010  143.1330 C   0  0  0  0  0  2  0  0  0  0  0  0
  189.5540  175.0300  144.3870 C   0  0  2  0  0  3  0  0  0  0  0  0
  187.2980  175.2060  142.0110 C   0  0  0  0  0  2  0  0  0  0  0  0
  191.3300  174.8720  146.2310 C   0  0  1  0  0  3  0  0  0  0  0  0
  189.2760  176.5400  144.1940 C   0  0  1  0  0  3  0  0  0  0  0  0
  191.5550  173.9230  141.6180 C   0  0  0  0  0  2  0  0  0  0  0  0
  187.2800  178.1870  144.2910 C   0  0  0  0  0  2  0  0  0  0  0  0
  186.4790  178.8630  143.1750 C   0  0  0  0  0  2  0  0  0  0  0  0
  185.0910  179.3490  143.6080 C   0  0  1  0  0  3  0  0  0  0  0  0
  184.1910  177.9090  141.9230 O   0  0  0  0  0  1  0  0  0  0  0  0
  183.9860  178.3760  143.2210 C   0  0  0  0  0  2  0  0  0  0  0  0
  185.0540  179.6030  145.0380 N   0  0  0  0  0  2  0  0  0  0  0  0
  183.9670  178.8100  145.5860 C   0  0  0  0  0  2  0  0  0  0  0  0
  184.4020  178.2010  146.9010 C   0  0  0  0  0  1  0  0  0  0  0  0
  192.7690  174.4830  146.5760 C   0  0  0  0  0  2  0  0  0  0  0  0
  196.0010  176.6000  144.7770 N   0  0  0  0  0  2  0  0  0  0  0  0
  194.6310  174.5650  144.7720 C   0  0  0  0  0  2  0  0  0  0  0  0
  193.7400  175.2770  145.7630 C   0  0  0  0  0  0  0  0  0  0  0  0
  194.8820  177.4150  145.2490 C   0  0  0  0  0  2  0  0  0  0  0  0
  195.4520  175.5440  143.9280 C   0  0  0  0  0  2  0  0  0  0  0  0
  193.9070  176.5810  146.0350 C   0  0  0  0  0  3  0  0  0  0  0  0
  1  5  1  0  0  0  0
  3 10  1  1  0  0  0
  4 21  1  0  0  0  0
  4 23  1  6  0  0  0
  5  9  2  0  0  0  0
  5 22  1  0  0  0  0
  6  3  1  0  0  0  0
  7 16  1  0  0  0  0
  7  1  2  0  0  0  0
  8  9  1  0  0  0  0
  9 15  1  0  0  0  0
 11  4  1  0  0  0  0
 12  6  1  0  0  0  0
 13  2  2  0  0  0  0
 14  2  1  1  0  0  0
 14 20  1  0  0  0  0
 15 19  1  6  0  0  0
 15 17  1  0  0  0  0
 16  8  2  0  0  0  0
 18 17  1  6  0  0  0
 18 14  1  0  0  0  0
 19 11  1  0  0  0  0
 20 31  1  6  0  0  0
 20  3  1  0  0  0  0
 21 18  1  0  0  0  0
 21 12  1  1  0  0  0
 22 13  1  0  0  0  0
 24 23  1  0  0  0  0
 25 24  1  1  0  0  0
 25 28  1  0  0  0  0
 26 27  1  0  0  0  0
 27 25  1  0  0  0  0
 28 29  1  0  0  0  0
 29 30  1  0  0  0  0
 32 35  1  0  0  0  0
 33 34  1  0  0  0  0
 34 37  2  0  0  0  0
 34 31  1  0  0  0  0
 35 37  1  0  0  0  0
 36 33  1  0  0  0  0
 36 32  1  0  0  0  0
M  END
>  <MODEL>
5

>  <REMARK>
 VINA RESULT:      -7.0      1.844      7.543
  Name = 
  8 active torsions:
  status: ('A' for Active; 'I' for Inactive)
    1  A    between atoms: N_3  and  C_9
    2  A    between atoms: N_3  and  CA_14
    3  A    between atoms: C_5  and  C_20
    4  A    between atoms: C_6  and  CA_14
    5  A    between atoms: C_6  and  C_20
    6  A    between atoms: CA_14  and  C_30
    7  A    between atoms: C_22  and  C_29
    8  A    between atoms: C_29  and  C_34
                            x       y       z     vdW  Elec       q    Type
                         _______ _______ _______ _____ _____    ______ ____

>  <TORSDO>
F 8

$$$$
=
 OpenBabel11042418223D

 37 41  0  0  1  0  0  0  0  0999 V2000
  191.3320  172.2820  139.9490 C   0  0  0  0  0  3  0  0  0  0  0  0
  191.8620  173.4200  144.4250 C   0  0  0  0  0  3  0  0  0  0  0  0
  191.0980  176.3520  146.9020 C   0  0  1  0  0  3  0  0  0  0  0  0
  188.0600  176.7900  143.7220 C   0  0  1  0  0  3  0  0  0  0  0  0
  190.8910  173.1330  140.9610 C   0  0  0  0  0  0  0  0  0  0  0  0
  189.8130  176.7640  146.5390 O   0  0  0  0  0  0  0  0  0  0  0  0
  190.4550  171.7660  139.0520 N   0  0  0  0  0  0  0  0  0  0  0  0
  188.6620  172.8990  140.0750 N   0  0  0  0  0  0  0  0  0  0  0  0
  189.4890  173.4310  141.0140 C   0  0  0  0  0  0  0  0  0  0  0  0
  191.2160  176.4250  148.2920 O   0  0  0  0  0  1  0  0  0  0  0  0
  187.9390  176.5790  142.2210 C   0  0  0  0  0  2  0  0  0  0  0  0
  189.9920  177.4100  145.3140 C   0  0  0  0  0  2  0  0  0  0  0  0
  192.1570  172.9950  143.1670 C   0  0  0  0  0  3  0  0  0  0  0  0
  191.2460  174.7680  144.8750 C   0  0  1  0  0  3  0  0  0  0  0  0
  188.9060  174.2690  142.0880 C   0  0  1  0  0  3  0  0  0  0  0  0
  189.1340  172.0730  139.1060 C   0  0  0  0  0  3  0  0  0  0  0  0
  189.5970  174.2360  143.2020 C   0  0  0  0  0  2  0  0  0  0  0  0
  189.7570  175.0180  144.4380 C   0  0  2  0  0  3  0  0  0  0  0  0
  187.6850  175.1150  141.8950 C   0  0  0  0  0  2  0  0  0  0  0  0
  191.3900  174.9210  146.4140 C   0  0  1  0  0  3  0  0  0  0  0  0
  189.5180  176.5210  144.1590 C   0  0  1  0  0  3  0  0  0  0  0  0
  191.9390  173.7630  141.8760 C   0  0  0  0  0  2  0  0  0  0  0  0
  187.5460  178.1960  144.0340 C   0  0  0  0  0  2  0  0  0  0  0  0
  186.4430  178.1820  145.0950 C   0  0  0  0  0  2  0  0  0  0  0  0
  185.0210  178.2000  144.5200 C   0  0  1  0  0  3  0  0  0  0  0  0
  184.0960  178.1320  146.7250 O   0  0  0  0  0  1  0  0  0  0  0  0
  184.0060  178.7800  145.4940 C   0  0  0  0  0  2  0  0  0  0  0  0
  184.9800  178.9270  143.2630 N   0  0  0  0  0  2  0  0  0  0  0  0
  184.2220  178.1180  142.3250 C   0  0  0  0  0  2  0  0  0  0  0  0
  184.8320  178.2410  140.9450 C   0  0  0  0  0  1  0  0  0  0  0  0
  192.7920  174.5300  146.8820 C   0  0  0  0  0  2  0  0  0  0  0  0
  195.3280  176.6160  144.1650 N   0  0  0  0  0  2  0  0  0  0  0  0
  193.6960  176.7910  145.9870 C   0  0  0  0  0  2  0  0  0  0  0  0
  193.8320  175.2920  146.1250 C   0  0  0  0  0  0  0  0  0  0  0  0
  195.8410  175.3450  144.6760 C   0  0  0  0  0  2  0  0  0  0  0  0
  194.9180  177.4210  145.3130 C   0  0  0  0  0  2  0  0  0  0  0  0
  194.7830  174.6170  145.4590 C   0  0  0  0  0  3  0  0  0  0  0  0
  1  5  1  0  0  0  0
  3 10  1  1  0  0  0
  4 23  1  6  0  0  0
  4 21  1  0  0  0  0
  5  9  2  0  0  0  0
  5 22  1  0  0  0  0
  6  3  1  0  0  0  0
  7 16  1  0  0  0  0
  7  1  2  0  0  0  0
  8  9  1  0  0  0  0
  9 15  1  0  0  0  0
 11  4  1  0  0  0  0
 12  6  1  0  0  0  0
 13  2  2  0  0  0  0
 14  2  1  1  0  0  0
 14 20  1  0  0  0  0
 15 19  1  6  0  0  0
 15 17  1  0  0  0  0
 16  8  2  0  0  0  0
 18 17  1  6  0  0  0
 18 14  1  0  0  0  0
 19 11  1  0  0  0  0
 20 31  1  6  0  0  0
 20  3  1  0  0  0  0
 21 18  1  0  0  0  0
 21 12  1  1  0  0  0
 22 13  1  0  0  0  0
 23 24  1  0  0  0  0
 25 24  1  1  0  0  0
 25 27  1  0  0  0  0
 27 26  1  0  0  0  0
 28 25  1  0  0  0  0
 29 28  1  0  0  0  0
 30 29  1  0  0  0  0
 32 35  1  0  0  0  0
 32 36  1  0  0  0  0
 33 34  1  0  0  0  0
 34 31  1  0  0  0  0
 35 37  1  0  0  0  0
 36 33  1  0  0  0  0
 37 34  2  0  0  0  0
M  END
>  <MODEL>
6

>  <REMARK>
 VINA RESULT:      -6.9      1.875      7.355
  Name = 
  8 active torsions:
  status: ('A' for Active; 'I' for Inactive)
    1  A    between atoms: N_3  and  C_9
    2  A    between atoms: N_3  and  CA_14
    3  A    between atoms: C_5  and  C_20
    4  A    between atoms: C_6  and  CA_14
    5  A    between atoms: C_6  and  C_20
    6  A    between atoms: CA_14  and  C_30
    7  A    between atoms: C_22  and  C_29
    8  A    between atoms: C_29  and  C_34
                            x       y       z     vdW  Elec       q    Type
                         _______ _______ _______ _____ _____    ______ ____

>  <TORSDO>
F 8

$$$$
=
 OpenBabel11042418223D

 37 41  0  0  1  0  0  0  0  0999 V2000
  190.5340  172.7970  138.5940 C   0  0  0  0  0  3  0  0  0  0  0  0
  193.3380  173.0550  142.2920 C   0  0  0  0  0  3  0  0  0  0  0  0
  194.1220  175.4010  145.3250 C   0  0  1  0  0  3  0  0  0  0  0  0
  189.9210  176.3130  144.2960 C   0  0  1  0  0  3  0  0  0  0  0  0
  190.7230  173.4100  139.8310 C   0  0  0  0  0  0  0  0  0  0  0  0
  192.8590  175.8150  145.7560 O   0  0  0  0  0  0  0  0  0  0  0  0
  189.2930  172.4260  138.1900 N   0  0  0  0  0  0  0  0  0  0  0  0
  188.3440  173.2500  140.1820 N   0  0  0  0  0  0  0  0  0  0  0  0
  189.5640  173.6250  140.6490 C   0  0  0  0  0  0  0  0  0  0  0  0
  194.9350  175.2040  146.4430 O   0  0  0  0  0  1  0  0  0  0  0  0
  189.0400  176.3960  143.0600 C   0  0  0  0  0  2  0  0  0  0  0  0
  192.4290  176.6980  144.7630 C   0  0  0  0  0  2  0  0  0  0  0  0
  192.9250  172.9000  141.0050 C   0  0  0  0  0  3  0  0  0  0  0  0
  193.1200  174.2560  143.2440 C   0  0  1  0  0  3  0  0  0  0  0  0
  189.6620  174.2060  142.0080 C   0  0  1  0  0  3  0  0  0  0  0  0
  188.2050  172.6540  138.9700 C   0  0  0  0  0  3  0  0  0  0  0  0
  190.8200  173.9880  142.5820 C   0  0  0  0  0  2  0  0  0  0  0  0
  191.6340  174.5170  143.6870 C   0  0  2  0  0  3  0  0  0  0  0  0
  188.5670  175.0150  142.6330 C   0  0  0  0  0  2  0  0  0  0  0  0
  194.0360  174.1100  144.4900 C   0  0  1  0  0  3  0  0  0  0  0  0
  191.3790  176.0330  143.8660 C   0  0  1  0  0  3  0  0  0  0  0  0
  192.1270  173.8960  140.1840 C   0  0  0  0  0  2  0  0  0  0  0  0
  189.7240  177.6040  145.0920 C   0  0  0  0  0  2  0  0  0  0  0  0
  189.1710  177.3360  146.4940 C   0  0  0  0  0  2  0  0  0  0  0  0
  188.2710  176.0980  146.5860 C   0  0  1  0  0  3  0  0  0  0  0  0
  190.2570  175.2780  147.6370 O   0  0  0  0  0  1  0  0  0  0  0  0
  188.9450  174.9400  147.3070 C   0  0  0  0  0  2  0  0  0  0  0  0
  187.0090  176.4220  147.2310 N   0  0  0  0  0  2  0  0  0  0  0  0
  186.3640  177.4400  146.4220 C   0  0  0  0  0  2  0  0  0  0  0  0
  185.7420  176.7960  145.2030 C   0  0  0  0  0  1  0  0  0  0  0  0
  195.4550  173.7010  144.0900 C   0  0  0  0  0  2  0  0  0  0  0  0
  196.6400  170.3460  146.4350 N   0  0  0  0  0  2  0  0  0  0  0  0
  194.7740  171.6220  145.4830 C   0  0  0  0  0  2  0  0  0  0  0  0
  195.8200  172.3900  144.7080 C   0  0  0  0  0  0  0  0  0  0  0  0
  197.5140  170.6870  145.3140 C   0  0  0  0  0  2  0  0  0  0  0  0
  195.2770  170.2430  145.9190 C   0  0  0  0  0  2  0  0  0  0  0  0
  197.1020  171.9930  144.6920 C   0  0  0  0  0  3  0  0  0  0  0  0
  1  5  1  0  0  0  0
  3  6  1  0  0  0  0
  3 10  1  1  0  0  0
  4 23  1  6  0  0  0
  5 22  1  0  0  0  0
  5  9  2  0  0  0  0
  7  1  2  0  0  0  0
  7 16  1  0  0  0  0
  8  9  1  0  0  0  0
  9 15  1  0  0  0  0
 11  4  1  0  0  0  0
 12  6  1  0  0  0  0
 13  2  2  0  0  0  0
 14  2  1  1  0  0  0
 14 18  1  0  0  0  0
 14 20  1  0  0  0  0
 15 17  1  6  0  0  0
 15 19  1  0  0  0  0
 16  8  2  0  0  0  0
 18 17  1  6  0  0  0
 18 21  1  0  0  0  0
 19 11  1  0  0  0  0
 20 31  1  6  0  0  0
 20  3  1  0  0  0  0
 21  4  1  0  0  0  0
 21 12  1  1  0  0  0
 22 13  1  0  0  0  0
 23 24  1  0  0  0  0
 25 24  1  1  0  0  0
 25 28  1  0  0  0  0
 25 27  1  0  0  0  0
 27 26  1  0  0  0  0
 29 28  1  0  0  0  0
 30 29  1  0  0  0  0
 31 34  1  0  0  0  0
 33 36  1  0  0  0  0
 34 33  1  0  0  0  0
 35 32  1  0  0  0  0
 36 32  1  0  0  0  0
 37 34  2  0  0  0  0
 37 35  1  0  0  0  0
M  END
>  <MODEL>
7

>  <REMARK>
 VINA RESULT:      -6.9      2.085      7.486
  Name = 
  8 active torsions:
  status: ('A' for Active; 'I' for Inactive)
    1  A    between atoms: N_3  and  C_9
    2  A    between atoms: N_3  and  CA_14
    3  A    between atoms: C_5  and  C_20
    4  A    between atoms: C_6  and  CA_14
    5  A    between atoms: C_6  and  C_20
    6  A    between atoms: CA_14  and  C_30
    7  A    between atoms: C_22  and  C_29
    8  A    between atoms: C_29  and  C_34
                            x       y       z     vdW  Elec       q    Type
                         _______ _______ _______ _____ _____    ______ ____

>  <TORSDO>
F 8

$$$$
=
 OpenBabel11042418223D

 37 41  0  0  1  0  0  0  0  0999 V2000
  190.8380  172.7880  138.5690 C   0  0  0  0  0  3  0  0  0  0  0  0
  192.9770  173.5460  142.6260 C   0  0  0  0  0  3  0  0  0  0  0  0
  192.9350  176.0460  145.6370 C   0  0  1  0  0  3  0  0  0  0  0  0
  188.8520  176.2880  143.9610 C   0  0  1  0  0  3  0  0  0  0  0  0
  190.7430  173.4490  139.7930 C   0  0  0  0  0  0  0  0  0  0  0  0
  191.5740  176.2720  145.8590 O   0  0  0  0  0  0  0  0  0  0  0  0
  189.7410  172.2250  138.0030 N   0  0  0  0  0  0  0  0  0  0  0  0
  188.3890  172.9350  139.7960 N   0  0  0  0  0  0  0  0  0  0  0  0
  189.4550  173.5010  140.4210 C   0  0  0  0  0  0  0  0  0  0  0  0
  193.5890  175.9990  146.8700 O   0  0  0  0  0  1  0  0  0  0  0  0
  188.1670  176.2100  142.6060 C   0  0  0  0  0  2  0  0  0  0  0  0
  191.1750  177.0590  144.7760 C   0  0  0  0  0  2  0  0  0  0  0  0
  192.7920  173.3040  141.3000 C   0  0  0  0  0  3  0  0  0  0  0  0
  192.4420  174.7200  143.4820 C   0  0  1  0  0  3  0  0  0  0  0  0
  189.2580  174.1190  141.7530 C   0  0  1  0  0  3  0  0  0  0  0  0
  188.5250  172.3010  138.6030 C   0  0  0  0  0  3  0  0  0  0  0  0
  190.3340  174.0910  142.5010 C   0  0  0  0  0  2  0  0  0  0  0  0
  190.8840  174.7600  143.6900 C   0  0  2  0  0  3  0  0  0  0  0  0
  187.9730  174.7640  142.1740 C   0  0  0  0  0  2  0  0  0  0  0  0
  193.1690  174.7410  144.8550 C   0  0  1  0  0  3  0  0  0  0  0  0
  190.3840  176.2230  143.7630 C   0  0  1  0  0  3  0  0  0  0  0  0
  191.9900  174.1500  140.3280 C   0  0  0  0  0  2  0  0  0  0  0  0
  188.3490  177.5490  144.6630 C   0  0  0  0  0  2  0  0  0  0  0  0
  187.2680  177.2370  145.7010 C   0  0  0  0  0  2  0  0  0  0  0  0
  185.9660  178.0230  145.5050 C   0  0  1  0  0  3  0  0  0  0  0  0
  184.4380  178.3040  147.3240 O   0  0  0  0  0  1  0  0  0  0  0  0
  185.5850  178.8350  146.7330 C   0  0  0  0  0  2  0  0  0  0  0  0
  186.0550  178.8890  144.3410 N   0  0  0  0  0  2  0  0  0  0  0  0
  184.7570  178.8650  143.6900 C   0  0  0  0  0  2  0  0  0  0  0  0
  184.8030  177.9170  142.5100 C   0  0  0  0  0  1  0  0  0  0  0  0
  194.6770  174.5440  144.6860 C   0  0  0  0  0  2  0  0  0  0  0  0
  195.9240  170.5800  145.6330 N   0  0  0  0  0  2  0  0  0  0  0  0
  196.5780  172.9330  145.4070 C   0  0  0  0  0  2  0  0  0  0  0  0
  195.1040  173.2300  145.2560 C   0  0  0  0  0  0  0  0  0  0  0  0
  194.5670  170.9420  146.0420 C   0  0  0  0  0  2  0  0  0  0  0  0
  196.8280  171.6110  146.1380 C   0  0  0  0  0  2  0  0  0  0  0  0
  194.1790  172.2830  145.4810 C   0  0  0  0  0  3  0  0  0  0  0  0
  1  5  1  0  0  0  0
  3  6  1  0  0  0  0
  3 10  1  1  0  0  0
  4 23  1  6  0  0  0
  5 22  1  0  0  0  0
  5  9  2  0  0  0  0
  7  1  2  0  0  0  0
  7 16  1  0  0  0  0
  8  9  1  0  0  0  0
  9 15  1  0  0  0  0
 11  4  1  0  0  0  0
 12  6  1  0  0  0  0
 13  2  2  0  0  0  0
 14  2  1  1  0  0  0
 14 18  1  0  0  0  0
 14 20  1  0  0  0  0
 15 19  1  6  0  0  0
 15 17  1  0  0  0  0
 16  8  2  0  0  0  0
 18 17  1  6  0  0  0
 18 21  1  0  0  0  0
 19 11  1  0  0  0  0
 20 31  1  6  0  0  0
 20  3  1  0  0  0  0
 21  4  1  0  0  0  0
 21 12  1  1  0  0  0
 22 13  1  0  0  0  0
 23 24  1  0  0  0  0
 25 24  1  1  0  0  0
 25 27  1  0  0  0  0
 27 26  1  0  0  0  0
 28 25  1  0  0  0  0
 29 28  1  0  0  0  0
 30 29  1  0  0  0  0
 31 34  1  0  0  0  0
 32 35  1  0  0  0  0
 32 36  1  0  0  0  0
 33 36  1  0  0  0  0
 34 33  1  0  0  0  0
 34 37  2  0  0  0  0
 37 35  1  0  0  0  0
M  END
>  <MODEL>
8

>  <REMARK>
 VINA RESULT:      -6.7      1.864      7.852
  Name = 
  8 active torsions:
  status: ('A' for Active; 'I' for Inactive)
    1  A    between atoms: N_3  and  C_9
    2  A    between atoms: N_3  and  CA_14
    3  A    between atoms: C_5  and  C_20
    4  A    between atoms: C_6  and  CA_14
    5  A    between atoms: C_6  and  C_20
    6  A    between atoms: CA_14  and  C_30
    7  A    between atoms: C_22  and  C_29
    8  A    between atoms: C_29  and  C_34
                            x       y       z     vdW  Elec       q    Type
                         _______ _______ _______ _____ _____    ______ ____

>  <TORSDO>
F 8

$$$$
=
 OpenBabel11042418223D

 37 41  0  0  1  0  0  0  0  0999 V2000
  187.0980  177.6740  147.2860 C   0  0  0  0  0  3  0  0  0  0  0  0
  191.0480  175.6350  145.9260 C   0  0  0  0  0  3  0  0  0  0  0  0
  192.3170  172.8210  143.5210 C   0  0  1  0  0  3  0  0  0  0  0  0
  188.5000  174.1490  141.7300 C   0  0  1  0  0  3  0  0  0  0  0  0
  187.6840  176.8870  146.2960 C   0  0  0  0  0  0  0  0  0  0  0  0
  191.5470  173.0010  142.3680 O   0  0  0  0  0  0  0  0  0  0  0  0
  186.2000  178.6370  146.9600 N   0  0  0  0  0  0  0  0  0  0  0  0
  186.3840  178.1060  144.6740 N   0  0  0  0  0  0  0  0  0  0  0  0
  187.3040  177.1400  144.9360 C   0  0  0  0  0  0  0  0  0  0  0  0
  193.6120  172.4600  143.1430 O   0  0  0  0  0  1  0  0  0  0  0  0
  187.1400  174.6560  142.1840 C   0  0  0  0  0  2  0  0  0  0  0  0
  190.2710  172.5660  142.7350 C   0  0  0  0  0  2  0  0  0  0  0  0
  190.0770  176.1350  146.7370 C   0  0  0  0  0  3  0  0  0  0  0  0
  190.9280  174.5660  144.8130 C   0  0  1  0  0  3  0  0  0  0  0  0
  187.9160  176.4090  143.8020 C   0  0  1  0  0  3  0  0  0  0  0  0
  185.8380  178.8510  145.6700 C   0  0  0  0  0  3  0  0  0  0  0  0
  189.1260  175.9750  144.0600 C   0  0  0  0  0  2  0  0  0  0  0  0
  190.0860  174.9840  143.5520 C   0  0  2  0  0  3  0  0  0  0  0  0
  187.1950  176.1400  142.5170 C   0  0  0  0  0  2  0  0  0  0  0  0
  192.3450  174.0950  144.3830 C   0  0  1  0  0  3  0  0  0  0  0  0
  189.3390  173.7600  142.9680 C   0  0  1  0  0  3  0  0  0  0  0  0
  188.6080  175.7530  146.7330 C   0  0  0  0  0  2  0  0  0  0  0  0
  188.2610  173.0130  140.7350 C   0  0  0  0  0  2  0  0  0  0  0  0
  188.3160  173.4980  139.2840 C   0  0  0  0  0  2  0  0  0  0  0  0
  189.3140  172.7340  138.4070 C   0  0  1  0  0  3  0  0  0  0  0  0
  189.3140  174.3150  136.6120 O   0  0  0  0  0  1  0  0  0  0  0  0
  190.1400  173.6570  137.5230 C   0  0  0  0  0  2  0  0  0  0  0  0
  190.1900  171.9060  139.2190 N   0  0  0  0  0  2  0  0  0  0  0  0
  190.7780  170.9120  138.3380 C   0  0  0  0  0  2  0  0  0  0  0  0
  189.7080  169.9390  137.8920 C   0  0  0  0  0  1  0  0  0  0  0  0
  193.2340  173.8330  145.6000 C   0  0  0  0  0  2  0  0  0  0  0  0
  197.1980  174.6870  144.2880 N   0  0  0  0  0  2  0  0  0  0  0  0
  194.8720  175.4540  144.4080 C   0  0  0  0  0  2  0  0  0  0  0  0
  194.6340  174.2860  145.3370 C   0  0  0  0  0  0  0  0  0  0  0  0
  197.0820  173.9690  145.5560 C   0  0  0  0  0  2  0  0  0  0  0  0
  196.3440  175.8710  144.3690 C   0  0  0  0  0  2  0  0  0  0  0  0
  195.6570  173.5560  145.8090 C   0  0  0  0  0  3  0  0  0  0  0  0
  2 13  2  0  0  0  0
  3 10  1  6  0  0  0
  3 20  1  0  0  0  0
  4 23  1  6  0  0  0
  4 11  1  0  0  0  0
  4 21  1  0  0  0  0
  5 22  1  0  0  0  0
  5  1  2  0  0  0  0
  6 12  1  0  0  0  0
  6  3  1  0  0  0  0
  7  1  1  0  0  0  0
  8  9  2  0  0  0  0
  8 16  1  0  0  0  0
  9  5  1  0  0  0  0
 11 19  1  0  0  0  0
 14  2  1  1  0  0  0
 15 19  1  1  0  0  0
 15 17  1  0  0  0  0
 15  9  1  0  0  0  0
 16  7  2  0  0  0  0
 18 17  1  1  0  0  0
 18 14  1  0  0  0  0
 20 14  1  0  0  0  0
 20 31  1  1  0  0  0
 21 12  1  6  0  0  0
 21 18  1  0  0  0  0
 22 13  1  0  0  0  0
 24 23  1  0  0  0  0
 25 27  1  1  0  0  0
 25 28  1  0  0  0  0
 25 24  1  0  0  0  0
 26 27  1  0  0  0  0
 29 28  1  0  0  0  0
 30 29  1  0  0  0  0
 32 36  1  0  0  0  0
 32 35  1  0  0  0  0
 33 34  1  0  0  0  0
 34 31  1  0  0  0  0
 34 37  2  0  0  0  0
 35 37  1  0  0  0  0
 36 33  1  0  0  0  0
M  END
>  <MODEL>
9

>  <REMARK>
 VINA RESULT:      -6.7      2.464      8.271
  Name = 
  8 active torsions:
  status: ('A' for Active; 'I' for Inactive)
    1  A    between atoms: N_3  and  C_9
    2  A    between atoms: N_3  and  CA_14
    3  A    between atoms: C_5  and  C_20
    4  A    between atoms: C_6  and  CA_14
    5  A    between atoms: C_6  and  C_20
    6  A    between atoms: CA_14  and  C_30
    7  A    between atoms: C_22  and  C_29
    8  A    between atoms: C_29  and  C_34
                            x       y       z     vdW  Elec       q    Type
                         _______ _______ _______ _____ _____    ______ ____

>  <TORSDO>
F 8

$$$$
