=
 OpenBabel11042418453D

 44 49  0  0  1  0  0  0  0  0999 V2000
  187.2980  177.0030  142.5740 C   0  0  2  0  0  3  0  0  0  0  0  0
  186.6460  178.1750  141.8650 C   0  0  0  0  0  1  0  0  0  0  0  0
  187.3070  175.7880  141.6590 C   0  0  0  0  0  2  0  0  0  0  0  0
  188.4040  174.8330  142.0970 C   0  0  1  0  0  3  0  0  0  0  0  0
  187.9750  173.4140  141.7920 C   0  0  0  0  0  2  0  0  0  0  0  0
  188.9690  174.1160  140.8860 C   0  0  2  0  0  3  0  0  0  0  0  0
  190.3850  173.6560  141.2080 C   0  0  1  0  0  3  0  0  0  0  0  0
  191.0270  173.1820  140.0620 O   0  0  0  0  0  1  0  0  0  0  0  0
  191.2050  174.7610  141.8770 C   0  0  0  0  0  2  0  0  0  0  0  0
  192.6990  174.6890  141.5580 C   0  0  0  0  0  2  0  0  0  0  0  0
  195.3110  175.8470  141.8340 O   0  0  0  0  0  0  0  0  0  0  0  0
  194.7540  175.3850  142.8670 C   0  0  0  0  0  0  0  0  0  0  0  0
  193.4920  174.7200  142.7810 N   0  0  0  0  0  2  0  0  0  0  0  0
  195.5330  175.5870  144.4630 S   0  0  0  0  0  0  0  0  0  0  0  0
  197.0160  174.6900  143.9130 C   0  0  0  0  0  2  0  0  0  0  0  0
  193.9720  171.7870  144.4770 N   0  0  0  0  0  1  0  0  0  0  0  0
  196.7530  172.8550  145.6000 C   0  0  0  0  0  0  0  0  0  0  0  0
  196.9540  170.5170  146.1030 N   0  0  0  0  0  1  0  0  0  0  0  0
  196.0140  171.5830  145.7900 C   0  0  2  0  0  3  0  0  0  0  0  0
  197.2150  173.5160  146.5720 O   0  0  0  0  0  0  0  0  0  0  0  0
  196.9040  173.2840  144.2600 N   0  0  0  0  0  0  0  0  0  0  0  0
  196.2660  172.1160  143.1060 S   0  0  0  0  0  0  0  0  0  0  0  0
  195.3360  171.2860  144.4500 C   0  0  2  0  0  3  0  0  0  0  0  0
  186.5920  176.7170  143.7500 O   0  0  0  0  0  0  0  0  0  0  0  0
  188.4860  176.8380  145.1880 C   0  0  1  0  0  3  0  0  0  0  0  0
  188.2990  176.5660  146.6810 C   0  0  1  0  0  3  0  0  0  0  0  0
  186.8790  176.6350  146.9810 N   0  0  0  0  0  2  0  0  0  0  0  0
  187.2010  177.5030  144.7440 C   0  0  2  0  0  3  0  0  0  0  0  0
  186.3460  177.5850  146.0100 C   0  0  1  0  0  3  0  0  0  0  0  0
  184.8250  177.4800  145.7700 C   0  0  0  0  0  3  0  0  0  0  0  0
  184.0210  178.2100  146.8360 C   0  0  0  0  0  2  0  0  0  0  0  0
  184.1960  178.8330  145.4620 C   0  0  0  0  0  2  0  0  0  0  0  0
  188.8460  175.2740  147.1220 N   0  0  0  0  0  2  0  0  0  0  0  0
  189.7850  174.8220  146.2460 O   0  0  0  0  0  0  0  0  0  0  0  0
  192.5760  176.4280  146.6950 C   0  0  0  0  0  2  0  0  0  0  0  0
  191.9900  177.5150  148.7240 O   0  0  0  0  0  0  0  0  0  0  0  0
  190.9260  175.4480  148.2650 C   0  0  0  0  0  2  0  0  0  0  0  0
  192.1580  175.0620  146.1800 C   0  0  0  0  0  2  0  0  0  0  0  0
  190.9510  174.6050  146.9960 C   0  0  2  0  0  3  0  0  0  0  0  0
  191.8490  176.5620  147.9740 C   0  0  0  0  0  0  0  0  0  0  0  0
  189.6580  177.7800  144.9540 C   0  0  0  0  0  2  0  0  0  0  0  0
  190.5460  177.2540  143.8390 C   0  0  0  0  0  3  0  0  0  0  0  0
  191.6820  178.2320  143.6030 C   0  0  0  0  0  2  0  0  0  0  0  0
  190.4860  178.2170  142.6740 C   0  0  0  0  0  2  0  0  0  0  0  0
  1  2  1  6  0  0  0
  1 24  1  0  0  0  0
  3  1  1  0  0  0  0
  4  3  1  6  0  0  0
  5  4  1  0  0  0  0
  6  7  1  1  0  0  0
  6  5  1  0  0  0  0
  6  4  1  0  0  0  0
  7  8  1  6  0  0  0
  7  9  1  0  0  0  0
 10  9  1  0  0  0  0
 10 13  1  0  0  0  0
 11 12  2  0  0  0  0
 12 14  1  0  0  0  0
 13 12  1  0  0  0  0
 15 21  1  0  0  0  0
 15 14  1  0  0  0  0
 17 19  1  0  0  0  0
 17 20  2  0  0  0  0
 19 18  1  6  0  0  0
 21 17  1  0  0  0  0
 22 21  1  0  0  0  0
 22 23  1  0  0  0  0
 23 16  1  1  0  0  0
 23 19  1  0  0  0  0
 25 41  1  1  0  0  0
 25 26  1  0  0  0  0
 26 27  1  0  0  0  0
 26 33  1  6  0  0  0
 28 24  1  6  0  0  0
 28 25  1  0  0  0  0
 28 29  1  0  0  0  0
 29 30  1  6  0  0  0
 29 27  1  0  0  0  0
 30 31  1  0  0  0  0
 32 30  1  0  0  0  0
 32 31  1  0  0  0  0
 34 33  1  0  0  0  0
 35 40  1  0  0  0  0
 38 35  1  0  0  0  0
 38 39  1  0  0  0  0
 39 34  1  6  0  0  0
 39 37  1  0  0  0  0
 40 37  1  0  0  0  0
 40 36  2  0  0  0  0
 42 41  1  0  0  0  0
 43 42  1  0  0  0  0
 44 43  1  0  0  0  0
 44 42  1  0  0  0  0
M  END
>  <MODEL>
1

>  <REMARK>
 VINA RESULT:      -6.3      0.000      0.000
  Name = 
  17 active torsions:
  status: ('A' for Active; 'I' for Inactive)
    1  A    between atoms: C_1  and  C_16
    2  A    between atoms: C_2  and  C_36
    3  A    between atoms: C_5  and  C_16
    4  A    between atoms: C_7  and  C_37
    5  A    between atoms: C_8  and  N_31
    6  A    between atoms: C_11  and  N_25
    7  A    between atoms: C_11  and  C_40
    8  A    between atoms: C_14  and  O_18
    9  A    between atoms: C_14  and  C_37
   10  A    between atoms: O_18  and  C_19
   11  A    between atoms: C_21  and  C_27
   12  A    between atoms: C_21  and  C_40
   13  A    between atoms: C_23  and  S_26
   14  A    between atoms: S_26  and  C_30
   15  A    between atoms: O_29  and  N_31
   16  A    between atoms: O_29  and  C_41
   17  A    between atoms: C_30  and  N_33
                            x       y       z     vdW  Elec       q    Type
                         _______ _______ _______ _____ _____    ______ ____

>  <TORSDO>
F 17

$$$$
=
 OpenBabel11042418453D

 44 49  0  0  1  0  0  0  0  0999 V2000
  190.0190  177.3480  144.0000 C   0  0  2  0  0  3  0  0  0  0  0  0
  191.1850  177.9550  143.2410 C   0  0  0  0  0  1  0  0  0  0  0  0
  188.8010  177.2690  143.0940 C   0  0  0  0  0  2  0  0  0  0  0  0
  188.6050  175.8350  142.6340 C   0  0  1  0  0  3  0  0  0  0  0  0
  187.1300  175.5830  142.4130 C   0  0  0  0  0  2  0  0  0  0  0  0
  188.0430  175.8230  141.2260 C   0  0  2  0  0  3  0  0  0  0  0  0
  188.4040  174.4970  140.5680 C   0  0  1  0  0  3  0  0  0  0  0  0
  188.1040  174.5210  139.2040 O   0  0  0  0  0  1  0  0  0  0  0  0
  189.8700  174.1260  140.7990 C   0  0  0  0  0  2  0  0  0  0  0  0
  190.5130  173.4140  139.6080 C   0  0  0  0  0  2  0  0  0  0  0  0
  192.7490  174.3380  138.0630 O   0  0  0  0  0  0  0  0  0  0  0  0
  192.9840  173.6790  139.1120 C   0  0  0  0  0  0  0  0  0  0  0  0
  191.9160  173.1190  139.8780 N   0  0  0  0  0  2  0  0  0  0  0  0
  194.6700  173.4620  139.6670 S   0  0  0  0  0  0  0  0  0  0  0  0
  195.0230  175.2340  139.4580 C   0  0  0  0  0  2  0  0  0  0  0  0
  197.3900  173.5900  142.5730 N   0  0  0  0  0  1  0  0  0  0  0  0
  195.3890  175.9520  141.8320 C   0  0  0  0  0  0  0  0  0  0  0  0
  196.8010  177.0660  143.4200 N   0  0  0  0  0  1  0  0  0  0  0  0
  196.3580  175.7660  142.9390 C   0  0  2  0  0  3  0  0  0  0  0  0
  194.1950  176.3090  142.0370 O   0  0  0  0  0  0  0  0  0  0  0  0
  195.8850  175.6990  140.5310 N   0  0  0  0  0  0  0  0  0  0  0  0
  197.6070  175.3300  140.5310 S   0  0  0  0  0  0  0  0  0  0  0  0
  197.5480  175.0140  142.3360 C   0  0  2  0  0  3  0  0  0  0  0  0
  189.7360  178.1340  145.1250 O   0  0  0  0  0  0  0  0  0  0  0  0
  190.7930  176.1050  145.7850 C   0  0  1  0  0  3  0  0  0  0  0  0
  189.9250  174.8820  146.0850 C   0  0  1  0  0  3  0  0  0  0  0  0
  188.5520  175.3300  146.2470 N   0  0  0  0  0  2  0  0  0  0  0  0
  189.9670  177.2940  146.2270 C   0  0  2  0  0  3  0  0  0  0  0  0
  188.6690  176.6890  146.7650 C   0  0  1  0  0  3  0  0  0  0  0  0
  187.4150  177.5670  146.5660 C   0  0  0  0  0  3  0  0  0  0  0  0
  186.2060  176.7550  146.1220 C   0  0  0  0  0  2  0  0  0  0  0  0
  186.3120  177.2300  147.5620 C   0  0  0  0  0  2  0  0  0  0  0  0
  189.9970  173.8380  145.0520 N   0  0  0  0  0  2  0  0  0  0  0  0
  191.1150  173.0770  145.2100 O   0  0  0  0  0  0  0  0  0  0  0  0
  193.8580  172.9820  143.4660 C   0  0  0  0  0  2  0  0  0  0  0  0
  194.4620  170.7380  143.9530 O   0  0  0  0  0  0  0  0  0  0  0  0
  192.1540  171.2670  144.0180 C   0  0  0  0  0  2  0  0  0  0  0  0
  192.4760  173.5970  143.3200 C   0  0  0  0  0  2  0  0  0  0  0  0
  191.4670  172.6250  143.9290 C   0  0  2  0  0  3  0  0  0  0  0  0
  193.5830  171.5750  143.8220 C   0  0  0  0  0  0  0  0  0  0  0  0
  192.0870  176.0550  146.5840 C   0  0  0  0  0  2  0  0  0  0  0  0
  193.2820  176.2920  145.6730 C   0  0  0  0  0  3  0  0  0  0  0  0
  194.4700  175.5060  146.1950 C   0  0  0  0  0  2  0  0  0  0  0  0
  194.3640  176.9930  146.4640 C   0  0  0  0  0  2  0  0  0  0  0  0
  1  2  1  6  0  0  0
  1 24  1  0  0  0  0
  3  1  1  0  0  0  0
  4  3  1  1  0  0  0
  5  4  1  0  0  0  0
  6  7  1  6  0  0  0
  6  5  1  0  0  0  0
  6  4  1  0  0  0  0
  7  8  1  6  0  0  0
  7  9  1  0  0  0  0
 10 13  1  0  0  0  0
 10  9  1  0  0  0  0
 11 12  2  0  0  0  0
 12 14  1  0  0  0  0
 12 13  1  0  0  0  0
 15 14  1  0  0  0  0
 15 21  1  0  0  0  0
 17 20  2  0  0  0  0
 17 19  1  0  0  0  0
 19 18  1  6  0  0  0
 21 22  1  0  0  0  0
 21 17  1  0  0  0  0
 22 23  1  0  0  0  0
 23 16  1  6  0  0  0
 23 19  1  0  0  0  0
 25 26  1  0  0  0  0
 25 28  1  0  0  0  0
 25 41  1  1  0  0  0
 26 33  1  6  0  0  0
 26 27  1  0  0  0  0
 27 29  1  0  0  0  0
 28 24  1  6  0  0  0
 28 29  1  0  0  0  0
 29 30  1  6  0  0  0
 30 32  1  0  0  0  0
 31 30  1  0  0  0  0
 31 32  1  0  0  0  0
 33 34  1  0  0  0  0
 35 40  1  0  0  0  0
 38 35  1  0  0  0  0
 38 39  1  0  0  0  0
 39 37  1  0  0  0  0
 39 34  1  1  0  0  0
 40 36  2  0  0  0  0
 40 37  1  0  0  0  0
 42 43  1  0  0  0  0
 42 44  1  0  0  0  0
 42 41  1  0  0  0  0
 43 44  1  0  0  0  0
M  END
>  <MODEL>
2

>  <REMARK>
 VINA RESULT:      -6.2      2.424      4.202
  Name = 
  17 active torsions:
  status: ('A' for Active; 'I' for Inactive)
    1  A    between atoms: C_1  and  C_16
    2  A    between atoms: C_2  and  C_36
    3  A    between atoms: C_5  and  C_16
    4  A    between atoms: C_7  and  C_37
    5  A    between atoms: C_8  and  N_31
    6  A    between atoms: C_11  and  N_25
    7  A    between atoms: C_11  and  C_40
    8  A    between atoms: C_14  and  O_18
    9  A    between atoms: C_14  and  C_37
   10  A    between atoms: O_18  and  C_19
   11  A    between atoms: C_21  and  C_27
   12  A    between atoms: C_21  and  C_40
   13  A    between atoms: C_23  and  S_26
   14  A    between atoms: S_26  and  C_30
   15  A    between atoms: O_29  and  N_31
   16  A    between atoms: O_29  and  C_41
   17  A    between atoms: C_30  and  N_33
                            x       y       z     vdW  Elec       q    Type
                         _______ _______ _______ _____ _____    ______ ____

>  <TORSDO>
F 17

$$$$
=
 OpenBabel11042418453D

 44 49  0  0  1  0  0  0  0  0999 V2000
  187.8940  176.7520  141.6380 C   0  0  2  0  0  3  0  0  0  0  0  0
  187.0980  177.7230  140.7860 C   0  0  0  0  0  1  0  0  0  0  0  0
  187.9470  175.3930  140.9580 C   0  0  0  0  0  2  0  0  0  0  0  0
  188.7780  174.4390  141.7970 C   0  0  1  0  0  3  0  0  0  0  0  0
  187.9490  173.2150  142.1210 C   0  0  0  0  0  2  0  0  0  0  0  0
  189.0020  173.1500  141.0320 C   0  0  2  0  0  3  0  0  0  0  0  0
  190.2620  172.4790  141.5640 C   0  0  1  0  0  3  0  0  0  0  0  0
  190.3950  171.1880  141.0480 O   0  0  0  0  0  1  0  0  0  0  0  0
  191.5140  173.3120  141.2800 C   0  0  0  0  0  2  0  0  0  0  0  0
  192.0440  173.1490  139.8540 C   0  0  0  0  0  2  0  0  0  0  0  0
  194.1070  175.1170  139.5180 O   0  0  0  0  0  0  0  0  0  0  0  0
  194.4530  173.9300  139.7680 C   0  0  0  0  0  0  0  0  0  0  0  0
  193.4790  172.8890  139.8620 N   0  0  0  0  0  2  0  0  0  0  0  0
  196.1780  173.5450  140.0370 S   0  0  0  0  0  0  0  0  0  0  0  0
  196.3640  174.9370  141.1920 C   0  0  0  0  0  2  0  0  0  0  0  0
  194.1560  172.2100  143.5790 N   0  0  0  0  0  1  0  0  0  0  0  0
  195.5630  175.0650  143.5640 C   0  0  0  0  0  0  0  0  0  0  0  0
  195.8950  174.4330  145.8550 N   0  0  0  0  0  1  0  0  0  0  0  0
  195.1070  174.1760  144.6590 C   0  0  2  0  0  3  0  0  0  0  0  0
  195.2640  176.2910  143.5260 O   0  0  0  0  0  0  0  0  0  0  0  0
  196.3520  174.4520  142.5620 N   0  0  0  0  0  0  0  0  0  0  0  0
  196.7080  172.7660  142.9270 S   0  0  0  0  0  0  0  0  0  0  0  0
  195.3670  172.7460  144.1760 C   0  0  2  0  0  3  0  0  0  0  0  0
  187.2950  176.6390  142.8990 O   0  0  0  0  0  0  0  0  0  0  0  0
  188.9240  177.3980  144.4620 C   0  0  1  0  0  3  0  0  0  0  0  0
  188.4940  177.6750  145.9030 C   0  0  1  0  0  3  0  0  0  0  0  0
  187.0430  177.7530  145.9360 N   0  0  0  0  0  2  0  0  0  0  0  0
  187.7270  177.7700  143.6140 C   0  0  2  0  0  3  0  0  0  0  0  0
  186.6730  178.2490  144.6150 C   0  0  1  0  0  3  0  0  0  0  0  0
  185.2140  177.9640  144.2020 C   0  0  0  0  0  3  0  0  0  0  0  0
  184.2100  178.5630  145.1780 C   0  0  0  0  0  2  0  0  0  0  0  0
  184.4590  179.2370  143.8400 C   0  0  0  0  0  2  0  0  0  0  0  0
  188.9670  176.6700  146.8670 N   0  0  0  0  0  2  0  0  0  0  0  0
  188.4000  175.4560  146.6180 O   0  0  0  0  0  0  0  0  0  0  0  0
  191.1600  174.1580  145.4910 C   0  0  0  0  0  2  0  0  0  0  0  0
  192.6710  175.5400  146.6930 O   0  0  0  0  0  0  0  0  0  0  0  0
  190.5430  175.1730  147.6670 C   0  0  0  0  0  2  0  0  0  0  0  0
  189.7860  173.6530  145.8980 C   0  0  0  0  0  2  0  0  0  0  0  0
  189.3120  174.4950  147.0800 C   0  0  2  0  0  3  0  0  0  0  0  0
  191.5740  175.0090  146.6240 C   0  0  0  0  0  0  0  0  0  0  0  0
  190.1130  178.2670  144.0780 C   0  0  0  0  0  2  0  0  0  0  0  0
  191.3930  177.4460  144.0840 C   0  0  0  0  0  3  0  0  0  0  0  0
  192.2200  177.8050  142.8630 C   0  0  0  0  0  2  0  0  0  0  0  0
  191.3920  176.5360  142.8750 C   0  0  0  0  0  2  0  0  0  0  0  0
  1  2  1  6  0  0  0
  1 24  1  0  0  0  0
  3  1  1  0  0  0  0
  4  3  1  6  0  0  0
  4  5  1  0  0  0  0
  6  7  1  1  0  0  0
  6  4  1  0  0  0  0
  6  5  1  0  0  0  0
  7  8  1  6  0  0  0
  9  7  1  0  0  0  0
 10 13  1  0  0  0  0
 10  9  1  0  0  0  0
 11 12  2  0  0  0  0
 12 13  1  0  0  0  0
 12 14  1  0  0  0  0
 14 15  1  0  0  0  0
 15 21  1  0  0  0  0
 17 19  1  0  0  0  0
 19 18  1  1  0  0  0
 20 17  2  0  0  0  0
 21 22  1  0  0  0  0
 21 17  1  0  0  0  0
 22 23  1  0  0  0  0
 23 16  1  6  0  0  0
 23 19  1  0  0  0  0
 25 41  1  6  0  0  0
 25 26  1  0  0  0  0
 26 27  1  0  0  0  0
 26 33  1  1  0  0  0
 28 24  1  1  0  0  0
 28 25  1  0  0  0  0
 28 29  1  0  0  0  0
 29 30  1  6  0  0  0
 29 27  1  0  0  0  0
 30 31  1  0  0  0  0
 32 30  1  0  0  0  0
 32 31  1  0  0  0  0
 34 33  1  0  0  0  0
 35 38  1  0  0  0  0
 35 40  1  0  0  0  0
 38 39  1  0  0  0  0
 39 34  1  6  0  0  0
 39 37  1  0  0  0  0
 40 36  2  0  0  0  0
 40 37  1  0  0  0  0
 41 42  1  0  0  0  0
 43 44  1  0  0  0  0
 43 42  1  0  0  0  0
 44 42  1  0  0  0  0
M  END
>  <MODEL>
3

>  <REMARK>
 VINA RESULT:      -6.2      1.778      2.192
  Name = 
  17 active torsions:
  status: ('A' for Active; 'I' for Inactive)
    1  A    between atoms: C_1  and  C_16
    2  A    between atoms: C_2  and  C_36
    3  A    between atoms: C_5  and  C_16
    4  A    between atoms: C_7  and  C_37
    5  A    between atoms: C_8  and  N_31
    6  A    between atoms: C_11  and  N_25
    7  A    between atoms: C_11  and  C_40
    8  A    between atoms: C_14  and  O_18
    9  A    between atoms: C_14  and  C_37
   10  A    between atoms: O_18  and  C_19
   11  A    between atoms: C_21  and  C_27
   12  A    between atoms: C_21  and  C_40
   13  A    between atoms: C_23  and  S_26
   14  A    between atoms: S_26  and  C_30
   15  A    between atoms: O_29  and  N_31
   16  A    between atoms: O_29  and  C_41
   17  A    between atoms: C_30  and  N_33
                            x       y       z     vdW  Elec       q    Type
                         _______ _______ _______ _____ _____    ______ ____

>  <TORSDO>
F 17

$$$$
=
 OpenBabel11042418453D

 44 49  0  0  1  0  0  0  0  0999 V2000
  191.0550  173.2580  143.7620 C   0  0  2  0  0  3  0  0  0  0  0  0
  190.5340  171.9120  144.2290 C   0  0  0  0  0  1  0  0  0  0  0  0
  190.4820  173.5850  142.3920 C   0  0  0  0  0  2  0  0  0  0  0  0
  189.2950  174.5190  142.5500 C   0  0  1  0  0  3  0  0  0  0  0  0
  189.4680  175.3290  143.8160 C   0  0  0  0  0  2  0  0  0  0  0  0
  189.7650  175.9580  142.4680 C   0  0  2  0  0  3  0  0  0  0  0  0
  188.5950  176.8290  142.0300 C   0  0  1  0  0  3  0  0  0  0  0  0
  189.0090  178.1440  141.8030 O   0  0  0  0  0  1  0  0  0  0  0  0
  187.8900  176.2590  140.7970 C   0  0  0  0  0  2  0  0  0  0  0  0
  186.6750  177.0770  140.3570 C   0  0  0  0  0  2  0  0  0  0  0  0
  184.0750  178.2940  140.3690 O   0  0  0  0  0  0  0  0  0  0  0  0
  184.7070  178.2320  141.4590 C   0  0  0  0  0  0  0  0  0  0  0  0
  186.0380  177.7150  141.5040 N   0  0  0  0  0  2  0  0  0  0  0  0
  183.9220  178.7670  142.9740 S   0  0  0  0  0  0  0  0  0  0  0  0
  184.7970  177.4990  143.9390 C   0  0  0  0  0  2  0  0  0  0  0  0
  187.2390  176.3230  147.2050 N   0  0  0  0  0  1  0  0  0  0  0  0
  184.9110  178.3010  146.3110 C   0  0  0  0  0  0  0  0  0  0  0  0
  186.0300  179.6600  147.9410 N   0  0  0  0  0  1  0  0  0  0  0  0
  185.8380  178.2980  147.4690 C   0  0  2  0  0  3  0  0  0  0  0  0
  183.6650  178.4540  146.4480 O   0  0  0  0  0  0  0  0  0  0  0  0
  185.5110  178.1180  145.0430 N   0  0  0  0  0  0  0  0  0  0  0  0
  187.2680  178.0460  145.1360 S   0  0  0  0  0  0  0  0  0  0  0  0
  187.1670  177.7500  146.9430 C   0  0  2  0  0  3  0  0  0  0  0  0
  192.4540  173.2230  143.7060 O   0  0  0  0  0  0  0  0  0  0  0  0
  193.3280  175.1390  144.8180 C   0  0  1  0  0  3  0  0  0  0  0  0
  194.7990  175.1460  145.2350 C   0  0  1  0  0  3  0  0  0  0  0  0
  195.2940  173.7810  145.1720 N   0  0  0  0  0  2  0  0  0  0  0  0
  192.8850  173.6980  144.9560 C   0  0  2  0  0  3  0  0  0  0  0  0
  194.1260  172.9540  145.4530 C   0  0  1  0  0  3  0  0  0  0  0  0
  194.2370  171.4920  144.9730 C   0  0  0  0  0  3  0  0  0  0  0  0
  195.6690  170.9760  145.0210 C   0  0  0  0  0  2  0  0  0  0  0  0
  194.6760  170.5520  146.0890 C   0  0  0  0  0  2  0  0  0  0  0  0
  195.6430  176.0270  144.4150 N   0  0  0  0  0  2  0  0  0  0  0  0
  195.9830  175.4210  143.2430 O   0  0  0  0  0  0  0  0  0  0  0  0
  196.4250  175.5020  140.0230 C   0  0  0  0  0  2  0  0  0  0  0  0
  194.1580  175.1960  139.3870 O   0  0  0  0  0  0  0  0  0  0  0  0
  194.5560  176.2220  141.4840 C   0  0  0  0  0  2  0  0  0  0  0  0
  196.9960  176.2180  141.2360 C   0  0  0  0  0  2  0  0  0  0  0  0
  195.8640  176.4000  142.2450 C   0  0  2  0  0  3  0  0  0  0  0  0
  194.9630  175.6010  140.2100 C   0  0  0  0  0  0  0  0  0  0  0  0
  192.5020  176.0200  145.7440 C   0  0  0  0  0  2  0  0  0  0  0  0
  192.1060  175.2510  146.9940 C   0  0  0  0  0  3  0  0  0  0  0  0
  190.6300  175.4710  147.2680 C   0  0  0  0  0  2  0  0  0  0  0  0
  191.6730  176.2370  148.0560 C   0  0  0  0  0  2  0  0  0  0  0  0
  1  2  1  6  0  0  0
  3  1  1  0  0  0  0
  4  3  1  1  0  0  0
  4  5  1  0  0  0  0
  6  7  1  6  0  0  0
  6  4  1  0  0  0  0
  6  5  1  0  0  0  0
  7  8  1  6  0  0  0
  9  7  1  0  0  0  0
 10  9  1  0  0  0  0
 10 13  1  0  0  0  0
 11 12  2  0  0  0  0
 12 13  1  0  0  0  0
 12 14  1  0  0  0  0
 14 15  1  0  0  0  0
 15 21  1  0  0  0  0
 17 20  2  0  0  0  0
 17 19  1  0  0  0  0
 19 18  1  6  0  0  0
 21 22  1  0  0  0  0
 21 17  1  0  0  0  0
 22 23  1  0  0  0  0
 23 16  1  6  0  0  0
 23 19  1  0  0  0  0
 24  1  1  0  0  0  0
 25 28  1  0  0  0  0
 25 26  1  0  0  0  0
 25 41  1  1  0  0  0
 26 33  1  6  0  0  0
 27 26  1  0  0  0  0
 27 29  1  0  0  0  0
 28 24  1  6  0  0  0
 28 29  1  0  0  0  0
 29 30  1  6  0  0  0
 30 31  1  0  0  0  0
 30 32  1  0  0  0  0
 31 32  1  0  0  0  0
 34 33  1  0  0  0  0
 35 40  1  0  0  0  0
 35 38  1  0  0  0  0
 36 40  2  0  0  0  0
 37 39  1  0  0  0  0
 38 39  1  0  0  0  0
 39 34  1  1  0  0  0
 40 37  1  0  0  0  0
 41 42  1  0  0  0  0
 42 43  1  0  0  0  0
 42 44  1  0  0  0  0
 43 44  1  0  0  0  0
M  END
>  <MODEL>
4

>  <REMARK>
 VINA RESULT:      -6.1      3.258      8.842
  Name = 
  17 active torsions:
  status: ('A' for Active; 'I' for Inactive)
    1  A    between atoms: C_1  and  C_16
    2  A    between atoms: C_2  and  C_36
    3  A    between atoms: C_5  and  C_16
    4  A    between atoms: C_7  and  C_37
    5  A    between atoms: C_8  and  N_31
    6  A    between atoms: C_11  and  N_25
    7  A    between atoms: C_11  and  C_40
    8  A    between atoms: C_14  and  O_18
    9  A    between atoms: C_14  and  C_37
   10  A    between atoms: O_18  and  C_19
   11  A    between atoms: C_21  and  C_27
   12  A    between atoms: C_21  and  C_40
   13  A    between atoms: C_23  and  S_26
   14  A    between atoms: S_26  and  C_30
   15  A    between atoms: O_29  and  N_31
   16  A    between atoms: O_29  and  C_41
   17  A    between atoms: C_30  and  N_33
                            x       y       z     vdW  Elec       q    Type
                         _______ _______ _______ _____ _____    ______ ____

>  <TORSDO>
F 17

$$$$
=
 OpenBabel11042418453D

 44 49  0  0  1  0  0  0  0  0999 V2000
  195.6410  173.6720  145.4340 C   0  0  2  0  0  3  0  0  0  0  0  0
  197.0730  173.3860  145.8440 C   0  0  0  0  0  1  0  0  0  0  0  0
  195.1290  174.8990  146.1720 C   0  0  0  0  0  2  0  0  0  0  0  0
  193.6170  174.9700  146.0480 C   0  0  1  0  0  3  0  0  0  0  0  0
  193.1970  176.4190  145.9350 C   0  0  0  0  0  2  0  0  0  0  0  0
  193.2430  175.5450  144.6960 C   0  0  2  0  0  3  0  0  0  0  0  0
  191.8390  175.0740  144.3370 C   0  0  1  0  0  3  0  0  0  0  0  0
  191.6720  175.0170  142.9510 O   0  0  0  0  0  1  0  0  0  0  0  0
  191.5070  173.7270  144.9840 C   0  0  0  0  0  2  0  0  0  0  0  0
  190.0380  173.5920  145.3880 C   0  0  0  0  0  2  0  0  0  0  0  0
  188.7340  174.8180  147.6320 O   0  0  0  0  0  0  0  0  0  0  0  0
  188.8170  175.4780  146.5600 C   0  0  0  0  0  0  0  0  0  0  0  0
  189.3790  174.8920  145.3830 N   0  0  0  0  0  2  0  0  0  0  0  0
  188.2550  177.1740  146.5140 S   0  0  0  0  0  0  0  0  0  0  0  0
  186.7450  176.7060  145.6160 C   0  0  0  0  0  2  0  0  0  0  0  0
  183.8050  178.2860  142.9940 N   0  0  0  0  0  1  0  0  0  0  0  0
  186.5720  176.7170  143.1150 C   0  0  0  0  0  0  0  0  0  0  0  0
  186.8560  177.9350  141.0670 N   0  0  0  0  0  1  0  0  0  0  0  0
  185.8780  177.4470  142.0270 C   0  0  2  0  0  3  0  0  0  0  0  0
  187.0310  175.5520  142.9560 O   0  0  0  0  0  0  0  0  0  0  0  0
  186.6840  177.4080  144.3450 N   0  0  0  0  0  0  0  0  0  0  0  0
  186.0600  179.0520  144.2500 S   0  0  0  0  0  0  0  0  0  0  0  0
  185.1830  178.6370  142.6950 C   0  0  2  0  0  3  0  0  0  0  0  0
  194.8400  172.5610  145.7280 O   0  0  0  0  0  0  0  0  0  0  0  0
  194.2190  171.7900  143.5610 C   0  0  1  0  0  3  0  0  0  0  0  0
  193.4770  170.4590  143.4350 C   0  0  1  0  0  3  0  0  0  0  0  0
  193.6170  169.7410  144.6900 N   0  0  0  0  0  2  0  0  0  0  0  0
  195.1530  171.6110  144.7400 C   0  0  2  0  0  3  0  0  0  0  0  0
  194.9020  170.1810  145.2230 C   0  0  1  0  0  3  0  0  0  0  0  0
  195.0780  169.9730  146.7420 C   0  0  0  0  0  3  0  0  0  0  0  0
  194.7380  168.5530  147.1730 C   0  0  0  0  0  2  0  0  0  0  0  0
  196.1910  168.9820  147.0610 C   0  0  0  0  0  2  0  0  0  0  0  0
  192.0540  170.6040  143.0930 N   0  0  0  0  0  2  0  0  0  0  0  0
  191.8990  171.3880  141.9900 O   0  0  0  0  0  0  0  0  0  0  0  0
  189.0460  172.9390  141.8330 C   0  0  0  0  0  2  0  0  0  0  0  0
  189.2720  173.7900  139.6270 O   0  0  0  0  0  0  0  0  0  0  0  0
  190.4310  171.7860  140.1300 C   0  0  0  0  0  2  0  0  0  0  0  0
  189.5660  171.6380  142.4200 C   0  0  0  0  0  2  0  0  0  0  0  0
  190.6300  171.0910  141.4710 C   0  0  2  0  0  3  0  0  0  0  0  0
  189.5510  172.9270  140.4450 C   0  0  0  0  0  0  0  0  0  0  0  0
  195.0290  172.0770  142.3060 C   0  0  0  0  0  2  0  0  0  0  0  0
  194.5380  173.3520  141.6390 C   0  0  0  0  0  3  0  0  0  0  0  0
  195.6040  173.8570  140.6840 C   0  0  0  0  0  2  0  0  0  0  0  0
  195.4410  174.4940  142.0490 C   0  0  0  0  0  2  0  0  0  0  0  0
  1 24  1  0  0  0  0
  1  2  1  1  0  0  0
  1  3  1  0  0  0  0
  4  3  1  6  0  0  0
  5  4  1  0  0  0  0
  6  7  1  1  0  0  0
  6  5  1  0  0  0  0
  6  4  1  0  0  0  0
  7  8  1  6  0  0  0
  7  9  1  0  0  0  0
  9 10  1  0  0  0  0
 12 11  2  0  0  0  0
 13 10  1  0  0  0  0
 13 12  1  0  0  0  0
 14 12  1  0  0  0  0
 15 14  1  0  0  0  0
 17 21  1  0  0  0  0
 19 18  1  6  0  0  0
 19 23  1  0  0  0  0
 19 17  1  0  0  0  0
 20 17  2  0  0  0  0
 21 15  1  0  0  0  0
 22 21  1  0  0  0  0
 23 16  1  1  0  0  0
 23 22  1  0  0  0  0
 25 41  1  6  0  0  0
 25 28  1  0  0  0  0
 26 33  1  1  0  0  0
 26 25  1  0  0  0  0
 26 27  1  0  0  0  0
 27 29  1  0  0  0  0
 28 29  1  0  0  0  0
 28 24  1  1  0  0  0
 29 30  1  1  0  0  0
 30 32  1  0  0  0  0
 30 31  1  0  0  0  0
 32 31  1  0  0  0  0
 34 33  1  0  0  0  0
 35 38  1  0  0  0  0
 36 40  2  0  0  0  0
 37 40  1  0  0  0  0
 37 39  1  0  0  0  0
 39 34  1  1  0  0  0
 39 38  1  0  0  0  0
 40 35  1  0  0  0  0
 42 44  1  0  0  0  0
 42 41  1  0  0  0  0
 43 42  1  0  0  0  0
 43 44  1  0  0  0  0
M  END
>  <MODEL>
5

>  <REMARK>
 VINA RESULT:      -6.1      3.060      9.306
  Name = 
  17 active torsions:
  status: ('A' for Active; 'I' for Inactive)
    1  A    between atoms: C_1  and  C_16
    2  A    between atoms: C_2  and  C_36
    3  A    between atoms: C_5  and  C_16
    4  A    between atoms: C_7  and  C_37
    5  A    between atoms: C_8  and  N_31
    6  A    between atoms: C_11  and  N_25
    7  A    between atoms: C_11  and  C_40
    8  A    between atoms: C_14  and  O_18
    9  A    between atoms: C_14  and  C_37
   10  A    between atoms: O_18  and  C_19
   11  A    between atoms: C_21  and  C_27
   12  A    between atoms: C_21  and  C_40
   13  A    between atoms: C_23  and  S_26
   14  A    between atoms: S_26  and  C_30
   15  A    between atoms: O_29  and  N_31
   16  A    between atoms: O_29  and  C_41
   17  A    between atoms: C_30  and  N_33
                            x       y       z     vdW  Elec       q    Type
                         _______ _______ _______ _____ _____    ______ ____

>  <TORSDO>
F 17

$$$$
=
 OpenBabel11042418453D

 44 49  0  0  1  0  0  0  0  0999 V2000
  191.6250  176.0090  146.4710 C   0  0  2  0  0  3  0  0  0  0  0  0
  191.4000  176.0550  147.9710 C   0  0  0  0  0  1  0  0  0  0  0  0
  192.9670  176.6390  146.1330 C   0  0  0  0  0  2  0  0  0  0  0  0
  194.0280  175.5550  146.0520 C   0  0  1  0  0  3  0  0  0  0  0  0
  193.3520  174.2140  145.8620 C   0  0  0  0  0  2  0  0  0  0  0  0
  193.9970  174.9120  144.6800 C   0  0  2  0  0  3  0  0  0  0  0  0
  195.3640  174.3020  144.3950 C   0  0  1  0  0  3  0  0  0  0  0  0
  195.2390  173.1200  143.6620 O   0  0  0  0  0  1  0  0  0  0  0  0
  196.2930  175.2900  143.6860 C   0  0  0  0  0  2  0  0  0  0  0  0
  195.5730  176.1880  142.6790 C   0  0  0  0  0  2  0  0  0  0  0  0
  193.1300  175.2100  141.5310 O   0  0  0  0  0  0  0  0  0  0  0  0
  194.1840  175.1290  140.8430 C   0  0  0  0  0  0  0  0  0  0  0  0
  195.4450  175.5200  141.3890 N   0  0  0  0  0  2  0  0  0  0  0  0
  194.1010  174.5470  139.1540 S   0  0  0  0  0  0  0  0  0  0  0  0
  194.3330  172.8220  139.6800 C   0  0  0  0  0  2  0  0  0  0  0  0
  190.1470  173.5100  139.5730 N   0  0  0  0  0  1  0  0  0  0  0  0
  192.3990  171.4730  140.5300 C   0  0  0  0  0  0  0  0  0  0  0  0
  190.6180  169.9440  140.0340 N   0  0  0  0  0  1  0  0  0  0  0  0
  190.9360  171.3330  140.3300 C   0  0  2  0  0  3  0  0  0  0  0  0
  192.9720  171.0920  141.5890 O   0  0  0  0  0  0  0  0  0  0  0  0
  193.1110  172.0670  139.4620 N   0  0  0  0  0  0  0  0  0  0  0  0
  192.0820  172.3950  138.0700 S   0  0  0  0  0  0  0  0  0  0  0  0
  190.5910  172.2030  139.1190 C   0  0  2  0  0  3  0  0  0  0  0  0
  190.5910  176.6970  145.8230 O   0  0  0  0  0  0  0  0  0  0  0  0
  189.8880  175.6220  143.8170 C   0  0  1  0  0  3  0  0  0  0  0  0
  188.4950  175.9250  143.2650 C   0  0  1  0  0  3  0  0  0  0  0  0
  187.7220  176.5700  144.3120 N   0  0  0  0  0  2  0  0  0  0  0  0
  189.7410  175.6960  145.3220 C   0  0  2  0  0  3  0  0  0  0  0  0
  188.2660  176.0300  145.5540 C   0  0  1  0  0  3  0  0  0  0  0  0
  187.9870  176.8850  146.8080 C   0  0  0  0  0  3  0  0  0  0  0  0
  186.8730  177.8980  146.5810 C   0  0  0  0  0  2  0  0  0  0  0  0
  186.5960  176.6340  147.3780 C   0  0  0  0  0  2  0  0  0  0  0  0
  188.5060  176.7640  142.0570 N   0  0  0  0  0  2  0  0  0  0  0  0
  187.3420  176.6270  141.3620 O   0  0  0  0  0  0  0  0  0  0  0  0
  184.4710  177.9160  140.5460 C   0  0  0  0  0  2  0  0  0  0  0  0
  183.7420  178.4700  142.7370 O   0  0  0  0  0  0  0  0  0  0  0  0
  186.0810  178.4080  142.3670 C   0  0  0  0  0  2  0  0  0  0  0  0
  185.8790  177.9030  139.9750 C   0  0  0  0  0  2  0  0  0  0  0  0
  186.8570  177.9260  141.1470 C   0  0  2  0  0  3  0  0  0  0  0  0
  184.6670  178.2870  141.9620 C   0  0  0  0  0  0  0  0  0  0  0  0
  190.3350  174.2250  143.4140 C   0  0  0  0  0  2  0  0  0  0  0  0
  190.0370  173.2320  144.5260 C   0  0  0  0  0  3  0  0  0  0  0  0
  190.7980  171.9460  144.2620 C   0  0  0  0  0  2  0  0  0  0  0  0
  189.3230  172.0380  143.9320 C   0  0  0  0  0  2  0  0  0  0  0  0
  1  2  1  1  0  0  0
  3  1  1  0  0  0  0
  4  3  1  6  0  0  0
  5  4  1  0  0  0  0
  6  7  1  1  0  0  0
  6  5  1  0  0  0  0
  6  4  1  0  0  0  0
  7  8  1  6  0  0  0
  9  7  1  0  0  0  0
 10  9  1  0  0  0  0
 12 13  1  0  0  0  0
 12 11  2  0  0  0  0
 13 10  1  0  0  0  0
 14 15  1  0  0  0  0
 14 12  1  0  0  0  0
 17 20  2  0  0  0  0
 19 18  1  6  0  0  0
 19 17  1  0  0  0  0
 21 15  1  0  0  0  0
 21 17  1  0  0  0  0
 22 23  1  0  0  0  0
 22 21  1  0  0  0  0
 23 16  1  1  0  0  0
 23 19  1  0  0  0  0
 24  1  1  0  0  0  0
 25 41  1  1  0  0  0
 25 28  1  0  0  0  0
 26 33  1  6  0  0  0
 26 25  1  0  0  0  0
 26 27  1  0  0  0  0
 27 29  1  0  0  0  0
 28 29  1  0  0  0  0
 28 24  1  6  0  0  0
 29 30  1  1  0  0  0
 30 32  1  0  0  0  0
 31 30  1  0  0  0  0
 31 32  1  0  0  0  0
 34 33  1  0  0  0  0
 35 40  1  0  0  0  0
 38 35  1  0  0  0  0
 38 39  1  0  0  0  0
 39 34  1  1  0  0  0
 39 37  1  0  0  0  0
 40 37  1  0  0  0  0
 40 36  2  0  0  0  0
 41 42  1  0  0  0  0
 43 42  1  0  0  0  0
 44 43  1  0  0  0  0
 44 42  1  0  0  0  0
M  END
>  <MODEL>
6

>  <REMARK>
 VINA RESULT:      -5.9      2.817      6.143
  Name = 
  17 active torsions:
  status: ('A' for Active; 'I' for Inactive)
    1  A    between atoms: C_1  and  C_16
    2  A    between atoms: C_2  and  C_36
    3  A    between atoms: C_5  and  C_16
    4  A    between atoms: C_7  and  C_37
    5  A    between atoms: C_8  and  N_31
    6  A    between atoms: C_11  and  N_25
    7  A    between atoms: C_11  and  C_40
    8  A    between atoms: C_14  and  O_18
    9  A    between atoms: C_14  and  C_37
   10  A    between atoms: O_18  and  C_19
   11  A    between atoms: C_21  and  C_27
   12  A    between atoms: C_21  and  C_40
   13  A    between atoms: C_23  and  S_26
   14  A    between atoms: S_26  and  C_30
   15  A    between atoms: O_29  and  N_31
   16  A    between atoms: O_29  and  C_41
   17  A    between atoms: C_30  and  N_33
                            x       y       z     vdW  Elec       q    Type
                         _______ _______ _______ _____ _____    ______ ____

>  <TORSDO>
F 17

$$$$
=
 OpenBabel11042418453D

 44 49  0  0  1  0  0  0  0  0999 V2000
  191.7000  172.4180  140.3080 C   0  0  2  0  0  3  0  0  0  0  0  0
  192.0880  171.3280  139.3260 C   0  0  0  0  0  1  0  0  0  0  0  0
  190.1850  172.5130  140.4000 C   0  0  0  0  0  2  0  0  0  0  0  0
  189.8020  173.2950  141.6440 C   0  0  1  0  0  3  0  0  0  0  0  0
  188.3590  172.9990  141.9900 C   0  0  0  0  0  2  0  0  0  0  0  0
  189.4770  172.3330  142.7700 C   0  0  2  0  0  3  0  0  0  0  0  0
  189.6850  173.0500  144.0990 C   0  0  1  0  0  3  0  0  0  0  0  0
  189.7150  172.1380  145.1570 O   0  0  0  0  0  1  0  0  0  0  0  0
  190.9460  173.9160  144.0880 C   0  0  0  0  0  2  0  0  0  0  0  0
  191.0010  174.9250  145.2360 C   0  0  0  0  0  2  0  0  0  0  0  0
  189.2000  174.5540  147.4400 O   0  0  0  0  0  0  0  0  0  0  0  0
  188.9030  175.4150  146.5690 C   0  0  0  0  0  0  0  0  0  0  0  0
  189.7140  175.5880  145.4050 N   0  0  0  0  0  2  0  0  0  0  0  0
  187.4670  176.4560  146.8010 S   0  0  0  0  0  0  0  0  0  0  0  0
  187.8840  177.4510  145.3370 C   0  0  0  0  0  2  0  0  0  0  0  0
  187.3240  177.8670  141.1510 N   0  0  0  0  0  1  0  0  0  0  0  0
  186.0770  178.5560  143.9970 C   0  0  0  0  0  0  0  0  0  0  0  0
  184.0750  178.3080  142.6980 N   0  0  0  0  0  1  0  0  0  0  0  0
  185.5090  178.5440  142.6270 C   0  0  2  0  0  3  0  0  0  0  0  0
  185.9300  179.5370  144.7770 O   0  0  0  0  0  0  0  0  0  0  0  0
  186.7980  177.3980  144.3730 N   0  0  0  0  0  0  0  0  0  0  0  0
  186.7460  176.1440  143.1370 S   0  0  0  0  0  0  0  0  0  0  0  0
  186.1820  177.3760  141.9020 C   0  0  2  0  0  3  0  0  0  0  0  0
  192.2370  173.6400  139.8830 O   0  0  0  0  0  0  0  0  0  0  0  0
  194.1700  173.9580  141.2390 C   0  0  1  0  0  3  0  0  0  0  0  0
  195.1520  175.0720  140.8760 C   0  0  1  0  0  3  0  0  0  0  0  0
  194.8690  175.5020  139.5170 N   0  0  0  0  0  2  0  0  0  0  0  0
  193.6310  173.4600  139.9140 C   0  0  2  0  0  3  0  0  0  0  0  0
  194.3400  174.3120  138.8590 C   0  0  1  0  0  3  0  0  0  0  0  0
  193.5100  174.5900  137.5890 C   0  0  0  0  0  3  0  0  0  0  0  0
  194.1500  175.6480  136.7010 C   0  0  0  0  0  2  0  0  0  0  0  0
  194.2460  174.1810  136.3190 C   0  0  0  0  0  2  0  0  0  0  0  0
  195.1060  176.2230  141.7890 N   0  0  0  0  0  2  0  0  0  0  0  0
  194.4660  175.8980  142.9470 O   0  0  0  0  0  0  0  0  0  0  0  0
  194.8050  175.1930  146.1020 C   0  0  0  0  0  2  0  0  0  0  0  0
  196.6530  173.7150  145.8970 O   0  0  0  0  0  0  0  0  0  0  0  0
  196.4280  175.3910  144.2380 C   0  0  0  0  0  2  0  0  0  0  0  0
  194.4560  176.4180  145.2750 C   0  0  0  0  0  2  0  0  0  0  0  0
  195.2800  176.3630  143.9910 C   0  0  2  0  0  3  0  0  0  0  0  0
  196.0280  174.6690  145.4610 C   0  0  0  0  0  0  0  0  0  0  0  0
  194.8830  172.8240  141.9600 C   0  0  0  0  0  2  0  0  0  0  0  0
  194.1050  172.4120  143.2000 C   0  0  0  0  0  3  0  0  0  0  0  0
  194.9140  171.3920  143.9790 C   0  0  0  0  0  2  0  0  0  0  0  0
  193.7690  170.9410  143.0960 C   0  0  0  0  0  2  0  0  0  0  0  0
  1  2  1  6  0  0  0
  1  3  1  0  0  0  0
  4  3  1  6  0  0  0
  4  5  1  0  0  0  0
  4  6  1  0  0  0  0
  5  6  1  0  0  0  0
  6  7  1  1  0  0  0
  7  8  1  1  0  0  0
  9  7  1  0  0  0  0
  9 10  1  0  0  0  0
 10 13  1  0  0  0  0
 12 14  1  0  0  0  0
 12 11  2  0  0  0  0
 13 12  1  0  0  0  0
 15 14  1  0  0  0  0
 17 21  1  0  0  0  0
 17 20  2  0  0  0  0
 19 18  1  1  0  0  0
 19 17  1  0  0  0  0
 21 15  1  0  0  0  0
 22 21  1  0  0  0  0
 23 16  1  1  0  0  0
 23 19  1  0  0  0  0
 23 22  1  0  0  0  0
 24  1  1  0  0  0  0
 25 41  1  6  0  0  0
 26 25  1  0  0  0  0
 26 33  1  1  0  0  0
 27 26  1  0  0  0  0
 28 24  1  1  0  0  0
 28 25  1  0  0  0  0
 29 30  1  6  0  0  0
 29 27  1  0  0  0  0
 29 28  1  0  0  0  0
 31 30  1  0  0  0  0
 32 31  1  0  0  0  0
 32 30  1  0  0  0  0
 33 34  1  0  0  0  0
 37 40  1  0  0  0  0
 38 35  1  0  0  0  0
 39 34  1  6  0  0  0
 39 37  1  0  0  0  0
 39 38  1  0  0  0  0
 40 36  2  0  0  0  0
 40 35  1  0  0  0  0
 41 42  1  0  0  0  0
 42 43  1  0  0  0  0
 44 42  1  0  0  0  0
 44 43  1  0  0  0  0
M  END
>  <MODEL>
7

>  <REMARK>
 VINA RESULT:      -5.9      3.234      8.622
  Name = 
  17 active torsions:
  status: ('A' for Active; 'I' for Inactive)
    1  A    between atoms: C_1  and  C_16
    2  A    between atoms: C_2  and  C_36
    3  A    between atoms: C_5  and  C_16
    4  A    between atoms: C_7  and  C_37
    5  A    between atoms: C_8  and  N_31
    6  A    between atoms: C_11  and  N_25
    7  A    between atoms: C_11  and  C_40
    8  A    between atoms: C_14  and  O_18
    9  A    between atoms: C_14  and  C_37
   10  A    between atoms: O_18  and  C_19
   11  A    between atoms: C_21  and  C_27
   12  A    between atoms: C_21  and  C_40
   13  A    between atoms: C_23  and  S_26
   14  A    between atoms: S_26  and  C_30
   15  A    between atoms: O_29  and  N_31
   16  A    between atoms: O_29  and  C_41
   17  A    between atoms: C_30  and  N_33
                            x       y       z     vdW  Elec       q    Type
                         _______ _______ _______ _____ _____    ______ ____

>  <TORSDO>
F 17

$$$$
=
 OpenBabel11042418453D

 44 49  0  0  1  0  0  0  0  0999 V2000
  189.8680  173.7450  144.6160 C   0  0  2  0  0  3  0  0  0  0  0  0
  189.6940  172.2790  144.9660 C   0  0  0  0  0  1  0  0  0  0  0  0
  189.9330  173.9100  143.1060 C   0  0  0  0  0  2  0  0  0  0  0  0
  189.6060  172.5870  142.4380 C   0  0  1  0  0  3  0  0  0  0  0  0
  188.6040  172.8250  141.3300 C   0  0  0  0  0  2  0  0  0  0  0  0
  190.0680  172.6160  140.9940 C   0  0  2  0  0  3  0  0  0  0  0  0
  190.2960  171.1840  140.5260 C   0  0  1  0  0  3  0  0  0  0  0  0
  190.1470  171.0830  139.1410 O   0  0  0  0  0  1  0  0  0  0  0  0
  191.6600  170.6500  140.9690 C   0  0  0  0  0  2  0  0  0  0  0  0
  191.6610  170.0850  142.3900 C   0  0  0  0  0  2  0  0  0  0  0  0
  192.8200  168.8890  144.7280 O   0  0  0  0  0  0  0  0  0  0  0  0
  193.3530  169.9360  144.2700 C   0  0  0  0  0  0  0  0  0  0  0  0
  192.7750  170.6260  143.1610 N   0  0  0  0  0  2  0  0  0  0  0  0
  194.8670  170.5530  144.9940 S   0  0  0  0  0  0  0  0  0  0  0  0
  195.4740  171.1190  143.3770 C   0  0  0  0  0  2  0  0  0  0  0  0
  197.1900  173.4220  146.5010 N   0  0  0  0  0  1  0  0  0  0  0  0
  195.5940  173.5950  143.7510 C   0  0  0  0  0  0  0  0  0  0  0  0
  196.8970  175.6060  143.6210 N   0  0  0  0  0  1  0  0  0  0  0  0
  196.3760  174.5900  144.5240 C   0  0  2  0  0  3  0  0  0  0  0  0
  194.4330  173.8400  143.3200 O   0  0  0  0  0  0  0  0  0  0  0  0
  196.2310  172.3500  143.5320 N   0  0  0  0  0  0  0  0  0  0  0  0
  197.8830  172.3240  144.1430 S   0  0  0  0  0  0  0  0  0  0  0  0
  197.5420  173.8190  145.1480 C   0  0  2  0  0  3  0  0  0  0  0  0
  191.0420  174.2290  145.2070 O   0  0  0  0  0  0  0  0  0  0  0  0
  189.3520  175.8830  145.4920 C   0  0  1  0  0  3  0  0  0  0  0  0
  189.6940  177.3460  145.2090 C   0  0  1  0  0  3  0  0  0  0  0  0
  191.1410  177.4720  145.1570 N   0  0  0  0  0  2  0  0  0  0  0  0
  190.6260  175.2790  146.0440 C   0  0  2  0  0  3  0  0  0  0  0  0
  191.6320  176.4330  146.0550 C   0  0  1  0  0  3  0  0  0  0  0  0
  193.0980  176.0130  145.8200 C   0  0  0  0  0  3  0  0  0  0  0  0
  193.9610  177.1730  145.3420 C   0  0  0  0  0  2  0  0  0  0  0  0
  194.0560  176.7040  146.7830 C   0  0  0  0  0  2  0  0  0  0  0  0
  189.0970  177.8660  143.9700 N   0  0  0  0  0  2  0  0  0  0  0  0
  189.1900  176.9490  142.9670 O   0  0  0  0  0  0  0  0  0  0  0  0
  185.9600  176.7830  142.6370 C   0  0  0  0  0  2  0  0  0  0  0  0
  185.4550  178.9800  143.3820 O   0  0  0  0  0  0  0  0  0  0  0  0
  187.5830  178.6420  142.3980 C   0  0  0  0  0  2  0  0  0  0  0  0
  187.1760  176.2800  141.8780 C   0  0  0  0  0  2  0  0  0  0  0  0
  188.2660  177.3430  141.9870 C   0  0  2  0  0  3  0  0  0  0  0  0
  186.2480  178.2140  142.8570 C   0  0  0  0  0  0  0  0  0  0  0  0
  188.2450  175.7800  146.5310 C   0  0  0  0  0  2  0  0  0  0  0  0
  187.4640  177.0820  146.6050 C   0  0  0  0  0  3  0  0  0  0  0  0
  186.3660  176.9460  147.6430 C   0  0  0  0  0  2  0  0  0  0  0  0
  186.0400  176.8200  146.1690 C   0  0  0  0  0  2  0  0  0  0  0  0
  1  2  1  6  0  0  0
  1 24  1  0  0  0  0
  3  1  1  0  0  0  0
  4  3  1  1  0  0  0
  5  4  1  0  0  0  0
  6  7  1  6  0  0  0
  6  5  1  0  0  0  0
  6  4  1  0  0  0  0
  7  8  1  6  0  0  0
  7  9  1  0  0  0  0
  9 10  1  0  0  0  0
 10 13  1  0  0  0  0
 12 11  2  0  0  0  0
 12 14  1  0  0  0  0
 13 12  1  0  0  0  0
 15 21  1  0  0  0  0
 15 14  1  0  0  0  0
 17 19  1  0  0  0  0
 19 18  1  6  0  0  0
 19 23  1  0  0  0  0
 20 17  2  0  0  0  0
 21 17  1  0  0  0  0
 21 22  1  0  0  0  0
 22 23  1  0  0  0  0
 23 16  1  1  0  0  0
 25 28  1  0  0  0  0
 25 41  1  1  0  0  0
 26 33  1  6  0  0  0
 26 25  1  0  0  0  0
 27 26  1  0  0  0  0
 27 29  1  0  0  0  0
 28 24  1  6  0  0  0
 28 29  1  0  0  0  0
 29 30  1  6  0  0  0
 30 32  1  0  0  0  0
 31 30  1  0  0  0  0
 31 32  1  0  0  0  0
 34 33  1  0  0  0  0
 35 40  1  0  0  0  0
 37 40  1  0  0  0  0
 38 39  1  0  0  0  0
 38 35  1  0  0  0  0
 39 37  1  0  0  0  0
 39 34  1  1  0  0  0
 40 36  2  0  0  0  0
 41 42  1  0  0  0  0
 42 43  1  0  0  0  0
 44 42  1  0  0  0  0
 44 43  1  0  0  0  0
M  END
>  <MODEL>
8

>  <REMARK>
 VINA RESULT:      -5.8      2.312      5.355
  Name = 
  17 active torsions:
  status: ('A' for Active; 'I' for Inactive)
    1  A    between atoms: C_1  and  C_16
    2  A    between atoms: C_2  and  C_36
    3  A    between atoms: C_5  and  C_16
    4  A    between atoms: C_7  and  C_37
    5  A    between atoms: C_8  and  N_31
    6  A    between atoms: C_11  and  N_25
    7  A    between atoms: C_11  and  C_40
    8  A    between atoms: C_14  and  O_18
    9  A    between atoms: C_14  and  C_37
   10  A    between atoms: O_18  and  C_19
   11  A    between atoms: C_21  and  C_27
   12  A    between atoms: C_21  and  C_40
   13  A    between atoms: C_23  and  S_26
   14  A    between atoms: S_26  and  C_30
   15  A    between atoms: O_29  and  N_31
   16  A    between atoms: O_29  and  C_41
   17  A    between atoms: C_30  and  N_33
                            x       y       z     vdW  Elec       q    Type
                         _______ _______ _______ _____ _____    ______ ____

>  <TORSDO>
F 17

$$$$
=
 OpenBabel11042418453D

 44 49  0  0  1  0  0  0  0  0999 V2000
  195.9560  172.4570  143.0150 C   0  0  2  0  0  3  0  0  0  0  0  0
  196.6460  171.7320  141.8740 C   0  0  0  0  0  1  0  0  0  0  0  0
  196.6350  172.1080  144.3310 C   0  0  0  0  0  2  0  0  0  0  0  0
  195.9040  172.7910  145.4730 C   0  0  1  0  0  3  0  0  0  0  0  0
  196.9180  173.4150  146.4070 C   0  0  0  0  0  2  0  0  0  0  0  0
  196.1590  174.2850  145.4220 C   0  0  2  0  0  3  0  0  0  0  0  0
  195.0160  175.0000  146.1300 C   0  0  1  0  0  3  0  0  0  0  0  0
  194.9430  176.3370  145.7330 O   0  0  0  0  0  1  0  0  0  0  0  0
  193.6770  174.2920  145.9090 C   0  0  0  0  0  2  0  0  0  0  0  0
  192.5980  175.1990  145.3160 C   0  0  0  0  0  2  0  0  0  0  0  0
  190.7540  177.2800  146.0310 O   0  0  0  0  0  0  0  0  0  0  0  0
  190.4200  176.0850  146.2600 C   0  0  0  0  0  0  0  0  0  0  0  0
  191.3270  175.0110  146.0060 N   0  0  0  0  0  2  0  0  0  0  0  0
  188.7830  175.7240  146.8830 S   0  0  0  0  0  0  0  0  0  0  0  0
  188.2920  177.4700  146.7620 C   0  0  0  0  0  2  0  0  0  0  0  0
  185.9270  179.3520  143.7830 N   0  0  0  0  0  1  0  0  0  0  0  0
  186.0580  178.6010  146.8740 C   0  0  0  0  0  0  0  0  0  0  0  0
  183.6920  178.4610  146.4960 N   0  0  0  0  0  1  0  0  0  0  0  0
  184.9420  179.0030  145.9840 C   0  0  2  0  0  3  0  0  0  0  0  0
  186.2540  179.1470  147.9950 O   0  0  0  0  0  0  0  0  0  0  0  0
  186.8930  177.5680  146.3850 N   0  0  0  0  0  0  0  0  0  0  0  0
  186.3210  176.9130  144.8530 S   0  0  0  0  0  0  0  0  0  0  0  0
  185.2450  178.3780  144.6190 C   0  0  2  0  0  3  0  0  0  0  0  0
  194.6060  172.0870  143.0540 O   0  0  0  0  0  0  0  0  0  0  0  0
  193.3140  173.8000  142.0200 C   0  0  1  0  0  3  0  0  0  0  0  0
  191.8790  173.4890  141.5940 C   0  0  1  0  0  3  0  0  0  0  0  0
  191.7090  172.0460  141.5940 N   0  0  0  0  0  2  0  0  0  0  0  0
  194.0740  172.5060  141.8220 C   0  0  2  0  0  3  0  0  0  0  0  0
  193.0340  171.5210  141.2840 C   0  0  1  0  0  3  0  0  0  0  0  0
  193.2610  170.0520  141.6990 C   0  0  0  0  0  3  0  0  0  0  0  0
  192.0590  169.1720  141.3860 C   0  0  0  0  0  2  0  0  0  0  0  0
  193.2910  169.1130  140.4990 C   0  0  0  0  0  2  0  0  0  0  0  0
  190.8590  174.1180  142.4460 N   0  0  0  0  0  2  0  0  0  0  0  0
  190.6600  175.4160  142.0860 O   0  0  0  0  0  0  0  0  0  0  0  0
  188.5900  177.9010  141.7490 C   0  0  0  0  0  2  0  0  0  0  0  0
  186.9700  176.7820  140.4220 O   0  0  0  0  0  0  0  0  0  0  0  0
  188.2650  175.4470  141.8880 C   0  0  0  0  0  2  0  0  0  0  0  0
  189.4840  177.3480  142.8460 C   0  0  0  0  0  2  0  0  0  0  0  0
  189.4800  175.8260  142.7260 C   0  0  2  0  0  3  0  0  0  0  0  0
  187.8480  176.7180  141.2670 C   0  0  0  0  0  0  0  0  0  0  0  0
  193.9150  174.8860  141.1390 C   0  0  0  0  0  2  0  0  0  0  0  0
  194.3530  176.0720  141.9840 C   0  0  0  0  0  3  0  0  0  0  0  0
  195.4600  176.8160  141.2620 C   0  0  0  0  0  2  0  0  0  0  0  0
  195.7940  175.8690  142.3960 C   0  0  0  0  0  2  0  0  0  0  0  0
  1  2  1  6  0  0  0
  1 24  1  0  0  0  0
  1  3  1  0  0  0  0
  4  3  1  6  0  0  0
  4  5  1  0  0  0  0
  6  4  1  0  0  0  0
  6  7  1  1  0  0  0
  6  5  1  0  0  0  0
  7  8  1  6  0  0  0
  9  7  1  0  0  0  0
 10  9  1  0  0  0  0
 10 13  1  0  0  0  0
 11 12  2  0  0  0  0
 12 14  1  0  0  0  0
 13 12  1  0  0  0  0
 15 14  1  0  0  0  0
 17 20  2  0  0  0  0
 19 18  1  1  0  0  0
 19 17  1  0  0  0  0
 21 15  1  0  0  0  0
 21 17  1  0  0  0  0
 22 21  1  0  0  0  0
 23 16  1  6  0  0  0
 23 22  1  0  0  0  0
 23 19  1  0  0  0  0
 25 41  1  6  0  0  0
 26 27  1  0  0  0  0
 26 25  1  0  0  0  0
 26 33  1  1  0  0  0
 28 25  1  0  0  0  0
 28 24  1  1  0  0  0
 29 27  1  0  0  0  0
 29 30  1  1  0  0  0
 29 28  1  0  0  0  0
 31 30  1  0  0  0  0
 32 31  1  0  0  0  0
 32 30  1  0  0  0  0
 34 33  1  0  0  0  0
 35 38  1  0  0  0  0
 36 40  2  0  0  0  0
 37 39  1  0  0  0  0
 39 34  1  6  0  0  0
 39 38  1  0  0  0  0
 40 35  1  0  0  0  0
 40 37  1  0  0  0  0
 41 42  1  0  0  0  0
 42 44  1  0  0  0  0
 43 42  1  0  0  0  0
 43 44  1  0  0  0  0
M  END
>  <MODEL>
9

>  <REMARK>
 VINA RESULT:      -5.8      3.086      9.062
  Name = 
  17 active torsions:
  status: ('A' for Active; 'I' for Inactive)
    1  A    between atoms: C_1  and  C_16
    2  A    between atoms: C_2  and  C_36
    3  A    between atoms: C_5  and  C_16
    4  A    between atoms: C_7  and  C_37
    5  A    between atoms: C_8  and  N_31
    6  A    between atoms: C_11  and  N_25
    7  A    between atoms: C_11  and  C_40
    8  A    between atoms: C_14  and  O_18
    9  A    between atoms: C_14  and  C_37
   10  A    between atoms: O_18  and  C_19
   11  A    between atoms: C_21  and  C_27
   12  A    between atoms: C_21  and  C_40
   13  A    between atoms: C_23  and  S_26
   14  A    between atoms: S_26  and  C_30
   15  A    between atoms: O_29  and  N_31
   16  A    between atoms: O_29  and  C_41
   17  A    between atoms: C_30  and  N_33
                            x       y       z     vdW  Elec       q    Type
                         _______ _______ _______ _____ _____    ______ ____

>  <TORSDO>
F 17

$$$$
