=
 OpenBabel11042419483D

 50 51  0  0  1  0  0  0  0  0999 V2000
  189.9860  172.9840  141.7980 C   0  0  1  0  0  3  0  0  0  0  0  0
  188.6550  173.1950  141.0560 C   0  0  1  0  0  3  0  0  0  0  0  0
  187.4650  172.6520  141.8390 C   0  0  0  0  0  1  0  0  0  0  0  0
  188.3990  174.6810  140.8090 C   0  0  0  0  0  2  0  0  0  0  0  0
  186.7080  175.0280  142.4510 F   0  0  0  0  0  0  0  0  0  0  0  0
  188.8610  175.2640  143.0880 F   0  0  0  0  0  0  0  0  0  0  0  0
  187.9620  175.4540  142.0510 C   0  0  0  0  0  0  0  0  0  0  0  0
  187.8710  176.9370  141.7240 C   0  0  0  0  0  2  0  0  0  0  0  0
  186.7200  177.2110  140.8750 N   0  0  0  0  0  2  0  0  0  0  0  0
  185.7740  177.8580  141.6750 N   0  0  0  0  0  2  0  0  0  0  0  0
  186.4700  178.9120  142.3900 C   0  0  0  0  0  2  0  0  0  0  0  0
  185.5390  180.2230  144.1370 O   0  0  0  0  0  0  0  0  0  0  0  0
  185.8920  179.0780  143.7470 C   0  0  0  0  0  0  0  0  0  0  0  0
  185.7440  177.9400  144.5990 N   0  0  0  0  0  2  0  0  0  0  0  0
  183.6310  178.7350  145.9590 O   0  0  0  0  0  0  0  0  0  0  0  0
  184.9430  178.0240  146.1350 S   0  0  0  0  0  0  0  0  0  0  0  0
  185.9540  178.9310  147.2870 C   0  0  0  0  0  1  0  0  0  0  0  0
  184.6860  176.6350  146.6610 O   0  0  0  0  0  0  0  0  0  0  0  0
  190.3210  171.4960  141.9330 C   0  0  0  0  0  2  0  0  0  0  0  0
  190.6990  170.8940  140.5920 C   0  0  0  0  0  2  0  0  0  0  0  0
  191.6680  169.7400  140.8080 C   0  0  0  0  0  2  0  0  0  0  0  0
  192.4020  169.8990  142.1030 C   0  0  0  0  0  3  0  0  0  0  0  0
  193.7140  170.1280  142.1330 C   0  0  0  0  0  3  0  0  0  0  0  0
  194.4190  170.2690  143.4400 C   0  0  0  0  0  2  0  0  0  0  0  0
  193.4740  170.7850  144.5130 C   0  0  0  0  0  2  0  0  0  0  0  0
  193.7760  172.2340  144.8630 C   0  0  0  0  0  2  0  0  0  0  0  0
  195.1980  172.3800  145.3760 C   0  0  0  0  0  2  0  0  0  0  0  0
  195.9170  174.7270  144.9130 C   0  0  0  0  0  0  0  0  0  0  0  0
  196.6930  175.4970  143.9010 C   0  0  0  0  0  3  0  0  0  0  0  0
  196.6560  173.1950  143.4710 O   0  0  0  0  0  0  0  0  0  0  0  0
  197.1930  174.4030  142.9490 C   0  0  0  0  0  3  0  0  0  0  0  0
  195.9110  173.4450  144.6080 C   0  0  0  0  0  0  0  0  0  0  0  0
  195.1510  175.3460  146.0330 C   0  0  0  0  0  2  0  0  0  0  0  0
  194.4990  176.5660  145.5800 N   0  0  0  0  0  2  0  0  0  0  0  0
  193.1300  176.2140  145.2430 C   0  0  0  0  0  2  0  0  0  0  0  0
  192.4500  175.5440  146.4280 C   0  0  0  0  0  2  0  0  0  0  0  0
  191.9620  176.6010  147.4040 C   0  0  0  0  0  2  0  0  0  0  0  0
  188.8920  176.7670  146.0630 C   0  0  0  0  0  2  0  0  0  0  0  0
  190.1870  175.0890  147.1310 C   0  0  0  0  0  2  0  0  0  0  0  0
  190.5690  176.3540  147.7520 N   0  0  0  0  0  0  0  0  0  0  0  0
  189.7680  177.4010  147.1220 C   0  0  0  0  0  2  0  0  0  0  0  0
  188.8810  175.3060  146.4060 C   0  0  0  0  0  2  0  0  0  0  0  0
  191.0250  173.6340  141.0720 O   0  0  0  0  0  0  0  0  0  0  0  0
  191.6450  175.5870  142.1520 O   0  0  0  0  0  0  0  0  0  0  0  0
  191.9720  174.4660  141.6750 C   0  0  0  0  0  0  0  0  0  0  0  0
  193.3920  174.0250  141.7270 C   0  0  0  0  0  2  0  0  0  0  0  0
  194.2630  174.9860  140.9420 C   0  0  0  0  0  2  0  0  0  0  0  0
  195.2690  173.0370  140.0360 O   0  0  0  0  0  1  0  0  0  0  0  0
  195.4280  174.9200  138.7430 O   0  0  0  0  0  0  0  0  0  0  0  0
  195.0060  174.2550  139.8840 C   0  0  0  0  0  0  0  0  0  0  0  0
  1 19  1  6  0  0  0
  2  1  1  0  0  0  0
  2  3  1  1  0  0  0
  4  2  1  0  0  0  0
  4  7  1  0  0  0  0
  7  5  1  0  0  0  0
  7  6  1  0  0  0  0
  8  7  1  0  0  0  0
  9 10  1  0  0  0  0
  9  8  1  0  0  0  0
 10 11  1  0  0  0  0
 11 13  1  0  0  0  0
 13 12  2  0  0  0  0
 13 14  1  0  0  0  0
 14 16  1  0  0  0  0
 15 16  2  0  0  0  0
 16 18  2  0  0  0  0
 16 17  1  0  0  0  0
 20 21  1  0  0  0  0
 20 19  1  0  0  0  0
 21 22  1  0  0  0  0
 22 23  2  0  0  0  0
 23 24  1  0  0  0  0
 24 25  1  0  0  0  0
 25 26  1  0  0  0  0
 26 27  1  0  0  0  0
 28 33  1  0  0  0  0
 29 28  1  0  0  0  0
 30 32  1  0  0  0  0
 31 30  1  0  0  0  0
 31 29  2  0  0  0  0
 32 28  2  0  0  0  0
 32 27  1  0  0  0  0
 34 33  1  0  0  0  0
 35 34  1  0  0  0  0
 35 36  1  0  0  0  0
 36 37  1  0  0  0  0
 37 40  1  0  0  0  0
 38 42  1  0  0  0  0
 38 41  1  0  0  0  0
 39 40  1  0  0  0  0
 41 40  1  0  0  0  0
 42 39  1  0  0  0  0
 43 45  1  0  0  0  0
 43  1  1  0  0  0  0
 45 46  1  0  0  0  0
 45 44  2  0  0  0  0
 47 46  1  0  0  0  0
 49 50  2  0  0  0  0
 50 48  1  0  0  0  0
 50 47  1  0  0  0  0
M  END
>  <MODEL>
1

>  <REMARK>
 VINA RESULT:      -5.1      0.000      0.000
  Name = 
  29 active torsions:
  status: ('A' for Active; 'I' for Inactive)
    1  A    between atoms: C_2  and  N_22
    2  A    between atoms: C_2  and  C_46
    3  A    between atoms: N_3  and  C_10
    4  A    between atoms: N_3  and  N_27
    5  A    between atoms: C_5  and  C_14
    6  A    between atoms: C_10  and  C_50
    7  A    between atoms: C_11  and  C_30
    8  A    between atoms: C_11  and  C_41
    9  A    between atoms: C_12  and  C_20
   10  A    between atoms: C_13  and  C_17
   11  A    between atoms: C_13  and  C_47
   12  A    between atoms: C_14  and  C_48
   13  A    between atoms: C_15  and  C_30
   14  A    between atoms: C_15  and  C_35
   15  A    between atoms: C_17  and  C_36
   16  A    between atoms: O_18  and  C_19
   17  A    between atoms: O_18  and  C_36
   18  A    between atoms: C_19  and  C_21
   19  A    between atoms: C_19  and  C_28
   20  A    between atoms: C_20  and  N_22
   21  A    between atoms: C_21  and  C_43
   22  A    between atoms: C_26  and  N_29
   23  A    between atoms: C_26  and  C_46
   24  A    between atoms: N_27  and  C_37
   25  A    between atoms: C_28  and  C_48
   26  A    between atoms: C_32  and  C_35
   27  A    between atoms: S_33  and  N_44
   28  A    between atoms: C_37  and  C_42
   29  A    between atoms: C_43  and  C_50
                            x       y       z     vdW  Elec       q    Type
                         _______ _______ _______ _____ _____    ______ ____

>  <TORSDO>
F 29

$$$$
=
 OpenBabel11042419483D

 50 51  0  0  1  0  0  0  0  0999 V2000
  190.1230  176.0030  146.0840 C   0  0  1  0  0  3  0  0  0  0  0  0
  189.3970  177.3330  145.8190 C   0  0  1  0  0  3  0  0  0  0  0  0
  189.7370  177.9140  144.4510 C   0  0  0  0  0  1  0  0  0  0  0  0
  187.8810  177.1450  145.8700 C   0  0  0  0  0  2  0  0  0  0  0  0
  186.4700  176.8130  147.7600 F   0  0  0  0  0  0  0  0  0  0  0  0
  188.1660  178.2900  147.9560 F   0  0  0  0  0  0  0  0  0  0  0  0
  187.2150  177.7690  147.0940 C   0  0  0  0  0  0  0  0  0  0  0  0
  186.2700  178.8750  146.6520 C   0  0  0  0  0  2  0  0  0  0  0  0
  184.8920  178.5480  146.9910 N   0  0  0  0  0  2  0  0  0  0  0  0
  184.3310  177.9450  145.8610 N   0  0  0  0  0  2  0  0  0  0  0  0
  184.3350  178.9390  144.8030 C   0  0  0  0  0  2  0  0  0  0  0  0
  183.8810  177.8830  142.7250 O   0  0  0  0  0  0  0  0  0  0  0  0
  184.7550  178.3180  143.5210 C   0  0  0  0  0  0  0  0  0  0  0  0
  186.1450  178.2160  143.2040 N   0  0  0  0  0  2  0  0  0  0  0  0
  188.0780  178.2120  141.4120 O   0  0  0  0  0  0  0  0  0  0  0  0
  186.7100  177.6430  141.6690 S   0  0  0  0  0  0  0  0  0  0  0  0
  185.6000  178.1790  140.3840 C   0  0  0  0  0  1  0  0  0  0  0  0
  186.7960  176.1370  141.6770 O   0  0  0  0  0  0  0  0  0  0  0  0
  190.5510  175.8830  147.5500 C   0  0  0  0  0  2  0  0  0  0  0  0
  192.0520  176.0480  147.7000 C   0  0  0  0  0  2  0  0  0  0  0  0
  192.7620  175.2400  146.6230 C   0  0  0  0  0  2  0  0  0  0  0  0
  194.0390  175.9060  146.2150 C   0  0  0  0  0  3  0  0  0  0  0  0
  194.2680  176.2510  144.9480 C   0  0  0  0  0  3  0  0  0  0  0  0
  195.5560  176.9020  144.5720 C   0  0  0  0  0  2  0  0  0  0  0  0
  196.4080  175.9710  143.7250 C   0  0  0  0  0  2  0  0  0  0  0  0
  195.5430  175.0700  142.8560 C   0  0  0  0  0  2  0  0  0  0  0  0
  196.0070  173.6260  142.9510 C   0  0  0  0  0  2  0  0  0  0  0  0
  194.0930  172.0520  142.6320 C   0  0  0  0  0  0  0  0  0  0  0  0
  193.0580  171.3460  143.4390 C   0  0  0  0  0  3  0  0  0  0  0  0
  194.5420  172.6030  144.7460 O   0  0  0  0  0  0  0  0  0  0  0  0
  193.4210  171.7400  144.8770 C   0  0  0  0  0  3  0  0  0  0  0  0
  194.8820  172.7600  143.4160 C   0  0  0  0  0  0  0  0  0  0  0  0
  194.1370  172.0560  141.1410 C   0  0  0  0  0  2  0  0  0  0  0  0
  192.8790  171.5630  140.6010 N   0  0  0  0  0  2  0  0  0  0  0  0
  193.1890  170.8900  139.3520 C   0  0  0  0  0  2  0  0  0  0  0  0
  191.9370  170.7620  138.4970 C   0  0  0  0  0  2  0  0  0  0  0  0
  191.1660  172.0720  138.5180 C   0  0  0  0  0  2  0  0  0  0  0  0
  189.6010  172.8600  135.6580 C   0  0  0  0  0  2  0  0  0  0  0  0
  190.0410  170.8580  136.8530 C   0  0  0  0  0  2  0  0  0  0  0  0
  189.8780  171.9040  137.8590 N   0  0  0  0  0  0  0  0  0  0  0  0
  189.5860  173.1440  137.1450 C   0  0  0  0  0  2  0  0  0  0  0  0
  189.4630  171.3700  135.5560 C   0  0  0  0  0  2  0  0  0  0  0  0
  189.2440  174.9280  145.7640 O   0  0  0  0  0  0  0  0  0  0  0  0
  189.9610  172.8400  145.0650 O   0  0  0  0  0  0  0  0  0  0  0  0
  189.5220  173.9850  144.7710 C   0  0  0  0  0  0  0  0  0  0  0  0
  189.3190  174.3580  143.3450 C   0  0  0  0  0  2  0  0  0  0  0  0
  190.2590  173.5600  142.4620 C   0  0  0  0  0  2  0  0  0  0  0  0
  189.7950  171.2990  141.9120 O   0  0  0  0  0  1  0  0  0  0  0  0
  188.5010  172.8580  140.8460 O   0  0  0  0  0  0  0  0  0  0  0  0
  189.5060  172.5070  141.7350 C   0  0  0  0  0  0  0  0  0  0  0  0
  1 19  1  1  0  0  0
  2  3  1  6  0  0  0
  2  4  1  0  0  0  0
  2  1  1  0  0  0  0
  4  7  1  0  0  0  0
  7  5  1  0  0  0  0
  7  6  1  0  0  0  0
  8  9  1  0  0  0  0
  8  7  1  0  0  0  0
 10  9  1  0  0  0  0
 11 10  1  0  0  0  0
 12 13  2  0  0  0  0
 13 11  1  0  0  0  0
 14 13  1  0  0  0  0
 15 16  2  0  0  0  0
 16 18  2  0  0  0  0
 16 14  1  0  0  0  0
 17 16  1  0  0  0  0
 19 20  1  0  0  0  0
 21 20  1  0  0  0  0
 22 21  1  0  0  0  0
 23 22  2  0  0  0  0
 24 23  1  0  0  0  0
 25 24  1  0  0  0  0
 26 27  1  0  0  0  0
 26 25  1  0  0  0  0
 27 32  1  0  0  0  0
 28 32  2  0  0  0  0
 28 29  1  0  0  0  0
 29 31  2  0  0  0  0
 30 31  1  0  0  0  0
 32 30  1  0  0  0  0
 33 28  1  0  0  0  0
 34 33  1  0  0  0  0
 35 34  1  0  0  0  0
 36 37  1  0  0  0  0
 36 35  1  0  0  0  0
 38 41  1  0  0  0  0
 39 40  1  0  0  0  0
 40 37  1  0  0  0  0
 41 40  1  0  0  0  0
 42 38  1  0  0  0  0
 42 39  1  0  0  0  0
 43  1  1  0  0  0  0
 45 44  2  0  0  0  0
 45 43  1  0  0  0  0
 46 45  1  0  0  0  0
 47 46  1  0  0  0  0
 49 50  2  0  0  0  0
 50 48  1  0  0  0  0
 50 47  1  0  0  0  0
M  END
>  <MODEL>
2

>  <REMARK>
 VINA RESULT:      -5.1      3.079      6.578
  Name = 
  29 active torsions:
  status: ('A' for Active; 'I' for Inactive)
    1  A    between atoms: C_2  and  N_22
    2  A    between atoms: C_2  and  C_46
    3  A    between atoms: N_3  and  C_10
    4  A    between atoms: N_3  and  N_27
    5  A    between atoms: C_5  and  C_14
    6  A    between atoms: C_10  and  C_50
    7  A    between atoms: C_11  and  C_30
    8  A    between atoms: C_11  and  C_41
    9  A    between atoms: C_12  and  C_20
   10  A    between atoms: C_13  and  C_17
   11  A    between atoms: C_13  and  C_47
   12  A    between atoms: C_14  and  C_48
   13  A    between atoms: C_15  and  C_30
   14  A    between atoms: C_15  and  C_35
   15  A    between atoms: C_17  and  C_36
   16  A    between atoms: O_18  and  C_19
   17  A    between atoms: O_18  and  C_36
   18  A    between atoms: C_19  and  C_21
   19  A    between atoms: C_19  and  C_28
   20  A    between atoms: C_20  and  N_22
   21  A    between atoms: C_21  and  C_43
   22  A    between atoms: C_26  and  N_29
   23  A    between atoms: C_26  and  C_46
   24  A    between atoms: N_27  and  C_37
   25  A    between atoms: C_28  and  C_48
   26  A    between atoms: C_32  and  C_35
   27  A    between atoms: S_33  and  N_44
   28  A    between atoms: C_37  and  C_42
   29  A    between atoms: C_43  and  C_50
                            x       y       z     vdW  Elec       q    Type
                         _______ _______ _______ _____ _____    ______ ____

>  <TORSDO>
F 29

$$$$
=
 OpenBabel11042419483D

 50 51  0  0  1  0  0  0  0  0999 V2000
  193.1500  173.2530  144.9970 C   0  0  1  0  0  3  0  0  0  0  0  0
  193.1590  174.7270  145.4380 C   0  0  1  0  0  3  0  0  0  0  0  0
  192.7710  174.8940  146.9020 C   0  0  0  0  0  1  0  0  0  0  0  0
  194.5480  175.3380  145.2610 C   0  0  0  0  0  2  0  0  0  0  0  0
  193.3480  177.1670  144.3190 F   0  0  0  0  0  0  0  0  0  0  0  0
  195.5450  177.4560  144.7470 F   0  0  0  0  0  0  0  0  0  0  0  0
  194.5850  176.5490  144.3320 C   0  0  0  0  0  0  0  0  0  0  0  0
  194.8950  176.0930  142.9140 C   0  0  0  0  0  2  0  0  0  0  0  0
  196.2860  175.6810  142.7940 N   0  0  0  0  0  2  0  0  0  0  0  0
  196.3690  174.8610  141.6650 N   0  0  0  0  0  2  0  0  0  0  0  0
  196.6460  175.7250  140.5310 C   0  0  0  0  0  2  0  0  0  0  0  0
  196.4810  175.0780  138.2530 O   0  0  0  0  0  0  0  0  0  0  0  0
  195.8800  175.2710  139.3430 C   0  0  0  0  0  0  0  0  0  0  0  0
  194.4700  175.0610  139.4460 N   0  0  0  0  0  2  0  0  0  0  0  0
  194.1720  173.1080  137.7010 O   0  0  0  0  0  0  0  0  0  0  0  0
  193.5310  174.3910  138.1520 S   0  0  0  0  0  0  0  0  0  0  0  0
  193.4880  175.5370  136.7890 C   0  0  0  0  0  1  0  0  0  0  0  0
  192.1280  174.1030  138.6250 O   0  0  0  0  0  0  0  0  0  0  0  0
  192.0680  172.9900  143.9450 C   0  0  0  0  0  2  0  0  0  0  0  0
  191.2230  171.7850  144.3140 C   0  0  0  0  0  2  0  0  0  0  0  0
  189.7730  172.2140  144.4850 C   0  0  0  0  0  2  0  0  0  0  0  0
  189.6930  173.5870  145.0760 C   0  0  0  0  0  3  0  0  0  0  0  0
  189.3280  173.7770  146.3440 C   0  0  0  0  0  3  0  0  0  0  0  0
  189.2450  175.1590  146.8980 C   0  0  0  0  0  2  0  0  0  0  0  0
  189.3780  176.1960  145.7950 C   0  0  0  0  0  2  0  0  0  0  0  0
  188.5830  177.4520  146.1200 C   0  0  0  0  0  2  0  0  0  0  0  0
  187.0920  177.1620  146.1130 C   0  0  0  0  0  2  0  0  0  0  0  0
  185.9940  177.6080  143.9130 C   0  0  0  0  0  0  0  0  0  0  0  0
  185.4030  178.7430  143.1500 C   0  0  0  0  0  3  0  0  0  0  0  0
  186.1400  179.3590  145.2870 O   0  0  0  0  0  0  0  0  0  0  0  0
  185.5090  179.9110  144.1390 C   0  0  0  0  0  3  0  0  0  0  0  0
  186.4110  178.0170  145.0950 C   0  0  0  0  0  0  0  0  0  0  0  0
  186.1980  176.2390  143.3590 C   0  0  0  0  0  2  0  0  0  0  0  0
  186.6010  176.3190  141.9630 N   0  0  0  0  0  2  0  0  0  0  0  0
  188.0420  176.1340  141.9280 C   0  0  0  0  0  2  0  0  0  0  0  0
  188.4220  175.1600  140.8220 C   0  0  0  0  0  2  0  0  0  0  0  0
  189.4530  174.1720  141.3410 C   0  0  0  0  0  2  0  0  0  0  0  0
  189.1500  172.1520  138.6800 C   0  0  0  0  0  2  0  0  0  0  0  0
  190.2790  172.0510  140.7660 C   0  0  0  0  0  2  0  0  0  0  0  0
  189.0550  172.8120  141.0030 N   0  0  0  0  0  0  0  0  0  0  0  0
  188.3330  172.8700  139.7340 C   0  0  0  0  0  2  0  0  0  0  0  0
  190.1170  171.3100  139.4600 C   0  0  0  0  0  2  0  0  0  0  0  0
  194.4240  172.9290  144.4470 O   0  0  0  0  0  0  0  0  0  0  0  0
  194.6590  170.8340  145.4040 O   0  0  0  0  0  0  0  0  0  0  0  0
  194.9680  171.6430  144.4880 C   0  0  0  0  0  0  0  0  0  0  0  0
  195.9490  171.2400  143.4440 C   0  0  0  0  0  2  0  0  0  0  0  0
  195.3350  170.1950  142.5330 C   0  0  0  0  0  2  0  0  0  0  0  0
  193.1080  170.2470  141.7160 O   0  0  0  0  0  1  0  0  0  0  0  0
  194.4610  171.9470  140.9940 O   0  0  0  0  0  0  0  0  0  0  0  0
  194.2360  170.7960  141.7350 C   0  0  0  0  0  0  0  0  0  0  0  0
  1 19  1  6  0  0  0
  1  2  1  0  0  0  0
  2  3  1  1  0  0  0
  4  2  1  0  0  0  0
  5  7  1  0  0  0  0
  7  6  1  0  0  0  0
  7  4  1  0  0  0  0
  8  7  1  0  0  0  0
  9  8  1  0  0  0  0
 10  9  1  0  0  0  0
 11 10  1  0  0  0  0
 12 13  2  0  0  0  0
 13 14  1  0  0  0  0
 13 11  1  0  0  0  0
 15 16  2  0  0  0  0
 16 18  2  0  0  0  0
 16 14  1  0  0  0  0
 17 16  1  0  0  0  0
 19 20  1  0  0  0  0
 20 21  1  0  0  0  0
 21 22  1  0  0  0  0
 22 23  2  0  0  0  0
 23 24  1  0  0  0  0
 25 26  1  0  0  0  0
 25 24  1  0  0  0  0
 27 26  1  0  0  0  0
 28 32  2  0  0  0  0
 29 28  1  0  0  0  0
 29 31  2  0  0  0  0
 31 30  1  0  0  0  0
 32 30  1  0  0  0  0
 32 27  1  0  0  0  0
 33 28  1  0  0  0  0
 34 33  1  0  0  0  0
 35 34  1  0  0  0  0
 36 37  1  0  0  0  0
 36 35  1  0  0  0  0
 38 42  1  0  0  0  0
 38 41  1  0  0  0  0
 39 40  1  0  0  0  0
 40 37  1  0  0  0  0
 41 40  1  0  0  0  0
 42 39  1  0  0  0  0
 43 45  1  0  0  0  0
 43  1  1  0  0  0  0
 45 44  2  0  0  0  0
 46 45  1  0  0  0  0
 47 46  1  0  0  0  0
 48 50  1  0  0  0  0
 49 50  2  0  0  0  0
 50 47  1  0  0  0  0
M  END
>  <MODEL>
3

>  <REMARK>
 VINA RESULT:      -5.0      3.104      8.580
  Name = 
  29 active torsions:
  status: ('A' for Active; 'I' for Inactive)
    1  A    between atoms: C_2  and  N_22
    2  A    between atoms: C_2  and  C_46
    3  A    between atoms: N_3  and  C_10
    4  A    between atoms: N_3  and  N_27
    5  A    between atoms: C_5  and  C_14
    6  A    between atoms: C_10  and  C_50
    7  A    between atoms: C_11  and  C_30
    8  A    between atoms: C_11  and  C_41
    9  A    between atoms: C_12  and  C_20
   10  A    between atoms: C_13  and  C_17
   11  A    between atoms: C_13  and  C_47
   12  A    between atoms: C_14  and  C_48
   13  A    between atoms: C_15  and  C_30
   14  A    between atoms: C_15  and  C_35
   15  A    between atoms: C_17  and  C_36
   16  A    between atoms: O_18  and  C_19
   17  A    between atoms: O_18  and  C_36
   18  A    between atoms: C_19  and  C_21
   19  A    between atoms: C_19  and  C_28
   20  A    between atoms: C_20  and  N_22
   21  A    between atoms: C_21  and  C_43
   22  A    between atoms: C_26  and  N_29
   23  A    between atoms: C_26  and  C_46
   24  A    between atoms: N_27  and  C_37
   25  A    between atoms: C_28  and  C_48
   26  A    between atoms: C_32  and  C_35
   27  A    between atoms: S_33  and  N_44
   28  A    between atoms: C_37  and  C_42
   29  A    between atoms: C_43  and  C_50
                            x       y       z     vdW  Elec       q    Type
                         _______ _______ _______ _____ _____    ______ ____

>  <TORSDO>
F 29

$$$$
=
 OpenBabel11042419483D

 50 51  0  0  1  0  0  0  0  0999 V2000
  193.3930  173.1700  144.7910 C   0  0  1  0  0  3  0  0  0  0  0  0
  193.5780  174.6770  145.0420 C   0  0  1  0  0  3  0  0  0  0  0  0
  193.4320  175.0390  146.5160 C   0  0  0  0  0  1  0  0  0  0  0  0
  194.9650  175.1360  144.5950 C   0  0  0  0  0  2  0  0  0  0  0  0
  193.8430  177.1380  143.9590 F   0  0  0  0  0  0  0  0  0  0  0  0
  196.0980  177.1190  143.8710 F   0  0  0  0  0  0  0  0  0  0  0  0
  194.9540  176.3620  143.6850 C   0  0  0  0  0  0  0  0  0  0  0  0
  194.8690  175.9180  142.2330 C   0  0  0  0  0  2  0  0  0  0  0  0
  196.0490  175.1550  141.8530 N   0  0  0  0  0  2  0  0  0  0  0  0
  195.7810  174.5920  140.6020 N   0  0  0  0  0  2  0  0  0  0  0  0
  195.4260  173.2020  140.8280 C   0  0  0  0  0  2  0  0  0  0  0  0
  193.1270  173.5730  140.3690 O   0  0  0  0  0  0  0  0  0  0  0  0
  194.1530  172.8800  140.1370 C   0  0  0  0  0  0  0  0  0  0  0  0
  194.1010  171.7860  139.2180 N   0  0  0  0  0  2  0  0  0  0  0  0
  193.0140  170.3040  137.3280 O   0  0  0  0  0  0  0  0  0  0  0  0
  192.6970  171.4390  138.2620 S   0  0  0  0  0  0  0  0  0  0  0  0
  192.2520  172.8760  137.3090 C   0  0  0  0  0  1  0  0  0  0  0  0
  191.5480  171.0380  139.1540 O   0  0  0  0  0  0  0  0  0  0  0  0
  192.2370  172.9020  143.8220 C   0  0  0  0  0  2  0  0  0  0  0  0
  191.2640  171.8870  144.3940 C   0  0  0  0  0  2  0  0  0  0  0  0
  189.8830  172.5160  144.5090 C   0  0  0  0  0  2  0  0  0  0  0  0
  189.9580  173.8310  145.2210 C   0  0  0  0  0  3  0  0  0  0  0  0
  189.6700  173.9360  146.5170 C   0  0  0  0  0  3  0  0  0  0  0  0
  189.7410  175.2640  147.1930 C   0  0  0  0  0  2  0  0  0  0  0  0
  189.3790  176.3830  146.2310 C   0  0  0  0  0  2  0  0  0  0  0  0
  188.3270  177.3060  146.8290 C   0  0  0  0  0  2  0  0  0  0  0  0
  187.0230  176.5620  147.0530 C   0  0  0  0  0  2  0  0  0  0  0  0
  185.3010  177.5270  145.5210 C   0  0  0  0  0  0  0  0  0  0  0  0
  184.2080  178.5390  145.5370 C   0  0  0  0  0  3  0  0  0  0  0  0
  185.2550  178.2860  147.6180 O   0  0  0  0  0  0  0  0  0  0  0  0
  184.2040  179.0140  146.9960 C   0  0  0  0  0  3  0  0  0  0  0  0
  185.8670  177.4430  146.7080 C   0  0  0  0  0  0  0  0  0  0  0  0
  185.7650  176.8100  144.2980 C   0  0  0  0  0  2  0  0  0  0  0  0
  185.4150  177.5720  143.1080 N   0  0  0  0  0  2  0  0  0  0  0  0
  186.6620  177.9640  142.4740 C   0  0  0  0  0  2  0  0  0  0  0  0
  187.1230  176.8840  141.5060 C   0  0  0  0  0  2  0  0  0  0  0  0
  188.6210  176.6750  141.6470 C   0  0  0  0  0  2  0  0  0  0  0  0
  188.2140  173.3890  141.1070 C   0  0  0  0  0  2  0  0  0  0  0  0
  190.0470  174.8100  141.6100 C   0  0  0  0  0  2  0  0  0  0  0  0
  188.8870  175.3900  142.2810 N   0  0  0  0  0  0  0  0  0  0  0  0
  187.7490  174.5190  142.0010 C   0  0  0  0  0  2  0  0  0  0  0  0
  189.7080  173.3840  141.2500 C   0  0  0  0  0  2  0  0  0  0  0  0
  194.5970  172.6450  144.2400 O   0  0  0  0  0  0  0  0  0  0  0  0
  194.7010  170.8160  145.6570 O   0  0  0  0  0  0  0  0  0  0  0  0
  195.1910  171.4640  144.6930 C   0  0  0  0  0  0  0  0  0  0  0  0
  196.4390  170.9860  144.0370 C   0  0  0  0  0  2  0  0  0  0  0  0
  196.2820  169.5370  143.6210 C   0  0  0  0  0  2  0  0  0  0  0  0
  195.8830  169.8440  141.3020 O   0  0  0  0  0  0  0  0  0  0  0  0
  194.1470  168.9380  142.4890 O   0  0  0  0  0  1  0  0  0  0  0  0
  195.4360  169.4440  142.4040 C   0  0  0  0  0  0  0  0  0  0  0  0
  1 19  1  6  0  0  0
  1  2  1  0  0  0  0
  2  3  1  1  0  0  0
  4  2  1  0  0  0  0
  7  6  1  0  0  0  0
  7  5  1  0  0  0  0
  7  4  1  0  0  0  0
  8  7  1  0  0  0  0
  9  8  1  0  0  0  0
 10 11  1  0  0  0  0
 10  9  1  0  0  0  0
 13 12  2  0  0  0  0
 13 11  1  0  0  0  0
 14 13  1  0  0  0  0
 15 16  2  0  0  0  0
 16 18  2  0  0  0  0
 16 14  1  0  0  0  0
 17 16  1  0  0  0  0
 19 20  1  0  0  0  0
 20 21  1  0  0  0  0
 21 22  1  0  0  0  0
 22 23  2  0  0  0  0
 23 24  1  0  0  0  0
 25 26  1  0  0  0  0
 25 24  1  0  0  0  0
 26 27  1  0  0  0  0
 28 29  1  0  0  0  0
 28 32  2  0  0  0  0
 29 31  2  0  0  0  0
 31 30  1  0  0  0  0
 32 27  1  0  0  0  0
 32 30  1  0  0  0  0
 33 28  1  0  0  0  0
 34 33  1  0  0  0  0
 35 34  1  0  0  0  0
 36 37  1  0  0  0  0
 36 35  1  0  0  0  0
 37 40  1  0  0  0  0
 38 42  1  0  0  0  0
 38 41  1  0  0  0  0
 39 40  1  0  0  0  0
 41 40  1  0  0  0  0
 42 39  1  0  0  0  0
 43 45  1  0  0  0  0
 43  1  1  0  0  0  0
 45 44  2  0  0  0  0
 46 45  1  0  0  0  0
 47 46  1  0  0  0  0
 48 50  2  0  0  0  0
 50 49  1  0  0  0  0
 50 47  1  0  0  0  0
M  END
>  <MODEL>
4

>  <REMARK>
 VINA RESULT:      -4.5      3.400      8.648
  Name = 
  29 active torsions:
  status: ('A' for Active; 'I' for Inactive)
    1  A    between atoms: C_2  and  N_22
    2  A    between atoms: C_2  and  C_46
    3  A    between atoms: N_3  and  C_10
    4  A    between atoms: N_3  and  N_27
    5  A    between atoms: C_5  and  C_14
    6  A    between atoms: C_10  and  C_50
    7  A    between atoms: C_11  and  C_30
    8  A    between atoms: C_11  and  C_41
    9  A    between atoms: C_12  and  C_20
   10  A    between atoms: C_13  and  C_17
   11  A    between atoms: C_13  and  C_47
   12  A    between atoms: C_14  and  C_48
   13  A    between atoms: C_15  and  C_30
   14  A    between atoms: C_15  and  C_35
   15  A    between atoms: C_17  and  C_36
   16  A    between atoms: O_18  and  C_19
   17  A    between atoms: O_18  and  C_36
   18  A    between atoms: C_19  and  C_21
   19  A    between atoms: C_19  and  C_28
   20  A    between atoms: C_20  and  N_22
   21  A    between atoms: C_21  and  C_43
   22  A    between atoms: C_26  and  N_29
   23  A    between atoms: C_26  and  C_46
   24  A    between atoms: N_27  and  C_37
   25  A    between atoms: C_28  and  C_48
   26  A    between atoms: C_32  and  C_35
   27  A    between atoms: S_33  and  N_44
   28  A    between atoms: C_37  and  C_42
   29  A    between atoms: C_43  and  C_50
                            x       y       z     vdW  Elec       q    Type
                         _______ _______ _______ _____ _____    ______ ____

>  <TORSDO>
F 29

$$$$
=
 OpenBabel11042419483D

 50 51  0  0  1  0  0  0  0  0999 V2000
  192.7590  174.0090  145.3990 C   0  0  1  0  0  3  0  0  0  0  0  0
  192.4270  175.4830  145.6910 C   0  0  1  0  0  3  0  0  0  0  0  0
  193.6010  176.2270  146.3170 C   0  0  0  0  0  1  0  0  0  0  0  0
  192.0530  176.2200  144.4050 C   0  0  0  0  0  2  0  0  0  0  0  0
  190.7450  178.2110  144.4240 F   0  0  0  0  0  0  0  0  0  0  0  0
  189.9290  176.4230  143.3140 F   0  0  0  0  0  0  0  0  0  0  0  0
  190.6540  176.8310  144.4210 C   0  0  0  0  0  0  0  0  0  0  0  0
  189.9270  176.4070  145.6890 C   0  0  0  0  0  2  0  0  0  0  0  0
  189.6120  177.5620  146.5170 N   0  0  0  0  0  2  0  0  0  0  0  0
  188.3640  177.3150  147.0970 N   0  0  0  0  0  2  0  0  0  0  0  0
  187.6860  176.3500  146.2500 C   0  0  0  0  0  2  0  0  0  0  0  0
  185.4080  176.9930  146.0640 O   0  0  0  0  0  0  0  0  0  0  0  0
  186.5540  176.9980  145.5410 C   0  0  0  0  0  0  0  0  0  0  0  0
  186.7730  177.6170  144.2720 N   0  0  0  0  0  2  0  0  0  0  0  0
  184.2010  177.9270  143.7830 O   0  0  0  0  0  0  0  0  0  0  0  0
  185.5420  178.5220  143.4520 S   0  0  0  0  0  0  0  0  0  0  0  0
  185.8060  178.4320  141.6930 C   0  0  0  0  0  1  0  0  0  0  0  0
  185.5690  179.9610  143.9030 O   0  0  0  0  0  0  0  0  0  0  0  0
  191.7040  173.3660  144.4950 C   0  0  0  0  0  2  0  0  0  0  0  0
  192.2890  172.9940  143.1440 C   0  0  0  0  0  2  0  0  0  0  0  0
  191.4950  171.8410  142.5470 C   0  0  0  0  0  2  0  0  0  0  0  0
  190.1080  172.2800  142.1920 C   0  0  0  0  0  3  0  0  0  0  0  0
  189.8760  173.4760  141.6540 C   0  0  0  0  0  3  0  0  0  0  0  0
  188.4810  173.8880  141.3240 C   0  0  0  0  0  2  0  0  0  0  0  0
  188.3710  174.3170  139.8700 C   0  0  0  0  0  2  0  0  0  0  0  0
  188.2130  173.1150  138.9510 C   0  0  0  0  0  2  0  0  0  0  0  0
  189.4260  172.9640  138.0500 C   0  0  0  0  0  2  0  0  0  0  0  0
  191.4980  171.7720  138.7780 C   0  0  0  0  0  0  0  0  0  0  0  0
  191.9620  170.3910  139.0910 C   0  0  0  0  0  3  0  0  0  0  0  0
  189.6850  170.4940  138.5510 O   0  0  0  0  0  0  0  0  0  0  0  0
  190.6820  169.5590  138.9400 C   0  0  0  0  0  3  0  0  0  0  0  0
  190.2190  171.7660  138.4600 C   0  0  0  0  0  0  0  0  0  0  0  0
  192.3930  172.9640  138.7100 C   0  0  0  0  0  2  0  0  0  0  0  0
  193.6170  172.7140  139.4560 N   0  0  0  0  0  2  0  0  0  0  0  0
  194.7250  172.9980  138.5610 C   0  0  0  0  0  2  0  0  0  0  0  0
  196.0080  173.1960  139.3550 C   0  0  0  0  0  2  0  0  0  0  0  0
  195.6720  173.6510  140.7650 C   0  0  0  0  0  2  0  0  0  0  0  0
  195.0420  176.3820  142.6080 C   0  0  0  0  0  2  0  0  0  0  0  0
  196.9180  174.9730  142.2520 C   0  0  0  0  0  2  0  0  0  0  0  0
  196.1830  174.9960  140.9910 N   0  0  0  0  0  0  0  0  0  0  0  0
  195.0320  175.8760  141.1810 C   0  0  0  0  0  2  0  0  0  0  0  0
  196.4430  176.1380  143.0860 C   0  0  0  0  0  2  0  0  0  0  0  0
  194.0290  173.9430  144.7560 O   0  0  0  0  0  0  0  0  0  0  0  0
  196.1200  173.8620  145.7480 O   0  0  0  0  0  0  0  0  0  0  0  0
  195.1180  173.2490  145.2880 C   0  0  0  0  0  0  0  0  0  0  0  0
  195.0990  171.7610  145.2840 C   0  0  0  0  0  2  0  0  0  0  0  0
  196.2960  171.2250  146.0450 C   0  0  0  0  0  2  0  0  0  0  0  0
  197.9410  169.5610  145.6510 O   0  0  0  0  0  1  0  0  0  0  0  0
  197.0350  170.5140  143.7770 O   0  0  0  0  0  0  0  0  0  0  0  0
  197.1320  170.3810  145.1540 C   0  0  0  0  0  0  0  0  0  0  0  0
  1 19  1  6  0  0  0
  1  2  1  0  0  0  0
  2  3  1  6  0  0  0
  4  7  1  0  0  0  0
  4  2  1  0  0  0  0
  6  7  1  0  0  0  0
  7  5  1  0  0  0  0
  7  8  1  0  0  0  0
  8  9  1  0  0  0  0
  9 10  1  0  0  0  0
 11 10  1  0  0  0  0
 13 12  2  0  0  0  0
 13 11  1  0  0  0  0
 14 13  1  0  0  0  0
 16 15  2  0  0  0  0
 16 18  2  0  0  0  0
 16 14  1  0  0  0  0
 17 16  1  0  0  0  0
 20 19  1  0  0  0  0
 21 20  1  0  0  0  0
 22 21  1  0  0  0  0
 23 22  2  0  0  0  0
 24 23  1  0  0  0  0
 25 24  1  0  0  0  0
 26 25  1  0  0  0  0
 27 32  1  0  0  0  0
 27 26  1  0  0  0  0
 28 29  1  0  0  0  0
 30 31  1  0  0  0  0
 31 29  2  0  0  0  0
 32 30  1  0  0  0  0
 32 28  2  0  0  0  0
 33 28  1  0  0  0  0
 33 34  1  0  0  0  0
 35 36  1  0  0  0  0
 35 34  1  0  0  0  0
 36 37  1  0  0  0  0
 37 40  1  0  0  0  0
 38 42  1  0  0  0  0
 39 42  1  0  0  0  0
 40 41  1  0  0  0  0
 40 39  1  0  0  0  0
 41 38  1  0  0  0  0
 43 45  1  0  0  0  0
 43  1  1  0  0  0  0
 45 44  2  0  0  0  0
 46 45  1  0  0  0  0
 46 47  1  0  0  0  0
 49 50  2  0  0  0  0
 50 48  1  0  0  0  0
 50 47  1  0  0  0  0
M  END
>  <MODEL>
5

>  <REMARK>
 VINA RESULT:      -4.5      2.408      6.426
  Name = 
  29 active torsions:
  status: ('A' for Active; 'I' for Inactive)
    1  A    between atoms: C_2  and  N_22
    2  A    between atoms: C_2  and  C_46
    3  A    between atoms: N_3  and  C_10
    4  A    between atoms: N_3  and  N_27
    5  A    between atoms: C_5  and  C_14
    6  A    between atoms: C_10  and  C_50
    7  A    between atoms: C_11  and  C_30
    8  A    between atoms: C_11  and  C_41
    9  A    between atoms: C_12  and  C_20
   10  A    between atoms: C_13  and  C_17
   11  A    between atoms: C_13  and  C_47
   12  A    between atoms: C_14  and  C_48
   13  A    between atoms: C_15  and  C_30
   14  A    between atoms: C_15  and  C_35
   15  A    between atoms: C_17  and  C_36
   16  A    between atoms: O_18  and  C_19
   17  A    between atoms: O_18  and  C_36
   18  A    between atoms: C_19  and  C_21
   19  A    between atoms: C_19  and  C_28
   20  A    between atoms: C_20  and  N_22
   21  A    between atoms: C_21  and  C_43
   22  A    between atoms: C_26  and  N_29
   23  A    between atoms: C_26  and  C_46
   24  A    between atoms: N_27  and  C_37
   25  A    between atoms: C_28  and  C_48
   26  A    between atoms: C_32  and  C_35
   27  A    between atoms: S_33  and  N_44
   28  A    between atoms: C_37  and  C_42
   29  A    between atoms: C_43  and  C_50
                            x       y       z     vdW  Elec       q    Type
                         _______ _______ _______ _____ _____    ______ ____

>  <TORSDO>
F 29

$$$$
=
 OpenBabel11042419483D

 50 51  0  0  1  0  0  0  0  0999 V2000
  191.3750  173.3300  143.6070 C   0  0  1  0  0  3  0  0  0  0  0  0
  190.1590  174.1240  144.1140 C   0  0  1  0  0  3  0  0  0  0  0  0
  188.9750  174.0390  143.1580 C   0  0  0  0  0  1  0  0  0  0  0  0
  189.6900  173.5950  145.4690 C   0  0  0  0  0  2  0  0  0  0  0  0
  188.8750  174.1410  147.6390 F   0  0  0  0  0  0  0  0  0  0  0  0
  190.7370  175.1930  146.9150 F   0  0  0  0  0  0  0  0  0  0  0  0
  189.5110  174.6740  146.5330 C   0  0  0  0  0  0  0  0  0  0  0  0
  188.6360  175.7910  145.9840 C   0  0  0  0  0  2  0  0  0  0  0  0
  187.7560  176.3180  147.0170 N   0  0  0  0  0  2  0  0  0  0  0  0
  187.3680  177.5960  146.6050 N   0  0  0  0  0  2  0  0  0  0  0  0
  186.1270  177.4460  145.8660 C   0  0  0  0  0  2  0  0  0  0  0  0
  185.9510  179.1900  144.2640 O   0  0  0  0  0  0  0  0  0  0  0  0
  186.2780  177.9950  144.4960 C   0  0  0  0  0  0  0  0  0  0  0  0
  186.7900  177.1640  143.4510 N   0  0  0  0  0  2  0  0  0  0  0  0
  185.9530  178.5610  141.3780 O   0  0  0  0  0  0  0  0  0  0  0  0
  187.1360  177.7700  141.8640 S   0  0  0  0  0  0  0  0  0  0  0  0
  187.4280  176.4080  140.7550 C   0  0  0  0  0  1  0  0  0  0  0  0
  188.3470  178.6680  141.9050 O   0  0  0  0  0  0  0  0  0  0  0  0
  191.2330  172.9750  142.1240 C   0  0  0  0  0  2  0  0  0  0  0  0
  192.1230  173.8510  141.2620 C   0  0  0  0  0  2  0  0  0  0  0  0
  192.3190  173.1940  139.9030 C   0  0  0  0  0  2  0  0  0  0  0  0
  191.0510  173.2300  139.1090 C   0  0  0  0  0  3  0  0  0  0  0  0
  191.0030  173.7940  137.9020 C   0  0  0  0  0  3  0  0  0  0  0  0
  189.7200  173.8240  137.1420 C   0  0  0  0  0  2  0  0  0  0  0  0
  189.7910  172.9250  135.9190 C   0  0  0  0  0  2  0  0  0  0  0  0
  189.3990  171.4950  136.2620 C   0  0  0  0  0  2  0  0  0  0  0  0
  190.4920  170.5240  135.8510 C   0  0  0  0  0  2  0  0  0  0  0  0
  192.6590  170.5040  137.0960 C   0  0  0  0  0  0  0  0  0  0  0  0
  193.2200  170.0220  138.3880 C   0  0  0  0  0  3  0  0  0  0  0  0
  190.9240  169.6070  138.1730 O   0  0  0  0  0  0  0  0  0  0  0  0
  191.9910  169.4340  139.0950 C   0  0  0  0  0  3  0  0  0  0  0  0
  191.3730  170.2240  137.0200 C   0  0  0  0  0  0  0  0  0  0  0  0
  193.4720  171.1000  135.9960 C   0  0  0  0  0  2  0  0  0  0  0  0
  194.7540  171.5580  136.5130 N   0  0  0  0  0  2  0  0  0  0  0  0
  194.6420  172.9920  136.7140 C   0  0  0  0  0  2  0  0  0  0  0  0
  195.8830  173.5250  137.4130 C   0  0  0  0  0  2  0  0  0  0  0  0
  195.9530  172.9710  138.8260 C   0  0  0  0  0  2  0  0  0  0  0  0
  195.1790  175.7560  140.5300 C   0  0  0  0  0  2  0  0  0  0  0  0
  196.1130  173.6420  141.0710 C   0  0  0  0  0  2  0  0  0  0  0  0
  196.5630  173.9500  139.7160 N   0  0  0  0  0  0  0  0  0  0  0  0
  196.0160  175.2590  139.3690 C   0  0  0  0  0  2  0  0  0  0  0  0
  195.6210  174.9250  141.6980 C   0  0  0  0  0  2  0  0  0  0  0  0
  192.5480  174.1180  143.7890 O   0  0  0  0  0  0  0  0  0  0  0  0
  194.4240  172.8890  144.3640 O   0  0  0  0  0  0  0  0  0  0  0  0
  193.5730  173.7680  144.6710 C   0  0  0  0  0  0  0  0  0  0  0  0
  193.6390  174.4290  146.0030 C   0  0  0  0  0  2  0  0  0  0  0  0
  194.8810  175.2930  146.0920 C   0  0  0  0  0  2  0  0  0  0  0  0
  193.6360  177.1740  145.3530 O   0  0  0  0  0  1  0  0  0  0  0  0
  195.7140  176.9400  144.4200 O   0  0  0  0  0  0  0  0  0  0  0  0
  194.7060  176.5230  145.2780 C   0  0  0  0  0  0  0  0  0  0  0  0
  1 19  1  6  0  0  0
  1 43  1  0  0  0  0
  1  2  1  0  0  0  0
  2  3  1  6  0  0  0
  2  4  1  0  0  0  0
  4  7  1  0  0  0  0
  7  6  1  0  0  0  0
  7  5  1  0  0  0  0
  8  7  1  0  0  0  0
  8  9  1  0  0  0  0
 10  9  1  0  0  0  0
 11 10  1  0  0  0  0
 12 13  2  0  0  0  0
 13 11  1  0  0  0  0
 14 13  1  0  0  0  0
 15 16  2  0  0  0  0
 16 18  2  0  0  0  0
 16 14  1  0  0  0  0
 17 16  1  0  0  0  0
 20 19  1  0  0  0  0
 21 20  1  0  0  0  0
 22 21  1  0  0  0  0
 23 22  2  0  0  0  0
 24 23  1  0  0  0  0
 25 26  1  0  0  0  0
 25 24  1  0  0  0  0
 27 26  1  0  0  0  0
 27 32  1  0  0  0  0
 28 29  1  0  0  0  0
 29 31  2  0  0  0  0
 30 31  1  0  0  0  0
 32 28  2  0  0  0  0
 32 30  1  0  0  0  0
 33 34  1  0  0  0  0
 33 28  1  0  0  0  0
 34 35  1  0  0  0  0
 35 36  1  0  0  0  0
 36 37  1  0  0  0  0
 37 40  1  0  0  0  0
 38 42  1  0  0  0  0
 39 42  1  0  0  0  0
 40 39  1  0  0  0  0
 41 40  1  0  0  0  0
 41 38  1  0  0  0  0
 43 45  1  0  0  0  0
 44 45  2  0  0  0  0
 45 46  1  0  0  0  0
 46 47  1  0  0  0  0
 49 50  2  0  0  0  0
 50 48  1  0  0  0  0
 50 47  1  0  0  0  0
M  END
>  <MODEL>
6

>  <REMARK>
 VINA RESULT:      -4.4      3.417      6.882
  Name = 
  29 active torsions:
  status: ('A' for Active; 'I' for Inactive)
    1  A    between atoms: C_2  and  N_22
    2  A    between atoms: C_2  and  C_46
    3  A    between atoms: N_3  and  C_10
    4  A    between atoms: N_3  and  N_27
    5  A    between atoms: C_5  and  C_14
    6  A    between atoms: C_10  and  C_50
    7  A    between atoms: C_11  and  C_30
    8  A    between atoms: C_11  and  C_41
    9  A    between atoms: C_12  and  C_20
   10  A    between atoms: C_13  and  C_17
   11  A    between atoms: C_13  and  C_47
   12  A    between atoms: C_14  and  C_48
   13  A    between atoms: C_15  and  C_30
   14  A    between atoms: C_15  and  C_35
   15  A    between atoms: C_17  and  C_36
   16  A    between atoms: O_18  and  C_19
   17  A    between atoms: O_18  and  C_36
   18  A    between atoms: C_19  and  C_21
   19  A    between atoms: C_19  and  C_28
   20  A    between atoms: C_20  and  N_22
   21  A    between atoms: C_21  and  C_43
   22  A    between atoms: C_26  and  N_29
   23  A    between atoms: C_26  and  C_46
   24  A    between atoms: N_27  and  C_37
   25  A    between atoms: C_28  and  C_48
   26  A    between atoms: C_32  and  C_35
   27  A    between atoms: S_33  and  N_44
   28  A    between atoms: C_37  and  C_42
   29  A    between atoms: C_43  and  C_50
                            x       y       z     vdW  Elec       q    Type
                         _______ _______ _______ _____ _____    ______ ____

>  <TORSDO>
F 29

$$$$
=
 OpenBabel11042419483D

 50 51  0  0  1  0  0  0  0  0999 V2000
  196.1330  172.4110  142.6810 C   0  0  1  0  0  3  0  0  0  0  0  0
  195.1270  173.3480  141.9890 C   0  0  1  0  0  3  0  0  0  0  0  0
  193.7150  173.1880  142.5410 C   0  0  0  0  0  1  0  0  0  0  0  0
  195.5280  174.8110  142.1770 C   0  0  0  0  0  2  0  0  0  0  0  0
  195.0120  176.6300  140.7300 F   0  0  0  0  0  0  0  0  0  0  0  0
  197.1680  175.9750  140.8730 F   0  0  0  0  0  0  0  0  0  0  0  0
  195.8520  175.5420  140.8770 C   0  0  0  0  0  0  0  0  0  0  0  0
  195.6210  174.6090  139.6970 C   0  0  0  0  0  2  0  0  0  0  0  0
  194.4670  175.0350  138.9180 N   0  0  0  0  0  2  0  0  0  0  0  0
  194.6120  174.4770  137.6440 N   0  0  0  0  0  2  0  0  0  0  0  0
  193.3780  174.7340  136.9240 C   0  0  0  0  0  2  0  0  0  0  0  0
  192.6350  172.4990  137.2190 O   0  0  0  0  0  0  0  0  0  0  0  0
  192.3530  173.7250  137.2890 C   0  0  0  0  0  0  0  0  0  0  0  0
  191.0560  174.1520  137.7130 N   0  0  0  0  0  2  0  0  0  0  0  0
  188.8350  173.8110  139.0920 O   0  0  0  0  0  0  0  0  0  0  0  0
  189.8560  173.0450  138.2980 S   0  0  0  0  0  0  0  0  0  0  0  0
  190.6250  171.8290  139.3480 C   0  0  0  0  0  1  0  0  0  0  0  0
  189.1710  172.3640  137.1390 O   0  0  0  0  0  0  0  0  0  0  0  0
  196.8280  173.1060  143.8550 C   0  0  0  0  0  2  0  0  0  0  0  0
  196.1350  172.7930  145.1690 C   0  0  0  0  0  2  0  0  0  0  0  0
  196.3260  173.9540  146.1330 C   0  0  0  0  0  2  0  0  0  0  0  0
  195.3370  175.0430  145.8540 C   0  0  0  0  0  3  0  0  0  0  0  0
  194.0290  174.7950  145.8000 C   0  0  0  0  0  3  0  0  0  0  0  0
  193.0710  175.9000  145.5060 C   0  0  0  0  0  2  0  0  0  0  0  0
  191.8240  175.7810  146.3660 C   0  0  0  0  0  2  0  0  0  0  0  0
  190.6620  176.5570  145.7640 C   0  0  0  0  0  2  0  0  0  0  0  0
  189.4290  175.6770  145.6490 C   0  0  0  0  0  2  0  0  0  0  0  0
  189.5820  174.6190  143.3910 C   0  0  0  0  0  0  0  0  0  0  0  0
  189.8800  173.2960  142.7750 C   0  0  0  0  0  3  0  0  0  0  0  0
  190.0910  173.2920  145.1090 O   0  0  0  0  0  0  0  0  0  0  0  0
  190.2400  172.4290  143.9890 C   0  0  0  0  0  3  0  0  0  0  0  0
  189.6930  174.5520  144.7020 C   0  0  0  0  0  0  0  0  0  0  0  0
  189.0990  175.8090  142.6310 C   0  0  0  0  0  2  0  0  0  0  0  0
  187.7740  175.5520  142.0870 N   0  0  0  0  0  2  0  0  0  0  0  0
  187.2370  176.8320  141.6570 C   0  0  0  0  0  2  0  0  0  0  0  0
  187.4930  177.8940  142.7160 C   0  0  0  0  0  2  0  0  0  0  0  0
  186.1880  178.2560  143.4040 C   0  0  0  0  0  2  0  0  0  0  0  0
  184.4290  178.6550  146.2330 C   0  0  0  0  0  2  0  0  0  0  0  0
  185.8610  176.9810  145.3490 C   0  0  0  0  0  2  0  0  0  0  0  0
  186.3690  178.2560  144.8500 N   0  0  0  0  0  0  0  0  0  0  0  0
  185.5130  179.3040  145.3990 C   0  0  0  0  0  2  0  0  0  0  0  0
  184.9420  177.2720  146.5110 C   0  0  0  0  0  2  0  0  0  0  0  0
  195.4370  171.2650  143.1620 O   0  0  0  0  0  0  0  0  0  0  0  0
  195.7690  168.9990  143.5030 O   0  0  0  0  0  0  0  0  0  0  0  0
  195.6920  169.9700  142.7030 C   0  0  0  0  0  0  0  0  0  0  0  0
  195.9010  169.7480  141.2460 C   0  0  0  0  0  2  0  0  0  0  0  0
  194.9410  168.6890  140.7410 C   0  0  0  0  0  2  0  0  0  0  0  0
  193.8830  170.4320  139.5260 O   0  0  0  0  0  0  0  0  0  0  0  0
  192.5120  168.7260  140.1970 O   0  0  0  0  0  1  0  0  0  0  0  0
  193.7570  169.3300  140.1140 C   0  0  0  0  0  0  0  0  0  0  0  0
  1 43  1  0  0  0  0
  1 19  1  1  0  0  0
  2  4  1  0  0  0  0
  2  3  1  1  0  0  0
  2  1  1  0  0  0  0
  5  7  1  0  0  0  0
  6  7  1  0  0  0  0
  7  4  1  0  0  0  0
  8  7  1  0  0  0  0
  9  8  1  0  0  0  0
 10  9  1  0  0  0  0
 11 13  1  0  0  0  0
 11 10  1  0  0  0  0
 12 13  2  0  0  0  0
 13 14  1  0  0  0  0
 14 16  1  0  0  0  0
 16 15  2  0  0  0  0
 16 17  1  0  0  0  0
 18 16  2  0  0  0  0
 19 20  1  0  0  0  0
 20 21  1  0  0  0  0
 22 21  1  0  0  0  0
 23 22  2  0  0  0  0
 24 23  1  0  0  0  0
 24 25  1  0  0  0  0
 26 25  1  0  0  0  0
 27 26  1  0  0  0  0
 28 32  2  0  0  0  0
 29 28  1  0  0  0  0
 29 31  2  0  0  0  0
 31 30  1  0  0  0  0
 32 30  1  0  0  0  0
 32 27  1  0  0  0  0
 33 28  1  0  0  0  0
 34 33  1  0  0  0  0
 35 34  1  0  0  0  0
 35 36  1  0  0  0  0
 36 37  1  0  0  0  0
 37 40  1  0  0  0  0
 38 42  1  0  0  0  0
 39 42  1  0  0  0  0
 40 39  1  0  0  0  0
 40 41  1  0  0  0  0
 41 38  1  0  0  0  0
 45 43  1  0  0  0  0
 45 44  2  0  0  0  0
 46 45  1  0  0  0  0
 47 46  1  0  0  0  0
 48 50  2  0  0  0  0
 50 49  1  0  0  0  0
 50 47  1  0  0  0  0
M  END
>  <MODEL>
7

>  <REMARK>
 VINA RESULT:      -4.4      3.631      7.536
  Name = 
  29 active torsions:
  status: ('A' for Active; 'I' for Inactive)
    1  A    between atoms: C_2  and  N_22
    2  A    between atoms: C_2  and  C_46
    3  A    between atoms: N_3  and  C_10
    4  A    between atoms: N_3  and  N_27
    5  A    between atoms: C_5  and  C_14
    6  A    between atoms: C_10  and  C_50
    7  A    between atoms: C_11  and  C_30
    8  A    between atoms: C_11  and  C_41
    9  A    between atoms: C_12  and  C_20
   10  A    between atoms: C_13  and  C_17
   11  A    between atoms: C_13  and  C_47
   12  A    between atoms: C_14  and  C_48
   13  A    between atoms: C_15  and  C_30
   14  A    between atoms: C_15  and  C_35
   15  A    between atoms: C_17  and  C_36
   16  A    between atoms: O_18  and  C_19
   17  A    between atoms: O_18  and  C_36
   18  A    between atoms: C_19  and  C_21
   19  A    between atoms: C_19  and  C_28
   20  A    between atoms: C_20  and  N_22
   21  A    between atoms: C_21  and  C_43
   22  A    between atoms: C_26  and  N_29
   23  A    between atoms: C_26  and  C_46
   24  A    between atoms: N_27  and  C_37
   25  A    between atoms: C_28  and  C_48
   26  A    between atoms: C_32  and  C_35
   27  A    between atoms: S_33  and  N_44
   28  A    between atoms: C_37  and  C_42
   29  A    between atoms: C_43  and  C_50
                            x       y       z     vdW  Elec       q    Type
                         _______ _______ _______ _____ _____    ______ ____

>  <TORSDO>
F 29

$$$$
=
 OpenBabel11042419483D

 50 51  0  0  1  0  0  0  0  0999 V2000
  188.8340  175.2620  145.3650 C   0  0  1  0  0  3  0  0  0  0  0  0
  189.3150  175.0220  143.9230 C   0  0  1  0  0  3  0  0  0  0  0  0
  189.9250  176.2730  143.3020 C   0  0  0  0  0  1  0  0  0  0  0  0
  190.3790  173.9260  143.8800 C   0  0  0  0  0  2  0  0  0  0  0  0
  190.3300  171.5710  144.2360 F   0  0  0  0  0  0  0  0  0  0  0  0
  188.4760  172.5500  143.4010 F   0  0  0  0  0  0  0  0  0  0  0  0
  189.8610  172.5710  143.4040 C   0  0  0  0  0  0  0  0  0  0  0  0
  190.3760  172.2930  142.0000 C   0  0  0  0  0  2  0  0  0  0  0  0
  189.5980  173.0210  141.0080 N   0  0  0  0  0  2  0  0  0  0  0  0
  189.4520  172.1710  139.9070 N   0  0  0  0  0  2  0  0  0  0  0  0
  188.2790  172.6190  139.1770 C   0  0  0  0  0  2  0  0  0  0  0  0
  188.3550  174.6630  137.9710 O   0  0  0  0  0  0  0  0  0  0  0  0
  188.6860  173.4480  138.0150 C   0  0  0  0  0  0  0  0  0  0  0  0
  189.4450  172.8610  136.9560 N   0  0  0  0  0  2  0  0  0  0  0  0
  191.0420  174.8140  136.1900 O   0  0  0  0  0  0  0  0  0  0  0  0
  190.0840  173.7920  135.6410 S   0  0  0  0  0  0  0  0  0  0  0  0
  188.7560  174.6260  134.7970 C   0  0  0  0  0  1  0  0  0  0  0  0
  190.8200  172.8940  134.6780 O   0  0  0  0  0  0  0  0  0  0  0  0
  189.9020  174.8550  146.3850 C   0  0  0  0  0  2  0  0  0  0  0  0
  191.0270  175.8720  146.4390 C   0  0  0  0  0  2  0  0  0  0  0  0
  192.2940  175.2010  146.9480 C   0  0  0  0  0  2  0  0  0  0  0  0
  193.3540  175.1980  145.8900 C   0  0  0  0  0  3  0  0  0  0  0  0
  194.6010  175.5840  146.1560 C   0  0  0  0  0  3  0  0  0  0  0  0
  195.6300  175.5810  145.0770 C   0  0  0  0  0  2  0  0  0  0  0  0
  195.0060  175.9050  143.7300 C   0  0  0  0  0  2  0  0  0  0  0  0
  195.5790  175.0250  142.6290 C   0  0  0  0  0  2  0  0  0  0  0  0
  194.8470  175.2550  141.3190 C   0  0  0  0  0  2  0  0  0  0  0  0
  195.7420  173.7340  139.5510 C   0  0  0  0  0  0  0  0  0  0  0  0
  196.7830  173.7220  138.4850 C   0  0  0  0  0  3  0  0  0  0  0  0
  196.6550  175.7670  139.6210 O   0  0  0  0  0  0  0  0  0  0  0  0
  197.3650  175.1400  138.5610 C   0  0  0  0  0  3  0  0  0  0  0  0
  195.7320  174.8970  140.1700 C   0  0  0  0  0  0  0  0  0  0  0  0
  194.9250  172.5480  139.9400 C   0  0  0  0  0  2  0  0  0  0  0  0
  195.6710  171.3230  139.6920 N   0  0  0  0  0  2  0  0  0  0  0  0
  195.9300  170.7160  140.9870 C   0  0  0  0  0  2  0  0  0  0  0  0
  194.9880  171.2890  142.0360 C   0  0  0  0  0  2  0  0  0  0  0  0
  194.0610  170.1970  142.5430 C   0  0  0  0  0  2  0  0  0  0  0  0
  194.5950  170.2490  145.8550 C   0  0  0  0  0  2  0  0  0  0  0  0
  194.0640  171.8630  144.1970 C   0  0  0  0  0  2  0  0  0  0  0  0
  193.4170  170.6230  143.7780 N   0  0  0  0  0  0  0  0  0  0  0  0
  193.7150  169.6180  144.7960 C   0  0  0  0  0  2  0  0  0  0  0  0
  194.4240  171.7260  145.6570 C   0  0  0  0  0  2  0  0  0  0  0  0
  188.5370  176.6460  145.5260 O   0  0  0  0  0  0  0  0  0  0  0  0
  187.0790  177.1510  147.2520 O   0  0  0  0  0  0  0  0  0  0  0  0
  187.3130  177.1120  146.0140 C   0  0  0  0  0  0  0  0  0  0  0  0
  186.2660  177.5400  145.0470 C   0  0  0  0  0  2  0  0  0  0  0  0
  186.9060  178.2480  143.8700 C   0  0  0  0  0  2  0  0  0  0  0  0
  186.3550  178.2650  141.5620 O   0  0  0  0  0  0  0  0  0  0  0  0
  186.3160  176.2090  142.5680 O   0  0  0  0  0  1  0  0  0  0  0  0
  186.5190  177.5810  142.6010 C   0  0  0  0  0  0  0  0  0  0  0  0
  1 43  1  0  0  0  0
  1 19  1  1  0  0  0
  2  3  1  1  0  0  0
  2  1  1  0  0  0  0
  4  2  1  0  0  0  0
  6  7  1  0  0  0  0
  7  4  1  0  0  0  0
  7  5  1  0  0  0  0
  8  7  1  0  0  0  0
  9  8  1  0  0  0  0
 10  9  1  0  0  0  0
 11 10  1  0  0  0  0
 12 13  2  0  0  0  0
 13 11  1  0  0  0  0
 14 13  1  0  0  0  0
 16 15  2  0  0  0  0
 16 14  1  0  0  0  0
 17 16  1  0  0  0  0
 18 16  2  0  0  0  0
 19 20  1  0  0  0  0
 20 21  1  0  0  0  0
 22 23  2  0  0  0  0
 22 21  1  0  0  0  0
 24 23  1  0  0  0  0
 25 24  1  0  0  0  0
 26 25  1  0  0  0  0
 27 26  1  0  0  0  0
 28 33  1  0  0  0  0
 28 32  2  0  0  0  0
 29 31  2  0  0  0  0
 29 28  1  0  0  0  0
 30 32  1  0  0  0  0
 31 30  1  0  0  0  0
 32 27  1  0  0  0  0
 34 33  1  0  0  0  0
 34 35  1  0  0  0  0
 35 36  1  0  0  0  0
 36 37  1  0  0  0  0
 37 40  1  0  0  0  0
 39 42  1  0  0  0  0
 40 39  1  0  0  0  0
 40 41  1  0  0  0  0
 41 38  1  0  0  0  0
 42 38  1  0  0  0  0
 43 45  1  0  0  0  0
 45 44  2  0  0  0  0
 46 45  1  0  0  0  0
 47 46  1  0  0  0  0
 48 50  2  0  0  0  0
 49 50  1  0  0  0  0
 50 47  1  0  0  0  0
M  END
>  <MODEL>
8

>  <REMARK>
 VINA RESULT:      -4.3      3.612      7.537
  Name = 
  29 active torsions:
  status: ('A' for Active; 'I' for Inactive)
    1  A    between atoms: C_2  and  N_22
    2  A    between atoms: C_2  and  C_46
    3  A    between atoms: N_3  and  C_10
    4  A    between atoms: N_3  and  N_27
    5  A    between atoms: C_5  and  C_14
    6  A    between atoms: C_10  and  C_50
    7  A    between atoms: C_11  and  C_30
    8  A    between atoms: C_11  and  C_41
    9  A    between atoms: C_12  and  C_20
   10  A    between atoms: C_13  and  C_17
   11  A    between atoms: C_13  and  C_47
   12  A    between atoms: C_14  and  C_48
   13  A    between atoms: C_15  and  C_30
   14  A    between atoms: C_15  and  C_35
   15  A    between atoms: C_17  and  C_36
   16  A    between atoms: O_18  and  C_19
   17  A    between atoms: O_18  and  C_36
   18  A    between atoms: C_19  and  C_21
   19  A    between atoms: C_19  and  C_28
   20  A    between atoms: C_20  and  N_22
   21  A    between atoms: C_21  and  C_43
   22  A    between atoms: C_26  and  N_29
   23  A    between atoms: C_26  and  C_46
   24  A    between atoms: N_27  and  C_37
   25  A    between atoms: C_28  and  C_48
   26  A    between atoms: C_32  and  C_35
   27  A    between atoms: S_33  and  N_44
   28  A    between atoms: C_37  and  C_42
   29  A    between atoms: C_43  and  C_50
                            x       y       z     vdW  Elec       q    Type
                         _______ _______ _______ _____ _____    ______ ____

>  <TORSDO>
F 29

$$$$
=
 OpenBabel11042419483D

 50 51  0  0  1  0  0  0  0  0999 V2000
  189.7930  175.8370  142.9640 C   0  0  1  0  0  3  0  0  0  0  0  0
  188.3210  175.3980  142.8780 C   0  0  1  0  0  3  0  0  0  0  0  0
  187.5670  175.6470  144.1800 C   0  0  0  0  0  1  0  0  0  0  0  0
  187.5900  176.1620  141.7750 C   0  0  0  0  0  2  0  0  0  0  0  0
  187.9860  177.9910  143.2480 F   0  0  0  0  0  0  0  0  0  0  0  0
  188.4320  178.2870  141.0560 F   0  0  0  0  0  0  0  0  0  0  0  0
  187.5830  177.6770  141.9640 C   0  0  0  0  0  0  0  0  0  0  0  0
  186.1700  178.2080  141.7740 C   0  0  0  0  0  2  0  0  0  0  0  0
  185.2310  177.5080  142.6400 N   0  0  0  0  0  2  0  0  0  0  0  0
  184.1700  178.3860  142.8780 N   0  0  0  0  0  2  0  0  0  0  0  0
  184.6800  179.4500  143.7240 C   0  0  0  0  0  2  0  0  0  0  0  0
  183.9470  178.6920  145.8510 O   0  0  0  0  0  0  0  0  0  0  0  0
  184.9250  178.9390  145.0960 C   0  0  0  0  0  0  0  0  0  0  0  0
  186.2650  178.7350  145.5490 N   0  0  0  0  0  2  0  0  0  0  0  0
  185.7560  176.7940  147.2580 O   0  0  0  0  0  0  0  0  0  0  0  0
  186.6310  178.0030  147.0780 S   0  0  0  0  0  0  0  0  0  0  0  0
  186.3060  179.1640  148.3890 C   0  0  0  0  0  1  0  0  0  0  0  0
  188.0770  177.5770  147.1150 O   0  0  0  0  0  0  0  0  0  0  0  0
  190.4340  175.3890  144.2810 C   0  0  0  0  0  2  0  0  0  0  0  0
  190.9320  176.5780  145.0830 C   0  0  0  0  0  2  0  0  0  0  0  0
  191.1640  176.1550  146.5270 C   0  0  0  0  0  2  0  0  0  0  0  0
  192.6160  175.8880  146.7740 C   0  0  0  0  0  3  0  0  0  0  0  0
  193.5350  176.1300  145.8400 C   0  0  0  0  0  3  0  0  0  0  0  0
  194.9720  175.8390  146.1140 C   0  0  0  0  0  2  0  0  0  0  0  0
  195.2840  174.3700  145.8820 C   0  0  0  0  0  2  0  0  0  0  0  0
  194.9050  173.9420  144.4720 C   0  0  0  0  0  2  0  0  0  0  0  0
  196.1470  173.6700  143.6410 C   0  0  0  0  0  2  0  0  0  0  0  0
  195.5840  173.4840  141.2130 C   0  0  0  0  0  0  0  0  0  0  0  0
  195.5450  174.3320  139.9890 C   0  0  0  0  0  3  0  0  0  0  0  0
  196.1630  175.5210  141.9110 O   0  0  0  0  0  0  0  0  0  0  0  0
  195.9300  175.7180  140.5230 C   0  0  0  0  0  3  0  0  0  0  0  0
  195.9590  174.1980  142.2560 C   0  0  0  0  0  0  0  0  0  0  0  0
  195.3560  172.0100  141.2220 C   0  0  0  0  0  2  0  0  0  0  0  0
  195.6190  171.4550  139.9020 N   0  0  0  0  0  2  0  0  0  0  0  0
  194.8640  170.2170  139.8050 C   0  0  0  0  0  2  0  0  0  0  0  0
  193.3920  170.5160  139.5650 C   0  0  0  0  0  2  0  0  0  0  0  0
  192.7280  169.3210  138.9020 C   0  0  0  0  0  2  0  0  0  0  0  0
  189.6890  170.5820  138.2450 C   0  0  0  0  0  2  0  0  0  0  0  0
  191.9270  171.2230  137.7820 C   0  0  0  0  0  2  0  0  0  0  0  0
  191.9140  169.7630  137.7770 N   0  0  0  0  0  0  0  0  0  0  0  0
  190.5390  169.3450  138.0410 C   0  0  0  0  0  2  0  0  0  0  0  0
  190.5000  171.6990  137.6560 C   0  0  0  0  0  2  0  0  0  0  0  0
  190.5090  175.2610  141.8760 O   0  0  0  0  0  0  0  0  0  0  0  0
  192.8030  175.4670  142.1180 O   0  0  0  0  0  0  0  0  0  0  0  0
  191.7910  174.7220  142.0060 C   0  0  0  0  0  0  0  0  0  0  0  0
  191.9590  173.2440  141.9850 C   0  0  0  0  0  2  0  0  0  0  0  0
  190.7940  172.6000  141.2590 C   0  0  0  0  0  2  0  0  0  0  0  0
  189.3060  171.9900  143.0040 O   0  0  0  0  0  1  0  0  0  0  0  0
  190.4370  170.2580  142.0240 O   0  0  0  0  0  0  0  0  0  0  0  0
  190.1300  171.6060  142.1400 C   0  0  0  0  0  0  0  0  0  0  0  0
  1 19  1  1  0  0  0
  2  1  1  0  0  0  0
  2  3  1  1  0  0  0
  4  7  1  0  0  0  0
  4  2  1  0  0  0  0
  6  7  1  0  0  0  0
  7  5  1  0  0  0  0
  8  7  1  0  0  0  0
  8  9  1  0  0  0  0
  9 10  1  0  0  0  0
 10 11  1  0  0  0  0
 11 13  1  0  0  0  0
 13 14  1  0  0  0  0
 13 12  2  0  0  0  0
 14 16  1  0  0  0  0
 16 18  2  0  0  0  0
 16 15  2  0  0  0  0
 16 17  1  0  0  0  0
 19 20  1  0  0  0  0
 20 21  1  0  0  0  0
 21 22  1  0  0  0  0
 23 24  1  0  0  0  0
 23 22  2  0  0  0  0
 25 24  1  0  0  0  0
 26 25  1  0  0  0  0
 27 26  1  0  0  0  0
 28 33  1  0  0  0  0
 28 32  2  0  0  0  0
 29 31  2  0  0  0  0
 29 28  1  0  0  0  0
 30 32  1  0  0  0  0
 31 30  1  0  0  0  0
 32 27  1  0  0  0  0
 34 33  1  0  0  0  0
 35 34  1  0  0  0  0
 36 35  1  0  0  0  0
 37 36  1  0  0  0  0
 40 39  1  0  0  0  0
 40 41  1  0  0  0  0
 40 37  1  0  0  0  0
 41 38  1  0  0  0  0
 42 39  1  0  0  0  0
 42 38  1  0  0  0  0
 43 45  1  0  0  0  0
 43  1  1  0  0  0  0
 45 44  2  0  0  0  0
 46 45  1  0  0  0  0
 47 46  1  0  0  0  0
 47 50  1  0  0  0  0
 49 50  2  0  0  0  0
 50 48  1  0  0  0  0
M  END
>  <MODEL>
9

>  <REMARK>
 VINA RESULT:      -4.3      2.597      5.691
  Name = 
  29 active torsions:
  status: ('A' for Active; 'I' for Inactive)
    1  A    between atoms: C_2  and  N_22
    2  A    between atoms: C_2  and  C_46
    3  A    between atoms: N_3  and  C_10
    4  A    between atoms: N_3  and  N_27
    5  A    between atoms: C_5  and  C_14
    6  A    between atoms: C_10  and  C_50
    7  A    between atoms: C_11  and  C_30
    8  A    between atoms: C_11  and  C_41
    9  A    between atoms: C_12  and  C_20
   10  A    between atoms: C_13  and  C_17
   11  A    between atoms: C_13  and  C_47
   12  A    between atoms: C_14  and  C_48
   13  A    between atoms: C_15  and  C_30
   14  A    between atoms: C_15  and  C_35
   15  A    between atoms: C_17  and  C_36
   16  A    between atoms: O_18  and  C_19
   17  A    between atoms: O_18  and  C_36
   18  A    between atoms: C_19  and  C_21
   19  A    between atoms: C_19  and  C_28
   20  A    between atoms: C_20  and  N_22
   21  A    between atoms: C_21  and  C_43
   22  A    between atoms: C_26  and  N_29
   23  A    between atoms: C_26  and  C_46
   24  A    between atoms: N_27  and  C_37
   25  A    between atoms: C_28  and  C_48
   26  A    between atoms: C_32  and  C_35
   27  A    between atoms: S_33  and  N_44
   28  A    between atoms: C_37  and  C_42
   29  A    between atoms: C_43  and  C_50
                            x       y       z     vdW  Elec       q    Type
                         _______ _______ _______ _____ _____    ______ ____

>  <TORSDO>
F 29

$$$$
