=
 OpenBabel11042415023D

 33 37  0  0  1  0  0  0  0  0999 V2000
  192.3230  174.1880  140.9410 C   0  0  0  0  0  3  0  0  0  0  0  0
  188.7990  174.4500  143.2190 C   0  0  0  0  0  3  0  0  0  0  0  0
  188.7380  174.0250  141.8870 C   0  0  0  0  0  3  0  0  0  0  0  0
  192.6340  175.0790  143.9500 S   0  0  2  0  0  0  0  0  0  0  0  0
  189.9030  173.9540  141.1120 C   0  0  0  0  0  0  0  0  0  0  0  0
  190.0230  174.8340  143.7800 C   0  0  0  0  0  0  0  0  0  0  0  0
  189.4260  176.5340  145.6300 C   0  0  1  0  0  3  0  0  0  0  0  0
  191.1850  174.7120  143.0350 C   0  0  0  0  0  0  0  0  0  0  0  0
  189.3780  176.7250  147.1540 C   0  0  0  0  0  2  0  0  0  0  0  0
  191.0370  173.4620  139.0250 C   0  0  0  0  0  3  0  0  0  0  0  0
  189.8460  173.5460  139.7670 C   0  0  0  0  0  0  0  0  0  0  0  0
  191.1510  174.2830  141.6980 C   0  0  0  0  0  0  0  0  0  0  0  0
  190.9990  177.1310  147.8840 S   0  0  0  0  0  0  0  0  0  0  0  0
  192.2740  174.9660  146.6830 C   0  0  0  0  0  2  0  0  0  0  0  0
  191.6990  175.5690  145.4070 C   0  0  2  0  0  3  0  0  0  0  0  0
  191.4900  175.3750  147.9290 C   0  0  0  0  0  2  0  0  0  0  0  0
  192.2640  173.7770  139.6090 C   0  0  0  0  0  3  0  0  0  0  0  0
  193.0910  176.4150  143.3790 O   0  0  0  0  0  0  0  0  0  0  0  0
  190.2030  175.2630  145.2170 C   0  0  2  0  0  3  0  0  0  0  0  0
  188.1470  173.8670  137.9920 C   0  0  0  0  0  1  0  0  0  0  0  0
  188.6110  173.2390  139.1810 O   0  0  0  0  0  0  0  0  0  0  0  0
  188.0260  176.6570  144.9980 C   0  0  1  0  0  3  0  0  0  0  0  0
  186.8850  176.5710  146.0070 C   0  0  0  0  0  2  0  0  0  0  0  0
  186.1660  177.9030  146.1530 C   0  0  2  0  0  3  0  0  0  0  0  0
  186.3420  178.4450  147.5600 C   0  0  0  0  0  1  0  0  0  0  0  0
  184.1390  178.8370  145.3050 O   0  0  0  0  0  1  0  0  0  0  0  0
  184.6920  177.6890  145.8740 C   0  0  0  0  0  2  0  0  0  0  0  0
  187.9140  177.9330  144.1720 C   0  0  0  0  0  2  0  0  0  0  0  0
  187.5840  177.6020  142.7230 C   0  0  2  0  0  3  0  0  0  0  0  0
  185.8580  178.2130  141.9070 C   0  0  2  0  0  3  0  0  0  0  0  0
  187.1470  178.7580  142.0550 O   0  0  0  0  0  0  0  0  0  0  0  0
  186.2340  176.9440  142.6120 C   0  0  0  0  0  2  0  0  0  0  0  0
  185.5710  177.9500  140.4380 C   0  0  0  0  0  1  0  0  0  0  0  0
  1 12  1  0  0  0  0
  2  6  1  0  0  0  0
  3  2  2  0  0  0  0
  4 18  2  6  0  0  0
  4 15  1  0  0  0  0
  5 12  2  0  0  0  0
  5  3  1  0  0  0  0
  7 22  1  1  0  0  0
  7  9  1  0  0  0  0
  8  6  2  0  0  0  0
  8  4  1  0  0  0  0
  9 13  1  0  0  0  0
 10 17  1  0  0  0  0
 10 11  2  0  0  0  0
 11  5  1  0  0  0  0
 12  8  1  0  0  0  0
 13 16  1  0  0  0  0
 14 16  1  0  0  0  0
 15 14  1  1  0  0  0
 17  1  2  0  0  0  0
 19  6  1  6  0  0  0
 19 15  1  0  0  0  0
 19  7  1  0  0  0  0
 20 21  1  0  0  0  0
 21 11  1  0  0  0  0
 22 28  1  1  0  0  0
 22 23  1  0  0  0  0
 23 24  1  0  0  0  0
 24 25  1  1  0  0  0
 26 27  1  0  0  0  0
 27 24  1  0  0  0  0
 29 28  1  1  0  0  0
 30 33  1  6  0  0  0
 30 31  1  0  0  0  0
 30 32  1  0  0  0  0
 31 29  1  0  0  0  0
 32 29  1  0  0  0  0
M  END
>  <MODEL>
1

>  <REMARK>
 VINA RESULT:      -7.3      0.000      0.000
  Name = 
  7 active torsions:
  status: ('A' for Active; 'I' for Inactive)
    1  A    between atoms: C_4  and  C_7
    2  A    between atoms: C_4  and  C_10
    3  A    between atoms: C_8  and  C_23
    4  A    between atoms: C_10  and  C_24
    5  A    between atoms: O_16  and  C_22
    6  A    between atoms: C_18  and  C_24
    7  A    between atoms: C_23  and  C_24
                            x       y       z     vdW  Elec       q    Type
                         _______ _______ _______ _____ _____    ______ ____

>  <TORSDO>
F 7

$$$$
=
 OpenBabel11042415023D

 33 37  0  0  1  0  0  0  0  0999 V2000
  185.5360  178.1370  143.7730 C   0  0  0  0  0  3  0  0  0  0  0  0
  189.4690  177.0160  142.7920 C   0  0  0  0  0  3  0  0  0  0  0  0
  188.5590  177.3280  141.7760 C   0  0  0  0  0  3  0  0  0  0  0  0
  187.4920  177.5480  146.1750 S   0  0  2  0  0  0  0  0  0  0  0  0
  187.2390  177.6820  142.0890 C   0  0  0  0  0  0  0  0  0  0  0  0
  189.0600  177.0300  144.1310 C   0  0  0  0  0  0  0  0  0  0  0  0
  190.5990  175.3410  145.3350 C   0  0  1  0  0  3  0  0  0  0  0  0
  187.7730  177.4330  144.4490 C   0  0  0  0  0  0  0  0  0  0  0  0
  191.7580  175.2340  146.3390 C   0  0  0  0  0  2  0  0  0  0  0  0
  185.0060  178.3530  141.4230 C   0  0  0  0  0  3  0  0  0  0  0  0
  186.3140  177.9780  141.0720 C   0  0  0  0  0  0  0  0  0  0  0  0
  186.8430  177.7560  143.4490 C   0  0  0  0  0  0  0  0  0  0  0  0
  191.2220  175.3500  148.0780 S   0  0  0  0  0  0  0  0  0  0  0  0
  189.8090  177.7140  147.6640 C   0  0  0  0  0  2  0  0  0  0  0  0
  189.1220  176.8990  146.5760 C   0  0  2  0  0  3  0  0  0  0  0  0
  191.1950  177.1730  148.0140 C   0  0  0  0  0  2  0  0  0  0  0  0
  184.6230  178.4350  142.7620 C   0  0  0  0  0  3  0  0  0  0  0  0
  186.5780  176.3670  146.4700 O   0  0  0  0  0  0  0  0  0  0  0  0
  189.9740  176.7550  145.3020 C   0  0  2  0  0  3  0  0  0  0  0  0
  186.3590  176.7760  138.9050 C   0  0  0  0  0  1  0  0  0  0  0  0
  186.7000  177.8850  139.7280 O   0  0  0  0  0  0  0  0  0  0  0  0
  190.9930  174.7880  143.9520 C   0  0  1  0  0  3  0  0  0  0  0  0
  192.4960  174.5950  143.7710 C   0  0  0  0  0  2  0  0  0  0  0  0
  193.1130  175.7300  142.9690 C   0  0  2  0  0  3  0  0  0  0  0  0
  193.2890  175.3150  141.5190 C   0  0  0  0  0  1  0  0  0  0  0  0
  194.3020  176.8210  144.7290 O   0  0  0  0  0  1  0  0  0  0  0  0
  194.4640  176.0630  143.5680 C   0  0  0  0  0  2  0  0  0  0  0  0
  190.2480  173.4930  143.6540 C   0  0  0  0  0  2  0  0  0  0  0  0
  189.2660  173.6950  142.5090 C   0  0  2  0  0  3  0  0  0  0  0  0
  189.3330  172.5150  140.8890 C   0  0  2  0  0  3  0  0  0  0  0  0
  188.6950  172.4640  142.1430 O   0  0  0  0  0  0  0  0  0  0  0  0
  189.9870  173.8300  141.1930 C   0  0  0  0  0  2  0  0  0  0  0  0
  188.2970  172.6700  139.7870 C   0  0  0  0  0  1  0  0  0  0  0  0
  2  6  1  0  0  0  0
  3  5  1  0  0  0  0
  3  2  2  0  0  0  0
  4 18  2  1  0  0  0
  4 15  1  0  0  0  0
  5 12  2  0  0  0  0
  6  8  2  0  0  0  0
  7 22  1  6  0  0  0
  7  9  1  0  0  0  0
  8  4  1  0  0  0  0
  9 13  1  0  0  0  0
 10 17  1  0  0  0  0
 11 10  2  0  0  0  0
 11  5  1  0  0  0  0
 12  1  1  0  0  0  0
 12  8  1  0  0  0  0
 14 16  1  0  0  0  0
 15 14  1  1  0  0  0
 16 13  1  0  0  0  0
 17  1  2  0  0  0  0
 19  6  1  6  0  0  0
 19  7  1  0  0  0  0
 19 15  1  0  0  0  0
 20 21  1  0  0  0  0
 21 11  1  0  0  0  0
 22 28  1  1  0  0  0
 23 22  1  0  0  0  0
 24 25  1  6  0  0  0
 24 27  1  0  0  0  0
 24 23  1  0  0  0  0
 27 26  1  0  0  0  0
 29 28  1  1  0  0  0
 30 33  1  6  0  0  0
 30 32  1  0  0  0  0
 30 31  1  0  0  0  0
 31 29  1  0  0  0  0
 32 29  1  0  0  0  0
M  END
>  <MODEL>
2

>  <REMARK>
 VINA RESULT:      -6.9      1.905      5.897
  Name = 
  7 active torsions:
  status: ('A' for Active; 'I' for Inactive)
    1  A    between atoms: C_4  and  C_7
    2  A    between atoms: C_4  and  C_10
    3  A    between atoms: C_8  and  C_23
    4  A    between atoms: C_10  and  C_24
    5  A    between atoms: O_16  and  C_22
    6  A    between atoms: C_18  and  C_24
    7  A    between atoms: C_23  and  C_24
                            x       y       z     vdW  Elec       q    Type
                         _______ _______ _______ _____ _____    ______ ____

>  <TORSDO>
F 7

$$$$
=
 OpenBabel11042415023D

 33 37  0  0  1  0  0  0  0  0999 V2000
  187.6120  177.4370  145.8720 C   0  0  0  0  0  3  0  0  0  0  0  0
  190.5410  177.3790  142.8550 C   0  0  0  0  0  3  0  0  0  0  0  0
  189.2430  177.8100  142.5580 C   0  0  0  0  0  3  0  0  0  0  0  0
  190.5100  176.5240  146.7160 S   0  0  2  0  0  0  0  0  0  0  0  0
  188.2530  177.8130  143.5500 C   0  0  0  0  0  0  0  0  0  0  0  0
  190.8540  176.9230  144.1410 C   0  0  0  0  0  0  0  0  0  0  0  0
  192.8020  175.2580  143.8220 C   0  0  1  0  0  3  0  0  0  0  0  0
  189.8940  176.9770  145.1390 C   0  0  0  0  0  0  0  0  0  0  0  0
  194.3080  175.0670  144.0640 C   0  0  0  0  0  2  0  0  0  0  0  0
  185.9800  178.2400  144.2780 C   0  0  0  0  0  3  0  0  0  0  0  0
  186.9410  178.2260  143.2540 C   0  0  0  0  0  0  0  0  0  0  0  0
  188.5860  177.4100  144.8680 C   0  0  0  0  0  0  0  0  0  0  0  0
  194.7090  174.5650  145.7700 S   0  0  0  0  0  0  0  0  0  0  0  0
  193.2590  176.6530  146.9080 C   0  0  0  0  0  2  0  0  0  0  0  0
  192.1270  176.0870  146.0590 C   0  0  2  0  0  3  0  0  0  0  0  0
  194.6390  176.2890  146.3620 C   0  0  0  0  0  2  0  0  0  0  0  0
  186.3140  177.8520  145.5760 C   0  0  0  0  0  3  0  0  0  0  0  0
  189.8740  175.1640  146.9730 O   0  0  0  0  0  0  0  0  0  0  0  0
  192.2320  176.4810  144.5750 C   0  0  2  0  0  3  0  0  0  0  0  0
  185.4130  178.1780  141.3050 C   0  0  0  0  0  1  0  0  0  0  0  0
  186.6070  178.6060  141.9470 O   0  0  0  0  0  0  0  0  0  0  0  0
  192.4590  175.2180  142.3210 C   0  0  1  0  0  3  0  0  0  0  0  0
  193.6390  175.5420  141.4100 C   0  0  0  0  0  2  0  0  0  0  0  0
  193.9190  174.4110  140.4330 C   0  0  2  0  0  3  0  0  0  0  0  0
  195.2920  173.8180  140.6930 C   0  0  0  0  0  1  0  0  0  0  0  0
  192.8300  174.3620  138.3090 O   0  0  0  0  0  1  0  0  0  0  0  0
  193.8650  174.9660  139.0240 C   0  0  0  0  0  2  0  0  0  0  0  0
  191.8430  173.8780  141.9400 C   0  0  0  0  0  2  0  0  0  0  0  0
  190.3990  173.8010  142.4170 C   0  0  2  0  0  3  0  0  0  0  0  0
  189.0140  172.8510  141.3220 C   0  0  2  0  0  3  0  0  0  0  0  0
  189.9320  172.4790  142.3220 O   0  0  0  0  0  0  0  0  0  0  0  0
  189.4500  174.2850  141.3520 C   0  0  0  0  0  2  0  0  0  0  0  0
  187.5930  172.7070  141.8430 C   0  0  0  0  0  1  0  0  0  0  0  0
  2  6  1  0  0  0  0
  3  2  2  0  0  0  0
  3  5  1  0  0  0  0
  4 18  2  6  0  0  0
  5 12  1  0  0  0  0
  6  8  2  0  0  0  0
  7 22  1  6  0  0  0
  7  9  1  0  0  0  0
  7 19  1  0  0  0  0
  8  4  1  0  0  0  0
  9 13  1  0  0  0  0
 10 17  2  0  0  0  0
 11  5  2  0  0  0  0
 11 10  1  0  0  0  0
 12  8  1  0  0  0  0
 12  1  2  0  0  0  0
 13 16  1  0  0  0  0
 15  4  1  0  0  0  0
 15 14  1  1  0  0  0
 16 14  1  0  0  0  0
 17  1  1  0  0  0  0
 19  6  1  6  0  0  0
 19 15  1  0  0  0  0
 20 21  1  0  0  0  0
 21 11  1  0  0  0  0
 22 23  1  6  0  0  0
 24 25  1  1  0  0  0
 24 23  1  0  0  0  0
 26 27  1  0  0  0  0
 27 24  1  0  0  0  0
 28 22  1  0  0  0  0
 29 28  1  6  0  0  0
 30 32  1  0  0  0  0
 30 33  1  1  0  0  0
 30 31  1  0  0  0  0
 31 29  1  0  0  0  0
 32 29  1  0  0  0  0
M  END
>  <MODEL>
3

>  <REMARK>
 VINA RESULT:      -6.9      2.107      6.528
  Name = 
  7 active torsions:
  status: ('A' for Active; 'I' for Inactive)
    1  A    between atoms: C_4  and  C_7
    2  A    between atoms: C_4  and  C_10
    3  A    between atoms: C_8  and  C_23
    4  A    between atoms: C_10  and  C_24
    5  A    between atoms: O_16  and  C_22
    6  A    between atoms: C_18  and  C_24
    7  A    between atoms: C_23  and  C_24
                            x       y       z     vdW  Elec       q    Type
                         _______ _______ _______ _____ _____    ______ ____

>  <TORSDO>
F 7

$$$$
=
 OpenBabel11042415023D

 33 37  0  0  1  0  0  0  0  0999 V2000
  185.7030  177.1890  142.5750 C   0  0  0  0  0  3  0  0  0  0  0  0
  188.8800  176.3160  145.1890 C   0  0  0  0  0  3  0  0  0  0  0  0
  188.0000  177.3630  145.4870 C   0  0  0  0  0  3  0  0  0  0  0  0
  187.5470  174.7470  141.8130 S   0  0  2  0  0  0  0  0  0  0  0  0
  186.9500  177.6770  144.6120 C   0  0  0  0  0  0  0  0  0  0  0  0
  188.7330  175.5900  144.0010 C   0  0  0  0  0  0  0  0  0  0  0  0
  191.1000  174.7330  143.4260 C   0  0  1  0  0  3  0  0  0  0  0  0
  187.6640  175.8600  143.1610 C   0  0  0  0  0  0  0  0  0  0  0  0
  191.9660  173.4640  143.3630 C   0  0  0  0  0  2  0  0  0  0  0  0
  185.0180  179.0130  144.0090 C   0  0  0  0  0  3  0  0  0  0  0  0
  186.0740  178.7410  144.8950 C   0  0  0  0  0  0  0  0  0  0  0  0
  186.7650  176.9020  143.4400 C   0  0  0  0  0  0  0  0  0  0  0  0
  191.6950  172.4780  141.8530 S   0  0  0  0  0  0  0  0  0  0  0  0
  188.9330  172.3930  142.1980 C   0  0  0  0  0  2  0  0  0  0  0  0
  189.0770  173.9090  142.2530 C   0  0  2  0  0  3  0  0  0  0  0  0
  190.2260  171.6680  142.5690 C   0  0  0  0  0  2  0  0  0  0  0  0
  184.8330  178.2410  142.8620 C   0  0  0  0  0  3  0  0  0  0  0  0
  187.9590  175.5910  140.6140 O   0  0  0  0  0  0  0  0  0  0  0  0
  189.5980  174.4150  143.6100 C   0  0  2  0  0  3  0  0  0  0  0  0
  185.6660  179.2090  147.2940 C   0  0  0  0  0  1  0  0  0  0  0  0
  186.2690  179.5200  146.0440 O   0  0  0  0  0  0  0  0  0  0  0  0
  191.6620  175.7540  144.4330 C   0  0  1  0  0  3  0  0  0  0  0  0
  192.1190  175.1340  145.7500 C   0  0  0  0  0  2  0  0  0  0  0  0
  191.9340  176.0940  146.9140 C   0  0  2  0  0  3  0  0  0  0  0  0
  193.2720  176.6790  147.3320 C   0  0  0  0  0  1  0  0  0  0  0  0
  190.0510  174.8830  147.7440 O   0  0  0  0  0  1  0  0  0  0  0  0
  191.3310  175.3310  148.0760 C   0  0  0  0  0  2  0  0  0  0  0  0
  192.7880  176.5690  143.8080 C   0  0  0  0  0  2  0  0  0  0  0  0
  194.1040  175.8090  143.8870 C   0  0  2  0  0  3  0  0  0  0  0  0
  195.7950  176.6240  143.1830 C   0  0  2  0  0  3  0  0  0  0  0  0
  195.1080  176.6400  144.4110 O   0  0  0  0  0  0  0  0  0  0  0  0
  194.7710  175.7380  142.5380 C   0  0  0  0  0  2  0  0  0  0  0  0
  197.1190  175.8940  143.3400 C   0  0  0  0  0  1  0  0  0  0  0  0
  1 17  2  0  0  0  0
  1 12  1  0  0  0  0
  2  3  1  0  0  0  0
  4 18  2  6  0  0  0
  4 15  1  0  0  0  0
  4  8  1  0  0  0  0
  5 11  1  0  0  0  0
  5  3  2  0  0  0  0
  6  2  2  0  0  0  0
  7 19  1  0  0  0  0
  7 22  1  1  0  0  0
  8 12  2  0  0  0  0
  8  6  1  0  0  0  0
  9  7  1  0  0  0  0
 10 11  2  0  0  0  0
 11 21  1  0  0  0  0
 12  5  1  0  0  0  0
 13 16  1  0  0  0  0
 13  9  1  0  0  0  0
 14 16  1  0  0  0  0
 15 14  1  1  0  0  0
 15 19  1  0  0  0  0
 17 10  1  0  0  0  0
 19  6  1  6  0  0  0
 21 20  1  0  0  0  0
 22 28  1  6  0  0  0
 22 23  1  0  0  0  0
 23 24  1  0  0  0  0
 24 25  1  1  0  0  0
 24 27  1  0  0  0  0
 26 27  1  0  0  0  0
 29 28  1  6  0  0  0
 29 31  1  0  0  0  0
 30 33  1  1  0  0  0
 30 31  1  0  0  0  0
 32 30  1  0  0  0  0
 32 29  1  0  0  0  0
M  END
>  <MODEL>
4

>  <REMARK>
 VINA RESULT:      -6.7      2.526      6.985
  Name = 
  7 active torsions:
  status: ('A' for Active; 'I' for Inactive)
    1  A    between atoms: C_4  and  C_7
    2  A    between atoms: C_4  and  C_10
    3  A    between atoms: C_8  and  C_23
    4  A    between atoms: C_10  and  C_24
    5  A    between atoms: O_16  and  C_22
    6  A    between atoms: C_18  and  C_24
    7  A    between atoms: C_23  and  C_24
                            x       y       z     vdW  Elec       q    Type
                         _______ _______ _______ _____ _____    ______ ____

>  <TORSDO>
F 7

$$$$
=
 OpenBabel11042415023D

 33 37  0  0  1  0  0  0  0  0999 V2000
  196.4270  176.2690  143.5250 C   0  0  0  0  0  3  0  0  0  0  0  0
  192.6430  174.7290  142.5290 C   0  0  0  0  0  3  0  0  0  0  0  0
  193.6900  174.6600  141.6030 C   0  0  0  0  0  3  0  0  0  0  0  0
  194.1970  176.4200  145.7490 S   0  0  2  0  0  0  0  0  0  0  0  0
  194.9500  175.1890  141.9150 C   0  0  0  0  0  0  0  0  0  0  0  0
  192.8400  175.3510  143.7680 C   0  0  0  0  0  0  0  0  0  0  0  0
  190.5130  176.2190  144.4760 C   0  0  1  0  0  3  0  0  0  0  0  0
  194.0980  175.8260  144.1030 C   0  0  0  0  0  0  0  0  0  0  0  0
  189.3670  175.9900  145.4750 C   0  0  0  0  0  2  0  0  0  0  0  0
  197.2570  175.6590  141.3370 C   0  0  0  0  0  3  0  0  0  0  0  0
  196.0000  175.1410  140.9810 C   0  0  0  0  0  0  0  0  0  0  0  0
  195.1660  175.7640  143.1930 C   0  0  0  0  0  0  0  0  0  0  0  0
  189.6790  176.7240  147.1150 S   0  0  0  0  0  0  0  0  0  0  0  0
  192.1680  175.5030  147.3790 C   0  0  0  0  0  2  0  0  0  0  0  0
  192.4380  176.1760  146.0380 C   0  0  2  0  0  3  0  0  0  0  0  0
  190.6770  175.2900  147.6380 C   0  0  0  0  0  2  0  0  0  0  0  0
  197.4690  176.2140  142.5990 C   0  0  0  0  0  3  0  0  0  0  0  0
  194.3030  177.9290  145.5800 O   0  0  0  0  0  0  0  0  0  0  0  0
  191.7920  175.4370  144.8530 C   0  0  2  0  0  3  0  0  0  0  0  0
  196.7960  174.5280  138.7160 C   0  0  0  0  0  1  0  0  0  0  0  0
  195.7810  174.5910  139.7110 O   0  0  0  0  0  0  0  0  0  0  0  0
  190.0470  176.0140  143.0220 C   0  0  1  0  0  3  0  0  0  0  0  0
  189.1170  174.8200  142.8350 C   0  0  0  0  0  2  0  0  0  0  0  0
  189.6340  173.8690  141.7670 C   0  0  2  0  0  3  0  0  0  0  0  0
  188.9180  174.1160  140.4510 C   0  0  0  0  0  1  0  0  0  0  0  0
  189.3500  172.3870  143.6170 O   0  0  0  0  0  1  0  0  0  0  0  0
  189.3780  172.4470  142.2230 C   0  0  0  0  0  2  0  0  0  0  0  0
  189.4050  177.2820  142.4740 C   0  0  0  0  0  2  0  0  0  0  0  0
  187.9050  177.0860  142.2970 C   0  0  2  0  0  3  0  0  0  0  0  0
  186.6920  178.6660  142.0640 C   0  0  2  0  0  3  0  0  0  0  0  0
  187.4470  177.8440  141.2060 O   0  0  0  0  0  0  0  0  0  0  0  0
  187.1300  177.9160  143.2870 C   0  0  0  0  0  2  0  0  0  0  0  0
  185.2080  178.4590  141.8060 C   0  0  0  0  0  1  0  0  0  0  0  0
  2  6  1  0  0  0  0
  3  5  1  0  0  0  0
  3  2  2  0  0  0  0
  4 18  2  6  0  0  0
  4 15  1  0  0  0  0
  5 12  2  0  0  0  0
  6  8  2  0  0  0  0
  7 22  1  6  0  0  0
  7 19  1  0  0  0  0
  7  9  1  0  0  0  0
  8  4  1  0  0  0  0
  9 13  1  0  0  0  0
 10 17  1  0  0  0  0
 11 10  2  0  0  0  0
 11  5  1  0  0  0  0
 12  1  1  0  0  0  0
 12  8  1  0  0  0  0
 13 16  1  0  0  0  0
 14 16  1  0  0  0  0
 15 14  1  1  0  0  0
 17  1  2  0  0  0  0
 19  6  1  6  0  0  0
 19 15  1  0  0  0  0
 20 21  1  0  0  0  0
 21 11  1  0  0  0  0
 22 28  1  1  0  0  0
 23 22  1  0  0  0  0
 24 25  1  6  0  0  0
 24 27  1  0  0  0  0
 24 23  1  0  0  0  0
 27 26  1  0  0  0  0
 29 28  1  1  0  0  0
 29 32  1  0  0  0  0
 30 33  1  6  0  0  0
 30 32  1  0  0  0  0
 31 30  1  0  0  0  0
 31 29  1  0  0  0  0
M  END
>  <MODEL>
5

>  <REMARK>
 VINA RESULT:      -6.1      2.736      4.687
  Name = 
  7 active torsions:
  status: ('A' for Active; 'I' for Inactive)
    1  A    between atoms: C_4  and  C_7
    2  A    between atoms: C_4  and  C_10
    3  A    between atoms: C_8  and  C_23
    4  A    between atoms: C_10  and  C_24
    5  A    between atoms: O_16  and  C_22
    6  A    between atoms: C_18  and  C_24
    7  A    between atoms: C_23  and  C_24
                            x       y       z     vdW  Elec       q    Type
                         _______ _______ _______ _____ _____    ______ ____

>  <TORSDO>
F 7

$$$$
=
 OpenBabel11042415023D

 33 37  0  0  1  0  0  0  0  0999 V2000
  187.6560  176.5210  144.4860 C   0  0  0  0  0  3  0  0  0  0  0  0
  190.4700  173.4700  143.8080 C   0  0  0  0  0  3  0  0  0  0  0  0
  190.2790  173.9670  145.1030 C   0  0  0  0  0  3  0  0  0  0  0  0
  187.9110  175.4470  141.5320 S   0  0  2  0  0  0  0  0  0  0  0  0
  189.3590  174.9980  145.3370 C   0  0  0  0  0  0  0  0  0  0  0  0
  189.7620  174.0180  142.7320 C   0  0  0  0  0  0  0  0  0  0  0  0
  191.2610  173.6430  140.6630 C   0  0  1  0  0  3  0  0  0  0  0  0
  188.8120  174.9990  142.9670 C   0  0  0  0  0  0  0  0  0  0  0  0
  191.3810  172.8330  139.3630 C   0  0  0  0  0  2  0  0  0  0  0  0
  188.2280  176.5320  146.8360 C   0  0  0  0  0  3  0  0  0  0  0  0
  189.1760  175.5160  146.6330 C   0  0  0  0  0  0  0  0  0  0  0  0
  188.5970  175.5110  144.2570 C   0  0  0  0  0  0  0  0  0  0  0  0
  190.3780  173.5040  137.9960 S   0  0  0  0  0  0  0  0  0  0  0  0
  188.0440  173.5710  139.5140 C   0  0  0  0  0  2  0  0  0  0  0  0
  188.9050  174.3890  140.4680 C   0  0  2  0  0  3  0  0  0  0  0  0
  188.8750  172.6680  138.6030 C   0  0  0  0  0  2  0  0  0  0  0  0
  187.4730  177.0270  145.7720 C   0  0  0  0  0  3  0  0  0  0  0  0
  188.4310  176.8390  141.2010 O   0  0  0  0  0  0  0  0  0  0  0  0
  189.8610  173.5250  141.3080 C   0  0  2  0  0  3  0  0  0  0  0  0
  191.2040  175.5740  148.0550 C   0  0  0  0  0  1  0  0  0  0  0  0
  189.9430  175.0220  147.6970 O   0  0  0  0  0  0  0  0  0  0  0  0
  192.4310  173.3530  141.6230 C   0  0  1  0  0  3  0  0  0  0  0  0
  193.0450  171.9680  141.4440 C   0  0  0  0  0  2  0  0  0  0  0  0
  192.7840  171.0800  142.6500 C   0  0  2  0  0  3  0  0  0  0  0  0
  194.0970  170.6380  143.2730 C   0  0  0  0  0  1  0  0  0  0  0  0
  190.6610  170.1940  142.0120 O   0  0  0  0  0  1  0  0  0  0  0  0
  192.0050  169.8630  142.1930 C   0  0  0  0  0  2  0  0  0  0  0  0
  193.5020  174.4310  141.5150 C   0  0  0  0  0  2  0  0  0  0  0  0
  193.4400  175.3660  142.7140 C   0  0  2  0  0  3  0  0  0  0  0  0
  195.0270  175.5820  143.9210 C   0  0  2  0  0  3  0  0  0  0  0  0
  194.5750  176.1940  142.7370 O   0  0  0  0  0  0  0  0  0  0  0  0
  193.8490  174.6550  143.9780 C   0  0  0  0  0  2  0  0  0  0  0  0
  194.9850  176.5790  145.0680 C   0  0  0  0  0  1  0  0  0  0  0  0
  1 17  1  0  0  0  0
  2  3  2  0  0  0  0
  3  5  1  0  0  0  0
  4 18  2  6  0  0  0
  4  8  1  0  0  0  0
  5 11  2  0  0  0  0
  6  8  2  0  0  0  0
  6  2  1  0  0  0  0
  7 19  1  0  0  0  0
  7 22  1  1  0  0  0
  8 12  1  0  0  0  0
  9  7  1  0  0  0  0
 11 10  1  0  0  0  0
 11 21  1  0  0  0  0
 12  1  2  0  0  0  0
 12  5  1  0  0  0  0
 13 16  1  0  0  0  0
 13  9  1  0  0  0  0
 15 14  1  1  0  0  0
 15 19  1  0  0  0  0
 15  4  1  0  0  0  0
 16 14  1  0  0  0  0
 17 10  2  0  0  0  0
 19  6  1  1  0  0  0
 21 20  1  0  0  0  0
 22 23  1  6  0  0  0
 23 24  1  0  0  0  0
 24 25  1  6  0  0  0
 26 27  1  0  0  0  0
 27 24  1  0  0  0  0
 28 22  1  0  0  0  0
 29 28  1  6  0  0  0
 29 31  1  0  0  0  0
 29 32  1  0  0  0  0
 30 32  1  0  0  0  0
 30 33  1  1  0  0  0
 31 30  1  0  0  0  0
M  END
>  <MODEL>
6

>  <REMARK>
 VINA RESULT:      -6.1      2.779      7.865
  Name = 
  7 active torsions:
  status: ('A' for Active; 'I' for Inactive)
    1  A    between atoms: C_4  and  C_7
    2  A    between atoms: C_4  and  C_10
    3  A    between atoms: C_8  and  C_23
    4  A    between atoms: C_10  and  C_24
    5  A    between atoms: O_16  and  C_22
    6  A    between atoms: C_18  and  C_24
    7  A    between atoms: C_23  and  C_24
                            x       y       z     vdW  Elec       q    Type
                         _______ _______ _______ _____ _____    ______ ____

>  <TORSDO>
F 7

$$$$
=
 OpenBabel11042415023D

 33 37  0  0  1  0  0  0  0  0999 V2000
  195.9120  174.2130  146.0850 C   0  0  0  0  0  3  0  0  0  0  0  0
  192.5100  172.6150  144.2000 C   0  0  0  0  0  3  0  0  0  0  0  0
  193.5720  171.7740  144.5510 C   0  0  0  0  0  3  0  0  0  0  0  0
  193.5670  176.2190  145.4350 S   0  0  2  0  0  0  0  0  0  0  0  0
  194.7200  172.2990  145.1600 C   0  0  0  0  0  0  0  0  0  0  0  0
  192.5970  173.9920  144.4320 C   0  0  0  0  0  0  0  0  0  0  0  0
  191.0850  175.0840  142.6460 C   0  0  1  0  0  3  0  0  0  0  0  0
  193.7050  174.5080  145.0840 C   0  0  0  0  0  0  0  0  0  0  0  0
  189.7560  175.8320  142.4500 C   0  0  0  0  0  2  0  0  0  0  0  0
  196.9250  172.0180  146.1290 C   0  0  0  0  0  3  0  0  0  0  0  0
  195.8000  171.4620  145.4970 C   0  0  0  0  0  0  0  0  0  0  0  0
  194.7820  173.6850  145.4510 C   0  0  0  0  0  0  0  0  0  0  0  0
  189.8600  177.6090  142.8480 S   0  0  0  0  0  0  0  0  0  0  0  0
  190.9730  177.1570  145.3610 C   0  0  0  0  0  2  0  0  0  0  0  0
  192.0010  176.3640  144.5610 C   0  0  2  0  0  3  0  0  0  0  0  0
  189.6380  177.2880  144.6300 C   0  0  0  0  0  2  0  0  0  0  0  0
  196.9780  173.3810  146.4230 C   0  0  0  0  0  3  0  0  0  0  0  0
  194.5510  176.8650  144.4690 O   0  0  0  0  0  0  0  0  0  0  0  0
  191.4910  174.9770  144.1340 C   0  0  2  0  0  3  0  0  0  0  0  0
  195.5610  169.0940  146.1850 C   0  0  0  0  0  1  0  0  0  0  0  0
  195.7470  170.0960  145.1920 O   0  0  0  0  0  0  0  0  0  0  0  0
  191.1000  173.7460  141.8840 C   0  0  1  0  0  3  0  0  0  0  0  0
  189.7170  173.2680  141.4500 C   0  0  0  0  0  2  0  0  0  0  0  0
  189.3660  171.9280  142.0770 C   0  0  2  0  0  3  0  0  0  0  0  0
  189.1720  172.0820  143.5750 C   0  0  0  0  0  1  0  0  0  0  0  0
  190.4590  170.5230  140.4850 O   0  0  0  0  0  1  0  0  0  0  0  0
  190.5010  170.9590  141.8100 C   0  0  0  0  0  2  0  0  0  0  0  0
  192.0410  173.8120  140.6880 C   0  0  0  0  0  2  0  0  0  0  0  0
  193.2590  174.6650  141.0160 C   0  0  2  0  0  3  0  0  0  0  0  0
  194.9800  174.4090  140.0180 C   0  0  2  0  0  3  0  0  0  0  0  0
  193.8170  175.1810  139.8330 O   0  0  0  0  0  0  0  0  0  0  0  0
  194.4650  173.8040  141.2900 C   0  0  0  0  0  2  0  0  0  0  0  0
  196.1660  175.3190  140.2940 C   0  0  0  0  0  1  0  0  0  0  0  0
  1 17  1  0  0  0  0
  2  6  1  0  0  0  0
  2  3  2  0  0  0  0
  3  5  1  0  0  0  0
  4 18  2  6  0  0  0
  5 12  1  0  0  0  0
  5 11  2  0  0  0  0
  6  8  2  0  0  0  0
  7 22  1  1  0  0  0
  7 19  1  0  0  0  0
  8  4  1  0  0  0  0
  8 12  1  0  0  0  0
  9  7  1  0  0  0  0
  9 13  1  0  0  0  0
 10 17  2  0  0  0  0
 11 10  1  0  0  0  0
 12  1  2  0  0  0  0
 13 16  1  0  0  0  0
 15 14  1  1  0  0  0
 15  4  1  0  0  0  0
 16 14  1  0  0  0  0
 19  6  1  6  0  0  0
 19 15  1  0  0  0  0
 21 11  1  0  0  0  0
 21 20  1  0  0  0  0
 22 28  1  6  0  0  0
 23 22  1  0  0  0  0
 23 24  1  0  0  0  0
 24 25  1  1  0  0  0
 26 27  1  0  0  0  0
 27 24  1  0  0  0  0
 29 28  1  6  0  0  0
 29 32  1  0  0  0  0
 30 33  1  1  0  0  0
 30 32  1  0  0  0  0
 31 30  1  0  0  0  0
 31 29  1  0  0  0  0
M  END
>  <MODEL>
7

>  <REMARK>
 VINA RESULT:      -6.1      3.545      7.024
  Name = 
  7 active torsions:
  status: ('A' for Active; 'I' for Inactive)
    1  A    between atoms: C_4  and  C_7
    2  A    between atoms: C_4  and  C_10
    3  A    between atoms: C_8  and  C_23
    4  A    between atoms: C_10  and  C_24
    5  A    between atoms: O_16  and  C_22
    6  A    between atoms: C_18  and  C_24
    7  A    between atoms: C_23  and  C_24
                            x       y       z     vdW  Elec       q    Type
                         _______ _______ _______ _____ _____    ______ ____

>  <TORSDO>
F 7

$$$$
=
 OpenBabel11042415023D

 33 37  0  0  1  0  0  0  0  0999 V2000
  188.7770  177.1740  146.4830 C   0  0  0  0  0  3  0  0  0  0  0  0
  190.7900  177.0770  142.7920 C   0  0  0  0  0  3  0  0  0  0  0  0
  189.4520  177.4840  142.8460 C   0  0  0  0  0  3  0  0  0  0  0  0
  191.8120  176.3190  146.5360 S   0  0  2  0  0  0  0  0  0  0  0  0
  188.7640  177.5000  144.0680 C   0  0  0  0  0  0  0  0  0  0  0  0
  191.4450  176.6570  143.9560 C   0  0  0  0  0  0  0  0  0  0  0  0
  193.2670  175.0100  143.1600 C   0  0  1  0  0  3  0  0  0  0  0  0
  190.7870  176.7240  145.1740 C   0  0  0  0  0  0  0  0  0  0  0  0
  194.7860  174.8440  142.9930 C   0  0  0  0  0  2  0  0  0  0  0  0
  186.7620  177.9160  145.3700 C   0  0  0  0  0  3  0  0  0  0  0  0
  187.4140  177.8880  144.1260 C   0  0  0  0  0  0  0  0  0  0  0  0
  189.4460  177.1340  145.2550 C   0  0  0  0  0  0  0  0  0  0  0  0
  195.6400  174.3910  144.5390 S   0  0  0  0  0  0  0  0  0  0  0  0
  194.5090  176.4880  145.9800 C   0  0  0  0  0  2  0  0  0  0  0  0
  193.2020  175.8860  145.4790 C   0  0  2  0  0  3  0  0  0  0  0  0
  195.6980  176.1280  145.0910 C   0  0  0  0  0  2  0  0  0  0  0  0
  187.4400  177.5650  146.5380 C   0  0  0  0  0  3  0  0  0  0  0  0
  191.2940  174.9580  146.9830 O   0  0  0  0  0  0  0  0  0  0  0  0
  192.8970  176.2450  144.0140 C   0  0  2  0  0  3  0  0  0  0  0  0
  185.5770  177.5360  142.5000 C   0  0  0  0  0  1  0  0  0  0  0  0
  186.7340  178.2310  142.9490 O   0  0  0  0  0  0  0  0  0  0  0  0
  192.5350  174.9280  141.8080 C   0  0  1  0  0  3  0  0  0  0  0  0
  193.4610  175.0150  140.5990 C   0  0  0  0  0  2  0  0  0  0  0  0
  193.3280  173.7940  139.7030 C   0  0  2  0  0  3  0  0  0  0  0  0
  194.6100  172.9790  139.7300 C   0  0  0  0  0  1  0  0  0  0  0  0
  193.9200  175.3040  137.9510 O   0  0  0  0  0  1  0  0  0  0  0  0
  193.0550  174.2610  138.2880 C   0  0  0  0  0  2  0  0  0  0  0  0
  191.6740  173.6730  141.7310 C   0  0  0  0  0  2  0  0  0  0  0  0
  190.6730  173.6430  142.8780 C   0  0  2  0  0  3  0  0  0  0  0  0
  190.2540  171.9240  143.8200 C   0  0  2  0  0  3  0  0  0  0  0  0
  191.2140  172.9430  143.9690 O   0  0  0  0  0  0  0  0  0  0  0  0
  189.6130  172.5990  142.6440 C   0  0  0  0  0  2  0  0  0  0  0  0
  189.3170  171.9160  145.0170 C   0  0  0  0  0  1  0  0  0  0  0  0
  1 17  1  0  0  0  0
  2  3  2  0  0  0  0
  2  6  1  0  0  0  0
  3  5  1  0  0  0  0
  4 18  2  6  0  0  0
  5 11  2  0  0  0  0
  5 12  1  0  0  0  0
  6  8  2  0  0  0  0
  7 22  1  6  0  0  0
  7 19  1  0  0  0  0
  8 12  1  0  0  0  0
  8  4  1  0  0  0  0
  9  7  1  0  0  0  0
  9 13  1  0  0  0  0
 10 17  2  0  0  0  0
 11 10  1  0  0  0  0
 12  1  2  0  0  0  0
 13 16  1  0  0  0  0
 15 14  1  1  0  0  0
 15  4  1  0  0  0  0
 16 14  1  0  0  0  0
 19  6  1  1  0  0  0
 19 15  1  0  0  0  0
 20 21  1  0  0  0  0
 21 11  1  0  0  0  0
 22 23  1  6  0  0  0
 24 25  1  6  0  0  0
 24 23  1  0  0  0  0
 26 27  1  0  0  0  0
 27 24  1  0  0  0  0
 28 22  1  0  0  0  0
 29 28  1  6  0  0  0
 29 31  1  0  0  0  0
 30 31  1  0  0  0  0
 30 33  1  1  0  0  0
 32 29  1  0  0  0  0
 32 30  1  0  0  0  0
M  END
>  <MODEL>
8

>  <REMARK>
 VINA RESULT:      -5.8      2.353      6.910
  Name = 
  7 active torsions:
  status: ('A' for Active; 'I' for Inactive)
    1  A    between atoms: C_4  and  C_7
    2  A    between atoms: C_4  and  C_10
    3  A    between atoms: C_8  and  C_23
    4  A    between atoms: C_10  and  C_24
    5  A    between atoms: O_16  and  C_22
    6  A    between atoms: C_18  and  C_24
    7  A    between atoms: C_23  and  C_24
                            x       y       z     vdW  Elec       q    Type
                         _______ _______ _______ _____ _____    ______ ____

>  <TORSDO>
F 7

$$$$
=
 OpenBabel11042415023D

 33 37  0  0  1  0  0  0  0  0999 V2000
  186.1440  177.9810  143.4100 C   0  0  0  0  0  3  0  0  0  0  0  0
  189.0830  175.2330  144.6310 C   0  0  0  0  0  3  0  0  0  0  0  0
  188.4980  176.0900  145.5700 C   0  0  0  0  0  3  0  0  0  0  0  0
  187.3050  176.0590  141.1970 S   0  0  2  0  0  0  0  0  0  0  0  0
  187.5330  177.0250  145.1710 C   0  0  0  0  0  0  0  0  0  0  0  0
  188.7270  175.3200  143.2800 C   0  0  0  0  0  0  0  0  0  0  0  0
  190.7920  174.4860  141.9720 C   0  0  1  0  0  3  0  0  0  0  0  0
  187.7340  176.2040  142.8900 C   0  0  0  0  0  0  0  0  0  0  0  0
  191.3160  173.3220  141.1150 C   0  0  0  0  0  2  0  0  0  0  0  0
  185.9730  178.8110  145.6760 C   0  0  0  0  0  3  0  0  0  0  0  0
  186.9550  177.9030  146.1050 C   0  0  0  0  0  0  0  0  0  0  0  0
  187.1270  177.0710  143.8130 C   0  0  0  0  0  0  0  0  0  0  0  0
  190.7660  173.3970  139.3780 S   0  0  0  0  0  0  0  0  0  0  0  0
  188.0790  173.6660  140.0620 C   0  0  0  0  0  2  0  0  0  0  0  0
  188.5940  174.8430  140.8820 C   0  0  2  0  0  3  0  0  0  0  0  0
  189.1640  172.6260  139.7860 C   0  0  0  0  0  2  0  0  0  0  0  0
  185.5690  178.8460  144.3400 C   0  0  0  0  0  3  0  0  0  0  0  0
  187.8770  177.3240  140.5720 O   0  0  0  0  0  0  0  0  0  0  0  0
  189.2640  174.4130  142.1980 C   0  0  2  0  0  3  0  0  0  0  0  0
  187.0000  178.8700  148.3860 C   0  0  0  0  0  1  0  0  0  0  0  0
  187.3690  177.8710  147.4430 O   0  0  0  0  0  0  0  0  0  0  0  0
  191.6180  174.6590  143.2610 C   0  0  1  0  0  3  0  0  0  0  0  0
  192.4490  173.4330  143.6290 C   0  0  0  0  0  2  0  0  0  0  0  0
  193.9360  173.6900  143.4430 C   0  0  2  0  0  3  0  0  0  0  0  0
  194.4530  172.9350  142.2310 C   0  0  0  0  0  1  0  0  0  0  0  0
  193.7500  172.7780  145.6420 O   0  0  0  0  0  1  0  0  0  0  0  0
  194.6660  173.2160  144.6840 C   0  0  0  0  0  2  0  0  0  0  0  0
  192.5010  175.8970  143.1770 C   0  0  0  0  0  2  0  0  0  0  0  0
  192.3730  176.7300  144.4450 C   0  0  2  0  0  3  0  0  0  0  0  0
  193.5090  176.3270  146.0470 C   0  0  2  0  0  3  0  0  0  0  0  0
  193.6460  177.1210  144.8930 O   0  0  0  0  0  0  0  0  0  0  0  0
  192.1440  175.8530  145.6480 C   0  0  0  0  0  2  0  0  0  0  0  0
  193.4350  177.2130  147.2800 C   0  0  0  0  0  1  0  0  0  0  0  0
  1 12  2  0  0  0  0
  1 17  1  0  0  0  0
  2  3  2  0  0  0  0
  4 18  2  6  0  0  0
  4  8  1  0  0  0  0
  5  3  1  0  0  0  0
  5 11  2  0  0  0  0
  6  2  1  0  0  0  0
  7 19  1  0  0  0  0
  7 22  1  1  0  0  0
  8  6  2  0  0  0  0
  8 12  1  0  0  0  0
  9  7  1  0  0  0  0
 10 11  1  0  0  0  0
 11 21  1  0  0  0  0
 12  5  1  0  0  0  0
 13 16  1  0  0  0  0
 13  9  1  0  0  0  0
 15 14  1  1  0  0  0
 15  4  1  0  0  0  0
 15 19  1  0  0  0  0
 16 14  1  0  0  0  0
 17 10  2  0  0  0  0
 19  6  1  1  0  0  0
 21 20  1  0  0  0  0
 22 28  1  6  0  0  0
 22 23  1  0  0  0  0
 24 25  1  6  0  0  0
 24 23  1  0  0  0  0
 24 27  1  0  0  0  0
 27 26  1  0  0  0  0
 29 28  1  6  0  0  0
 29 31  1  0  0  0  0
 29 32  1  0  0  0  0
 30 33  1  1  0  0  0
 31 30  1  0  0  0  0
 32 30  1  0  0  0  0
M  END
>  <MODEL>
9

>  <REMARK>
 VINA RESULT:      -5.7      2.386      7.628
  Name = 
  7 active torsions:
  status: ('A' for Active; 'I' for Inactive)
    1  A    between atoms: C_4  and  C_7
    2  A    between atoms: C_4  and  C_10
    3  A    between atoms: C_8  and  C_23
    4  A    between atoms: C_10  and  C_24
    5  A    between atoms: O_16  and  C_22
    6  A    between atoms: C_18  and  C_24
    7  A    between atoms: C_23  and  C_24
                            x       y       z     vdW  Elec       q    Type
                         _______ _______ _______ _____ _____    ______ ____

>  <TORSDO>
F 7

$$$$
