=
 OpenBabel11042416163D

 33 39  0  0  1  0  0  0  0  0999 V2000
  188.0980  176.2140  146.0200 C   0  0  0  0  0  0  0  0  0  0  0  0
  193.2590  175.8730  145.3450 C   0  0  0  0  0  0  0  0  0  0  0  0
  186.9280  178.3970  144.6540 C   0  0  1  0  0  3  0  0  0  0  0  0
  188.9280  175.5740  146.8820 N   0  0  0  0  0  0  0  0  0  0  0  0
  191.6710  177.0160  143.3620 C   0  0  0  0  0  3  0  0  0  0  0  0
  186.7680  176.6040  146.3450 N   0  0  0  0  0  2  0  0  0  0  0  0
  186.1570  178.7070  142.2580 N   0  0  0  0  0  2  0  0  0  0  0  0
  186.0000  177.3810  145.3680 C   0  0  1  0  0  3  0  0  0  0  0  0
  186.9270  177.5650  141.8660 C   0  0  0  0  0  0  0  0  0  0  0  0
  190.1040  175.5770  146.2180 C   0  0  1  0  0  3  0  0  0  0  0  0
  189.9780  176.2770  145.0560 C   0  0  2  0  0  3  0  0  0  0  0  0
  192.9850  176.6110  143.0610 C   0  0  0  0  0  3  0  0  0  0  0  0
  188.1570  177.6940  144.0150 C   0  0  2  0  0  3  0  0  0  0  0  0
  185.5970  180.2490  143.9120 O   0  0  0  0  0  0  0  0  0  0  0  0
  191.2250  176.9210  144.6840 C   0  0  0  0  0  0  0  0  0  0  0  0
  192.1020  176.5310  145.6920 C   0  0  0  0  0  0  0  0  0  0  0  0
  191.4620  175.7840  146.8110 C   0  0  2  0  0  3  0  0  0  0  0  0
  187.8300  177.0390  142.6970 C   0  0  0  0  0  3  0  0  0  0  0  0
  188.7190  176.7050  144.9290 N   0  0  0  0  0  0  0  0  0  0  0  0
  192.2960  174.5820  146.8680 N   0  0  0  0  0  0  0  0  0  0  0  0
  186.1980  179.1870  143.6040 C   0  0  0  0  0  0  0  0  0  0  0  0
  193.3070  174.6640  146.0920 N   0  0  0  0  0  0  0  0  0  0  0  0
  193.7870  176.0020  144.0460 C   0  0  0  0  0  0  0  0  0  0  0  0
  196.3100  175.9950  143.6570 C   0  0  0  0  0  0  0  0  0  0  0  0
  196.4300  177.2390  143.8340 O   0  0  0  0  0  0  0  0  0  0  0  0
  195.0170  175.3800  143.6500 N   0  0  0  0  0  2  0  0  0  0  0  0
  197.4360  175.2050  143.4260 O   0  0  0  0  0  0  0  0  0  0  0  0
  197.8760  174.2350  144.3640 C   0  0  0  0  0  1  0  0  0  0  0  0
  184.9020  178.0650  146.0430 N   0  0  0  0  0  0  0  0  0  0  0  0
  184.9520  177.6640  147.4590 C   0  0  0  0  0  2  0  0  0  0  0  0
  185.4890  178.9540  147.0600 C   0  0  0  0  0  2  0  0  0  0  0  0
  186.6630  176.9120  140.5560 C   0  0  0  0  0  2  0  0  0  0  0  0
  185.6240  177.6380  139.8480 N   0  0  0  0  0  1  0  0  0  0  0  0
  1  6  1  0  0  0  0
  1  4  2  0  0  0  0
  2 16  1  0  0  0  0
  2 22  1  0  0  0  0
  3 21  1  6  0  0  0
  3  8  1  0  0  0  0
  5 15  1  0  0  0  0
  7 21  1  0  0  0  0
  8 29  1  1  0  0  0
  8  6  1  0  0  0  0
  9  7  1  0  0  0  0
  9 18  2  0  0  0  0
 10 17  1  0  0  0  0
 10  4  1  1  0  0  0
 11 15  1  1  0  0  0
 11 10  1  0  0  0  0
 12  5  2  0  0  0  0
 12 23  1  0  0  0  0
 13 18  1  6  0  0  0
 13  3  1  0  0  0  0
 13 19  1  0  0  0  0
 15 16  2  0  0  0  0
 17 16  1  6  0  0  0
 17 20  1  0  0  0  0
 19 11  1  0  0  0  0
 19  1  1  0  0  0  0
 21 14  2  0  0  0  0
 22 20  2  0  0  0  0
 23  2  2  0  0  0  0
 24 25  2  0  0  0  0
 26 24  1  0  0  0  0
 26 23  1  0  0  0  0
 27 24  1  0  0  0  0
 27 28  1  0  0  0  0
 29 31  1  0  0  0  0
 29 30  1  0  0  0  0
 31 30  1  0  0  0  0
 32  9  1  0  0  0  0
 33 32  1  0  0  0  0
M  END
>  <MODEL>
1

>  <REMARK>
 VINA RESULT:      -8.3      0.000      0.000
  Name = 
  4 active torsions:
  status: ('A' for Active; 'I' for Inactive)
    1  A    between atoms: C_2  and  O_25
    2  A    between atoms: C_6  and  C_11
    3  A    between atoms: C_10  and  N_13
    4  A    between atoms: N_24  and  C_32
                            x       y       z     vdW  Elec       q    Type
                         _______ _______ _______ _____ _____    ______ ____

>  <TORSDO>
F 4

$$$$
=
 OpenBabel11042416163D

 33 39  0  0  1  0  0  0  0  0999 V2000
  193.6910  175.8270  143.1930 C   0  0  0  0  0  0  0  0  0  0  0  0
  189.1530  177.2380  145.3400 C   0  0  0  0  0  0  0  0  0  0  0  0
  195.4470  174.5550  145.0100 C   0  0  1  0  0  3  0  0  0  0  0  0
  192.8980  176.8090  142.6960 N   0  0  0  0  0  0  0  0  0  0  0  0
  190.5440  175.0450  146.3480 C   0  0  0  0  0  3  0  0  0  0  0  0
  195.0590  175.6570  142.8340 N   0  0  0  0  0  2  0  0  0  0  0  0
  195.6320  172.1610  145.8250 N   0  0  0  0  0  2  0  0  0  0  0  0
  195.8450  174.6240  143.5140 C   0  0  1  0  0  3  0  0  0  0  0  0
  194.3060  171.9000  145.3500 C   0  0  0  0  0  0  0  0  0  0  0  0
  191.7780  176.6900  143.4400 C   0  0  1  0  0  3  0  0  0  0  0  0
  191.9560  175.7350  144.3950 C   0  0  2  0  0  3  0  0  0  0  0  0
  189.1880  175.2270  146.6780 C   0  0  0  0  0  3  0  0  0  0  0  0
  193.9180  174.3430  145.1830 C   0  0  2  0  0  3  0  0  0  0  0  0
  197.3160  173.7130  146.2550 O   0  0  0  0  0  0  0  0  0  0  0  0
  191.1900  176.0290  145.5930 C   0  0  0  0  0  0  0  0  0  0  0  0
  190.5260  177.2090  145.2680 C   0  0  0  0  0  0  0  0  0  0  0  0
  190.9340  177.8080  143.9660 C   0  0  2  0  0  3  0  0  0  0  0  0
  193.5060  172.9060  144.9900 C   0  0  0  0  0  3  0  0  0  0  0  0
  193.1710  175.1970  144.2640 N   0  0  0  0  0  0  0  0  0  0  0  0
  189.6390  177.9630  143.3030 N   0  0  0  0  0  0  0  0  0  0  0  0
  196.1910  173.4740  145.7430 C   0  0  0  0  0  0  0  0  0  0  0  0
  188.6650  177.6930  144.0840 N   0  0  0  0  0  0  0  0  0  0  0  0
  188.4640  176.3140  146.1500 C   0  0  0  0  0  0  0  0  0  0  0  0
  186.2800  177.3450  146.9760 C   0  0  0  0  0  0  0  0  0  0  0  0
  186.8560  178.2190  147.6820 O   0  0  0  0  0  0  0  0  0  0  0  0
  187.0390  176.3360  146.3010 N   0  0  0  0  0  2  0  0  0  0  0  0
  184.8890  177.3270  146.8740 O   0  0  0  0  0  0  0  0  0  0  0  0
  184.1710  178.3550  146.2090 C   0  0  0  0  0  1  0  0  0  0  0  0
  197.2670  174.9170  143.3660 N   0  0  0  0  0  0  0  0  0  0  0  0
  197.8950  173.7160  142.7900 C   0  0  0  0  0  2  0  0  0  0  0  0
  197.5890  174.8470  141.9300 C   0  0  0  0  0  2  0  0  0  0  0  0
  193.8460  170.4960  145.1810 C   0  0  0  0  0  2  0  0  0  0  0  0
  192.7550  170.4500  144.2240 N   0  0  0  0  0  1  0  0  0  0  0  0
  1 19  1  0  0  0  0
  2 23  1  0  0  0  0
  3 13  1  0  0  0  0
  3 21  1  6  0  0  0
  4  1  2  0  0  0  0
  5 12  1  0  0  0  0
  6  1  1  0  0  0  0
  6  8  1  0  0  0  0
  8 29  1  1  0  0  0
  8  3  1  0  0  0  0
  9  7  1  0  0  0  0
 10  4  1  1  0  0  0
 10 17  1  0  0  0  0
 10 11  1  0  0  0  0
 11 15  1  1  0  0  0
 13 18  1  6  0  0  0
 15  5  2  0  0  0  0
 16  2  2  0  0  0  0
 16 15  1  0  0  0  0
 17 20  1  6  0  0  0
 17 16  1  0  0  0  0
 18  9  2  0  0  0  0
 19 11  1  0  0  0  0
 19 13  1  0  0  0  0
 20 22  2  0  0  0  0
 21  7  1  0  0  0  0
 21 14  2  0  0  0  0
 22  2  1  0  0  0  0
 23 26  1  0  0  0  0
 23 12  2  0  0  0  0
 24 25  2  0  0  0  0
 26 24  1  0  0  0  0
 27 24  1  0  0  0  0
 28 27  1  0  0  0  0
 30 29  1  0  0  0  0
 31 30  1  0  0  0  0
 31 29  1  0  0  0  0
 32  9  1  0  0  0  0
 33 32  1  0  0  0  0
M  END
>  <MODEL>
2

>  <REMARK>
 VINA RESULT:      -8.3      2.524      9.063
  Name = 
  4 active torsions:
  status: ('A' for Active; 'I' for Inactive)
    1  A    between atoms: C_2  and  O_25
    2  A    between atoms: C_6  and  C_11
    3  A    between atoms: C_10  and  N_13
    4  A    between atoms: N_24  and  C_32
                            x       y       z     vdW  Elec       q    Type
                         _______ _______ _______ _____ _____    ______ ____

>  <TORSDO>
F 4

$$$$
=
 OpenBabel11042416163D

 33 39  0  0  1  0  0  0  0  0999 V2000
  191.7450  174.2760  141.4110 C   0  0  0  0  0  0  0  0  0  0  0  0
  187.5380  176.9100  143.0120 C   0  0  0  0  0  0  0  0  0  0  0  0
  194.1300  175.7930  141.5220 C   0  0  1  0  0  3  0  0  0  0  0  0
  190.4770  173.9590  141.0470 N   0  0  0  0  0  0  0  0  0  0  0  0
  190.0480  177.5440  144.0400 C   0  0  0  0  0  3  0  0  0  0  0  0
  192.9050  173.7980  140.7360 N   0  0  0  0  0  2  0  0  0  0  0  0
  195.7520  176.3040  143.4020 N   0  0  0  0  0  2  0  0  0  0  0  0
  194.2200  174.2900  141.1550 C   0  0  1  0  0  3  0  0  0  0  0  0
  194.7650  175.9020  144.3590 C   0  0  0  0  0  0  0  0  0  0  0  0
  189.7330  174.7670  141.8340 C   0  0  1  0  0  3  0  0  0  0  0  0
  190.5460  175.5860  142.5570 C   0  0  2  0  0  3  0  0  0  0  0  0
  188.8880  177.9950  144.6970 C   0  0  0  0  0  3  0  0  0  0  0  0
  193.0330  176.0540  142.5910 C   0  0  2  0  0  3  0  0  0  0  0  0
  196.2880  176.7860  141.1870 O   0  0  0  0  0  0  0  0  0  0  0  0
  189.9120  176.8640  142.8260 C   0  0  0  0  0  0  0  0  0  0  0  0
  188.6590  176.7320  142.2350 C   0  0  0  0  0  0  0  0  0  0  0  0
  188.4790  175.4830  141.4430 C   0  0  2  0  0  3  0  0  0  0  0  0
  193.4950  175.7240  143.9870 C   0  0  0  0  0  3  0  0  0  0  0  0
  191.8220  175.3010  142.2820 N   0  0  0  0  0  0  0  0  0  0  0  0
  187.2540  174.9420  142.0340 N   0  0  0  0  0  0  0  0  0  0  0  0
  195.4450  176.3350  142.0070 C   0  0  0  0  0  0  0  0  0  0  0  0
  186.7200  175.7560  142.8600 N   0  0  0  0  0  0  0  0  0  0  0  0
  187.6120  177.6540  144.2060 C   0  0  0  0  0  0  0  0  0  0  0  0
  185.5140  178.9670  144.8290 C   0  0  0  0  0  0  0  0  0  0  0  0
  185.7420  179.8960  144.0050 O   0  0  0  0  0  0  0  0  0  0  0  0
  186.4630  177.9140  145.0230 N   0  0  0  0  0  2  0  0  0  0  0  0
  184.3460  178.9750  145.5930 O   0  0  0  0  0  0  0  0  0  0  0  0
  184.2550  178.2850  146.8300 C   0  0  0  0  0  1  0  0  0  0  0  0
  195.1860  174.0710  140.0850 N   0  0  0  0  0  0  0  0  0  0  0  0
  196.3140  173.3270  140.6700 C   0  0  0  0  0  2  0  0  0  0  0  0
  195.3140  172.6170  139.8910 C   0  0  0  0  0  2  0  0  0  0  0  0
  195.1710  175.6040  145.7580 C   0  0  0  0  0  2  0  0  0  0  0  0
  194.3340  176.3500  146.6800 N   0  0  0  0  0  1  0  0  0  0  0  0
  1 19  1  0  0  0  0
  2 23  1  0  0  0  0
  3 21  1  1  0  0  0
  3 13  1  0  0  0  0
  4  1  2  0  0  0  0
  5 12  1  0  0  0  0
  6  8  1  0  0  0  0
  6  1  1  0  0  0  0
  7  9  1  0  0  0  0
  8 29  1  6  0  0  0
  8  3  1  0  0  0  0
  9 32  1  0  0  0  0
 10  4  1  6  0  0  0
 10 11  1  0  0  0  0
 11 15  1  6  0  0  0
 13 18  1  1  0  0  0
 14 21  2  0  0  0  0
 15  5  2  0  0  0  0
 16 15  1  0  0  0  0
 16  2  2  0  0  0  0
 17 10  1  0  0  0  0
 17 20  1  1  0  0  0
 17 16  1  0  0  0  0
 18  9  2  0  0  0  0
 19 11  1  0  0  0  0
 19 13  1  0  0  0  0
 20 22  2  0  0  0  0
 21  7  1  0  0  0  0
 22  2  1  0  0  0  0
 23 12  2  0  0  0  0
 23 26  1  0  0  0  0
 24 26  1  0  0  0  0
 24 27  1  0  0  0  0
 25 24  2  0  0  0  0
 27 28  1  0  0  0  0
 29 30  1  0  0  0  0
 31 29  1  0  0  0  0
 31 30  1  0  0  0  0
 32 33  1  0  0  0  0
M  END
>  <MODEL>
3

>  <REMARK>
 VINA RESULT:      -8.0      2.576      8.868
  Name = 
  4 active torsions:
  status: ('A' for Active; 'I' for Inactive)
    1  A    between atoms: C_2  and  O_25
    2  A    between atoms: C_6  and  C_11
    3  A    between atoms: C_10  and  N_13
    4  A    between atoms: N_24  and  C_32
                            x       y       z     vdW  Elec       q    Type
                         _______ _______ _______ _____ _____    ______ ____

>  <TORSDO>
F 4

$$$$
=
 OpenBabel11042416163D

 33 39  0  0  1  0  0  0  0  0999 V2000
  187.4560  176.7450  142.1410 C   0  0  0  0  0  0  0  0  0  0  0  0
  189.5890  172.2520  140.5690 C   0  0  0  0  0  0  0  0  0  0  0  0
  186.4750  176.6560  144.7930 C   0  0  1  0  0  3  0  0  0  0  0  0
  187.5810  176.3870  140.8380 N   0  0  0  0  0  0  0  0  0  0  0  0
  189.6250  172.9370  143.2690 C   0  0  0  0  0  3  0  0  0  0  0  0
  186.5940  177.7820  142.5980 N   0  0  0  0  0  2  0  0  0  0  0  0
  187.5960  176.9480  147.0470 N   0  0  0  0  0  2  0  0  0  0  0  0
  186.4650  178.0100  144.0400 C   0  0  1  0  0  3  0  0  0  0  0  0
  188.8750  176.7390  146.4350 C   0  0  0  0  0  0  0  0  0  0  0  0
  188.3410  175.2740  140.9080 C   0  0  1  0  0  3  0  0  0  0  0  0
  188.5680  174.9480  142.2110 C   0  0  2  0  0  3  0  0  0  0  0  0
  190.4770  171.9230  142.7920 C   0  0  0  0  0  3  0  0  0  0  0  0
  187.7330  175.8160  144.4380 C   0  0  2  0  0  3  0  0  0  0  0  0
  185.2750  176.9230  146.8520 O   0  0  0  0  0  0  0  0  0  0  0  0
  188.7060  173.5140  142.3860 C   0  0  0  0  0  0  0  0  0  0  0  0
  188.5730  173.0180  141.0930 C   0  0  0  0  0  0  0  0  0  0  0  0
  188.1930  174.0390  140.0770 C   0  0  2  0  0  3  0  0  0  0  0  0
  188.9590  176.2620  145.1910 C   0  0  0  0  0  3  0  0  0  0  0  0
  187.9940  175.8590  143.0020 N   0  0  0  0  0  0  0  0  0  0  0  0
  189.2380  173.8470  139.0700 N   0  0  0  0  0  0  0  0  0  0  0  0
  186.3950  176.8370  146.2820 C   0  0  0  0  0  0  0  0  0  0  0  0
  189.9690  172.8320  139.3270 N   0  0  0  0  0  0  0  0  0  0  0  0
  190.4910  171.5900  141.4230 C   0  0  0  0  0  0  0  0  0  0  0  0
  191.5050  169.3060  140.8960 C   0  0  0  0  0  0  0  0  0  0  0  0
  190.6030  168.6670  141.5050 O   0  0  0  0  0  0  0  0  0  0  0  0
  191.5340  170.7380  140.9300 N   0  0  0  0  0  2  0  0  0  0  0  0
  192.5130  168.6250  140.2120 O   0  0  0  0  0  0  0  0  0  0  0  0
  192.6770  168.7430  138.8070 C   0  0  0  0  0  1  0  0  0  0  0  0
  185.2350  178.7470  144.3090 N   0  0  0  0  0  0  0  0  0  0  0  0
  185.5660  179.7910  145.2930 C   0  0  0  0  0  2  0  0  0  0  0  0
  185.4510  180.1420  143.8880 C   0  0  0  0  0  2  0  0  0  0  0  0
  190.1130  177.1300  147.1600 C   0  0  0  0  0  2  0  0  0  0  0  0
  190.7960  175.9410  147.6370 N   0  0  0  0  0  1  0  0  0  0  0  0
  1  6  1  0  0  0  0
  1 19  1  0  0  0  0
  2 16  2  0  0  0  0
  2 23  1  0  0  0  0
  3 21  1  1  0  0  0
  4  1  2  0  0  0  0
  6  8  1  0  0  0  0
  8 29  1  6  0  0  0
  8  3  1  0  0  0  0
  9  7  1  0  0  0  0
  9 32  1  0  0  0  0
 10  4  1  1  0  0  0
 10 11  1  0  0  0  0
 11 15  1  1  0  0  0
 11 19  1  0  0  0  0
 12  5  1  0  0  0  0
 13  3  1  0  0  0  0
 13 18  1  1  0  0  0
 15  5  2  0  0  0  0
 16 15  1  0  0  0  0
 17 20  1  6  0  0  0
 17 10  1  0  0  0  0
 17 16  1  0  0  0  0
 18  9  2  0  0  0  0
 19 13  1  0  0  0  0
 20 22  2  0  0  0  0
 21 14  2  0  0  0  0
 21  7  1  0  0  0  0
 22  2  1  0  0  0  0
 23 12  2  0  0  0  0
 24 26  1  0  0  0  0
 24 25  2  0  0  0  0
 26 23  1  0  0  0  0
 27 24  1  0  0  0  0
 28 27  1  0  0  0  0
 29 30  1  0  0  0  0
 31 29  1  0  0  0  0
 31 30  1  0  0  0  0
 32 33  1  0  0  0  0
M  END
>  <MODEL>
4

>  <REMARK>
 VINA RESULT:      -7.5      4.397      5.987
  Name = 
  4 active torsions:
  status: ('A' for Active; 'I' for Inactive)
    1  A    between atoms: C_2  and  O_25
    2  A    between atoms: C_6  and  C_11
    3  A    between atoms: C_10  and  N_13
    4  A    between atoms: N_24  and  C_32
                            x       y       z     vdW  Elec       q    Type
                         _______ _______ _______ _____ _____    ______ ____

>  <TORSDO>
F 4

$$$$
=
 OpenBabel11042416163D

 33 39  0  0  1  0  0  0  0  0999 V2000
  193.3390  175.3170  145.9020 C   0  0  0  0  0  0  0  0  0  0  0  0
  188.2800  176.5650  146.1190 C   0  0  0  0  0  0  0  0  0  0  0  0
  193.8610  173.0050  144.3560 C   0  0  1  0  0  3  0  0  0  0  0  0
  192.7920  176.0650  146.8920 N   0  0  0  0  0  0  0  0  0  0  0  0
  189.2850  175.2230  143.8950 C   0  0  0  0  0  3  0  0  0  0  0  0
  194.6160  174.6930  145.9940 N   0  0  0  0  0  2  0  0  0  0  0  0
  194.1510  172.6370  141.8650 N   0  0  0  0  0  2  0  0  0  0  0  0
  195.0590  173.8240  144.9010 C   0  0  1  0  0  3  0  0  0  0  0  0
  193.5380  173.9060  141.6090 C   0  0  0  0  0  0  0  0  0  0  0  0
  191.5390  176.2850  146.4390 C   0  0  1  0  0  3  0  0  0  0  0  0
  191.3420  175.6080  145.2730 C   0  0  2  0  0  3  0  0  0  0  0  0
  188.0310  175.8580  143.8220 C   0  0  0  0  0  3  0  0  0  0  0  0
  192.6850  173.9290  143.9370 C   0  0  2  0  0  3  0  0  0  0  0  0
  194.7020  170.9730  143.3990 O   0  0  0  0  0  0  0  0  0  0  0  0
  189.9580  175.2000  145.1210 C   0  0  0  0  0  0  0  0  0  0  0  0
  189.3450  175.7070  146.2630 C   0  0  0  0  0  0  0  0  0  0  0  0
  190.2860  176.2990  147.2560 C   0  0  2  0  0  3  0  0  0  0  0  0
  192.8940  174.5550  142.5820 C   0  0  0  0  0  3  0  0  0  0  0  0
  192.4680  174.9730  144.9330 N   0  0  0  0  0  0  0  0  0  0  0  0
  189.6970  177.6250  147.4540 N   0  0  0  0  0  0  0  0  0  0  0  0
  194.2540  172.1320  143.1980 C   0  0  0  0  0  0  0  0  0  0  0  0
  188.5720  177.7420  146.8630 N   0  0  0  0  0  0  0  0  0  0  0  0
  187.5260  176.5680  144.9300 C   0  0  0  0  0  0  0  0  0  0  0  0
  185.2310  177.4560  145.6090 C   0  0  0  0  0  0  0  0  0  0  0  0
  185.0660  176.5910  146.5130 O   0  0  0  0  0  0  0  0  0  0  0  0
  186.3750  177.4040  144.7500 N   0  0  0  0  0  2  0  0  0  0  0  0
  184.2790  178.4560  145.4070 O   0  0  0  0  0  0  0  0  0  0  0  0
  184.0640  179.0410  144.1320 C   0  0  0  0  0  1  0  0  0  0  0  0
  196.1190  172.9410  145.3780 N   0  0  0  0  0  0  0  0  0  0  0  0
  197.3210  173.2450  144.5840 C   0  0  0  0  0  2  0  0  0  0  0  0
  197.1920  173.7900  145.9250 C   0  0  0  0  0  2  0  0  0  0  0  0
  193.6880  174.5420  140.2730 C   0  0  0  0  0  2  0  0  0  0  0  0
  194.6030  175.6660  140.3660 N   0  0  0  0  0  1  0  0  0  0  0  0
  1  6  1  0  0  0  0
  1  4  2  0  0  0  0
  2 16  1  0  0  0  0
  2 22  1  0  0  0  0
  3 21  1  6  0  0  0
  3  8  1  0  0  0  0
  5 15  1  0  0  0  0
  7 21  1  0  0  0  0
  8 29  1  1  0  0  0
  8  6  1  0  0  0  0
  9  7  1  0  0  0  0
  9 18  2  0  0  0  0
 10  4  1  1  0  0  0
 10 17  1  0  0  0  0
 11 15  1  1  0  0  0
 11 10  1  0  0  0  0
 12  5  2  0  0  0  0
 12 23  1  0  0  0  0
 13 18  1  6  0  0  0
 13  3  1  0  0  0  0
 13 19  1  0  0  0  0
 15 16  2  0  0  0  0
 17 16  1  6  0  0  0
 17 20  1  0  0  0  0
 19 11  1  0  0  0  0
 19  1  1  0  0  0  0
 21 14  2  0  0  0  0
 22 20  2  0  0  0  0
 23  2  2  0  0  0  0
 24 25  2  0  0  0  0
 26 23  1  0  0  0  0
 26 24  1  0  0  0  0
 27 24  1  0  0  0  0
 28 27  1  0  0  0  0
 29 31  1  0  0  0  0
 30 29  1  0  0  0  0
 30 31  1  0  0  0  0
 32 33  1  0  0  0  0
 32  9  1  0  0  0  0
M  END
>  <MODEL>
5

>  <REMARK>
 VINA RESULT:      -7.4      2.515      8.460
  Name = 
  4 active torsions:
  status: ('A' for Active; 'I' for Inactive)
    1  A    between atoms: C_2  and  O_25
    2  A    between atoms: C_6  and  C_11
    3  A    between atoms: C_10  and  N_13
    4  A    between atoms: N_24  and  C_32
                            x       y       z     vdW  Elec       q    Type
                         _______ _______ _______ _____ _____    ______ ____

>  <TORSDO>
F 4

$$$$
=
 OpenBabel11042416163D

 33 39  0  0  1  0  0  0  0  0999 V2000
  192.9360  174.9320  144.9270 C   0  0  0  0  0  0  0  0  0  0  0  0
  188.0130  176.4140  144.0510 C   0  0  0  0  0  0  0  0  0  0  0  0
  193.3390  172.1460  144.6410 C   0  0  1  0  0  3  0  0  0  0  0  0
  192.3980  176.0770  145.4170 N   0  0  0  0  0  0  0  0  0  0  0  0
  189.0320  174.1560  142.7760 C   0  0  0  0  0  3  0  0  0  0  0  0
  194.1400  174.3500  145.4180 N   0  0  0  0  0  2  0  0  0  0  0  0
  193.7560  170.6720  142.6210 N   0  0  0  0  0  2  0  0  0  0  0  0
  194.5710  173.0570  144.8800 C   0  0  1  0  0  3  0  0  0  0  0  0
  193.2840  171.7180  141.7640 C   0  0  0  0  0  0  0  0  0  0  0  0
  191.2030  176.1340  144.7900 C   0  0  1  0  0  3  0  0  0  0  0  0
  191.0210  175.0140  144.0360 C   0  0  2  0  0  3  0  0  0  0  0  0
  187.8510  174.7560  142.3000 C   0  0  0  0  0  3  0  0  0  0  0  0
  192.2850  172.8410  143.7360 C   0  0  2  0  0  3  0  0  0  0  0  0
  194.0460  169.8590  144.7850 O   0  0  0  0  0  0  0  0  0  0  0  0
  189.6180  174.6560  143.9430 C   0  0  0  0  0  0  0  0  0  0  0  0
  188.9810  175.6590  144.6700 C   0  0  0  0  0  0  0  0  0  0  0  0
  189.9060  176.5850  145.3820 C   0  0  2  0  0  3  0  0  0  0  0  0
  192.6410  172.7720  142.2730 C   0  0  0  0  0  3  0  0  0  0  0  0
  192.1020  174.2340  144.1320 N   0  0  0  0  0  0  0  0  0  0  0  0
  189.4330  177.8850  144.9060 N   0  0  0  0  0  0  0  0  0  0  0  0
  193.7240  170.8230  144.0410 C   0  0  0  0  0  0  0  0  0  0  0  0
  188.3650  177.7820  144.2140 N   0  0  0  0  0  0  0  0  0  0  0  0
  187.3430  175.9170  142.9160 C   0  0  0  0  0  0  0  0  0  0  0  0
  186.4420  177.5210  141.1460 C   0  0  0  0  0  0  0  0  0  0  0  0
  187.5890  177.8850  140.7640 O   0  0  0  0  0  0  0  0  0  0  0  0
  186.2900  176.6410  142.2660 N   0  0  0  0  0  2  0  0  0  0  0  0
  185.3000  178.0030  140.5050 O   0  0  0  0  0  0  0  0  0  0  0  0
  184.0820  178.2150  141.2020 C   0  0  0  0  0  1  0  0  0  0  0  0
  195.5090  172.4310  145.8060 N   0  0  0  0  0  0  0  0  0  0  0  0
  196.7400  172.1530  145.0470 C   0  0  0  0  0  2  0  0  0  0  0  0
  196.6820  173.3160  145.9170 C   0  0  0  0  0  2  0  0  0  0  0  0
  193.5800  171.6690  140.3080 C   0  0  0  0  0  2  0  0  0  0  0  0
  192.3470  171.4860  139.5630 N   0  0  0  0  0  1  0  0  0  0  0  0
  1  4  2  0  0  0  0
  1  6  1  0  0  0  0
  2 22  1  0  0  0  0
  2 16  1  0  0  0  0
  3 21  1  6  0  0  0
  3  8  1  0  0  0  0
  5 15  1  0  0  0  0
  7 21  1  0  0  0  0
  8  6  1  0  0  0  0
  8 29  1  1  0  0  0
  9 18  2  0  0  0  0
  9  7  1  0  0  0  0
 10 17  1  0  0  0  0
 10  4  1  1  0  0  0
 11 15  1  1  0  0  0
 11 19  1  0  0  0  0
 11 10  1  0  0  0  0
 12  5  2  0  0  0  0
 12 23  1  0  0  0  0
 13 18  1  6  0  0  0
 13 19  1  0  0  0  0
 13  3  1  0  0  0  0
 15 16  2  0  0  0  0
 17 16  1  6  0  0  0
 19  1  1  0  0  0  0
 20 17  1  0  0  0  0
 21 14  2  0  0  0  0
 22 20  2  0  0  0  0
 23  2  2  0  0  0  0
 24 26  1  0  0  0  0
 25 24  2  0  0  0  0
 26 23  1  0  0  0  0
 27 24  1  0  0  0  0
 27 28  1  0  0  0  0
 29 31  1  0  0  0  0
 30 29  1  0  0  0  0
 30 31  1  0  0  0  0
 32  9  1  0  0  0  0
 33 32  1  0  0  0  0
M  END
>  <MODEL>
6

>  <REMARK>
 VINA RESULT:      -7.3      3.276      8.490
  Name = 
  4 active torsions:
  status: ('A' for Active; 'I' for Inactive)
    1  A    between atoms: C_2  and  O_25
    2  A    between atoms: C_6  and  C_11
    3  A    between atoms: C_10  and  N_13
    4  A    between atoms: N_24  and  C_32
                            x       y       z     vdW  Elec       q    Type
                         _______ _______ _______ _____ _____    ______ ____

>  <TORSDO>
F 4

$$$$
=
 OpenBabel11042416163D

 33 39  0  0  1  0  0  0  0  0999 V2000
  192.3810  173.4200  142.8040 C   0  0  0  0  0  0  0  0  0  0  0  0
  187.7920  175.7800  142.0430 C   0  0  0  0  0  0  0  0  0  0  0  0
  194.5950  175.1670  142.5760 C   0  0  1  0  0  3  0  0  0  0  0  0
  191.2540  172.7670  142.4210 N   0  0  0  0  0  0  0  0  0  0  0  0
  189.9470  177.2260  143.0570 C   0  0  0  0  0  3  0  0  0  0  0  0
  193.6900  172.8710  142.6920 N   0  0  0  0  0  2  0  0  0  0  0  0
  195.6880  176.7720  144.2060 N   0  0  0  0  0  2  0  0  0  0  0  0
  194.8410  173.7090  143.0420 C   0  0  1  0  0  3  0  0  0  0  0  0
  194.5180  176.7250  145.0320 C   0  0  0  0  0  0  0  0  0  0  0  0
  190.3060  173.7210  142.5390 C   0  0  1  0  0  3  0  0  0  0  0  0
  190.8800  174.9070  142.8870 C   0  0  2  0  0  3  0  0  0  0  0  0
  188.6420  177.7430  143.1680 C   0  0  0  0  0  3  0  0  0  0  0  0
  193.2610  175.7280  143.1420 C   0  0  2  0  0  3  0  0  0  0  0  0
  196.7200  176.2110  142.1940 O   0  0  0  0  0  0  0  0  0  0  0  0
  190.1410  176.0350  142.3510 C   0  0  0  0  0  0  0  0  0  0  0  0
  189.0750  175.4350  141.6860 C   0  0  0  0  0  0  0  0  0  0  0  0
  189.1510  173.9480  141.6160 C   0  0  2  0  0  3  0  0  0  0  0  0
  193.3860  176.1880  144.5710 C   0  0  0  0  0  3  0  0  0  0  0  0
  192.1970  174.7350  143.0360 N   0  0  0  0  0  0  0  0  0  0  0  0
  187.8470  173.5680  142.1590 N   0  0  0  0  0  0  0  0  0  0  0  0
  195.7260  176.0800  142.9560 C   0  0  0  0  0  0  0  0  0  0  0  0
  187.0910  174.5800  142.3450 N   0  0  0  0  0  0  0  0  0  0  0  0
  187.5410  177.0070  142.6890 C   0  0  0  0  0  0  0  0  0  0  0  0
  185.6560  177.4570  144.3510 C   0  0  0  0  0  0  0  0  0  0  0  0
  186.2470  176.8880  145.3100 O   0  0  0  0  0  0  0  0  0  0  0  0
  186.2180  177.4380  143.0340 N   0  0  0  0  0  2  0  0  0  0  0  0
  184.4250  178.0820  144.5520 O   0  0  0  0  0  0  0  0  0  0  0  0
  184.0730  178.6620  145.7980 C   0  0  0  0  0  1  0  0  0  0  0  0
  196.0470  173.1630  142.4290 N   0  0  0  0  0  0  0  0  0  0  0  0
  197.0340  172.9860  143.5070 C   0  0  0  0  0  2  0  0  0  0  0  0
  196.2860  171.8370  143.0240 C   0  0  0  0  0  2  0  0  0  0  0  0
  194.5880  177.2060  146.4370 C   0  0  0  0  0  2  0  0  0  0  0  0
  193.3690  176.8440  147.1390 N   0  0  0  0  0  1  0  0  0  0  0  0
  1 19  1  0  0  0  0
  2 22  1  0  0  0  0
  2 23  1  0  0  0  0
  3 21  1  1  0  0  0
  3  8  1  0  0  0  0
  3 13  1  0  0  0  0
  4  1  2  0  0  0  0
  5 12  1  0  0  0  0
  6  1  1  0  0  0  0
  6  8  1  0  0  0  0
  7  9  1  0  0  0  0
  8 29  1  6  0  0  0
  9 32  1  0  0  0  0
 10  4  1  6  0  0  0
 10 11  1  0  0  0  0
 11 15  1  6  0  0  0
 11 19  1  0  0  0  0
 13 18  1  1  0  0  0
 14 21  2  0  0  0  0
 15  5  2  0  0  0  0
 16  2  2  0  0  0  0
 16 15  1  0  0  0  0
 17 16  1  1  0  0  0
 17 20  1  0  0  0  0
 17 10  1  0  0  0  0
 18  9  2  0  0  0  0
 19 13  1  0  0  0  0
 20 22  2  0  0  0  0
 21  7  1  0  0  0  0
 23 26  1  0  0  0  0
 23 12  2  0  0  0  0
 24 27  1  0  0  0  0
 24 25  2  0  0  0  0
 26 24  1  0  0  0  0
 27 28  1  0  0  0  0
 29 31  1  0  0  0  0
 29 30  1  0  0  0  0
 31 30  1  0  0  0  0
 32 33  1  0  0  0  0
M  END
>  <MODEL>
7

>  <REMARK>
 VINA RESULT:      -7.1      2.504      8.776
  Name = 
  4 active torsions:
  status: ('A' for Active; 'I' for Inactive)
    1  A    between atoms: C_2  and  O_25
    2  A    between atoms: C_6  and  C_11
    3  A    between atoms: C_10  and  N_13
    4  A    between atoms: N_24  and  C_32
                            x       y       z     vdW  Elec       q    Type
                         _______ _______ _______ _____ _____    ______ ____

>  <TORSDO>
F 4

$$$$
=
 OpenBabel11042416163D

 33 39  0  0  1  0  0  0  0  0999 V2000
  192.7490  175.8870  144.4090 C   0  0  0  0  0  0  0  0  0  0  0  0
  187.5660  176.4580  144.5190 C   0  0  0  0  0  0  0  0  0  0  0  0
  193.5860  173.4280  143.2880 C   0  0  1  0  0  3  0  0  0  0  0  0
  192.1030  176.7200  145.2630 N   0  0  0  0  0  0  0  0  0  0  0  0
  188.7490  174.8870  142.5460 C   0  0  0  0  0  3  0  0  0  0  0  0
  194.1000  175.4680  144.5820 N   0  0  0  0  0  2  0  0  0  0  0  0
  193.9270  172.6610  140.8960 N   0  0  0  0  0  2  0  0  0  0  0  0
  194.6600  174.4850  143.6510 C   0  0  1  0  0  3  0  0  0  0  0  0
  193.1460  173.7690  140.4330 C   0  0  0  0  0  0  0  0  0  0  0  0
  190.8320  176.6830  144.8080 C   0  0  1  0  0  3  0  0  0  0  0  0
  190.7320  175.7880  143.7860 C   0  0  2  0  0  3  0  0  0  0  0  0
  187.4200  175.3230  142.3910 C   0  0  0  0  0  3  0  0  0  0  0  0
  192.2940  174.0940  142.7390 C   0  0  2  0  0  3  0  0  0  0  0  0
  194.6980  171.3900  142.6890 O   0  0  0  0  0  0  0  0  0  0  0  0
  189.4170  175.1760  143.7410 C   0  0  0  0  0  0  0  0  0  0  0  0
  188.7390  175.7910  144.7890 C   0  0  0  0  0  0  0  0  0  0  0  0
  189.5880  176.6740  145.6380 C   0  0  2  0  0  3  0  0  0  0  0  0
  192.4180  174.4890  141.2900 C   0  0  0  0  0  3  0  0  0  0  0  0
  191.9340  175.2600  143.5380 N   0  0  0  0  0  0  0  0  0  0  0  0
  188.8230  177.9220  145.6100 N   0  0  0  0  0  0  0  0  0  0  0  0
  194.0960  172.4220  142.2950 C   0  0  0  0  0  0  0  0  0  0  0  0
  187.6930  177.7770  145.0340 N   0  0  0  0  0  0  0  0  0  0  0  0
  186.8210  176.1450  143.3660 C   0  0  0  0  0  0  0  0  0  0  0  0
  185.3820  177.9450  142.2660 C   0  0  0  0  0  0  0  0  0  0  0  0
  186.3710  178.6470  141.9170 O   0  0  0  0  0  0  0  0  0  0  0  0
  185.5660  176.7720  143.0670 N   0  0  0  0  0  2  0  0  0  0  0  0
  184.0880  178.3230  141.9090 O   0  0  0  0  0  0  0  0  0  0  0  0
  183.6420  178.2910  140.5620 C   0  0  0  0  0  1  0  0  0  0  0  0
  195.8290  173.8540  144.2530 N   0  0  0  0  0  0  0  0  0  0  0  0
  196.9510  174.0500  143.3190 C   0  0  0  0  0  2  0  0  0  0  0  0
  196.8320  174.9080  144.4860 C   0  0  0  0  0  2  0  0  0  0  0  0
  193.2090  174.1690  139.0020 C   0  0  0  0  0  2  0  0  0  0  0  0
  192.0130  173.7140  138.3140 N   0  0  0  0  0  1  0  0  0  0  0  0
  1  6  1  0  0  0  0
  1  4  2  0  0  0  0
  2 16  1  0  0  0  0
  2 22  1  0  0  0  0
  3 21  1  6  0  0  0
  3  8  1  0  0  0  0
  5 15  1  0  0  0  0
  7 21  1  0  0  0  0
  8 29  1  1  0  0  0
  8  6  1  0  0  0  0
  9  7  1  0  0  0  0
  9 18  2  0  0  0  0
 10  4  1  1  0  0  0
 10 17  1  0  0  0  0
 11 15  1  1  0  0  0
 11 10  1  0  0  0  0
 12  5  2  0  0  0  0
 12 23  1  0  0  0  0
 13 18  1  6  0  0  0
 13  3  1  0  0  0  0
 13 19  1  0  0  0  0
 15 16  2  0  0  0  0
 17 16  1  6  0  0  0
 19 11  1  0  0  0  0
 19  1  1  0  0  0  0
 20 17  1  0  0  0  0
 21 14  2  0  0  0  0
 22 20  2  0  0  0  0
 23  2  2  0  0  0  0
 24 26  1  0  0  0  0
 25 24  2  0  0  0  0
 26 23  1  0  0  0  0
 27 24  1  0  0  0  0
 28 27  1  0  0  0  0
 29 31  1  0  0  0  0
 30 29  1  0  0  0  0
 30 31  1  0  0  0  0
 32  9  1  0  0  0  0
 33 32  1  0  0  0  0
M  END
>  <MODEL>
8

>  <REMARK>
 VINA RESULT:      -7.1      2.719      8.364
  Name = 
  4 active torsions:
  status: ('A' for Active; 'I' for Inactive)
    1  A    between atoms: C_2  and  O_25
    2  A    between atoms: C_6  and  C_11
    3  A    between atoms: C_10  and  N_13
    4  A    between atoms: N_24  and  C_32
                            x       y       z     vdW  Elec       q    Type
                         _______ _______ _______ _____ _____    ______ ____

>  <TORSDO>
F 4

$$$$
=
 OpenBabel11042416163D

 33 39  0  0  1  0  0  0  0  0999 V2000
  193.2940  174.0740  145.7650 C   0  0  0  0  0  0  0  0  0  0  0  0
  188.6150  176.3600  146.0450 C   0  0  0  0  0  0  0  0  0  0  0  0
  193.2530  171.5920  144.4090 C   0  0  1  0  0  3  0  0  0  0  0  0
  192.9630  174.9950  146.7060 N   0  0  0  0  0  0  0  0  0  0  0  0
  189.2090  174.6700  143.9120 C   0  0  0  0  0  3  0  0  0  0  0  0
  194.4190  173.2070  145.8690 N   0  0  0  0  0  2  0  0  0  0  0  0
  193.3340  170.9790  141.9500 N   0  0  0  0  0  2  0  0  0  0  0  0
  194.6190  172.1820  144.8400 C   0  0  1  0  0  3  0  0  0  0  0  0
  192.9810  172.3240  141.6070 C   0  0  0  0  0  0  0  0  0  0  0  0
  191.7600  175.4340  146.2780 C   0  0  1  0  0  3  0  0  0  0  0  0
  191.3700  174.7250  145.1820 C   0  0  2  0  0  3  0  0  0  0  0  0
  188.1100  175.5450  143.8280 C   0  0  0  0  0  3  0  0  0  0  0  0
  192.2700  172.7050  143.9510 C   0  0  2  0  0  3  0  0  0  0  0  0
  193.6100  169.3610  143.6040 O   0  0  0  0  0  0  0  0  0  0  0  0
  189.9250  174.6030  145.1120 C   0  0  0  0  0  0  0  0  0  0  0  0
  189.4880  175.3130  146.2270 C   0  0  0  0  0  0  0  0  0  0  0  0
  190.5790  175.7720  147.1320 C   0  0  2  0  0  3  0  0  0  0  0  0
  192.5340  173.1660  142.5410 C   0  0  0  0  0  3  0  0  0  0  0  0
  192.3230  173.8450  144.8610 N   0  0  0  0  0  0  0  0  0  0  0  0
  190.2850  177.2020  147.2350 N   0  0  0  0  0  0  0  0  0  0  0  0
  193.3990  170.5690  143.3180 C   0  0  0  0  0  0  0  0  0  0  0  0
  189.1780  177.5050  146.6740 N   0  0  0  0  0  0  0  0  0  0  0  0
  187.8180  176.4270  144.8860 C   0  0  0  0  0  0  0  0  0  0  0  0
  185.6210  177.6290  145.3820 C   0  0  0  0  0  0  0  0  0  0  0  0
  185.1890  176.7150  146.1380 O   0  0  0  0  0  0  0  0  0  0  0  0
  186.8550  177.4680  144.6740 N   0  0  0  0  0  2  0  0  0  0  0  0
  184.8810  178.7970  145.1940 O   0  0  0  0  0  0  0  0  0  0  0  0
  185.2750  179.7930  144.2620 C   0  0  0  0  0  1  0  0  0  0  0  0
  195.4990  171.1390  145.3560 N   0  0  0  0  0  0  0  0  0  0  0  0
  196.6350  171.0350  144.4240 C   0  0  0  0  0  2  0  0  0  0  0  0
  196.7950  171.7650  145.6710 C   0  0  0  0  0  2  0  0  0  0  0  0
  193.1890  172.8090  140.2170 C   0  0  0  0  0  2  0  0  0  0  0  0
  192.1730  173.7910  139.8840 N   0  0  0  0  0  1  0  0  0  0  0  0
  1  6  1  0  0  0  0
  1  4  2  0  0  0  0
  2 16  1  0  0  0  0
  2 22  1  0  0  0  0
  3 21  1  6  0  0  0
  3  8  1  0  0  0  0
  5 15  1  0  0  0  0
  7 21  1  0  0  0  0
  8 29  1  1  0  0  0
  8  6  1  0  0  0  0
  9  7  1  0  0  0  0
  9 18  2  0  0  0  0
 10  4  1  1  0  0  0
 10 17  1  0  0  0  0
 11 15  1  1  0  0  0
 11 10  1  0  0  0  0
 12  5  2  0  0  0  0
 12 23  1  0  0  0  0
 13 18  1  6  0  0  0
 13  3  1  0  0  0  0
 13 19  1  0  0  0  0
 15 16  2  0  0  0  0
 17 16  1  6  0  0  0
 17 20  1  0  0  0  0
 19 11  1  0  0  0  0
 19  1  1  0  0  0  0
 21 14  2  0  0  0  0
 22 20  2  0  0  0  0
 23  2  2  0  0  0  0
 24 25  2  0  0  0  0
 26 23  1  0  0  0  0
 26 24  1  0  0  0  0
 27 24  1  0  0  0  0
 28 27  1  0  0  0  0
 29 31  1  0  0  0  0
 30 29  1  0  0  0  0
 30 31  1  0  0  0  0
 32  9  1  0  0  0  0
 33 32  1  0  0  0  0
M  END
>  <MODEL>
9

>  <REMARK>
 VINA RESULT:      -7.1      3.175      8.500
  Name = 
  4 active torsions:
  status: ('A' for Active; 'I' for Inactive)
    1  A    between atoms: C_2  and  O_25
    2  A    between atoms: C_6  and  C_11
    3  A    between atoms: C_10  and  N_13
    4  A    between atoms: N_24  and  C_32
                            x       y       z     vdW  Elec       q    Type
                         _______ _______ _______ _____ _____    ______ ____

>  <TORSDO>
F 4

$$$$
