=
 OpenBabel11042415363D

 39 42  0  0  1  0  0  0  0  0999 V2000
  189.0260  171.8900  143.0950 N   0  0  0  0  0  2  0  0  0  0  0  0
  190.0380  172.4470  142.5210 C   0  0  0  0  0  0  0  0  0  0  0  0
  189.8160  175.4030  142.8520 O   0  0  0  0  0  0  0  0  0  0  0  0
  192.0550  174.3950  144.3420 C   0  0  0  0  0  0  0  0  0  0  0  0
  191.8970  175.3860  145.1850 C   0  0  0  0  0  0  0  0  0  0  0  0
  191.1260  172.4740  141.4360 N   0  0  0  0  0  2  0  0  0  0  0  0
  190.7980  176.3950  144.9390 C   0  0  1  0  0  3  0  0  0  0  0  0
  190.9720  173.4610  142.4040 C   0  0  1  0  0  0  0  0  0  0  0  0
  190.4680  174.7170  141.8420 N   0  0  0  0  0  2  0  0  0  0  0  0
  190.7770  177.4960  142.8090 O   0  0  0  0  0  0  0  0  0  0  0  0
  190.4260  176.4910  143.4810 C   0  0  0  0  0  0  0  0  0  0  0  0
  192.0910  173.4970  143.3980 C   0  0  0  0  0  3  0  0  0  0  0  0
  189.2270  174.9230  145.9810 O   0  0  0  0  0  0  0  0  0  0  0  0
  188.8300  177.2100  146.2920 N   0  0  0  0  0  2  0  0  0  0  0  0
  187.6700  177.0900  147.1210 C   0  0  0  0  0  0  0  0  0  0  0  0
  187.3310  175.9700  147.5920 O   0  0  0  0  0  0  0  0  0  0  0  0
  189.5920  176.1120  145.7800 C   0  0  0  0  0  0  0  0  0  0  0  0
  186.8810  178.3250  147.4330 C   0  0  0  0  0  2  0  0  0  0  0  0
  185.4110  178.1930  147.0540 C   0  0  0  0  0  2  0  0  0  0  0  0
  185.3630  179.5900  143.9010 C   0  0  1  0  0  3  0  0  0  0  0  0
  185.0240  179.2500  146.0330 C   0  0  1  0  0  3  0  0  0  0  0  0
  183.9990  179.2780  144.0380 O   0  0  0  0  0  0  0  0  0  0  0  0
  186.0450  179.3930  145.1080 O   0  0  0  0  0  0  0  0  0  0  0  0
  183.8380  178.8460  145.3130 N   0  0  0  0  0  2  0  0  0  0  0  0
  185.9810  178.7700  142.7700 C   0  0  1  0  0  3  0  0  0  0  0  0
  187.1380  177.9390  143.2940 C   0  0  0  0  0  1  0  0  0  0  0  0
  184.9450  177.8770  142.0960 C   0  0  0  0  0  2  0  0  0  0  0  0
  184.8770  178.1570  140.6050 C   0  0  0  0  0  2  0  0  0  0  0  0
  183.7460  178.9230  140.3200 O   0  0  0  0  0  0  0  0  0  0  0  0
  182.6790  178.0320  140.4180 C   0  0  0  0  0  1  0  0  0  0  0  0
  192.7260  175.5150  146.3460 N   0  0  0  0  0  2  0  0  0  0  0  0
  193.8810  176.4050  146.4200 C   0  0  0  0  0  2  0  0  0  0  0  0
  196.4930  176.0280  143.7500 N   0  0  0  0  0  0  0  0  0  0  0  0
  195.6800  174.6990  146.0290 C   0  0  0  0  0  3  0  0  0  0  0  0
  196.7580  174.2170  145.2840 C   0  0  0  0  0  0  0  0  0  0  0  0
  197.1550  174.9030  144.1350 C   0  0  0  0  0  3  0  0  0  0  0  0
  195.0090  175.8510  145.6150 C   0  0  0  0  0  0  0  0  0  0  0  0
  195.4410  176.5140  144.4640 C   0  0  0  0  0  3  0  0  0  0  0  0
  197.4240  173.1070  145.6840 F   0  0  0  0  0  0  0  0  0  0  0  0
  2  1  2  0  0  0  0
  3 11  1  0  0  0  0
  4  5  2  0  0  0  0
  5 31  1  0  0  0  0
  6  8  1  0  0  0  0
  6  2  1  0  0  0  0
  7  5  1  0  0  0  0
  7 17  1  1  0  0  0
  8  2  1  0  0  0  0
  8 12  1  1  0  0  0
  9  8  1  0  0  0  0
  9  3  1  0  0  0  0
 10 11  2  0  0  0  0
 11  7  1  0  0  0  0
 12  4  2  0  0  0  0
 14 15  1  0  0  0  0
 15 18  1  0  0  0  0
 15 16  2  0  0  0  0
 17 13  2  0  0  0  0
 17 14  1  0  0  0  0
 19 18  1  0  0  0  0
 20 25  1  6  0  0  0
 20 22  1  0  0  0  0
 20 23  1  0  0  0  0
 21 19  1  1  0  0  0
 22 24  1  0  0  0  0
 23 21  1  0  0  0  0
 24 21  1  0  0  0  0
 25 26  1  1  0  0  0
 27 25  1  0  0  0  0
 28 27  1  0  0  0  0
 29 30  1  0  0  0  0
 29 28  1  0  0  0  0
 31 32  1  0  0  0  0
 33 36  2  0  0  0  0
 33 38  1  0  0  0  0
 35 39  1  0  0  0  0
 35 34  2  0  0  0  0
 36 35  1  0  0  0  0
 37 34  1  0  0  0  0
 37 32  1  0  0  0  0
 38 37  2  0  0  0  0
M  END
>  <MODEL>
1

>  <REMARK>
 VINA RESULT:      -7.7      0.000      0.000
  Name = 
  11 active torsions:
  status: ('A' for Active; 'I' for Inactive)
    1  A    between atoms: C_3  and  C_25
    2  A    between atoms: C_4  and  C_23
    3  A    between atoms: C_8  and  C_27
    4  A    between atoms: C_8  and  N_34
    5  A    between atoms: C_13  and  C_25
    6  A    between atoms: C_13  and  C_31
    7  A    between atoms: O_14  and  C_31
    8  A    between atoms: C_15  and  N_34
    9  A    between atoms: C_20  and  C_32
   10  A    between atoms: C_21  and  C_38
   11  A    between atoms: C_23  and  C_38
                            x       y       z     vdW  Elec       q    Type
                         _______ _______ _______ _____ _____    ______ ____

>  <TORSDO>
F 11

$$$$
=
 OpenBabel11042415363D

 39 42  0  0  1  0  0  0  0  0999 V2000
  194.4250  170.7540  145.3960 N   0  0  0  0  0  2  0  0  0  0  0  0
  195.4030  171.5880  145.2890 C   0  0  0  0  0  0  0  0  0  0  0  0
  194.7920  173.4980  143.0820 O   0  0  0  0  0  0  0  0  0  0  0  0
  194.7790  174.8560  145.6120 C   0  0  0  0  0  0  0  0  0  0  0  0
  193.9100  175.7030  145.1160 C   0  0  0  0  0  0  0  0  0  0  0  0
  196.8930  171.9430  145.4190 N   0  0  0  0  0  2  0  0  0  0  0  0
  193.4680  175.5470  143.6780 C   0  0  1  0  0  3  0  0  0  0  0  0
  195.9200  172.8330  144.9760 C   0  0  1  0  0  0  0  0  0  0  0  0
  196.0400  173.1220  143.5450 N   0  0  0  0  0  2  0  0  0  0  0  0
  195.1810  175.4970  142.0020 O   0  0  0  0  0  0  0  0  0  0  0  0
  194.5000  174.8430  142.8350 C   0  0  0  0  0  0  0  0  0  0  0  0
  195.6630  173.9550  145.9340 C   0  0  0  0  0  3  0  0  0  0  0  0
  192.0100  173.6780  144.0010 O   0  0  0  0  0  0  0  0  0  0  0  0
  191.0510  175.5390  142.9500 N   0  0  0  0  0  2  0  0  0  0  0  0
  189.7280  175.0130  142.8040 C   0  0  0  0  0  0  0  0  0  0  0  0
  189.3960  173.9430  143.3840 O   0  0  0  0  0  0  0  0  0  0  0  0
  192.1410  174.8590  143.5820 C   0  0  0  0  0  0  0  0  0  0  0  0
  188.7440  175.7720  141.9670 C   0  0  0  0  0  2  0  0  0  0  0  0
  187.2990  175.4800  142.3520 C   0  0  0  0  0  2  0  0  0  0  0  0
  185.4320  178.3030  143.0130 C   0  0  1  0  0  3  0  0  0  0  0  0
  186.3970  176.6420  141.9720 C   0  0  1  0  0  3  0  0  0  0  0  0
  186.4370  178.8720  142.2130 O   0  0  0  0  0  0  0  0  0  0  0  0
  185.5220  176.9060  143.0120 O   0  0  0  0  0  0  0  0  0  0  0  0
  187.1790  177.8360  141.7480 N   0  0  0  0  0  2  0  0  0  0  0  0
  185.5050  178.8670  144.4320 C   0  0  1  0  0  3  0  0  0  0  0  0
  185.3990  180.3810  144.4020 C   0  0  0  0  0  1  0  0  0  0  0  0
  184.4220  178.2740  145.3250 C   0  0  0  0  0  2  0  0  0  0  0  0
  185.0320  177.4080  146.4150 C   0  0  0  0  0  2  0  0  0  0  0  0
  184.9660  178.0750  147.6390 O   0  0  0  0  0  0  0  0  0  0  0  0
  186.2760  178.4790  147.8950 C   0  0  0  0  0  1  0  0  0  0  0  0
  193.3530  176.7520  145.9150 N   0  0  0  0  0  2  0  0  0  0  0  0
  192.5830  176.5190  147.1330 C   0  0  0  0  0  2  0  0  0  0  0  0
  189.1240  175.0590  147.0810 N   0  0  0  0  0  0  0  0  0  0  0  0
  190.4660  177.1980  145.9670 C   0  0  0  0  0  3  0  0  0  0  0  0
  189.1110  177.0030  145.6940 C   0  0  0  0  0  0  0  0  0  0  0  0
  188.4480  175.9160  146.2680 C   0  0  0  0  0  3  0  0  0  0  0  0
  191.1440  176.3050  146.7980 C   0  0  0  0  0  0  0  0  0  0  0  0
  190.4460  175.2330  147.3590 C   0  0  0  0  0  3  0  0  0  0  0  0
  188.4400  177.8710  144.8990 F   0  0  0  0  0  0  0  0  0  0  0  0
  2  1  2  0  0  0  0
  2  6  1  0  0  0  0
  3  9  1  0  0  0  0
  4 12  2  0  0  0  0
  5  4  2  0  0  0  0
  5 31  1  0  0  0  0
  7 17  1  1  0  0  0
  7  5  1  0  0  0  0
  8  2  1  0  0  0  0
  8  6  1  0  0  0  0
  8 12  1  1  0  0  0
  9  8  1  0  0  0  0
 10 11  2  0  0  0  0
 11  3  1  0  0  0  0
 11  7  1  0  0  0  0
 14 17  1  0  0  0  0
 15 14  1  0  0  0  0
 15 16  2  0  0  0  0
 17 13  2  0  0  0  0
 18 19  1  0  0  0  0
 18 15  1  0  0  0  0
 20 25  1  1  0  0  0
 21 19  1  1  0  0  0
 21 23  1  0  0  0  0
 22 20  1  0  0  0  0
 23 20  1  0  0  0  0
 24 21  1  0  0  0  0
 24 22  1  0  0  0  0
 25 26  1  6  0  0  0
 25 27  1  0  0  0  0
 27 28  1  0  0  0  0
 28 29  1  0  0  0  0
 29 30  1  0  0  0  0
 31 32  1  0  0  0  0
 33 38  1  0  0  0  0
 34 37  1  0  0  0  0
 35 34  2  0  0  0  0
 35 36  1  0  0  0  0
 36 33  2  0  0  0  0
 37 32  1  0  0  0  0
 37 38  2  0  0  0  0
 39 35  1  0  0  0  0
M  END
>  <MODEL>
2

>  <REMARK>
 VINA RESULT:      -7.6      2.975      5.405
  Name = 
  11 active torsions:
  status: ('A' for Active; 'I' for Inactive)
    1  A    between atoms: C_3  and  C_25
    2  A    between atoms: C_4  and  C_23
    3  A    between atoms: C_8  and  C_27
    4  A    between atoms: C_8  and  N_34
    5  A    between atoms: C_13  and  C_25
    6  A    between atoms: C_13  and  C_31
    7  A    between atoms: O_14  and  C_31
    8  A    between atoms: C_15  and  N_34
    9  A    between atoms: C_20  and  C_32
   10  A    between atoms: C_21  and  C_38
   11  A    between atoms: C_23  and  C_38
                            x       y       z     vdW  Elec       q    Type
                         _______ _______ _______ _____ _____    ______ ____

>  <TORSDO>
F 11

$$$$
=
 OpenBabel11042415363D

 39 42  0  0  1  0  0  0  0  0999 V2000
  195.3580  175.9980  140.7410 N   0  0  0  0  0  2  0  0  0  0  0  0
  195.9230  175.4320  141.7540 C   0  0  0  0  0  0  0  0  0  0  0  0
  194.6830  176.4890  144.2520 O   0  0  0  0  0  0  0  0  0  0  0  0
  194.0260  173.7150  143.9060 C   0  0  0  0  0  0  0  0  0  0  0  0
  192.9110  173.9320  144.5590 C   0  0  0  0  0  0  0  0  0  0  0  0
  197.1380  174.7750  142.4270 N   0  0  0  0  0  2  0  0  0  0  0  0
  192.6250  175.3190  145.0890 C   0  0  1  0  0  3  0  0  0  0  0  0
  195.9080  174.9510  143.0510 C   0  0  1  0  0  0  0  0  0  0  0  0
  195.9580  175.9740  144.1000 N   0  0  0  0  0  2  0  0  0  0  0  0
  194.2790  176.3100  146.5130 O   0  0  0  0  0  0  0  0  0  0  0  0
  193.8860  176.1080  145.3350 C   0  0  0  0  0  0  0  0  0  0  0  0
  195.1850  173.6670  143.3110 C   0  0  0  0  0  3  0  0  0  0  0  0
  192.0240  176.3220  143.0020 O   0  0  0  0  0  0  0  0  0  0  0  0
  190.4530  176.5510  144.7240 N   0  0  0  0  0  2  0  0  0  0  0  0
  189.4600  177.2650  143.9810 C   0  0  0  0  0  0  0  0  0  0  0  0
  189.5560  177.3810  142.7290 O   0  0  0  0  0  0  0  0  0  0  0  0
  191.6920  176.0700  144.1920 C   0  0  0  0  0  0  0  0  0  0  0  0
  188.2960  177.8520  144.7210 C   0  0  0  0  0  2  0  0  0  0  0  0
  188.1510  177.2870  146.1280 C   0  0  0  0  0  2  0  0  0  0  0  0
  184.9430  178.5420  145.9600 C   0  0  1  0  0  3  0  0  0  0  0  0
  186.7600  177.5610  146.6750 C   0  0  1  0  0  3  0  0  0  0  0  0
  184.6530  177.1680  146.0160 O   0  0  0  0  0  0  0  0  0  0  0  0
  186.3050  178.7750  146.1890 O   0  0  0  0  0  0  0  0  0  0  0  0
  185.8350  176.5420  146.2360 N   0  0  0  0  0  2  0  0  0  0  0  0
  184.4950  179.1220  144.6190 C   0  0  1  0  0  3  0  0  0  0  0  0
  185.4420  180.2230  144.1790 C   0  0  0  0  0  1  0  0  0  0  0  0
  184.3970  178.0410  143.5480 C   0  0  0  0  0  2  0  0  0  0  0  0
  185.1220  178.4660  142.2830 C   0  0  0  0  0  2  0  0  0  0  0  0
  186.0730  177.5040  141.9390 O   0  0  0  0  0  0  0  0  0  0  0  0
  186.2040  177.6120  140.5550 C   0  0  0  0  0  1  0  0  0  0  0  0
  191.9480  172.8900  144.7540 N   0  0  0  0  0  2  0  0  0  0  0  0
  191.4270  172.0560  143.6740 C   0  0  0  0  0  2  0  0  0  0  0  0
  190.2910  173.8090  140.5540 N   0  0  0  0  0  0  0  0  0  0  0  0
  189.3880  173.4170  143.1330 C   0  0  0  0  0  3  0  0  0  0  0  0
  188.6240  174.1550  142.2280 C   0  0  0  0  0  0  0  0  0  0  0  0
  189.0960  174.3430  140.9280 C   0  0  0  0  0  3  0  0  0  0  0  0
  190.6140  172.8830  142.7340 C   0  0  0  0  0  0  0  0  0  0  0  0
  191.0500  173.0850  141.4230 C   0  0  0  0  0  3  0  0  0  0  0  0
  187.4260  174.6680  142.6020 F   0  0  0  0  0  0  0  0  0  0  0  0
  1  2  2  0  0  0  0
  2  6  1  0  0  0  0
  2  8  1  0  0  0  0
  3 11  1  0  0  0  0
  4  5  2  0  0  0  0
  5 31  1  0  0  0  0
  5  7  1  0  0  0  0
  6  8  1  0  0  0  0
  7 17  1  6  0  0  0
  7 11  1  0  0  0  0
  8 12  1  1  0  0  0
  8  9  1  0  0  0  0
  9  3  1  0  0  0  0
 11 10  2  0  0  0  0
 12  4  2  0  0  0  0
 13 17  2  0  0  0  0
 15 18  1  0  0  0  0
 15 14  1  0  0  0  0
 16 15  2  0  0  0  0
 17 14  1  0  0  0  0
 18 19  1  0  0  0  0
 20 25  1  6  0  0  0
 20 22  1  0  0  0  0
 20 23  1  0  0  0  0
 21 19  1  6  0  0  0
 22 24  1  0  0  0  0
 23 21  1  0  0  0  0
 24 21  1  0  0  0  0
 25 26  1  6  0  0  0
 27 25  1  0  0  0  0
 28 27  1  0  0  0  0
 29 28  1  0  0  0  0
 30 29  1  0  0  0  0
 32 31  1  0  0  0  0
 33 36  2  0  0  0  0
 33 38  1  0  0  0  0
 35 39  1  0  0  0  0
 35 34  2  0  0  0  0
 36 35  1  0  0  0  0
 37 34  1  0  0  0  0
 37 32  1  0  0  0  0
 38 37  2  0  0  0  0
M  END
>  <MODEL>
3

>  <REMARK>
 VINA RESULT:      -7.5      2.682      4.958
  Name = 
  11 active torsions:
  status: ('A' for Active; 'I' for Inactive)
    1  A    between atoms: C_3  and  C_25
    2  A    between atoms: C_4  and  C_23
    3  A    between atoms: C_8  and  C_27
    4  A    between atoms: C_8  and  N_34
    5  A    between atoms: C_13  and  C_25
    6  A    between atoms: C_13  and  C_31
    7  A    between atoms: O_14  and  C_31
    8  A    between atoms: C_15  and  N_34
    9  A    between atoms: C_20  and  C_32
   10  A    between atoms: C_21  and  C_38
   11  A    between atoms: C_23  and  C_38
                            x       y       z     vdW  Elec       q    Type
                         _______ _______ _______ _____ _____    ______ ____

>  <TORSDO>
F 11

$$$$
=
 OpenBabel11042415363D

 39 42  0  0  1  0  0  0  0  0999 V2000
  187.4450  175.1690  142.2370 N   0  0  0  0  0  2  0  0  0  0  0  0
  187.7140  173.9290  142.0010 C   0  0  0  0  0  0  0  0  0  0  0  0
  190.4180  173.7580  140.7540 O   0  0  0  0  0  0  0  0  0  0  0  0
  190.4480  172.5830  143.3750 C   0  0  0  0  0  0  0  0  0  0  0  0
  191.7130  172.9130  143.4710 C   0  0  0  0  0  0  0  0  0  0  0  0
  187.2760  172.4950  141.6650 N   0  0  0  0  0  2  0  0  0  0  0  0
  192.3850  173.6080  142.3090 C   0  0  1  0  0  3  0  0  0  0  0  0
  188.5990  172.8760  141.8590 C   0  0  1  0  0  0  0  0  0  0  0  0
  189.3700  172.8670  140.6130 N   0  0  0  0  0  2  0  0  0  0  0  0
  192.2760  172.5270  140.1720 O   0  0  0  0  0  0  0  0  0  0  0  0
  191.7160  173.2990  140.9930 C   0  0  0  0  0  0  0  0  0  0  0  0
  189.2050  172.3020  143.1020 C   0  0  0  0  0  3  0  0  0  0  0  0
  193.5080  175.7170  142.1860 O   0  0  0  0  0  0  0  0  0  0  0  0
  191.3920  175.7550  143.1890 N   0  0  0  0  0  2  0  0  0  0  0  0
  191.3300  177.1610  143.4480 C   0  0  0  0  0  0  0  0  0  0  0  0
  192.1870  177.9430  142.9530 O   0  0  0  0  0  0  0  0  0  0  0  0
  192.4710  175.0870  142.5280 C   0  0  0  0  0  0  0  0  0  0  0  0
  190.2160  177.6840  144.3020 C   0  0  0  0  0  2  0  0  0  0  0  0
  189.4150  176.5710  144.9680 C   0  0  0  0  0  2  0  0  0  0  0  0
  186.5230  177.5990  146.5410 C   0  0  1  0  0  3  0  0  0  0  0  0
  188.6160  177.1130  146.1410 C   0  0  1  0  0  3  0  0  0  0  0  0
  186.8190  176.4640  147.3160 O   0  0  0  0  0  0  0  0  0  0  0  0
  187.5770  177.8970  145.6680 O   0  0  0  0  0  0  0  0  0  0  0  0
  188.0340  176.0290  146.8990 N   0  0  0  0  0  2  0  0  0  0  0  0
  185.2120  177.3940  145.7840 C   0  0  1  0  0  3  0  0  0  0  0  0
  184.2120  178.4720  146.1610 C   0  0  0  0  0  1  0  0  0  0  0  0
  185.4340  177.3760  144.2760 C   0  0  0  0  0  2  0  0  0  0  0  0
  184.4470  178.2920  143.5720 C   0  0  0  0  0  2  0  0  0  0  0  0
  184.9310  178.6220  142.3050 O   0  0  0  0  0  0  0  0  0  0  0  0
  186.3160  178.6720  142.4560 C   0  0  0  0  0  1  0  0  0  0  0  0
  192.4610  172.6510  144.6640 N   0  0  0  0  0  2  0  0  0  0  0  0
  193.7080  173.3320  145.0020 C   0  0  0  0  0  2  0  0  0  0  0  0
  192.0150  175.8130  147.2540 N   0  0  0  0  0  0  0  0  0  0  0  0
  194.3280  175.6450  145.7570 C   0  0  0  0  0  3  0  0  0  0  0  0
  194.0590  176.7920  146.5040 C   0  0  0  0  0  0  0  0  0  0  0  0
  192.8850  176.8590  147.2560 C   0  0  0  0  0  3  0  0  0  0  0  0
  193.4210  174.5840  145.7620 C   0  0  0  0  0  0  0  0  0  0  0  0
  192.2600  174.6840  146.5320 C   0  0  0  0  0  3  0  0  0  0  0  0
  194.9400  177.8220  146.5170 F   0  0  0  0  0  0  0  0  0  0  0  0
  2  1  2  0  0  0  0
  3 11  1  0  0  0  0
  4  5  2  0  0  0  0
  5 31  1  0  0  0  0
  6  8  1  0  0  0  0
  6  2  1  0  0  0  0
  7 17  1  1  0  0  0
  7  5  1  0  0  0  0
  8  2  1  0  0  0  0
  8 12  1  1  0  0  0
  9  3  1  0  0  0  0
  9  8  1  0  0  0  0
 10 11  2  0  0  0  0
 11  7  1  0  0  0  0
 12  4  2  0  0  0  0
 13 17  2  0  0  0  0
 14 15  1  0  0  0  0
 15 18  1  0  0  0  0
 16 15  2  0  0  0  0
 17 14  1  0  0  0  0
 18 19  1  0  0  0  0
 20 25  1  6  0  0  0
 20 22  1  0  0  0  0
 21 19  1  6  0  0  0
 21 24  1  0  0  0  0
 23 21  1  0  0  0  0
 23 20  1  0  0  0  0
 24 22  1  0  0  0  0
 25 26  1  6  0  0  0
 27 25  1  0  0  0  0
 28 27  1  0  0  0  0
 29 30  1  0  0  0  0
 29 28  1  0  0  0  0
 31 32  1  0  0  0  0
 32 37  1  0  0  0  0
 33 36  1  0  0  0  0
 34 37  2  0  0  0  0
 34 35  1  0  0  0  0
 35 39  1  0  0  0  0
 35 36  2  0  0  0  0
 37 38  1  0  0  0  0
 38 33  2  0  0  0  0
M  END
>  <MODEL>
4

>  <REMARK>
 VINA RESULT:      -7.4      2.307      4.097
  Name = 
  11 active torsions:
  status: ('A' for Active; 'I' for Inactive)
    1  A    between atoms: C_3  and  C_25
    2  A    between atoms: C_4  and  C_23
    3  A    between atoms: C_8  and  C_27
    4  A    between atoms: C_8  and  N_34
    5  A    between atoms: C_13  and  C_25
    6  A    between atoms: C_13  and  C_31
    7  A    between atoms: O_14  and  C_31
    8  A    between atoms: C_15  and  N_34
    9  A    between atoms: C_20  and  C_32
   10  A    between atoms: C_21  and  C_38
   11  A    between atoms: C_23  and  C_38
                            x       y       z     vdW  Elec       q    Type
                         _______ _______ _______ _____ _____    ______ ____

>  <TORSDO>
F 11

$$$$
=
 OpenBabel11042415363D

 39 42  0  0  1  0  0  0  0  0999 V2000
  194.9840  176.6330  140.9480 N   0  0  0  0  0  2  0  0  0  0  0  0
  195.5690  175.9920  141.9030 C   0  0  0  0  0  0  0  0  0  0  0  0
  194.4680  176.9420  144.5060 O   0  0  0  0  0  0  0  0  0  0  0  0
  193.7030  174.2150  144.0320 C   0  0  0  0  0  0  0  0  0  0  0  0
  192.6220  174.4290  144.7420 C   0  0  0  0  0  0  0  0  0  0  0  0
  196.7870  175.2590  142.4860 N   0  0  0  0  0  2  0  0  0  0  0  0
  192.4060  175.7920  145.3620 C   0  0  1  0  0  3  0  0  0  0  0  0
  195.5900  175.4380  143.1700 C   0  0  1  0  0  0  0  0  0  0  0  0
  195.7170  176.3960  144.2720 N   0  0  0  0  0  2  0  0  0  0  0  0
  194.1490  176.6460  146.7690 O   0  0  0  0  0  0  0  0  0  0  0  0
  193.7020  176.5250  145.5990 C   0  0  0  0  0  0  0  0  0  0  0  0
  194.8340  174.1640  143.3870 C   0  0  0  0  0  3  0  0  0  0  0  0
  191.6250  177.8710  144.4740 O   0  0  0  0  0  0  0  0  0  0  0  0
  190.3470  175.9890  143.9170 N   0  0  0  0  0  2  0  0  0  0  0  0
  189.3790  176.6530  143.0980 C   0  0  0  0  0  0  0  0  0  0  0  0
  189.5510  177.8520  142.7470 O   0  0  0  0  0  0  0  0  0  0  0  0
  191.4640  176.6240  144.5480 C   0  0  0  0  0  0  0  0  0  0  0  0
  188.1720  175.8860  142.6500 C   0  0  0  0  0  2  0  0  0  0  0  0
  187.3890  176.6090  141.5610 C   0  0  0  0  0  2  0  0  0  0  0  0
  185.4430  177.9040  144.0970 C   0  0  1  0  0  3  0  0  0  0  0  0
  186.1280  177.2340  142.1320 C   0  0  1  0  0  3  0  0  0  0  0  0
  185.6230  179.0650  143.3260 O   0  0  0  0  0  0  0  0  0  0  0  0
  185.9310  176.7760  143.4250 O   0  0  0  0  0  0  0  0  0  0  0  0
  186.2600  178.6720  142.1950 N   0  0  0  0  0  2  0  0  0  0  0  0
  186.1060  178.0700  145.4630 C   0  0  1  0  0  3  0  0  0  0  0  0
  185.2800  178.9950  146.3400 C   0  0  0  0  0  1  0  0  0  0  0  0
  186.3120  176.7260  146.1520 C   0  0  0  0  0  2  0  0  0  0  0  0
  187.7350  176.5920  146.6650 C   0  0  0  0  0  2  0  0  0  0  0  0
  188.2540  175.3500  146.2980 O   0  0  0  0  0  0  0  0  0  0  0  0
  189.2100  175.0630  147.2720 C   0  0  0  0  0  1  0  0  0  0  0  0
  191.6330  173.4100  144.9190 N   0  0  0  0  0  2  0  0  0  0  0  0
  191.5440  172.2150  144.0840 C   0  0  0  0  0  2  0  0  0  0  0  0
  188.3010  172.3440  142.1980 N   0  0  0  0  0  0  0  0  0  0  0  0
  190.9500  172.9910  141.7710 C   0  0  0  0  0  3  0  0  0  0  0  0
  190.0040  173.2180  140.7710 C   0  0  0  0  0  0  0  0  0  0  0  0
  188.6680  172.8850  141.0040 C   0  0  0  0  0  3  0  0  0  0  0  0
  190.5550  172.4290  142.9860 C   0  0  0  0  0  0  0  0  0  0  0  0
  189.2090  172.1160  143.1860 C   0  0  0  0  0  3  0  0  0  0  0  0
  190.3750  173.7750  139.5920 F   0  0  0  0  0  0  0  0  0  0  0  0
  1  2  2  0  0  0  0
  2  6  1  0  0  0  0
  2  8  1  0  0  0  0
  3 11  1  0  0  0  0
  4  5  2  0  0  0  0
  5 31  1  0  0  0  0
  5  7  1  0  0  0  0
  6  8  1  0  0  0  0
  7 17  1  6  0  0  0
  7 11  1  0  0  0  0
  8 12  1  1  0  0  0
  8  9  1  0  0  0  0
  9  3  1  0  0  0  0
 11 10  2  0  0  0  0
 12  4  2  0  0  0  0
 13 17  2  0  0  0  0
 14 17  1  0  0  0  0
 15 14  1  0  0  0  0
 16 15  2  0  0  0  0
 18 15  1  0  0  0  0
 19 18  1  0  0  0  0
 20 25  1  1  0  0  0
 21 19  1  1  0  0  0
 21 24  1  0  0  0  0
 21 23  1  0  0  0  0
 22 20  1  0  0  0  0
 23 20  1  0  0  0  0
 24 22  1  0  0  0  0
 25 27  1  0  0  0  0
 25 26  1  1  0  0  0
 27 28  1  0  0  0  0
 29 28  1  0  0  0  0
 29 30  1  0  0  0  0
 32 31  1  0  0  0  0
 33 38  1  0  0  0  0
 34 37  1  0  0  0  0
 35 36  1  0  0  0  0
 35 34  2  0  0  0  0
 36 33  2  0  0  0  0
 37 38  2  0  0  0  0
 37 32  1  0  0  0  0
 39 35  1  0  0  0  0
M  END
>  <MODEL>
5

>  <REMARK>
 VINA RESULT:      -7.4      2.563      5.668
  Name = 
  11 active torsions:
  status: ('A' for Active; 'I' for Inactive)
    1  A    between atoms: C_3  and  C_25
    2  A    between atoms: C_4  and  C_23
    3  A    between atoms: C_8  and  C_27
    4  A    between atoms: C_8  and  N_34
    5  A    between atoms: C_13  and  C_25
    6  A    between atoms: C_13  and  C_31
    7  A    between atoms: O_14  and  C_31
    8  A    between atoms: C_15  and  N_34
    9  A    between atoms: C_20  and  C_32
   10  A    between atoms: C_21  and  C_38
   11  A    between atoms: C_23  and  C_38
                            x       y       z     vdW  Elec       q    Type
                         _______ _______ _______ _____ _____    ______ ____

>  <TORSDO>
F 11

$$$$
=
 OpenBabel11042415363D

 39 42  0  0  1  0  0  0  0  0999 V2000
  188.2630  173.0610  139.7470 N   0  0  0  0  0  2  0  0  0  0  0  0
  189.2950  172.2900  139.6750 C   0  0  0  0  0  0  0  0  0  0  0  0
  191.7470  173.9330  140.0990 O   0  0  0  0  0  0  0  0  0  0  0  0
  191.3660  172.1200  142.2930 C   0  0  0  0  0  0  0  0  0  0  0  0
  191.9770  172.9830  143.0690 C   0  0  0  0  0  0  0  0  0  0  0  0
  190.0120  171.0440  139.1310 N   0  0  0  0  0  2  0  0  0  0  0  0
  192.5010  174.2700  142.4710 C   0  0  1  0  0  3  0  0  0  0  0  0
  190.5890  171.9440  140.0210 C   0  0  1  0  0  0  0  0  0  0  0  0
  191.6420  172.7470  139.3950 N   0  0  0  0  0  2  0  0  0  0  0  0
  193.9910  174.0830  140.6020 O   0  0  0  0  0  0  0  0  0  0  0  0
  192.7970  174.1370  140.9980 C   0  0  0  0  0  0  0  0  0  0  0  0
  190.8160  171.3670  141.3840 C   0  0  0  0  0  3  0  0  0  0  0  0
  192.0140  176.4960  143.1970 O   0  0  0  0  0  0  0  0  0  0  0  0
  190.1700  175.2360  142.4910 N   0  0  0  0  0  2  0  0  0  0  0  0
  189.1710  176.2440  142.6730 C   0  0  0  0  0  0  0  0  0  0  0  0
  189.5000  177.4380  142.9130 O   0  0  0  0  0  0  0  0  0  0  0  0
  191.5700  175.4150  142.7260 C   0  0  0  0  0  0  0  0  0  0  0  0
  187.7290  175.8540  142.5520 C   0  0  0  0  0  2  0  0  0  0  0  0
  186.9420  176.7940  141.6470 C   0  0  0  0  0  2  0  0  0  0  0  0
  185.1370  177.9030  144.3680 C   0  0  1  0  0  3  0  0  0  0  0  0
  185.6840  177.2840  142.3450 C   0  0  1  0  0  3  0  0  0  0  0  0
  185.1040  179.0650  143.5790 O   0  0  0  0  0  0  0  0  0  0  0  0
  185.6760  176.8270  143.6530 O   0  0  0  0  0  0  0  0  0  0  0  0
  185.6600  178.7280  142.3890 N   0  0  0  0  0  2  0  0  0  0  0  0
  185.9150  178.1630  145.6570 C   0  0  1  0  0  3  0  0  0  0  0  0
  184.9830  178.6740  146.7410 C   0  0  0  0  0  1  0  0  0  0  0  0
  186.6480  176.9130  146.1290 C   0  0  0  0  0  2  0  0  0  0  0  0
  188.1450  177.1600  146.2080 C   0  0  0  0  0  2  0  0  0  0  0  0
  188.7390  176.2020  147.0310 O   0  0  0  0  0  0  0  0  0  0  0  0
  189.0540  175.1460  146.1770 C   0  0  0  0  0  1  0  0  0  0  0  0
  192.1320  172.7440  144.4720 N   0  0  0  0  0  2  0  0  0  0  0  0
  193.4100  172.8380  145.1720 C   0  0  0  0  0  2  0  0  0  0  0  0
  194.9420  176.2150  145.7570 N   0  0  0  0  0  0  0  0  0  0  0  0
  192.6450  174.8550  146.4570 C   0  0  0  0  0  3  0  0  0  0  0  0
  192.8400  176.1670  146.8880 C   0  0  0  0  0  0  0  0  0  0  0  0
  194.0080  176.8400  146.5240 C   0  0  0  0  0  3  0  0  0  0  0  0
  193.6170  174.2270  145.6770 C   0  0  0  0  0  0  0  0  0  0  0  0
  194.7690  174.9350  145.3260 C   0  0  0  0  0  3  0  0  0  0  0  0
  191.8960  176.7900  147.6360 F   0  0  0  0  0  0  0  0  0  0  0  0
  2  1  2  0  0  0  0
  2  8  1  0  0  0  0
  3 11  1  0  0  0  0
  4  5  2  0  0  0  0
  5 31  1  0  0  0  0
  6  2  1  0  0  0  0
  6  8  1  0  0  0  0
  7 17  1  6  0  0  0
  7  5  1  0  0  0  0
  8 12  1  1  0  0  0
  9  8  1  0  0  0  0
  9  3  1  0  0  0  0
 10 11  2  0  0  0  0
 11  7  1  0  0  0  0
 12  4  2  0  0  0  0
 14 15  1  0  0  0  0
 14 17  1  0  0  0  0
 15 16  2  0  0  0  0
 17 13  2  0  0  0  0
 18 15  1  0  0  0  0
 19 18  1  0  0  0  0
 20 25  1  1  0  0  0
 21 19  1  1  0  0  0
 21 24  1  0  0  0  0
 21 23  1  0  0  0  0
 22 20  1  0  0  0  0
 23 20  1  0  0  0  0
 24 22  1  0  0  0  0
 25 27  1  0  0  0  0
 25 26  1  1  0  0  0
 27 28  1  0  0  0  0
 28 29  1  0  0  0  0
 30 29  1  0  0  0  0
 31 32  1  0  0  0  0
 32 37  1  0  0  0  0
 33 36  1  0  0  0  0
 34 35  1  0  0  0  0
 35 39  1  0  0  0  0
 36 35  2  0  0  0  0
 37 34  2  0  0  0  0
 38 37  1  0  0  0  0
 38 33  2  0  0  0  0
M  END
>  <MODEL>
6

>  <REMARK>
 VINA RESULT:      -7.1      2.397      4.385
  Name = 
  11 active torsions:
  status: ('A' for Active; 'I' for Inactive)
    1  A    between atoms: C_3  and  C_25
    2  A    between atoms: C_4  and  C_23
    3  A    between atoms: C_8  and  C_27
    4  A    between atoms: C_8  and  N_34
    5  A    between atoms: C_13  and  C_25
    6  A    between atoms: C_13  and  C_31
    7  A    between atoms: O_14  and  C_31
    8  A    between atoms: C_15  and  N_34
    9  A    between atoms: C_20  and  C_32
   10  A    between atoms: C_21  and  C_38
   11  A    between atoms: C_23  and  C_38
                            x       y       z     vdW  Elec       q    Type
                         _______ _______ _______ _____ _____    ______ ____

>  <TORSDO>
F 11

$$$$
=
 OpenBabel11042415363D

 39 42  0  0  1  0  0  0  0  0999 V2000
  195.6480  176.3920  141.1510 N   0  0  0  0  0  2  0  0  0  0  0  0
  196.1580  176.3260  142.3340 C   0  0  0  0  0  0  0  0  0  0  0  0
  193.9700  176.6380  144.3360 O   0  0  0  0  0  0  0  0  0  0  0  0
  195.0470  173.9780  144.4390 C   0  0  0  0  0  0  0  0  0  0  0  0
  193.8750  173.5540  144.8430 C   0  0  0  0  0  0  0  0  0  0  0  0
  197.3220  176.5380  143.3140 N   0  0  0  0  0  2  0  0  0  0  0  0
  192.7560  174.5540  145.0370 C   0  0  1  0  0  3  0  0  0  0  0  0
  196.0870  176.0130  143.6800 C   0  0  1  0  0  0  0  0  0  0  0  0
  195.3080  176.9440  144.5010 N   0  0  0  0  0  2  0  0  0  0  0  0
  193.1840  176.4110  146.4910 O   0  0  0  0  0  0  0  0  0  0  0  0
  193.2720  175.9400  145.3270 C   0  0  0  0  0  0  0  0  0  0  0  0
  196.1470  174.5670  144.0640 C   0  0  0  0  0  3  0  0  0  0  0  0
  192.0610  173.8510  142.8580 O   0  0  0  0  0  0  0  0  0  0  0  0
  190.6940  175.4490  143.8900 N   0  0  0  0  0  2  0  0  0  0  0  0
  189.7120  175.5540  142.8540 C   0  0  0  0  0  0  0  0  0  0  0  0
  189.6980  174.7320  141.8980 O   0  0  0  0  0  0  0  0  0  0  0  0
  191.8210  174.5660  143.8670 C   0  0  0  0  0  0  0  0  0  0  0  0
  188.6890  176.6460  142.9450 C   0  0  0  0  0  2  0  0  0  0  0  0
  187.9400  176.8570  141.6350 C   0  0  0  0  0  2  0  0  0  0  0  0
  185.2000  177.5470  143.6120 C   0  0  1  0  0  3  0  0  0  0  0  0
  186.4560  177.0570  141.8930 C   0  0  1  0  0  3  0  0  0  0  0  0
  185.1650  178.6690  142.7680 O   0  0  0  0  0  0  0  0  0  0  0  0
  186.1460  176.6150  143.1680 O   0  0  0  0  0  0  0  0  0  0  0  0
  186.1160  178.4600  141.8230 N   0  0  0  0  0  2  0  0  0  0  0  0
  185.4750  177.9780  145.0520 C   0  0  1  0  0  3  0  0  0  0  0  0
  184.3520  178.8660  145.5590 C   0  0  0  0  0  1  0  0  0  0  0  0
  185.6600  176.7760  145.9710 C   0  0  0  0  0  2  0  0  0  0  0  0
  186.8800  176.9550  146.8580 C   0  0  0  0  0  2  0  0  0  0  0  0
  187.9480  177.4360  146.1000 O   0  0  0  0  0  0  0  0  0  0  0  0
  189.0820  177.1310  146.8510 C   0  0  0  0  0  1  0  0  0  0  0  0
  193.6260  172.1640  145.0790 N   0  0  0  0  0  2  0  0  0  0  0  0
  194.3200  171.0880  144.3770 C   0  0  0  0  0  2  0  0  0  0  0  0
  197.3180  169.6720  146.1390 N   0  0  0  0  0  0  0  0  0  0  0  0
  194.5690  169.5700  146.3610 C   0  0  0  0  0  3  0  0  0  0  0  0
  195.3710  168.8780  147.2700 C   0  0  0  0  0  0  0  0  0  0  0  0
  196.7600  168.9410  147.1420 C   0  0  0  0  0  3  0  0  0  0  0  0
  195.1590  170.3080  145.3340 C   0  0  0  0  0  0  0  0  0  0  0  0
  196.5520  170.3540  145.2430 C   0  0  0  0  0  3  0  0  0  0  0  0
  194.8080  168.1680  148.2780 F   0  0  0  0  0  0  0  0  0  0  0  0
  1  2  2  0  0  0  0
  2  6  1  0  0  0  0
  2  8  1  0  0  0  0
  3  9  1  0  0  0  0
  3 11  1  0  0  0  0
  4  5  2  0  0  0  0
  5  7  1  0  0  0  0
  5 31  1  0  0  0  0
  6  8  1  0  0  0  0
  7 17  1  6  0  0  0
  7 11  1  0  0  0  0
  8 12  1  1  0  0  0
  8  9  1  0  0  0  0
 11 10  2  0  0  0  0
 12  4  2  0  0  0  0
 13 17  2  0  0  0  0
 15 18  1  0  0  0  0
 15 14  1  0  0  0  0
 16 15  2  0  0  0  0
 17 14  1  0  0  0  0
 19 18  1  0  0  0  0
 20 25  1  1  0  0  0
 21 19  1  1  0  0  0
 21 23  1  0  0  0  0
 22 20  1  0  0  0  0
 23 20  1  0  0  0  0
 24 21  1  0  0  0  0
 24 22  1  0  0  0  0
 25 26  1  1  0  0  0
 25 27  1  0  0  0  0
 27 28  1  0  0  0  0
 29 30  1  0  0  0  0
 29 28  1  0  0  0  0
 32 31  1  0  0  0  0
 32 37  1  0  0  0  0
 33 36  1  0  0  0  0
 34 35  1  0  0  0  0
 35 39  1  0  0  0  0
 36 35  2  0  0  0  0
 37 34  2  0  0  0  0
 38 37  1  0  0  0  0
 38 33  2  0  0  0  0
M  END
>  <MODEL>
7

>  <REMARK>
 VINA RESULT:      -7.1      3.092      5.313
  Name = 
  11 active torsions:
  status: ('A' for Active; 'I' for Inactive)
    1  A    between atoms: C_3  and  C_25
    2  A    between atoms: C_4  and  C_23
    3  A    between atoms: C_8  and  C_27
    4  A    between atoms: C_8  and  N_34
    5  A    between atoms: C_13  and  C_25
    6  A    between atoms: C_13  and  C_31
    7  A    between atoms: O_14  and  C_31
    8  A    between atoms: C_15  and  N_34
    9  A    between atoms: C_20  and  C_32
   10  A    between atoms: C_21  and  C_38
   11  A    between atoms: C_23  and  C_38
                            x       y       z     vdW  Elec       q    Type
                         _______ _______ _______ _____ _____    ______ ____

>  <TORSDO>
F 11

$$$$
=
 OpenBabel11042415363D

 39 42  0  0  1  0  0  0  0  0999 V2000
  194.1460  177.1720  145.6430 N   0  0  0  0  0  2  0  0  0  0  0  0
  194.4950  175.9340  145.5330 C   0  0  0  0  0  0  0  0  0  0  0  0
  192.0370  174.2720  145.2350 O   0  0  0  0  0  0  0  0  0  0  0  0
  193.5710  174.2340  142.8070 C   0  0  0  0  0  0  0  0  0  0  0  0
  192.4550  174.0520  142.1440 C   0  0  0  0  0  0  0  0  0  0  0  0
  195.4550  174.7720  145.8320 N   0  0  0  0  0  2  0  0  0  0  0  0
  191.1530  173.9480  142.9070 C   0  0  1  0  0  3  0  0  0  0  0  0
  194.3030  174.6470  145.0640 C   0  0  1  0  0  0  0  0  0  0  0  0
  193.2590  173.8780  145.7480 N   0  0  0  0  0  2  0  0  0  0  0  0
  191.0240  172.2910  144.6350 O   0  0  0  0  0  0  0  0  0  0  0  0
  191.3550  173.4640  144.3200 C   0  0  0  0  0  0  0  0  0  0  0  0
  194.5810  174.3830  143.6170 C   0  0  0  0  0  3  0  0  0  0  0  0
  191.0180  176.3360  142.9760 O   0  0  0  0  0  0  0  0  0  0  0  0
  188.9690  175.2100  142.8370 N   0  0  0  0  0  2  0  0  0  0  0  0
  188.1220  176.3640  142.7960 C   0  0  0  0  0  0  0  0  0  0  0  0
  188.6140  177.5150  142.6410 O   0  0  0  0  0  0  0  0  0  0  0  0
  190.3990  175.2420  142.8880 C   0  0  0  0  0  0  0  0  0  0  0  0
  186.6410  176.1700  142.9190 C   0  0  0  0  0  2  0  0  0  0  0  0
  185.8470  177.2400  142.1800 C   0  0  0  0  0  2  0  0  0  0  0  0
  185.2440  178.6320  145.2780 C   0  0  1  0  0  3  0  0  0  0  0  0
  185.0830  178.1140  143.1610 C   0  0  1  0  0  3  0  0  0  0  0  0
  185.5770  179.7940  144.5610 O   0  0  0  0  0  0  0  0  0  0  0  0
  185.1170  177.5340  144.4180 O   0  0  0  0  0  0  0  0  0  0  0  0
  185.7000  179.4160  143.2650 N   0  0  0  0  0  2  0  0  0  0  0  0
  186.2800  178.3700  146.3690 C   0  0  1  0  0  3  0  0  0  0  0  0
  185.9140  179.1240  147.6350 C   0  0  0  0  0  1  0  0  0  0  0  0
  186.4230  176.8800  146.6580 C   0  0  0  0  0  2  0  0  0  0  0  0
  187.8500  176.4170  146.4220 C   0  0  0  0  0  2  0  0  0  0  0  0
  188.7430  177.3800  146.8950 O   0  0  0  0  0  0  0  0  0  0  0  0
  189.9280  177.1370  146.2010 C   0  0  0  0  0  1  0  0  0  0  0  0
  192.4420  173.9780  140.7140 N   0  0  0  0  0  2  0  0  0  0  0  0
  192.0710  172.7780  139.9700 C   0  0  0  0  0  2  0  0  0  0  0  0
  188.3540  172.6630  139.4540 N   0  0  0  0  0  0  0  0  0  0  0  0
  190.5780  173.6430  138.1460 C   0  0  0  0  0  3  0  0  0  0  0  0
  189.3070  173.8300  137.6020 C   0  0  0  0  0  0  0  0  0  0  0  0
  188.1940  173.3280  138.2770 C   0  0  0  0  0  3  0  0  0  0  0  0
  190.7250  172.9530  139.3510 C   0  0  0  0  0  0  0  0  0  0  0  0
  189.5860  172.4720  140.0020 C   0  0  0  0  0  3  0  0  0  0  0  0
  189.1540  174.5100  136.4390 F   0  0  0  0  0  0  0  0  0  0  0  0
  2  1  2  0  0  0  0
  2  6  1  0  0  0  0
  3  9  1  0  0  0  0
  4 12  2  0  0  0  0
  5  4  2  0  0  0  0
  5  7  1  0  0  0  0
  7 17  1  1  0  0  0
  7 11  1  0  0  0  0
  8 12  1  6  0  0  0
  8  2  1  0  0  0  0
  8  9  1  0  0  0  0
  8  6  1  0  0  0  0
 11 10  2  0  0  0  0
 11  3  1  0  0  0  0
 14 17  1  0  0  0  0
 15 14  1  0  0  0  0
 15 18  1  0  0  0  0
 16 15  2  0  0  0  0
 17 13  2  0  0  0  0
 19 18  1  0  0  0  0
 20 25  1  1  0  0  0
 21 19  1  6  0  0  0
 21 24  1  0  0  0  0
 21 23  1  0  0  0  0
 22 20  1  0  0  0  0
 23 20  1  0  0  0  0
 24 22  1  0  0  0  0
 25 27  1  0  0  0  0
 25 26  1  1  0  0  0
 28 27  1  0  0  0  0
 28 29  1  0  0  0  0
 30 29  1  0  0  0  0
 31  5  1  0  0  0  0
 32 31  1  0  0  0  0
 33 38  1  0  0  0  0
 34 37  1  0  0  0  0
 35 34  2  0  0  0  0
 35 36  1  0  0  0  0
 36 33  2  0  0  0  0
 37 32  1  0  0  0  0
 37 38  2  0  0  0  0
 39 35  1  0  0  0  0
M  END
>  <MODEL>
8

>  <REMARK>
 VINA RESULT:      -7.0      3.041      6.211
  Name = 
  11 active torsions:
  status: ('A' for Active; 'I' for Inactive)
    1  A    between atoms: C_3  and  C_25
    2  A    between atoms: C_4  and  C_23
    3  A    between atoms: C_8  and  C_27
    4  A    between atoms: C_8  and  N_34
    5  A    between atoms: C_13  and  C_25
    6  A    between atoms: C_13  and  C_31
    7  A    between atoms: O_14  and  C_31
    8  A    between atoms: C_15  and  N_34
    9  A    between atoms: C_20  and  C_32
   10  A    between atoms: C_21  and  C_38
   11  A    between atoms: C_23  and  C_38
                            x       y       z     vdW  Elec       q    Type
                         _______ _______ _______ _____ _____    ______ ____

>  <TORSDO>
F 11

$$$$
=
 OpenBabel11042415363D

 39 42  0  0  1  0  0  0  0  0999 V2000
  193.2530  173.5840  145.1370 N   0  0  0  0  0  2  0  0  0  0  0  0
  193.5240  174.7240  145.6780 C   0  0  0  0  0  0  0  0  0  0  0  0
  192.2850  176.8820  144.0340 O   0  0  0  0  0  0  0  0  0  0  0  0
  191.0010  176.7140  146.5980 C   0  0  0  0  0  0  0  0  0  0  0  0
  189.9020  177.1610  146.0390 C   0  0  0  0  0  0  0  0  0  0  0  0
  194.4400  175.6390  146.5060 N   0  0  0  0  0  2  0  0  0  0  0  0
  189.9100  177.5010  144.5660 C   0  0  1  0  0  3  0  0  0  0  0  0
  193.2250  176.0440  145.9630 C   0  0  1  0  0  0  0  0  0  0  0  0
  193.3980  176.9810  144.8500 N   0  0  0  0  0  2  0  0  0  0  0  0
  191.5670  179.0600  143.8080 O   0  0  0  0  0  0  0  0  0  0  0  0
  191.2870  177.8600  144.0690 C   0  0  0  0  0  0  0  0  0  0  0  0
  192.1750  176.3140  146.9960 C   0  0  0  0  0  3  0  0  0  0  0  0
  188.3430  176.6350  142.9790 O   0  0  0  0  0  0  0  0  0  0  0  0
  189.8290  175.0710  143.8910 N   0  0  0  0  0  2  0  0  0  0  0  0
  189.3720  173.9280  143.1600 C   0  0  0  0  0  0  0  0  0  0  0  0
  188.5690  174.0620  142.1970 O   0  0  0  0  0  0  0  0  0  0  0  0
  189.3170  176.3990  143.7440 C   0  0  0  0  0  0  0  0  0  0  0  0
  189.8870  172.5760  143.5500 C   0  0  0  0  0  2  0  0  0  0  0  0
  189.6690  171.5300  142.4630 C   0  0  0  0  0  2  0  0  0  0  0  0
  192.8510  171.6410  141.1380 C   0  0  1  0  0  3  0  0  0  0  0  0
  190.9930  170.9200  142.0330 C   0  0  1  0  0  3  0  0  0  0  0  0
  193.1630  171.2880  142.4620 O   0  0  0  0  0  0  0  0  0  0  0  0
  191.4690  171.5910  140.9190 O   0  0  0  0  0  0  0  0  0  0  0  0
  191.9780  171.0600  143.0800 N   0  0  0  0  0  2  0  0  0  0  0  0
  193.4190  173.0220  140.8120 C   0  0  1  0  0  3  0  0  0  0  0  0
  192.3290  174.0740  140.9040 C   0  0  0  0  0  1  0  0  0  0  0  0
  194.5830  173.3780  141.7300 C   0  0  0  0  0  2  0  0  0  0  0  0
  195.7750  173.8690  140.9270 C   0  0  0  0  0  2  0  0  0  0  0  0
  196.1520  175.1380  141.3700 O   0  0  0  0  0  0  0  0  0  0  0  0
  195.6420  175.2270  142.6650 C   0  0  0  0  0  1  0  0  0  0  0  0
  188.6910  177.3070  146.7900 N   0  0  0  0  0  2  0  0  0  0  0  0
  187.4960  176.5010  146.5620 C   0  0  0  0  0  2  0  0  0  0  0  0
  184.0670  178.0280  146.5140 N   0  0  0  0  0  0  0  0  0  0  0  0
  186.5040  178.4180  145.2790 C   0  0  0  0  0  3  0  0  0  0  0  0
  185.4260  179.2530  144.9810 C   0  0  0  0  0  0  0  0  0  0  0  0
  184.2010  179.0410  145.6160 C   0  0  0  0  0  3  0  0  0  0  0  0
  186.3450  177.3790  146.1980 C   0  0  0  0  0  0  0  0  0  0  0  0
  185.1070  177.2030  146.8190 C   0  0  0  0  0  3  0  0  0  0  0  0
  185.5730  180.2710  144.0990 F   0  0  0  0  0  0  0  0  0  0  0  0
  1  2  2  0  0  0  0
  2  8  1  0  0  0  0
  2  6  1  0  0  0  0
  3 11  1  0  0  0  0
  3  9  1  0  0  0  0
  4 12  2  0  0  0  0
  5  4  2  0  0  0  0
  5 31  1  0  0  0  0
  7 17  1  6  0  0  0
  7  5  1  0  0  0  0
  8  6  1  0  0  0  0
  8 12  1  1  0  0  0
  9  8  1  0  0  0  0
 10 11  2  0  0  0  0
 11  7  1  0  0  0  0
 13 17  2  0  0  0  0
 15 18  1  0  0  0  0
 15 14  1  0  0  0  0
 16 15  2  0  0  0  0
 17 14  1  0  0  0  0
 19 18  1  0  0  0  0
 20 25  1  1  0  0  0
 20 22  1  0  0  0  0
 21 19  1  1  0  0  0
 21 24  1  0  0  0  0
 22 24  1  0  0  0  0
 23 20  1  0  0  0  0
 23 21  1  0  0  0  0
 25 26  1  1  0  0  0
 25 27  1  0  0  0  0
 28 29  1  0  0  0  0
 28 27  1  0  0  0  0
 29 30  1  0  0  0  0
 32 31  1  0  0  0  0
 33 38  1  0  0  0  0
 34 37  1  0  0  0  0
 35 34  2  0  0  0  0
 35 36  1  0  0  0  0
 36 33  2  0  0  0  0
 37 32  1  0  0  0  0
 37 38  2  0  0  0  0
 39 35  1  0  0  0  0
M  END
>  <MODEL>
9

>  <REMARK>
 VINA RESULT:      -7.0      3.504      8.574
  Name = 
  11 active torsions:
  status: ('A' for Active; 'I' for Inactive)
    1  A    between atoms: C_3  and  C_25
    2  A    between atoms: C_4  and  C_23
    3  A    between atoms: C_8  and  C_27
    4  A    between atoms: C_8  and  N_34
    5  A    between atoms: C_13  and  C_25
    6  A    between atoms: C_13  and  C_31
    7  A    between atoms: O_14  and  C_31
    8  A    between atoms: C_15  and  N_34
    9  A    between atoms: C_20  and  C_32
   10  A    between atoms: C_21  and  C_38
   11  A    between atoms: C_23  and  C_38
                            x       y       z     vdW  Elec       q    Type
                         _______ _______ _______ _____ _____    ______ ____

>  <TORSDO>
F 11

$$$$
