=
 OpenBabel11042414443D

 36 38  0  0  1  0  0  0  0  0999 V2000
  190.7420  178.2120  144.0870 C   0  0  0  0  0  0  0  0  0  0  0  0
  187.6620  178.1350  142.2240 C   0  0  0  0  0  1  0  0  0  0  0  0
  188.6070  177.2000  142.9530 C   0  0  1  0  0  3  0  0  0  0  0  0
  190.1190  176.9870  144.7600 C   0  0  1  0  0  3  0  0  0  0  0  0
  187.2750  176.7970  145.8600 C   0  0  2  0  0  3  0  0  0  0  0  0
  189.7710  177.0550  146.2370 C   0  0  1  0  0  3  0  0  0  0  0  0
  186.8010  176.1390  144.5460 C   0  0  0  0  0  2  0  0  0  0  0  0
  191.7010  178.8940  143.7660 O   0  0  0  0  0  0  0  0  0  0  0  0
  188.5390  176.1670  146.4690 C   0  0  0  0  0  2  0  0  0  0  0  0
  189.2420  177.9250  144.1270 C   0  0  1  0  0  3  0  0  0  0  0  0
  187.8540  175.9370  143.4340 C   0  0  0  0  0  2  0  0  0  0  0  0
  186.1390  176.7730  146.8650 C   0  0  0  0  0  2  0  0  0  0  0  0
  186.0380  178.1090  147.5840 C   0  0  0  0  0  2  0  0  0  0  0  0
  185.6160  179.2040  146.6160 C   0  0  0  0  0  2  0  0  0  0  0  0
  184.2190  178.9480  146.0680 C   0  0  2  0  0  3  0  0  0  0  0  0
  183.7740  177.7200  146.5200 F   0  0  0  0  0  0  0  0  0  0  0  0
  184.2430  178.9550  144.5490 C   0  0  0  0  0  2  0  0  0  0  0  0
  185.3410  179.8740  144.0500 C   0  0  0  0  0  1  0  0  0  0  0  0
  190.9250  176.5250  147.0690 C   0  0  0  0  0  2  0  0  0  0  0  0
  191.3380  175.1490  146.5840 C   0  0  0  0  0  2  0  0  0  0  0  0
  192.8430  175.0140  146.6670 C   0  0  0  0  0  2  0  0  0  0  0  0
  193.4790  176.3780  146.5010 C   0  0  0  0  0  2  0  0  0  0  0  0
  194.6930  176.2630  145.6030 C   0  0  0  0  0  2  0  0  0  0  0  0
  194.2440  176.1720  144.1610 C   0  0  0  0  0  2  0  0  0  0  0  0
  195.0450  175.0980  143.4500 C   0  0  0  0  0  2  0  0  0  0  0  0
  194.1820  174.2930  142.6550 O   0  0  0  0  0  0  0  0  0  0  0  0
  190.6280  172.4920  144.0350 C   0  0  0  0  0  0  0  0  0  0  0  0
  193.0510  172.5780  143.9080 C   0  0  0  0  0  0  0  0  0  0  0  0
  191.7040  174.2580  142.7730 C   0  0  0  0  0  0  0  0  0  0  0  0
  192.9740  173.7240  143.0970 C   0  0  0  0  0  0  0  0  0  0  0  0
  189.4690  171.8790  144.4930 O   0  0  0  0  0  1  0  0  0  0  0  0
  191.5700  175.4080  142.0050 O   0  0  0  0  0  1  0  0  0  0  0  0
  191.8740  171.9670  144.3690 C   0  0  0  0  0  3  0  0  0  0  0  0
  190.5430  173.6350  143.2410 C   0  0  0  0  0  3  0  0  0  0  0  0
  194.3090  172.0590  144.2360 O   0  0  0  0  0  0  0  0  0  0  0  0
  194.7820  171.9710  145.5730 C   0  0  0  0  0  1  0  0  0  0  0  0
  3  2  1  1  0  0  0
  3 11  1  0  0  0  0
  3 10  1  0  0  0  0
  4  1  1  1  0  0  0
  4  6  1  0  0  0  0
  5  9  1  0  0  0  0
  5 12  1  1  0  0  0
  6  9  1  0  0  0  0
  6 19  1  1  0  0  0
  7  5  1  0  0  0  0
  8  1  2  0  0  0  0
 10  1  1  6  0  0  0
 10  4  1  0  0  0  0
 11  7  1  0  0  0  0
 12 13  1  0  0  0  0
 14 13  1  0  0  0  0
 15 16  1  6  0  0  0
 15 14  1  0  0  0  0
 17 15  1  0  0  0  0
 18 17  1  0  0  0  0
 20 21  1  0  0  0  0
 20 19  1  0  0  0  0
 22 21  1  0  0  0  0
 23 22  1  0  0  0  0
 24 23  1  0  0  0  0
 25 24  1  0  0  0  0
 26 30  1  0  0  0  0
 26 25  1  0  0  0  0
 27 33  1  0  0  0  0
 27 31  1  0  0  0  0
 28 35  1  0  0  0  0
 28 33  2  0  0  0  0
 29 30  2  0  0  0  0
 29 34  1  0  0  0  0
 30 28  1  0  0  0  0
 32 29  1  0  0  0  0
 34 27  2  0  0  0  0
 35 36  1  0  0  0  0
M  END
>  <MODEL>
1

>  <REMARK>
 VINA RESULT:      -6.6      0.000      0.000
  Name = 
  15 active torsions:
  status: ('A' for Active; 'I' for Inactive)
    1  A    between atoms: C_2  and  C_13
    2  A    between atoms: C_3  and  C_14
    3  A    between atoms: C_3  and  C_24
    4  A    between atoms: C_6  and  C_26
    5  A    between atoms: C_6  and  C_32
    6  A    between atoms: C_7  and  O_33
    7  A    between atoms: C_10  and  O_21
    8  A    between atoms: C_11  and  C_26
    9  A    between atoms: C_11  and  C_29
   10  A    between atoms: C_13  and  C_24
   11  A    between atoms: C_14  and  C_15
   12  A    between atoms: C_16  and  C_27
   13  A    between atoms: C_18  and  C_27
   14  A    between atoms: C_18  and  C_29
   15  A    between atoms: O_21  and  C_32
                            x       y       z     vdW  Elec       q    Type
                         _______ _______ _______ _____ _____    ______ ____

>  <TORSDO>
F 15

$$$$
=
 OpenBabel11042414443D

 36 38  0  0  1  0  0  0  0  0999 V2000
  192.4580  176.1660  143.1610 C   0  0  0  0  0  0  0  0  0  0  0  0
  193.0940  174.1880  146.1010 C   0  0  0  0  0  1  0  0  0  0  0  0
  192.8080  175.6220  145.7000 C   0  0  1  0  0  3  0  0  0  0  0  0
  191.6790  177.0210  144.1630 C   0  0  1  0  0  3  0  0  0  0  0  0
  189.6460  175.9950  146.1990 C   0  0  2  0  0  3  0  0  0  0  0  0
  190.1750  177.1550  144.0050 C   0  0  1  0  0  3  0  0  0  0  0  0
  190.7390  175.9660  147.2890 C   0  0  0  0  0  2  0  0  0  0  0  0
  193.0610  176.0160  142.1110 O   0  0  0  0  0  0  0  0  0  0  0  0
  189.5690  177.3120  145.4090 C   0  0  0  0  0  2  0  0  0  0  0  0
  191.9000  175.6440  144.4840 C   0  0  1  0  0  3  0  0  0  0  0  0
  192.1640  176.3940  146.8760 C   0  0  0  0  0  2  0  0  0  0  0  0
  188.3040  175.6820  146.8340 C   0  0  0  0  0  2  0  0  0  0  0  0
  187.2350  176.6260  146.3060 C   0  0  0  0  0  2  0  0  0  0  0  0
  186.2730  177.0150  147.4180 C   0  0  0  0  0  2  0  0  0  0  0  0
  185.7390  178.4250  147.2180 C   0  0  2  0  0  3  0  0  0  0  0  0
  184.4330  178.4830  147.6670 F   0  0  0  0  0  0  0  0  0  0  0  0
  185.7890  178.8010  145.7460 C   0  0  0  0  0  2  0  0  0  0  0  0
  184.3860  178.8530  145.1750 C   0  0  0  0  0  1  0  0  0  0  0  0
  189.8440  178.3880  143.1840 C   0  0  0  0  0  2  0  0  0  0  0  0
  188.9090  178.0300  142.0460 C   0  0  0  0  0  2  0  0  0  0  0  0
  187.4740  178.1660  142.5080 C   0  0  0  0  0  2  0  0  0  0  0  0
  186.7590  176.8450  142.3190 C   0  0  0  0  0  2  0  0  0  0  0  0
  187.6800  175.8690  141.6180 C   0  0  0  0  0  2  0  0  0  0  0  0
  187.7050  174.5640  142.3830 C   0  0  0  0  0  2  0  0  0  0  0  0
  189.1380  174.0880  142.5230 C   0  0  0  0  0  2  0  0  0  0  0  0
  189.7830  174.1080  141.2550 O   0  0  0  0  0  0  0  0  0  0  0  0
  190.9570  170.7010  139.0660 C   0  0  0  0  0  0  0  0  0  0  0  0
  189.3970  172.5110  139.4970 C   0  0  0  0  0  0  0  0  0  0  0  0
  191.4160  172.2870  140.8390 C   0  0  0  0  0  0  0  0  0  0  0  0
  190.2110  172.9700  140.5480 C   0  0  0  0  0  0  0  0  0  0  0  0
  191.3220  169.5760  138.3370 O   0  0  0  0  0  1  0  0  0  0  0  0
  192.2750  172.7170  141.8430 O   0  0  0  0  0  1  0  0  0  0  0  0
  189.7760  171.3750  138.7640 C   0  0  0  0  0  3  0  0  0  0  0  0
  191.7750  171.1570  140.0980 C   0  0  0  0  0  3  0  0  0  0  0  0
  188.2120  173.1960  139.2050 O   0  0  0  0  0  0  0  0  0  0  0  0
  188.1350  174.2190  138.2210 C   0  0  0  0  0  1  0  0  0  0  0  0
  3  2  1  1  0  0  0
  3 11  1  0  0  0  0
  4  1  1  6  0  0  0
  4 10  1  0  0  0  0
  5 12  1  1  0  0  0
  5  7  1  0  0  0  0
  6 19  1  6  0  0  0
  6  4  1  0  0  0  0
  6  9  1  0  0  0  0
  8  1  2  0  0  0  0
  9  5  1  0  0  0  0
 10  1  1  6  0  0  0
 10  3  1  0  0  0  0
 11  7  1  0  0  0  0
 13 12  1  0  0  0  0
 13 14  1  0  0  0  0
 15 14  1  0  0  0  0
 15 16  1  6  0  0  0
 17 15  1  0  0  0  0
 18 17  1  0  0  0  0
 20 21  1  0  0  0  0
 20 19  1  0  0  0  0
 22 21  1  0  0  0  0
 23 22  1  0  0  0  0
 23 24  1  0  0  0  0
 24 25  1  0  0  0  0
 26 25  1  0  0  0  0
 27 34  1  0  0  0  0
 28 30  2  0  0  0  0
 29 32  1  0  0  0  0
 30 29  1  0  0  0  0
 30 26  1  0  0  0  0
 31 27  1  0  0  0  0
 33 27  2  0  0  0  0
 33 28  1  0  0  0  0
 34 29  2  0  0  0  0
 35 28  1  0  0  0  0
 36 35  1  0  0  0  0
M  END
>  <MODEL>
2

>  <REMARK>
 VINA RESULT:      -6.3      2.659      5.073
  Name = 
  15 active torsions:
  status: ('A' for Active; 'I' for Inactive)
    1  A    between atoms: C_2  and  C_13
    2  A    between atoms: C_3  and  C_14
    3  A    between atoms: C_3  and  C_24
    4  A    between atoms: C_6  and  C_26
    5  A    between atoms: C_6  and  C_32
    6  A    between atoms: C_7  and  O_33
    7  A    between atoms: C_10  and  O_21
    8  A    between atoms: C_11  and  C_26
    9  A    between atoms: C_11  and  C_29
   10  A    between atoms: C_13  and  C_24
   11  A    between atoms: C_14  and  C_15
   12  A    between atoms: C_16  and  C_27
   13  A    between atoms: C_18  and  C_27
   14  A    between atoms: C_18  and  C_29
   15  A    between atoms: O_21  and  C_32
                            x       y       z     vdW  Elec       q    Type
                         _______ _______ _______ _____ _____    ______ ____

>  <TORSDO>
F 15

$$$$
=
 OpenBabel11042414443D

 36 38  0  0  1  0  0  0  0  0999 V2000
  184.6800  177.8960  142.8830 C   0  0  0  0  0  0  0  0  0  0  0  0
  184.6280  179.0540  146.2920 C   0  0  0  0  0  1  0  0  0  0  0  0
  184.8010  177.7740  145.4980 C   0  0  1  0  0  3  0  0  0  0  0  0
  185.6020  176.8320  143.4820 C   0  0  1  0  0  3  0  0  0  0  0  0
  187.9910  177.3520  145.3130 C   0  0  2  0  0  3  0  0  0  0  0  0
  187.0500  176.7730  143.0280 C   0  0  1  0  0  3  0  0  0  0  0  0
  187.1110  177.0830  146.5530 C   0  0  0  0  0  2  0  0  0  0  0  0
  183.9030  178.2930  142.0310 O   0  0  0  0  0  0  0  0  0  0  0  0
  187.8920  176.2790  144.2160 C   0  0  0  0  0  2  0  0  0  0  0  0
  185.4780  178.0780  144.1730 C   0  0  1  0  0  3  0  0  0  0  0  0
  185.6240  176.7430  146.3060 C   0  0  0  0  0  2  0  0  0  0  0  0
  189.4320  177.5220  145.7560 C   0  0  0  0  0  2  0  0  0  0  0  0
  190.3560  177.5600  144.5490 C   0  0  0  0  0  2  0  0  0  0  0  0
  191.3990  176.4560  144.6430 C   0  0  0  0  0  2  0  0  0  0  0  0
  192.1480  176.5140  145.9660 C   0  0  2  0  0  3  0  0  0  0  0  0
  193.4710  176.8330  145.7230 F   0  0  0  0  0  0  0  0  0  0  0  0
  192.0690  175.1710  146.6720 C   0  0  0  0  0  2  0  0  0  0  0  0
  191.2720  175.3050  147.9550 C   0  0  0  0  0  1  0  0  0  0  0  0
  187.1980  175.7940  141.8780 C   0  0  0  0  0  2  0  0  0  0  0  0
  188.6610  175.6100  141.5250 C   0  0  0  0  0  2  0  0  0  0  0  0
  188.8980  174.1860  141.0710 C   0  0  0  0  0  2  0  0  0  0  0  0
  188.2280  173.2340  142.0380 C   0  0  0  0  0  2  0  0  0  0  0  0
  189.2700  172.3280  142.6580 C   0  0  0  0  0  2  0  0  0  0  0  0
  189.8530  172.9970  143.8830 C   0  0  0  0  0  2  0  0  0  0  0  0
  191.0030  172.1640  144.4150 C   0  0  0  0  0  2  0  0  0  0  0  0
  192.1150  172.2490  143.5310 O   0  0  0  0  0  0  0  0  0  0  0  0
  195.3700  174.9030  143.9110 C   0  0  0  0  0  0  0  0  0  0  0  0
  193.3590  174.1620  142.7680 C   0  0  0  0  0  0  0  0  0  0  0  0
  194.1530  172.9810  144.7430 C   0  0  0  0  0  0  0  0  0  0  0  0
  193.2120  173.1140  143.6930 C   0  0  0  0  0  0  0  0  0  0  0  0
  196.4390  175.7830  144.0130 O   0  0  0  0  0  1  0  0  0  0  0  0
  194.0370  171.9850  145.7050 O   0  0  0  0  0  1  0  0  0  0  0  0
  194.4410  175.0490  142.8820 C   0  0  0  0  0  3  0  0  0  0  0  0
  195.2240  173.8730  144.8390 C   0  0  0  0  0  3  0  0  0  0  0  0
  192.4210  174.2980  141.7380 O   0  0  0  0  0  0  0  0  0  0  0  0
  192.4730  173.5320  140.5420 C   0  0  0  0  0  1  0  0  0  0  0  0
  3  2  1  1  0  0  0
  3 11  1  0  0  0  0
  4  1  1  6  0  0  0
  4 10  1  0  0  0  0
  5 12  1  1  0  0  0
  5  7  1  0  0  0  0
  6 19  1  6  0  0  0
  6  4  1  0  0  0  0
  6  9  1  0  0  0  0
  8  1  2  0  0  0  0
  9  5  1  0  0  0  0
 10  1  1  6  0  0  0
 10  3  1  0  0  0  0
 11  7  1  0  0  0  0
 13 14  1  0  0  0  0
 13 12  1  0  0  0  0
 14 15  1  0  0  0  0
 15 16  1  6  0  0  0
 15 17  1  0  0  0  0
 17 18  1  0  0  0  0
 20 19  1  0  0  0  0
 21 20  1  0  0  0  0
 21 22  1  0  0  0  0
 22 23  1  0  0  0  0
 23 24  1  0  0  0  0
 24 25  1  0  0  0  0
 26 30  1  0  0  0  0
 26 25  1  0  0  0  0
 27 31  1  0  0  0  0
 27 34  1  0  0  0  0
 28 33  1  0  0  0  0
 28 30  2  0  0  0  0
 29 34  2  0  0  0  0
 29 32  1  0  0  0  0
 30 29  1  0  0  0  0
 33 27  2  0  0  0  0
 35 28  1  0  0  0  0
 36 35  1  0  0  0  0
M  END
>  <MODEL>
3

>  <REMARK>
 VINA RESULT:      -6.3      2.596      5.675
  Name = 
  15 active torsions:
  status: ('A' for Active; 'I' for Inactive)
    1  A    between atoms: C_2  and  C_13
    2  A    between atoms: C_3  and  C_14
    3  A    between atoms: C_3  and  C_24
    4  A    between atoms: C_6  and  C_26
    5  A    between atoms: C_6  and  C_32
    6  A    between atoms: C_7  and  O_33
    7  A    between atoms: C_10  and  O_21
    8  A    between atoms: C_11  and  C_26
    9  A    between atoms: C_11  and  C_29
   10  A    between atoms: C_13  and  C_24
   11  A    between atoms: C_14  and  C_15
   12  A    between atoms: C_16  and  C_27
   13  A    between atoms: C_18  and  C_27
   14  A    between atoms: C_18  and  C_29
   15  A    between atoms: O_21  and  C_32
                            x       y       z     vdW  Elec       q    Type
                         _______ _______ _______ _____ _____    ______ ____

>  <TORSDO>
F 15

$$$$
=
 OpenBabel11042414443D

 36 38  0  0  1  0  0  0  0  0999 V2000
  185.5500  178.0330  141.3370 C   0  0  0  0  0  0  0  0  0  0  0  0
  185.0120  179.6950  144.4850 C   0  0  0  0  0  1  0  0  0  0  0  0
  185.1730  178.2990  143.9160 C   0  0  1  0  0  3  0  0  0  0  0  0
  186.2120  176.9920  142.2410 C   0  0  1  0  0  3  0  0  0  0  0  0
  188.2690  177.5620  144.4270 C   0  0  2  0  0  3  0  0  0  0  0  0
  187.7020  176.7320  142.0960 C   0  0  1  0  0  3  0  0  0  0  0  0
  187.1510  177.5660  145.4910 C   0  0  0  0  0  2  0  0  0  0  0  0
  184.9970  178.3670  140.3020 O   0  0  0  0  0  0  0  0  0  0  0  0
  188.2460  176.3490  143.4820 C   0  0  0  0  0  2  0  0  0  0  0  0
  186.1130  178.3350  142.7240 C   0  0  1  0  0  3  0  0  0  0  0  0
  185.7040  177.3310  145.0000 C   0  0  0  0  0  2  0  0  0  0  0  0
  189.6140  177.6630  145.1210 C   0  0  0  0  0  2  0  0  0  0  0  0
  189.4670  177.3780  146.6070 C   0  0  0  0  0  2  0  0  0  0  0  0
  190.7760  176.8580  147.1810 C   0  0  0  0  0  2  0  0  0  0  0  0
  190.6380  175.4200  147.6590 C   0  0  2  0  0  3  0  0  0  0  0  0
  191.7620  174.7090  147.2840 F   0  0  0  0  0  0  0  0  0  0  0  0
  189.4030  174.7810  147.0450 C   0  0  0  0  0  2  0  0  0  0  0  0
  189.7990  173.9120  145.8670 C   0  0  0  0  0  1  0  0  0  0  0  0
  187.9400  175.5800  141.1370 C   0  0  0  0  0  2  0  0  0  0  0  0
  188.9870  174.6360  141.6950 C   0  0  0  0  0  2  0  0  0  0  0  0
  189.2590  173.5330  140.6940 C   0  0  0  0  0  2  0  0  0  0  0  0
  190.2460  172.5510  141.2870 C   0  0  0  0  0  2  0  0  0  0  0  0
  190.9270  173.1790  142.4840 C   0  0  0  0  0  2  0  0  0  0  0  0
  192.3040  172.5760  142.6530 C   0  0  0  0  0  2  0  0  0  0  0  0
  193.3130  173.3900  141.8650 C   0  0  0  0  0  2  0  0  0  0  0  0
  194.4100  173.7430  142.6990 O   0  0  0  0  0  0  0  0  0  0  0  0
  194.3110  176.4260  145.9510 C   0  0  0  0  0  0  0  0  0  0  0  0
  194.9850  174.3110  144.9660 C   0  0  0  0  0  0  0  0  0  0  0  0
  193.7170  175.9250  143.6570 C   0  0  0  0  0  0  0  0  0  0  0  0
  194.3570  174.6660  143.7590 C   0  0  0  0  0  0  0  0  0  0  0  0
  194.2830  177.2920  147.0360 O   0  0  0  0  0  1  0  0  0  0  0  0
  193.1110  176.3420  142.4770 O   0  0  0  0  0  1  0  0  0  0  0  0
  194.9540  175.1940  146.0570 C   0  0  0  0  0  3  0  0  0  0  0  0
  193.6960  176.7900  144.7540 C   0  0  0  0  0  3  0  0  0  0  0  0
  195.6260  173.0710  145.0610 O   0  0  0  0  0  0  0  0  0  0  0  0
  196.7390  172.8420  145.9150 C   0  0  0  0  0  1  0  0  0  0  0  0
  3  2  1  1  0  0  0
  3 11  1  0  0  0  0
  4  1  1  6  0  0  0
  4 10  1  0  0  0  0
  5 12  1  1  0  0  0
  5  7  1  0  0  0  0
  6 19  1  6  0  0  0
  6  4  1  0  0  0  0
  6  9  1  0  0  0  0
  8  1  2  0  0  0  0
  9  5  1  0  0  0  0
 10  1  1  6  0  0  0
 10  3  1  0  0  0  0
 11  7  1  0  0  0  0
 12 13  1  0  0  0  0
 13 14  1  0  0  0  0
 14 15  1  0  0  0  0
 15 16  1  6  0  0  0
 17 15  1  0  0  0  0
 18 17  1  0  0  0  0
 19 20  1  0  0  0  0
 21 22  1  0  0  0  0
 21 20  1  0  0  0  0
 22 23  1  0  0  0  0
 23 24  1  0  0  0  0
 25 24  1  0  0  0  0
 25 26  1  0  0  0  0
 26 30  1  0  0  0  0
 27 33  1  0  0  0  0
 27 31  1  0  0  0  0
 28 35  1  0  0  0  0
 28 33  2  0  0  0  0
 29 30  2  0  0  0  0
 29 34  1  0  0  0  0
 30 28  1  0  0  0  0
 32 29  1  0  0  0  0
 34 27  2  0  0  0  0
 35 36  1  0  0  0  0
M  END
>  <MODEL>
4

>  <REMARK>
 VINA RESULT:      -6.3      2.511      5.017
  Name = 
  15 active torsions:
  status: ('A' for Active; 'I' for Inactive)
    1  A    between atoms: C_2  and  C_13
    2  A    between atoms: C_3  and  C_14
    3  A    between atoms: C_3  and  C_24
    4  A    between atoms: C_6  and  C_26
    5  A    between atoms: C_6  and  C_32
    6  A    between atoms: C_7  and  O_33
    7  A    between atoms: C_10  and  O_21
    8  A    between atoms: C_11  and  C_26
    9  A    between atoms: C_11  and  C_29
   10  A    between atoms: C_13  and  C_24
   11  A    between atoms: C_14  and  C_15
   12  A    between atoms: C_16  and  C_27
   13  A    between atoms: C_18  and  C_27
   14  A    between atoms: C_18  and  C_29
   15  A    between atoms: O_21  and  C_32
                            x       y       z     vdW  Elec       q    Type
                         _______ _______ _______ _____ _____    ______ ____

>  <TORSDO>
F 15

$$$$
=
 OpenBabel11042414443D

 36 38  0  0  1  0  0  0  0  0999 V2000
  190.8600  175.9510  142.6740 C   0  0  0  0  0  0  0  0  0  0  0  0
  188.2990  174.9150  140.3650 C   0  0  0  0  0  1  0  0  0  0  0  0
  188.5670  174.9810  141.8570 C   0  0  1  0  0  3  0  0  0  0  0  0
  189.6510  176.1800  143.5840 C   0  0  1  0  0  3  0  0  0  0  0  0
  187.0980  177.6790  142.8310 C   0  0  2  0  0  3  0  0  0  0  0  0
  189.3280  177.5930  144.0380 C   0  0  1  0  0  3  0  0  0  0  0  0
  186.4050  176.3440  142.4850 C   0  0  0  0  0  2  0  0  0  0  0  0
  192.0480  175.7420  142.4920 O   0  0  0  0  0  0  0  0  0  0  0  0
  187.8030  177.6950  144.1980 C   0  0  0  0  0  2  0  0  0  0  0  0
  189.4380  176.1860  142.1690 C   0  0  1  0  0  3  0  0  0  0  0  0
  187.2370  175.0510  142.6430 C   0  0  0  0  0  2  0  0  0  0  0  0
  186.0800  178.8010  142.7500 C   0  0  0  0  0  2  0  0  0  0  0  0
  185.8760  179.4320  144.1180 C   0  0  0  0  0  2  0  0  0  0  0  0
  184.5660  178.9610  144.7310 C   0  0  0  0  0  2  0  0  0  0  0  0
  184.6980  178.7650  146.2340 C   0  0  2  0  0  3  0  0  0  0  0  0
  185.7500  179.5320  146.7000 F   0  0  0  0  0  0  0  0  0  0  0  0
  184.9560  177.3010  146.5500 C   0  0  0  0  0  2  0  0  0  0  0  0
  186.1510  177.1710  147.4740 C   0  0  0  0  0  1  0  0  0  0  0  0
  189.9840  177.8720  145.3790 C   0  0  0  0  0  2  0  0  0  0  0  0
  190.0090  176.6150  146.2260 C   0  0  0  0  0  2  0  0  0  0  0  0
  190.4370  176.9640  147.6360 C   0  0  0  0  0  2  0  0  0  0  0  0
  191.7700  176.3110  147.9310 C   0  0  0  0  0  2  0  0  0  0  0  0
  192.3220  175.6930  146.6640 C   0  0  0  0  0  2  0  0  0  0  0  0
  193.4940  176.5140  146.1730 C   0  0  0  0  0  2  0  0  0  0  0  0
  194.7720  175.7140  146.3310 C   0  0  0  0  0  2  0  0  0  0  0  0
  194.9410  174.8430  145.2180 O   0  0  0  0  0  0  0  0  0  0  0  0
  195.4110  170.6580  145.4280 C   0  0  0  0  0  0  0  0  0  0  0  0
  194.0920  172.6190  144.8700 C   0  0  0  0  0  0  0  0  0  0  0  0
  196.3340  172.8690  145.7850 C   0  0  0  0  0  0  0  0  0  0  0  0
  195.1380  173.4530  145.3020 C   0  0  0  0  0  0  0  0  0  0  0  0
  195.5430  169.2770  145.4950 O   0  0  0  0  0  1  0  0  0  0  0  0
  197.4130  173.6450  146.1920 O   0  0  0  0  0  1  0  0  0  0  0  0
  194.2350  171.2240  144.9390 C   0  0  0  0  0  3  0  0  0  0  0  0
  196.4570  171.4780  145.8470 C   0  0  0  0  0  3  0  0  0  0  0  0
  192.9150  173.1990  144.3830 O   0  0  0  0  0  0  0  0  0  0  0  0
  191.6230  172.6770  144.6650 C   0  0  0  0  0  1  0  0  0  0  0  0
  3  2  1  6  0  0  0
  3 10  1  0  0  0  0
  3 11  1  0  0  0  0
  4  1  1  6  0  0  0
  4  6  1  0  0  0  0
  5 12  1  1  0  0  0
  5  9  1  0  0  0  0
  6  9  1  0  0  0  0
  6 19  1  1  0  0  0
  7 11  1  0  0  0  0
  7  5  1  0  0  0  0
  8  1  2  0  0  0  0
 10  1  1  6  0  0  0
 10  4  1  0  0  0  0
 12 13  1  0  0  0  0
 13 14  1  0  0  0  0
 14 15  1  0  0  0  0
 15 17  1  0  0  0  0
 15 16  1  6  0  0  0
 17 18  1  0  0  0  0
 19 20  1  0  0  0  0
 20 21  1  0  0  0  0
 21 22  1  0  0  0  0
 23 22  1  0  0  0  0
 24 25  1  0  0  0  0
 24 23  1  0  0  0  0
 26 30  1  0  0  0  0
 26 25  1  0  0  0  0
 27 31  1  0  0  0  0
 27 34  1  0  0  0  0
 28 33  1  0  0  0  0
 28 30  2  0  0  0  0
 29 34  2  0  0  0  0
 29 32  1  0  0  0  0
 30 29  1  0  0  0  0
 33 27  2  0  0  0  0
 35 36  1  0  0  0  0
 35 28  1  0  0  0  0
M  END
>  <MODEL>
5

>  <REMARK>
 VINA RESULT:      -6.2      1.685      3.512
  Name = 
  15 active torsions:
  status: ('A' for Active; 'I' for Inactive)
    1  A    between atoms: C_2  and  C_13
    2  A    between atoms: C_3  and  C_14
    3  A    between atoms: C_3  and  C_24
    4  A    between atoms: C_6  and  C_26
    5  A    between atoms: C_6  and  C_32
    6  A    between atoms: C_7  and  O_33
    7  A    between atoms: C_10  and  O_21
    8  A    between atoms: C_11  and  C_26
    9  A    between atoms: C_11  and  C_29
   10  A    between atoms: C_13  and  C_24
   11  A    between atoms: C_14  and  C_15
   12  A    between atoms: C_16  and  C_27
   13  A    between atoms: C_18  and  C_27
   14  A    between atoms: C_18  and  C_29
   15  A    between atoms: O_21  and  C_32
                            x       y       z     vdW  Elec       q    Type
                         _______ _______ _______ _____ _____    ______ ____

>  <TORSDO>
F 15

$$$$
=
 OpenBabel11042414443D

 36 38  0  0  1  0  0  0  0  0999 V2000
  189.5940  174.2710  144.9370 C   0  0  0  0  0  0  0  0  0  0  0  0
  189.9620  177.8230  145.3970 C   0  0  0  0  0  1  0  0  0  0  0  0
  190.3250  176.7310  144.4090 C   0  0  1  0  0  3  0  0  0  0  0  0
  189.6590  174.6690  143.4610 C   0  0  1  0  0  3  0  0  0  0  0  0
  188.0500  176.9010  142.1320 C   0  0  2  0  0  3  0  0  0  0  0  0
  188.4440  174.4340  142.5810 C   0  0  1  0  0  3  0  0  0  0  0  0
  189.2400  177.8700  142.2990 C   0  0  0  0  0  2  0  0  0  0  0  0
  189.7200  173.4630  145.8420 O   0  0  0  0  0  0  0  0  0  0  0  0
  188.4180  175.5410  141.5150 C   0  0  0  0  0  2  0  0  0  0  0  0
  189.2480  175.6610  144.4070 C   0  0  1  0  0  3  0  0  0  0  0  0
  190.5080  177.3230  142.9910 C   0  0  0  0  0  2  0  0  0  0  0  0
  186.9710  177.5780  141.3100 C   0  0  0  0  0  2  0  0  0  0  0  0
  186.0530  178.3920  142.2070 C   0  0  0  0  0  2  0  0  0  0  0  0
  185.6940  177.6040  143.4580 C   0  0  0  0  0  2  0  0  0  0  0  0
  185.1130  178.5090  144.5340 C   0  0  2  0  0  3  0  0  0  0  0  0
  185.9950  179.5440  144.7790 F   0  0  0  0  0  0  0  0  0  0  0  0
  184.8840  177.7210  145.8130 C   0  0  0  0  0  2  0  0  0  0  0  0
  186.0760  176.8270  146.0930 C   0  0  0  0  0  1  0  0  0  0  0  0
  188.5520  173.0860  141.8900 C   0  0  0  0  0  2  0  0  0  0  0  0
  189.0860  173.2570  140.4810 C   0  0  0  0  0  2  0  0  0  0  0  0
  190.3840  172.4920  140.3350 C   0  0  0  0  0  2  0  0  0  0  0  0
  191.4510  173.4160  139.7880 C   0  0  0  0  0  2  0  0  0  0  0  0
  192.0150  174.2570  140.9120 C   0  0  0  0  0  2  0  0  0  0  0  0
  192.7100  173.3590  141.9120 C   0  0  0  0  0  2  0  0  0  0  0  0
  194.2120  173.5230  141.7810 C   0  0  0  0  0  2  0  0  0  0  0  0
  194.8040  173.6300  143.0700 O   0  0  0  0  0  0  0  0  0  0  0  0
  193.3000  175.9820  146.2300 C   0  0  0  0  0  0  0  0  0  0  0  0
  194.5420  175.7610  144.1550 C   0  0  0  0  0  0  0  0  0  0  0  0
  193.5100  173.8090  145.1790 C   0  0  0  0  0  0  0  0  0  0  0  0
  194.2830  174.3790  144.1400 C   0  0  0  0  0  0  0  0  0  0  0  0
  192.8200  176.7730  147.2660 O   0  0  0  0  0  1  0  0  0  0  0  0
  193.1940  172.4560  145.1970 O   0  0  0  0  0  1  0  0  0  0  0  0
  194.0500  176.5540  145.2040 C   0  0  0  0  0  3  0  0  0  0  0  0
  193.0300  174.6140  146.2160 C   0  0  0  0  0  3  0  0  0  0  0  0
  195.2970  176.3240  143.1200 O   0  0  0  0  0  0  0  0  0  0  0  0
  196.6520  176.7210  143.2820 C   0  0  0  0  0  1  0  0  0  0  0  0
  1  8  2  0  0  0  0
  3  2  1  1  0  0  0
  4 10  1  0  0  0  0
  4  1  1  1  0  0  0
  5 12  1  6  0  0  0
  5  7  1  0  0  0  0
  6 19  1  6  0  0  0
  6  4  1  0  0  0  0
  7 11  1  0  0  0  0
  9  5  1  0  0  0  0
  9  6  1  0  0  0  0
 10  3  1  0  0  0  0
 10  1  1  1  0  0  0
 11  3  1  0  0  0  0
 12 13  1  0  0  0  0
 13 14  1  0  0  0  0
 14 15  1  0  0  0  0
 15 16  1  1  0  0  0
 15 17  1  0  0  0  0
 17 18  1  0  0  0  0
 20 19  1  0  0  0  0
 21 20  1  0  0  0  0
 22 21  1  0  0  0  0
 22 23  1  0  0  0  0
 23 24  1  0  0  0  0
 25 24  1  0  0  0  0
 25 26  1  0  0  0  0
 26 30  1  0  0  0  0
 27 31  1  0  0  0  0
 28 33  1  0  0  0  0
 29 32  1  0  0  0  0
 29 34  2  0  0  0  0
 30 28  2  0  0  0  0
 30 29  1  0  0  0  0
 33 27  2  0  0  0  0
 34 27  1  0  0  0  0
 35 36  1  0  0  0  0
 35 28  1  0  0  0  0
M  END
>  <MODEL>
6

>  <REMARK>
 VINA RESULT:      -6.1      1.919      4.542
  Name = 
  15 active torsions:
  status: ('A' for Active; 'I' for Inactive)
    1  A    between atoms: C_2  and  C_13
    2  A    between atoms: C_3  and  C_14
    3  A    between atoms: C_3  and  C_24
    4  A    between atoms: C_6  and  C_26
    5  A    between atoms: C_6  and  C_32
    6  A    between atoms: C_7  and  O_33
    7  A    between atoms: C_10  and  O_21
    8  A    between atoms: C_11  and  C_26
    9  A    between atoms: C_11  and  C_29
   10  A    between atoms: C_13  and  C_24
   11  A    between atoms: C_14  and  C_15
   12  A    between atoms: C_16  and  C_27
   13  A    between atoms: C_18  and  C_27
   14  A    between atoms: C_18  and  C_29
   15  A    between atoms: O_21  and  C_32
                            x       y       z     vdW  Elec       q    Type
                         _______ _______ _______ _____ _____    ______ ____

>  <TORSDO>
F 15

$$$$
=
 OpenBabel11042414443D

 36 38  0  0  1  0  0  0  0  0999 V2000
  185.6290  177.9490  146.9280 C   0  0  0  0  0  0  0  0  0  0  0  0
  184.1150  179.0530  143.8530 C   0  0  0  0  0  1  0  0  0  0  0  0
  185.4680  179.0090  144.5370 C   0  0  1  0  0  3  0  0  0  0  0  0
  186.8540  177.8000  146.0240 C   0  0  1  0  0  3  0  0  0  0  0  0
  186.9180  176.4080  143.3050 C   0  0  2  0  0  3  0  0  0  0  0  0
  187.4330  176.4150  145.7900 C   0  0  1  0  0  3  0  0  0  0  0  0
  186.7370  177.7660  142.5950 C   0  0  0  0  0  2  0  0  0  0  0  0
  185.1070  178.0970  148.0200 O   0  0  0  0  0  0  0  0  0  0  0  0
  188.0260  176.3890  144.3720 C   0  0  0  0  0  2  0  0  0  0  0  0
  185.5610  177.7720  145.4120 C   0  0  1  0  0  3  0  0  0  0  0  0
  186.6040  179.0210  143.4870 C   0  0  0  0  0  2  0  0  0  0  0  0
  187.1730  175.3340  142.2640 C   0  0  0  0  0  2  0  0  0  0  0  0
  188.6320  174.9090  142.2850 C   0  0  0  0  0  2  0  0  0  0  0  0
  188.7850  173.5020  141.7280 C   0  0  0  0  0  2  0  0  0  0  0  0
  189.5780  172.6150  142.6760 C   0  0  2  0  0  3  0  0  0  0  0  0
  188.7280  171.6810  143.2390 F   0  0  0  0  0  0  0  0  0  0  0  0
  190.2100  173.4550  143.7730 C   0  0  0  0  0  2  0  0  0  0  0  0
  189.7270  172.9850  145.1310 C   0  0  0  0  0  1  0  0  0  0  0  0
  188.5380  176.1360  146.7920 C   0  0  0  0  0  2  0  0  0  0  0  0
  189.2170  177.4280  147.2040 C   0  0  0  0  0  2  0  0  0  0  0  0
  190.6800  177.1630  147.4850 C   0  0  0  0  0  2  0  0  0  0  0  0
  190.8990  175.6740  147.6430 C   0  0  0  0  0  2  0  0  0  0  0  0
  192.1520  175.2670  146.8980 C   0  0  0  0  0  2  0  0  0  0  0  0
  193.0460  176.4750  146.7190 C   0  0  0  0  0  2  0  0  0  0  0  0
  194.4680  176.0170  146.4550 C   0  0  0  0  0  2  0  0  0  0  0  0
  194.9230  176.5360  145.2110 O   0  0  0  0  0  0  0  0  0  0  0  0
  194.8470  174.4610  141.5410 C   0  0  0  0  0  0  0  0  0  0  0  0
  195.9420  175.0350  143.6310 C   0  0  0  0  0  0  0  0  0  0  0  0
  193.7560  175.9630  143.0970 C   0  0  0  0  0  0  0  0  0  0  0  0
  194.8580  175.8600  143.9800 C   0  0  0  0  0  0  0  0  0  0  0  0
  194.8450  173.7750  140.3340 O   0  0  0  0  0  1  0  0  0  0  0  0
  192.6430  176.7360  143.4070 O   0  0  0  0  0  1  0  0  0  0  0  0
  195.9300  174.3430  142.4100 C   0  0  0  0  0  3  0  0  0  0  0  0
  193.7630  175.2680  141.8850 C   0  0  0  0  0  3  0  0  0  0  0  0
  197.0250  174.9260  144.5110 O   0  0  0  0  0  0  0  0  0  0  0  0
  197.3830  173.7050  145.1450 C   0  0  0  0  0  1  0  0  0  0  0  0
  1  8  2  0  0  0  0
  3  2  1  6  0  0  0
  3 10  1  0  0  0  0
  4  1  1  1  0  0  0
  5 12  1  6  0  0  0
  5  9  1  0  0  0  0
  6  4  1  0  0  0  0
  6 19  1  1  0  0  0
  7  5  1  0  0  0  0
  7 11  1  0  0  0  0
  9  6  1  0  0  0  0
 10  4  1  0  0  0  0
 10  1  1  1  0  0  0
 11  3  1  0  0  0  0
 12 13  1  0  0  0  0
 14 13  1  0  0  0  0
 14 15  1  0  0  0  0
 15 16  1  1  0  0  0
 15 17  1  0  0  0  0
 17 18  1  0  0  0  0
 19 20  1  0  0  0  0
 20 21  1  0  0  0  0
 21 22  1  0  0  0  0
 23 22  1  0  0  0  0
 24 23  1  0  0  0  0
 25 24  1  0  0  0  0
 26 25  1  0  0  0  0
 27 34  2  0  0  0  0
 27 33  1  0  0  0  0
 28 30  1  0  0  0  0
 28 35  1  0  0  0  0
 29 32  1  0  0  0  0
 29 30  2  0  0  0  0
 30 26  1  0  0  0  0
 31 27  1  0  0  0  0
 33 28  2  0  0  0  0
 34 29  1  0  0  0  0
 35 36  1  0  0  0  0
M  END
>  <MODEL>
7

>  <REMARK>
 VINA RESULT:      -6.1      2.504      4.908
  Name = 
  15 active torsions:
  status: ('A' for Active; 'I' for Inactive)
    1  A    between atoms: C_2  and  C_13
    2  A    between atoms: C_3  and  C_14
    3  A    between atoms: C_3  and  C_24
    4  A    between atoms: C_6  and  C_26
    5  A    between atoms: C_6  and  C_32
    6  A    between atoms: C_7  and  O_33
    7  A    between atoms: C_10  and  O_21
    8  A    between atoms: C_11  and  C_26
    9  A    between atoms: C_11  and  C_29
   10  A    between atoms: C_13  and  C_24
   11  A    between atoms: C_14  and  C_15
   12  A    between atoms: C_16  and  C_27
   13  A    between atoms: C_18  and  C_27
   14  A    between atoms: C_18  and  C_29
   15  A    between atoms: O_21  and  C_32
                            x       y       z     vdW  Elec       q    Type
                         _______ _______ _______ _____ _____    ______ ____

>  <TORSDO>
F 15

$$$$
=
 OpenBabel11042414443D

 36 38  0  0  1  0  0  0  0  0999 V2000
  190.7470  176.0550  142.8200 C   0  0  0  0  0  0  0  0  0  0  0  0
  188.1810  175.1280  140.4710 C   0  0  0  0  0  1  0  0  0  0  0  0
  188.4430  175.1480  141.9650 C   0  0  1  0  0  3  0  0  0  0  0  0
  189.5380  176.2800  143.7300 C   0  0  1  0  0  3  0  0  0  0  0  0
  187.0150  177.8430  143.0070 C   0  0  2  0  0  3  0  0  0  0  0  0
  189.2370  177.6850  144.2220 C   0  0  1  0  0  3  0  0  0  0  0  0
  186.3010  176.5300  142.6200 C   0  0  0  0  0  2  0  0  0  0  0  0
  191.9320  175.8310  142.6380 O   0  0  0  0  0  0  0  0  0  0  0  0
  187.7130  177.8100  144.3770 C   0  0  0  0  0  2  0  0  0  0  0  0
  189.3320  176.3280  142.3140 C   0  0  1  0  0  3  0  0  0  0  0  0
  187.1090  175.2200  142.7470 C   0  0  0  0  0  2  0  0  0  0  0  0
  186.0170  178.9850  142.9520 C   0  0  0  0  0  2  0  0  0  0  0  0
  185.7310  179.5070  144.3510 C   0  0  0  0  0  2  0  0  0  0  0  0
  184.4010  178.9690  144.8570 C   0  0  0  0  0  2  0  0  0  0  0  0
  184.4730  178.6230  146.3370 C   0  0  2  0  0  3  0  0  0  0  0  0
  185.4310  179.4150  146.9410 F   0  0  0  0  0  0  0  0  0  0  0  0
  184.8350  177.1580  146.5160 C   0  0  0  0  0  2  0  0  0  0  0  0
  186.0850  177.0320  147.3650 C   0  0  0  0  0  1  0  0  0  0  0  0
  189.8910  177.9160  145.5720 C   0  0  0  0  0  2  0  0  0  0  0  0
  189.8050  176.6620  146.4220 C   0  0  0  0  0  2  0  0  0  0  0  0
  190.7020  176.8090  147.6320 C   0  0  0  0  0  2  0  0  0  0  0  0
  191.5370  175.5560  147.7920 C   0  0  0  0  0  2  0  0  0  0  0  0
  191.7020  174.8850  146.4450 C   0  0  0  0  0  2  0  0  0  0  0  0
  193.1690  174.6080  146.1980 C   0  0  0  0  0  2  0  0  0  0  0  0
  193.3160  173.7090  144.9850 C   0  0  0  0  0  2  0  0  0  0  0  0
  194.6850  173.6230  144.6080 O   0  0  0  0  0  0  0  0  0  0  0  0
  196.3950  175.4470  141.2130 C   0  0  0  0  0  0  0  0  0  0  0  0
  195.3270  173.5510  142.2900 C   0  0  0  0  0  0  0  0  0  0  0  0
  195.7570  175.5920  143.5450 C   0  0  0  0  0  0  0  0  0  0  0  0
  195.2610  174.2670  143.4980 C   0  0  0  0  0  0  0  0  0  0  0  0
  196.9610  176.0280  140.0850 O   0  0  0  0  0  1  0  0  0  0  0  0
  195.6860  176.3580  144.7030 O   0  0  0  0  0  1  0  0  0  0  0  0
  195.8980  174.1470  141.1540 C   0  0  0  0  0  3  0  0  0  0  0  0
  196.3230  176.1680  142.4040 C   0  0  0  0  0  3  0  0  0  0  0  0
  194.8250  172.2460  142.2430 O   0  0  0  0  0  0  0  0  0  0  0  0
  193.7040  171.8780  141.4510 C   0  0  0  0  0  1  0  0  0  0  0  0
  3  2  1  6  0  0  0
  3 10  1  0  0  0  0
  3 11  1  0  0  0  0
  4  1  1  6  0  0  0
  4  6  1  0  0  0  0
  5 12  1  1  0  0  0
  5  9  1  0  0  0  0
  6  9  1  0  0  0  0
  6 19  1  1  0  0  0
  7 11  1  0  0  0  0
  7  5  1  0  0  0  0
  8  1  2  0  0  0  0
 10  1  1  6  0  0  0
 10  4  1  0  0  0  0
 12 13  1  0  0  0  0
 13 14  1  0  0  0  0
 14 15  1  0  0  0  0
 15 17  1  0  0  0  0
 15 16  1  1  0  0  0
 17 18  1  0  0  0  0
 19 20  1  0  0  0  0
 20 21  1  0  0  0  0
 21 22  1  0  0  0  0
 23 22  1  0  0  0  0
 24 23  1  0  0  0  0
 25 24  1  0  0  0  0
 26 25  1  0  0  0  0
 27 34  1  0  0  0  0
 28 30  2  0  0  0  0
 29 32  1  0  0  0  0
 30 29  1  0  0  0  0
 30 26  1  0  0  0  0
 31 27  1  0  0  0  0
 33 27  2  0  0  0  0
 33 28  1  0  0  0  0
 34 29  2  0  0  0  0
 35 28  1  0  0  0  0
 36 35  1  0  0  0  0
M  END
>  <MODEL>
8

>  <REMARK>
 VINA RESULT:      -6.1      1.840      3.695
  Name = 
  15 active torsions:
  status: ('A' for Active; 'I' for Inactive)
    1  A    between atoms: C_2  and  C_13
    2  A    between atoms: C_3  and  C_14
    3  A    between atoms: C_3  and  C_24
    4  A    between atoms: C_6  and  C_26
    5  A    between atoms: C_6  and  C_32
    6  A    between atoms: C_7  and  O_33
    7  A    between atoms: C_10  and  O_21
    8  A    between atoms: C_11  and  C_26
    9  A    between atoms: C_11  and  C_29
   10  A    between atoms: C_13  and  C_24
   11  A    between atoms: C_14  and  C_15
   12  A    between atoms: C_16  and  C_27
   13  A    between atoms: C_18  and  C_27
   14  A    between atoms: C_18  and  C_29
   15  A    between atoms: O_21  and  C_32
                            x       y       z     vdW  Elec       q    Type
                         _______ _______ _______ _____ _____    ______ ____

>  <TORSDO>
F 15

$$$$
=
 OpenBabel11042414443D

 36 38  0  0  1  0  0  0  0  0999 V2000
  185.1270  178.0820  146.6350 C   0  0  0  0  0  0  0  0  0  0  0  0
  183.7950  178.9090  143.3940 C   0  0  0  0  0  1  0  0  0  0  0  0
  185.0900  178.9930  144.1790 C   0  0  1  0  0  3  0  0  0  0  0  0
  186.4270  177.9640  145.8370 C   0  0  1  0  0  3  0  0  0  0  0  0
  186.7920  176.4290  143.2200 C   0  0  2  0  0  3  0  0  0  0  0  0
  187.1070  176.6100  145.7320 C   0  0  1  0  0  3  0  0  0  0  0  0
  186.5840  177.7310  142.4170 C   0  0  0  0  0  2  0  0  0  0  0  0
  184.5120  178.2560  147.6740 O   0  0  0  0  0  0  0  0  0  0  0  0
  187.8100  176.5440  144.3670 C   0  0  0  0  0  2  0  0  0  0  0  0
  185.1900  177.8160  145.1320 C   0  0  1  0  0  3  0  0  0  0  0  0
  186.3030  179.0220  143.2190 C   0  0  0  0  0  2  0  0  0  0  0  0
  187.1940  175.3180  142.2690 C   0  0  0  0  0  2  0  0  0  0  0  0
  188.6900  175.0620  142.3540 C   0  0  0  0  0  2  0  0  0  0  0  0
  189.0540  173.7870  141.6090 C   0  0  0  0  0  2  0  0  0  0  0  0
  189.1290  172.5970  142.5550 C   0  0  2  0  0  3  0  0  0  0  0  0
  187.8520  172.1130  142.7750 F   0  0  0  0  0  0  0  0  0  0  0  0
  189.7500  173.0160  143.8770 C   0  0  0  0  0  2  0  0  0  0  0  0
  191.1590  172.4680  143.9860 C   0  0  0  0  0  1  0  0  0  0  0  0
  188.1450  176.4620  146.8300 C   0  0  0  0  0  2  0  0  0  0  0  0
  188.9440  175.1880  146.6320 C   0  0  0  0  0  2  0  0  0  0  0  0
  190.2350  175.2740  147.4170 C   0  0  0  0  0  2  0  0  0  0  0  0
  191.1820  176.2270  146.7210 C   0  0  0  0  0  2  0  0  0  0  0  0
  192.6020  175.7220  146.8630 C   0  0  0  0  0  2  0  0  0  0  0  0
  193.5650  176.8770  146.7050 C   0  0  0  0  0  2  0  0  0  0  0  0
  194.7910  176.4130  145.9410 C   0  0  0  0  0  2  0  0  0  0  0  0
  194.6920  176.8070  144.5780 O   0  0  0  0  0  0  0  0  0  0  0  0
  194.7790  174.1880  141.2740 C   0  0  0  0  0  0  0  0  0  0  0  0
  193.5550  175.5410  142.8760 C   0  0  0  0  0  0  0  0  0  0  0  0
  195.9860  175.4550  142.9490 C   0  0  0  0  0  0  0  0  0  0  0  0
  194.7640  175.9350  143.4770 C   0  0  0  0  0  0  0  0  0  0  0  0
  194.7850  173.3210  140.1890 O   0  0  0  0  0  1  0  0  0  0  0  0
  197.2120  175.8380  143.4810 O   0  0  0  0  0  1  0  0  0  0  0  0
  193.5710  174.6660  141.7780 C   0  0  0  0  0  3  0  0  0  0  0  0
  195.9820  174.5830  141.8560 C   0  0  0  0  0  3  0  0  0  0  0  0
  192.3480  176.0260  143.3930 O   0  0  0  0  0  0  0  0  0  0  0  0
  191.8080  177.2920  143.0340 C   0  0  0  0  0  1  0  0  0  0  0  0
  1  8  2  0  0  0  0
  3  2  1  6  0  0  0
  3 10  1  0  0  0  0
  4  1  1  1  0  0  0
  5 12  1  6  0  0  0
  5  9  1  0  0  0  0
  6  4  1  0  0  0  0
  6 19  1  1  0  0  0
  7 11  1  0  0  0  0
  7  5  1  0  0  0  0
  9  6  1  0  0  0  0
 10  4  1  0  0  0  0
 10  1  1  1  0  0  0
 11  3  1  0  0  0  0
 12 13  1  0  0  0  0
 14 13  1  0  0  0  0
 14 15  1  0  0  0  0
 15 16  1  1  0  0  0
 15 17  1  0  0  0  0
 17 18  1  0  0  0  0
 20 19  1  0  0  0  0
 20 21  1  0  0  0  0
 22 23  1  0  0  0  0
 22 21  1  0  0  0  0
 24 23  1  0  0  0  0
 25 24  1  0  0  0  0
 26 25  1  0  0  0  0
 27 33  2  0  0  0  0
 27 34  1  0  0  0  0
 28 35  1  0  0  0  0
 28 30  2  0  0  0  0
 29 30  1  0  0  0  0
 29 32  1  0  0  0  0
 30 26  1  0  0  0  0
 31 27  1  0  0  0  0
 33 28  1  0  0  0  0
 34 29  2  0  0  0  0
 36 35  1  0  0  0  0
M  END
>  <MODEL>
9

>  <REMARK>
 VINA RESULT:      -6.0      2.453      5.164
  Name = 
  15 active torsions:
  status: ('A' for Active; 'I' for Inactive)
    1  A    between atoms: C_2  and  C_13
    2  A    between atoms: C_3  and  C_14
    3  A    between atoms: C_3  and  C_24
    4  A    between atoms: C_6  and  C_26
    5  A    between atoms: C_6  and  C_32
    6  A    between atoms: C_7  and  O_33
    7  A    between atoms: C_10  and  O_21
    8  A    between atoms: C_11  and  C_26
    9  A    between atoms: C_11  and  C_29
   10  A    between atoms: C_13  and  C_24
   11  A    between atoms: C_14  and  C_15
   12  A    between atoms: C_16  and  C_27
   13  A    between atoms: C_18  and  C_27
   14  A    between atoms: C_18  and  C_29
   15  A    between atoms: O_21  and  C_32
                            x       y       z     vdW  Elec       q    Type
                         _______ _______ _______ _____ _____    ______ ____

>  <TORSDO>
F 15

$$$$
