=
 OpenBabel11042419143D

 46 48  0  0  1  0  0  0  0  0999 V2000
  190.1190  173.1020  144.6870 C   0  0  1  0  0  3  0  0  0  0  0  0
  192.7480  172.7240  144.3630 C   0  0  0  0  0  0  0  0  0  0  0  0
  191.5640  172.9140  144.4990 C   0  0  0  0  0  0  0  0  0  0  0  0
  194.1820  172.4530  144.2200 C   0  0  0  0  0  2  0  0  0  0  0  0
  193.6730  174.3180  140.0550 C   0  0  0  0  0  0  0  0  0  0  0  0
  194.2790  175.4770  139.9720 N   0  0  0  0  0  0  0  0  0  0  0  0
  194.8670  173.5860  143.6060 N   0  0  0  0  0  0  0  0  0  0  0  0
  194.6930  174.0180  142.3410 C   0  0  0  0  0  0  0  0  0  0  0  0
  195.5910  174.5490  144.2290 C   0  0  0  0  0  0  0  0  0  0  0  0
  195.3110  175.2180  142.1660 C   0  0  0  0  0  0  0  0  0  0  0  0
  192.8650  173.9020  138.9450 N   0  0  0  0  0  2  0  0  0  0  0  0
  195.1020  175.9960  140.9950 N   0  0  0  0  0  2  0  0  0  0  0  0
  195.8950  175.5840  143.3530 C   0  0  0  0  0  0  0  0  0  0  0  0
  192.1760  171.8010  139.7370 O   0  0  0  0  0  0  0  0  0  0  0  0
  192.1500  172.6660  138.8190 C   0  0  0  0  0  0  0  0  0  0  0  0
  193.8030  173.4240  141.2930 C   0  0  0  0  0  2  0  0  0  0  0  0
  195.8660  174.5620  145.6260 N   0  0  0  0  0  1  0  0  0  0  0  0
  196.5420  176.8860  143.6780 C   0  0  0  0  0  1  0  0  0  0  0  0
  191.1520  173.7240  136.8370 C   0  0  0  0  0  1  0  0  0  0  0  0
  191.3800  172.3960  137.5580 C   0  0  2  0  0  3  0  0  0  0  0  0
  189.0470  172.7060  137.9370 C   0  0  0  0  0  1  0  0  0  0  0  0
  189.7500  170.8870  136.7070 C   0  0  0  0  0  1  0  0  0  0  0  0
  190.1090  171.7120  137.8520 N   0  0  0  0  0  0  0  0  0  0  0  0
  189.8520  174.5440  145.1040 C   0  0  0  0  0  2  0  0  0  0  0  0
  190.6530  174.9300  146.3410 C   0  0  0  0  0  2  0  0  0  0  0  0
  191.0330  176.3380  146.2850 N   0  0  0  0  0  0  0  0  0  0  0  0
  190.2500  176.9490  145.3630 O   0  0  0  0  0  1  0  0  0  0  0  0
  192.5730  176.6290  144.3430 C   0  0  0  0  0  1  0  0  0  0  0  0
  192.4290  176.4410  145.8540 C   0  0  0  0  0  2  0  0  0  0  0  0
  189.3770  172.7810  143.3930 C   0  0  0  0  0  2  0  0  0  0  0  0
  190.1760  173.1940  142.1950 C   0  0  0  0  0  3  0  0  0  0  0  0
  189.7960  174.1810  141.3920 C   0  0  0  0  0  3  0  0  0  0  0  0
  188.5690  174.8820  141.5990 N   0  0  0  0  0  2  0  0  0  0  0  0
  188.5420  176.2690  141.9500 C   0  0  0  0  0  0  0  0  0  0  0  0
  189.6100  176.8720  142.2560 O   0  0  0  0  0  0  0  0  0  0  0  0
  187.2660  176.9960  141.9560 C   0  0  0  0  0  0  0  0  0  0  0  0
  185.4710  177.8990  141.2870 C   0  0  1  0  0  3  0  0  0  0  0  0
  184.3840  178.4040  140.4010 C   0  0  0  0  0  1  0  0  0  0  0  0
  186.5110  177.1680  140.8490 N   0  0  0  0  0  0  0  0  0  0  0  0
  186.7550  177.5800  143.0640 N   0  0  0  0  0  0  0  0  0  0  0  0
  185.6160  178.1430  142.6370 C   0  0  0  0  0  0  0  0  0  0  0  0
  184.7160  178.9520  143.5230 C   0  0  0  0  0  2  0  0  0  0  0  0
  185.4710  179.5890  144.6520 C   0  0  0  0  0  3  0  0  0  0  0  0
  185.3270  179.2420  145.9400 C   0  0  0  0  0  3  0  0  0  0  0  0
  184.3930  178.1630  146.3910 C   0  0  0  0  0  2  0  0  0  0  0  0
  185.1530  176.8580  146.5320 C   0  0  0  0  0  1  0  0  0  0  0  0
  1 30  1  6  0  0  0
  1 24  1  0  0  0  0
  2  3  3  0  0  0  0
  3  1  1  0  0  0  0
  4  2  1  0  0  0  0
  5 16  1  0  0  0  0
  6  5  2  0  0  0  0
  6 12  1  0  0  0  0
  7  4  1  0  0  0  0
  7  9  1  0  0  0  0
  8  7  1  0  0  0  0
  9 17  1  0  0  0  0
 10  8  2  0  0  0  0
 10 13  1  0  0  0  0
 11  5  1  0  0  0  0
 12 10  1  0  0  0  0
 13 18  1  0  0  0  0
 13  9  2  0  0  0  0
 15 11  1  0  0  0  0
 15 14  2  0  0  0  0
 16  8  1  0  0  0  0
 20 19  1  1  0  0  0
 20 23  1  0  0  0  0
 20 15  1  0  0  0  0
 22 23  1  0  0  0  0
 23 21  1  0  0  0  0
 24 25  1  0  0  0  0
 26 25  1  0  0  0  0
 27 26  1  0  0  0  0
 28 29  1  0  0  0  0
 29 26  1  0  0  0  0
 31 30  1  0  0  0  0
 32 33  1  0  0  0  0
 32 31  2  0  0  0  0
 33 34  1  0  0  0  0
 34 36  1  0  0  0  0
 34 35  2  0  0  0  0
 36 40  1  0  0  0  0
 37 38  1  6  0  0  0
 37 41  1  0  0  0  0
 39 37  1  0  0  0  0
 39 36  2  0  0  0  0
 41 40  2  0  0  0  0
 41 42  1  0  0  0  0
 42 43  1  0  0  0  0
 43 44  2  0  0  0  0
 44 45  1  0  0  0  0
 45 46  1  0  0  0  0
M  END
>  <MODEL>
1

>  <REMARK>
 VINA RESULT:      -6.6      0.000      0.000
  Name = 
  16 active torsions:
  status: ('A' for Active; 'I' for Inactive)
    1  A    between atoms: N_2  and  C_28
    2  A    between atoms: N_2  and  C_45
    3  A    between atoms: C_3  and  C_19
    4  A    between atoms: C_4  and  C_27
    5  A    between atoms: C_5  and  C_25
    6  A    between atoms: N_9  and  C_14
    7  A    between atoms: N_12  and  C_46
    8  A    between atoms: C_13  and  C_15
    9  A    between atoms: C_17  and  C_46
   10  A    between atoms: C_18  and  C_20
   11  A    between atoms: C_18  and  C_28
   12  A    between atoms: C_19  and  C_20
   13  A    between atoms: C_20  and  C_41
   14  A    between atoms: C_21  and  N_34
   15  A    between atoms: C_21  and  C_38
   16  A    between atoms: C_27  and  C_32
                            x       y       z     vdW  Elec       q    Type
                         _______ _______ _______ _____ _____    ______ ____

>  <TORSDO>
F 16

$$$$
=
 OpenBabel11042419143D

 46 48  0  0  1  0  0  0  0  0999 V2000
  195.1210  172.9660  144.3450 C   0  0  1  0  0  3  0  0  0  0  0  0
  192.5150  172.3930  144.1410 C   0  0  0  0  0  0  0  0  0  0  0  0
  193.6870  172.6710  144.2240 C   0  0  0  0  0  0  0  0  0  0  0  0
  191.1010  172.0140  144.0590 C   0  0  0  0  0  2  0  0  0  0  0  0
  188.7680  174.2290  140.7830 C   0  0  0  0  0  0  0  0  0  0  0  0
  188.8870  173.6310  139.6230 N   0  0  0  0  0  0  0  0  0  0  0  0
  190.7520  171.5940  142.7060 N   0  0  0  0  0  0  0  0  0  0  0  0
  189.9990  172.2960  141.8360 C   0  0  0  0  0  0  0  0  0  0  0  0
  191.3010  170.5830  141.9880 C   0  0  0  0  0  0  0  0  0  0  0  0
  190.0550  171.7270  140.6000 C   0  0  0  0  0  0  0  0  0  0  0  0
  188.0900  175.4920  140.8200 N   0  0  0  0  0  2  0  0  0  0  0  0
  189.5310  172.3850  139.4550 N   0  0  0  0  0  2  0  0  0  0  0  0
  190.8780  170.6300  140.6650 C   0  0  0  0  0  0  0  0  0  0  0  0
  188.1960  175.9180  143.1280 O   0  0  0  0  0  0  0  0  0  0  0  0
  187.8240  176.2900  141.9810 C   0  0  0  0  0  0  0  0  0  0  0  0
  189.3360  173.6180  142.0690 C   0  0  0  0  0  2  0  0  0  0  0  0
  192.2900  169.6920  142.4920 N   0  0  0  0  0  1  0  0  0  0  0  0
  191.3600  169.7940  139.5300 C   0  0  0  0  0  1  0  0  0  0  0  0
  187.1560  178.3570  143.1340 C   0  0  0  0  0  1  0  0  0  0  0  0
  187.0660  177.5770  141.8220 C   0  0  2  0  0  3  0  0  0  0  0  0
  184.7990  177.6810  142.5500 C   0  0  0  0  0  1  0  0  0  0  0  0
  185.3030  178.2440  140.3710 C   0  0  0  0  0  1  0  0  0  0  0  0
  185.6670  177.3210  141.4370 N   0  0  0  0  0  0  0  0  0  0  0  0
  195.7300  173.0710  142.9520 C   0  0  0  0  0  2  0  0  0  0  0  0
  194.9580  172.2380  141.9360 C   0  0  0  0  0  2  0  0  0  0  0  0
  195.1220  172.7880  140.5940 N   0  0  0  0  0  0  0  0  0  0  0  0
  196.4500  172.9040  140.3470 O   0  0  0  0  0  1  0  0  0  0  0  0
  193.0050  174.0980  140.7630 C   0  0  0  0  0  1  0  0  0  0  0  0
  194.5190  174.1210  140.5450 C   0  0  0  0  0  2  0  0  0  0  0  0
  195.3230  174.2720  145.1090 C   0  0  0  0  0  2  0  0  0  0  0  0
  195.5130  175.4240  144.1690 C   0  0  0  0  0  3  0  0  0  0  0  0
  194.6790  176.4560  144.1320 C   0  0  0  0  0  3  0  0  0  0  0  0
  193.5160  176.5080  144.9620 N   0  0  0  0  0  2  0  0  0  0  0  0
  192.1950  176.4310  144.4150 C   0  0  0  0  0  0  0  0  0  0  0  0
  192.0160  176.4880  143.1650 O   0  0  0  0  0  0  0  0  0  0  0  0
  191.0420  176.2870  145.3110 C   0  0  0  0  0  0  0  0  0  0  0  0
  189.6620  175.4490  146.6830 C   0  0  1  0  0  3  0  0  0  0  0  0
  188.9610  174.4820  147.5750 C   0  0  0  0  0  1  0  0  0  0  0  0
  190.8140  175.1760  146.0460 N   0  0  0  0  0  0  0  0  0  0  0  0
  190.0940  177.2420  145.4540 N   0  0  0  0  0  0  0  0  0  0  0  0
  189.2290  176.7090  146.3290 C   0  0  0  0  0  0  0  0  0  0  0  0
  187.9710  177.4010  146.7650 C   0  0  0  0  0  2  0  0  0  0  0  0
  186.7470  176.6060  146.4180 C   0  0  0  0  0  3  0  0  0  0  0  0
  185.4950  177.0780  146.5130 C   0  0  0  0  0  3  0  0  0  0  0  0
  185.1840  178.4680  146.9720 C   0  0  0  0  0  2  0  0  0  0  0  0
  184.7880  179.3210  145.7810 C   0  0  0  0  0  1  0  0  0  0  0  0
  1 24  1  6  0  0  0
  1 30  1  0  0  0  0
  2  3  3  0  0  0  0
  3  1  1  0  0  0  0
  4  2  1  0  0  0  0
  5 11  1  0  0  0  0
  5 16  1  0  0  0  0
  6  5  2  0  0  0  0
  7  4  1  0  0  0  0
  8 16  1  0  0  0  0
  8  7  1  0  0  0  0
  9 17  1  0  0  0  0
  9  7  1  0  0  0  0
 10 13  1  0  0  0  0
 10  8  2  0  0  0  0
 11 15  1  0  0  0  0
 12  6  1  0  0  0  0
 12 10  1  0  0  0  0
 13  9  2  0  0  0  0
 15 14  2  0  0  0  0
 18 13  1  0  0  0  0
 20 15  1  0  0  0  0
 20 19  1  1  0  0  0
 22 23  1  0  0  0  0
 23 20  1  0  0  0  0
 23 21  1  0  0  0  0
 25 24  1  0  0  0  0
 26 25  1  0  0  0  0
 27 26  1  0  0  0  0
 29 26  1  0  0  0  0
 29 28  1  0  0  0  0
 31 30  1  0  0  0  0
 32 31  2  0  0  0  0
 32 33  1  0  0  0  0
 34 33  1  0  0  0  0
 34 36  1  0  0  0  0
 35 34  2  0  0  0  0
 36 40  1  0  0  0  0
 36 39  2  0  0  0  0
 37 38  1  6  0  0  0
 39 37  1  0  0  0  0
 40 41  2  0  0  0  0
 41 37  1  0  0  0  0
 41 42  1  0  0  0  0
 43 44  2  0  0  0  0
 43 42  1  0  0  0  0
 44 45  1  0  0  0  0
 46 45  1  0  0  0  0
M  END
>  <MODEL>
2

>  <REMARK>
 VINA RESULT:      -6.5      2.012      6.146
  Name = 
  16 active torsions:
  status: ('A' for Active; 'I' for Inactive)
    1  A    between atoms: N_2  and  C_28
    2  A    between atoms: N_2  and  C_45
    3  A    between atoms: C_3  and  C_19
    4  A    between atoms: C_4  and  C_27
    5  A    between atoms: C_5  and  C_25
    6  A    between atoms: N_9  and  C_14
    7  A    between atoms: N_12  and  C_46
    8  A    between atoms: C_13  and  C_15
    9  A    between atoms: C_17  and  C_46
   10  A    between atoms: C_18  and  C_20
   11  A    between atoms: C_18  and  C_28
   12  A    between atoms: C_19  and  C_20
   13  A    between atoms: C_20  and  C_41
   14  A    between atoms: C_21  and  N_34
   15  A    between atoms: C_21  and  C_38
   16  A    between atoms: C_27  and  C_32
                            x       y       z     vdW  Elec       q    Type
                         _______ _______ _______ _____ _____    ______ ____

>  <TORSDO>
F 16

$$$$
=
 OpenBabel11042419143D

 46 48  0  0  1  0  0  0  0  0999 V2000
  194.1330  174.0000  144.8420 C   0  0  1  0  0  3  0  0  0  0  0  0
  192.1840  172.2250  144.3860 C   0  0  0  0  0  0  0  0  0  0  0  0
  193.0500  173.0360  144.6070 C   0  0  0  0  0  0  0  0  0  0  0  0
  191.1590  171.2190  144.0870 C   0  0  0  0  0  2  0  0  0  0  0  0
  189.2200  173.5590  140.6440 C   0  0  0  0  0  0  0  0  0  0  0  0
  189.6210  173.1150  139.4780 N   0  0  0  0  0  0  0  0  0  0  0  0
  191.1180  170.9280  142.6580 N   0  0  0  0  0  0  0  0  0  0  0  0
  190.4590  171.6480  141.7280 C   0  0  0  0  0  0  0  0  0  0  0  0
  191.9060  170.0670  141.9680 C   0  0  0  0  0  0  0  0  0  0  0  0
  190.8090  171.2360  140.4790 C   0  0  0  0  0  0  0  0  0  0  0  0
  188.4000  174.7360  140.6690 N   0  0  0  0  0  2  0  0  0  0  0  0
  190.4290  171.9680  139.3220 N   0  0  0  0  0  2  0  0  0  0  0  0
  191.7320  170.2260  140.5980 C   0  0  0  0  0  0  0  0  0  0  0  0
  188.0280  174.8980  142.9820 O   0  0  0  0  0  0  0  0  0  0  0  0
  187.8320  175.3620  141.8260 C   0  0  0  0  0  0  0  0  0  0  0  0
  189.6110  172.8620  141.9520 C   0  0  0  0  0  2  0  0  0  0  0  0
  192.8850  169.2260  142.5680 N   0  0  0  0  0  1  0  0  0  0  0  0
  192.5100  169.5800  139.5050 C   0  0  0  0  0  1  0  0  0  0  0  0
  186.9590  176.9490  140.1630 C   0  0  0  0  0  1  0  0  0  0  0  0
  186.9680  176.5770  141.6450 C   0  0  2  0  0  3  0  0  0  0  0  0
  188.6280  178.2730  141.8650 C   0  0  0  0  0  1  0  0  0  0  0  0
  186.4490  178.7560  142.4460 C   0  0  0  0  0  1  0  0  0  0  0  0
  187.4430  177.6920  142.4820 N   0  0  0  0  0  0  0  0  0  0  0  0
  195.3710  173.2540  145.3300 C   0  0  0  0  0  2  0  0  0  0  0  0
  196.2030  172.7260  144.1690 C   0  0  0  0  0  2  0  0  0  0  0  0
  196.6160  171.3490  144.4200 N   0  0  0  0  0  0  0  0  0  0  0  0
  195.5650  170.5380  144.1430 O   0  0  0  0  0  1  0  0  0  0  0  0
  196.4230  169.9050  146.4460 C   0  0  0  0  0  1  0  0  0  0  0  0
  196.9590  171.2020  145.8350 C   0  0  0  0  0  2  0  0  0  0  0  0
  194.4480  174.7580  143.5560 C   0  0  0  0  0  2  0  0  0  0  0  0
  195.0890  176.0810  143.8510 C   0  0  0  0  0  3  0  0  0  0  0  0
  194.5750  176.9410  144.7220 C   0  0  0  0  0  3  0  0  0  0  0  0
  193.3460  176.6730  145.4010 N   0  0  0  0  0  2  0  0  0  0  0  0
  192.0880  177.1290  144.8910 C   0  0  0  0  0  0  0  0  0  0  0  0
  192.0460  177.9290  143.9140 O   0  0  0  0  0  0  0  0  0  0  0  0
  190.8390  176.6640  145.5080 C   0  0  0  0  0  0  0  0  0  0  0  0
  189.4790  175.5310  146.6700 C   0  0  1  0  0  3  0  0  0  0  0  0
  188.9090  174.4790  147.5600 C   0  0  0  0  0  1  0  0  0  0  0  0
  190.7880  175.6400  146.3870 N   0  0  0  0  0  0  0  0  0  0  0  0
  189.6310  177.2030  145.2240 N   0  0  0  0  0  0  0  0  0  0  0  0
  188.7760  176.4870  145.9680 C   0  0  0  0  0  0  0  0  0  0  0  0
  187.2910  176.7020  145.9470 C   0  0  0  0  0  2  0  0  0  0  0  0
  186.8040  177.3550  147.2060 C   0  0  0  0  0  3  0  0  0  0  0  0
  186.0220  178.4460  147.2290 C   0  0  0  0  0  3  0  0  0  0  0  0
  185.5420  179.1290  145.9880 C   0  0  0  0  0  2  0  0  0  0  0  0
  184.0990  178.7430  145.7210 C   0  0  0  0  0  1  0  0  0  0  0  0
  1 30  1  6  0  0  0
  1 24  1  0  0  0  0
  2  3  3  0  0  0  0
  3  1  1  0  0  0  0
  4  2  1  0  0  0  0
  5 11  1  0  0  0  0
  5 16  1  0  0  0  0
  6  5  2  0  0  0  0
  7  4  1  0  0  0  0
  8 16  1  0  0  0  0
  8  7  1  0  0  0  0
  9 17  1  0  0  0  0
  9  7  1  0  0  0  0
 10 13  1  0  0  0  0
 10  8  2  0  0  0  0
 11 15  1  0  0  0  0
 12  6  1  0  0  0  0
 12 10  1  0  0  0  0
 13  9  2  0  0  0  0
 15 14  2  0  0  0  0
 18 13  1  0  0  0  0
 20 19  1  6  0  0  0
 20 15  1  0  0  0  0
 20 23  1  0  0  0  0
 21 23  1  0  0  0  0
 22 23  1  0  0  0  0
 25 26  1  0  0  0  0
 25 24  1  0  0  0  0
 26 29  1  0  0  0  0
 27 26  1  0  0  0  0
 29 28  1  0  0  0  0
 30 31  1  0  0  0  0
 31 32  2  0  0  0  0
 32 33  1  0  0  0  0
 34 33  1  0  0  0  0
 34 36  1  0  0  0  0
 35 34  2  0  0  0  0
 36 39  2  0  0  0  0
 37 38  1  6  0  0  0
 39 37  1  0  0  0  0
 40 36  1  0  0  0  0
 40 41  2  0  0  0  0
 41 37  1  0  0  0  0
 42 41  1  0  0  0  0
 42 43  1  0  0  0  0
 43 44  2  0  0  0  0
 45 44  1  0  0  0  0
 46 45  1  0  0  0  0
M  END
>  <MODEL>
3

>  <REMARK>
 VINA RESULT:      -6.2      2.415      5.973
  Name = 
  16 active torsions:
  status: ('A' for Active; 'I' for Inactive)
    1  A    between atoms: N_2  and  C_28
    2  A    between atoms: N_2  and  C_45
    3  A    between atoms: C_3  and  C_19
    4  A    between atoms: C_4  and  C_27
    5  A    between atoms: C_5  and  C_25
    6  A    between atoms: N_9  and  C_14
    7  A    between atoms: N_12  and  C_46
    8  A    between atoms: C_13  and  C_15
    9  A    between atoms: C_17  and  C_46
   10  A    between atoms: C_18  and  C_20
   11  A    between atoms: C_18  and  C_28
   12  A    between atoms: C_19  and  C_20
   13  A    between atoms: C_20  and  C_41
   14  A    between atoms: C_21  and  N_34
   15  A    between atoms: C_21  and  C_38
   16  A    between atoms: C_27  and  C_32
                            x       y       z     vdW  Elec       q    Type
                         _______ _______ _______ _____ _____    ______ ____

>  <TORSDO>
F 16

$$$$
=
 OpenBabel11042419143D

 46 48  0  0  1  0  0  0  0  0999 V2000
  189.5240  176.8910  146.6100 C   0  0  1  0  0  3  0  0  0  0  0  0
  187.2040  176.6770  145.2950 C   0  0  0  0  0  0  0  0  0  0  0  0
  188.2540  176.7920  145.8770 C   0  0  0  0  0  0  0  0  0  0  0  0
  185.9190  176.4980  144.6100 C   0  0  0  0  0  2  0  0  0  0  0  0
  188.1020  174.9010  140.9000 C   0  0  0  0  0  0  0  0  0  0  0  0
  187.7000  175.5080  139.8100 N   0  0  0  0  0  0  0  0  0  0  0  0
  185.9750  177.0270  143.2520 N   0  0  0  0  0  0  0  0  0  0  0  0
  186.7060  176.5170  142.2400 C   0  0  0  0  0  0  0  0  0  0  0  0
  185.1450  177.9380  142.6860 C   0  0  0  0  0  0  0  0  0  0  0  0
  186.3580  177.1100  141.0650 C   0  0  0  0  0  0  0  0  0  0  0  0
  189.0020  173.7930  140.7580 N   0  0  0  0  0  2  0  0  0  0  0  0
  186.8170  176.6100  139.8170 N   0  0  0  0  0  2  0  0  0  0  0  0
  185.3640  178.0240  141.3160 C   0  0  0  0  0  0  0  0  0  0  0  0
  189.3270  173.2690  143.0250 O   0  0  0  0  0  0  0  0  0  0  0  0
  189.5840  173.0200  141.8160 C   0  0  0  0  0  0  0  0  0  0  0  0
  187.6310  175.3410  142.2910 C   0  0  0  0  0  2  0  0  0  0  0  0
  184.0950  178.6010  143.3820 N   0  0  0  0  0  1  0  0  0  0  0  0
  184.5700  178.7920  140.3180 C   0  0  0  0  0  1  0  0  0  0  0  0
  190.8790  171.1480  142.7470 C   0  0  0  0  0  1  0  0  0  0  0  0
  190.5360  171.9110  141.4670 C   0  0  2  0  0  3  0  0  0  0  0  0
  192.9170  171.9860  141.5450 C   0  0  0  0  0  1  0  0  0  0  0  0
  191.8670  171.8210  139.4980 C   0  0  0  0  0  1  0  0  0  0  0  0
  191.7440  172.4400  140.8110 N   0  0  0  0  0  0  0  0  0  0  0  0
  190.0490  175.4870  146.8920 C   0  0  0  0  0  2  0  0  0  0  0  0
  191.3420  175.5220  147.6970 C   0  0  0  0  0  2  0  0  0  0  0  0
  192.4190  174.8640  146.9640 N   0  0  0  0  0  0  0  0  0  0  0  0
  193.3640  175.7940  146.6820 O   0  0  0  0  0  1  0  0  0  0  0  0
  192.7190  173.1810  145.1460 C   0  0  0  0  0  1  0  0  0  0  0  0
  191.8900  174.3400  145.7040 C   0  0  0  0  0  2  0  0  0  0  0  0
  190.5410  177.6800  145.7910 C   0  0  0  0  0  2  0  0  0  0  0  0
  190.0020  178.0080  144.4310 C   0  0  0  0  0  3  0  0  0  0  0  0
  190.7240  177.8650  143.3260 C   0  0  0  0  0  3  0  0  0  0  0  0
  192.0850  177.4300  143.3730 N   0  0  0  0  0  2  0  0  0  0  0  0
  192.5310  176.2690  142.6640 C   0  0  0  0  0  0  0  0  0  0  0  0
  191.6960  175.4960  142.1130 O   0  0  0  0  0  0  0  0  0  0  0  0
  193.9660  175.9740  142.5770 C   0  0  0  0  0  0  0  0  0  0  0  0
  195.9360  175.8050  141.8140 C   0  0  1  0  0  3  0  0  0  0  0  0
  197.1040  175.8360  140.8890 C   0  0  0  0  0  1  0  0  0  0  0  0
  194.7130  176.2600  141.4880 N   0  0  0  0  0  0  0  0  0  0  0  0
  194.6550  175.3650  143.5690 N   0  0  0  0  0  0  0  0  0  0  0  0
  195.9020  175.2670  143.0840 C   0  0  0  0  0  0  0  0  0  0  0  0
  197.0250  174.6090  143.8300 C   0  0  0  0  0  2  0  0  0  0  0  0
  196.7390  174.5140  145.3000 C   0  0  0  0  0  3  0  0  0  0  0  0
  196.7960  173.3730  146.0020 C   0  0  0  0  0  3  0  0  0  0  0  0
  197.1640  172.0580  145.3880 C   0  0  0  0  0  2  0  0  0  0  0  0
  195.9370  171.1700  145.3160 C   0  0  0  0  0  1  0  0  0  0  0  0
  1 30  1  6  0  0  0
  1 24  1  0  0  0  0
  2  3  3  0  0  0  0
  3  1  1  0  0  0  0
  4  2  1  0  0  0  0
  5 16  1  0  0  0  0
  6 12  1  0  0  0  0
  6  5  2  0  0  0  0
  7  4  1  0  0  0  0
  8 16  1  0  0  0  0
  8  7  1  0  0  0  0
  9  7  1  0  0  0  0
  9 17  1  0  0  0  0
 10 13  1  0  0  0  0
 10  8  2  0  0  0  0
 11  5  1  0  0  0  0
 11 15  1  0  0  0  0
 12 10  1  0  0  0  0
 13  9  2  0  0  0  0
 15 14  2  0  0  0  0
 18 13  1  0  0  0  0
 20 15  1  0  0  0  0
 20 19  1  1  0  0  0
 22 23  1  0  0  0  0
 23 20  1  0  0  0  0
 23 21  1  0  0  0  0
 24 25  1  0  0  0  0
 26 25  1  0  0  0  0
 27 26  1  0  0  0  0
 28 29  1  0  0  0  0
 29 26  1  0  0  0  0
 31 30  1  0  0  0  0
 32 33  1  0  0  0  0
 32 31  2  0  0  0  0
 34 33  1  0  0  0  0
 35 34  2  0  0  0  0
 36 34  1  0  0  0  0
 36 40  1  0  0  0  0
 37 38  1  6  0  0  0
 37 41  1  0  0  0  0
 39 37  1  0  0  0  0
 39 36  2  0  0  0  0
 41 40  2  0  0  0  0
 41 42  1  0  0  0  0
 42 43  1  0  0  0  0
 43 44  2  0  0  0  0
 45 44  1  0  0  0  0
 46 45  1  0  0  0  0
M  END
>  <MODEL>
4

>  <REMARK>
 VINA RESULT:      -6.2      2.111      7.975
  Name = 
  16 active torsions:
  status: ('A' for Active; 'I' for Inactive)
    1  A    between atoms: N_2  and  C_28
    2  A    between atoms: N_2  and  C_45
    3  A    between atoms: C_3  and  C_19
    4  A    between atoms: C_4  and  C_27
    5  A    between atoms: C_5  and  C_25
    6  A    between atoms: N_9  and  C_14
    7  A    between atoms: N_12  and  C_46
    8  A    between atoms: C_13  and  C_15
    9  A    between atoms: C_17  and  C_46
   10  A    between atoms: C_18  and  C_20
   11  A    between atoms: C_18  and  C_28
   12  A    between atoms: C_19  and  C_20
   13  A    between atoms: C_20  and  C_41
   14  A    between atoms: C_21  and  N_34
   15  A    between atoms: C_21  and  C_38
   16  A    between atoms: C_27  and  C_32
                            x       y       z     vdW  Elec       q    Type
                         _______ _______ _______ _____ _____    ______ ____

>  <TORSDO>
F 16

$$$$
=
 OpenBabel11042419143D

 46 48  0  0  1  0  0  0  0  0999 V2000
  188.7940  173.6880  140.9690 C   0  0  1  0  0  3  0  0  0  0  0  0
  187.5710  176.0110  141.4810 C   0  0  0  0  0  0  0  0  0  0  0  0
  188.1320  174.9720  141.2320 C   0  0  0  0  0  0  0  0  0  0  0  0
  186.8690  177.2540  141.8210 C   0  0  0  0  0  2  0  0  0  0  0  0
  189.3210  176.7450  145.6700 C   0  0  0  0  0  0  0  0  0  0  0  0
  188.6160  177.0530  146.7300 N   0  0  0  0  0  0  0  0  0  0  0  0
  186.4390  177.2440  143.2150 N   0  0  0  0  0  0  0  0  0  0  0  0
  187.2340  177.0170  144.2800 C   0  0  0  0  0  0  0  0  0  0  0  0
  185.2640  177.6940  143.7200 C   0  0  0  0  0  0  0  0  0  0  0  0
  186.5670  177.3000  145.4330 C   0  0  0  0  0  0  0  0  0  0  0  0
  190.7140  176.4560  145.8500 N   0  0  0  0  0  2  0  0  0  0  0  0
  187.2370  177.3560  146.6840 N   0  0  0  0  0  2  0  0  0  0  0  0
  185.3050  177.7340  145.1090 C   0  0  0  0  0  0  0  0  0  0  0  0
  191.2930  175.9490  143.6310 O   0  0  0  0  0  0  0  0  0  0  0  0
  191.6490  176.0680  144.8350 C   0  0  0  0  0  0  0  0  0  0  0  0
  188.6970  176.6980  144.2700 C   0  0  0  0  0  2  0  0  0  0  0  0
  184.1960  178.1990  142.9260 N   0  0  0  0  0  1  0  0  0  0  0  0
  184.2800  178.3000  146.0300 C   0  0  0  0  0  1  0  0  0  0  0  0
  193.0540  174.9390  146.5080 C   0  0  0  0  0  1  0  0  0  0  0  0
  193.0690  175.7740  145.2280 C   0  0  2  0  0  3  0  0  0  0  0  0
  194.1500  177.1880  146.8120 C   0  0  0  0  0  1  0  0  0  0  0  0
  195.1310  176.8580  144.7520 C   0  0  0  0  0  1  0  0  0  0  0  0
  193.8370  177.0190  145.4000 N   0  0  0  0  0  0  0  0  0  0  0  0
  189.5180  173.7630  139.6290 C   0  0  0  0  0  2  0  0  0  0  0  0
  188.5450  173.9760  138.4760 C   0  0  0  0  0  2  0  0  0  0  0  0
  188.7610  172.9780  137.4340 N   0  0  0  0  0  0  0  0  0  0  0  0
  189.4060  171.9230  137.9900 O   0  0  0  0  0  1  0  0  0  0  0  0
  191.0170  172.9410  136.3680 C   0  0  0  0  0  1  0  0  0  0  0  0
  189.6140  173.5510  136.3910 C   0  0  0  0  0  2  0  0  0  0  0  0
  189.7850  173.3720  142.0860 C   0  0  0  0  0  2  0  0  0  0  0  0
  189.1670  172.4780  143.1190 C   0  0  0  0  0  3  0  0  0  0  0  0
  189.8180  172.1000  144.2130 C   0  0  0  0  0  3  0  0  0  0  0  0
  191.1730  172.4880  144.4490 N   0  0  0  0  0  2  0  0  0  0  0  0
  192.2690  171.6110  144.1680 C   0  0  0  0  0  0  0  0  0  0  0  0
  192.0580  170.4020  143.8640 O   0  0  0  0  0  0  0  0  0  0  0  0
  193.6450  172.1180  144.2340 C   0  0  0  0  0  0  0  0  0  0  0  0
  195.5960  172.5330  144.9480 C   0  0  1  0  0  3  0  0  0  0  0  0
  196.7930  172.6160  145.8310 C   0  0  0  0  0  1  0  0  0  0  0  0
  194.4720  171.8720  145.2740 N   0  0  0  0  0  0  0  0  0  0  0  0
  194.1900  172.8990  143.2740 N   0  0  0  0  0  0  0  0  0  0  0  0
  195.4260  173.1520  143.7270 C   0  0  0  0  0  0  0  0  0  0  0  0
  196.4030  174.0310  143.0020 C   0  0  0  0  0  2  0  0  0  0  0  0
  197.2900  173.2420  142.0860 C   0  0  0  0  0  3  0  0  0  0  0  0
  197.9390  173.7670  141.0360 C   0  0  0  0  0  3  0  0  0  0  0  0
  197.8510  175.2150  140.6670 C   0  0  0  0  0  2  0  0  0  0  0  0
  197.2250  175.3530  139.2930 C   0  0  0  0  0  1  0  0  0  0  0  0
  1 24  1  6  0  0  0
  1  3  1  0  0  0  0
  1 30  1  0  0  0  0
  2  4  1  0  0  0  0
  3  2  3  0  0  0  0
  4  7  1  0  0  0  0
  5 11  1  0  0  0  0
  5  6  2  0  0  0  0
  7  9  1  0  0  0  0
  7  8  1  0  0  0  0
  8 10  2  0  0  0  0
  9 13  2  0  0  0  0
 10 12  1  0  0  0  0
 12  6  1  0  0  0  0
 13 10  1  0  0  0  0
 13 18  1  0  0  0  0
 14 15  2  0  0  0  0
 15 20  1  0  0  0  0
 15 11  1  0  0  0  0
 16  8  1  0  0  0  0
 16  5  1  0  0  0  0
 17  9  1  0  0  0  0
 20 23  1  0  0  0  0
 20 19  1  1  0  0  0
 22 23  1  0  0  0  0
 23 21  1  0  0  0  0
 25 24  1  0  0  0  0
 26 27  1  0  0  0  0
 26 25  1  0  0  0  0
 28 29  1  0  0  0  0
 29 26  1  0  0  0  0
 30 31  1  0  0  0  0
 31 32  2  0  0  0  0
 32 33  1  0  0  0  0
 34 36  1  0  0  0  0
 34 33  1  0  0  0  0
 35 34  2  0  0  0  0
 36 39  2  0  0  0  0
 37 39  1  0  0  0  0
 37 38  1  1  0  0  0
 40 41  2  0  0  0  0
 40 36  1  0  0  0  0
 41 37  1  0  0  0  0
 42 41  1  0  0  0  0
 43 42  1  0  0  0  0
 44 43  2  0  0  0  0
 45 44  1  0  0  0  0
 46 45  1  0  0  0  0
M  END
>  <MODEL>
5

>  <REMARK>
 VINA RESULT:      -6.1      2.128      9.581
  Name = 
  16 active torsions:
  status: ('A' for Active; 'I' for Inactive)
    1  A    between atoms: N_2  and  C_28
    2  A    between atoms: N_2  and  C_45
    3  A    between atoms: C_3  and  C_19
    4  A    between atoms: C_4  and  C_27
    5  A    between atoms: C_5  and  C_25
    6  A    between atoms: N_9  and  C_14
    7  A    between atoms: N_12  and  C_46
    8  A    between atoms: C_13  and  C_15
    9  A    between atoms: C_17  and  C_46
   10  A    between atoms: C_18  and  C_20
   11  A    between atoms: C_18  and  C_28
   12  A    between atoms: C_19  and  C_20
   13  A    between atoms: C_20  and  C_41
   14  A    between atoms: C_21  and  N_34
   15  A    between atoms: C_21  and  C_38
   16  A    between atoms: C_27  and  C_32
                            x       y       z     vdW  Elec       q    Type
                         _______ _______ _______ _____ _____    ______ ____

>  <TORSDO>
F 16

$$$$
=
 OpenBabel11042419143D

 46 48  0  0  1  0  0  0  0  0999 V2000
  194.6680  171.9180  143.7000 C   0  0  1  0  0  3  0  0  0  0  0  0
  192.0380  171.6360  143.2990 C   0  0  0  0  0  0  0  0  0  0  0  0
  193.2220  171.7850  143.4790 C   0  0  0  0  0  0  0  0  0  0  0  0
  190.6060  171.4080  143.0820 C   0  0  0  0  0  2  0  0  0  0  0  0
  188.4220  174.4870  140.4670 C   0  0  0  0  0  0  0  0  0  0  0  0
  188.5680  174.2220  139.1920 N   0  0  0  0  0  0  0  0  0  0  0  0
  190.2940  171.3800  141.6560 N   0  0  0  0  0  0  0  0  0  0  0  0
  189.5820  172.3100  140.9900 C   0  0  0  0  0  0  0  0  0  0  0  0
  190.8470  170.5860  140.7060 C   0  0  0  0  0  0  0  0  0  0  0  0
  189.6690  172.0950  139.6480 C   0  0  0  0  0  0  0  0  0  0  0  0
  187.7660  175.7110  140.8280 N   0  0  0  0  0  2  0  0  0  0  0  0
  189.1940  173.0520  138.7100 N   0  0  0  0  0  2  0  0  0  0  0  0
  190.4690  171.0000  139.4340 C   0  0  0  0  0  0  0  0  0  0  0  0
  187.8040  175.4940  143.1660 O   0  0  0  0  0  0  0  0  0  0  0  0
  187.4770  176.1710  142.1540 C   0  0  0  0  0  0  0  0  0  0  0  0
  188.9360  173.5370  141.5550 C   0  0  0  0  0  2  0  0  0  0  0  0
  191.8030  169.5660  140.9760 N   0  0  0  0  0  1  0  0  0  0  0  0
  190.9720  170.4900  138.1290 C   0  0  0  0  0  1  0  0  0  0  0  0
  186.6280  177.7630  143.8260 C   0  0  0  0  0  1  0  0  0  0  0  0
  186.7480  177.4730  142.3300 C   0  0  2  0  0  3  0  0  0  0  0  0
  184.4480  178.0570  142.5550 C   0  0  0  0  0  1  0  0  0  0  0  0
  185.4650  178.2840  140.4980 C   0  0  0  0  0  1  0  0  0  0  0  0
  185.4270  177.4310  141.6780 N   0  0  0  0  0  0  0  0  0  0  0  0
  195.1950  173.0920  142.8810 C   0  0  0  0  0  2  0  0  0  0  0  0
  195.1970  172.7800  141.3900 C   0  0  0  0  0  2  0  0  0  0  0  0
  194.4350  173.7860  140.6560 N   0  0  0  0  0  0  0  0  0  0  0  0
  193.7070  174.4970  141.5520 O   0  0  0  0  0  1  0  0  0  0  0  0
  194.1320  171.8800  139.0740 C   0  0  0  0  0  1  0  0  0  0  0  0
  193.5160  173.1140  139.7360 C   0  0  0  0  0  2  0  0  0  0  0  0
  194.9520  172.1410  145.1830 C   0  0  0  0  0  2  0  0  0  0  0  0
  196.2000  172.9470  145.3790 C   0  0  0  0  0  3  0  0  0  0  0  0
  196.1730  174.2150  145.7740 C   0  0  0  0  0  3  0  0  0  0  0  0
  194.9410  174.9040  145.9930 N   0  0  0  0  0  2  0  0  0  0  0  0
  194.4580  175.8950  145.0790 C   0  0  0  0  0  0  0  0  0  0  0  0
  195.1950  176.3120  144.1400 O   0  0  0  0  0  0  0  0  0  0  0  0
  193.1000  176.4300  145.2350 C   0  0  0  0  0  0  0  0  0  0  0  0
  191.2380  177.3340  144.7830 C   0  0  1  0  0  3  0  0  0  0  0  0
  190.1400  178.0280  144.0510 C   0  0  0  0  0  1  0  0  0  0  0  0
  192.3850  176.9370  144.2060 N   0  0  0  0  0  0  0  0  0  0  0  0
  192.4620  176.4890  146.4260 N   0  0  0  0  0  0  0  0  0  0  0  0
  191.2820  177.0540  146.1330 C   0  0  0  0  0  0  0  0  0  0  0  0
  190.2410  177.3660  147.1680 C   0  0  0  0  0  2  0  0  0  0  0  0
  188.8670  176.9710  146.7130 C   0  0  0  0  0  3  0  0  0  0  0  0
  188.4200  175.7060  146.6910 C   0  0  0  0  0  3  0  0  0  0  0  0
  189.2510  174.5430  147.1320 C   0  0  0  0  0  2  0  0  0  0  0  0
  189.7380  173.7760  145.9170 C   0  0  0  0  0  1  0  0  0  0  0  0
  1 24  1  6  0  0  0
  1 30  1  0  0  0  0
  2  3  3  0  0  0  0
  3  1  1  0  0  0  0
  4  2  1  0  0  0  0
  5 11  1  0  0  0  0
  5 16  1  0  0  0  0
  6  5  2  0  0  0  0
  7  4  1  0  0  0  0
  8 16  1  0  0  0  0
  8  7  1  0  0  0  0
  9 17  1  0  0  0  0
  9  7  1  0  0  0  0
 10  8  2  0  0  0  0
 11 15  1  0  0  0  0
 12  6  1  0  0  0  0
 12 10  1  0  0  0  0
 13 10  1  0  0  0  0
 13  9  2  0  0  0  0
 15 20  1  0  0  0  0
 15 14  2  0  0  0  0
 18 13  1  0  0  0  0
 20 19  1  1  0  0  0
 22 23  1  0  0  0  0
 23 20  1  0  0  0  0
 23 21  1  0  0  0  0
 25 24  1  0  0  0  0
 26 25  1  0  0  0  0
 26 27  1  0  0  0  0
 28 29  1  0  0  0  0
 29 26  1  0  0  0  0
 30 31  1  0  0  0  0
 31 32  2  0  0  0  0
 32 33  1  0  0  0  0
 34 36  1  0  0  0  0
 34 33  1  0  0  0  0
 35 34  2  0  0  0  0
 36 40  1  0  0  0  0
 37 38  1  1  0  0  0
 37 41  1  0  0  0  0
 39 37  1  0  0  0  0
 39 36  2  0  0  0  0
 41 40  2  0  0  0  0
 41 42  1  0  0  0  0
 43 42  1  0  0  0  0
 44 43  2  0  0  0  0
 44 45  1  0  0  0  0
 46 45  1  0  0  0  0
M  END
>  <MODEL>
6

>  <REMARK>
 VINA RESULT:      -5.9      2.125      6.696
  Name = 
  16 active torsions:
  status: ('A' for Active; 'I' for Inactive)
    1  A    between atoms: N_2  and  C_28
    2  A    between atoms: N_2  and  C_45
    3  A    between atoms: C_3  and  C_19
    4  A    between atoms: C_4  and  C_27
    5  A    between atoms: C_5  and  C_25
    6  A    between atoms: N_9  and  C_14
    7  A    between atoms: N_12  and  C_46
    8  A    between atoms: C_13  and  C_15
    9  A    between atoms: C_17  and  C_46
   10  A    between atoms: C_18  and  C_20
   11  A    between atoms: C_18  and  C_28
   12  A    between atoms: C_19  and  C_20
   13  A    between atoms: C_20  and  C_41
   14  A    between atoms: C_21  and  N_34
   15  A    between atoms: C_21  and  C_38
   16  A    between atoms: C_27  and  C_32
                            x       y       z     vdW  Elec       q    Type
                         _______ _______ _______ _____ _____    ______ ____

>  <TORSDO>
F 16

$$$$
=
 OpenBabel11042419143D

 46 48  0  0  1  0  0  0  0  0999 V2000
  195.6480  174.9640  140.9410 C   0  0  1  0  0  3  0  0  0  0  0  0
  194.9220  172.6990  142.1680 C   0  0  0  0  0  0  0  0  0  0  0  0
  195.2300  173.7200  141.6030 C   0  0  0  0  0  0  0  0  0  0  0  0
  194.5880  171.4600  142.8770 C   0  0  0  0  0  2  0  0  0  0  0  0
  190.3780  172.7630  144.1650 C   0  0  0  0  0  0  0  0  0  0  0  0
  189.4590  172.2560  143.3810 N   0  0  0  0  0  0  0  0  0  0  0  0
  193.2800  170.9600  142.4630 N   0  0  0  0  0  0  0  0  0  0  0  0
  192.0930  171.3660  142.9550 C   0  0  0  0  0  0  0  0  0  0  0  0
  192.9910  170.2110  141.3710 C   0  0  0  0  0  0  0  0  0  0  0  0
  191.0760  170.8660  142.2000 C   0  0  0  0  0  0  0  0  0  0  0  0
  189.9640  173.7120  145.1590 N   0  0  0  0  0  2  0  0  0  0  0  0
  189.7380  171.3140  142.3670 N   0  0  0  0  0  2  0  0  0  0  0  0
  191.6170  170.1220  141.1810 C   0  0  0  0  0  0  0  0  0  0  0  0
  192.0360  174.1220  146.1860 O   0  0  0  0  0  0  0  0  0  0  0  0
  190.7970  174.3540  146.1320 C   0  0  0  0  0  0  0  0  0  0  0  0
  191.8550  172.3740  144.0370 C   0  0  0  0  0  2  0  0  0  0  0  0
  193.9690  169.7130  140.4630 N   0  0  0  0  0  1  0  0  0  0  0  0
  190.8990  169.5180  140.0240 C   0  0  0  0  0  1  0  0  0  0  0  0
  188.6580  175.2980  146.8940 C   0  0  0  0  0  1  0  0  0  0  0  0
  190.1700  175.3000  147.1170 C   0  0  2  0  0  3  0  0  0  0  0  0
  189.6480  177.6210  146.9750 C   0  0  0  0  0  1  0  0  0  0  0  0
  191.4940  176.9600  148.1890 C   0  0  0  0  0  1  0  0  0  0  0  0
  190.7370  176.6530  146.9830 N   0  0  0  0  0  0  0  0  0  0  0  0
  195.4430  174.8230  139.4370 C   0  0  0  0  0  2  0  0  0  0  0  0
  193.9690  174.9100  139.0600 C   0  0  0  0  0  2  0  0  0  0  0  0
  193.5070  173.6420  138.5060 N   0  0  0  0  0  0  0  0  0  0  0  0
  194.1950  173.4080  137.3610 O   0  0  0  0  0  1  0  0  0  0  0  0
  191.1760  173.3900  139.3600 C   0  0  0  0  0  1  0  0  0  0  0  0
  192.0840  173.7500  138.1820 C   0  0  0  0  0  2  0  0  0  0  0  0
  194.8360  176.1400  141.4770 C   0  0  0  0  0  2  0  0  0  0  0  0
  195.1400  176.3920  142.9230 C   0  0  0  0  0  3  0  0  0  0  0  0
  194.2210  176.2730  143.8740 C   0  0  0  0  0  3  0  0  0  0  0  0
  192.8660  175.9400  143.5670 N   0  0  0  0  0  2  0  0  0  0  0  0
  191.8200  176.9160  143.6130 C   0  0  0  0  0  0  0  0  0  0  0  0
  192.0380  178.0640  144.0940 O   0  0  0  0  0  0  0  0  0  0  0  0
  190.4860  176.5810  143.0990 C   0  0  0  0  0  0  0  0  0  0  0  0
  188.9400  175.6370  142.0000 C   0  0  1  0  0  3  0  0  0  0  0  0
  188.2220  174.7550  141.0360 C   0  0  0  0  0  1  0  0  0  0  0  0
  190.2640  175.5750  142.2240 N   0  0  0  0  0  0  0  0  0  0  0  0
  189.3720  177.2710  143.4340 N   0  0  0  0  0  0  0  0  0  0  0  0
  188.3960  176.6640  142.7420 C   0  0  0  0  0  0  0  0  0  0  0  0
  186.9670  177.1200  142.7660 C   0  0  0  0  0  2  0  0  0  0  0  0
  186.7980  178.3860  143.5530 C   0  0  0  0  0  3  0  0  0  0  0  0
  186.1730  178.4520  144.7390 C   0  0  0  0  0  3  0  0  0  0  0  0
  185.5790  177.2550  145.4130 C   0  0  0  0  0  2  0  0  0  0  0  0
  184.8700  177.6860  146.6830 C   0  0  0  0  0  1  0  0  0  0  0  0
  1 24  1  6  0  0  0
  1 30  1  0  0  0  0
  1  3  1  0  0  0  0
  2  4  1  0  0  0  0
  3  2  3  0  0  0  0
  5 11  1  0  0  0  0
  6  5  2  0  0  0  0
  7  4  1  0  0  0  0
  7  8  1  0  0  0  0
  8 16  1  0  0  0  0
  9  7  1  0  0  0  0
 10 12  1  0  0  0  0
 10  8  2  0  0  0  0
 11 15  1  0  0  0  0
 12  6  1  0  0  0  0
 13  9  2  0  0  0  0
 13 10  1  0  0  0  0
 15 14  2  0  0  0  0
 15 20  1  0  0  0  0
 16  5  1  0  0  0  0
 17  9  1  0  0  0  0
 18 13  1  0  0  0  0
 20 19  1  6  0  0  0
 21 23  1  0  0  0  0
 23 20  1  0  0  0  0
 23 22  1  0  0  0  0
 25 24  1  0  0  0  0
 26 25  1  0  0  0  0
 27 26  1  0  0  0  0
 29 26  1  0  0  0  0
 29 28  1  0  0  0  0
 30 31  1  0  0  0  0
 31 32  2  0  0  0  0
 33 34  1  0  0  0  0
 33 32  1  0  0  0  0
 34 35  2  0  0  0  0
 36 40  1  0  0  0  0
 36 34  1  0  0  0  0
 37 38  1  6  0  0  0
 37 39  1  0  0  0  0
 37 41  1  0  0  0  0
 39 36  2  0  0  0  0
 41 42  1  0  0  0  0
 41 40  2  0  0  0  0
 42 43  1  0  0  0  0
 43 44  2  0  0  0  0
 44 45  1  0  0  0  0
 45 46  1  0  0  0  0
M  END
>  <MODEL>
7

>  <REMARK>
 VINA RESULT:      -5.9      2.221      6.500
  Name = 
  16 active torsions:
  status: ('A' for Active; 'I' for Inactive)
    1  A    between atoms: N_2  and  C_28
    2  A    between atoms: N_2  and  C_45
    3  A    between atoms: C_3  and  C_19
    4  A    between atoms: C_4  and  C_27
    5  A    between atoms: C_5  and  C_25
    6  A    between atoms: N_9  and  C_14
    7  A    between atoms: N_12  and  C_46
    8  A    between atoms: C_13  and  C_15
    9  A    between atoms: C_17  and  C_46
   10  A    between atoms: C_18  and  C_20
   11  A    between atoms: C_18  and  C_28
   12  A    between atoms: C_19  and  C_20
   13  A    between atoms: C_20  and  C_41
   14  A    between atoms: C_21  and  N_34
   15  A    between atoms: C_21  and  C_38
   16  A    between atoms: C_27  and  C_32
                            x       y       z     vdW  Elec       q    Type
                         _______ _______ _______ _____ _____    ______ ____

>  <TORSDO>
F 16

$$$$
=
 OpenBabel11042419143D

 46 48  0  0  1  0  0  0  0  0999 V2000
  193.9850  173.5540  143.7980 C   0  0  1  0  0  3  0  0  0  0  0  0
  192.7540  171.7640  142.2360 C   0  0  0  0  0  0  0  0  0  0  0  0
  193.3170  172.5810  142.9230 C   0  0  0  0  0  0  0  0  0  0  0  0
  192.0530  170.7510  141.4400 C   0  0  0  0  0  2  0  0  0  0  0  0
  189.1040  173.9570  142.8900 C   0  0  0  0  0  0  0  0  0  0  0  0
  188.3490  174.3910  141.9100 N   0  0  0  0  0  0  0  0  0  0  0  0
  190.8880  171.3250  140.7770 N   0  0  0  0  0  0  0  0  0  0  0  0
  190.0380  172.2200  141.3180 C   0  0  0  0  0  0  0  0  0  0  0  0
  190.5830  171.2770  139.4560 C   0  0  0  0  0  0  0  0  0  0  0  0
  189.2010  172.7110  140.3630 C   0  0  0  0  0  0  0  0  0  0  0  0
  189.0020  174.6180  144.1590 N   0  0  0  0  0  2  0  0  0  0  0  0
  188.3560  173.8250  140.6170 N   0  0  0  0  0  2  0  0  0  0  0  0
  189.5230  172.1270  139.1620 C   0  0  0  0  0  0  0  0  0  0  0  0
  190.5270  173.3230  145.3900 O   0  0  0  0  0  0  0  0  0  0  0  0
  189.7080  174.2820  145.3600 C   0  0  0  0  0  0  0  0  0  0  0  0
  190.0780  172.7880  142.7030 C   0  0  0  0  0  2  0  0  0  0  0  0
  191.3450  170.5670  138.4870 N   0  0  0  0  0  1  0  0  0  0  0  0
  188.9840  172.4710  137.8170 C   0  0  0  0  0  1  0  0  0  0  0  0
  188.0330  175.6640  146.5150 C   0  0  0  0  0  1  0  0  0  0  0  0
  189.4400  175.0760  146.6080 C   0  0  2  0  0  3  0  0  0  0  0  0
  189.7840  177.3930  147.0450 C   0  0  0  0  0  1  0  0  0  0  0  0
  191.1930  175.8490  148.0170 C   0  0  0  0  0  1  0  0  0  0  0  0
  190.4560  176.1260  146.7920 N   0  0  0  0  0  0  0  0  0  0  0  0
  195.2960  173.9910  143.1540 C   0  0  0  0  0  2  0  0  0  0  0  0
  196.2130  172.8050  142.8860 C   0  0  0  0  0  2  0  0  0  0  0  0
  197.4730  172.9600  143.6050 N   0  0  0  0  0  0  0  0  0  0  0  0
  197.8000  171.7590  144.1450 O   0  0  0  0  0  1  0  0  0  0  0  0
  197.0080  173.2590  146.0390 C   0  0  0  0  0  1  0  0  0  0  0  0
  197.2900  173.9250  144.6900 C   0  0  0  0  0  2  0  0  0  0  0  0
  193.0800  174.7620  144.0240 C   0  0  0  0  0  2  0  0  0  0  0  0
  193.6920  176.0080  143.4610 C   0  0  0  0  0  3  0  0  0  0  0  0
  192.9630  176.9790  142.9230 C   0  0  0  0  0  3  0  0  0  0  0  0
  191.5430  176.8700  142.8060 N   0  0  0  0  0  2  0  0  0  0  0  0
  190.6700  177.9340  143.1990 C   0  0  0  0  0  0  0  0  0  0  0  0
  191.1230  178.9370  143.8210 O   0  0  0  0  0  0  0  0  0  0  0  0
  189.2390  177.8610  142.8780 C   0  0  0  0  0  0  0  0  0  0  0  0
  187.4310  177.8380  141.7740 C   0  0  1  0  0  3  0  0  0  0  0  0
  186.4580  177.9170  140.6470 C   0  0  0  0  0  1  0  0  0  0  0  0
  188.7650  177.9000  141.6130 N   0  0  0  0  0  0  0  0  0  0  0  0
  188.2750  177.7770  143.8230 N   0  0  0  0  0  0  0  0  0  0  0  0
  187.1340  177.7550  143.1180 C   0  0  0  0  0  0  0  0  0  0  0  0
  185.7760  177.7120  143.7540 C   0  0  0  0  0  2  0  0  0  0  0  0
  185.2300  179.0870  144.0000 C   0  0  0  0  0  3  0  0  0  0  0  0
  185.1760  179.6670  145.2090 C   0  0  0  0  0  3  0  0  0  0  0  0
  185.6660  178.9970  146.4540 C   0  0  0  0  0  2  0  0  0  0  0  0
  184.5120  178.2940  147.1420 C   0  0  0  0  0  1  0  0  0  0  0  0
  1  3  1  6  0  0  0
  1 30  1  0  0  0  0
  2  3  3  0  0  0  0
  4  2  1  0  0  0  0
  5 11  1  0  0  0  0
  6  5  2  0  0  0  0
  7  8  1  0  0  0  0
  7  4  1  0  0  0  0
  8 16  1  0  0  0  0
  9  7  1  0  0  0  0
 10 12  1  0  0  0  0
 10  8  2  0  0  0  0
 11 15  1  0  0  0  0
 12  6  1  0  0  0  0
 13  9  2  0  0  0  0
 13 10  1  0  0  0  0
 15 14  2  0  0  0  0
 15 20  1  0  0  0  0
 16  5  1  0  0  0  0
 17  9  1  0  0  0  0
 18 13  1  0  0  0  0
 20 19  1  6  0  0  0
 20 23  1  0  0  0  0
 23 21  1  0  0  0  0
 23 22  1  0  0  0  0
 24  1  1  0  0  0  0
 25 24  1  0  0  0  0
 25 26  1  0  0  0  0
 26 27  1  0  0  0  0
 26 29  1  0  0  0  0
 29 28  1  0  0  0  0
 31 30  1  0  0  0  0
 32 31  2  0  0  0  0
 33 32  1  0  0  0  0
 33 34  1  0  0  0  0
 34 35  2  0  0  0  0
 36 34  1  0  0  0  0
 36 40  1  0  0  0  0
 37 38  1  1  0  0  0
 37 41  1  0  0  0  0
 39 37  1  0  0  0  0
 39 36  2  0  0  0  0
 41 42  1  0  0  0  0
 41 40  2  0  0  0  0
 42 43  1  0  0  0  0
 43 44  2  0  0  0  0
 44 45  1  0  0  0  0
 45 46  1  0  0  0  0
M  END
>  <MODEL>
8

>  <REMARK>
 VINA RESULT:      -5.9      2.223      6.109
  Name = 
  16 active torsions:
  status: ('A' for Active; 'I' for Inactive)
    1  A    between atoms: N_2  and  C_28
    2  A    between atoms: N_2  and  C_45
    3  A    between atoms: C_3  and  C_19
    4  A    between atoms: C_4  and  C_27
    5  A    between atoms: C_5  and  C_25
    6  A    between atoms: N_9  and  C_14
    7  A    between atoms: N_12  and  C_46
    8  A    between atoms: C_13  and  C_15
    9  A    between atoms: C_17  and  C_46
   10  A    between atoms: C_18  and  C_20
   11  A    between atoms: C_18  and  C_28
   12  A    between atoms: C_19  and  C_20
   13  A    between atoms: C_20  and  C_41
   14  A    between atoms: C_21  and  N_34
   15  A    between atoms: C_21  and  C_38
   16  A    between atoms: C_27  and  C_32
                            x       y       z     vdW  Elec       q    Type
                         _______ _______ _______ _____ _____    ______ ____

>  <TORSDO>
F 16

$$$$
=
 OpenBabel11042419143D

 46 48  0  0  1  0  0  0  0  0999 V2000
  189.7930  173.6480  144.7300 C   0  0  1  0  0  3  0  0  0  0  0  0
  192.2430  172.6190  144.4240 C   0  0  0  0  0  0  0  0  0  0  0  0
  191.1340  173.0680  144.5780 C   0  0  0  0  0  0  0  0  0  0  0  0
  193.5990  172.1030  144.2030 C   0  0  0  0  0  2  0  0  0  0  0  0
  193.1960  174.0530  140.0650 C   0  0  0  0  0  0  0  0  0  0  0  0
  193.9880  175.0900  139.9450 N   0  0  0  0  0  0  0  0  0  0  0  0
  194.4350  173.1040  143.5490 N   0  0  0  0  0  0  0  0  0  0  0  0
  194.2710  173.5670  142.2940 C   0  0  0  0  0  0  0  0  0  0  0  0
  195.3470  173.9240  144.1290 C   0  0  0  0  0  0  0  0  0  0  0  0
  195.0770  174.6430  142.0800 C   0  0  0  0  0  0  0  0  0  0  0  0
  192.2690  173.7900  139.0020 N   0  0  0  0  0  2  0  0  0  0  0  0
  194.9430  175.4530  140.9200 N   0  0  0  0  0  2  0  0  0  0  0  0
  195.7780  174.8960  143.2340 C   0  0  0  0  0  0  0  0  0  0  0  0
  191.2700  171.8350  139.8370 O   0  0  0  0  0  0  0  0  0  0  0  0
  191.3450  172.6970  138.9200 C   0  0  0  0  0  0  0  0  0  0  0  0
  193.2360  173.1430  141.2980 C   0  0  0  0  0  2  0  0  0  0  0  0
  195.6960  173.8810  145.5080 N   0  0  0  0  0  1  0  0  0  0  0  0
  196.6580  176.0640  143.5180 C   0  0  0  0  0  1  0  0  0  0  0  0
  191.3470  172.1490  136.5230 C   0  0  0  0  0  1  0  0  0  0  0  0
  190.4730  172.5720  137.7030 C   0  0  2  0  0  3  0  0  0  0  0  0
  189.4250  173.8860  136.0140 C   0  0  0  0  0  1  0  0  0  0  0  0
  188.4810  173.8040  138.1160 C   0  0  0  0  0  1  0  0  0  0  0  0
  189.7640  173.8340  137.4290 N   0  0  0  0  0  0  0  0  0  0  0  0
  189.6210  174.1440  146.1610 C   0  0  0  0  0  2  0  0  0  0  0  0
  190.0180  175.6080  146.3000 C   0  0  0  0  0  2  0  0  0  0  0  0
  191.3430  175.7240  146.9010 N   0  0  0  0  0  0  0  0  0  0  0  0
  191.2340  176.4920  148.0130 O   0  0  0  0  0  1  0  0  0  0  0  0
  193.6520  176.5880  146.5150 C   0  0  0  0  0  1  0  0  0  0  0  0
  192.2410  176.3920  145.9580 C   0  0  0  0  0  2  0  0  0  0  0  0
  189.6060  174.7990  143.7460 C   0  0  0  0  0  2  0  0  0  0  0  0
  189.2880  174.2900  142.3720 C   0  0  0  0  0  3  0  0  0  0  0  0
  188.1420  174.5640  141.7600 C   0  0  0  0  0  3  0  0  0  0  0  0
  187.1170  175.3260  142.3990 N   0  0  0  0  0  2  0  0  0  0  0  0
  186.9800  176.7350  142.1850 C   0  0  0  0  0  0  0  0  0  0  0  0
  187.8710  177.3760  141.5580 O   0  0  0  0  0  0  0  0  0  0  0  0
  185.7990  177.4400  142.6990 C   0  0  0  0  0  0  0  0  0  0  0  0
  184.4800  178.4450  144.0180 C   0  0  1  0  0  3  0  0  0  0  0  0
  183.8910  179.0390  145.2510 C   0  0  0  0  0  1  0  0  0  0  0  0
  185.7120  177.9100  143.9630 N   0  0  0  0  0  0  0  0  0  0  0  0
  184.6870  177.6520  141.9580 N   0  0  0  0  0  0  0  0  0  0  0  0
  183.8590  178.2940  142.7950 C   0  0  0  0  0  0  0  0  0  0  0  0
  182.4650  178.7020  142.4200 C   0  0  0  0  0  2  0  0  0  0  0  0
  182.1030  178.2450  141.0370 C   0  0  0  0  0  3  0  0  0  0  0  0
  180.8600  178.2910  140.5350 C   0  0  0  0  0  3  0  0  0  0  0  0
  179.6900  178.8160  141.3070 C   0  0  0  0  0  2  0  0  0  0  0  0
  178.9050  177.6570  141.8920 C   0  0  0  0  0  1  0  0  0  0  0  0
  1 30  1  6  0  0  0
  1 24  1  0  0  0  0
  2  3  3  0  0  0  0
  3  1  1  0  0  0  0
  4  2  1  0  0  0  0
  5 16  1  0  0  0  0
  6  5  2  0  0  0  0
  6 12  1  0  0  0  0
  7  9  1  0  0  0  0
  7  4  1  0  0  0  0
  8  7  1  0  0  0  0
  9 17  1  0  0  0  0
 10  8  2  0  0  0  0
 10 13  1  0  0  0  0
 11  5  1  0  0  0  0
 12 10  1  0  0  0  0
 13 18  1  0  0  0  0
 13  9  2  0  0  0  0
 15 11  1  0  0  0  0
 15 14  2  0  0  0  0
 16  8  1  0  0  0  0
 20 19  1  6  0  0  0
 20 15  1  0  0  0  0
 21 23  1  0  0  0  0
 23 20  1  0  0  0  0
 23 22  1  0  0  0  0
 24 25  1  0  0  0  0
 25 26  1  0  0  0  0
 26 27  1  0  0  0  0
 29 28  1  0  0  0  0
 29 26  1  0  0  0  0
 31 30  1  0  0  0  0
 32 31  2  0  0  0  0
 32 33  1  0  0  0  0
 34 33  1  0  0  0  0
 34 36  1  0  0  0  0
 35 34  2  0  0  0  0
 36 39  2  0  0  0  0
 37 38  1  1  0  0  0
 39 37  1  0  0  0  0
 40 36  1  0  0  0  0
 40 41  2  0  0  0  0
 41 37  1  0  0  0  0
 42 41  1  0  0  0  0
 43 42  1  0  0  0  0
 44 43  2  0  0  0  0
 44 45  1  0  0  0  0
 45 46  1  0  0  0  0
M  END
>  <MODEL>
9

>  <REMARK>
 VINA RESULT:      -5.8      1.735      2.625
  Name = 
  16 active torsions:
  status: ('A' for Active; 'I' for Inactive)
    1  A    between atoms: N_2  and  C_28
    2  A    between atoms: N_2  and  C_45
    3  A    between atoms: C_3  and  C_19
    4  A    between atoms: C_4  and  C_27
    5  A    between atoms: C_5  and  C_25
    6  A    between atoms: N_9  and  C_14
    7  A    between atoms: N_12  and  C_46
    8  A    between atoms: C_13  and  C_15
    9  A    between atoms: C_17  and  C_46
   10  A    between atoms: C_18  and  C_20
   11  A    between atoms: C_18  and  C_28
   12  A    between atoms: C_19  and  C_20
   13  A    between atoms: C_20  and  C_41
   14  A    between atoms: C_21  and  N_34
   15  A    between atoms: C_21  and  C_38
   16  A    between atoms: C_27  and  C_32
                            x       y       z     vdW  Elec       q    Type
                         _______ _______ _______ _____ _____    ______ ____

>  <TORSDO>
F 16

$$$$
