=
 OpenBabel11042419163D

 43 48  0  0  1  0  0  0  0  0999 V2000
  191.7000  174.0430  144.2060 C   0  0  0  0  0  0  0  0  0  0  0  0
  193.0780  169.9740  144.5850 C   0  0  2  0  0  3  0  0  0  0  0  0
  193.7010  168.9460  143.8970 C   0  0  0  0  0  2  0  0  0  0  0  0
  192.6630  173.5130  145.1500 C   0  0  0  0  0  0  0  0  0  0  0  0
  191.9720  170.1820  142.0110 C   0  0  0  0  0  0  0  0  0  0  0  0
  189.8710  175.0010  142.4920 C   0  0  2  0  0  3  0  0  0  0  0  0
  192.6880  169.7580  143.1610 N   0  0  0  0  0  0  0  0  0  0  0  0
  192.0890  169.5390  140.8450 C   0  0  0  0  0  3  0  0  0  0  0  0
  193.2600  172.3790  144.8840 C   0  0  0  0  0  0  0  0  0  0  0  0
  191.2440  171.4020  142.0800 N   0  0  0  0  0  2  0  0  0  0  0  0
  193.8790  171.2480  144.6630 C   0  0  0  0  0  0  0  0  0  0  0  0
  191.4390  170.0930  139.6290 C   0  0  0  0  0  0  0  0  0  0  0  0
  190.3540  173.2120  140.9170 C   0  0  0  0  0  0  0  0  0  0  0  0
  190.8860  174.4930  143.4350 C   0  0  0  0  0  0  0  0  0  0  0  0
  190.8170  171.2380  139.6630 N   0  0  0  0  0  0  0  0  0  0  0  0
  190.0990  174.4760  141.1010 C   0  0  0  0  0  3  0  0  0  0  0  0
  195.3730  171.2420  144.6320 C   0  0  0  0  0  1  0  0  0  0  0  0
  190.6960  171.9620  140.8940 C   0  0  0  0  0  0  0  0  0  0  0  0
  191.5440  169.3850  138.4000 N   0  0  0  0  0  1  0  0  0  0  0  0
  194.6030  174.8280  146.0550 C   0  0  0  0  0  2  0  0  0  0  0  0
  193.1830  174.3760  146.2760 C   0  0  1  0  0  3  0  0  0  0  0  0
  194.4520  176.2900  145.7280 C   0  0  0  0  0  2  0  0  0  0  0  0
  193.3190  176.7560  146.4080 O   0  0  0  0  0  0  0  0  0  0  0  0
  192.4090  175.6840  146.3840 C   0  0  2  0  0  3  0  0  0  0  0  0
  191.4230  175.6620  147.9150 S   0  0  0  0  0  0  0  0  0  0  0  0
  189.8640  175.4780  147.0480 C   0  0  0  0  0  3  0  0  0  0  0  0
  189.0810  176.5410  146.8710 C   0  0  0  0  0  3  0  0  0  0  0  0
  187.7770  176.4130  146.1470 C   0  0  2  0  0  3  0  0  0  0  0  0
  187.5370  177.6080  145.4280 O   0  0  0  0  0  0  0  0  0  0  0  0
  186.7750  177.4170  146.5880 C   0  0  2  0  0  0  0  0  0  0  0  0
  187.1290  178.3200  147.5950 O   0  0  0  0  0  1  0  0  0  0  0  0
  185.2990  177.2080  146.2760 C   0  0  1  0  0  3  0  0  0  0  0  0
  184.4630  178.1810  147.0880 C   0  0  0  0  0  1  0  0  0  0  0  0
  184.3120  178.5560  144.8740 N   0  0  0  0  0  1  0  0  0  0  0  0
  185.0680  177.4320  144.9170 O   0  0  0  0  0  0  0  0  0  0  0  0
  189.8870  176.5230  142.5020 C   0  0  0  0  0  2  0  0  0  0  0  0
  187.1790  176.0700  141.6540 S   0  0  0  0  0  0  0  0  0  0  0  0
  188.5470  177.0930  142.1770 C   0  0  0  0  0  0  0  0  0  0  0  0
  186.9550  178.6790  142.0640 N   0  0  0  0  0  2  0  0  0  0  0  0
  188.2780  178.3410  142.3430 N   0  0  0  0  0  0  0  0  0  0  0  0
  186.1130  177.5610  141.6770 C   0  0  1  0  0  3  0  0  0  0  0  0
  186.3750  177.1990  139.2850 N   0  0  0  0  0  1  0  0  0  0  0  0
  185.5350  177.8170  140.2960 C   0  0  0  0  0  2  0  0  0  0  0  0
  1  4  1  0  0  0  0
  2  3  1  6  0  0  0
  2 11  1  0  0  0  0
  5 10  1  0  0  0  0
  5  7  1  0  0  0  0
  6 36  1  6  0  0  0
  6 14  1  0  0  0  0
  7  3  1  0  0  0  0
  7  2  1  0  0  0  0
  8  5  2  0  0  0  0
  9  4  2  0  0  0  0
 11  9  2  0  0  0  0
 12 15  2  0  0  0  0
 12  8  1  0  0  0  0
 13 16  2  0  0  0  0
 14  1  3  0  0  0  0
 15 18  1  0  0  0  0
 16  6  1  0  0  0  0
 17 11  1  0  0  0  0
 18 13  2  0  0  0  0
 18 10  1  0  0  0  0
 19 12  1  0  0  0  0
 20 21  1  0  0  0  0
 21  4  1  6  0  0  0
 21 24  1  0  0  0  0
 22 20  1  0  0  0  0
 22 23  1  0  0  0  0
 24 23  1  0  0  0  0
 24 25  1  1  0  0  0
 26 25  1  0  0  0  0
 27 26  2  0  0  0  0
 28 30  1  0  0  0  0
 28 27  1  1  0  0  0
 29 28  1  0  0  0  0
 29 30  1  0  0  0  0
 30 31  1  1  0  0  0
 32 30  1  0  0  0  0
 32 33  1  1  0  0  0
 34 35  1  0  0  0  0
 35 32  1  0  0  0  0
 37 41  1  0  0  0  0
 37 38  1  0  0  0  0
 38 40  2  0  0  0  0
 38 36  1  0  0  0  0
 39 40  1  0  0  0  0
 41 43  1  6  0  0  0
 41 39  1  0  0  0  0
 42 43  1  0  0  0  0
M  END
>  <MODEL>
1

>  <REMARK>
 VINA RESULT:      -7.6      0.000      0.000
  Name = 
  9 active torsions:
  status: ('A' for Active; 'I' for Inactive)
    1  A    between atoms: C_4  and  C_12
    2  A    between atoms: C_7  and  C_20
    3  A    between atoms: C_7  and  O_34
    4  A    between atoms: C_10  and  C_40
    5  A    between atoms: C_12  and  C_19
    6  A    between atoms: C_13  and  C_16
    7  A    between atoms: C_14  and  S_17
    8  A    between atoms: S_17  and  C_39
    9  A    between atoms: C_22  and  C_24
                            x       y       z     vdW  Elec       q    Type
                         _______ _______ _______ _____ _____    ______ ____

>  <TORSDO>
F 9

$$$$
=
 OpenBabel11042419163D

 43 48  0  0  1  0  0  0  0  0999 V2000
  193.7840  174.7110  143.6430 C   0  0  0  0  0  0  0  0  0  0  0  0
  189.5470  174.4720  142.8760 C   0  0  2  0  0  3  0  0  0  0  0  0
  188.5640  173.6680  142.3200 C   0  0  0  0  0  2  0  0  0  0  0  0
  192.7010  174.7540  144.6040 C   0  0  0  0  0  0  0  0  0  0  0  0
  190.8080  173.4270  140.5940 C   0  0  0  0  0  0  0  0  0  0  0  0
  195.7780  174.6920  141.8480 C   0  0  2  0  0  3  0  0  0  0  0  0
  189.8640  173.7750  141.5950 N   0  0  0  0  0  0  0  0  0  0  0  0
  190.4850  172.6010  139.5920 C   0  0  0  0  0  3  0  0  0  0  0  0
  191.5290  174.2770  144.2680 C   0  0  0  0  0  0  0  0  0  0  0  0
  192.1570  173.8480  140.7600 N   0  0  0  0  0  2  0  0  0  0  0  0
  190.3410  173.8160  143.9750 C   0  0  0  0  0  0  0  0  0  0  0  0
  191.5350  172.1450  138.6450 C   0  0  0  0  0  0  0  0  0  0  0  0
  194.3980  173.4540  140.2730 C   0  0  0  0  0  0  0  0  0  0  0  0
  194.6950  174.6950  142.8490 C   0  0  0  0  0  0  0  0  0  0  0  0
  192.7840  172.4760  138.8170 N   0  0  0  0  0  0  0  0  0  0  0  0
  195.5720  173.6180  140.8140 C   0  0  0  0  0  3  0  0  0  0  0  0
  189.7570  172.7410  144.8350 C   0  0  0  0  0  1  0  0  0  0  0  0
  193.1640  173.3400  139.8950 C   0  0  0  0  0  0  0  0  0  0  0  0
  191.1750  171.2930  137.5660 N   0  0  0  0  0  1  0  0  0  0  0  0
  194.4430  175.3000  146.3310 C   0  0  0  0  0  2  0  0  0  0  0  0
  192.9790  175.0760  146.0550 C   0  0  1  0  0  3  0  0  0  0  0  0
  194.5300  176.7880  146.5460 C   0  0  0  0  0  2  0  0  0  0  0  0
  193.3060  177.2040  147.0870 O   0  0  0  0  0  0  0  0  0  0  0  0
  192.3360  176.3930  146.4690 C   0  0  2  0  0  3  0  0  0  0  0  0
  190.9760  176.0470  147.6300 S   0  0  0  0  0  0  0  0  0  0  0  0
  189.7030  176.5680  146.4770 C   0  0  0  0  0  3  0  0  0  0  0  0
  188.4850  176.0380  146.5610 C   0  0  0  0  0  3  0  0  0  0  0  0
  187.4050  176.4590  145.6130 C   0  0  2  0  0  3  0  0  0  0  0  0
  187.5230  177.8500  145.3780 O   0  0  0  0  0  0  0  0  0  0  0  0
  186.4710  177.4480  146.2100 C   0  0  2  0  0  0  0  0  0  0  0  0
  186.6750  177.8490  147.5340 O   0  0  0  0  0  1  0  0  0  0  0  0
  185.1100  177.6920  145.5710 C   0  0  1  0  0  3  0  0  0  0  0  0
  184.1540  178.2600  146.6060 C   0  0  0  0  0  1  0  0  0  0  0  0
  184.4400  178.1170  143.5400 N   0  0  0  0  0  1  0  0  0  0  0  0
  185.2380  178.6030  144.5200 O   0  0  0  0  0  0  0  0  0  0  0  0
  197.1170  174.5130  142.5500 C   0  0  0  0  0  2  0  0  0  0  0  0
  196.8510  171.7800  143.3950 S   0  0  0  0  0  0  0  0  0  0  0  0
  197.0270  173.5350  143.6740 C   0  0  0  0  0  0  0  0  0  0  0  0
  197.1290  172.8360  145.8100 N   0  0  0  0  0  2  0  0  0  0  0  0
  197.1630  173.8940  144.9020 N   0  0  0  0  0  0  0  0  0  0  0  0
  196.9870  171.5240  145.2040 C   0  0  1  0  0  3  0  0  0  0  0  0
  194.6050  171.7600  145.6390 N   0  0  0  0  0  1  0  0  0  0  0  0
  195.7350  170.8530  145.7380 C   0  0  0  0  0  2  0  0  0  0  0  0
  1  4  1  0  0  0  0
  2  3  1  1  0  0  0
  2 11  1  0  0  0  0
  5 10  1  0  0  0  0
  5  7  1  0  0  0  0
  6 36  1  1  0  0  0
  6 14  1  0  0  0  0
  7  3  1  0  0  0  0
  7  2  1  0  0  0  0
  8  5  2  0  0  0  0
  9  4  2  0  0  0  0
 11  9  2  0  0  0  0
 11 17  1  0  0  0  0
 12 15  2  0  0  0  0
 12  8  1  0  0  0  0
 13 16  2  0  0  0  0
 14  1  3  0  0  0  0
 15 18  1  0  0  0  0
 16  6  1  0  0  0  0
 18 13  2  0  0  0  0
 18 10  1  0  0  0  0
 19 12  1  0  0  0  0
 20 22  1  0  0  0  0
 21  4  1  6  0  0  0
 21 20  1  0  0  0  0
 21 24  1  0  0  0  0
 22 23  1  0  0  0  0
 24 23  1  0  0  0  0
 24 25  1  1  0  0  0
 26 27  2  0  0  0  0
 26 25  1  0  0  0  0
 28 30  1  0  0  0  0
 28 27  1  1  0  0  0
 29 28  1  0  0  0  0
 29 30  1  0  0  0  0
 30 31  1  1  0  0  0
 32 30  1  0  0  0  0
 32 33  1  1  0  0  0
 34 35  1  0  0  0  0
 35 32  1  0  0  0  0
 36 38  1  0  0  0  0
 37 38  1  0  0  0  0
 37 41  1  0  0  0  0
 38 40  2  0  0  0  0
 40 39  1  0  0  0  0
 41 43  1  1  0  0  0
 41 39  1  0  0  0  0
 42 43  1  0  0  0  0
M  END
>  <MODEL>
2

>  <REMARK>
 VINA RESULT:      -7.2      2.747      5.609
  Name = 
  9 active torsions:
  status: ('A' for Active; 'I' for Inactive)
    1  A    between atoms: C_4  and  C_12
    2  A    between atoms: C_7  and  C_20
    3  A    between atoms: C_7  and  O_34
    4  A    between atoms: C_10  and  C_40
    5  A    between atoms: C_12  and  C_19
    6  A    between atoms: C_13  and  C_16
    7  A    between atoms: C_14  and  S_17
    8  A    between atoms: S_17  and  C_39
    9  A    between atoms: C_22  and  C_24
                            x       y       z     vdW  Elec       q    Type
                         _______ _______ _______ _____ _____    ______ ____

>  <TORSDO>
F 9

$$$$
=
 OpenBabel11042419163D

 43 48  0  0  1  0  0  0  0  0999 V2000
  190.3230  174.3610  143.0280 C   0  0  0  0  0  0  0  0  0  0  0  0
  192.1350  170.4810  142.5200 C   0  0  2  0  0  3  0  0  0  0  0  0
  192.7320  169.6500  141.5860 C   0  0  0  0  0  2  0  0  0  0  0  0
  191.4760  173.8210  143.7170 C   0  0  0  0  0  0  0  0  0  0  0  0
  190.6000  170.9290  140.2100 C   0  0  0  0  0  0  0  0  0  0  0  0
  188.1490  175.3300  141.7880 C   0  0  2  0  0  3  0  0  0  0  0  0
  191.5360  170.4310  141.1540 N   0  0  0  0  0  0  0  0  0  0  0  0
  190.5830  170.4840  138.9490 C   0  0  0  0  0  3  0  0  0  0  0  0
  192.1290  172.8200  143.1810 C   0  0  0  0  0  0  0  0  0  0  0  0
  189.7780  172.0270  140.5870 N   0  0  0  0  0  2  0  0  0  0  0  0
  192.8100  171.8180  142.6860 C   0  0  0  0  0  0  0  0  0  0  0  0
  189.6880  171.1270  137.9530 C   0  0  0  0  0  0  0  0  0  0  0  0
  188.5350  173.8650  139.8860 C   0  0  0  0  0  0  0  0  0  0  0  0
  189.3510  174.8170  142.4720 C   0  0  0  0  0  0  0  0  0  0  0  0
  188.9720  172.1690  138.2680 N   0  0  0  0  0  0  0  0  0  0  0  0
  188.1910  175.0470  140.3110 C   0  0  0  0  0  3  0  0  0  0  0  0
  194.2710  172.0010  142.4320 C   0  0  0  0  0  1  0  0  0  0  0  0
  188.9880  172.6840  139.6050 C   0  0  0  0  0  0  0  0  0  0  0  0
  189.6550  170.6270  136.6230 N   0  0  0  0  0  1  0  0  0  0  0  0
  192.9050  173.6720  145.7790 C   0  0  0  0  0  2  0  0  0  0  0  0
  192.0910  174.5660  144.8790 C   0  0  1  0  0  3  0  0  0  0  0  0
  194.3230  174.0740  145.4720 C   0  0  0  0  0  2  0  0  0  0  0  0
  194.3050  175.4280  145.1110 O   0  0  0  0  0  0  0  0  0  0  0  0
  193.1000  175.6060  144.4080 C   0  0  2  0  0  3  0  0  0  0  0  0
  192.4260  177.2680  144.7250 S   0  0  0  0  0  0  0  0  0  0  0  0
  191.0880  176.6580  145.7530 C   0  0  0  0  0  3  0  0  0  0  0  0
  189.9210  177.3000  145.7620 C   0  0  0  0  0  3  0  0  0  0  0  0
  188.7890  176.8090  146.6080 C   0  0  2  0  0  3  0  0  0  0  0  0
  187.8950  176.0750  145.7910 O   0  0  0  0  0  0  0  0  0  0  0  0
  187.4740  177.3530  146.1810 C   0  0  2  0  0  0  0  0  0  0  0  0
  187.4350  178.2380  145.0990 O   0  0  0  0  0  1  0  0  0  0  0  0
  186.2830  177.3000  147.1280 C   0  0  1  0  0  3  0  0  0  0  0  0
  185.9750  178.6960  147.6400 C   0  0  0  0  0  1  0  0  0  0  0  0
  184.2760  177.8270  146.4580 N   0  0  0  0  0  1  0  0  0  0  0  0
  185.1650  176.8050  146.4530 O   0  0  0  0  0  0  0  0  0  0  0  0
  188.0170  176.8240  142.0470 C   0  0  0  0  0  2  0  0  0  0  0  0
  185.2830  177.5860  142.4960 S   0  0  0  0  0  0  0  0  0  0  0  0
  186.7450  177.3730  141.4920 C   0  0  0  0  0  0  0  0  0  0  0  0
  185.4190  178.3570  139.9640 N   0  0  0  0  0  2  0  0  0  0  0  0
  186.6600  177.8070  140.2840 N   0  0  0  0  0  0  0  0  0  0  0  0
  184.4650  178.3760  141.0590 C   0  0  1  0  0  3  0  0  0  0  0  0
  182.0330  178.3240  141.0590 N   0  0  0  0  0  1  0  0  0  0  0  0
  183.2250  177.5950  140.6630 C   0  0  0  0  0  2  0  0  0  0  0  0
  1  4  1  0  0  0  0
  2  3  1  6  0  0  0
  2 11  1  0  0  0  0
  5 10  1  0  0  0  0
  5  7  1  0  0  0  0
  6 36  1  6  0  0  0
  6 14  1  0  0  0  0
  7  3  1  0  0  0  0
  7  2  1  0  0  0  0
  8  5  2  0  0  0  0
  9  4  2  0  0  0  0
 11  9  2  0  0  0  0
 12 15  2  0  0  0  0
 12  8  1  0  0  0  0
 13 16  2  0  0  0  0
 14  1  3  0  0  0  0
 15 18  1  0  0  0  0
 16  6  1  0  0  0  0
 17 11  1  0  0  0  0
 18 13  2  0  0  0  0
 18 10  1  0  0  0  0
 19 12  1  0  0  0  0
 21  4  1  6  0  0  0
 21 20  1  0  0  0  0
 22 20  1  0  0  0  0
 23 22  1  0  0  0  0
 24 25  1  1  0  0  0
 24 21  1  0  0  0  0
 24 23  1  0  0  0  0
 25 26  1  0  0  0  0
 26 27  2  0  0  0  0
 28 27  1  6  0  0  0
 29 30  1  0  0  0  0
 29 28  1  0  0  0  0
 30 31  1  6  0  0  0
 30 28  1  0  0  0  0
 30 32  1  0  0  0  0
 32 33  1  6  0  0  0
 35 34  1  0  0  0  0
 35 32  1  0  0  0  0
 38 36  1  0  0  0  0
 38 37  1  0  0  0  0
 39 40  1  0  0  0  0
 39 41  1  0  0  0  0
 40 38  2  0  0  0  0
 41 43  1  6  0  0  0
 41 37  1  0  0  0  0
 43 42  1  0  0  0  0
M  END
>  <MODEL>
3

>  <REMARK>
 VINA RESULT:      -7.2      1.818      2.291
  Name = 
  9 active torsions:
  status: ('A' for Active; 'I' for Inactive)
    1  A    between atoms: C_4  and  C_12
    2  A    between atoms: C_7  and  C_20
    3  A    between atoms: C_7  and  O_34
    4  A    between atoms: C_10  and  C_40
    5  A    between atoms: C_12  and  C_19
    6  A    between atoms: C_13  and  C_16
    7  A    between atoms: C_14  and  S_17
    8  A    between atoms: S_17  and  C_39
    9  A    between atoms: C_22  and  C_24
                            x       y       z     vdW  Elec       q    Type
                         _______ _______ _______ _____ _____    ______ ____

>  <TORSDO>
F 9

$$$$
=
 OpenBabel11042419163D

 43 48  0  0  1  0  0  0  0  0999 V2000
  192.5700  174.1890  143.7320 C   0  0  0  0  0  0  0  0  0  0  0  0
  196.6700  174.0910  142.4020 C   0  0  2  0  0  3  0  0  0  0  0  0
  197.5300  174.5610  141.4220 C   0  0  0  0  0  2  0  0  0  0  0  0
  193.7520  174.6000  144.4610 C   0  0  0  0  0  0  0  0  0  0  0  0
  195.0980  173.9670  140.0770 C   0  0  0  0  0  0  0  0  0  0  0  0
  190.3920  173.3690  142.3950 C   0  0  2  0  0  3  0  0  0  0  0  0
  196.1680  174.1240  140.9970 N   0  0  0  0  0  0  0  0  0  0  0  0
  195.2530  174.2470  138.7790 C   0  0  0  0  0  3  0  0  0  0  0  0
  194.8450  174.8820  143.7970 C   0  0  0  0  0  0  0  0  0  0  0  0
  193.8070  173.6560  140.5880 N   0  0  0  0  0  2  0  0  0  0  0  0
  195.9610  175.1700  143.1780 C   0  0  0  0  0  0  0  0  0  0  0  0
  194.0770  174.2110  137.8710 C   0  0  0  0  0  0  0  0  0  0  0  0
  191.5040  173.7630  140.2680 C   0  0  0  0  0  0  0  0  0  0  0  0
  191.5780  173.8340  143.1410 C   0  0  0  0  0  0  0  0  0  0  0  0
  192.8800  173.9840  138.3330 N   0  0  0  0  0  0  0  0  0  0  0  0
  190.4110  173.8550  140.9700 C   0  0  0  0  0  3  0  0  0  0  0  0
  196.5620  176.5240  143.3770 C   0  0  0  0  0  1  0  0  0  0  0  0
  192.6790  173.7040  139.7240 C   0  0  0  0  0  0  0  0  0  0  0  0
  194.2580  174.4800  136.4870 N   0  0  0  0  0  1  0  0  0  0  0  0
  194.8740  175.7140  146.4140 C   0  0  0  0  0  2  0  0  0  0  0  0
  193.6570  174.9730  145.9220 C   0  0  1  0  0  3  0  0  0  0  0  0
  194.3740  177.1250  146.5790 C   0  0  0  0  0  2  0  0  0  0  0  0
  193.0130  177.0510  146.9060 O   0  0  0  0  0  0  0  0  0  0  0  0
  192.5200  175.9530  146.1780 C   0  0  2  0  0  3  0  0  0  0  0  0
  191.2140  175.1080  147.1260 S   0  0  0  0  0  0  0  0  0  0  0  0
  189.8940  175.7130  146.0730 C   0  0  0  0  0  3  0  0  0  0  0  0
  188.6980  175.9700  146.6000 C   0  0  0  0  0  3  0  0  0  0  0  0
  187.5820  176.4790  145.7430 C   0  0  2  0  0  3  0  0  0  0  0  0
  187.7940  177.8560  145.4910 O   0  0  0  0  0  0  0  0  0  0  0  0
  186.7840  177.5400  146.4100 C   0  0  2  0  0  0  0  0  0  0  0  0
  187.1300  177.9210  147.7100 O   0  0  0  0  0  1  0  0  0  0  0  0
  185.4000  177.8960  145.8840 C   0  0  1  0  0  3  0  0  0  0  0  0
  184.4920  178.2620  147.0450 C   0  0  0  0  0  1  0  0  0  0  0  0
  184.2060  179.3330  144.7590 N   0  0  0  0  0  1  0  0  0  0  0  0
  185.4900  178.9860  145.0150 O   0  0  0  0  0  0  0  0  0  0  0  0
  189.1300  173.8360  143.1060 C   0  0  0  0  0  2  0  0  0  0  0  0
  189.3540  176.6440  142.5350 S   0  0  0  0  0  0  0  0  0  0  0  0
  188.5490  175.0510  142.4620 C   0  0  0  0  0  0  0  0  0  0  0  0
  187.1330  176.2120  141.1550 N   0  0  0  0  0  2  0  0  0  0  0  0
  187.4840  174.9970  141.7420 N   0  0  0  0  0  0  0  0  0  0  0  0
  188.0510  177.3030  141.4280 C   0  0  1  0  0  3  0  0  0  0  0  0
  185.9190  178.4510  141.6710 N   0  0  0  0  0  1  0  0  0  0  0  0
  187.3030  178.4350  142.1110 C   0  0  0  0  0  2  0  0  0  0  0  0
  1  4  1  0  0  0  0
  2  3  1  6  0  0  0
  2 11  1  0  0  0  0
  5 10  1  0  0  0  0
  5  7  1  0  0  0  0
  6 36  1  1  0  0  0
  6 14  1  0  0  0  0
  7  3  1  0  0  0  0
  7  2  1  0  0  0  0
  8  5  2  0  0  0  0
  9  4  2  0  0  0  0
 11 17  1  0  0  0  0
 11  9  2  0  0  0  0
 12 15  2  0  0  0  0
 12  8  1  0  0  0  0
 13 16  2  0  0  0  0
 14  1  3  0  0  0  0
 15 18  1  0  0  0  0
 16  6  1  0  0  0  0
 18 13  2  0  0  0  0
 18 10  1  0  0  0  0
 19 12  1  0  0  0  0
 20 22  1  0  0  0  0
 21  4  1  6  0  0  0
 21 24  1  0  0  0  0
 21 20  1  0  0  0  0
 22 23  1  0  0  0  0
 24 23  1  0  0  0  0
 24 25  1  1  0  0  0
 26 27  2  0  0  0  0
 26 25  1  0  0  0  0
 28 30  1  0  0  0  0
 28 27  1  1  0  0  0
 29 28  1  0  0  0  0
 29 30  1  0  0  0  0
 30 31  1  1  0  0  0
 32 30  1  0  0  0  0
 32 33  1  1  0  0  0
 34 35  1  0  0  0  0
 35 32  1  0  0  0  0
 38 37  1  0  0  0  0
 38 36  1  0  0  0  0
 39 41  1  0  0  0  0
 39 40  1  0  0  0  0
 40 38  2  0  0  0  0
 41 43  1  1  0  0  0
 41 37  1  0  0  0  0
 42 43  1  0  0  0  0
M  END
>  <MODEL>
4

>  <REMARK>
 VINA RESULT:      -7.1      2.619      3.148
  Name = 
  9 active torsions:
  status: ('A' for Active; 'I' for Inactive)
    1  A    between atoms: C_4  and  C_12
    2  A    between atoms: C_7  and  C_20
    3  A    between atoms: C_7  and  O_34
    4  A    between atoms: C_10  and  C_40
    5  A    between atoms: C_12  and  C_19
    6  A    between atoms: C_13  and  C_16
    7  A    between atoms: C_14  and  S_17
    8  A    between atoms: S_17  and  C_39
    9  A    between atoms: C_22  and  C_24
                            x       y       z     vdW  Elec       q    Type
                         _______ _______ _______ _____ _____    ______ ____

>  <TORSDO>
F 9

$$$$
=
 OpenBabel11042419163D

 43 48  0  0  1  0  0  0  0  0999 V2000
  191.8910  174.0170  142.4710 C   0  0  0  0  0  0  0  0  0  0  0  0
  194.5830  172.3270  139.5580 C   0  0  2  0  0  3  0  0  0  0  0  0
  194.9670  172.4010  138.2280 C   0  0  0  0  0  2  0  0  0  0  0  0
  193.3380  173.9760  142.5150 C   0  0  0  0  0  0  0  0  0  0  0  0
  192.1440  172.7230  138.2210 C   0  0  0  0  0  0  0  0  0  0  0  0
  189.2080  174.0330  142.4090 C   0  0  2  0  0  3  0  0  0  0  0  0
  193.5100  172.4960  138.5350 N   0  0  0  0  0  0  0  0  0  0  0  0
  191.7390  172.8760  136.9560 C   0  0  0  0  0  3  0  0  0  0  0  0
  194.0050  173.7990  141.4020 C   0  0  0  0  0  0  0  0  0  0  0  0
  191.2320  172.9420  139.2910 N   0  0  0  0  0  2  0  0  0  0  0  0
  194.7140  173.6210  140.3170 C   0  0  0  0  0  0  0  0  0  0  0  0
  190.3300  173.2540  136.6740 C   0  0  0  0  0  0  0  0  0  0  0  0
  189.2260  173.9000  139.9800 C   0  0  0  0  0  0  0  0  0  0  0  0
  190.6830  174.0420  142.4550 C   0  0  0  0  0  0  0  0  0  0  0  0
  189.4980  173.5130  137.6430 N   0  0  0  0  0  0  0  0  0  0  0  0
  188.6960  174.4230  141.0480 C   0  0  0  0  0  3  0  0  0  0  0  0
  195.7300  174.6530  139.9480 C   0  0  0  0  0  1  0  0  0  0  0  0
  189.9100  173.3810  139.0090 C   0  0  0  0  0  0  0  0  0  0  0  0
  189.9020  173.3840  135.3250 N   0  0  0  0  0  1  0  0  0  0  0  0
  195.5220  174.7430  143.4920 C   0  0  0  0  0  2  0  0  0  0  0  0
  194.0770  174.4100  143.7590 C   0  0  1  0  0  3  0  0  0  0  0  0
  195.5560  176.2440  143.6030 C   0  0  0  0  0  2  0  0  0  0  0  0
  194.5680  176.6170  144.5250 O   0  0  0  0  0  0  0  0  0  0  0  0
  193.5140  175.7090  144.3220 C   0  0  2  0  0  3  0  0  0  0  0  0
  192.6780  175.3540  145.9010 S   0  0  0  0  0  0  0  0  0  0  0  0
  191.3910  176.5740  145.6290 C   0  0  0  0  0  3  0  0  0  0  0  0
  190.2860  176.5410  146.3710 C   0  0  0  0  0  3  0  0  0  0  0  0
  189.2000  177.5500  146.1650 C   0  0  2  0  0  3  0  0  0  0  0  0
  188.6800  177.9220  147.4280 O   0  0  0  0  0  0  0  0  0  0  0  0
  187.8780  177.0770  146.6490 C   0  0  2  0  0  0  0  0  0  0  0  0
  187.7850  175.7960  147.2030 O   0  0  0  0  0  1  0  0  0  0  0  0
  186.6040  177.7680  146.1810 C   0  0  1  0  0  3  0  0  0  0  0  0
  185.4460  176.7860  146.2210 C   0  0  0  0  0  1  0  0  0  0  0  0
  185.1740  178.4940  147.6600 N   0  0  0  0  0  1  0  0  0  0  0  0
  186.3160  178.8470  147.0210 O   0  0  0  0  0  0  0  0  0  0  0  0
  188.6620  174.9690  143.4780 C   0  0  0  0  0  2  0  0  0  0  0  0
  186.3100  176.4670  142.7830 S   0  0  0  0  0  0  0  0  0  0  0  0
  188.0750  176.2050  142.8850 C   0  0  0  0  0  0  0  0  0  0  0  0
  188.0840  178.2930  142.0450 N   0  0  0  0  0  2  0  0  0  0  0  0
  188.8070  177.1900  142.4980 N   0  0  0  0  0  0  0  0  0  0  0  0
  186.6420  178.1460  142.1280 C   0  0  1  0  0  3  0  0  0  0  0  0
  184.5870  178.2790  140.8320 N   0  0  0  0  0  1  0  0  0  0  0  0
  186.0370  178.3020  140.7450 C   0  0  0  0  0  2  0  0  0  0  0  0
  1  4  1  0  0  0  0
  2  3  1  6  0  0  0
  2 11  1  0  0  0  0
  3  7  1  0  0  0  0
  5  7  1  0  0  0  0
  5 10  1  0  0  0  0
  6 14  1  0  0  0  0
  6 36  1  1  0  0  0
  7  2  1  0  0  0  0
  8  5  2  0  0  0  0
  9  4  2  0  0  0  0
 11  9  2  0  0  0  0
 12  8  1  0  0  0  0
 12 15  2  0  0  0  0
 13 16  2  0  0  0  0
 14  1  3  0  0  0  0
 15 18  1  0  0  0  0
 16  6  1  0  0  0  0
 17 11  1  0  0  0  0
 18 10  1  0  0  0  0
 18 13  2  0  0  0  0
 19 12  1  0  0  0  0
 20 22  1  0  0  0  0
 20 21  1  0  0  0  0
 21  4  1  6  0  0  0
 21 24  1  0  0  0  0
 22 23  1  0  0  0  0
 24 23  1  0  0  0  0
 24 25  1  1  0  0  0
 26 25  1  0  0  0  0
 26 27  2  0  0  0  0
 28 27  1  1  0  0  0
 28 30  1  0  0  0  0
 28 29  1  0  0  0  0
 30 31  1  1  0  0  0
 30 29  1  0  0  0  0
 32 33  1  1  0  0  0
 32 30  1  0  0  0  0
 32 35  1  0  0  0  0
 35 34  1  0  0  0  0
 37 38  1  0  0  0  0
 38 36  1  0  0  0  0
 39 41  1  0  0  0  0
 39 40  1  0  0  0  0
 40 38  2  0  0  0  0
 41 43  1  6  0  0  0
 41 37  1  0  0  0  0
 43 42  1  0  0  0  0
M  END
>  <MODEL>
5

>  <REMARK>
 VINA RESULT:      -6.9      2.562      3.145
  Name = 
  9 active torsions:
  status: ('A' for Active; 'I' for Inactive)
    1  A    between atoms: C_4  and  C_12
    2  A    between atoms: C_7  and  C_20
    3  A    between atoms: C_7  and  O_34
    4  A    between atoms: C_10  and  C_40
    5  A    between atoms: C_12  and  C_19
    6  A    between atoms: C_13  and  C_16
    7  A    between atoms: C_14  and  S_17
    8  A    between atoms: S_17  and  C_39
    9  A    between atoms: C_22  and  C_24
                            x       y       z     vdW  Elec       q    Type
                         _______ _______ _______ _____ _____    ______ ____

>  <TORSDO>
F 9

$$$$
=
 OpenBabel11042419163D

 43 48  0  0  1  0  0  0  0  0999 V2000
  192.1290  173.9980  144.8080 C   0  0  0  0  0  0  0  0  0  0  0  0
  196.3180  174.1540  145.8210 C   0  0  2  0  0  3  0  0  0  0  0  0
  197.5850  173.8550  145.3470 C   0  0  0  0  0  2  0  0  0  0  0  0
  192.9210  175.1630  145.1450 C   0  0  0  0  0  0  0  0  0  0  0  0
  195.9310  171.7060  144.4970 C   0  0  0  0  0  0  0  0  0  0  0  0
  190.6590  171.8250  144.2440 C   0  0  2  0  0  3  0  0  0  0  0  0
  196.4970  172.8680  145.0860 N   0  0  0  0  0  0  0  0  0  0  0  0
  196.6850  170.8340  143.8190 C   0  0  0  0  0  3  0  0  0  0  0  0
  194.2240  175.1030  145.0350 C   0  0  0  0  0  0  0  0  0  0  0  0
  194.5150  171.5650  144.5060 N   0  0  0  0  0  2  0  0  0  0  0  0
  195.5290  175.0890  144.9430 C   0  0  0  0  0  0  0  0  0  0  0  0
  196.0400  169.7090  143.0960 C   0  0  0  0  0  0  0  0  0  0  0  0
  192.6410  170.6340  143.4880 C   0  0  0  0  0  0  0  0  0  0  0  0
  191.4540  173.0310  144.5420 C   0  0  0  0  0  0  0  0  0  0  0  0
  194.7420  169.5980  143.0470 N   0  0  0  0  0  0  0  0  0  0  0  0
  191.3820  170.9080  143.2950 C   0  0  0  0  0  3  0  0  0  0  0  0
  196.1970  176.1010  144.0680 C   0  0  0  0  0  1  0  0  0  0  0  0
  193.9070  170.5310  143.7440 C   0  0  0  0  0  0  0  0  0  0  0  0
  196.8520  168.7700  142.4040 N   0  0  0  0  0  1  0  0  0  0  0  0
  192.3660  177.3970  144.1360 C   0  0  0  0  0  2  0  0  0  0  0  0
  192.2570  176.5060  145.3460 C   0  0  1  0  0  3  0  0  0  0  0  0
  190.9670  177.3950  143.5800 C   0  0  0  0  0  2  0  0  0  0  0  0
  190.0880  177.2290  144.6590 O   0  0  0  0  0  0  0  0  0  0  0  0
  190.7530  176.3630  145.5460 C   0  0  2  0  0  3  0  0  0  0  0  0
  190.3430  176.7910  147.2680 S   0  0  0  0  0  0  0  0  0  0  0  0
  188.7870  177.5680  146.8280 C   0  0  0  0  0  3  0  0  0  0  0  0
  187.7360  176.8100  146.5250 C   0  0  0  0  0  3  0  0  0  0  0  0
  186.4270  177.4340  146.1580 C   0  0  2  0  0  3  0  0  0  0  0  0
  185.5350  176.4150  145.7480 O   0  0  0  0  0  0  0  0  0  0  0  0
  186.0670  177.2210  144.7330 C   0  0  2  0  0  0  0  0  0  0  0  0
  186.9530  176.5090  143.9170 O   0  0  0  0  0  1  0  0  0  0  0  0
  185.0040  178.0920  144.0770 C   0  0  1  0  0  3  0  0  0  0  0  0
  185.5570  179.4870  143.8470 C   0  0  0  0  0  1  0  0  0  0  0  0
  183.6130  178.3160  142.4120 N   0  0  0  0  0  1  0  0  0  0  0  0
  184.6350  177.5400  142.8470 O   0  0  0  0  0  0  0  0  0  0  0  0
  189.3100  172.2360  143.6720 C   0  0  0  0  0  2  0  0  0  0  0  0
  189.3300  174.3370  141.7110 S   0  0  0  0  0  0  0  0  0  0  0  0
  189.4140  172.6320  142.2370 C   0  0  0  0  0  0  0  0  0  0  0  0
  189.8030  172.3350  140.0410 N   0  0  0  0  0  2  0  0  0  0  0  0
  189.6620  171.7740  141.3100 N   0  0  0  0  0  0  0  0  0  0  0  0
  189.6860  173.7810  140.0020 C   0  0  1  0  0  3  0  0  0  0  0  0
  188.1950  173.0490  138.2240 N   0  0  0  0  0  1  0  0  0  0  0  0
  188.5510  174.1720  139.0730 C   0  0  0  0  0  2  0  0  0  0  0  0
  1  4  1  0  0  0  0
  2  3  1  6  0  0  0
  5 10  1  0  0  0  0
  5  7  1  0  0  0  0
  6 36  1  6  0  0  0
  6 14  1  0  0  0  0
  7  3  1  0  0  0  0
  7  2  1  0  0  0  0
  8  5  2  0  0  0  0
  9  4  2  0  0  0  0
 11  9  2  0  0  0  0
 11  2  1  0  0  0  0
 12  8  1  0  0  0  0
 13 18  2  0  0  0  0
 14  1  3  0  0  0  0
 15 12  2  0  0  0  0
 15 18  1  0  0  0  0
 16 13  2  0  0  0  0
 16  6  1  0  0  0  0
 17 11  1  0  0  0  0
 18 10  1  0  0  0  0
 19 12  1  0  0  0  0
 20 21  1  0  0  0  0
 21  4  1  6  0  0  0
 21 24  1  0  0  0  0
 22 20  1  0  0  0  0
 22 23  1  0  0  0  0
 23 24  1  0  0  0  0
 24 25  1  1  0  0  0
 26 25  1  0  0  0  0
 27 26  2  0  0  0  0
 28 27  1  6  0  0  0
 29 28  1  0  0  0  0
 30 31  1  6  0  0  0
 30 29  1  0  0  0  0
 30 28  1  0  0  0  0
 32 33  1  6  0  0  0
 32 30  1  0  0  0  0
 34 35  1  0  0  0  0
 35 32  1  0  0  0  0
 37 38  1  0  0  0  0
 38 36  1  0  0  0  0
 39 40  1  0  0  0  0
 40 38  2  0  0  0  0
 41 43  1  6  0  0  0
 41 39  1  0  0  0  0
 41 37  1  0  0  0  0
 42 43  1  0  0  0  0
M  END
>  <MODEL>
6

>  <REMARK>
 VINA RESULT:      -6.8      2.300      4.197
  Name = 
  9 active torsions:
  status: ('A' for Active; 'I' for Inactive)
    1  A    between atoms: C_4  and  C_12
    2  A    between atoms: C_7  and  C_20
    3  A    between atoms: C_7  and  O_34
    4  A    between atoms: C_10  and  C_40
    5  A    between atoms: C_12  and  C_19
    6  A    between atoms: C_13  and  C_16
    7  A    between atoms: C_14  and  S_17
    8  A    between atoms: S_17  and  C_39
    9  A    between atoms: C_22  and  C_24
                            x       y       z     vdW  Elec       q    Type
                         _______ _______ _______ _____ _____    ______ ____

>  <TORSDO>
F 9

$$$$
=
 OpenBabel11042419163D

 43 48  0  0  1  0  0  0  0  0999 V2000
  188.0250  176.3420  142.7580 C   0  0  0  0  0  0  0  0  0  0  0  0
  189.6620  172.9510  140.6580 C   0  0  2  0  0  3  0  0  0  0  0  0
  190.2420  172.5620  139.4610 C   0  0  0  0  0  2  0  0  0  0  0  0
  189.1340  175.5010  143.1560 C   0  0  0  0  0  0  0  0  0  0  0  0
  188.2070  174.4140  138.7520 C   0  0  0  0  0  0  0  0  0  0  0  0
  185.9300  177.8590  142.0420 C   0  0  2  0  0  3  0  0  0  0  0  0
  189.0950  173.5150  139.3990 N   0  0  0  0  0  0  0  0  0  0  0  0
  188.1990  174.5460  137.4220 C   0  0  0  0  0  3  0  0  0  0  0  0
  189.7510  174.7870  142.2480 C   0  0  0  0  0  0  0  0  0  0  0  0
  187.4290  175.2920  139.5580 N   0  0  0  0  0  2  0  0  0  0  0  0
  190.3950  174.0540  141.3760 C   0  0  0  0  0  0  0  0  0  0  0  0
  187.3610  175.5970  136.7900 C   0  0  0  0  0  0  0  0  0  0  0  0
  186.2920  177.3180  139.6980 C   0  0  0  0  0  0  0  0  0  0  0  0
  187.0900  177.0410  142.4470 C   0  0  0  0  0  0  0  0  0  0  0  0
  186.6880  176.4450  137.5160 N   0  0  0  0  0  0  0  0  0  0  0  0
  185.9950  178.2250  140.5840 C   0  0  0  0  0  3  0  0  0  0  0  0
  191.8700  174.2490  141.2260 C   0  0  0  0  0  1  0  0  0  0  0  0
  186.6950  176.3440  138.9450 C   0  0  0  0  0  0  0  0  0  0  0  0
  187.3360  175.7090  135.3730 N   0  0  0  0  0  1  0  0  0  0  0  0
  189.3500  174.5500  145.4720 C   0  0  0  0  0  2  0  0  0  0  0  0
  189.7550  175.6500  144.5260 C   0  0  1  0  0  3  0  0  0  0  0  0
  190.6010  173.7200  145.5900 C   0  0  0  0  0  2  0  0  0  0  0  0
  191.6920  174.5820  145.4230 O   0  0  0  0  0  0  0  0  0  0  0  0
  191.2720  175.5270  144.4700 C   0  0  2  0  0  3  0  0  0  0  0  0
  192.0100  177.1530  144.8290 S   0  0  0  0  0  0  0  0  0  0  0  0
  193.6930  176.5680  144.6150 C   0  0  0  0  0  3  0  0  0  0  0  0
  194.0870  176.1220  143.4240 C   0  0  0  0  0  3  0  0  0  0  0  0
  195.4860  175.6330  143.2200 C   0  0  2  0  0  3  0  0  0  0  0  0
  196.2960  176.7220  142.8160 O   0  0  0  0  0  0  0  0  0  0  0  0
  195.9540  175.7980  141.8200 C   0  0  2  0  0  0  0  0  0  0  0  0
  195.0770  176.3500  140.8810 O   0  0  0  0  0  1  0  0  0  0  0  0
  197.1640  175.0180  141.3240 C   0  0  1  0  0  3  0  0  0  0  0  0
  196.7020  173.7700  140.5910 C   0  0  0  0  0  1  0  0  0  0  0  0
  197.7270  175.2480  139.2290 N   0  0  0  0  0  1  0  0  0  0  0  0
  197.9110  175.8100  140.4480 O   0  0  0  0  0  0  0  0  0  0  0  0
  185.8630  179.1080  142.9090 C   0  0  0  0  0  2  0  0  0  0  0  0
  186.7060  178.7150  145.6280 S   0  0  0  0  0  0  0  0  0  0  0  0
  185.4930  178.7850  144.3180 C   0  0  0  0  0  0  0  0  0  0  0  0
  184.1070  178.4140  146.0510 N   0  0  0  0  0  2  0  0  0  0  0  0
  184.2690  178.6310  144.6830 N   0  0  0  0  0  0  0  0  0  0  0  0
  185.3390  178.4420  146.8180 C   0  0  1  0  0  3  0  0  0  0  0  0
  186.7330  176.4630  147.0710 N   0  0  0  0  0  1  0  0  0  0  0  0
  185.5200  177.1150  147.5330 C   0  0  0  0  0  2  0  0  0  0  0  0
  1  4  1  0  0  0  0
  2  3  1  6  0  0  0
  2 11  1  0  0  0  0
  5  7  1  0  0  0  0
  5 10  1  0  0  0  0
  6 14  1  0  0  0  0
  6 36  1  1  0  0  0
  7  3  1  0  0  0  0
  7  2  1  0  0  0  0
  8  5  2  0  0  0  0
  9  4  2  0  0  0  0
 11  9  2  0  0  0  0
 12  8  1  0  0  0  0
 12 15  2  0  0  0  0
 13 16  2  0  0  0  0
 14  1  3  0  0  0  0
 15 18  1  0  0  0  0
 16  6  1  0  0  0  0
 17 11  1  0  0  0  0
 18 10  1  0  0  0  0
 18 13  2  0  0  0  0
 19 12  1  0  0  0  0
 20 22  1  0  0  0  0
 21  4  1  6  0  0  0
 21 20  1  0  0  0  0
 23 22  1  0  0  0  0
 24 21  1  0  0  0  0
 24 25  1  1  0  0  0
 24 23  1  0  0  0  0
 26 25  1  0  0  0  0
 27 26  2  0  0  0  0
 28 27  1  6  0  0  0
 29 28  1  0  0  0  0
 30 31  1  6  0  0  0
 30 29  1  0  0  0  0
 30 28  1  0  0  0  0
 32 33  1  6  0  0  0
 32 30  1  0  0  0  0
 34 35  1  0  0  0  0
 35 32  1  0  0  0  0
 36 38  1  0  0  0  0
 37 41  1  0  0  0  0
 38 40  2  0  0  0  0
 38 37  1  0  0  0  0
 39 41  1  0  0  0  0
 40 39  1  0  0  0  0
 41 43  1  6  0  0  0
 42 43  1  0  0  0  0
M  END
>  <MODEL>
7

>  <REMARK>
 VINA RESULT:      -6.7      3.364      7.268
  Name = 
  9 active torsions:
  status: ('A' for Active; 'I' for Inactive)
    1  A    between atoms: C_4  and  C_12
    2  A    between atoms: C_7  and  C_20
    3  A    between atoms: C_7  and  O_34
    4  A    between atoms: C_10  and  C_40
    5  A    between atoms: C_12  and  C_19
    6  A    between atoms: C_13  and  C_16
    7  A    between atoms: C_14  and  S_17
    8  A    between atoms: S_17  and  C_39
    9  A    between atoms: C_22  and  C_24
                            x       y       z     vdW  Elec       q    Type
                         _______ _______ _______ _____ _____    ______ ____

>  <TORSDO>
F 9

$$$$
=
 OpenBabel11042419163D

 43 48  0  0  1  0  0  0  0  0999 V2000
  192.4970  173.1660  143.9870 C   0  0  0  0  0  0  0  0  0  0  0  0
  196.7460  173.4790  143.3220 C   0  0  2  0  0  3  0  0  0  0  0  0
  197.6980  173.8410  142.3830 C   0  0  0  0  0  2  0  0  0  0  0  0
  193.4600  173.9460  144.7370 C   0  0  0  0  0  0  0  0  0  0  0  0
  195.6550  172.5140  140.9200 C   0  0  0  0  0  0  0  0  0  0  0  0
  190.7310  171.6710  142.6290 C   0  0  2  0  0  3  0  0  0  0  0  0
  196.5080  173.0780  141.9050 N   0  0  0  0  0  0  0  0  0  0  0  0
  196.0040  172.4920  139.6300 C   0  0  0  0  0  3  0  0  0  0  0  0
  194.6080  174.2470  144.1820 C   0  0  0  0  0  0  0  0  0  0  0  0
  194.3470  172.1120  141.3100 N   0  0  0  0  0  2  0  0  0  0  0  0
  195.7680  174.5700  143.6710 C   0  0  0  0  0  0  0  0  0  0  0  0
  195.0290  172.0270  138.6100 C   0  0  0  0  0  0  0  0  0  0  0  0
  192.1480  171.7260  140.6520 C   0  0  0  0  0  0  0  0  0  0  0  0
  191.6870  172.5070  143.3810 C   0  0  0  0  0  0  0  0  0  0  0  0
  193.8100  171.7100  138.9430 N   0  0  0  0  0  0  0  0  0  0  0  0
  190.9430  171.7900  141.1440 C   0  0  0  0  0  3  0  0  0  0  0  0
  196.1340  176.0160  143.5800 C   0  0  0  0  0  1  0  0  0  0  0  0
  193.3990  171.7460  140.3150 C   0  0  0  0  0  0  0  0  0  0  0  0
  195.4210  171.9780  137.2440 N   0  0  0  0  0  1  0  0  0  0  0  0
  194.1020  175.5970  146.5200 C   0  0  0  0  0  2  0  0  0  0  0  0
  193.0520  174.6410  146.0150 C   0  0  1  0  0  3  0  0  0  0  0  0
  193.5050  176.9480  146.2310 C   0  0  0  0  0  2  0  0  0  0  0  0
  192.1120  176.8160  146.3110 O   0  0  0  0  0  0  0  0  0  0  0  0
  191.8350  175.5330  145.8040 C   0  0  2  0  0  3  0  0  0  0  0  0
  190.4120  174.8070  146.6780 S   0  0  0  0  0  0  0  0  0  0  0  0
  189.5070  176.3550  146.7350 C   0  0  0  0  0  3  0  0  0  0  0  0
  188.1800  176.3360  146.8460 C   0  0  0  0  0  3  0  0  0  0  0  0
  187.4030  177.6140  146.8990 C   0  0  2  0  0  3  0  0  0  0  0  0
  186.0580  177.3160  147.2240 O   0  0  0  0  0  0  0  0  0  0  0  0
  186.3130  177.6670  145.8920 C   0  0  2  0  0  0  0  0  0  0  0  0
  186.1450  176.5790  145.0280 O   0  0  0  0  0  1  0  0  0  0  0  0
  185.6830  179.0020  145.5200 C   0  0  1  0  0  3  0  0  0  0  0  0
  185.7620  179.2040  144.0170 C   0  0  0  0  0  1  0  0  0  0  0  0
  183.6420  179.0350  144.7530 N   0  0  0  0  0  1  0  0  0  0  0  0
  184.3420  179.0170  145.9120 O   0  0  0  0  0  0  0  0  0  0  0  0
  189.3090  172.0650  143.0030 C   0  0  0  0  0  2  0  0  0  0  0  0
  189.0190  174.9220  143.1000 S   0  0  0  0  0  0  0  0  0  0  0  0
  188.8850  173.3210  142.3190 C   0  0  0  0  0  0  0  0  0  0  0  0
  188.2060  174.6020  140.5980 N   0  0  0  0  0  2  0  0  0  0  0  0
  188.4850  173.3300  141.0960 N   0  0  0  0  0  0  0  0  0  0  0  0
  188.4540  175.6850  141.5330 C   0  0  1  0  0  3  0  0  0  0  0  0
  186.9580  177.3960  140.6640 N   0  0  0  0  0  1  0  0  0  0  0  0
  187.1710  176.4640  141.7580 C   0  0  0  0  0  2  0  0  0  0  0  0
  1  4  1  0  0  0  0
  2  3  1  6  0  0  0
  2 11  1  0  0  0  0
  5 10  1  0  0  0  0
  5  7  1  0  0  0  0
  6 36  1  6  0  0  0
  6 14  1  0  0  0  0
  7  3  1  0  0  0  0
  7  2  1  0  0  0  0
  8  5  2  0  0  0  0
  9  4  2  0  0  0  0
 11  9  2  0  0  0  0
 12 15  2  0  0  0  0
 12  8  1  0  0  0  0
 13 16  2  0  0  0  0
 14  1  3  0  0  0  0
 15 18  1  0  0  0  0
 16  6  1  0  0  0  0
 17 11  1  0  0  0  0
 18 13  2  0  0  0  0
 18 10  1  0  0  0  0
 19 12  1  0  0  0  0
 21  4  1  6  0  0  0
 21 20  1  0  0  0  0
 22 23  1  0  0  0  0
 22 20  1  0  0  0  0
 24 21  1  0  0  0  0
 24 23  1  0  0  0  0
 24 25  1  1  0  0  0
 25 26  1  0  0  0  0
 26 27  2  0  0  0  0
 28 27  1  6  0  0  0
 28 29  1  0  0  0  0
 30 31  1  6  0  0  0
 30 28  1  0  0  0  0
 30 29  1  0  0  0  0
 32 33  1  6  0  0  0
 32 30  1  0  0  0  0
 32 35  1  0  0  0  0
 34 35  1  0  0  0  0
 38 36  1  0  0  0  0
 38 37  1  0  0  0  0
 39 40  1  0  0  0  0
 39 41  1  0  0  0  0
 40 38  2  0  0  0  0
 41 43  1  1  0  0  0
 41 37  1  0  0  0  0
 42 43  1  0  0  0  0
M  END
>  <MODEL>
8

>  <REMARK>
 VINA RESULT:      -6.7      2.509      3.221
  Name = 
  9 active torsions:
  status: ('A' for Active; 'I' for Inactive)
    1  A    between atoms: C_4  and  C_12
    2  A    between atoms: C_7  and  C_20
    3  A    between atoms: C_7  and  O_34
    4  A    between atoms: C_10  and  C_40
    5  A    between atoms: C_12  and  C_19
    6  A    between atoms: C_13  and  C_16
    7  A    between atoms: C_14  and  S_17
    8  A    between atoms: S_17  and  C_39
    9  A    between atoms: C_22  and  C_24
                            x       y       z     vdW  Elec       q    Type
                         _______ _______ _______ _____ _____    ______ ____

>  <TORSDO>
F 9

$$$$
=
 OpenBabel11042419163D

 43 48  0  0  1  0  0  0  0  0999 V2000
  188.7640  175.0650  143.1790 C   0  0  0  0  0  0  0  0  0  0  0  0
  190.7490  171.3940  144.2620 C   0  0  2  0  0  3  0  0  0  0  0  0
  191.7520  170.5200  143.8750 C   0  0  0  0  0  2  0  0  0  0  0  0
  189.4680  174.7630  144.4090 C   0  0  0  0  0  0  0  0  0  0  0  0
  190.4880  171.3390  141.4650 C   0  0  0  0  0  0  0  0  0  0  0  0
  187.4100  175.5940  140.9240 C   0  0  2  0  0  3  0  0  0  0  0  0
  190.8780  171.0880  142.8070 N   0  0  0  0  0  0  0  0  0  0  0  0
  191.0930  170.7280  140.4410 C   0  0  0  0  0  3  0  0  0  0  0  0
  190.3360  173.7830  144.4220 C   0  0  0  0  0  0  0  0  0  0  0  0
  189.5440  172.3740  141.2180 N   0  0  0  0  0  2  0  0  0  0  0  0
  191.2090  172.8110  144.4850 C   0  0  0  0  0  0  0  0  0  0  0  0
  190.7590  171.1200  139.0480 C   0  0  0  0  0  0  0  0  0  0  0  0
  188.7160  173.9400  139.7090 C   0  0  0  0  0  0  0  0  0  0  0  0
  188.1590  175.3240  142.1660 C   0  0  0  0  0  0  0  0  0  0  0  0
  189.9390  172.1040  138.8060 N   0  0  0  0  0  0  0  0  0  0  0  0
  188.1650  175.1200  139.7110 C   0  0  0  0  0  3  0  0  0  0  0  0
  192.6060  173.1280  144.9120 C   0  0  0  0  0  1  0  0  0  0  0  0
  189.2940  172.7930  139.8830 C   0  0  0  0  0  0  0  0  0  0  0  0
  191.3850  170.4430  137.9660 N   0  0  0  0  0  1  0  0  0  0  0  0
  189.0440  175.0570  146.8680 C   0  0  0  0  0  2  0  0  0  0  0  0
  189.4230  175.7270  145.5730 C   0  0  1  0  0  3  0  0  0  0  0  0
  190.3380  175.0350  147.6360 C   0  0  0  0  0  2  0  0  0  0  0  0
  191.0810  176.1540  147.2360 O   0  0  0  0  0  0  0  0  0  0  0  0
  190.7970  176.3140  145.8680 C   0  0  2  0  0  3  0  0  0  0  0  0
  190.7900  178.0820  145.4290 S   0  0  0  0  0  0  0  0  0  0  0  0
  191.5620  177.8100  143.8330 C   0  0  0  0  0  3  0  0  0  0  0  0
  192.4280  176.8100  143.6840 C   0  0  0  0  0  3  0  0  0  0  0  0
  193.0820  176.5600  142.3610 C   0  0  2  0  0  3  0  0  0  0  0  0
  193.1470  175.1630  142.1420 O   0  0  0  0  0  0  0  0  0  0  0  0
  194.3500  175.7960  142.4820 C   0  0  2  0  0  0  0  0  0  0  0  0
  194.7890  175.4230  143.7560 O   0  0  0  0  0  1  0  0  0  0  0  0
  195.3470  175.7870  141.3300 C   0  0  1  0  0  3  0  0  0  0  0  0
  196.4530  176.7910  141.6050 C   0  0  0  0  0  1  0  0  0  0  0  0
  197.2410  174.7060  141.3580 N   0  0  0  0  0  1  0  0  0  0  0  0
  195.9090  174.5140  141.2020 O   0  0  0  0  0  0  0  0  0  0  0  0
  187.1130  177.0840  140.8250 C   0  0  0  0  0  2  0  0  0  0  0  0
  186.9290  178.2990  143.4220 S   0  0  0  0  0  0  0  0  0  0  0  0
  186.2500  177.5520  141.9480 C   0  0  0  0  0  0  0  0  0  0  0  0
  184.3240  178.0770  142.9860 N   0  0  0  0  0  2  0  0  0  0  0  0
  184.9650  177.5270  141.8770 N   0  0  0  0  0  0  0  0  0  0  0  0
  185.2180  178.6130  143.9980 C   0  0  1  0  0  3  0  0  0  0  0  0
  184.0570  178.6900  146.1350 N   0  0  0  0  0  1  0  0  0  0  0  0
  184.9680  177.9070  145.3180 C   0  0  0  0  0  2  0  0  0  0  0  0
  1  4  1  0  0  0  0
  2  3  1  1  0  0  0
  2 11  1  0  0  0  0
  4  9  2  0  0  0  0
  5  7  1  0  0  0  0
  6 36  1  6  0  0  0
  6 14  1  0  0  0  0
  7  3  1  0  0  0  0
  7  2  1  0  0  0  0
  8  5  2  0  0  0  0
  9 11  2  0  0  0  0
 10  5  1  0  0  0  0
 11 17  1  0  0  0  0
 12  8  1  0  0  0  0
 13 16  2  0  0  0  0
 13 18  2  0  0  0  0
 14  1  3  0  0  0  0
 15 12  2  0  0  0  0
 15 18  1  0  0  0  0
 16  6  1  0  0  0  0
 18 10  1  0  0  0  0
 19 12  1  0  0  0  0
 20 22  1  0  0  0  0
 21  4  1  6  0  0  0
 21 24  1  0  0  0  0
 21 20  1  0  0  0  0
 23 22  1  0  0  0  0
 24 25  1  1  0  0  0
 24 23  1  0  0  0  0
 26 25  1  0  0  0  0
 27 26  2  0  0  0  0
 28 30  1  0  0  0  0
 28 27  1  1  0  0  0
 29 28  1  0  0  0  0
 29 30  1  0  0  0  0
 30 31  1  1  0  0  0
 32 33  1  1  0  0  0
 32 30  1  0  0  0  0
 35 32  1  0  0  0  0
 35 34  1  0  0  0  0
 36 38  1  0  0  0  0
 37 41  1  0  0  0  0
 38 37  1  0  0  0  0
 39 41  1  0  0  0  0
 40 38  2  0  0  0  0
 40 39  1  0  0  0  0
 41 43  1  1  0  0  0
 43 42  1  0  0  0  0
M  END
>  <MODEL>
9

>  <REMARK>
 VINA RESULT:      -6.6      2.651      5.443
  Name = 
  9 active torsions:
  status: ('A' for Active; 'I' for Inactive)
    1  A    between atoms: C_4  and  C_12
    2  A    between atoms: C_7  and  C_20
    3  A    between atoms: C_7  and  O_34
    4  A    between atoms: C_10  and  C_40
    5  A    between atoms: C_12  and  C_19
    6  A    between atoms: C_13  and  C_16
    7  A    between atoms: C_14  and  S_17
    8  A    between atoms: S_17  and  C_39
    9  A    between atoms: C_22  and  C_24
                            x       y       z     vdW  Elec       q    Type
                         _______ _______ _______ _____ _____    ______ ____

>  <TORSDO>
F 9

$$$$
