=
 OpenBabel11042414553D

 39 45  0  0  1  0  0  0  0  0999 V2000
  187.4050  177.6890  143.3790 C   0  0  0  0  0  0  0  0  0  0  0  0
  186.7700  177.1710  140.7440 C   0  0  0  0  0  0  0  0  0  0  0  0
  186.6430  178.5900  142.6740 C   0  0  0  0  0  0  0  0  0  0  0  0
  187.4690  176.2120  141.5060 C   0  0  0  0  0  3  0  0  0  0  0  0
  187.4520  175.9980  146.1420 C   0  0  0  0  0  2  0  0  0  0  0  0
  186.5600  177.0770  145.5460 C   0  0  2  0  0  3  0  0  0  0  0  0
  188.3760  175.3150  143.7330 C   0  0  2  0  0  3  0  0  0  0  0  0
  186.4090  179.1950  144.7460 C   0  0  2  0  0  3  0  0  0  0  0  0
  186.4420  176.8880  139.3230 C   0  0  0  0  0  1  0  0  0  0  0  0
  184.4730  177.1760  146.6330 C   0  0  0  0  0  1  0  0  0  0  0  0
  187.7870  176.4450  142.8590 C   0  0  0  0  0  0  0  0  0  0  0  0
  185.9750  179.4860  143.5550 N   0  0  0  0  0  2  0  0  0  0  0  0
  188.6610  175.6340  145.2420 C   0  0  2  0  0  3  0  0  0  0  0  0
  187.3690  178.0870  144.7830 C   0  0  2  0  0  3  0  0  0  0  0  0
  185.7590  177.8420  146.5140 N   0  0  0  0  0  0  0  0  0  0  0  0
  185.5260  179.0610  145.8450 N   0  0  0  0  0  2  0  0  0  0  0  0
  186.2970  178.3500  141.3470 C   0  0  0  0  0  3  0  0  0  0  0  0
  189.5020  174.5570  145.9350 C   0  0  0  0  0  2  0  0  0  0  0  0
  191.8770  174.6360  145.6230 O   0  0  0  0  0  0  0  0  0  0  0  0
  190.8120  176.6240  146.5120 C   0  0  0  0  0  2  0  0  0  0  0  0
  193.0700  174.8760  146.3310 C   0  0  0  0  0  2  0  0  0  0  0  0
  190.8340  175.0890  146.4510 C   0  0  1  0  0  3  0  0  0  0  0  0
  192.1450  177.2270  146.0580 C   0  0  0  0  0  2  0  0  0  0  0  0
  193.3310  176.3800  146.5260 C   0  0  2  0  0  3  0  0  0  0  0  0
  195.4900  177.0860  145.2170 N   0  0  0  0  0  0  0  0  0  0  0  0
  194.5360  176.7740  145.7950 C   0  0  0  0  0  0  0  0  0  0  0  0
  189.5450  174.6430  143.1190 N   0  0  0  0  0  0  0  0  0  0  0  0
  189.9030  173.1950  141.2500 O   0  0  0  0  0  0  0  0  0  0  0  0
  189.1350  173.4220  142.4110 C   0  0  2  0  0  0  0  0  0  0  0  0
  189.1350  172.1900  143.2940 C   0  0  0  0  0  2  0  0  0  0  0  0
  190.3090  172.5000  142.4010 C   0  0  1  0  0  3  0  0  0  0  0  0
  190.2370  175.5540  142.2000 C   0  0  0  0  0  2  0  0  0  0  0  0
  191.7490  177.3110  142.7420 O   0  0  0  0  0  1  0  0  0  0  0  0
  191.6020  175.9240  142.7520 C   0  0  2  0  0  3  0  0  0  0  0  0
  192.6750  175.2830  141.8880 C   0  0  0  0  0  2  0  0  0  0  0  0
  194.0550  175.8030  142.2560 C   0  0  2  0  0  3  0  0  0  0  0  0
  194.6030  176.4990  141.1770 O   0  0  0  0  0  1  0  0  0  0  0  0
  194.5350  173.7710  143.3470 O   0  0  0  0  0  0  0  0  0  0  0  0
  194.9370  174.6530  142.6060 C   0  0  0  0  0  3  0  0  0  0  0  0
  2 17  2  0  0  0  0
  2  4  1  0  0  0  0
  3  1  2  0  0  0  0
  3 12  1  0  0  0  0
  4 11  2  0  0  0  0
  6  5  1  1  0  0  0
  6 15  1  0  0  0  0
  7 27  1  6  0  0  0
  7 13  1  0  0  0  0
  8 12  1  6  0  0  0
  8 14  1  0  0  0  0
  8 16  1  0  0  0  0
  9  2  1  0  0  0  0
 11  1  1  0  0  0  0
 11  7  1  0  0  0  0
 13 18  1  1  0  0  0
 13  5  1  0  0  0  0
 14  1  1  6  0  0  0
 14  6  1  0  0  0  0
 15 10  1  0  0  0  0
 16 15  1  0  0  0  0
 17  3  1  0  0  0  0
 19 21  1  0  0  0  0
 19 22  1  0  0  0  0
 21 24  1  0  0  0  0
 22 18  1  6  0  0  0
 22 20  1  0  0  0  0
 23 20  1  0  0  0  0
 23 24  1  0  0  0  0
 24 26  1  6  0  0  0
 25 26  3  0  0  0  0
 28 31  1  0  0  0  0
 28 29  1  0  0  0  0
 29 27  1  1  0  0  0
 29 30  1  0  0  0  0
 31 29  1  0  0  0  0
 31 30  1  6  0  0  0
 32 34  1  0  0  0  0
 32 27  1  0  0  0  0
 34 33  1  6  0  0  0
 35 36  1  0  0  0  0
 35 34  1  0  0  0  0
 36 37  1  6  0  0  0
 36 39  1  0  0  0  0
 39 38  2  0  0  0  0
M  END
>  <MODEL>
1

>  <REMARK>
 VINA RESULT:      -6.6      0.000      0.000
  Name = 
  10 active torsions:
  status: ('A' for Active; 'I' for Inactive)
    1  A    between atoms: C_1  and  C_13
    2  A    between atoms: C_1  and  C_33
    3  A    between atoms: C_6  and  N_11
    4  A    between atoms: C_8  and  C_17
    5  A    between atoms: C_8  and  C_37
    6  A    between atoms: N_11  and  C_14
    7  A    between atoms: N_11  and  C_19
    8  A    between atoms: C_14  and  C_37
    9  A    between atoms: C_17  and  C_32
   10  A    between atoms: C_23  and  C_35
                            x       y       z     vdW  Elec       q    Type
                         _______ _______ _______ _____ _____    ______ ____

>  <TORSDO>
F 10

$$$$
=
 OpenBabel11042414553D

 39 45  0  0  1  0  0  0  0  0999 V2000
  193.2350  175.5100  143.3820 C   0  0  0  0  0  0  0  0  0  0  0  0
  194.0640  176.8260  145.6600 C   0  0  0  0  0  0  0  0  0  0  0  0
  194.5330  175.9480  143.4780 C   0  0  0  0  0  0  0  0  0  0  0  0
  192.7630  176.2880  145.5880 C   0  0  0  0  0  3  0  0  0  0  0  0
  191.4730  172.8710  142.7240 C   0  0  0  0  0  2  0  0  0  0  0  0
  192.9510  173.2290  142.6700 C   0  0  2  0  0  3  0  0  0  0  0  0
  190.9720  174.8430  144.4500 C   0  0  2  0  0  3  0  0  0  0  0  0
  194.5540  174.5770  141.7950 C   0  0  2  0  0  3  0  0  0  0  0  0
  194.4980  177.5420  146.8870 C   0  0  0  0  0  1  0  0  0  0  0  0
  194.3090  171.3070  142.5890 C   0  0  0  0  0  1  0  0  0  0  0  0
  192.3230  175.5940  144.4430 C   0  0  0  0  0  0  0  0  0  0  0  0
  195.3580  175.3020  142.5140 N   0  0  0  0  0  2  0  0  0  0  0  0
  190.5690  174.0540  143.1560 C   0  0  2  0  0  3  0  0  0  0  0  0
  193.1480  174.6460  142.2080 C   0  0  2  0  0  3  0  0  0  0  0  0
  193.7740  172.3920  141.7840 N   0  0  0  0  0  0  0  0  0  0  0  0
  194.8600  173.2350  141.4640 N   0  0  0  0  0  2  0  0  0  0  0  0
  194.9830  176.6050  144.6210 C   0  0  0  0  0  3  0  0  0  0  0  0
  189.1060  173.5980  143.1610 C   0  0  0  0  0  2  0  0  0  0  0  0
  189.0370  174.6840  141.0260 O   0  0  0  0  0  0  0  0  0  0  0  0
  188.6510  172.2910  141.0610 C   0  0  0  0  0  2  0  0  0  0  0  0
  188.1910  174.8740  139.9170 C   0  0  0  0  0  2  0  0  0  0  0  0
  188.4700  173.6400  141.7770 C   0  0  1  0  0  3  0  0  0  0  0  0
  188.9700  172.4800  139.5750 C   0  0  0  0  0  2  0  0  0  0  0  0
  188.1910  173.6540  138.9790 C   0  0  2  0  0  3  0  0  0  0  0  0
  189.2250  174.3140  136.6620 N   0  0  0  0  0  0  0  0  0  0  0  0
  188.7690  174.0220  137.6860 C   0  0  0  0  0  0  0  0  0  0  0  0
  189.8380  175.6750  144.9200 N   0  0  0  0  0  0  0  0  0  0  0  0
  189.1520  176.9270  146.8370 O   0  0  0  0  0  0  0  0  0  0  0  0
  189.8420  175.7830  146.3870 C   0  0  2  0  0  0  0  0  0  0  0  0
  189.3170  174.5410  147.0790 C   0  0  0  0  0  2  0  0  0  0  0  0
  188.4190  175.7280  146.8370 C   0  0  1  0  0  3  0  0  0  0  0  0
  189.8930  177.0090  144.3130 C   0  0  0  0  0  2  0  0  0  0  0  0
  189.2150  177.9120  142.2170 O   0  0  0  0  0  1  0  0  0  0  0  0
  188.7620  177.1800  143.3150 C   0  0  2  0  0  3  0  0  0  0  0  0
  187.6160  177.9160  143.9900 C   0  0  0  0  0  2  0  0  0  0  0  0
  186.3870  177.0290  144.0990 C   0  0  2  0  0  3  0  0  0  0  0  0
  186.3470  176.1380  143.0240 O   0  0  0  0  0  1  0  0  0  0  0  0
  184.4490  177.9160  143.0960 O   0  0  0  0  0  0  0  0  0  0  0  0
  185.1630  177.8800  144.0840 C   0  0  0  0  0  3  0  0  0  0  0  0
  1  3  2  0  0  0  0
  1 11  1  0  0  0  0
  2  9  1  0  0  0  0
  3 17  1  0  0  0  0
  4  2  1  0  0  0  0
  5 13  1  0  0  0  0
  6  5  1  6  0  0  0
  7 27  1  6  0  0  0
  8 16  1  1  0  0  0
  8 14  1  0  0  0  0
  8 12  1  0  0  0  0
 11  7  1  0  0  0  0
 11  4  2  0  0  0  0
 12  3  1  0  0  0  0
 13 18  1  1  0  0  0
 13  7  1  0  0  0  0
 14  6  1  0  0  0  0
 14  1  1  1  0  0  0
 15 10  1  0  0  0  0
 15  6  1  0  0  0  0
 16 15  1  0  0  0  0
 17  2  2  0  0  0  0
 19 22  1  0  0  0  0
 20 22  1  0  0  0  0
 21 19  1  0  0  0  0
 22 18  1  1  0  0  0
 23 20  1  0  0  0  0
 24 26  1  6  0  0  0
 24 23  1  0  0  0  0
 24 21  1  0  0  0  0
 25 26  3  0  0  0  0
 28 31  1  0  0  0  0
 29 27  1  6  0  0  0
 29 28  1  0  0  0  0
 29 31  1  0  0  0  0
 29 30  1  0  0  0  0
 31 30  1  1  0  0  0
 32 27  1  0  0  0  0
 34 33  1  6  0  0  0
 34 35  1  0  0  0  0
 34 32  1  0  0  0  0
 35 36  1  0  0  0  0
 36 37  1  6  0  0  0
 38 39  2  0  0  0  0
 39 36  1  0  0  0  0
M  END
>  <MODEL>
2

>  <REMARK>
 VINA RESULT:      -6.2      2.848      7.798
  Name = 
  10 active torsions:
  status: ('A' for Active; 'I' for Inactive)
    1  A    between atoms: C_1  and  C_13
    2  A    between atoms: C_1  and  C_33
    3  A    between atoms: C_6  and  N_11
    4  A    between atoms: C_8  and  C_17
    5  A    between atoms: C_8  and  C_37
    6  A    between atoms: N_11  and  C_14
    7  A    between atoms: N_11  and  C_19
    8  A    between atoms: C_14  and  C_37
    9  A    between atoms: C_17  and  C_32
   10  A    between atoms: C_23  and  C_35
                            x       y       z     vdW  Elec       q    Type
                         _______ _______ _______ _____ _____    ______ ____

>  <TORSDO>
F 10

$$$$
=
 OpenBabel11042414553D

 39 45  0  0  1  0  0  0  0  0999 V2000
  192.0340  173.4270  142.2640 C   0  0  0  0  0  0  0  0  0  0  0  0
  193.0410  171.4830  143.9420 C   0  0  0  0  0  0  0  0  0  0  0  0
  192.6160  172.3040  141.7290 C   0  0  0  0  0  0  0  0  0  0  0  0
  192.3570  172.5950  144.4770 C   0  0  0  0  0  3  0  0  0  0  0  0
  189.3360  175.2170  142.1230 C   0  0  0  0  0  2  0  0  0  0  0  0
  189.8900  174.0270  141.3520 C   0  0  2  0  0  3  0  0  0  0  0  0
  190.9040  174.6950  144.2190 C   0  0  2  0  0  3  0  0  0  0  0  0
  191.5650  173.2100  140.0590 C   0  0  2  0  0  3  0  0  0  0  0  0
  193.5900  170.4470  144.8550 C   0  0  0  0  0  1  0  0  0  0  0  0
  188.2050  172.9210  140.1360 C   0  0  0  0  0  1  0  0  0  0  0  0
  191.8160  173.5900  143.6380 C   0  0  0  0  0  0  0  0  0  0  0  0
  192.2570  172.1510  140.3600 N   0  0  0  0  0  2  0  0  0  0  0  0
  190.3000  175.7420  143.2190 C   0  0  2  0  0  3  0  0  0  0  0  0
  191.3780  174.1430  141.1740 C   0  0  2  0  0  3  0  0  0  0  0  0
  189.3310  173.8300  140.0060 N   0  0  0  0  0  0  0  0  0  0  0  0
  190.3510  173.1210  139.3370 N   0  0  0  0  0  2  0  0  0  0  0  0
  193.1230  171.3010  142.5510 C   0  0  0  0  0  3  0  0  0  0  0  0
  189.6610  176.9440  143.9220 C   0  0  0  0  0  2  0  0  0  0  0  0
  187.6550  177.0490  145.2290 O   0  0  0  0  0  0  0  0  0  0  0  0
  187.5640  177.9710  142.9890 C   0  0  0  0  0  2  0  0  0  0  0  0
  186.3020  176.6600  145.1970 C   0  0  0  0  0  2  0  0  0  0  0  0
  188.1380  176.8890  143.9180 C   0  0  1  0  0  3  0  0  0  0  0  0
  186.3170  178.6270  143.5890 C   0  0  0  0  0  2  0  0  0  0  0  0
  185.4510  177.6090  144.3340 C   0  0  2  0  0  3  0  0  0  0  0  0
  183.7120  178.8630  145.8400 N   0  0  0  0  0  0  0  0  0  0  0  0
  184.4800  178.3090  145.1750 C   0  0  0  0  0  0  0  0  0  0  0  0
  191.4870  175.3830  145.3950 N   0  0  0  0  0  0  0  0  0  0  0  0
  191.7360  175.2440  147.7690 O   0  0  0  0  0  0  0  0  0  0  0  0
  191.0420  174.7490  146.6460 C   0  0  2  0  0  0  0  0  0  0  0  0
  189.5450  174.8440  146.8650 C   0  0  0  0  0  2  0  0  0  0  0  0
  190.4850  175.8280  147.5140 C   0  0  1  0  0  3  0  0  0  0  0  0
  192.9520  175.3800  145.3190 C   0  0  0  0  0  2  0  0  0  0  0  0
  193.1720  176.9780  143.5660 O   0  0  0  0  0  1  0  0  0  0  0  0
  193.4610  176.7510  144.9130 C   0  0  2  0  0  3  0  0  0  0  0  0
  194.9630  176.8070  145.1360 C   0  0  0  0  0  2  0  0  0  0  0  0
  195.6860  175.8220  144.2310 C   0  0  2  0  0  3  0  0  0  0  0  0
  196.3940  174.8990  145.0030 O   0  0  0  0  0  1  0  0  0  0  0  0
  196.3260  176.8370  142.2030 O   0  0  0  0  0  0  0  0  0  0  0  0
  196.6330  176.5670  143.3530 C   0  0  0  0  0  3  0  0  0  0  0  0
  1 11  1  0  0  0  0
  2  4  1  0  0  0  0
  2  9  1  0  0  0  0
  3  1  2  0  0  0  0
  3 17  1  0  0  0  0
  5 13  1  0  0  0  0
  6  5  1  6  0  0  0
  7 27  1  1  0  0  0
  8 16  1  1  0  0  0
  8 12  1  0  0  0  0
  8 14  1  0  0  0  0
 11  7  1  0  0  0  0
 11  4  2  0  0  0  0
 12  3  1  0  0  0  0
 13 18  1  1  0  0  0
 13  7  1  0  0  0  0
 14  6  1  0  0  0  0
 14  1  1  1  0  0  0
 15 10  1  0  0  0  0
 15  6  1  0  0  0  0
 16 15  1  0  0  0  0
 17  2  2  0  0  0  0
 20 23  1  0  0  0  0
 20 22  1  0  0  0  0
 21 19  1  0  0  0  0
 22 18  1  1  0  0  0
 22 19  1  0  0  0  0
 23 24  1  0  0  0  0
 24 26  1  1  0  0  0
 24 21  1  0  0  0  0
 26 25  3  0  0  0  0
 29 27  1  6  0  0  0
 29 30  1  0  0  0  0
 29 31  1  0  0  0  0
 29 28  1  0  0  0  0
 31 30  1  1  0  0  0
 31 28  1  0  0  0  0
 32 27  1  0  0  0  0
 34 33  1  6  0  0  0
 34 35  1  0  0  0  0
 34 32  1  0  0  0  0
 36 37  1  1  0  0  0
 36 35  1  0  0  0  0
 38 39  2  0  0  0  0
 39 36  1  0  0  0  0
M  END
>  <MODEL>
3

>  <REMARK>
 VINA RESULT:      -6.2      2.408      6.715
  Name = 
  10 active torsions:
  status: ('A' for Active; 'I' for Inactive)
    1  A    between atoms: C_1  and  C_13
    2  A    between atoms: C_1  and  C_33
    3  A    between atoms: C_6  and  N_11
    4  A    between atoms: C_8  and  C_17
    5  A    between atoms: C_8  and  C_37
    6  A    between atoms: N_11  and  C_14
    7  A    between atoms: N_11  and  C_19
    8  A    between atoms: C_14  and  C_37
    9  A    between atoms: C_17  and  C_32
   10  A    between atoms: C_23  and  C_35
                            x       y       z     vdW  Elec       q    Type
                         _______ _______ _______ _____ _____    ______ ____

>  <TORSDO>
F 10

$$$$
=
 OpenBabel11042414553D

 39 45  0  0  1  0  0  0  0  0999 V2000
  193.7690  174.1040  143.3780 C   0  0  0  0  0  0  0  0  0  0  0  0
  194.1910  174.6130  140.6990 C   0  0  0  0  0  0  0  0  0  0  0  0
  195.0530  174.1730  142.8940 C   0  0  0  0  0  0  0  0  0  0  0  0
  192.8830  174.6350  141.2260 C   0  0  0  0  0  3  0  0  0  0  0  0
  191.8520  175.2930  145.7040 C   0  0  0  0  0  2  0  0  0  0  0  0
  193.3330  175.3870  145.3660 C   0  0  2  0  0  3  0  0  0  0  0  0
  191.2370  174.6160  143.1960 C   0  0  2  0  0  3  0  0  0  0  0  0
  195.2870  174.2780  145.0500 C   0  0  2  0  0  3  0  0  0  0  0  0
  194.4070  174.8770  139.2530 C   0  0  0  0  0  1  0  0  0  0  0  0
  194.3610  177.1970  146.4650 C   0  0  0  0  0  1  0  0  0  0  0  0
  192.6450  174.3980  142.5950 C   0  0  0  0  0  0  0  0  0  0  0  0
  195.9860  174.3460  143.9560 N   0  0  0  0  0  2  0  0  0  0  0  0
  191.0570  174.3780  144.7360 C   0  0  2  0  0  3  0  0  0  0  0  0
  193.8500  174.0790  144.8360 C   0  0  2  0  0  3  0  0  0  0  0  0
  194.2150  175.7520  146.4850 N   0  0  0  0  0  0  0  0  0  0  0  0
  195.4600  175.2120  146.1000 N   0  0  0  0  0  2  0  0  0  0  0  0
  195.2970  174.4400  141.5490 C   0  0  0  0  0  3  0  0  0  0  0  0
  189.5880  174.3370  145.1700 C   0  0  0  0  0  2  0  0  0  0  0  0
  188.1740  176.2310  144.7710 O   0  0  0  0  0  0  0  0  0  0  0  0
  188.4400  175.5150  147.0720 C   0  0  0  0  0  2  0  0  0  0  0  0
  188.0180  177.5810  145.1370 C   0  0  0  0  0  2  0  0  0  0  0  0
  189.0880  175.6800  145.6880 C   0  0  1  0  0  3  0  0  0  0  0  0
  187.1830  176.3780  147.2140 C   0  0  0  0  0  2  0  0  0  0  0  0
  187.3490  177.7300  146.5150 C   0  0  2  0  0  3  0  0  0  0  0  0
  185.0070  178.8770  146.2490 N   0  0  0  0  0  0  0  0  0  0  0  0
  186.0420  178.3700  146.3660 C   0  0  0  0  0  0  0  0  0  0  0  0
  190.1610  173.9330  142.4400 N   0  0  0  0  0  0  0  0  0  0  0  0
  189.3600  174.1800  140.2010 O   0  0  0  0  0  0  0  0  0  0  0  0
  189.5790  174.8320  141.4320 C   0  0  2  0  0  0  0  0  0  0  0  0
  188.3100  175.5150  141.9020 C   0  0  0  0  0  2  0  0  0  0  0  0
  188.2480  174.2700  141.0550 C   0  0  1  0  0  3  0  0  0  0  0  0
  190.6740  172.7180  141.7990 C   0  0  0  0  0  2  0  0  0  0  0  0
  189.0640  171.8070  143.2990 O   0  0  0  0  0  1  0  0  0  0  0  0
  190.1940  171.4860  142.5440 C   0  0  2  0  0  3  0  0  0  0  0  0
  191.3050  170.9970  143.4590 C   0  0  0  0  0  2  0  0  0  0  0  0
  192.5210  170.5650  142.6570 C   0  0  2  0  0  3  0  0  0  0  0  0
  192.2840  169.3210  142.0690 O   0  0  0  0  0  1  0  0  0  0  0  0
  193.5580  170.5760  144.7730 O   0  0  0  0  0  0  0  0  0  0  0  0
  193.7000  170.4690  143.5660 C   0  0  0  0  0  3  0  0  0  0  0  0
  2  4  2  0  0  0  0
  2 17  1  0  0  0  0
  3  1  1  0  0  0  0
  3 12  1  0  0  0  0
  4 11  1  0  0  0  0
  6  5  1  1  0  0  0
  6 15  1  0  0  0  0
  7 27  1  6  0  0  0
  7 13  1  0  0  0  0
  8 12  1  6  0  0  0
  8 16  1  0  0  0  0
  9  2  1  0  0  0  0
 10 15  1  0  0  0  0
 11  7  1  0  0  0  0
 11  1  2  0  0  0  0
 13 18  1  1  0  0  0
 13  5  1  0  0  0  0
 14  1  1  6  0  0  0
 14  8  1  0  0  0  0
 14  6  1  0  0  0  0
 16 15  1  0  0  0  0
 17  3  2  0  0  0  0
 19 21  1  0  0  0  0
 19 22  1  0  0  0  0
 20 23  1  0  0  0  0
 21 24  1  0  0  0  0
 22 18  1  6  0  0  0
 22 20  1  0  0  0  0
 24 26  1  6  0  0  0
 24 23  1  0  0  0  0
 25 26  3  0  0  0  0
 28 31  1  0  0  0  0
 28 29  1  0  0  0  0
 29 30  1  0  0  0  0
 29 27  1  1  0  0  0
 31 29  1  0  0  0  0
 31 30  1  6  0  0  0
 32 27  1  0  0  0  0
 32 34  1  0  0  0  0
 34 33  1  1  0  0  0
 34 35  1  0  0  0  0
 36 37  1  1  0  0  0
 36 35  1  0  0  0  0
 36 39  1  0  0  0  0
 39 38  2  0  0  0  0
M  END
>  <MODEL>
4

>  <REMARK>
 VINA RESULT:      -6.0      2.211      6.499
  Name = 
  10 active torsions:
  status: ('A' for Active; 'I' for Inactive)
    1  A    between atoms: C_1  and  C_13
    2  A    between atoms: C_1  and  C_33
    3  A    between atoms: C_6  and  N_11
    4  A    between atoms: C_8  and  C_17
    5  A    between atoms: C_8  and  C_37
    6  A    between atoms: N_11  and  C_14
    7  A    between atoms: N_11  and  C_19
    8  A    between atoms: C_14  and  C_37
    9  A    between atoms: C_17  and  C_32
   10  A    between atoms: C_23  and  C_35
                            x       y       z     vdW  Elec       q    Type
                         _______ _______ _______ _____ _____    ______ ____

>  <TORSDO>
F 10

$$$$
=
 OpenBabel11042414553D

 39 45  0  0  1  0  0  0  0  0999 V2000
  188.1080  176.0400  144.5020 C   0  0  0  0  0  0  0  0  0  0  0  0
  189.3830  177.2870  146.6070 C   0  0  0  0  0  0  0  0  0  0  0  0
  187.3670  176.7220  145.4370 C   0  0  0  0  0  0  0  0  0  0  0  0
  190.1370  176.6660  145.5910 C   0  0  0  0  0  3  0  0  0  0  0  0
  188.5810  175.7940  141.3060 C   0  0  0  0  0  2  0  0  0  0  0  0
  187.6050  176.5410  142.2030 C   0  0  2  0  0  3  0  0  0  0  0  0
  190.3430  175.5380  143.2940 C   0  0  2  0  0  3  0  0  0  0  0  0
  185.9890  176.4010  143.7900 C   0  0  2  0  0  3  0  0  0  0  0  0
  190.0780  177.9460  147.7430 C   0  0  0  0  0  1  0  0  0  0  0  0
  186.5390  178.2970  141.0530 C   0  0  0  0  0  1  0  0  0  0  0  0
  189.5090  176.0400  144.4950 C   0  0  0  0  0  0  0  0  0  0  0  0
  186.0600  176.9940  144.9440 N   0  0  0  0  0  2  0  0  0  0  0  0
  189.5720  174.8940  142.0900 C   0  0  2  0  0  3  0  0  0  0  0  0
  187.2190  175.7080  143.3930 C   0  0  2  0  0  3  0  0  0  0  0  0
  186.3450  176.9510  141.5650 N   0  0  0  0  0  0  0  0  0  0  0  0
  185.4530  177.0530  142.6530 N   0  0  0  0  0  2  0  0  0  0  0  0
  187.9840  177.3700  146.5040 C   0  0  0  0  0  3  0  0  0  0  0  0
  190.4960  174.1760  141.1000 C   0  0  0  0  0  2  0  0  0  0  0  0
  190.7400  173.8000  138.7460 O   0  0  0  0  0  0  0  0  0  0  0  0
  189.0800  172.4720  139.9110 C   0  0  0  0  0  2  0  0  0  0  0  0
  189.9980  173.8040  137.5500 C   0  0  0  0  0  2  0  0  0  0  0  0
  189.7990  173.8250  139.7910 C   0  0  1  0  0  3  0  0  0  0  0  0
  189.2270  171.6390  138.6340 C   0  0  0  0  0  2  0  0  0  0  0  0
  189.1710  172.5170  137.3820 C   0  0  2  0  0  3  0  0  0  0  0  0
  190.0440  171.1620  135.3150 N   0  0  0  0  0  0  0  0  0  0  0  0
  189.6580  171.7610  136.2280 C   0  0  0  0  0  0  0  0  0  0  0  0
  191.4890  174.6840  143.6880 N   0  0  0  0  0  0  0  0  0  0  0  0
  193.4280  174.8810  145.0730 O   0  0  0  0  0  0  0  0  0  0  0  0
  192.6430  175.5060  144.0810 C   0  0  2  0  0  0  0  0  0  0  0  0
  193.5070  175.9240  142.9080 C   0  0  0  0  0  2  0  0  0  0  0  0
  193.8730  174.7270  143.7490 C   0  0  1  0  0  3  0  0  0  0  0  0
  191.1080  173.7870  144.7840 C   0  0  0  0  0  2  0  0  0  0  0  0
  189.6490  171.9190  145.0130 O   0  0  0  0  0  1  0  0  0  0  0  0
  190.6880  172.4350  144.2370 C   0  0  2  0  0  3  0  0  0  0  0  0
  191.8810  171.4930  144.2780 C   0  0  0  0  0  2  0  0  0  0  0  0
  192.1710  170.9210  142.9000 C   0  0  2  0  0  3  0  0  0  0  0  0
  192.8770  171.8540  142.1380 O   0  0  0  0  0  1  0  0  0  0  0  0
  190.7170  169.5040  141.7050 O   0  0  0  0  0  0  0  0  0  0  0  0
  190.8840  170.5970  142.2210 C   0  0  0  0  0  3  0  0  0  0  0  0
  1  3  1  0  0  0  0
  2  9  1  0  0  0  0
  3 17  2  0  0  0  0
  4  2  2  0  0  0  0
  5 13  1  0  0  0  0
  6  5  1  6  0  0  0
  6 14  1  0  0  0  0
  7 27  1  1  0  0  0
  7 11  1  0  0  0  0
  8 16  1  6  0  0  0
  8 12  1  0  0  0  0
 10 15  1  0  0  0  0
 11  1  2  0  0  0  0
 11  4  1  0  0  0  0
 12  3  1  0  0  0  0
 13 18  1  6  0  0  0
 13  7  1  0  0  0  0
 14  8  1  0  0  0  0
 14  1  1  1  0  0  0
 15  6  1  0  0  0  0
 15 16  1  0  0  0  0
 17  2  1  0  0  0  0
 19 22  1  0  0  0  0
 21 19  1  0  0  0  0
 22 20  1  0  0  0  0
 22 18  1  1  0  0  0
 23 20  1  0  0  0  0
 24 26  1  6  0  0  0
 24 21  1  0  0  0  0
 24 23  1  0  0  0  0
 25 26  3  0  0  0  0
 27 32  1  0  0  0  0
 29 27  1  6  0  0  0
 29 28  1  0  0  0  0
 30 29  1  0  0  0  0
 31 30  1  1  0  0  0
 31 29  1  0  0  0  0
 31 28  1  0  0  0  0
 34 35  1  0  0  0  0
 34 32  1  0  0  0  0
 34 33  1  1  0  0  0
 36 37  1  6  0  0  0
 36 35  1  0  0  0  0
 38 39  2  0  0  0  0
 39 36  1  0  0  0  0
M  END
>  <MODEL>
5

>  <REMARK>
 VINA RESULT:      -5.7      2.867      6.110
  Name = 
  10 active torsions:
  status: ('A' for Active; 'I' for Inactive)
    1  A    between atoms: C_1  and  C_13
    2  A    between atoms: C_1  and  C_33
    3  A    between atoms: C_6  and  N_11
    4  A    between atoms: C_8  and  C_17
    5  A    between atoms: C_8  and  C_37
    6  A    between atoms: N_11  and  C_14
    7  A    between atoms: N_11  and  C_19
    8  A    between atoms: C_14  and  C_37
    9  A    between atoms: C_17  and  C_32
   10  A    between atoms: C_23  and  C_35
                            x       y       z     vdW  Elec       q    Type
                         _______ _______ _______ _____ _____    ______ ____

>  <TORSDO>
F 10

$$$$
=
 OpenBabel11042414553D

 39 45  0  0  1  0  0  0  0  0999 V2000
  192.0170  175.6300  145.3870 C   0  0  0  0  0  0  0  0  0  0  0  0
  189.8100  174.9200  146.8810 C   0  0  0  0  0  0  0  0  0  0  0  0
  192.0140  175.8550  146.7420 C   0  0  0  0  0  0  0  0  0  0  0  0
  189.8650  174.6070  145.5070 C   0  0  0  0  0  3  0  0  0  0  0  0
  193.7760  174.2660  143.0320 C   0  0  0  0  0  2  0  0  0  0  0  0
  193.9770  174.5400  144.5150 C   0  0  2  0  0  3  0  0  0  0  0  0
  191.1230  174.4230  143.2780 C   0  0  2  0  0  3  0  0  0  0  0  0
  194.0930  176.0940  146.1650 C   0  0  2  0  0  3  0  0  0  0  0  0
  188.6110  174.5440  147.6750 C   0  0  0  0  0  1  0  0  0  0  0  0
  195.7220  173.2370  145.4100 C   0  0  0  0  0  1  0  0  0  0  0  0
  190.9900  174.9420  144.7280 C   0  0  0  0  0  0  0  0  0  0  0  0
  193.3350  176.0810  147.2210 N   0  0  0  0  0  2  0  0  0  0  0  0
  192.4250  174.7960  142.4860 C   0  0  2  0  0  3  0  0  0  0  0  0
  193.3770  175.8610  144.9070 C   0  0  2  0  0  3  0  0  0  0  0  0
  195.3760  174.5770  144.9680 N   0  0  0  0  0  0  0  0  0  0  0  0
  195.3180  175.3850  146.1230 N   0  0  0  0  0  2  0  0  0  0  0  0
  190.9180  175.4970  147.5240 C   0  0  0  0  0  3  0  0  0  0  0  0
  192.3270  174.4870  140.9890 C   0  0  0  0  0  2  0  0  0  0  0  0
  193.4980  172.9980  139.5210 O   0  0  0  0  0  0  0  0  0  0  0  0
  194.2760  175.2910  139.6180 C   0  0  0  0  0  2  0  0  0  0  0  0
  194.7890  172.4980  139.2640 C   0  0  0  0  0  2  0  0  0  0  0  0
  193.6680  174.1000  140.3770 C   0  0  1  0  0  3  0  0  0  0  0  0
  194.9400  174.8490  138.3110 C   0  0  0  0  0  2  0  0  0  0  0  0
  195.6450  173.5000  138.4690 C   0  0  2  0  0  3  0  0  0  0  0  0
  196.2020  172.5140  136.1050 N   0  0  0  0  0  0  0  0  0  0  0  0
  195.9560  172.9490  137.1490 C   0  0  0  0  0  0  0  0  0  0  0  0
  189.9230  174.6820  142.4470 N   0  0  0  0  0  0  0  0  0  0  0  0
  187.7280  173.8330  142.0260 O   0  0  0  0  0  0  0  0  0  0  0  0
  189.0430  173.5050  142.4180 C   0  0  2  0  0  0  0  0  0  0  0  0
  189.5830  172.3740  141.5650 C   0  0  0  0  0  2  0  0  0  0  0  0
  188.5680  173.3420  141.0120 C   0  0  1  0  0  3  0  0  0  0  0  0
  189.1920  175.8500  142.9500 C   0  0  0  0  0  2  0  0  0  0  0  0
  190.5410  177.8040  142.7700 O   0  0  0  0  0  1  0  0  0  0  0  0
  189.5350  177.0800  142.1290 C   0  0  2  0  0  3  0  0  0  0  0  0
  188.2900  177.9400  141.9850 C   0  0  0  0  0  2  0  0  0  0  0  0
  187.1250  177.1280  141.4440 C   0  0  2  0  0  3  0  0  0  0  0  0
  186.8550  177.5050  140.1270 O   0  0  0  0  0  1  0  0  0  0  0  0
  185.6030  176.5770  143.1550 O   0  0  0  0  0  0  0  0  0  0  0  0
  185.9210  177.3740  142.2880 C   0  0  0  0  0  3  0  0  0  0  0  0
  1  3  1  0  0  0  0
  2 17  1  0  0  0  0
  2  9  1  0  0  0  0
  3 12  1  0  0  0  0
  3 17  2  0  0  0  0
  4  2  2  0  0  0  0
  6  5  1  6  0  0  0
  6 14  1  0  0  0  0
  6 15  1  0  0  0  0
  7 27  1  6  0  0  0
  7 11  1  0  0  0  0
  8 16  1  1  0  0  0
  8 12  1  0  0  0  0
 11  1  2  0  0  0  0
 11  4  1  0  0  0  0
 13 18  1  6  0  0  0
 13  5  1  0  0  0  0
 13  7  1  0  0  0  0
 14  1  1  1  0  0  0
 14  8  1  0  0  0  0
 15 10  1  0  0  0  0
 15 16  1  0  0  0  0
 19 22  1  0  0  0  0
 20 22  1  0  0  0  0
 21 19  1  0  0  0  0
 22 18  1  6  0  0  0
 23 24  1  0  0  0  0
 23 20  1  0  0  0  0
 24 26  1  6  0  0  0
 24 21  1  0  0  0  0
 25 26  3  0  0  0  0
 27 32  1  0  0  0  0
 28 29  1  0  0  0  0
 29 27  1  1  0  0  0
 30 29  1  0  0  0  0
 31 30  1  1  0  0  0
 31 28  1  0  0  0  0
 31 29  1  0  0  0  0
 34 33  1  1  0  0  0
 34 32  1  0  0  0  0
 35 34  1  0  0  0  0
 36 37  1  6  0  0  0
 36 35  1  0  0  0  0
 36 39  1  0  0  0  0
 39 38  2  0  0  0  0
M  END
>  <MODEL>
6

>  <REMARK>
 VINA RESULT:      -5.6      3.016      7.065
  Name = 
  10 active torsions:
  status: ('A' for Active; 'I' for Inactive)
    1  A    between atoms: C_1  and  C_13
    2  A    between atoms: C_1  and  C_33
    3  A    between atoms: C_6  and  N_11
    4  A    between atoms: C_8  and  C_17
    5  A    between atoms: C_8  and  C_37
    6  A    between atoms: N_11  and  C_14
    7  A    between atoms: N_11  and  C_19
    8  A    between atoms: C_14  and  C_37
    9  A    between atoms: C_17  and  C_32
   10  A    between atoms: C_23  and  C_35
                            x       y       z     vdW  Elec       q    Type
                         _______ _______ _______ _____ _____    ______ ____

>  <TORSDO>
F 10

$$$$
=
 OpenBabel11042414553D

 39 45  0  0  1  0  0  0  0  0999 V2000
  194.3480  174.0330  144.5540 C   0  0  0  0  0  0  0  0  0  0  0  0
  195.1970  171.5110  145.2810 C   0  0  0  0  0  0  0  0  0  0  0  0
  195.4440  173.8950  145.3710 C   0  0  0  0  0  0  0  0  0  0  0  0
  194.1330  171.6630  144.3680 C   0  0  0  0  0  3  0  0  0  0  0  0
  193.3690  175.4660  141.8170 C   0  0  0  0  0  2  0  0  0  0  0  0
  194.6250  175.5100  142.6760 C   0  0  2  0  0  3  0  0  0  0  0  0
  192.6660  173.0940  142.8220 C   0  0  2  0  0  3  0  0  0  0  0  0
  195.5260  175.9610  144.7090 C   0  0  2  0  0  3  0  0  0  0  0  0
  195.6400  170.1480  145.6750 C   0  0  0  0  0  1  0  0  0  0  0  0
  196.4510  176.4160  141.4970 C   0  0  0  0  0  1  0  0  0  0  0  0
  193.6950  172.9410  143.9660 C   0  0  0  0  0  0  0  0  0  0  0  0
  196.2050  175.0970  145.4040 N   0  0  0  0  0  2  0  0  0  0  0  0
  192.2600  174.5490  142.3970 C   0  0  2  0  0  3  0  0  0  0  0  0
  194.2840  175.4310  144.1380 C   0  0  2  0  0  3  0  0  0  0  0  0
  195.4580  176.7120  142.5160 N   0  0  0  0  0  0  0  0  0  0  0  0
  196.1470  176.7900  143.7440 N   0  0  0  0  0  2  0  0  0  0  0  0
  195.9020  172.6340  145.7450 C   0  0  0  0  0  3  0  0  0  0  0  0
  191.0380  174.5860  141.4730 C   0  0  0  0  0  2  0  0  0  0  0  0
  189.9390  176.5090  142.3860 O   0  0  0  0  0  0  0  0  0  0  0  0
  188.5420  174.8410  141.3180 C   0  0  0  0  0  2  0  0  0  0  0  0
  188.9300  176.8670  143.3010 C   0  0  0  0  0  2  0  0  0  0  0  0
  189.7930  175.1280  142.1630 C   0  0  1  0  0  3  0  0  0  0  0  0
  187.5690  176.0240  141.3290 C   0  0  0  0  0  2  0  0  0  0  0  0
  187.5230  176.7000  142.7010 C   0  0  2  0  0  3  0  0  0  0  0  0
  186.3610  179.0400  142.4930 N   0  0  0  0  0  0  0  0  0  0  0  0
  186.8740  178.0070  142.5850 C   0  0  0  0  0  0  0  0  0  0  0  0
  191.4590  172.2540  142.9990 N   0  0  0  0  0  0  0  0  0  0  0  0
  190.4420  170.1780  142.3860 O   0  0  0  0  0  0  0  0  0  0  0  0
  191.5690  171.0100  142.2220 C   0  0  2  0  0  0  0  0  0  0  0  0
  191.8420  171.2470  140.7500 C   0  0  0  0  0  2  0  0  0  0  0  0
  190.4400  170.9980  141.2450 C   0  0  1  0  0  3  0  0  0  0  0  0
  191.2490  171.9480  144.4180 C   0  0  0  0  0  2  0  0  0  0  0  0
  189.0260  172.6560  143.9390 O   0  0  0  0  0  1  0  0  0  0  0  0
  190.0080  172.6550  144.9310 C   0  0  2  0  0  3  0  0  0  0  0  0
  190.3710  174.0840  145.3010 C   0  0  0  0  0  2  0  0  0  0  0  0
  189.6900  174.5030  146.5940 C   0  0  2  0  0  3  0  0  0  0  0  0
  188.5690  175.2850  146.3080 O   0  0  0  0  0  1  0  0  0  0  0  0
  191.8500  175.1860  147.2400 O   0  0  0  0  0  0  0  0  0  0  0  0
  190.6490  175.2910  147.4210 C   0  0  0  0  0  3  0  0  0  0  0  0
  1  3  1  0  0  0  0
  2  9  1  0  0  0  0
  2 17  1  0  0  0  0
  3 12  1  0  0  0  0
  3 17  2  0  0  0  0
  4  2  2  0  0  0  0
  5 13  1  0  0  0  0
  6  5  1  6  0  0  0
  6 14  1  0  0  0  0
  7 27  1  1  0  0  0
  7 11  1  0  0  0  0
  8 16  1  6  0  0  0
  8 12  1  0  0  0  0
 10 15  1  0  0  0  0
 11  4  1  0  0  0  0
 11  1  2  0  0  0  0
 13 18  1  6  0  0  0
 13  7  1  0  0  0  0
 14  1  1  1  0  0  0
 14  8  1  0  0  0  0
 15  6  1  0  0  0  0
 15 16  1  0  0  0  0
 19 21  1  0  0  0  0
 20 23  1  0  0  0  0
 20 22  1  0  0  0  0
 22 18  1  6  0  0  0
 22 19  1  0  0  0  0
 23 24  1  0  0  0  0
 24 26  1  6  0  0  0
 24 21  1  0  0  0  0
 25 26  3  0  0  0  0
 27 32  1  0  0  0  0
 29 28  1  0  0  0  0
 29 27  1  1  0  0  0
 30 29  1  0  0  0  0
 31 30  1  6  0  0  0
 31 29  1  0  0  0  0
 31 28  1  0  0  0  0
 32 34  1  0  0  0  0
 34 33  1  6  0  0  0
 34 35  1  0  0  0  0
 35 36  1  0  0  0  0
 36 37  1  6  0  0  0
 36 39  1  0  0  0  0
 38 39  2  0  0  0  0
M  END
>  <MODEL>
7

>  <REMARK>
 VINA RESULT:      -5.5      2.372      7.639
  Name = 
  10 active torsions:
  status: ('A' for Active; 'I' for Inactive)
    1  A    between atoms: C_1  and  C_13
    2  A    between atoms: C_1  and  C_33
    3  A    between atoms: C_6  and  N_11
    4  A    between atoms: C_8  and  C_17
    5  A    between atoms: C_8  and  C_37
    6  A    between atoms: N_11  and  C_14
    7  A    between atoms: N_11  and  C_19
    8  A    between atoms: C_14  and  C_37
    9  A    between atoms: C_17  and  C_32
   10  A    between atoms: C_23  and  C_35
                            x       y       z     vdW  Elec       q    Type
                         _______ _______ _______ _____ _____    ______ ____

>  <TORSDO>
F 10

$$$$
=
 OpenBabel11042414553D

 39 45  0  0  1  0  0  0  0  0999 V2000
  190.0660  175.7350  145.2200 C   0  0  0  0  0  0  0  0  0  0  0  0
  191.0350  176.8100  147.5690 C   0  0  0  0  0  0  0  0  0  0  0  0
  189.1880  176.2240  146.1560 C   0  0  0  0  0  0  0  0  0  0  0  0
  191.9280  176.3920  146.5610 C   0  0  0  0  0  3  0  0  0  0  0  0
  190.8210  175.9400  142.0760 C   0  0  0  0  0  2  0  0  0  0  0  0
  189.7060  176.4780  142.9610 C   0  0  2  0  0  3  0  0  0  0  0  0
  192.4310  175.5880  144.1760 C   0  0  2  0  0  3  0  0  0  0  0  0
  187.9870  175.9970  144.3610 C   0  0  2  0  0  3  0  0  0  0  0  0
  191.5660  177.3780  148.8350 C   0  0  0  0  0  1  0  0  0  0  0  0
  188.5700  178.2660  141.9340 C   0  0  0  0  0  1  0  0  0  0  0  0
  191.4560  175.8590  145.3440 C   0  0  0  0  0  0  0  0  0  0  0  0
  187.9040  176.4420  145.5800 N   0  0  0  0  0  2  0  0  0  0  0  0
  191.8280  175.0380  142.8360 C   0  0  2  0  0  3  0  0  0  0  0  0
  189.3070  175.4700  144.0010 C   0  0  2  0  0  3  0  0  0  0  0  0
  188.4680  176.8540  142.2610 N   0  0  0  0  0  0  0  0  0  0  0  0
  187.4850  176.7380  143.2650 N   0  0  0  0  0  2  0  0  0  0  0  0
  189.6480  176.7830  147.3460 C   0  0  0  0  0  3  0  0  0  0  0  0
  192.8960  174.5360  141.8590 C   0  0  0  0  0  2  0  0  0  0  0  0
  191.2290  172.9230  141.2560 O   0  0  0  0  0  0  0  0  0  0  0  0
  193.3000  172.8960  139.9960 C   0  0  0  0  0  2  0  0  0  0  0  0
  191.0450  171.5350  141.1140 C   0  0  0  0  0  2  0  0  0  0  0  0
  192.6170  173.1250  141.3540 C   0  0  1  0  0  3  0  0  0  0  0  0
  192.4080  172.0930  139.0440 C   0  0  0  0  0  2  0  0  0  0  0  0
  191.6250  171.0090  139.7890 C   0  0  2  0  0  3  0  0  0  0  0  0
  189.6920  170.1120  138.2630 N   0  0  0  0  0  0  0  0  0  0  0  0
  190.5460  170.5080  138.9370 C   0  0  0  0  0  0  0  0  0  0  0  0
  193.6190  174.7950  144.5700 N   0  0  0  0  0  0  0  0  0  0  0  0
  195.4770  174.9380  146.0670 O   0  0  0  0  0  0  0  0  0  0  0  0
  194.6420  175.6540  145.1860 C   0  0  2  0  0  0  0  0  0  0  0  0
  195.4710  176.4160  144.1710 C   0  0  0  0  0  2  0  0  0  0  0  0
  195.9730  175.1260  144.7670 C   0  0  1  0  0  3  0  0  0  0  0  0
  193.2360  173.7210  145.4930 C   0  0  0  0  0  2  0  0  0  0  0  0
  192.1850  171.7840  144.5920 O   0  0  0  0  0  1  0  0  0  0  0  0
  193.4300  172.3670  144.8360 C   0  0  2  0  0  3  0  0  0  0  0  0
  194.2440  171.4790  145.7630 C   0  0  0  0  0  2  0  0  0  0  0  0
  195.7190  171.5150  145.3960 C   0  0  2  0  0  3  0  0  0  0  0  0
  195.8660  171.4090  144.0120 O   0  0  0  0  0  1  0  0  0  0  0  0
  195.8220  169.6630  146.8480 O   0  0  0  0  0  0  0  0  0  0  0  0
  196.4180  170.3780  146.0600 C   0  0  0  0  0  3  0  0  0  0  0  0
  1 11  2  0  0  0  0
  1  3  1  0  0  0  0
  2  9  1  0  0  0  0
  3 17  2  0  0  0  0
  4  2  2  0  0  0  0
  5 13  1  0  0  0  0
  6  5  1  6  0  0  0
  6 14  1  0  0  0  0
  7 27  1  1  0  0  0
  7 11  1  0  0  0  0
  8 16  1  6  0  0  0
  8 12  1  0  0  0  0
 10 15  1  0  0  0  0
 11  4  1  0  0  0  0
 12  3  1  0  0  0  0
 13 18  1  6  0  0  0
 13  7  1  0  0  0  0
 14  8  1  0  0  0  0
 14  1  1  1  0  0  0
 15  6  1  0  0  0  0
 15 16  1  0  0  0  0
 17  2  1  0  0  0  0
 19 22  1  0  0  0  0
 20 22  1  0  0  0  0
 21 19  1  0  0  0  0
 22 18  1  6  0  0  0
 23 24  1  0  0  0  0
 23 20  1  0  0  0  0
 24 26  1  6  0  0  0
 24 21  1  0  0  0  0
 25 26  3  0  0  0  0
 27 32  1  0  0  0  0
 29 27  1  6  0  0  0
 29 28  1  0  0  0  0
 30 29  1  0  0  0  0
 31 30  1  1  0  0  0
 31 29  1  0  0  0  0
 31 28  1  0  0  0  0
 34 33  1  1  0  0  0
 34 32  1  0  0  0  0
 34 35  1  0  0  0  0
 36 37  1  6  0  0  0
 36 35  1  0  0  0  0
 36 39  1  0  0  0  0
 39 38  2  0  0  0  0
M  END
>  <MODEL>
8

>  <REMARK>
 VINA RESULT:      -5.4      2.817      6.350
  Name = 
  10 active torsions:
  status: ('A' for Active; 'I' for Inactive)
    1  A    between atoms: C_1  and  C_13
    2  A    between atoms: C_1  and  C_33
    3  A    between atoms: C_6  and  N_11
    4  A    between atoms: C_8  and  C_17
    5  A    between atoms: C_8  and  C_37
    6  A    between atoms: N_11  and  C_14
    7  A    between atoms: N_11  and  C_19
    8  A    between atoms: C_14  and  C_37
    9  A    between atoms: C_17  and  C_32
   10  A    between atoms: C_23  and  C_35
                            x       y       z     vdW  Elec       q    Type
                         _______ _______ _______ _____ _____    ______ ____

>  <TORSDO>
F 10

$$$$
=
 OpenBabel11042414553D

 39 45  0  0  1  0  0  0  0  0999 V2000
  193.8180  174.1200  143.2050 C   0  0  0  0  0  0  0  0  0  0  0  0
  194.0010  174.5630  140.4890 C   0  0  0  0  0  0  0  0  0  0  0  0
  195.0550  174.2280  142.6170 C   0  0  0  0  0  0  0  0  0  0  0  0
  192.7400  174.5450  141.1190 C   0  0  0  0  0  3  0  0  0  0  0  0
  192.0410  175.2980  145.6460 C   0  0  0  0  0  2  0  0  0  0  0  0
  193.4850  175.4440  145.1860 C   0  0  2  0  0  3  0  0  0  0  0  0
  191.2590  174.5180  143.2160 C   0  0  2  0  0  3  0  0  0  0  0  0
  195.4550  174.4100  144.7430 C   0  0  2  0  0  3  0  0  0  0  0  0
  194.0880  174.7910  139.0230 C   0  0  0  0  0  1  0  0  0  0  0  0
  194.5150  177.3300  146.1480 C   0  0  0  0  0  1  0  0  0  0  0  0
  192.6220  174.3410  142.5090 C   0  0  0  0  0  0  0  0  0  0  0  0
  196.0600  174.4740  143.5940 N   0  0  0  0  0  2  0  0  0  0  0  0
  191.2140  174.3200  144.7720 C   0  0  2  0  0  3  0  0  0  0  0  0
  194.0160  174.1440  144.6520 C   0  0  2  0  0  3  0  0  0  0  0  0
  194.4360  175.8810  146.2190 N   0  0  0  0  0  0  0  0  0  0  0  0
  195.6700  175.3820  145.7490 N   0  0  0  0  0  2  0  0  0  0  0  0
  195.1780  174.4630  141.2500 C   0  0  0  0  0  3  0  0  0  0  0  0
  189.7870  174.2300  145.3240 C   0  0  0  0  0  2  0  0  0  0  0  0
  188.4900  176.2250  145.0430 O   0  0  0  0  0  0  0  0  0  0  0  0
  188.5660  175.2610  147.2660 C   0  0  0  0  0  2  0  0  0  0  0  0
  188.3700  177.5360  145.5420 C   0  0  0  0  0  2  0  0  0  0  0  0
  189.3140  175.5360  145.9510 C   0  0  1  0  0  3  0  0  0  0  0  0
  187.3420  176.1680  147.4190 C   0  0  0  0  0  2  0  0  0  0  0  0
  187.6150  177.5750  146.8820 C   0  0  2  0  0  3  0  0  0  0  0  0
  185.3510  178.8640  146.5930 N   0  0  0  0  0  0  0  0  0  0  0  0
  186.3510  178.2950  146.7210 C   0  0  0  0  0  0  0  0  0  0  0  0
  190.1580  173.7660  142.5690 N   0  0  0  0  0  0  0  0  0  0  0  0
  188.8320  171.8190  142.9760 O   0  0  0  0  0  0  0  0  0  0  0  0
  190.1270  172.3740  143.0400 C   0  0  2  0  0  0  0  0  0  0  0  0
  191.1230  171.4790  142.3290 C   0  0  0  0  0  2  0  0  0  0  0  0
  189.6800  171.5280  141.8940 C   0  0  1  0  0  3  0  0  0  0  0  0
  188.8690  174.4180  142.8270 C   0  0  0  0  0  2  0  0  0  0  0  0
  189.0160  174.5440  140.4540 O   0  0  0  0  0  1  0  0  0  0  0  0
  188.3420  175.0640  141.5590 C   0  0  2  0  0  3  0  0  0  0  0  0
  188.5630  176.5650  141.6400 C   0  0  0  0  0  2  0  0  0  0  0  0
  187.2390  177.3100  141.6960 C   0  0  2  0  0  3  0  0  0  0  0  0
  186.3360  176.6120  142.5010 O   0  0  0  0  0  1  0  0  0  0  0  0
  185.5750  177.9030  140.1380 O   0  0  0  0  0  0  0  0  0  0  0  0
  186.6850  177.4310  140.3170 C   0  0  0  0  0  3  0  0  0  0  0  0
  2  4  2  0  0  0  0
  2 17  1  0  0  0  0
  3  1  1  0  0  0  0
  3 12  1  0  0  0  0
  4 11  1  0  0  0  0
  6  5  1  1  0  0  0
  6 15  1  0  0  0  0
  7 27  1  6  0  0  0
  7 13  1  0  0  0  0
  8 12  1  6  0  0  0
  8 16  1  0  0  0  0
  9  2  1  0  0  0  0
 10 15  1  0  0  0  0
 11  1  2  0  0  0  0
 11  7  1  0  0  0  0
 13 18  1  1  0  0  0
 13  5  1  0  0  0  0
 14  1  1  6  0  0  0
 14  8  1  0  0  0  0
 14  6  1  0  0  0  0
 16 15  1  0  0  0  0
 17  3  2  0  0  0  0
 19 21  1  0  0  0  0
 19 22  1  0  0  0  0
 20 23  1  0  0  0  0
 21 24  1  0  0  0  0
 22 18  1  6  0  0  0
 22 20  1  0  0  0  0
 24 26  1  6  0  0  0
 24 23  1  0  0  0  0
 25 26  3  0  0  0  0
 27 32  1  0  0  0  0
 28 29  1  0  0  0  0
 29 27  1  6  0  0  0
 30 29  1  0  0  0  0
 31 30  1  1  0  0  0
 31 28  1  0  0  0  0
 31 29  1  0  0  0  0
 34 33  1  6  0  0  0
 34 35  1  0  0  0  0
 34 32  1  0  0  0  0
 35 36  1  0  0  0  0
 36 37  1  1  0  0  0
 38 39  2  0  0  0  0
 39 36  1  0  0  0  0
M  END
>  <MODEL>
9

>  <REMARK>
 VINA RESULT:      -5.4      2.167      6.737
  Name = 
  10 active torsions:
  status: ('A' for Active; 'I' for Inactive)
    1  A    between atoms: C_1  and  C_13
    2  A    between atoms: C_1  and  C_33
    3  A    between atoms: C_6  and  N_11
    4  A    between atoms: C_8  and  C_17
    5  A    between atoms: C_8  and  C_37
    6  A    between atoms: N_11  and  C_14
    7  A    between atoms: N_11  and  C_19
    8  A    between atoms: C_14  and  C_37
    9  A    between atoms: C_17  and  C_32
   10  A    between atoms: C_23  and  C_35
                            x       y       z     vdW  Elec       q    Type
                         _______ _______ _______ _____ _____    ______ ____

>  <TORSDO>
F 10

$$$$
