=
 OpenBabel11042418543D

 27 30  0  0  1  0  0  0  0  0999 V2000
  189.7250  176.0970  143.9950 C   0  0  1  0  0  3  0  0  0  0  0  0
  189.8190  172.2770  143.8210 C   0  0  0  0  0  3  0  0  0  0  0  0
  189.8000  174.6800  143.4700 C   0  0  0  0  0  0  0  0  0  0  0  0
  189.9610  172.0680  142.4470 C   0  0  0  0  0  0  0  0  0  0  0  0
  189.9430  174.4710  142.0950 C   0  0  0  0  0  3  0  0  0  0  0  0
  189.7390  173.5740  144.3320 C   0  0  0  0  0  3  0  0  0  0  0  0
  190.0230  173.1740  141.5840 C   0  0  0  0  0  3  0  0  0  0  0  0
  191.2460  170.0070  141.9740 C   0  0  0  0  0  1  0  0  0  0  0  0
  190.0390  170.7570  141.9660 O   0  0  0  0  0  0  0  0  0  0  0  0
  191.5750  177.5870  143.9980 C   0  0  0  0  0  1  0  0  0  0  0  0
  190.9030  176.5430  144.7620 N   0  0  0  0  0  0  0  0  0  0  0  0
  189.6580  176.1150  146.8180 C   0  0  0  0  0  2  0  0  0  0  0  0
  191.2660  177.0270  148.3740 N   0  0  0  0  0  1  0  0  0  0  0  0
  191.1230  176.2280  147.1710 C   0  0  2  0  0  3  0  0  0  0  0  0
  190.5400  177.0950  146.0680 C   0  0  1  0  0  3  0  0  0  0  0  0
  189.3330  177.1220  142.9290 C   0  0  0  0  0  2  0  0  0  0  0  0
  185.8340  177.5790  141.6920 N   0  0  0  0  0  0  0  0  0  0  0  0
  187.1310  177.3570  141.9200 N   0  0  0  0  0  0  0  0  0  0  0  0
  183.5390  178.1380  141.9380 N   0  0  0  0  0  1  0  0  0  0  0  0
  187.4570  177.8980  144.2910 C   0  0  0  0  0  3  0  0  0  0  0  0
  184.4700  178.9450  145.8610 C   0  0  0  0  0  3  0  0  0  0  0  0
  186.1850  178.2650  144.6520 C   0  0  0  0  0  0  0  0  0  0  0  0
  187.8900  177.4860  143.0400 C   0  0  0  0  0  0  0  0  0  0  0  0
  183.9730  178.7350  144.6230 N   0  0  0  0  0  0  0  0  0  0  0  0
  184.8370  178.0040  142.5070 C   0  0  0  0  0  0  0  0  0  0  0  0
  184.9920  178.3170  143.8510 C   0  0  0  0  0  0  0  0  0  0  0  0
  185.8270  178.6670  145.9190 C   0  0  0  0  0  3  0  0  0  0  0  0
  1 16  1  6  0  0  0
  1 11  1  0  0  0  0
  2  6  1  0  0  0  0
  3  1  1  0  0  0  0
  3  6  2  0  0  0  0
  4  2  2  0  0  0  0
  5  3  1  0  0  0  0
  7  5  2  0  0  0  0
  7  4  1  0  0  0  0
  9  8  1  0  0  0  0
  9  4  1  0  0  0  0
 10 11  1  0  0  0  0
 12 14  1  0  0  0  0
 14 13  1  1  0  0  0
 15 11  1  6  0  0  0
 15 12  1  0  0  0  0
 15 14  1  0  0  0  0
 16 23  1  0  0  0  0
 17 18  2  0  0  0  0
 17 25  1  0  0  0  0
 18 23  1  0  0  0  0
 19 25  1  0  0  0  0
 20 22  1  0  0  0  0
 21 27  1  0  0  0  0
 22 27  2  0  0  0  0
 23 20  2  0  0  0  0
 24 21  2  0  0  0  0
 25 26  2  0  0  0  0
 26 24  1  0  0  0  0
 26 22  1  0  0  0  0
M  END
>  <MODEL>
1

>  <REMARK>
 VINA RESULT:      -6.7      0.000      0.000
  Name = 
  6 active torsions:
  status: ('A' for Active; 'I' for Inactive)
    1  A    between atoms: C_6  and  C_12
    2  A    between atoms: C_6  and  C_21
    3  A    between atoms: C_7  and  C_12
    4  A    between atoms: C_12  and  N_16
    5  A    between atoms: C_13  and  O_23
    6  A    between atoms: N_16  and  C_20
                            x       y       z     vdW  Elec       q    Type
                         _______ _______ _______ _____ _____    ______ ____

>  <TORSDO>
F 6

$$$$
=
 OpenBabel11042418543D

 27 30  0  0  1  0  0  0  0  0999 V2000
  190.2000  174.9950  144.3440 C   0  0  1  0  0  3  0  0  0  0  0  0
  193.7240  176.0250  143.2710 C   0  0  0  0  0  3  0  0  0  0  0  0
  191.6230  175.5080  144.3740 C   0  0  0  0  0  0  0  0  0  0  0  0
  194.2680  176.4510  144.4860 C   0  0  0  0  0  0  0  0  0  0  0  0
  192.1670  175.9330  145.5900 C   0  0  0  0  0  3  0  0  0  0  0  0
  192.4100  175.5550  143.2130 C   0  0  0  0  0  3  0  0  0  0  0  0
  193.4810  176.4030  145.6480 C   0  0  0  0  0  3  0  0  0  0  0  0
  196.5110  176.6570  143.4640 C   0  0  0  0  0  1  0  0  0  0  0  0
  195.5860  176.9160  144.5110 O   0  0  0  0  0  0  0  0  0  0  0  0
  189.7360  172.6870  144.6610 C   0  0  0  0  0  1  0  0  0  0  0  0
  190.0140  173.7040  143.6560 N   0  0  0  0  0  0  0  0  0  0  0  0
  189.1170  174.8160  141.6750 C   0  0  0  0  0  2  0  0  0  0  0  0
  188.2710  172.8530  140.5490 N   0  0  0  0  0  1  0  0  0  0  0  0
  189.3840  173.3720  141.3220 C   0  0  2  0  0  3  0  0  0  0  0  0
  188.8940  173.7330  142.7140 C   0  0  1  0  0  3  0  0  0  0  0  0
  189.5220  174.9970  145.7160 C   0  0  0  0  0  2  0  0  0  0  0  0
  186.6900  176.8610  147.2910 N   0  0  0  0  0  0  0  0  0  0  0  0
  187.7160  176.0890  146.9280 N   0  0  0  0  0  0  0  0  0  0  0  0
  184.9220  178.4480  147.3020 N   0  0  0  0  0  1  0  0  0  0  0  0
  188.1540  176.6790  144.5870 C   0  0  0  0  0  3  0  0  0  0  0  0
  185.9540  179.1710  143.3880 C   0  0  0  0  0  3  0  0  0  0  0  0
  187.1930  177.6350  144.3750 C   0  0  0  0  0  0  0  0  0  0  0  0
  188.3910  175.9690  145.7540 C   0  0  0  0  0  0  0  0  0  0  0  0
  185.4700  179.0750  144.6450 N   0  0  0  0  0  0  0  0  0  0  0  0
  185.9770  177.7910  146.6070 C   0  0  0  0  0  0  0  0  0  0  0  0
  186.2030  178.1450  145.2830 C   0  0  0  0  0  0  0  0  0  0  0  0
  187.0150  178.3010  143.1840 C   0  0  0  0  0  3  0  0  0  0  0  0
  1  3  1  0  0  0  0
  1 16  1  1  0  0  0
  2  4  1  0  0  0  0
  3  5  2  0  0  0  0
  4  9  1  0  0  0  0
  4  7  2  0  0  0  0
  5  7  1  0  0  0  0
  6  2  2  0  0  0  0
  6  3  1  0  0  0  0
  8  9  1  0  0  0  0
 11  1  1  0  0  0  0
 11 10  1  0  0  0  0
 12 15  1  0  0  0  0
 14 13  1  6  0  0  0
 14 12  1  0  0  0  0
 14 15  1  0  0  0  0
 15 11  1  1  0  0  0
 16 23  1  0  0  0  0
 18 17  1  0  0  0  0
 20 23  1  0  0  0  0
 21 24  1  0  0  0  0
 22 20  2  0  0  0  0
 22 26  1  0  0  0  0
 23 18  2  0  0  0  0
 24 26  2  0  0  0  0
 25 17  2  0  0  0  0
 25 19  1  0  0  0  0
 26 25  1  0  0  0  0
 27 21  2  0  0  0  0
 27 22  1  0  0  0  0
M  END
>  <MODEL>
2

>  <REMARK>
 VINA RESULT:      -6.6      2.938      5.019
  Name = 
  6 active torsions:
  status: ('A' for Active; 'I' for Inactive)
    1  A    between atoms: C_6  and  C_12
    2  A    between atoms: C_6  and  C_21
    3  A    between atoms: C_7  and  C_12
    4  A    between atoms: C_12  and  N_16
    5  A    between atoms: C_13  and  O_23
    6  A    between atoms: N_16  and  C_20
                            x       y       z     vdW  Elec       q    Type
                         _______ _______ _______ _____ _____    ______ ____

>  <TORSDO>
F 6

$$$$
=
 OpenBabel11042418543D

 27 30  0  0  1  0  0  0  0  0999 V2000
  190.3160  174.9350  144.1050 C   0  0  1  0  0  3  0  0  0  0  0  0
  193.4780  176.8080  145.1650 C   0  0  0  0  0  3  0  0  0  0  0  0
  191.7500  175.4130  144.1840 C   0  0  0  0  0  0  0  0  0  0  0  0
  194.4210  176.2800  144.2780 C   0  0  0  0  0  0  0  0  0  0  0  0
  192.6920  174.8850  143.2960 C   0  0  0  0  0  3  0  0  0  0  0  0
  192.1500  176.3780  145.1200 C   0  0  0  0  0  3  0  0  0  0  0  0
  194.0200  175.3150  143.3400 C   0  0  0  0  0  3  0  0  0  0  0  0
  196.6120  176.7360  143.2240 C   0  0  0  0  0  1  0  0  0  0  0  0
  195.7420  176.7310  144.3480 O   0  0  0  0  0  0  0  0  0  0  0  0
  189.7820  172.6820  144.6350 C   0  0  0  0  0  1  0  0  0  0  0  0
  190.1380  173.5820  143.5460 N   0  0  0  0  0  0  0  0  0  0  0  0
  189.2620  174.6390  141.5260 C   0  0  0  0  0  2  0  0  0  0  0  0
  188.6410  172.6260  140.3430 N   0  0  0  0  0  1  0  0  0  0  0  0
  189.6640  173.2250  141.1790 C   0  0  2  0  0  3  0  0  0  0  0  0
  189.0720  173.5300  142.5450 C   0  0  1  0  0  3  0  0  0  0  0  0
  189.5440  175.1020  145.4150 C   0  0  0  0  0  2  0  0  0  0  0  0
  187.5550  177.7280  143.6470 N   0  0  0  0  0  0  0  0  0  0  0  0
  188.3790  176.7740  144.0840 N   0  0  0  0  0  0  0  0  0  0  0  0
  185.8540  179.3800  143.5010 N   0  0  0  0  0  1  0  0  0  0  0  0
  187.7340  176.4010  146.4220 C   0  0  0  0  0  3  0  0  0  0  0  0
  185.0580  178.4760  147.4320 C   0  0  0  0  0  3  0  0  0  0  0  0
  186.7080  177.3030  146.5560 C   0  0  0  0  0  0  0  0  0  0  0  0
  188.5010  176.1610  145.2920 C   0  0  0  0  0  0  0  0  0  0  0  0
  185.1670  178.9090  146.1580 N   0  0  0  0  0  0  0  0  0  0  0  0
  186.5550  178.4050  144.2660 C   0  0  0  0  0  0  0  0  0  0  0  0
  186.1670  178.2150  145.5860 C   0  0  0  0  0  0  0  0  0  0  0  0
  185.9890  177.4880  147.7150 C   0  0  0  0  0  3  0  0  0  0  0  0
  1  3  1  0  0  0  0
  1 16  1  1  0  0  0
  3  6  2  0  0  0  0
  4  9  1  0  0  0  0
  4  2  2  0  0  0  0
  5  7  2  0  0  0  0
  5  3  1  0  0  0  0
  6  2  1  0  0  0  0
  7  4  1  0  0  0  0
  8  9  1  0  0  0  0
 11  1  1  0  0  0  0
 11 10  1  0  0  0  0
 12 15  1  0  0  0  0
 14 13  1  6  0  0  0
 14 12  1  0  0  0  0
 14 15  1  0  0  0  0
 15 11  1  1  0  0  0
 17 18  2  0  0  0  0
 17 25  1  0  0  0  0
 18 23  1  0  0  0  0
 19 25  1  0  0  0  0
 20 22  1  0  0  0  0
 21 27  1  0  0  0  0
 22 27  2  0  0  0  0
 23 16  1  0  0  0  0
 23 20  2  0  0  0  0
 24 21  2  0  0  0  0
 25 26  2  0  0  0  0
 26 24  1  0  0  0  0
 26 22  1  0  0  0  0
M  END
>  <MODEL>
3

>  <REMARK>
 VINA RESULT:      -6.5      2.897      4.666
  Name = 
  6 active torsions:
  status: ('A' for Active; 'I' for Inactive)
    1  A    between atoms: C_6  and  C_12
    2  A    between atoms: C_6  and  C_21
    3  A    between atoms: C_7  and  C_12
    4  A    between atoms: C_12  and  N_16
    5  A    between atoms: C_13  and  O_23
    6  A    between atoms: N_16  and  C_20
                            x       y       z     vdW  Elec       q    Type
                         _______ _______ _______ _____ _____    ______ ____

>  <TORSDO>
F 6

$$$$
=
 OpenBabel11042418543D

 27 30  0  0  1  0  0  0  0  0999 V2000
  190.1530  176.1930  145.5810 C   0  0  1  0  0  3  0  0  0  0  0  0
  190.3260  173.6040  142.7700 C   0  0  0  0  0  3  0  0  0  0  0  0
  190.1090  174.8840  144.8220 C   0  0  0  0  0  0  0  0  0  0  0  0
  189.9950  172.4310  143.4560 C   0  0  0  0  0  0  0  0  0  0  0  0
  189.7770  173.7120  145.5080 C   0  0  0  0  0  3  0  0  0  0  0  0
  190.3830  174.8240  143.4470 C   0  0  0  0  0  3  0  0  0  0  0  0
  189.7200  172.4920  144.8320 C   0  0  0  0  0  3  0  0  0  0  0  0
  190.9590  170.8310  141.8340 C   0  0  0  0  0  1  0  0  0  0  0  0
  189.9460  171.2260  142.7500 O   0  0  0  0  0  0  0  0  0  0  0  0
  191.1180  175.8470  147.7240 C   0  0  0  0  0  1  0  0  0  0  0  0
  191.3630  176.4010  146.3990 N   0  0  0  0  0  0  0  0  0  0  0  0
  193.2900  176.6840  144.9240 C   0  0  0  0  0  2  0  0  0  0  0  0
  194.9040  175.4760  146.2560 N   0  0  0  0  0  1  0  0  0  0  0  0
  193.8020  176.4170  146.3210 C   0  0  2  0  0  3  0  0  0  0  0  0
  192.5360  175.7310  145.8340 C   0  0  1  0  0  3  0  0  0  0  0  0
  189.8530  177.4140  144.7090 C   0  0  0  0  0  2  0  0  0  0  0  0
  186.5820  177.9110  142.9680 N   0  0  0  0  0  0  0  0  0  0  0  0
  187.8380  177.7220  143.3810 N   0  0  0  0  0  0  0  0  0  0  0  0
  184.2360  178.2750  142.8960 N   0  0  0  0  0  1  0  0  0  0  0  0
  187.7130  177.7860  145.8310 C   0  0  0  0  0  3  0  0  0  0  0  0
  184.4230  178.3180  147.0030 C   0  0  0  0  0  3  0  0  0  0  0  0
  186.3710  177.9990  146.0180 C   0  0  0  0  0  0  0  0  0  0  0  0
  188.3850  177.6640  144.6240 C   0  0  0  0  0  0  0  0  0  0  0  0
  184.1610  178.3360  145.6790 N   0  0  0  0  0  0  0  0  0  0  0  0
  185.4290  178.1030  143.6550 C   0  0  0  0  0  0  0  0  0  0  0  0
  185.3280  178.1440  145.0390 C   0  0  0  0  0  0  0  0  0  0  0  0
  185.7710  178.1120  147.2520 C   0  0  0  0  0  3  0  0  0  0  0  0
  1 16  1  6  0  0  0
  1 11  1  0  0  0  0
  2  6  2  0  0  0  0
  2  4  1  0  0  0  0
  3  5  2  0  0  0  0
  3  1  1  0  0  0  0
  4  7  2  0  0  0  0
  6  3  1  0  0  0  0
  7  5  1  0  0  0  0
  8  9  1  0  0  0  0
  9  4  1  0  0  0  0
 11 10  1  0  0  0  0
 12 15  1  0  0  0  0
 12 14  1  0  0  0  0
 14 13  1  6  0  0  0
 15 14  1  0  0  0  0
 15 11  1  1  0  0  0
 17 18  2  0  0  0  0
 17 25  1  0  0  0  0
 18 23  1  0  0  0  0
 19 25  1  0  0  0  0
 20 22  1  0  0  0  0
 21 27  1  0  0  0  0
 22 27  2  0  0  0  0
 23 16  1  0  0  0  0
 23 20  2  0  0  0  0
 24 21  2  0  0  0  0
 25 26  2  0  0  0  0
 26 24  1  0  0  0  0
 26 22  1  0  0  0  0
M  END
>  <MODEL>
4

>  <REMARK>
 VINA RESULT:      -6.3      1.577      2.222
  Name = 
  6 active torsions:
  status: ('A' for Active; 'I' for Inactive)
    1  A    between atoms: C_6  and  C_12
    2  A    between atoms: C_6  and  C_21
    3  A    between atoms: C_7  and  C_12
    4  A    between atoms: C_12  and  N_16
    5  A    between atoms: C_13  and  O_23
    6  A    between atoms: N_16  and  C_20
                            x       y       z     vdW  Elec       q    Type
                         _______ _______ _______ _____ _____    ______ ____

>  <TORSDO>
F 6

$$$$
=
 OpenBabel11042418543D

 27 30  0  0  1  0  0  0  0  0999 V2000
  189.7140  176.0870  144.0170 C   0  0  1  0  0  3  0  0  0  0  0  0
  190.1270  172.3470  143.3260 C   0  0  0  0  0  3  0  0  0  0  0  0
  189.8320  174.7580  143.3040 C   0  0  0  0  0  0  0  0  0  0  0  0
  190.0640  172.3170  141.9300 C   0  0  0  0  0  0  0  0  0  0  0  0
  189.7700  174.7280  141.9070 C   0  0  0  0  0  3  0  0  0  0  0  0
  190.0120  173.5590  144.0110 C   0  0  0  0  0  3  0  0  0  0  0  0
  189.8850  173.5170  141.2220 C   0  0  0  0  0  3  0  0  0  0  0  0
  190.8220  169.9630  141.8600 C   0  0  0  0  0  1  0  0  0  0  0  0
  190.1820  171.0890  141.2740 O   0  0  0  0  0  0  0  0  0  0  0  0
  191.6040  177.5220  144.1220 C   0  0  0  0  0  1  0  0  0  0  0  0
  190.8870  176.4680  144.8270 N   0  0  0  0  0  0  0  0  0  0  0  0
  189.7490  175.9130  146.9150 C   0  0  0  0  0  2  0  0  0  0  0  0
  191.3040  176.9730  148.4310 N   0  0  0  0  0  1  0  0  0  0  0  0
  191.2050  176.1680  147.2280 C   0  0  2  0  0  3  0  0  0  0  0  0
  190.5090  176.9770  146.1460 C   0  0  1  0  0  3  0  0  0  0  0  0
  189.2720  177.2320  143.1040 C   0  0  0  0  0  2  0  0  0  0  0  0
  186.2600  178.1610  145.1160 N   0  0  0  0  0  0  0  0  0  0  0  0
  187.4430  177.8240  144.5970 N   0  0  0  0  0  0  0  0  0  0  0  0
  183.9680  178.7200  145.3940 N   0  0  0  0  0  1  0  0  0  0  0  0
  187.0370  177.6050  142.1870 C   0  0  0  0  0  3  0  0  0  0  0  0
  183.6760  178.2640  141.3180 C   0  0  0  0  0  3  0  0  0  0  0  0
  185.6990  177.9030  142.1200 C   0  0  0  0  0  0  0  0  0  0  0  0
  187.8340  177.5650  143.3210 C   0  0  0  0  0  0  0  0  0  0  0  0
  183.5720  178.4580  142.6500 N   0  0  0  0  0  0  0  0  0  0  0  0
  185.0490  178.3630  144.5390 C   0  0  0  0  0  0  0  0  0  0  0  0
  184.7910  178.2460  143.1790 C   0  0  0  0  0  0  0  0  0  0  0  0
  184.9690  177.9210  140.9530 C   0  0  0  0  0  3  0  0  0  0  0  0
  1 16  1  6  0  0  0
  1 11  1  0  0  0  0
  2  6  1  0  0  0  0
  3  6  2  0  0  0  0
  3  1  1  0  0  0  0
  4  2  2  0  0  0  0
  5  3  1  0  0  0  0
  7  5  2  0  0  0  0
  7  4  1  0  0  0  0
  9  8  1  0  0  0  0
  9  4  1  0  0  0  0
 10 11  1  0  0  0  0
 12 14  1  0  0  0  0
 14 13  1  1  0  0  0
 15 11  1  6  0  0  0
 15 12  1  0  0  0  0
 15 14  1  0  0  0  0
 16 23  1  0  0  0  0
 18 17  1  0  0  0  0
 20 23  1  0  0  0  0
 21 24  1  0  0  0  0
 22 20  2  0  0  0  0
 22 26  1  0  0  0  0
 23 18  2  0  0  0  0
 24 26  2  0  0  0  0
 25 17  2  0  0  0  0
 25 19  1  0  0  0  0
 26 25  1  0  0  0  0
 27 21  2  0  0  0  0
 27 22  1  0  0  0  0
M  END
>  <MODEL>
5

>  <REMARK>
 VINA RESULT:      -6.3      0.989      1.950
  Name = 
  6 active torsions:
  status: ('A' for Active; 'I' for Inactive)
    1  A    between atoms: C_6  and  C_12
    2  A    between atoms: C_6  and  C_21
    3  A    between atoms: C_7  and  C_12
    4  A    between atoms: C_12  and  N_16
    5  A    between atoms: C_13  and  O_23
    6  A    between atoms: N_16  and  C_20
                            x       y       z     vdW  Elec       q    Type
                         _______ _______ _______ _____ _____    ______ ____

>  <TORSDO>
F 6

$$$$
=
 OpenBabel11042418543D

 27 30  0  0  1  0  0  0  0  0999 V2000
  190.7630  175.8580  144.7060 C   0  0  1  0  0  3  0  0  0  0  0  0
  194.2450  176.0410  143.1330 C   0  0  0  0  0  3  0  0  0  0  0  0
  192.2460  176.0890  144.5100 C   0  0  0  0  0  0  0  0  0  0  0  0
  195.0060  176.5180  144.2030 C   0  0  0  0  0  0  0  0  0  0  0  0
  193.0060  176.5660  145.5820 C   0  0  0  0  0  3  0  0  0  0  0  0
  192.8730  175.8270  143.2820 C   0  0  0  0  0  3  0  0  0  0  0  0
  194.3780  176.7800  145.4320 C   0  0  0  0  0  3  0  0  0  0  0  0
  197.0590  176.3430  142.8340 C   0  0  0  0  0  1  0  0  0  0  0  0
  196.3770  176.7220  144.0220 O   0  0  0  0  0  0  0  0  0  0  0  0
  189.8580  174.5430  146.4650 C   0  0  0  0  0  1  0  0  0  0  0  0
  190.3920  174.4890  145.1100 N   0  0  0  0  0  0  0  0  0  0  0  0
  189.7010  174.1940  142.7860 C   0  0  0  0  0  2  0  0  0  0  0  0
  188.9430  171.9050  142.9550 N   0  0  0  0  0  1  0  0  0  0  0  0
  189.9830  172.8290  143.3690 C   0  0  2  0  0  3  0  0  0  0  0  0
  189.3670  173.9110  144.2390 C   0  0  1  0  0  3  0  0  0  0  0  0
  190.0950  176.9040  145.6010 C   0  0  0  0  0  2  0  0  0  0  0  0
  187.8040  177.9470  142.8370 N   0  0  0  0  0  0  0  0  0  0  0  0
  188.7780  177.5570  143.6610 N   0  0  0  0  0  0  0  0  0  0  0  0
  185.7210  178.6650  141.9470 N   0  0  0  0  0  1  0  0  0  0  0  0
  187.7590  177.5590  145.8930 C   0  0  0  0  0  3  0  0  0  0  0  0
  184.3660  178.5440  145.8280 C   0  0  0  0  0  3  0  0  0  0  0  0
  186.4820  177.9660  145.5960 C   0  0  0  0  0  0  0  0  0  0  0  0
  188.8110  177.3760  145.0080 C   0  0  0  0  0  0  0  0  0  0  0  0
  184.6220  178.6450  144.5050 N   0  0  0  0  0  0  0  0  0  0  0  0
  186.5120  178.2890  143.0710 C   0  0  0  0  0  0  0  0  0  0  0  0
  185.9080  178.2990  144.3210 C   0  0  0  0  0  0  0  0  0  0  0  0
  185.4860  178.1290  146.5320 C   0  0  0  0  0  3  0  0  0  0  0  0
  1 11  1  0  0  0  0
  1 16  1  1  0  0  0
  2  6  2  0  0  0  0
  2  4  1  0  0  0  0
  3  1  1  0  0  0  0
  3  5  2  0  0  0  0
  4  7  2  0  0  0  0
  6  3  1  0  0  0  0
  7  5  1  0  0  0  0
  8  9  1  0  0  0  0
  9  4  1  0  0  0  0
 11 10  1  0  0  0  0
 12 14  1  0  0  0  0
 12 15  1  0  0  0  0
 14 13  1  6  0  0  0
 14 15  1  0  0  0  0
 15 11  1  1  0  0  0
 17 25  2  0  0  0  0
 17 18  1  0  0  0  0
 18 23  2  0  0  0  0
 19 25  1  0  0  0  0
 21 27  2  0  0  0  0
 22 20  2  0  0  0  0
 22 27  1  0  0  0  0
 23 16  1  0  0  0  0
 23 20  1  0  0  0  0
 24 21  1  0  0  0  0
 25 26  1  0  0  0  0
 26 24  2  0  0  0  0
 26 22  1  0  0  0  0
M  END
>  <MODEL>
6

>  <REMARK>
 VINA RESULT:      -6.2      2.849      4.392
  Name = 
  6 active torsions:
  status: ('A' for Active; 'I' for Inactive)
    1  A    between atoms: C_6  and  C_12
    2  A    between atoms: C_6  and  C_21
    3  A    between atoms: C_7  and  C_12
    4  A    between atoms: C_12  and  N_16
    5  A    between atoms: C_13  and  O_23
    6  A    between atoms: N_16  and  C_20
                            x       y       z     vdW  Elec       q    Type
                         _______ _______ _______ _____ _____    ______ ____

>  <TORSDO>
F 6

$$$$
=
 OpenBabel11042418543D

 27 30  0  0  1  0  0  0  0  0999 V2000
  189.9850  175.6640  145.3910 C   0  0  1  0  0  3  0  0  0  0  0  0
  186.8080  177.1790  146.8880 C   0  0  0  0  0  3  0  0  0  0  0  0
  188.7560  176.5230  145.5960 C   0  0  0  0  0  0  0  0  0  0  0  0
  186.4750  178.1320  145.9210 C   0  0  0  0  0  0  0  0  0  0  0  0
  188.4240  177.4760  144.6280 C   0  0  0  0  0  3  0  0  0  0  0  0
  187.9410  176.3780  146.7290 C   0  0  0  0  0  3  0  0  0  0  0  0
  187.2910  178.2770  144.7870 C   0  0  0  0  0  3  0  0  0  0  0  0
  184.0660  178.3650  146.4350 C   0  0  0  0  0  1  0  0  0  0  0  0
  185.3340  178.9180  146.1090 O   0  0  0  0  0  0  0  0  0  0  0  0
  191.1550  175.3170  147.4290 C   0  0  0  0  0  1  0  0  0  0  0  0
  191.1670  176.0640  146.1780 N   0  0  0  0  0  0  0  0  0  0  0  0
  192.3950  176.3730  144.0900 C   0  0  0  0  0  2  0  0  0  0  0  0
  194.5750  176.7840  145.0470 N   0  0  0  0  0  1  0  0  0  0  0  0
  193.1600  177.0680  145.1920 C   0  0  2  0  0  3  0  0  0  0  0  0
  192.4210  175.7730  145.4840 C   0  0  1  0  0  3  0  0  0  0  0  0
  189.7100  174.1650  145.5220 C   0  0  0  0  0  2  0  0  0  0  0  0
  190.7050  171.4280  143.1780 N   0  0  0  0  0  0  0  0  0  0  0  0
  190.4580  172.2830  144.1730 N   0  0  0  0  0  0  0  0  0  0  0  0
  190.8140  170.3720  141.0530 N   0  0  0  0  0  1  0  0  0  0  0  0
  189.2260  174.1290  143.1270 C   0  0  0  0  0  3  0  0  0  0  0  0
  188.7330  173.6340  139.6630 C   0  0  0  0  0  3  0  0  0  0  0  0
  189.1720  173.7020  141.8240 C   0  0  0  0  0  0  0  0  0  0  0  0
  189.8170  173.4820  144.2010 C   0  0  0  0  0  0  0  0  0  0  0  0
  189.4110  172.4960  139.9260 N   0  0  0  0  0  0  0  0  0  0  0  0
  190.3940  171.4690  141.8580 C   0  0  0  0  0  0  0  0  0  0  0  0
  189.6990  172.4990  141.2400 C   0  0  0  0  0  0  0  0  0  0  0  0
  188.5660  174.4020  140.8050 C   0  0  0  0  0  3  0  0  0  0  0  0
  1 16  1  1  0  0  0
  1  3  1  0  0  0  0
  1 11  1  0  0  0  0
  3  6  2  0  0  0  0
  4  9  1  0  0  0  0
  4  2  2  0  0  0  0
  5  7  2  0  0  0  0
  5  3  1  0  0  0  0
  6  2  1  0  0  0  0
  7  4  1  0  0  0  0
  9  8  1  0  0  0  0
 11 10  1  0  0  0  0
 12 14  1  0  0  0  0
 12 15  1  0  0  0  0
 14 13  1  6  0  0  0
 14 15  1  0  0  0  0
 15 11  1  1  0  0  0
 17 18  1  0  0  0  0
 18 23  2  0  0  0  0
 19 25  1  0  0  0  0
 20 23  1  0  0  0  0
 21 24  1  0  0  0  0
 21 27  2  0  0  0  0
 22 20  2  0  0  0  0
 23 16  1  0  0  0  0
 24 26  2  0  0  0  0
 25 17  2  0  0  0  0
 26 22  1  0  0  0  0
 26 25  1  0  0  0  0
 27 22  1  0  0  0  0
M  END
>  <MODEL>
7

>  <REMARK>
 VINA RESULT:      -6.2      3.682      6.633
  Name = 
  6 active torsions:
  status: ('A' for Active; 'I' for Inactive)
    1  A    between atoms: C_6  and  C_12
    2  A    between atoms: C_6  and  C_21
    3  A    between atoms: C_7  and  C_12
    4  A    between atoms: C_12  and  N_16
    5  A    between atoms: C_13  and  O_23
    6  A    between atoms: N_16  and  C_20
                            x       y       z     vdW  Elec       q    Type
                         _______ _______ _______ _____ _____    ______ ____

>  <TORSDO>
F 6

$$$$
=
 OpenBabel11042418543D

 27 30  0  0  1  0  0  0  0  0999 V2000
  189.1350  175.4210  143.3970 C   0  0  1  0  0  3  0  0  0  0  0  0
  186.9290  176.7240  146.2380 C   0  0  0  0  0  3  0  0  0  0  0  0
  187.9720  176.0150  144.1630 C   0  0  0  0  0  0  0  0  0  0  0  0
  185.7790  177.1040  145.5410 C   0  0  0  0  0  0  0  0  0  0  0  0
  186.8220  176.3930  143.4650 C   0  0  0  0  0  3  0  0  0  0  0  0
  188.0200  176.1820  145.5550 C   0  0  0  0  0  3  0  0  0  0  0  0
  185.7300  176.9350  144.1470 C   0  0  0  0  0  3  0  0  0  0  0  0
  183.9750  178.7770  145.8010 C   0  0  0  0  0  1  0  0  0  0  0  0
  184.7030  177.6430  146.2520 O   0  0  0  0  0  0  0  0  0  0  0  0
  188.5860  174.9090  141.1440 C   0  0  0  0  0  1  0  0  0  0  0  0
  188.7810  174.3320  142.4680 N   0  0  0  0  0  0  0  0  0  0  0  0
  190.2070  172.8280  143.7590 C   0  0  0  0  0  2  0  0  0  0  0  0
  190.0870  170.9150  142.2880 N   0  0  0  0  0  1  0  0  0  0  0  0
  189.3100  171.9870  142.8830 C   0  0  2  0  0  3  0  0  0  0  0  0
  189.8330  173.3190  142.3730 C   0  0  1  0  0  3  0  0  0  0  0  0
  190.0160  176.4710  142.7170 C   0  0  0  0  0  2  0  0  0  0  0  0
  193.7060  176.1060  142.2410 N   0  0  0  0  0  0  0  0  0  0  0  0
  192.3770  176.2190  142.1850 N   0  0  0  0  0  0  0  0  0  0  0  0
  195.9510  175.9480  143.0010 N   0  0  0  0  0  1  0  0  0  0  0  0
  191.6600  176.4030  144.5240 C   0  0  0  0  0  3  0  0  0  0  0  0
  194.3740  176.2860  146.7840 C   0  0  0  0  0  3  0  0  0  0  0  0
  192.8670  176.3310  145.1740 C   0  0  0  0  0  0  0  0  0  0  0  0
  191.4360  176.3470  143.1570 C   0  0  0  0  0  0  0  0  0  0  0  0
  195.0740  176.1630  145.6350 N   0  0  0  0  0  0  0  0  0  0  0  0
  194.5640  176.0850  143.2920 C   0  0  0  0  0  0  0  0  0  0  0  0
  194.1870  176.1870  144.6240 C   0  0  0  0  0  0  0  0  0  0  0  0
  193.0130  176.3920  146.5410 C   0  0  0  0  0  3  0  0  0  0  0  0
  1 16  1  6  0  0  0
  1  3  1  0  0  0  0
  3  6  2  0  0  0  0
  4  2  2  0  0  0  0
  4  9  1  0  0  0  0
  5  7  2  0  0  0  0
  5  3  1  0  0  0  0
  6  2  1  0  0  0  0
  7  4  1  0  0  0  0
  8  9  1  0  0  0  0
 10 11  1  0  0  0  0
 11  1  1  0  0  0  0
 14 13  1  6  0  0  0
 14 12  1  0  0  0  0
 15 11  1  1  0  0  0
 15 14  1  0  0  0  0
 15 12  1  0  0  0  0
 16 23  1  0  0  0  0
 17 25  1  0  0  0  0
 18 17  2  0  0  0  0
 18 23  1  0  0  0  0
 19 25  1  0  0  0  0
 20 22  1  0  0  0  0
 22 27  2  0  0  0  0
 23 20  2  0  0  0  0
 24 21  2  0  0  0  0
 25 26  2  0  0  0  0
 26 22  1  0  0  0  0
 26 24  1  0  0  0  0
 27 21  1  0  0  0  0
M  END
>  <MODEL>
8

>  <REMARK>
 VINA RESULT:      -6.0      3.308      7.253
  Name = 
  6 active torsions:
  status: ('A' for Active; 'I' for Inactive)
    1  A    between atoms: C_6  and  C_12
    2  A    between atoms: C_6  and  C_21
    3  A    between atoms: C_7  and  C_12
    4  A    between atoms: C_12  and  N_16
    5  A    between atoms: C_13  and  O_23
    6  A    between atoms: N_16  and  C_20
                            x       y       z     vdW  Elec       q    Type
                         _______ _______ _______ _____ _____    ______ ____

>  <TORSDO>
F 6

$$$$
=
 OpenBabel11042418543D

 27 30  0  0  1  0  0  0  0  0999 V2000
  189.7140  175.6070  144.0250 C   0  0  1  0  0  3  0  0  0  0  0  0
  187.4170  176.7010  146.8810 C   0  0  0  0  0  3  0  0  0  0  0  0
  188.6570  176.3360  144.8260 C   0  0  0  0  0  0  0  0  0  0  0  0
  186.6720  177.7090  146.2640 C   0  0  0  0  0  0  0  0  0  0  0  0
  187.9120  177.3450  144.2070 C   0  0  0  0  0  3  0  0  0  0  0  0
  188.4040  176.0170  146.1680 C   0  0  0  0  0  3  0  0  0  0  0  0
  186.9250  178.0290  144.9200 C   0  0  0  0  0  3  0  0  0  0  0  0
  184.3570  178.5370  146.5410 C   0  0  0  0  0  1  0  0  0  0  0  0
  185.6910  178.3750  147.0040 O   0  0  0  0  0  0  0  0  0  0  0  0
  189.0710  175.1530  141.7840 C   0  0  0  0  0  1  0  0  0  0  0  0
  189.2000  174.5680  143.1120 N   0  0  0  0  0  0  0  0  0  0  0  0
  190.0150  172.5880  144.2860 C   0  0  0  0  0  2  0  0  0  0  0  0
  190.0560  171.0790  142.4000 N   0  0  0  0  0  1  0  0  0  0  0  0
  189.2900  172.1310  143.0420 C   0  0  2  0  0  3  0  0  0  0  0  0
  190.0990  173.4170  143.0180 C   0  0  1  0  0  3  0  0  0  0  0  0
  190.6920  176.5420  143.3110 C   0  0  0  0  0  2  0  0  0  0  0  0
  193.4290  175.4040  145.5900 N   0  0  0  0  0  0  0  0  0  0  0  0
  192.3160  175.7760  144.9540 N   0  0  0  0  0  0  0  0  0  0  0  0
  195.6870  174.9020  146.1300 N   0  0  0  0  0  1  0  0  0  0  0  0
  193.0590  176.4290  142.7090 C   0  0  0  0  0  3  0  0  0  0  0  0
  196.5490  176.0760  142.2840 C   0  0  0  0  0  3  0  0  0  0  0  0
  194.4090  176.2050  142.8060 C   0  0  0  0  0  0  0  0  0  0  0  0
  192.1010  176.2370  143.6930 C   0  0  0  0  0  0  0  0  0  0  0  0
  196.4670  175.6560  143.5650 N   0  0  0  0  0  0  0  0  0  0  0  0
  194.7230  175.3570  145.1860 C   0  0  0  0  0  0  0  0  0  0  0  0
  195.1720  175.7200  143.9230 C   0  0  0  0  0  0  0  0  0  0  0  0
  195.3030  176.4220  141.7820 C   0  0  0  0  0  3  0  0  0  0  0  0
  1 16  1  6  0  0  0
  1  3  1  0  0  0  0
  3  6  1  0  0  0  0
  4  2  1  0  0  0  0
  4  9  1  0  0  0  0
  5  3  2  0  0  0  0
  5  7  1  0  0  0  0
  6  2  2  0  0  0  0
  7  4  2  0  0  0  0
  8  9  1  0  0  0  0
 10 11  1  0  0  0  0
 11  1  1  0  0  0  0
 14 13  1  6  0  0  0
 14 12  1  0  0  0  0
 15 14  1  0  0  0  0
 15 11  1  1  0  0  0
 15 12  1  0  0  0  0
 16 23  1  0  0  0  0
 18 17  2  0  0  0  0
 20 22  1  0  0  0  0
 20 23  2  0  0  0  0
 21 24  2  0  0  0  0
 22 26  1  0  0  0  0
 23 18  1  0  0  0  0
 24 26  1  0  0  0  0
 25 17  1  0  0  0  0
 25 19  1  0  0  0  0
 26 25  2  0  0  0  0
 27 21  1  0  0  0  0
 27 22  2  0  0  0  0
M  END
>  <MODEL>
9

>  <REMARK>
 VINA RESULT:      -5.8      3.550      7.900
  Name = 
  6 active torsions:
  status: ('A' for Active; 'I' for Inactive)
    1  A    between atoms: C_6  and  C_12
    2  A    between atoms: C_6  and  C_21
    3  A    between atoms: C_7  and  C_12
    4  A    between atoms: C_12  and  N_16
    5  A    between atoms: C_13  and  O_23
    6  A    between atoms: N_16  and  C_20
                            x       y       z     vdW  Elec       q    Type
                         _______ _______ _______ _____ _____    ______ ____

>  <TORSDO>
F 6

$$$$
