=
 OpenBabel11042418513D

 26 28  0  0  1  0  0  0  0  0999 V2000
  187.3910  177.6510  146.6180 O   0  0  0  0  0  0  0  0  0  0  0  0
  185.8210  178.0890  143.9920 C   0  0  1  0  0  3  0  0  0  0  0  0
  189.2190  176.7330  145.3590 C   0  0  0  0  0  2  0  0  0  0  0  0
  189.4300  177.6020  143.0420 C   0  0  0  0  0  3  0  0  0  0  0  0
  188.1240  177.8760  142.9710 C   0  0  0  0  0  3  0  0  0  0  0  0
  185.7070  176.0360  146.4300 F   0  0  0  0  0  0  0  0  0  0  0  0
  187.3390  178.1500  144.2340 C   0  0  2  0  0  3  0  0  0  0  0  0
  187.7330  177.1520  145.3490 C   0  0  2  0  0  3  0  0  0  0  0  0
  190.0850  177.5450  144.3900 C   0  0  2  0  0  3  0  0  0  0  0  0
  186.0670  177.2780  146.9440 C   0  0  0  0  0  0  0  0  0  0  0  0
  185.9780  177.1960  148.3220 F   0  0  0  0  0  0  0  0  0  0  0  0
  185.1120  178.3290  146.4500 C   0  0  0  0  0  0  0  0  0  0  0  0
  184.3160  178.8790  147.2570 O   0  0  0  0  0  0  0  0  0  0  0  0
  185.0930  178.7370  145.0790 N   0  0  0  0  0  2  0  0  0  0  0  0
  193.3080  176.1950  142.9520 C   0  0  0  0  0  0  0  0  0  0  0  0
  191.4700  176.9880  144.3000 C   0  0  0  0  0  0  0  0  0  0  0  0
  193.5190  176.2130  145.3170 C   0  0  0  0  0  0  0  0  0  0  0  0
  192.0140  176.7150  143.0430 C   0  0  0  0  0  3  0  0  0  0  0  0
  192.2300  176.7330  145.4500 C   0  0  0  0  0  3  0  0  0  0  0  0
  193.8720  175.9150  141.6780 N   0  0  0  0  0  1  0  0  0  0  0  0
  194.0270  175.9560  144.0810 N   0  0  0  0  0  0  0  0  0  0  0  0
  194.3010  175.9500  146.4760 N   0  0  0  0  0  1  0  0  0  0  0  0
  185.4180  178.7600  142.6800 C   0  0  0  0  0  2  0  0  0  0  0  0
  184.0850  178.2270  142.1760 C   0  0  0  0  0  2  0  0  0  0  0  0
  185.3520  178.1870  140.1650 O   0  0  0  0  0  1  0  0  0  0  0  0
  184.0500  178.2400  140.6600 C   0  0  0  0  0  2  0  0  0  0  0  0
  1 10  1  0  0  0  0
  2 23  1  6  0  0  0
  2  7  1  0  0  0  0
  2 14  1  0  0  0  0
  4  9  1  0  0  0  0
  5  4  2  0  0  0  0
  6 10  1  0  0  0  0
  7  5  1  6  0  0  0
  7  8  1  0  0  0  0
  8  3  1  1  0  0  0
  8  1  1  0  0  0  0
  9 16  1  6  0  0  0
  9  3  1  0  0  0  0
 10 11  1  0  0  0  0
 12 10  1  0  0  0  0
 12 13  2  0  0  0  0
 14 12  1  0  0  0  0
 15 18  2  0  0  0  0
 15 21  1  0  0  0  0
 16 19  2  0  0  0  0
 17 19  1  0  0  0  0
 17 22  1  0  0  0  0
 18 16  1  0  0  0  0
 20 15  1  0  0  0  0
 21 17  2  0  0  0  0
 24 23  1  0  0  0  0
 25 26  1  0  0  0  0
 26 24  1  0  0  0  0
M  END
>  <MODEL>
1

>  <REMARK>
 VINA RESULT:      -7.7      0.000      0.000
  Name = 
  4 active torsions:
  status: ('A' for Active; 'I' for Inactive)
    1  A    between atoms: C_3  and  C_17
    2  A    between atoms: C_3  and  C_26
    3  A    between atoms: C_5  and  C_16
    4  A    between atoms: C_6  and  C_17
                            x       y       z     vdW  Elec       q    Type
                         _______ _______ _______ _____ _____    ______ ____

>  <TORSDO>
F 4

$$$$
=
 OpenBabel11042418513D

 26 28  0  0  1  0  0  0  0  0999 V2000
  187.1890  177.6200  142.3780 O   0  0  0  0  0  0  0  0  0  0  0  0
  185.8380  177.6730  145.1570 C   0  0  1  0  0  3  0  0  0  0  0  0
  189.3440  177.6240  143.4370 C   0  0  0  0  0  2  0  0  0  0  0  0
  189.4000  176.5810  145.6910 C   0  0  0  0  0  3  0  0  0  0  0  0
  188.1110  176.8580  145.9070 C   0  0  0  0  0  3  0  0  0  0  0  0
  186.3460  179.7630  142.8020 F   0  0  0  0  0  0  0  0  0  0  0  0
  187.1650  177.0170  144.7380 C   0  0  2  0  0  3  0  0  0  0  0  0
  187.8270  177.8460  143.6100 C   0  0  2  0  0  3  0  0  0  0  0  0
  189.8880  176.4630  144.2770 C   0  0  2  0  0  3  0  0  0  0  0  0
  186.1110  178.5220  142.2180 C   0  0  0  0  0  0  0  0  0  0  0  0
  185.9320  178.7310  140.8620 F   0  0  0  0  0  0  0  0  0  0  0  0
  184.8600  177.9180  142.7940 C   0  0  0  0  0  0  0  0  0  0  0  0
  183.8350  177.7980  142.0720 O   0  0  0  0  0  0  0  0  0  0  0  0
  184.8060  177.4560  144.1470 N   0  0  0  0  0  2  0  0  0  0  0  0
  193.5110  176.4980  145.3480 C   0  0  0  0  0  0  0  0  0  0  0  0
  191.3810  176.4010  144.2190 C   0  0  0  0  0  0  0  0  0  0  0  0
  193.4510  176.1400  143.0020 C   0  0  0  0  0  0  0  0  0  0  0  0
  192.1150  176.5560  145.3960 C   0  0  0  0  0  3  0  0  0  0  0  0
  192.0550  176.1910  143.0080 C   0  0  0  0  0  3  0  0  0  0  0  0
  194.2690  176.6540  146.5410 N   0  0  0  0  0  1  0  0  0  0  0  0
  194.1440  176.2940  144.1620 N   0  0  0  0  0  0  0  0  0  0  0  0
  194.1470  175.9280  141.7800 N   0  0  0  0  0  1  0  0  0  0  0  0
  185.3220  177.1330  146.4900 C   0  0  0  0  0  2  0  0  0  0  0  0
  184.8390  178.2590  147.3900 C   0  0  0  0  0  2  0  0  0  0  0  0
  186.8590  179.0120  148.3910 O   0  0  0  0  0  1  0  0  0  0  0  0
  185.8790  179.3600  147.4630 C   0  0  0  0  0  2  0  0  0  0  0  0
  1  8  1  0  0  0  0
  2 23  1  1  0  0  0
  3  9  1  0  0  0  0
  4  5  2  0  0  0  0
  7  2  1  0  0  0  0
  7  5  1  1  0  0  0
  8  3  1  6  0  0  0
  8  7  1  0  0  0  0
  9 16  1  1  0  0  0
  9  4  1  0  0  0  0
 10  1  1  0  0  0  0
 10 12  1  0  0  0  0
 10  6  1  0  0  0  0
 11 10  1  0  0  0  0
 12 14  1  0  0  0  0
 13 12  2  0  0  0  0
 14  2  1  0  0  0  0
 15 18  1  0  0  0  0
 15 20  1  0  0  0  0
 16 18  2  0  0  0  0
 17 19  2  0  0  0  0
 17 21  1  0  0  0  0
 19 16  1  0  0  0  0
 21 15  2  0  0  0  0
 22 17  1  0  0  0  0
 23 24  1  0  0  0  0
 24 26  1  0  0  0  0
 26 25  1  0  0  0  0
M  END
>  <MODEL>
2

>  <REMARK>
 VINA RESULT:      -7.6      1.977      4.106
  Name = 
  4 active torsions:
  status: ('A' for Active; 'I' for Inactive)
    1  A    between atoms: C_3  and  C_17
    2  A    between atoms: C_3  and  C_26
    3  A    between atoms: C_5  and  C_16
    4  A    between atoms: C_6  and  C_17
                            x       y       z     vdW  Elec       q    Type
                         _______ _______ _______ _____ _____    ______ ____

>  <TORSDO>
F 4

$$$$
=
 OpenBabel11042418513D

 26 28  0  0  1  0  0  0  0  0999 V2000
  187.2160  177.5600  142.3990 O   0  0  0  0  0  0  0  0  0  0  0  0
  185.8580  177.6500  145.1740 C   0  0  1  0  0  3  0  0  0  0  0  0
  189.3680  177.5340  143.4650 C   0  0  0  0  0  2  0  0  0  0  0  0
  189.4000  176.5030  145.7240 C   0  0  0  0  0  3  0  0  0  0  0  0
  188.1160  176.8020  145.9350 C   0  0  0  0  0  3  0  0  0  0  0  0
  186.4080  179.7180  142.8100 F   0  0  0  0  0  0  0  0  0  0  0  0
  187.1750  176.9700  144.7620 C   0  0  2  0  0  3  0  0  0  0  0  0
  187.8540  177.7820  143.6320 C   0  0  2  0  0  3  0  0  0  0  0  0
  189.8900  176.3690  144.3130 C   0  0  2  0  0  3  0  0  0  0  0  0
  186.1540  178.4780  142.2320 C   0  0  0  0  0  0  0  0  0  0  0  0
  185.9820  178.6830  140.8740 F   0  0  0  0  0  0  0  0  0  0  0  0
  184.8920  177.8980  142.8060 C   0  0  0  0  0  0  0  0  0  0  0  0
  183.8670  177.7920  142.0810 O   0  0  0  0  0  0  0  0  0  0  0  0
  184.8260  177.4450  144.1620 N   0  0  0  0  0  2  0  0  0  0  0  0
  193.4120  176.1470  142.9620 C   0  0  0  0  0  0  0  0  0  0  0  0
  191.3820  176.2820  144.2600 C   0  0  0  0  0  0  0  0  0  0  0  0
  193.5430  176.1690  145.3330 C   0  0  0  0  0  0  0  0  0  0  0  0
  192.0180  176.2290  143.0180 C   0  0  0  0  0  3  0  0  0  0  0  0
  192.1530  176.2510  145.4310 C   0  0  0  0  0  3  0  0  0  0  0  0
  194.0700  176.0930  141.7030 N   0  0  0  0  0  1  0  0  0  0  0  0
  194.1390  176.1190  144.1110 N   0  0  0  0  0  0  0  0  0  0  0  0
  194.3370  176.1380  146.5130 N   0  0  0  0  0  1  0  0  0  0  0  0
  185.3300  177.1250  146.5080 C   0  0  0  0  0  2  0  0  0  0  0  0
  184.8380  178.2620  147.3900 C   0  0  0  0  0  2  0  0  0  0  0  0
  186.8700  179.0140  148.3670 O   0  0  0  0  0  1  0  0  0  0  0  0
  185.8750  179.3660  147.4560 C   0  0  0  0  0  2  0  0  0  0  0  0
  1  8  1  0  0  0  0
  2 23  1  1  0  0  0
  3  9  1  0  0  0  0
  4  5  2  0  0  0  0
  7  2  1  0  0  0  0
  7  5  1  1  0  0  0
  8  3  1  6  0  0  0
  8  7  1  0  0  0  0
  9 16  1  1  0  0  0
  9  4  1  0  0  0  0
 10  1  1  0  0  0  0
 10 12  1  0  0  0  0
 10  6  1  0  0  0  0
 11 10  1  0  0  0  0
 12 14  1  0  0  0  0
 13 12  2  0  0  0  0
 14  2  1  0  0  0  0
 15 18  2  0  0  0  0
 15 21  1  0  0  0  0
 16 19  2  0  0  0  0
 17 19  1  0  0  0  0
 17 22  1  0  0  0  0
 18 16  1  0  0  0  0
 20 15  1  0  0  0  0
 21 17  2  0  0  0  0
 23 24  1  0  0  0  0
 24 26  1  0  0  0  0
 26 25  1  0  0  0  0
M  END
>  <MODEL>
3

>  <REMARK>
 VINA RESULT:      -7.6      1.973      3.765
  Name = 
  4 active torsions:
  status: ('A' for Active; 'I' for Inactive)
    1  A    between atoms: C_3  and  C_17
    2  A    between atoms: C_3  and  C_26
    3  A    between atoms: C_5  and  C_16
    4  A    between atoms: C_6  and  C_17
                            x       y       z     vdW  Elec       q    Type
                         _______ _______ _______ _____ _____    ______ ____

>  <TORSDO>
F 4

$$$$
=
 OpenBabel11042418513D

 26 28  0  0  1  0  0  0  0  0999 V2000
  187.9550  176.8380  142.2160 O   0  0  0  0  0  0  0  0  0  0  0  0
  186.0310  177.4900  144.5450 C   0  0  1  0  0  3  0  0  0  0  0  0
  189.7610  176.6170  143.7830 C   0  0  0  0  0  2  0  0  0  0  0  0
  189.0830  175.8890  146.0590 C   0  0  0  0  0  3  0  0  0  0  0  0
  187.8600  176.4070  145.9150 C   0  0  0  0  0  3  0  0  0  0  0  0
  187.4770  179.1300  142.2240 F   0  0  0  0  0  0  0  0  0  0  0  0
  187.2630  176.5680  144.5360 C   0  0  2  0  0  3  0  0  0  0  0  0
  188.3200  177.1140  143.5450 C   0  0  2  0  0  3  0  0  0  0  0  0
  189.8540  175.5030  144.8310 C   0  0  2  0  0  3  0  0  0  0  0  0
  187.1440  177.8810  141.7100 C   0  0  0  0  0  0  0  0  0  0  0  0
  187.3300  177.9350  140.3400 F   0  0  0  0  0  0  0  0  0  0  0  0
  185.6990  177.5800  141.9990 C   0  0  0  0  0  0  0  0  0  0  0  0
  184.8680  177.5420  141.0540 O   0  0  0  0  0  0  0  0  0  0  0  0
  185.2420  177.3190  143.3290 N   0  0  0  0  0  2  0  0  0  0  0  0
  193.0800  173.5790  145.2420 C   0  0  0  0  0  0  0  0  0  0  0  0
  191.2770  175.1800  145.1600 C   0  0  0  0  0  0  0  0  0  0  0  0
  193.4620  175.8040  145.9790 C   0  0  0  0  0  0  0  0  0  0  0  0
  191.7510  173.8860  144.9370 C   0  0  0  0  0  3  0  0  0  0  0  0
  192.1410  176.1510  145.6870 C   0  0  0  0  0  3  0  0  0  0  0  0
  193.5730  172.2650  145.0190 N   0  0  0  0  0  1  0  0  0  0  0  0
  193.9000  174.5360  145.7530 N   0  0  0  0  0  0  0  0  0  0  0  0
  194.3490  176.7780  146.5140 N   0  0  0  0  0  1  0  0  0  0  0  0
  185.1230  177.2270  145.7460 C   0  0  0  0  0  2  0  0  0  0  0  0
  184.6090  178.5280  146.3420 C   0  0  0  0  0  2  0  0  0  0  0  0
  185.9570  177.9830  148.2230 O   0  0  0  0  0  1  0  0  0  0  0  0
  185.5680  179.0390  147.4000 C   0  0  0  0  0  2  0  0  0  0  0  0
  1  8  1  0  0  0  0
  2 23  1  1  0  0  0
  3  9  1  0  0  0  0
  5  4  2  0  0  0  0
  7  2  1  0  0  0  0
  7  5  1  1  0  0  0
  8  3  1  1  0  0  0
  8  7  1  0  0  0  0
  9 16  1  1  0  0  0
  9  4  1  0  0  0  0
 10 12  1  0  0  0  0
 10  1  1  0  0  0  0
 10  6  1  0  0  0  0
 11 10  1  0  0  0  0
 12 14  1  0  0  0  0
 13 12  2  0  0  0  0
 14  2  1  0  0  0  0
 15 21  1  0  0  0  0
 16 19  2  0  0  0  0
 17 22  1  0  0  0  0
 18 16  1  0  0  0  0
 18 15  2  0  0  0  0
 19 17  1  0  0  0  0
 20 15  1  0  0  0  0
 21 17  2  0  0  0  0
 23 24  1  0  0  0  0
 24 26  1  0  0  0  0
 26 25  1  0  0  0  0
M  END
>  <MODEL>
4

>  <REMARK>
 VINA RESULT:      -7.3      2.429      4.167
  Name = 
  4 active torsions:
  status: ('A' for Active; 'I' for Inactive)
    1  A    between atoms: C_3  and  C_17
    2  A    between atoms: C_3  and  C_26
    3  A    between atoms: C_5  and  C_16
    4  A    between atoms: C_6  and  C_17
                            x       y       z     vdW  Elec       q    Type
                         _______ _______ _______ _____ _____    ______ ____

>  <TORSDO>
F 4

$$$$
=
 OpenBabel11042418513D

 26 28  0  0  1  0  0  0  0  0999 V2000
  186.9360  176.5750  141.7820 O   0  0  0  0  0  0  0  0  0  0  0  0
  186.1100  178.8770  143.6720 C   0  0  1  0  0  3  0  0  0  0  0  0
  188.9570  176.2780  143.0440 C   0  0  0  0  0  2  0  0  0  0  0  0
  188.7940  176.9170  145.4390 C   0  0  0  0  0  3  0  0  0  0  0  0
  187.8170  177.7940  145.1910 C   0  0  0  0  0  3  0  0  0  0  0  0
  187.2420  178.6300  140.7010 F   0  0  0  0  0  0  0  0  0  0  0  0
  186.9200  177.6080  143.9880 C   0  0  2  0  0  3  0  0  0  0  0  0
  187.7490  177.1920  142.7490 C   0  0  2  0  0  3  0  0  0  0  0  0
  188.9970  175.7730  144.4910 C   0  0  2  0  0  3  0  0  0  0  0  0
  186.3900  177.5510  140.9160 C   0  0  0  0  0  0  0  0  0  0  0  0
  186.1660  176.9510  139.6890 F   0  0  0  0  0  0  0  0  0  0  0  0
  185.0810  178.0400  141.4720 C   0  0  0  0  0  0  0  0  0  0  0  0
  184.0390  177.9710  140.7670 O   0  0  0  0  0  0  0  0  0  0  0  0
  184.9820  178.5720  142.7960 N   0  0  0  0  0  2  0  0  0  0  0  0
  192.4710  175.0190  145.7700 C   0  0  0  0  0  0  0  0  0  0  0  0
  190.2720  175.0460  144.7790 C   0  0  0  0  0  0  0  0  0  0  0  0
  191.6810  173.0890  144.6340 C   0  0  0  0  0  0  0  0  0  0  0  0
  191.2780  175.6940  145.4980 C   0  0  0  0  0  3  0  0  0  0  0  0
  190.4750  173.7290  144.3410 C   0  0  0  0  0  3  0  0  0  0  0  0
  193.5030  175.6690  146.5020 N   0  0  0  0  0  1  0  0  0  0  0  0
  192.6460  173.7430  145.3360 N   0  0  0  0  0  0  0  0  0  0  0  0
  191.9010  171.7540  144.1960 N   0  0  0  0  0  1  0  0  0  0  0  0
  185.5670  179.5450  144.9350 C   0  0  0  0  0  2  0  0  0  0  0  0
  184.2620  178.9030  145.3790 C   0  0  0  0  0  2  0  0  0  0  0  0
  184.7660  176.8760  146.5130 O   0  0  0  0  0  1  0  0  0  0  0  0
  184.4410  178.2150  146.7190 C   0  0  0  0  0  2  0  0  0  0  0  0
  1  8  1  0  0  0  0
  2  7  1  0  0  0  0
  2 23  1  1  0  0  0
  3  9  1  0  0  0  0
  5  4  2  0  0  0  0
  6 10  1  0  0  0  0
  7  5  1  1  0  0  0
  8  3  1  1  0  0  0
  8  7  1  0  0  0  0
  9 16  1  1  0  0  0
  9  4  1  0  0  0  0
 10 12  1  0  0  0  0
 10  1  1  0  0  0  0
 11 10  1  0  0  0  0
 12 14  1  0  0  0  0
 13 12  2  0  0  0  0
 14  2  1  0  0  0  0
 15 20  1  0  0  0  0
 16 18  2  0  0  0  0
 17 21  1  0  0  0  0
 18 15  1  0  0  0  0
 19 17  2  0  0  0  0
 19 16  1  0  0  0  0
 21 15  2  0  0  0  0
 22 17  1  0  0  0  0
 23 24  1  0  0  0  0
 24 26  1  0  0  0  0
 25 26  1  0  0  0  0
M  END
>  <MODEL>
5

>  <REMARK>
 VINA RESULT:      -7.3      2.724      4.327
  Name = 
  4 active torsions:
  status: ('A' for Active; 'I' for Inactive)
    1  A    between atoms: C_3  and  C_17
    2  A    between atoms: C_3  and  C_26
    3  A    between atoms: C_5  and  C_16
    4  A    between atoms: C_6  and  C_17
                            x       y       z     vdW  Elec       q    Type
                         _______ _______ _______ _____ _____    ______ ____

>  <TORSDO>
F 4

$$$$
=
 OpenBabel11042418513D

 26 28  0  0  1  0  0  0  0  0999 V2000
  188.1280  177.5310  146.4120 O   0  0  0  0  0  0  0  0  0  0  0  0
  186.9010  177.9630  143.6090 C   0  0  1  0  0  3  0  0  0  0  0  0
  189.9200  176.2740  145.4230 C   0  0  0  0  0  2  0  0  0  0  0  0
  190.4790  176.9160  143.0890 C   0  0  0  0  0  3  0  0  0  0  0  0
  189.2390  177.3570  142.8600 C   0  0  0  0  0  3  0  0  0  0  0  0
  186.2570  176.1490  146.1510 F   0  0  0  0  0  0  0  0  0  0  0  0
  188.3820  177.8380  144.0090 C   0  0  2  0  0  3  0  0  0  0  0  0
  188.5180  176.8880  145.2240 C   0  0  2  0  0  3  0  0  0  0  0  0
  190.9840  176.8800  144.5020 C   0  0  2  0  0  3  0  0  0  0  0  0
  186.7390  177.3680  146.6170 C   0  0  0  0  0  0  0  0  0  0  0  0
  186.5040  177.4110  147.9810 F   0  0  0  0  0  0  0  0  0  0  0  0
  185.9970  178.4950  145.9540 C   0  0  0  0  0  0  0  0  0  0  0  0
  185.2130  179.2110  146.6320 O   0  0  0  0  0  0  0  0  0  0  0  0
  186.1710  178.7900  144.5650 N   0  0  0  0  0  2  0  0  0  0  0  0
  193.4710  174.1000  145.1030 C   0  0  0  0  0  0  0  0  0  0  0  0
  192.2770  176.1350  144.5990 C   0  0  0  0  0  0  0  0  0  0  0  0
  194.6810  176.0150  144.3910 C   0  0  0  0  0  0  0  0  0  0  0  0
  192.2660  174.8010  145.0110 C   0  0  0  0  0  3  0  0  0  0  0  0
  193.4980  176.7490  144.2860 C   0  0  0  0  0  3  0  0  0  0  0  0
  193.4710  172.7400  145.5210 N   0  0  0  0  0  1  0  0  0  0  0  0
  194.6430  174.7160  144.7950 N   0  0  0  0  0  0  0  0  0  0  0  0
  195.9260  176.6260  144.0770 N   0  0  0  0  0  1  0  0  0  0  0  0
  186.7290  178.5740  142.2190 C   0  0  0  0  0  2  0  0  0  0  0  0
  185.8680  177.6880  141.3320 C   0  0  0  0  0  2  0  0  0  0  0  0
  183.6600  178.0310  142.1430 O   0  0  0  0  0  1  0  0  0  0  0  0
  184.5190  178.3360  141.0890 C   0  0  0  0  0  2  0  0  0  0  0  0
  1 10  1  0  0  0  0
  2 23  1  6  0  0  0
  2  7  1  0  0  0  0
  2 14  1  0  0  0  0
  4  9  1  0  0  0  0
  5  4  2  0  0  0  0
  6 10  1  0  0  0  0
  7  5  1  6  0  0  0
  7  8  1  0  0  0  0
  8  3  1  1  0  0  0
  8  1  1  0  0  0  0
  9 16  1  6  0  0  0
  9  3  1  0  0  0  0
 10 11  1  0  0  0  0
 12 10  1  0  0  0  0
 12 13  2  0  0  0  0
 14 12  1  0  0  0  0
 15 20  1  0  0  0  0
 16 18  2  0  0  0  0
 17 21  1  0  0  0  0
 18 15  1  0  0  0  0
 19 17  2  0  0  0  0
 19 16  1  0  0  0  0
 21 15  2  0  0  0  0
 22 17  1  0  0  0  0
 24 23  1  0  0  0  0
 26 24  1  0  0  0  0
 26 25  1  0  0  0  0
M  END
>  <MODEL>
6

>  <REMARK>
 VINA RESULT:      -7.2      1.446      1.830
  Name = 
  4 active torsions:
  status: ('A' for Active; 'I' for Inactive)
    1  A    between atoms: C_3  and  C_17
    2  A    between atoms: C_3  and  C_26
    3  A    between atoms: C_5  and  C_16
    4  A    between atoms: C_6  and  C_17
                            x       y       z     vdW  Elec       q    Type
                         _______ _______ _______ _____ _____    ______ ____

>  <TORSDO>
F 4

$$$$
=
 OpenBabel11042418513D

 26 28  0  0  1  0  0  0  0  0999 V2000
  190.2960  173.9220  143.6000 O   0  0  0  0  0  0  0  0  0  0  0  0
  191.7920  175.0200  146.0710 C   0  0  1  0  0  3  0  0  0  0  0  0
  188.5120  175.4800  144.0010 C   0  0  0  0  0  2  0  0  0  0  0  0
  189.1980  177.5820  145.1330 C   0  0  0  0  0  3  0  0  0  0  0  0
  190.2380  176.9840  145.7220 C   0  0  0  0  0  3  0  0  0  0  0  0
  190.1220  172.3970  145.3670 F   0  0  0  0  0  0  0  0  0  0  0  0
  190.8660  175.7620  145.0910 C   0  0  2  0  0  3  0  0  0  0  0  0
  189.7740  174.7970  144.5690 C   0  0  2  0  0  3  0  0  0  0  0  0
  188.6550  177.0000  143.8610 C   0  0  2  0  0  3  0  0  0  0  0  0
  190.8220  172.7680  144.2230 C   0  0  0  0  0  0  0  0  0  0  0  0
  190.7280  171.7200  143.3230 F   0  0  0  0  0  0  0  0  0  0  0  0
  192.2690  172.9950  144.5640 C   0  0  0  0  0  0  0  0  0  0  0  0
  193.1450  172.1990  144.1330 O   0  0  0  0  0  0  0  0  0  0  0  0
  192.6840  174.1100  145.3590 N   0  0  0  0  0  2  0  0  0  0  0  0
  185.3530  178.8170  144.1270 C   0  0  0  0  0  0  0  0  0  0  0  0
  187.3560  177.6360  143.4820 C   0  0  0  0  0  0  0  0  0  0  0  0
  185.6950  178.2630  141.8440 C   0  0  0  0  0  0  0  0  0  0  0  0
  186.5680  178.2200  144.4760 C   0  0  0  0  0  3  0  0  0  0  0  0
  186.9150  177.6570  142.1510 C   0  0  0  0  0  3  0  0  0  0  0  0
  184.5430  179.4160  145.1310 N   0  0  0  0  0  1  0  0  0  0  0  0
  184.9460  178.8250  142.8300 N   0  0  0  0  0  0  0  0  0  0  0  0
  185.2360  178.2910  140.4980 N   0  0  0  0  0  1  0  0  0  0  0  0
  192.6490  175.9810  146.8950 C   0  0  0  0  0  2  0  0  0  0  0  0
  194.1110  175.9060  146.4840 C   0  0  0  0  0  2  0  0  0  0  0  0
  195.3190  176.7910  144.6380 O   0  0  0  0  0  1  0  0  0  0  0  0
  194.5070  177.1500  145.7130 C   0  0  0  0  0  2  0  0  0  0  0  0
  1 10  1  0  0  0  0
  1  8  1  0  0  0  0
  2 23  1  6  0  0  0
  4  5  2  0  0  0  0
  7  5  1  1  0  0  0
  7  2  1  0  0  0  0
  8  3  1  6  0  0  0
  8  7  1  0  0  0  0
  9 16  1  1  0  0  0
  9  3  1  0  0  0  0
  9  4  1  0  0  0  0
 10 12  1  0  0  0  0
 10  6  1  0  0  0  0
 11 10  1  0  0  0  0
 12 14  1  0  0  0  0
 13 12  2  0  0  0  0
 14  2  1  0  0  0  0
 15 18  1  0  0  0  0
 15 20  1  0  0  0  0
 16 18  2  0  0  0  0
 17 19  2  0  0  0  0
 17 21  1  0  0  0  0
 19 16  1  0  0  0  0
 21 15  2  0  0  0  0
 22 17  1  0  0  0  0
 24 23  1  0  0  0  0
 25 26  1  0  0  0  0
 26 24  1  0  0  0  0
M  END
>  <MODEL>
7

>  <REMARK>
 VINA RESULT:      -7.0      3.670      7.888
  Name = 
  4 active torsions:
  status: ('A' for Active; 'I' for Inactive)
    1  A    between atoms: C_3  and  C_17
    2  A    between atoms: C_3  and  C_26
    3  A    between atoms: C_5  and  C_16
    4  A    between atoms: C_6  and  C_17
                            x       y       z     vdW  Elec       q    Type
                         _______ _______ _______ _____ _____    ______ ____

>  <TORSDO>
F 4

$$$$
=
 OpenBabel11042418513D

 26 28  0  0  1  0  0  0  0  0999 V2000
  189.5190  175.9790  142.8690 O   0  0  0  0  0  0  0  0  0  0  0  0
  188.4180  177.2090  145.4810 C   0  0  1  0  0  3  0  0  0  0  0  0
  191.7590  176.3310  143.6600 C   0  0  0  0  0  2  0  0  0  0  0  0
  192.0110  176.2940  146.1300 C   0  0  0  0  0  3  0  0  0  0  0  0
  190.7470  176.6830  146.3160 C   0  0  0  0  0  3  0  0  0  0  0  0
  188.7230  178.1400  142.4470 F   0  0  0  0  0  0  0  0  0  0  0  0
  189.7010  176.3890  145.2630 C   0  0  2  0  0  3  0  0  0  0  0  0
  190.2630  176.6620  143.8470 C   0  0  2  0  0  3  0  0  0  0  0  0
  192.3720  175.5920  144.8540 C   0  0  2  0  0  3  0  0  0  0  0  0
  188.4340  176.7780  142.4410 C   0  0  0  0  0  0  0  0  0  0  0  0
  188.1360  176.4250  141.1370 F   0  0  0  0  0  0  0  0  0  0  0  0
  187.2370  176.5090  143.3100 C   0  0  0  0  0  0  0  0  0  0  0  0
  186.1520  176.1450  142.7830 O   0  0  0  0  0  0  0  0  0  0  0  0
  187.3010  176.6400  144.7330 N   0  0  0  0  0  2  0  0  0  0  0  0
  195.8910  176.0260  143.5480 C   0  0  0  0  0  0  0  0  0  0  0  0
  193.8540  175.4550  144.7090 C   0  0  0  0  0  0  0  0  0  0  0  0
  195.9810  174.5430  145.4000 C   0  0  0  0  0  0  0  0  0  0  0  0
  194.5060  176.1510  143.6890 C   0  0  0  0  0  3  0  0  0  0  0  0
  194.5990  174.6410  145.5740 C   0  0  0  0  0  3  0  0  0  0  0  0
  196.5650  176.7320  142.5140 N   0  0  0  0  0  1  0  0  0  0  0  0
  196.5930  175.2320  144.3990 N   0  0  0  0  0  0  0  0  0  0  0  0
  196.7490  173.7210  146.2700 N   0  0  0  0  0  1  0  0  0  0  0  0
  188.0200  177.2770  146.9560 C   0  0  0  0  0  2  0  0  0  0  0  0
  186.5510  176.9330  147.1450 C   0  0  0  0  0  2  0  0  0  0  0  0
  184.7050  178.4090  146.8910 O   0  0  0  0  0  1  0  0  0  0  0  0
  185.7990  178.1240  147.7070 C   0  0  0  0  0  2  0  0  0  0  0  0
  1  8  1  0  0  0  0
  2 23  1  1  0  0  0
  3  9  1  0  0  0  0
  4  5  2  0  0  0  0
  7  2  1  0  0  0  0
  7  5  1  1  0  0  0
  8  3  1  1  0  0  0
  8  7  1  0  0  0  0
  9 16  1  6  0  0  0
  9  4  1  0  0  0  0
 10  6  1  0  0  0  0
 10  1  1  0  0  0  0
 10 12  1  0  0  0  0
 11 10  1  0  0  0  0
 12 14  1  0  0  0  0
 13 12  2  0  0  0  0
 14  2  1  0  0  0  0
 15 18  2  0  0  0  0
 15 21  1  0  0  0  0
 16 19  2  0  0  0  0
 17 19  1  0  0  0  0
 17 22  1  0  0  0  0
 18 16  1  0  0  0  0
 20 15  1  0  0  0  0
 21 17  2  0  0  0  0
 23 24  1  0  0  0  0
 24 26  1  0  0  0  0
 25 26  1  0  0  0  0
M  END
>  <MODEL>
8

>  <REMARK>
 VINA RESULT:      -7.0      2.722      4.395
  Name = 
  4 active torsions:
  status: ('A' for Active; 'I' for Inactive)
    1  A    between atoms: C_3  and  C_17
    2  A    between atoms: C_3  and  C_26
    3  A    between atoms: C_5  and  C_16
    4  A    between atoms: C_6  and  C_17
                            x       y       z     vdW  Elec       q    Type
                         _______ _______ _______ _____ _____    ______ ____

>  <TORSDO>
F 4

$$$$
=
 OpenBabel11042418513D

 26 28  0  0  1  0  0  0  0  0999 V2000
  185.9250  176.9430  141.5190 O   0  0  0  0  0  0  0  0  0  0  0  0
  185.5270  178.9710  143.8170 C   0  0  1  0  0  3  0  0  0  0  0  0
  188.2530  176.7750  142.0850 C   0  0  0  0  0  2  0  0  0  0  0  0
  188.7770  177.1910  144.4770 C   0  0  0  0  0  3  0  0  0  0  0  0
  187.7010  177.9680  144.6300 C   0  0  0  0  0  3  0  0  0  0  0  0
  185.7130  179.1020  140.6370 F   0  0  0  0  0  0  0  0  0  0  0  0
  186.4980  177.7810  143.7340 C   0  0  2  0  0  3  0  0  0  0  0  0
  186.9400  177.5660  142.2660 C   0  0  2  0  0  3  0  0  0  0  0  0
  188.7750  176.1600  143.3880 C   0  0  2  0  0  3  0  0  0  0  0  0
  185.0610  177.9190  140.9710 C   0  0  0  0  0  0  0  0  0  0  0  0
  184.5230  177.4000  139.8050 F   0  0  0  0  0  0  0  0  0  0  0  0
  183.9480  178.2070  141.9400 C   0  0  0  0  0  0  0  0  0  0  0  0
  182.7500  178.0790  141.5720 O   0  0  0  0  0  0  0  0  0  0  0  0
  184.2150  178.6130  143.2860 N   0  0  0  0  0  2  0  0  0  0  0  0
  191.5190  173.7660  142.3790 C   0  0  0  0  0  0  0  0  0  0  0  0
  190.1330  175.5610  143.2020 C   0  0  0  0  0  0  0  0  0  0  0  0
  192.5330  175.6150  143.4700 C   0  0  0  0  0  0  0  0  0  0  0  0
  190.2520  174.3300  142.5550 C   0  0  0  0  0  3  0  0  0  0  0  0
  191.2860  176.2110  143.6660 C   0  0  0  0  0  3  0  0  0  0  0  0
  191.6520  172.5130  141.7200 N   0  0  0  0  0  1  0  0  0  0  0  0
  192.6230  174.4140  142.8360 N   0  0  0  0  0  0  0  0  0  0  0  0
  193.7110  176.2630  143.9350 N   0  0  0  0  0  1  0  0  0  0  0  0
  185.3420  179.4660  145.2520 C   0  0  0  0  0  2  0  0  0  0  0  0
  184.1200  178.8340  145.8990 C   0  0  0  0  0  2  0  0  0  0  0  0
  184.8790  176.6660  146.5120 O   0  0  0  0  0  1  0  0  0  0  0  0
  184.5380  177.9140  147.0300 C   0  0  0  0  0  2  0  0  0  0  0  0
  1  8  1  0  0  0  0
  2 23  1  1  0  0  0
  3  9  1  0  0  0  0
  4  5  2  0  0  0  0
  6 10  1  0  0  0  0
  7  2  1  0  0  0  0
  7  5  1  1  0  0  0
  8  3  1  1  0  0  0
  8  7  1  0  0  0  0
  9 16  1  6  0  0  0
  9  4  1  0  0  0  0
 10  1  1  0  0  0  0
 10 12  1  0  0  0  0
 11 10  1  0  0  0  0
 12 14  1  0  0  0  0
 13 12  2  0  0  0  0
 14  2  1  0  0  0  0
 15 18  2  0  0  0  0
 15 21  1  0  0  0  0
 16 19  2  0  0  0  0
 17 19  1  0  0  0  0
 17 22  1  0  0  0  0
 18 16  1  0  0  0  0
 20 15  1  0  0  0  0
 21 17  2  0  0  0  0
 23 24  1  0  0  0  0
 24 26  1  0  0  0  0
 25 26  1  0  0  0  0
M  END
>  <MODEL>
9

>  <REMARK>
 VINA RESULT:      -6.9      2.599      4.140
  Name = 
  4 active torsions:
  status: ('A' for Active; 'I' for Inactive)
    1  A    between atoms: C_3  and  C_17
    2  A    between atoms: C_3  and  C_26
    3  A    between atoms: C_5  and  C_16
    4  A    between atoms: C_6  and  C_17
                            x       y       z     vdW  Elec       q    Type
                         _______ _______ _______ _____ _____    ______ ____

>  <TORSDO>
F 4

$$$$
