=
 OpenBabel11042416493D

 29 30  0  0  1  0  0  0  0  0999 V2000
  184.4860  177.8670  145.7150 N   0  0  0  0  0  0  0  0  0  0  0  0
  189.4350  176.8130  144.0480 C   0  0  2  0  0  3  0  0  0  0  0  0
  188.0330  177.3170  143.6690 C   0  0  2  0  0  3  0  0  0  0  0  0
  187.2890  177.9200  144.8840 C   0  0  2  0  0  3  0  0  0  0  0  0
  184.9770  178.9470  144.9190 C   0  0  0  0  0  0  0  0  0  0  0  0
  186.7050  176.9130  145.8510 C   0  0  0  0  0  0  0  0  0  0  0  0
  188.9710  176.0270  146.4220 C   0  0  1  0  0  3  0  0  0  0  0  0
  185.2630  176.9230  146.1480 C   0  0  0  0  0  3  0  0  0  0  0  0
  189.4160  175.6250  145.0180 C   0  0  0  0  0  2  0  0  0  0  0  0
  184.2030  179.8780  144.5750 O   0  0  0  0  0  0  0  0  0  0  0  0
  186.3380  178.9550  144.4820 N   0  0  0  0  0  2  0  0  0  0  0  0
  187.4770  176.0630  146.5290 C   0  0  0  0  0  3  0  0  0  0  0  0
  185.9540  176.1890  143.1710 F   0  0  0  0  0  0  0  0  0  0  0  0
  187.2750  176.3040  142.7690 C   0  0  0  0  0  0  0  0  0  0  0  0
  187.8720  175.0610  142.9200 F   0  0  0  0  0  0  0  0  0  0  0  0
  187.3230  176.6590  141.2760 C   0  0  0  0  0  0  0  0  0  0  0  0
  187.7760  175.5830  140.5330 F   0  0  0  0  0  0  0  0  0  0  0  0
  186.0520  176.9920  140.8390 F   0  0  0  0  0  0  0  0  0  0  0  0
  188.1440  177.7470  141.0600 F   0  0  0  0  0  0  0  0  0  0  0  0
  190.9540  175.3740  147.7820 C   0  0  0  0  0  1  0  0  0  0  0  0
  189.5150  175.0390  147.4390 C   0  0  0  0  0  2  0  0  0  0  0  0
  190.2600  177.9030  144.5520 N   0  0  0  0  0  2  0  0  0  0  0  0
  191.2400  178.2160  143.5270 C   0  0  0  0  0  2  0  0  0  0  0  0
  192.0040  176.9600  143.1590 C   0  0  0  0  0  2  0  0  0  0  0  0
  193.1410  176.7160  144.1540 C   0  0  0  0  0  2  0  0  0  0  0  0
  192.6560  174.5260  144.6570 O   0  0  0  0  0  1  0  0  0  0  0  0
  193.6290  175.3300  144.1630 N   0  0  0  0  0  0  0  0  0  0  0  0
  194.4530  175.8190  146.4010 C   0  0  0  0  0  1  0  0  0  0  0  0
  194.7820  175.2200  145.0480 C   0  0  0  0  0  2  0  0  0  0  0  0
  1  8  2  0  0  0  0
  2 22  1  1  0  0  0
  2  9  1  0  0  0  0
  3 14  1  1  0  0  0
  3  2  1  0  0  0  0
  3  4  1  0  0  0  0
  4 11  1  6  0  0  0
  4  6  1  0  0  0  0
  5  1  1  0  0  0  0
  6  8  1  0  0  0  0
  6 12  2  0  0  0  0
  7 12  1  0  0  0  0
  7 21  1  1  0  0  0
  9  7  1  0  0  0  0
 10  5  2  0  0  0  0
 11  5  1  0  0  0  0
 14 15  1  0  0  0  0
 14 13  1  0  0  0  0
 16 14  1  0  0  0  0
 17 16  1  0  0  0  0
 18 16  1  0  0  0  0
 19 16  1  0  0  0  0
 21 20  1  0  0  0  0
 23 22  1  0  0  0  0
 24 23  1  0  0  0  0
 24 25  1  0  0  0  0
 25 27  1  0  0  0  0
 27 26  1  0  0  0  0
 27 29  1  0  0  0  0
 29 28  1  0  0  0  0
M  END
>  <MODEL>
1

>  <REMARK>
 VINA RESULT:      -6.9      0.000      0.000
  Name = 
  9 active torsions:
  status: ('A' for Active; 'I' for Inactive)
    1  A    between atoms: C_4  and  N_29
    2  A    between atoms: C_5  and  C_8
    3  A    between atoms: C_5  and  C_16
    4  A    between atoms: C_7  and  C_17
    5  A    between atoms: C_10  and  N_11
    6  A    between atoms: C_10  and  C_21
    7  A    between atoms: N_11  and  C_27
    8  A    between atoms: C_21  and  C_24
    9  A    between atoms: C_24  and  N_29
                            x       y       z     vdW  Elec       q    Type
                         _______ _______ _______ _____ _____    ______ ____

>  <TORSDO>
F 9

$$$$
=
 OpenBabel11042416493D

 29 30  0  0  1  0  0  0  0  0999 V2000
  184.5380  177.8490  142.1650 N   0  0  0  0  0  0  0  0  0  0  0  0
  189.4050  176.7220  144.0160 C   0  0  2  0  0  3  0  0  0  0  0  0
  188.4390  176.6550  142.8230 C   0  0  2  0  0  3  0  0  0  0  0  0
  187.3720  177.7740  142.8800 C   0  0  2  0  0  3  0  0  0  0  0  0
  185.5290  178.2310  141.2090 C   0  0  0  0  0  0  0  0  0  0  0  0
  186.2410  177.5420  143.8570 C   0  0  0  0  0  0  0  0  0  0  0  0
  187.8070  177.5700  145.8040 C   0  0  1  0  0  3  0  0  0  0  0  0
  184.8470  177.5250  143.3830 C   0  0  0  0  0  3  0  0  0  0  0  0
  188.7320  176.4380  145.3650 C   0  0  0  0  0  2  0  0  0  0  0  0
  185.1810  178.6030  140.0580 O   0  0  0  0  0  0  0  0  0  0  0  0
  186.9160  178.1610  141.5460 N   0  0  0  0  0  2  0  0  0  0  0  0
  186.4560  177.4450  145.1700 C   0  0  0  0  0  3  0  0  0  0  0  0
  186.5870  175.1160  142.6090 F   0  0  0  0  0  0  0  0  0  0  0  0
  187.9680  175.2020  142.5380 C   0  0  0  0  0  0  0  0  0  0  0  0
  188.4940  174.3770  143.5200 F   0  0  0  0  0  0  0  0  0  0  0  0
  188.4410  174.6630  141.1800 C   0  0  0  0  0  0  0  0  0  0  0  0
  187.9930  175.4720  140.1510 F   0  0  0  0  0  0  0  0  0  0  0  0
  189.8240  174.6360  141.1500 F   0  0  0  0  0  0  0  0  0  0  0  0
  187.9880  173.3730  140.9840 F   0  0  0  0  0  0  0  0  0  0  0  0
  186.3030  178.1310  147.7090 C   0  0  0  0  0  1  0  0  0  0  0  0
  187.6480  177.5510  147.3140 C   0  0  0  0  0  2  0  0  0  0  0  0
  190.1230  177.9900  144.0330 N   0  0  0  0  0  2  0  0  0  0  0  0
  191.3810  177.7860  143.3370 C   0  0  0  0  0  2  0  0  0  0  0  0
  191.9430  176.4270  143.6990 C   0  0  0  0  0  2  0  0  0  0  0  0
  193.1330  176.5760  144.6490 C   0  0  0  0  0  2  0  0  0  0  0  0
  193.8670  176.8170  146.8140 O   0  0  0  0  0  1  0  0  0  0  0  0
  192.7530  176.6150  146.0680 N   0  0  0  0  0  0  0  0  0  0  0  0
  191.3690  175.4920  147.7260 C   0  0  0  0  0  1  0  0  0  0  0  0
  192.1890  175.3290  146.4610 C   0  0  0  0  0  2  0  0  0  0  0  0
  1  8  2  0  0  0  0
  2 22  1  1  0  0  0
  2  9  1  0  0  0  0
  3 14  1  1  0  0  0
  3  4  1  0  0  0  0
  3  2  1  0  0  0  0
  4 11  1  6  0  0  0
  4  6  1  0  0  0  0
  5 11  1  0  0  0  0
  5  1  1  0  0  0  0
  6 12  2  0  0  0  0
  7 21  1  1  0  0  0
  8  6  1  0  0  0  0
  9  7  1  0  0  0  0
 10  5  2  0  0  0  0
 12  7  1  0  0  0  0
 14 13  1  0  0  0  0
 14 15  1  0  0  0  0
 16 14  1  0  0  0  0
 17 16  1  0  0  0  0
 18 16  1  0  0  0  0
 19 16  1  0  0  0  0
 21 20  1  0  0  0  0
 23 24  1  0  0  0  0
 23 22  1  0  0  0  0
 24 25  1  0  0  0  0
 25 27  1  0  0  0  0
 27 29  1  0  0  0  0
 27 26  1  0  0  0  0
 29 28  1  0  0  0  0
M  END
>  <MODEL>
2

>  <REMARK>
 VINA RESULT:      -6.7      1.987      2.725
  Name = 
  9 active torsions:
  status: ('A' for Active; 'I' for Inactive)
    1  A    between atoms: C_4  and  N_29
    2  A    between atoms: C_5  and  C_8
    3  A    between atoms: C_5  and  C_16
    4  A    between atoms: C_7  and  C_17
    5  A    between atoms: C_10  and  N_11
    6  A    between atoms: C_10  and  C_21
    7  A    between atoms: N_11  and  C_27
    8  A    between atoms: C_21  and  C_24
    9  A    between atoms: C_24  and  N_29
                            x       y       z     vdW  Elec       q    Type
                         _______ _______ _______ _____ _____    ______ ____

>  <TORSDO>
F 9

$$$$
=
 OpenBabel11042416493D

 29 30  0  0  1  0  0  0  0  0999 V2000
  190.4170  173.8540  140.8920 N   0  0  0  0  0  0  0  0  0  0  0  0
  188.7560  176.6260  145.1270 C   0  0  2  0  0  3  0  0  0  0  0  0
  188.4140  176.0980  143.7250 C   0  0  2  0  0  3  0  0  0  0  0  0
  189.2190  174.8230  143.3770 C   0  0  2  0  0  3  0  0  0  0  0  0
  189.0930  173.4560  141.2520 C   0  0  0  0  0  0  0  0  0  0  0  0
  190.6600  175.0550  142.9790 C   0  0  0  0  0  0  0  0  0  0  0  0
  191.2170  175.9890  145.2290 C   0  0  1  0  0  3  0  0  0  0  0  0
  191.1480  174.5910  141.6700 C   0  0  0  0  0  3  0  0  0  0  0  0
  190.2000  177.1280  145.2570 C   0  0  0  0  0  2  0  0  0  0  0  0
  188.4410  172.6850  140.5000 O   0  0  0  0  0  0  0  0  0  0  0  0
  188.4930  173.9580  142.4480 N   0  0  0  0  0  2  0  0  0  0  0  0
  191.5440  175.5880  143.8230 C   0  0  0  0  0  3  0  0  0  0  0  0
  189.5490  177.3310  141.9830 F   0  0  0  0  0  0  0  0  0  0  0  0
  188.3520  177.2400  142.6740 C   0  0  0  0  0  0  0  0  0  0  0  0
  188.1590  178.4360  143.3470 F   0  0  0  0  0  0  0  0  0  0  0  0
  187.1980  177.0840  141.6720 C   0  0  0  0  0  0  0  0  0  0  0  0
  187.6270  176.4250  140.5330 F   0  0  0  0  0  0  0  0  0  0  0  0
  186.1790  176.3470  142.2510 F   0  0  0  0  0  0  0  0  0  0  0  0
  186.6840  178.3180  141.3260 F   0  0  0  0  0  0  0  0  0  0  0  0
  193.2960  175.2040  146.3550 C   0  0  0  0  0  1  0  0  0  0  0  0
  192.4930  176.4190  145.9290 C   0  0  0  0  0  2  0  0  0  0  0  0
  188.4400  175.6350  146.1480 N   0  0  0  0  0  2  0  0  0  0  0  0
  187.5670  176.2720  147.1180 C   0  0  0  0  0  2  0  0  0  0  0  0
  186.4170  176.9440  146.3950 C   0  0  0  0  0  2  0  0  0  0  0  0
  186.0480  178.2590  147.0850 C   0  0  0  0  0  2  0  0  0  0  0  0
  183.9030  178.4840  146.2940 O   0  0  0  0  0  1  0  0  0  0  0  0
  185.1150  179.0890  146.3110 N   0  0  0  0  0  0  0  0  0  0  0  0
  184.4070  179.0010  143.9840 C   0  0  0  0  0  1  0  0  0  0  0  0
  185.5750  179.1920  144.9320 C   0  0  0  0  0  2  0  0  0  0  0  0
  1  5  1  0  0  0  0
  1  8  2  0  0  0  0
  2  9  1  0  0  0  0
  2 22  1  1  0  0  0
  3 14  1  6  0  0  0
  3  2  1  0  0  0  0
  4 11  1  6  0  0  0
  4  3  1  0  0  0  0
  5 11  1  0  0  0  0
  6  4  1  0  0  0  0
  6 12  2  0  0  0  0
  7  9  1  0  0  0  0
  7 21  1  6  0  0  0
  8  6  1  0  0  0  0
 10  5  2  0  0  0  0
 12  7  1  0  0  0  0
 13 14  1  0  0  0  0
 14 15  1  0  0  0  0
 16 18  1  0  0  0  0
 16 14  1  0  0  0  0
 17 16  1  0  0  0  0
 19 16  1  0  0  0  0
 21 20  1  0  0  0  0
 22 23  1  0  0  0  0
 24 25  1  0  0  0  0
 24 23  1  0  0  0  0
 26 27  1  0  0  0  0
 27 25  1  0  0  0  0
 28 29  1  0  0  0  0
 29 27  1  0  0  0  0
M  END
>  <MODEL>
3

>  <REMARK>
 VINA RESULT:      -6.6      2.423      5.868
  Name = 
  9 active torsions:
  status: ('A' for Active; 'I' for Inactive)
    1  A    between atoms: C_4  and  N_29
    2  A    between atoms: C_5  and  C_8
    3  A    between atoms: C_5  and  C_16
    4  A    between atoms: C_7  and  C_17
    5  A    between atoms: C_10  and  N_11
    6  A    between atoms: C_10  and  C_21
    7  A    between atoms: N_11  and  C_27
    8  A    between atoms: C_21  and  C_24
    9  A    between atoms: C_24  and  N_29
                            x       y       z     vdW  Elec       q    Type
                         _______ _______ _______ _____ _____    ______ ____

>  <TORSDO>
F 9

$$$$
=
 OpenBabel11042416493D

 29 30  0  0  1  0  0  0  0  0999 V2000
  184.7110  177.7110  142.6280 N   0  0  0  0  0  0  0  0  0  0  0  0
  189.8740  176.5580  143.2540 C   0  0  2  0  0  3  0  0  0  0  0  0
  188.6460  176.4880  142.3320 C   0  0  2  0  0  3  0  0  0  0  0  0
  187.6330  177.6180  142.6340 C   0  0  2  0  0  3  0  0  0  0  0  0
  185.4420  178.0760  141.4560 C   0  0  0  0  0  0  0  0  0  0  0  0
  186.7710  177.4050  143.8590 C   0  0  0  0  0  0  0  0  0  0  0  0
  188.7640  177.4380  145.3670 C   0  0  1  0  0  3  0  0  0  0  0  0
  185.3040  177.3970  143.7380 C   0  0  0  0  0  3  0  0  0  0  0  0
  189.5470  176.2920  144.7290 C   0  0  0  0  0  2  0  0  0  0  0  0
  184.8280  178.4390  140.4190 O   0  0  0  0  0  0  0  0  0  0  0  0
  186.8690  177.9960  141.4470 N   0  0  0  0  0  2  0  0  0  0  0  0
  187.2990  177.3190  145.0810 C   0  0  0  0  0  3  0  0  0  0  0  0
  186.7330  175.0100  142.3370 F   0  0  0  0  0  0  0  0  0  0  0  0
  188.1100  175.0370  142.1880 C   0  0  0  0  0  0  0  0  0  0  0  0
  188.6610  174.2700  143.2020 F   0  0  0  0  0  0  0  0  0  0  0  0
  188.4890  174.3770  140.8530 C   0  0  0  0  0  0  0  0  0  0  0  0
  187.9500  173.1060  140.7680 F   0  0  0  0  0  0  0  0  0  0  0  0
  187.9980  175.1360  139.8060 F   0  0  0  0  0  0  0  0  0  0  0  0
  189.8610  174.3060  140.7180 F   0  0  0  0  0  0  0  0  0  0  0  0
  190.3560  176.9020  147.2070 C   0  0  0  0  0  1  0  0  0  0  0  0
  188.9760  177.4340  146.8700 C   0  0  0  0  0  2  0  0  0  0  0  0
  190.5830  177.8190  143.0810 N   0  0  0  0  0  2  0  0  0  0  0  0
  191.9080  177.6540  143.6520 C   0  0  0  0  0  2  0  0  0  0  0  0
  192.6410  176.5510  142.9150 C   0  0  0  0  0  2  0  0  0  0  0  0
  193.5100  175.7470  143.8840 C   0  0  0  0  0  2  0  0  0  0  0  0
  195.5910  176.5490  144.4410 O   0  0  0  0  0  1  0  0  0  0  0  0
  194.2870  176.5810  144.8110 N   0  0  0  0  0  0  0  0  0  0  0  0
  193.2850  174.8240  146.1650 C   0  0  0  0  0  1  0  0  0  0  0  0
  194.1990  176.0330  146.1580 C   0  0  0  0  0  2  0  0  0  0  0  0
  1  8  2  0  0  0  0
  2 22  1  1  0  0  0
  2  9  1  0  0  0  0
  3 14  1  1  0  0  0
  3  4  1  0  0  0  0
  3  2  1  0  0  0  0
  4 11  1  6  0  0  0
  4  6  1  0  0  0  0
  5  1  1  0  0  0  0
  6 12  2  0  0  0  0
  7 21  1  1  0  0  0
  8  6  1  0  0  0  0
  9  7  1  0  0  0  0
 10  5  2  0  0  0  0
 11  5  1  0  0  0  0
 12  7  1  0  0  0  0
 14 13  1  0  0  0  0
 14 15  1  0  0  0  0
 16 14  1  0  0  0  0
 17 16  1  0  0  0  0
 18 16  1  0  0  0  0
 19 16  1  0  0  0  0
 21 20  1  0  0  0  0
 22 23  1  0  0  0  0
 24 23  1  0  0  0  0
 24 25  1  0  0  0  0
 25 27  1  0  0  0  0
 26 27  1  0  0  0  0
 27 29  1  0  0  0  0
 29 28  1  0  0  0  0
M  END
>  <MODEL>
4

>  <REMARK>
 VINA RESULT:      -6.5      1.953      2.321
  Name = 
  9 active torsions:
  status: ('A' for Active; 'I' for Inactive)
    1  A    between atoms: C_4  and  N_29
    2  A    between atoms: C_5  and  C_8
    3  A    between atoms: C_5  and  C_16
    4  A    between atoms: C_7  and  C_17
    5  A    between atoms: C_10  and  N_11
    6  A    between atoms: C_10  and  C_21
    7  A    between atoms: N_11  and  C_27
    8  A    between atoms: C_21  and  C_24
    9  A    between atoms: C_24  and  N_29
                            x       y       z     vdW  Elec       q    Type
                         _______ _______ _______ _____ _____    ______ ____

>  <TORSDO>
F 9

$$$$
=
 OpenBabel11042416493D

 29 30  0  0  1  0  0  0  0  0999 V2000
  193.4480  175.2250  145.6350 N   0  0  0  0  0  0  0  0  0  0  0  0
  188.7630  176.2350  143.3080 C   0  0  2  0  0  3  0  0  0  0  0  0
  189.7840  176.6600  144.3740 C   0  0  2  0  0  3  0  0  0  0  0  0
  191.2180  176.2030  144.0160 C   0  0  2  0  0  3  0  0  0  0  0  0
  193.3390  176.6170  145.3300 C   0  0  0  0  0  0  0  0  0  0  0  0
  191.5130  174.7400  144.2650 C   0  0  0  0  0  0  0  0  0  0  0  0
  189.8010  174.0260  142.5890 C   0  0  1  0  0  3  0  0  0  0  0  0
  192.6160  174.3500  145.1580 C   0  0  0  0  0  3  0  0  0  0  0  0
  188.5840  174.7140  143.2040 C   0  0  0  0  0  2  0  0  0  0  0  0
  194.2050  177.4230  145.7580 O   0  0  0  0  0  0  0  0  0  0  0  0
  192.2300  177.1000  144.5700 N   0  0  0  0  0  2  0  0  0  0  0  0
  190.8590  173.7730  143.6190 C   0  0  0  0  0  3  0  0  0  0  0  0
  190.2590  176.6470  146.7440 F   0  0  0  0  0  0  0  0  0  0  0  0
  189.2640  176.3950  145.8140 C   0  0  0  0  0  0  0  0  0  0  0  0
  188.9240  175.0550  145.9110 F   0  0  0  0  0  0  0  0  0  0  0  0
  188.0150  177.2140  146.1720 C   0  0  0  0  0  0  0  0  0  0  0  0
  187.8720  178.2870  145.3090 F   0  0  0  0  0  0  0  0  0  0  0  0
  186.8910  176.4130  146.0690 F   0  0  0  0  0  0  0  0  0  0  0  0
  188.0900  177.6740  147.4720 F   0  0  0  0  0  0  0  0  0  0  0  0
  190.0460  171.5490  142.7040 C   0  0  0  0  0  1  0  0  0  0  0  0
  189.3890  172.7030  141.9700 C   0  0  0  0  0  2  0  0  0  0  0  0
  189.0850  176.8250  142.0150 N   0  0  0  0  0  2  0  0  0  0  0  0
  188.3160  178.0510  141.8940 C   0  0  0  0  0  2  0  0  0  0  0  0
  186.8370  177.7270  141.9480 C   0  0  0  0  0  2  0  0  0  0  0  0
  186.0670  178.8560  142.6360 C   0  0  0  0  0  2  0  0  0  0  0  0
  183.8450  178.2910  142.7950 O   0  0  0  0  0  1  0  0  0  0  0  0
  184.9900  178.3840  143.5150 N   0  0  0  0  0  0  0  0  0  0  0  0
  184.1630  178.6640  145.7880 C   0  0  0  0  0  1  0  0  0  0  0  0
  184.7610  179.3550  144.5790 C   0  0  0  0  0  2  0  0  0  0  0  0
  2 22  1  6  0  0  0
  2  3  1  0  0  0  0
  3 14  1  1  0  0  0
  4  6  1  1  0  0  0
  4  3  1  0  0  0  0
  4 11  1  0  0  0  0
  5  1  1  0  0  0  0
  5 10  2  0  0  0  0
  6  8  1  0  0  0  0
  7 21  1  1  0  0  0
  7  9  1  0  0  0  0
  7 12  1  0  0  0  0
  8  1  2  0  0  0  0
  9  2  1  0  0  0  0
 11  5  1  0  0  0  0
 12  6  2  0  0  0  0
 14 15  1  0  0  0  0
 14 16  1  0  0  0  0
 14 13  1  0  0  0  0
 16 19  1  0  0  0  0
 17 16  1  0  0  0  0
 18 16  1  0  0  0  0
 21 20  1  0  0  0  0
 23 24  1  0  0  0  0
 23 22  1  0  0  0  0
 24 25  1  0  0  0  0
 25 27  1  0  0  0  0
 26 27  1  0  0  0  0
 27 29  1  0  0  0  0
 29 28  1  0  0  0  0
M  END
>  <MODEL>
5

>  <REMARK>
 VINA RESULT:      -6.5      2.686      6.559
  Name = 
  9 active torsions:
  status: ('A' for Active; 'I' for Inactive)
    1  A    between atoms: C_4  and  N_29
    2  A    between atoms: C_5  and  C_8
    3  A    between atoms: C_5  and  C_16
    4  A    between atoms: C_7  and  C_17
    5  A    between atoms: C_10  and  N_11
    6  A    between atoms: C_10  and  C_21
    7  A    between atoms: N_11  and  C_27
    8  A    between atoms: C_21  and  C_24
    9  A    between atoms: C_24  and  N_29
                            x       y       z     vdW  Elec       q    Type
                         _______ _______ _______ _____ _____    ______ ____

>  <TORSDO>
F 9

$$$$
=
 OpenBabel11042416493D

 29 30  0  0  1  0  0  0  0  0999 V2000
  185.9040  178.7180  146.3000 N   0  0  0  0  0  0  0  0  0  0  0  0
  188.3830  176.0660  142.4010 C   0  0  2  0  0  3  0  0  0  0  0  0
  188.4120  176.5060  143.8730 C   0  0  2  0  0  3  0  0  0  0  0  0
  186.9890  176.7490  144.4310 C   0  0  2  0  0  3  0  0  0  0  0  0
  186.3540  177.4480  146.7770 C   0  0  0  0  0  0  0  0  0  0  0  0
  186.3440  178.0530  144.0160 C   0  0  0  0  0  0  0  0  0  0  0  0
  186.3600  177.3880  141.6070 C   0  0  1  0  0  3  0  0  0  0  0  0
  185.8960  179.0140  145.0370 C   0  0  0  0  0  3  0  0  0  0  0  0
  187.8600  177.1500  141.4490 C   0  0  0  0  0  2  0  0  0  0  0  0
  186.2820  177.1760  148.0040 O   0  0  0  0  0  0  0  0  0  0  0  0
  186.9180  176.5000  145.8700 N   0  0  0  0  0  2  0  0  0  0  0  0
  186.0760  178.3270  142.7380 C   0  0  0  0  0  3  0  0  0  0  0  0
  189.2060  178.3010  145.2840 F   0  0  0  0  0  0  0  0  0  0  0  0
  189.5000  177.5820  144.1370 C   0  0  0  0  0  0  0  0  0  0  0  0
  189.4990  178.4680  143.0700 F   0  0  0  0  0  0  0  0  0  0  0  0
  190.9170  177.0020  144.2510 C   0  0  0  0  0  0  0  0  0  0  0  0
  191.8660  177.9920  144.0670 F   0  0  0  0  0  0  0  0  0  0  0  0
  191.0920  176.4520  145.5090 F   0  0  0  0  0  0  0  0  0  0  0  0
  191.1090  176.0000  143.3210 F   0  0  0  0  0  0  0  0  0  0  0  0
  184.3190  178.2910  140.4980 C   0  0  0  0  0  1  0  0  0  0  0  0
  185.7930  177.9730  140.3260 C   0  0  0  0  0  2  0  0  0  0  0  0
  187.6490  174.8170  142.2450 N   0  0  0  0  0  2  0  0  0  0  0  0
  188.5620  173.8440  141.6740 C   0  0  0  0  0  2  0  0  0  0  0  0
  188.1980  172.4590  142.1690 C   0  0  0  0  0  2  0  0  0  0  0  0
  189.1570  172.0190  143.2770 C   0  0  0  0  0  2  0  0  0  0  0  0
  191.3790  171.9170  142.6970 O   0  0  0  0  0  1  0  0  0  0  0  0
  190.4450  172.7250  143.2570 N   0  0  0  0  0  0  0  0  0  0  0  0
  189.6990  173.5210  145.4340 C   0  0  0  0  0  1  0  0  0  0  0  0
  190.8720  173.0080  144.6220 C   0  0  0  0  0  2  0  0  0  0  0  0
  1  5  1  0  0  0  0
  2 22  1  1  0  0  0
  2  3  1  0  0  0  0
  3 14  1  6  0  0  0
  3  4  1  0  0  0  0
  4  6  1  1  0  0  0
  4 11  1  0  0  0  0
  5 10  2  0  0  0  0
  6  8  1  0  0  0  0
  7 21  1  6  0  0  0
  7 12  1  0  0  0  0
  8  1  2  0  0  0  0
  9  7  1  0  0  0  0
  9  2  1  0  0  0  0
 11  5  1  0  0  0  0
 12  6  2  0  0  0  0
 14 16  1  0  0  0  0
 14 13  1  0  0  0  0
 15 14  1  0  0  0  0
 16 18  1  0  0  0  0
 17 16  1  0  0  0  0
 19 16  1  0  0  0  0
 21 20  1  0  0  0  0
 23 24  1  0  0  0  0
 23 22  1  0  0  0  0
 24 25  1  0  0  0  0
 26 27  1  0  0  0  0
 27 25  1  0  0  0  0
 27 29  1  0  0  0  0
 29 28  1  0  0  0  0
M  END
>  <MODEL>
6

>  <REMARK>
 VINA RESULT:      -6.4      2.959      4.836
  Name = 
  9 active torsions:
  status: ('A' for Active; 'I' for Inactive)
    1  A    between atoms: C_4  and  N_29
    2  A    between atoms: C_5  and  C_8
    3  A    between atoms: C_5  and  C_16
    4  A    between atoms: C_7  and  C_17
    5  A    between atoms: C_10  and  N_11
    6  A    between atoms: C_10  and  C_21
    7  A    between atoms: N_11  and  C_27
    8  A    between atoms: C_21  and  C_24
    9  A    between atoms: C_24  and  N_29
                            x       y       z     vdW  Elec       q    Type
                         _______ _______ _______ _____ _____    ______ ____

>  <TORSDO>
F 9

$$$$
=
 OpenBabel11042416493D

 29 30  0  0  1  0  0  0  0  0999 V2000
  194.4730  174.9650  143.7760 N   0  0  0  0  0  0  0  0  0  0  0  0
  189.2710  175.9570  144.3620 C   0  0  2  0  0  3  0  0  0  0  0  0
  190.6630  175.9800  145.0130 C   0  0  2  0  0  3  0  0  0  0  0  0
  191.7900  176.1140  143.9620 C   0  0  2  0  0  3  0  0  0  0  0  0
  194.2810  176.2450  144.3830 C   0  0  0  0  0  0  0  0  0  0  0  0
  192.1240  174.8460  143.2060 C   0  0  0  0  0  0  0  0  0  0  0  0
  189.8400  174.7480  142.1970 C   0  0  1  0  0  3  0  0  0  0  0  0
  193.4940  174.3080  143.2360 C   0  0  0  0  0  3  0  0  0  0  0  0
  189.0250  174.7200  143.4880 C   0  0  0  0  0  2  0  0  0  0  0  0
  195.2680  176.8800  144.8360 O   0  0  0  0  0  0  0  0  0  0  0  0
  192.9660  176.7910  144.5060 N   0  0  0  0  0  2  0  0  0  0  0  0
  191.2310  174.2410  142.4220 C   0  0  0  0  0  3  0  0  0  0  0  0
  192.1420  174.5860  146.3210 F   0  0  0  0  0  0  0  0  0  0  0  0
  190.8080  174.8940  146.1140 C   0  0  0  0  0  0  0  0  0  0  0  0
  190.1720  173.7440  145.6720 F   0  0  0  0  0  0  0  0  0  0  0  0
  190.1640  175.2910  147.4510 C   0  0  0  0  0  0  0  0  0  0  0  0
  188.9490  174.6500  147.6160 F   0  0  0  0  0  0  0  0  0  0  0  0
  191.0000  174.9280  148.4930 F   0  0  0  0  0  0  0  0  0  0  0  0
  189.9770  176.6580  147.5140 F   0  0  0  0  0  0  0  0  0  0  0  0
  188.4770  172.7030  141.7890 C   0  0  0  0  0  1  0  0  0  0  0  0
  189.1660  173.8900  141.1420 C   0  0  0  0  0  2  0  0  0  0  0  0
  189.0200  177.1900  143.6270 N   0  0  0  0  0  2  0  0  0  0  0  0
  187.9830  177.9160  144.3380 C   0  0  0  0  0  2  0  0  0  0  0  0
  186.6260  177.3680  143.9480 C   0  0  0  0  0  2  0  0  0  0  0  0
  185.7650  177.1380  145.1920 C   0  0  0  0  0  2  0  0  0  0  0  0
  186.4990  176.7900  147.3410 O   0  0  0  0  0  1  0  0  0  0  0  0
  186.3090  177.7550  146.4080 N   0  0  0  0  0  0  0  0  0  0  0  0
  184.0670  178.6650  146.1400 C   0  0  0  0  0  1  0  0  0  0  0  0
  185.3470  178.7070  146.9510 C   0  0  0  0  0  2  0  0  0  0  0  0
  1  5  1  0  0  0  0
  2 22  1  6  0  0  0
  2  3  1  0  0  0  0
  3 14  1  6  0  0  0
  4  6  1  1  0  0  0
  4 11  1  0  0  0  0
  4  3  1  0  0  0  0
  5 11  1  0  0  0  0
  5 10  2  0  0  0  0
  6  8  1  0  0  0  0
  7 21  1  6  0  0  0
  7 12  1  0  0  0  0
  7  9  1  0  0  0  0
  8  1  2  0  0  0  0
  9  2  1  0  0  0  0
 12  6  2  0  0  0  0
 14 13  1  0  0  0  0
 14 16  1  0  0  0  0
 15 14  1  0  0  0  0
 16 19  1  0  0  0  0
 16 17  1  0  0  0  0
 16 18  1  0  0  0  0
 21 20  1  0  0  0  0
 22 23  1  0  0  0  0
 24 23  1  0  0  0  0
 24 25  1  0  0  0  0
 25 27  1  0  0  0  0
 27 29  1  0  0  0  0
 27 26  1  0  0  0  0
 28 29  1  0  0  0  0
M  END
>  <MODEL>
7

>  <REMARK>
 VINA RESULT:      -6.4      3.013      7.081
  Name = 
  9 active torsions:
  status: ('A' for Active; 'I' for Inactive)
    1  A    between atoms: C_4  and  N_29
    2  A    between atoms: C_5  and  C_8
    3  A    between atoms: C_5  and  C_16
    4  A    between atoms: C_7  and  C_17
    5  A    between atoms: C_10  and  N_11
    6  A    between atoms: C_10  and  C_21
    7  A    between atoms: N_11  and  C_27
    8  A    between atoms: C_21  and  C_24
    9  A    between atoms: C_24  and  N_29
                            x       y       z     vdW  Elec       q    Type
                         _______ _______ _______ _____ _____    ______ ____

>  <TORSDO>
F 9

$$$$
=
 OpenBabel11042416493D

 29 30  0  0  1  0  0  0  0  0999 V2000
  194.4990  175.6770  146.1200 N   0  0  0  0  0  0  0  0  0  0  0  0
  189.6420  175.4130  143.9470 C   0  0  2  0  0  3  0  0  0  0  0  0
  190.6260  176.2350  144.7950 C   0  0  2  0  0  3  0  0  0  0  0  0
  192.0980  175.8920  144.4650 C   0  0  2  0  0  3  0  0  0  0  0  0
  194.1790  176.9130  145.4770 C   0  0  0  0  0  0  0  0  0  0  0  0
  192.6110  174.5990  145.0590 C   0  0  0  0  0  0  0  0  0  0  0  0
  190.9660  173.2490  143.7480 C   0  0  1  0  0  3  0  0  0  0  0  0
  193.7880  174.6070  145.9430 C   0  0  0  0  0  3  0  0  0  0  0  0
  189.6830  173.9090  144.2490 C   0  0  0  0  0  2  0  0  0  0  0  0
  194.9330  177.9110  145.6220 O   0  0  0  0  0  0  0  0  0  0  0  0
  192.9870  177.0290  144.6980 N   0  0  0  0  0  2  0  0  0  0  0  0
  192.0840  173.4180  144.7310 C   0  0  0  0  0  3  0  0  0  0  0  0
  191.2220  176.8060  147.0660 F   0  0  0  0  0  0  0  0  0  0  0  0
  190.1990  176.2930  146.2870 C   0  0  0  0  0  0  0  0  0  0  0  0
  189.9500  174.9980  146.7160 F   0  0  0  0  0  0  0  0  0  0  0  0
  188.9200  177.1100  146.5240 C   0  0  0  0  0  0  0  0  0  0  0  0
  189.0570  177.9140  147.6420 F   0  0  0  0  0  0  0  0  0  0  0  0
  188.6770  177.9180  145.4270 F   0  0  0  0  0  0  0  0  0  0  0  0
  187.8320  176.2760  146.6860 F   0  0  0  0  0  0  0  0  0  0  0  0
  189.9010  171.5520  142.2660 C   0  0  0  0  0  1  0  0  0  0  0  0
  190.7300  171.7680  143.5190 C   0  0  0  0  0  2  0  0  0  0  0  0
  189.8310  175.6780  142.5270 N   0  0  0  0  0  2  0  0  0  0  0  0
  188.5160  175.7110  141.9120 C   0  0  0  0  0  2  0  0  0  0  0  0
  187.7560  176.9230  142.4130 C   0  0  0  0  0  2  0  0  0  0  0  0
  186.3260  176.5360  142.7950 C   0  0  0  0  0  2  0  0  0  0  0  0
  185.9480  178.6010  141.8600 O   0  0  0  0  0  1  0  0  0  0  0  0
  185.3370  177.5880  142.5230 N   0  0  0  0  0  0  0  0  0  0  0  0
  185.5550  179.4180  144.1150 C   0  0  0  0  0  1  0  0  0  0  0  0
  184.8330  178.1270  143.7800 C   0  0  0  0  0  2  0  0  0  0  0  0
  2 22  1  6  0  0  0
  2  9  1  0  0  0  0
  2  3  1  0  0  0  0
  3 14  1  1  0  0  0
  4 11  1  1  0  0  0
  4  3  1  0  0  0  0
  4  6  1  0  0  0  0
  5 10  2  0  0  0  0
  5  1  1  0  0  0  0
  6  8  1  0  0  0  0
  7 21  1  1  0  0  0
  7  9  1  0  0  0  0
  7 12  1  0  0  0  0
  8  1  2  0  0  0  0
 11  5  1  0  0  0  0
 12  6  2  0  0  0  0
 14 16  1  0  0  0  0
 14 15  1  0  0  0  0
 14 13  1  0  0  0  0
 16 19  1  0  0  0  0
 16 17  1  0  0  0  0
 18 16  1  0  0  0  0
 20 21  1  0  0  0  0
 23 24  1  0  0  0  0
 23 22  1  0  0  0  0
 24 25  1  0  0  0  0
 26 27  1  0  0  0  0
 27 25  1  0  0  0  0
 27 29  1  0  0  0  0
 29 28  1  0  0  0  0
M  END
>  <MODEL>
8

>  <REMARK>
 VINA RESULT:      -6.3      2.985      6.762
  Name = 
  9 active torsions:
  status: ('A' for Active; 'I' for Inactive)
    1  A    between atoms: C_4  and  N_29
    2  A    between atoms: C_5  and  C_8
    3  A    between atoms: C_5  and  C_16
    4  A    between atoms: C_7  and  C_17
    5  A    between atoms: C_10  and  N_11
    6  A    between atoms: C_10  and  C_21
    7  A    between atoms: N_11  and  C_27
    8  A    between atoms: C_21  and  C_24
    9  A    between atoms: C_24  and  N_29
                            x       y       z     vdW  Elec       q    Type
                         _______ _______ _______ _____ _____    ______ ____

>  <TORSDO>
F 9

$$$$
=
 OpenBabel11042416493D

 29 30  0  0  1  0  0  0  0  0999 V2000
  185.9160  178.7820  146.2670 N   0  0  0  0  0  0  0  0  0  0  0  0
  188.2380  175.8710  142.4570 C   0  0  2  0  0  3  0  0  0  0  0  0
  188.2820  176.3400  143.9200 C   0  0  2  0  0  3  0  0  0  0  0  0
  186.8750  176.6980  144.4540 C   0  0  2  0  0  3  0  0  0  0  0  0
  186.2660  177.4930  146.7770 C   0  0  0  0  0  0  0  0  0  0  0  0
  186.3320  178.0360  144.0030 C   0  0  0  0  0  0  0  0  0  0  0  0
  186.3270  177.3190  141.6090 C   0  0  1  0  0  3  0  0  0  0  0  0
  185.9450  179.0490  144.9980 C   0  0  0  0  0  3  0  0  0  0  0  0
  187.8070  176.9680  141.4760 C   0  0  0  0  0  2  0  0  0  0  0  0
  186.1610  177.2540  148.0080 O   0  0  0  0  0  0  0  0  0  0  0  0
  186.7690  176.4860  145.8960 N   0  0  0  0  0  2  0  0  0  0  0  0
  186.0990  178.3010  142.7170 C   0  0  0  0  0  3  0  0  0  0  0  0
  189.2990  177.9480  145.4100 F   0  0  0  0  0  0  0  0  0  0  0  0
  189.4440  177.3390  144.1750 C   0  0  0  0  0  0  0  0  0  0  0  0
  189.3820  178.3290  143.2060 F   0  0  0  0  0  0  0  0  0  0  0  0
  190.8350  176.6940  144.0860 C   0  0  0  0  0  0  0  0  0  0  0  0
  191.3860  176.8940  142.8330 F   0  0  0  0  0  0  0  0  0  0  0  0
  191.6700  177.2630  145.0320 F   0  0  0  0  0  0  0  0  0  0  0  0
  190.7600  175.3400  144.3460 F   0  0  0  0  0  0  0  0  0  0  0  0
  184.3580  178.3020  140.4410 C   0  0  0  0  0  1  0  0  0  0  0  0
  185.8180  177.9150  140.3090 C   0  0  0  0  0  2  0  0  0  0  0  0
  187.4160  174.6760  142.3180 N   0  0  0  0  0  2  0  0  0  0  0  0
  188.3000  173.5270  142.4060 C   0  0  0  0  0  2  0  0  0  0  0  0
  189.5380  173.7790  141.5700 C   0  0  0  0  0  2  0  0  0  0  0  0
  189.9420  172.5100  140.8170 C   0  0  0  0  0  2  0  0  0  0  0  0
  190.2610  171.6540  138.7080 O   0  0  0  0  0  1  0  0  0  0  0  0
  189.4510  172.4630  139.4340 N   0  0  0  0  0  0  0  0  0  0  0  0
  188.1900  174.1340  138.1890 C   0  0  0  0  0  1  0  0  0  0  0  0
  189.5160  173.7940  138.8420 C   0  0  0  0  0  2  0  0  0  0  0  0
  1  5  1  0  0  0  0
  2 22  1  1  0  0  0
  2  3  1  0  0  0  0
  3 14  1  6  0  0  0
  3  4  1  0  0  0  0
  4  6  1  1  0  0  0
  4 11  1  0  0  0  0
  5 10  2  0  0  0  0
  6  8  1  0  0  0  0
  7 21  1  6  0  0  0
  7 12  1  0  0  0  0
  8  1  2  0  0  0  0
  9  7  1  0  0  0  0
  9  2  1  0  0  0  0
 11  5  1  0  0  0  0
 12  6  2  0  0  0  0
 14 13  1  0  0  0  0
 15 14  1  0  0  0  0
 16 14  1  0  0  0  0
 16 19  1  0  0  0  0
 16 18  1  0  0  0  0
 17 16  1  0  0  0  0
 21 20  1  0  0  0  0
 22 23  1  0  0  0  0
 24 23  1  0  0  0  0
 25 24  1  0  0  0  0
 26 27  1  0  0  0  0
 27 25  1  0  0  0  0
 28 29  1  0  0  0  0
 29 27  1  0  0  0  0
M  END
>  <MODEL>
9

>  <REMARK>
 VINA RESULT:      -6.3      3.433      5.415
  Name = 
  9 active torsions:
  status: ('A' for Active; 'I' for Inactive)
    1  A    between atoms: C_4  and  N_29
    2  A    between atoms: C_5  and  C_8
    3  A    between atoms: C_5  and  C_16
    4  A    between atoms: C_7  and  C_17
    5  A    between atoms: C_10  and  N_11
    6  A    between atoms: C_10  and  C_21
    7  A    between atoms: N_11  and  C_27
    8  A    between atoms: C_21  and  C_24
    9  A    between atoms: C_24  and  N_29
                            x       y       z     vdW  Elec       q    Type
                         _______ _______ _______ _____ _____    ______ ____

>  <TORSDO>
F 9

$$$$
