=
 OpenBabel11042417223D

 26 31  0  0  1  0  0  0  0  0999 V2000
  189.5860  175.2200  143.8790 C   0  0  1  0  0  3  0  0  0  0  0  0
  192.2070  175.2570  144.4060 C   0  0  2  0  0  3  0  0  0  0  0  0
  189.4400  176.1680  144.9630 N   0  0  0  0  0  0  0  0  0  0  0  0
  188.6560  174.7810  143.0240 C   0  0  0  0  0  2  0  0  0  0  0  0
  191.5710  176.5020  144.2920 C   0  0  2  0  0  0  0  0  0  0  0  0
  193.0530  176.4770  144.5410 C   0  0  1  0  0  3  0  0  0  0  0  0
  190.6620  176.7310  145.3800 O   0  0  0  0  0  0  0  0  0  0  0  0
  190.9110  175.3850  143.6570 N   0  0  2  0  0  0  0  0  0  0  0  0
  184.4750  178.2950  146.7110 N   0  0  0  0  0  0  0  0  0  0  0  0
  185.2540  179.0340  144.7480 C   0  0  0  0  0  3  0  0  0  0  0  0
  187.4490  177.7320  144.5260 C   0  0  0  0  0  2  0  0  0  0  0  0
  187.6720  176.2980  146.5850 C   0  0  0  0  0  3  0  0  0  0  0  0
  188.1890  176.7240  145.4070 C   0  0  0  0  0  0  0  0  0  0  0  0
  184.2130  179.0800  145.7410 N   0  0  0  0  0  0  0  0  0  0  0  0
  186.3820  176.7860  147.1280 C   0  0  0  0  0  3  0  0  0  0  0  0
  186.1730  178.1780  145.1620 C   0  0  0  0  0  0  0  0  0  0  0  0
  185.7120  177.6790  146.4140 C   0  0  0  0  0  0  0  0  0  0  0  0
  189.6630  171.9020  137.8250 Cl  0  0  0  0  0  0  0  0  0  0  0  0
  188.7370  173.9680  139.3540 C   0  0  0  0  0  3  0  0  0  0  0  0
  189.5660  172.8020  141.7550 C   0  0  0  0  0  3  0  0  0  0  0  0
  188.5110  174.6270  140.5660 C   0  0  0  0  0  3  0  0  0  0  0  0
  189.7930  172.1430  140.5440 C   0  0  0  0  0  3  0  0  0  0  0  0
  188.9260  174.0520  141.7730 C   0  0  0  0  0  0  0  0  0  0  0  0
  189.3790  172.7270  139.3430 C   0  0  0  0  0  0  0  0  0  0  0  0
  193.3840  176.6920  145.9810 C   0  0  0  0  0  3  0  0  0  0  0  0
  194.5240  177.1730  146.3120 N   0  0  0  0  0  2  0  0  0  0  0  0
  1  4  1  6  0  0  0
  1  3  1  0  0  0  0
  2  6  1  0  0  0  0
  3  7  1  0  0  0  0
  3 13  1  0  0  0  0
  5  2  1  0  0  0  0
  5  6  1  0  0  0  0
  5  7  1  0  0  0  0
  6 25  1  0  0  0  0
  8  1  1  0  0  0  0
  8  5  1  0  0  0  0
  8  2  1  0  0  0  0
 10 16  2  0  0  0  0
 10 14  1  0  0  0  0
 11 16  1  0  0  0  0
 11 13  1  0  0  0  0
 12 15  1  0  0  0  0
 13 12  2  0  0  0  0
 14  9  2  0  0  0  0
 16 17  1  0  0  0  0
 17  9  1  0  0  0  0
 17 15  2  0  0  0  0
 18 24  1  0  0  0  0
 19 21  1  0  0  0  0
 20 23  1  0  0  0  0
 21 23  2  0  0  0  0
 22 20  2  0  0  0  0
 23  4  1  0  0  0  0
 24 19  2  0  0  0  0
 24 22  1  0  0  0  0
 25 26  2  0  0  0  0
M  END
>  <MODEL>
1

>  <REMARK>
 VINA RESULT:      -7.3      0.000      0.000
  Name = 
  3 active torsions:
  status: ('A' for Active; 'I' for Inactive)
    1  A    between atoms: C_4  and  C_21
    2  A    between atoms: N_12  and  C_14
    3  A    between atoms: C_17  and  C_19
                            x       y       z     vdW  Elec       q    Type
                         _______ _______ _______ _____ _____    ______ ____

>  <TORSDO>
F 3

$$$$
=
 OpenBabel11042417223D

 26 31  0  0  1  0  0  0  0  0999 V2000
  189.5870  175.8400  142.9960 C   0  0  1  0  0  3  0  0  0  0  0  0
  189.8840  174.0040  141.0740 C   0  0  2  0  0  3  0  0  0  0  0  0
  188.2130  175.9550  142.5560 N   0  0  0  0  0  0  0  0  0  0  0  0
  190.1760  176.4140  144.0490 C   0  0  0  0  0  2  0  0  0  0  0  0
  188.7680  173.8620  141.9120 C   0  0  2  0  0  0  0  0  0  0  0  0
  189.0000  172.8260  140.8480 C   0  0  1  0  0  3  0  0  0  0  0  0
  187.8120  174.9120  141.6980 O   0  0  0  0  0  0  0  0  0  0  0  0
  189.8670  174.6400  142.4350 N   0  0  2  0  0  0  0  0  0  0  0  0
  184.4230  179.5300  144.8110 N   0  0  0  0  0  0  0  0  0  0  0  0
  184.8210  177.6390  145.9390 C   0  0  0  0  0  3  0  0  0  0  0  0
  186.5700  176.4980  144.4560 C   0  0  0  0  0  3  0  0  0  0  0  0
  186.9730  178.0120  142.4840 C   0  0  0  0  0  3  0  0  0  0  0  0
  187.2390  176.8490  143.1260 C   0  0  0  0  0  0  0  0  0  0  0  0
  184.1010  178.8840  145.8610 N   0  0  0  0  0  2  0  0  0  0  0  0
  186.0060  179.0150  142.9890 C   0  0  0  0  0  3  0  0  0  0  0  0
  185.6030  177.5560  144.8760 C   0  0  0  0  0  0  0  0  0  0  0  0
  185.3820  178.7480  144.1280 C   0  0  0  0  0  0  0  0  0  0  0  0
  195.5990  174.9120  146.2100 Cl  0  0  0  0  0  0  0  0  0  0  0  0
  193.9030  176.2090  144.5050 C   0  0  0  0  0  3  0  0  0  0  0  0
  191.6070  175.1550  145.6990 C   0  0  0  0  0  3  0  0  0  0  0  0
  192.6390  176.5510  144.0140 C   0  0  0  0  0  3  0  0  0  0  0  0
  192.8690  174.8130  146.1910 C   0  0  0  0  0  3  0  0  0  0  0  0
  191.4840  176.0310  144.6080 C   0  0  0  0  0  0  0  0  0  0  0  0
  194.0180  175.3410  145.5940 C   0  0  0  0  0  0  0  0  0  0  0  0
  188.1580  173.0650  139.6390 C   0  0  0  0  0  3  0  0  0  0  0  0
  188.5820  172.7130  138.4820 N   0  0  0  0  0  2  0  0  0  0  0  0
  1  4  1  1  0  0  0
  2  5  1  0  0  0  0
  2  8  1  0  0  0  0
  3  1  1  0  0  0  0
  3 13  1  0  0  0  0
  4 23  1  0  0  0  0
  5  8  1  0  0  0  0
  6  2  1  0  0  0  0
  6  5  1  0  0  0  0
  7  5  1  0  0  0  0
  7  3  1  0  0  0  0
  8  1  1  0  0  0  0
  9 14  1  0  0  0  0
 11 16  1  0  0  0  0
 12 15  2  0  0  0  0
 12 13  1  0  0  0  0
 13 11  2  0  0  0  0
 14 10  1  0  0  0  0
 15 17  1  0  0  0  0
 16 10  2  0  0  0  0
 17  9  2  0  0  0  0
 17 16  1  0  0  0  0
 19 24  1  0  0  0  0
 20 22  1  0  0  0  0
 21 19  2  0  0  0  0
 21 23  1  0  0  0  0
 23 20  2  0  0  0  0
 24 22  2  0  0  0  0
 24 18  1  0  0  0  0
 25  6  1  0  0  0  0
 26 25  2  0  0  0  0
M  END
>  <MODEL>
2

>  <REMARK>
 VINA RESULT:      -7.2      2.963      5.385
  Name = 
  3 active torsions:
  status: ('A' for Active; 'I' for Inactive)
    1  A    between atoms: C_4  and  C_21
    2  A    between atoms: N_12  and  C_14
    3  A    between atoms: C_17  and  C_19
                            x       y       z     vdW  Elec       q    Type
                         _______ _______ _______ _____ _____    ______ ____

>  <TORSDO>
F 3

$$$$
=
 OpenBabel11042417223D

 26 31  0  0  1  0  0  0  0  0999 V2000
  190.0910  175.6980  143.6290 C   0  0  1  0  0  3  0  0  0  0  0  0
  190.1060  174.0930  141.4890 C   0  0  2  0  0  3  0  0  0  0  0  0
  188.6690  175.8470  143.4020 N   0  0  0  0  0  0  0  0  0  0  0  0
  190.8250  176.1560  144.6470 C   0  0  0  0  0  2  0  0  0  0  0  0
  189.1180  173.8470  142.4540 C   0  0  2  0  0  0  0  0  0  0  0  0
  189.1930  172.9390  141.2580 C   0  0  1  0  0  3  0  0  0  0  0  0
  188.1470  174.9030  142.4960 O   0  0  0  0  0  0  0  0  0  0  0  0
  190.2830  174.5710  142.9030 N   0  0  2  0  0  0  0  0  0  0  0  0
  185.2480  179.1100  146.5440 N   0  0  0  0  0  0  0  0  0  0  0  0
  186.0980  177.2930  147.5350 C   0  0  0  0  0  3  0  0  0  0  0  0
  187.5170  176.2830  145.6570 C   0  0  0  0  0  3  0  0  0  0  0  0
  187.2600  177.7780  143.6460 C   0  0  0  0  0  3  0  0  0  0  0  0
  187.7900  176.6600  144.2000 C   0  0  0  0  0  0  0  0  0  0  0  0
  185.2650  178.4630  147.6420 N   0  0  0  0  0  2  0  0  0  0  0  0
  186.3600  178.6980  144.3800 C   0  0  0  0  0  3  0  0  0  0  0  0
  186.5900  177.2560  146.3080 C   0  0  0  0  0  0  0  0  0  0  0  0
  186.0730  178.4030  145.6400 C   0  0  0  0  0  0  0  0  0  0  0  0
  196.3750  174.2770  146.0660 Cl  0  0  0  0  0  0  0  0  0  0  0  0
  193.6510  174.0720  145.9920 C   0  0  0  0  0  3  0  0  0  0  0  0
  193.3250  176.4900  144.6300 C   0  0  0  0  0  3  0  0  0  0  0  0
  192.3690  174.5170  145.6560 C   0  0  0  0  0  3  0  0  0  0  0  0
  194.6060  176.0450  144.9650 C   0  0  0  0  0  3  0  0  0  0  0  0
  192.1970  175.7250  144.9710 C   0  0  0  0  0  0  0  0  0  0  0  0
  194.7690  174.8350  145.6460 C   0  0  0  0  0  0  0  0  0  0  0  0
  188.1900  173.3050  140.2130 C   0  0  0  0  0  3  0  0  0  0  0  0
  188.1650  172.6720  139.0990 N   0  0  0  0  0  2  0  0  0  0  0  0
  1  4  1  1  0  0  0
  2  5  1  0  0  0  0
  2  8  1  0  0  0  0
  3  1  1  0  0  0  0
  3 13  1  0  0  0  0
  4 23  1  0  0  0  0
  5  7  1  0  0  0  0
  5  8  1  0  0  0  0
  6  2  1  0  0  0  0
  6  5  1  0  0  0  0
  7  3  1  0  0  0  0
  8  1  1  0  0  0  0
  9 14  1  0  0  0  0
 10 14  1  0  0  0  0
 11 16  1  0  0  0  0
 12 13  1  0  0  0  0
 12 15  2  0  0  0  0
 13 11  2  0  0  0  0
 15 17  1  0  0  0  0
 16 10  2  0  0  0  0
 17 16  1  0  0  0  0
 17  9  2  0  0  0  0
 20 22  2  0  0  0  0
 20 23  1  0  0  0  0
 21 19  1  0  0  0  0
 22 24  1  0  0  0  0
 23 21  2  0  0  0  0
 24 19  2  0  0  0  0
 24 18  1  0  0  0  0
 25  6  1  0  0  0  0
 26 25  2  0  0  0  0
M  END
>  <MODEL>
3

>  <REMARK>
 VINA RESULT:      -7.2      2.826      5.382
  Name = 
  3 active torsions:
  status: ('A' for Active; 'I' for Inactive)
    1  A    between atoms: C_4  and  C_21
    2  A    between atoms: N_12  and  C_14
    3  A    between atoms: C_17  and  C_19
                            x       y       z     vdW  Elec       q    Type
                         _______ _______ _______ _____ _____    ______ ____

>  <TORSDO>
F 3

$$$$
=
 OpenBabel11042417223D

 26 31  0  0  1  0  0  0  0  0999 V2000
  189.3950  175.0830  144.0540 C   0  0  1  0  0  3  0  0  0  0  0  0
  188.0040  174.2300  141.9350 C   0  0  2  0  0  3  0  0  0  0  0  0
  190.5710  174.5750  143.3800 N   0  0  0  0  0  0  0  0  0  0  0  0
  189.3230  175.7840  145.1890 C   0  0  0  0  0  2  0  0  0  0  0  0
  189.1560  174.9860  141.6690 C   0  0  2  0  0  0  0  0  0  0  0  0
  188.3170  174.5260  140.5090 C   0  0  1  0  0  3  0  0  0  0  0  0
  190.3490  174.2710  142.0230 O   0  0  0  0  0  0  0  0  0  0  0  0
  188.5730  175.1480  142.9800 N   0  0  2  0  0  0  0  0  0  0  0  0
  195.8200  174.8060  145.5290 N   0  0  0  0  0  0  0  0  0  0  0  0
  195.4230  176.0400  143.7050 C   0  0  0  0  0  3  0  0  0  0  0  0
  192.9550  175.5250  143.2480 C   0  0  0  0  0  2  0  0  0  0  0  0
  192.1940  173.9040  145.0200 C   0  0  0  0  0  3  0  0  0  0  0  0
  191.9090  174.6260  143.9090 C   0  0  0  0  0  0  0  0  0  0  0  0
  196.3640  175.6170  144.7090 N   0  0  0  0  0  0  0  0  0  0  0  0
  193.5300  173.8990  145.6620 C   0  0  0  0  0  3  0  0  0  0  0  0
  194.2690  175.4410  143.9530 C   0  0  0  0  0  0  0  0  0  0  0  0
  194.4790  174.6440  145.1140 C   0  0  0  0  0  0  0  0  0  0  0  0
  184.4490  178.6770  147.2430 Cl  0  0  0  0  0  0  0  0  0  0  0  0
  186.4200  176.7880  147.3580 C   0  0  0  0  0  3  0  0  0  0  0  0
  187.5720  177.5810  144.9390 C   0  0  0  0  0  3  0  0  0  0  0  0
  187.5510  176.1260  146.8720 C   0  0  0  0  0  3  0  0  0  0  0  0
  186.4410  178.2440  145.4250 C   0  0  0  0  0  3  0  0  0  0  0  0
  188.1370  176.5190  145.6630 C   0  0  0  0  0  0  0  0  0  0  0  0
  185.8660  177.8470  146.6350 C   0  0  0  0  0  0  0  0  0  0  0  0
  188.8780  173.3020  139.8620 C   0  0  0  0  0  3  0  0  0  0  0  0
  188.1840  172.6580  138.9990 N   0  0  0  0  0  2  0  0  0  0  0  0
  1  4  1  6  0  0  0
  2  8  1  0  0  0  0
  3 13  1  0  0  0  0
  3  1  1  0  0  0  0
  4 23  1  0  0  0  0
  5  2  1  0  0  0  0
  5  7  1  0  0  0  0
  5  8  1  0  0  0  0
  6  5  1  0  0  0  0
  6  2  1  0  0  0  0
  7  3  1  0  0  0  0
  8  1  1  0  0  0  0
 10 16  2  0  0  0  0
 10 14  1  0  0  0  0
 11 13  1  0  0  0  0
 11 16  1  0  0  0  0
 12 15  1  0  0  0  0
 13 12  2  0  0  0  0
 14  9  2  0  0  0  0
 16 17  1  0  0  0  0
 17  9  1  0  0  0  0
 17 15  2  0  0  0  0
 20 22  2  0  0  0  0
 20 23  1  0  0  0  0
 21 19  1  0  0  0  0
 22 24  1  0  0  0  0
 23 21  2  0  0  0  0
 24 18  1  0  0  0  0
 24 19  2  0  0  0  0
 25  6  1  0  0  0  0
 26 25  2  0  0  0  0
M  END
>  <MODEL>
4

>  <REMARK>
 VINA RESULT:      -6.9      3.420      7.678
  Name = 
  3 active torsions:
  status: ('A' for Active; 'I' for Inactive)
    1  A    between atoms: C_4  and  C_21
    2  A    between atoms: N_12  and  C_14
    3  A    between atoms: C_17  and  C_19
                            x       y       z     vdW  Elec       q    Type
                         _______ _______ _______ _____ _____    ______ ____

>  <TORSDO>
F 3

$$$$
=
 OpenBabel11042417223D

 26 31  0  0  1  0  0  0  0  0999 V2000
  190.4720  175.5320  143.8970 C   0  0  1  0  0  3  0  0  0  0  0  0
  190.4670  174.1160  141.6280 C   0  0  2  0  0  3  0  0  0  0  0  0
  189.0500  175.7040  143.6930 N   0  0  0  0  0  0  0  0  0  0  0  0
  191.2150  175.9000  144.9450 C   0  0  0  0  0  2  0  0  0  0  0  0
  189.4850  173.7910  142.5750 C   0  0  2  0  0  0  0  0  0  0  0  0
  189.5490  172.9880  141.3060 C   0  0  1  0  0  3  0  0  0  0  0  0
  188.5180  174.8420  142.7150 O   0  0  0  0  0  0  0  0  0  0  0  0
  190.6560  174.4710  143.0760 N   0  0  2  0  0  0  0  0  0  0  0  0
  185.5760  178.5790  147.1420 N   0  0  0  0  0  0  0  0  0  0  0  0
  185.6260  179.2210  144.9990 C   0  0  0  0  0  3  0  0  0  0  0  0
  187.3210  177.5810  143.9980 C   0  0  0  0  0  2  0  0  0  0  0  0
  188.1050  176.0880  145.8690 C   0  0  0  0  0  3  0  0  0  0  0  0
  188.1780  176.4490  144.5650 C   0  0  0  0  0  0  0  0  0  0  0  0
  185.0820  179.4160  146.3170 N   0  0  0  0  0  0  0  0  0  0  0  0
  187.2280  176.7700  146.8500 C   0  0  0  0  0  3  0  0  0  0  0  0
  186.4860  178.2170  145.0600 C   0  0  0  0  0  0  0  0  0  0  0  0
  186.4820  177.7750  146.4140 C   0  0  0  0  0  0  0  0  0  0  0  0
  196.8850  174.1610  146.0230 Cl  0  0  0  0  0  0  0  0  0  0  0  0
  194.9440  175.9860  145.4170 C   0  0  0  0  0  3  0  0  0  0  0  0
  192.8850  174.0990  145.5150 C   0  0  0  0  0  3  0  0  0  0  0  0
  193.6250  176.3770  145.1710 C   0  0  0  0  0  3  0  0  0  0  0  0
  194.2040  173.7070  145.7630 C   0  0  0  0  0  3  0  0  0  0  0  0
  192.5870  175.4400  145.2210 C   0  0  0  0  0  0  0  0  0  0  0  0
  195.2340  174.6520  145.7140 C   0  0  0  0  0  0  0  0  0  0  0  0
  188.5400  173.4440  140.3030 C   0  0  0  0  0  3  0  0  0  0  0  0
  188.1920  172.6670  139.3460 N   0  0  0  0  0  2  0  0  0  0  0  0
  1  4  1  1  0  0  0
  2  5  1  0  0  0  0
  2  8  1  0  0  0  0
  3  1  1  0  0  0  0
  3 13  1  0  0  0  0
  4 23  1  0  0  0  0
  5  7  1  0  0  0  0
  5  8  1  0  0  0  0
  6  2  1  0  0  0  0
  6  5  1  0  0  0  0
  7  3  1  0  0  0  0
  8  1  1  0  0  0  0
 10 16  2  0  0  0  0
 10 14  1  0  0  0  0
 11 13  1  0  0  0  0
 11 16  1  0  0  0  0
 12 15  1  0  0  0  0
 13 12  2  0  0  0  0
 14  9  2  0  0  0  0
 16 17  1  0  0  0  0
 17 15  2  0  0  0  0
 17  9  1  0  0  0  0
 19 24  1  0  0  0  0
 20 22  1  0  0  0  0
 21 23  1  0  0  0  0
 21 19  2  0  0  0  0
 23 20  2  0  0  0  0
 24 22  2  0  0  0  0
 24 18  1  0  0  0  0
 25  6  1  0  0  0  0
 26 25  2  0  0  0  0
M  END
>  <MODEL>
5

>  <REMARK>
 VINA RESULT:      -6.9      2.859      5.226
  Name = 
  3 active torsions:
  status: ('A' for Active; 'I' for Inactive)
    1  A    between atoms: C_4  and  C_21
    2  A    between atoms: N_12  and  C_14
    3  A    between atoms: C_17  and  C_19
                            x       y       z     vdW  Elec       q    Type
                         _______ _______ _______ _____ _____    ______ ____

>  <TORSDO>
F 3

$$$$
=
 OpenBabel11042417223D

 26 31  0  0  1  0  0  0  0  0999 V2000
  190.2430  175.7050  144.3930 C   0  0  1  0  0  3  0  0  0  0  0  0
  192.2040  176.7900  145.8520 C   0  0  2  0  0  3  0  0  0  0  0  0
  191.2520  174.8220  143.8480 N   0  0  0  0  0  0  0  0  0  0  0  0
  188.9210  175.6820  144.1970 C   0  0  0  0  0  2  0  0  0  0  0  0
  192.1190  175.3900  145.8550 C   0  0  2  0  0  0  0  0  0  0  0  0
  193.1770  176.0440  146.6990 C   0  0  1  0  0  3  0  0  0  0  0  0
  192.4590  174.8390  144.5740 O   0  0  0  0  0  0  0  0  0  0  0  0
  190.9150  176.1030  145.4990 N   0  0  2  0  0  0  0  0  0  0  0  0
  190.3500  170.7860  139.9590 N   0  0  0  0  0  0  0  0  0  0  0  0
  190.7440  172.8520  139.1950 C   0  0  0  0  0  3  0  0  0  0  0  0
  191.0690  174.1660  141.3700 C   0  0  0  0  0  3  0  0  0  0  0  0
  190.7760  172.5390  143.2710 C   0  0  0  0  0  3  0  0  0  0  0  0
  191.0080  173.8080  142.8560 C   0  0  0  0  0  0  0  0  0  0  0  0
  190.4620  171.4730  138.8910 N   0  0  0  0  0  0  0  0  0  0  0  0
  190.5340  171.4130  142.3380 C   0  0  0  0  0  3  0  0  0  0  0  0
  190.7970  172.9750  140.5110 C   0  0  0  0  0  0  0  0  0  0  0  0
  190.5520  171.6750  141.0390 C   0  0  1  0  0  3  0  0  0  0  0  0
  184.8490  178.7870  147.3770 Cl  0  0  0  0  0  0  0  0  0  0  0  0
  186.3240  178.2310  145.1460 C   0  0  0  0  0  3  0  0  0  0  0  0
  187.6330  176.0640  146.3300 C   0  0  0  0  0  3  0  0  0  0  0  0
  187.2690  177.5020  144.4180 C   0  0  0  0  0  3  0  0  0  0  0  0
  186.6870  176.7910  147.0580 C   0  0  0  0  0  3  0  0  0  0  0  0
  187.9270  176.4130  145.0020 C   0  0  0  0  0  0  0  0  0  0  0  0
  186.0320  177.8750  146.4650 C   0  0  0  0  0  0  0  0  0  0  0  0
  194.5110  176.0380  146.0290 C   0  0  0  0  0  3  0  0  0  0  0  0
  194.9430  177.0970  145.4510 N   0  0  0  0  0  2  0  0  0  0  0  0
  1  4  1  1  0  0  0
  1  8  1  0  0  0  0
  2  5  1  0  0  0  0
  2  6  1  0  0  0  0
  3  1  1  0  0  0  0
  3  7  1  0  0  0  0
  4 23  1  0  0  0  0
  5  6  1  0  0  0  0
  7  5  1  0  0  0  0
  8  2  1  0  0  0  0
  8  5  1  0  0  0  0
  9 17  1  0  0  0  0
 10 16  2  0  0  0  0
 11 13  2  0  0  0  0
 13 12  1  0  0  0  0
 13  3  1  0  0  0  0
 14 10  1  0  0  0  0
 14  9  2  0  0  0  0
 15 12  2  0  0  0  0
 16 17  1  0  0  0  0
 16 11  1  0  0  0  0
 17 15  1  0  0  0  0
 19 24  1  0  0  0  0
 20 22  1  0  0  0  0
 21 23  1  0  0  0  0
 21 19  2  0  0  0  0
 23 20  2  0  0  0  0
 24 22  2  0  0  0  0
 24 18  1  0  0  0  0
 25  6  1  0  0  0  0
 26 25  2  0  0  0  0
M  END
>  <MODEL>
6

>  <REMARK>
 VINA RESULT:      -6.5      3.462      6.781
  Name = 
  3 active torsions:
  status: ('A' for Active; 'I' for Inactive)
    1  A    between atoms: C_4  and  C_21
    2  A    between atoms: N_12  and  C_14
    3  A    between atoms: C_17  and  C_19
                            x       y       z     vdW  Elec       q    Type
                         _______ _______ _______ _____ _____    ______ ____

>  <TORSDO>
F 3

$$$$
=
 OpenBabel11042417223D

 26 31  0  0  1  0  0  0  0  0999 V2000
  188.4090  177.1920  144.0490 C   0  0  1  0  0  3  0  0  0  0  0  0
  186.1680  177.9930  145.2680 C   0  0  2  0  0  3  0  0  0  0  0  0
  188.9900  177.0890  145.3710 N   0  0  0  0  0  0  0  0  0  0  0  0
  188.9370  176.8310  142.8750 C   0  0  0  0  0  2  0  0  0  0  0  0
  186.7830  176.8400  145.7770 C   0  0  2  0  0  0  0  0  0  0  0  0
  185.4950  177.2990  146.4020 C   0  0  1  0  0  3  0  0  0  0  0  0
  188.0370  177.1450  146.4060 O   0  0  0  0  0  0  0  0  0  0  0  0
  187.1050  177.1880  144.4130 N   0  0  2  0  0  0  0  0  0  0  0  0
  194.3290  175.5310  146.5120 N   0  0  0  0  0  0  0  0  0  0  0  0
  194.0140  176.7910  144.6900 C   0  0  0  0  0  3  0  0  0  0  0  0
  191.4790  177.1530  144.7310 C   0  0  0  0  0  2  0  0  0  0  0  0
  190.5860  175.9310  146.7440 C   0  0  0  0  0  3  0  0  0  0  0  0
  190.3450  176.6850  145.6440 C   0  0  0  0  0  0  0  0  0  0  0  0
  194.9380  176.0880  145.5410 N   0  0  0  0  0  0  0  0  0  0  0  0
  191.9420  175.4750  147.1330 C   0  0  0  0  0  3  0  0  0  0  0  0
  192.8010  176.6340  145.1920 C   0  0  0  0  0  0  0  0  0  0  0  0
  192.9570  175.8350  146.3610 C   0  0  0  0  0  0  0  0  0  0  0  0
  185.9660  176.1070  137.6810 Cl  0  0  0  0  0  0  0  0  0  0  0  0
  187.6160  175.3020  139.7040 C   0  0  0  0  0  3  0  0  0  0  0  0
  187.3950  177.7190  141.0890 C   0  0  0  0  0  3  0  0  0  0  0  0
  188.2980  175.4810  140.9110 C   0  0  0  0  0  3  0  0  0  0  0  0
  186.7110  177.5410  139.8840 C   0  0  0  0  0  3  0  0  0  0  0  0
  188.1910  176.6870  141.6130 C   0  0  0  0  0  0  0  0  0  0  0  0
  186.8210  176.3310  139.1910 C   0  0  0  0  0  0  0  0  0  0  0  0
  185.7260  178.0700  147.6600 C   0  0  0  0  0  3  0  0  0  0  0  0
  185.7180  179.3510  147.6370 N   0  0  0  0  0  2  0  0  0  0  0  0
  1  4  1  6  0  0  0
  1  8  1  0  0  0  0
  1  3  1  0  0  0  0
  2  5  1  0  0  0  0
  2  6  1  0  0  0  0
  3 13  1  0  0  0  0
  3  7  1  0  0  0  0
  5  6  1  0  0  0  0
  5  7  1  0  0  0  0
  6 25  1  0  0  0  0
  8  2  1  0  0  0  0
  8  5  1  0  0  0  0
 10 16  2  0  0  0  0
 10 14  1  0  0  0  0
 11 16  1  0  0  0  0
 11 13  1  0  0  0  0
 12 15  1  0  0  0  0
 13 12  2  0  0  0  0
 14  9  2  0  0  0  0
 16 17  1  0  0  0  0
 17  9  1  0  0  0  0
 17 15  2  0  0  0  0
 18 24  1  0  0  0  0
 19 21  1  0  0  0  0
 20 23  1  0  0  0  0
 21 23  2  0  0  0  0
 22 20  2  0  0  0  0
 23  4  1  0  0  0  0
 24 19  2  0  0  0  0
 24 22  1  0  0  0  0
 26 25  2  0  0  0  0
M  END
>  <MODEL>
7

>  <REMARK>
 VINA RESULT:      -6.4      2.187      5.955
  Name = 
  3 active torsions:
  status: ('A' for Active; 'I' for Inactive)
    1  A    between atoms: C_4  and  C_21
    2  A    between atoms: N_12  and  C_14
    3  A    between atoms: C_17  and  C_19
                            x       y       z     vdW  Elec       q    Type
                         _______ _______ _______ _____ _____    ______ ____

>  <TORSDO>
F 3

$$$$
=
 OpenBabel11042417223D

 26 31  0  0  1  0  0  0  0  0999 V2000
  190.3920  175.7280  144.3230 C   0  0  1  0  0  3  0  0  0  0  0  0
  192.3340  176.8040  145.8150 C   0  0  2  0  0  3  0  0  0  0  0  0
  191.4070  174.8420  143.7930 N   0  0  0  0  0  0  0  0  0  0  0  0
  189.0740  175.7100  144.1060 C   0  0  0  0  0  2  0  0  0  0  0  0
  192.2440  175.4050  145.8140 C   0  0  2  0  0  0  0  0  0  0  0  0
  193.2900  176.0540  146.6760 C   0  0  1  0  0  3  0  0  0  0  0  0
  192.6020  174.8540  144.5380 O   0  0  0  0  0  0  0  0  0  0  0  0
  191.0480  176.1230  145.4400 N   0  0  2  0  0  0  0  0  0  0  0  0
  190.4260  170.8760  139.8520 N   0  0  0  0  0  0  0  0  0  0  0  0
  190.8590  170.1520  141.9240 C   0  0  0  0  0  3  0  0  0  0  0  0
  191.1930  172.3530  143.1920 C   0  0  0  0  0  3  0  0  0  0  0  0
  190.8970  174.2210  141.5290 C   0  0  0  0  0  3  0  0  0  0  0  0
  191.1750  173.8300  142.7960 C   0  0  0  0  0  0  0  0  0  0  0  0
  190.5490  169.8220  140.5580 N   0  0  0  0  0  0  0  0  0  0  0  0
  190.6220  173.2670  140.4280 C   0  0  0  0  0  3  0  0  0  0  0  0
  190.9230  171.4700  142.0190 C   0  0  0  0  0  0  0  0  0  0  0  0
  190.6480  171.9730  140.7140 C   0  0  2  0  0  3  0  0  0  0  0  0
  184.9780  178.5990  147.4550 Cl  0  0  0  0  0  0  0  0  0  0  0  0
  186.9090  176.7180  147.0100 C   0  0  0  0  0  3  0  0  0  0  0  0
  187.3150  177.5000  144.3590 C   0  0  0  0  0  3  0  0  0  0  0  0
  187.8570  176.0570  146.2240 C   0  0  0  0  0  3  0  0  0  0  0  0
  186.3680  178.1620  145.1440 C   0  0  0  0  0  3  0  0  0  0  0  0
  188.0700  176.4440  144.8960 C   0  0  0  0  0  0  0  0  0  0  0  0
  186.1650  177.7700  146.4710 C   0  0  0  0  0  0  0  0  0  0  0  0
  194.6360  176.0440  146.0270 C   0  0  0  0  0  3  0  0  0  0  0  0
  195.0760  177.0980  145.4480 N   0  0  0  0  0  2  0  0  0  0  0  0
  1  4  1  1  0  0  0
  1  8  1  0  0  0  0
  2  6  1  0  0  0  0
  3  1  1  0  0  0  0
  3  7  1  0  0  0  0
  4 23  1  0  0  0  0
  5  2  1  0  0  0  0
  5  6  1  0  0  0  0
  7  5  1  0  0  0  0
  8  5  1  0  0  0  0
  8  2  1  0  0  0  0
  9 14  2  0  0  0  0
  9 17  1  0  0  0  0
 10 16  2  0  0  0  0
 12 13  1  0  0  0  0
 13 11  2  0  0  0  0
 13  3  1  0  0  0  0
 14 10  1  0  0  0  0
 15 17  1  0  0  0  0
 15 12  2  0  0  0  0
 16 11  1  0  0  0  0
 17 16  1  0  0  0  0
 20 23  2  0  0  0  0
 20 22  1  0  0  0  0
 21 19  2  0  0  0  0
 22 24  2  0  0  0  0
 23 21  1  0  0  0  0
 24 19  1  0  0  0  0
 24 18  1  0  0  0  0
 25  6  1  0  0  0  0
 26 25  2  0  0  0  0
M  END
>  <MODEL>
8

>  <REMARK>
 VINA RESULT:      -6.4      3.467      6.982
  Name = 
  3 active torsions:
  status: ('A' for Active; 'I' for Inactive)
    1  A    between atoms: C_4  and  C_21
    2  A    between atoms: N_12  and  C_14
    3  A    between atoms: C_17  and  C_19
                            x       y       z     vdW  Elec       q    Type
                         _______ _______ _______ _____ _____    ______ ____

>  <TORSDO>
F 3

$$$$
=
 OpenBabel11042417223D

 26 31  0  0  1  0  0  0  0  0999 V2000
  189.1800  175.0630  142.0710 C   0  0  1  0  0  3  0  0  0  0  0  0
  188.7720  172.9290  140.5120 C   0  0  2  0  0  3  0  0  0  0  0  0
  190.5170  174.5480  142.2810 N   0  0  0  0  0  0  0  0  0  0  0  0
  188.6610  176.2250  142.4780 C   0  0  0  0  0  2  0  0  0  0  0  0
  189.9480  173.6580  140.2840 C   0  0  2  0  0  0  0  0  0  0  0  0
  189.6550  172.4780  139.4000 C   0  0  1  0  0  3  0  0  0  0  0  0
  190.8690  173.5270  141.3770 O   0  0  0  0  0  0  0  0  0  0  0  0
  188.8790  174.3610  140.9530 N   0  0  2  0  0  0  0  0  0  0  0  0
  194.5050  176.9440  145.5340 N   0  0  0  0  0  0  0  0  0  0  0  0
  192.6950  176.1460  146.5810 C   0  0  0  0  0  3  0  0  0  0  0  0
  191.3230  175.2170  144.6280 C   0  0  0  0  0  3  0  0  0  0  0  0
  192.6350  175.6560  142.5230 C   0  0  0  0  0  3  0  0  0  0  0  0
  191.5160  175.1690  143.1110 C   0  0  0  0  0  0  0  0  0  0  0  0
  193.9710  176.8040  146.6840 N   0  0  0  0  0  2  0  0  0  0  0  0
  193.7360  176.2950  143.2810 C   0  0  0  0  0  3  0  0  0  0  0  0
  192.4720  175.8910  145.3030 C   0  0  0  0  0  0  0  0  0  0  0  0
  193.6070  176.3830  144.5970 C   0  0  0  0  0  0  0  0  0  0  0  0
  183.4430  178.5910  140.6030 Cl  0  0  0  0  0  0  0  0  0  0  0  0
  185.1030  177.4410  142.4430 C   0  0  0  0  0  3  0  0  0  0  0  0
  187.2560  177.2820  140.6700 C   0  0  0  0  0  3  0  0  0  0  0  0
  186.3190  176.8970  142.8670 C   0  0  0  0  0  3  0  0  0  0  0  0
  186.0420  177.8270  140.2460 C   0  0  0  0  0  3  0  0  0  0  0  0
  187.4030  176.8160  141.9860 C   0  0  0  0  0  0  0  0  0  0  0  0
  184.9650  177.9080  141.1340 C   0  0  0  0  0  0  0  0  0  0  0  0
  190.4030  171.2580  139.8270 C   0  0  0  0  0  3  0  0  0  0  0  0
  190.3180  170.1810  139.1390 N   0  0  0  0  0  2  0  0  0  0  0  0
  1  3  1  0  0  0  0
  1  4  1  6  0  0  0
  2  8  1  0  0  0  0
  3 13  1  0  0  0  0
  5  2  1  0  0  0  0
  5  8  1  0  0  0  0
  5  7  1  0  0  0  0
  6 25  1  0  0  0  0
  6  5  1  0  0  0  0
  6  2  1  0  0  0  0
  7  3  1  0  0  0  0
  8  1  1  0  0  0  0
  9 14  1  0  0  0  0
 10 14  1  0  0  0  0
 11 16  1  0  0  0  0
 12 13  1  0  0  0  0
 12 15  2  0  0  0  0
 13 11  2  0  0  0  0
 15 17  1  0  0  0  0
 16 10  2  0  0  0  0
 17 16  1  0  0  0  0
 17  9  2  0  0  0  0
 18 24  1  0  0  0  0
 19 21  1  0  0  0  0
 20 23  1  0  0  0  0
 22 20  2  0  0  0  0
 22 24  1  0  0  0  0
 23  4  1  0  0  0  0
 23 21  2  0  0  0  0
 24 19  2  0  0  0  0
 26 25  2  0  0  0  0
M  END
>  <MODEL>
9

>  <REMARK>
 VINA RESULT:      -6.3      3.732      6.714
  Name = 
  3 active torsions:
  status: ('A' for Active; 'I' for Inactive)
    1  A    between atoms: C_4  and  C_21
    2  A    between atoms: N_12  and  C_14
    3  A    between atoms: C_17  and  C_19
                            x       y       z     vdW  Elec       q    Type
                         _______ _______ _______ _____ _____    ______ ____

>  <TORSDO>
F 3

$$$$
