=
 OpenBabel11042415103D

 27 31  0  0  1  0  0  0  0  0999 V2000
  188.7220  176.9750  145.4020 C   0  0  0  0  0  0  0  0  0  0  0  0
  190.0140  176.4570  145.8960 C   0  0  0  0  0  0  0  0  0  0  0  0
  193.4560  175.5540  144.8410 C   0  0  2  0  0  3  0  0  0  0  0  0
  194.6110  175.0630  145.4470 O   0  0  0  0  0  1  0  0  0  0  0  0
  192.7950  175.2350  142.5330 C   0  0  0  0  0  3  0  0  0  0  0  0
  193.5950  176.0660  143.4530 C   0  0  0  0  0  2  0  0  0  0  0  0
  192.3030  175.6470  145.5410 C   0  0  0  0  0  0  0  0  0  0  0  0
  186.5420  177.9930  145.7400 C   0  0  0  0  0  0  0  0  0  0  0  0
  188.4800  176.9240  144.0310 C   0  0  2  0  0  3  0  0  0  0  0  0
  185.5210  178.6000  146.6560 C   0  0  0  0  0  2  0  0  0  0  0  0
  187.2800  177.4100  143.5020 C   0  0  0  0  0  3  0  0  0  0  0  0
  185.1080  178.4300  143.8260 O   0  0  0  0  0  0  0  0  0  0  0  0
  190.1960  176.3180  147.2770 C   0  0  0  0  0  3  0  0  0  0  0  0
  191.0280  176.0270  144.9850 C   0  0  0  0  0  0  0  0  0  0  0  0
  187.7490  177.5150  146.2600 C   0  0  0  0  0  3  0  0  0  0  0  0
  191.4760  175.1590  142.6380 C   0  0  0  0  0  0  0  0  0  0  0  0
  192.4150  175.4840  146.9310 C   0  0  0  0  0  3  0  0  0  0  0  0
  186.3130  177.9540  144.3520 C   0  0  0  0  0  0  0  0  0  0  0  0
  184.1680  179.1420  144.6310 C   0  0  0  0  0  2  0  0  0  0  0  0
  189.4420  176.3680  143.1940 O   0  0  0  0  0  0  0  0  0  0  0  0
  184.1230  178.5510  146.0380 C   0  0  0  0  0  2  0  0  0  0  0  0
  190.6820  175.8950  143.6580 C   0  0  0  0  0  0  0  0  0  0  0  0
  191.3750  175.8040  147.7910 C   0  0  0  0  0  3  0  0  0  0  0  0
  190.7510  174.3660  141.6020 C   0  0  0  0  0  2  0  0  0  0  0  0
  190.1150  173.2140  142.2160 N   0  0  0  0  0  2  0  0  0  0  0  0
  188.7480  172.9860  142.0270 C   0  0  0  0  0  0  0  0  0  0  0  0
  187.6180  172.7980  141.8700 N   0  0  0  0  0  0  0  0  0  0  0  0
  1  2  2  0  0  0  0
  1 15  1  0  0  0  0
  2 13  1  0  0  0  0
  3  4  1  1  0  0  0
  3  7  1  0  0  0  0
  5 16  2  0  0  0  0
  5  6  1  0  0  0  0
  6  3  1  0  0  0  0
  7 17  2  0  0  0  0
  8 15  2  0  0  0  0
  8 10  1  0  0  0  0
  9 11  1  1  0  0  0
  9  1  1  0  0  0  0
 11 18  2  0  0  0  0
 12 18  1  0  0  0  0
 12 19  1  0  0  0  0
 13 23  2  0  0  0  0
 14  7  1  0  0  0  0
 14  2  1  0  0  0  0
 16 22  1  0  0  0  0
 17 23  1  0  0  0  0
 18  8  1  0  0  0  0
 19 21  1  0  0  0  0
 20 22  1  0  0  0  0
 20  9  1  0  0  0  0
 21 10  1  0  0  0  0
 22 14  2  0  0  0  0
 24 25  1  0  0  0  0
 24 16  1  0  0  0  0
 26 25  1  0  0  0  0
 27 26  3  0  0  0  0
M  END
>  <MODEL>
1

>  <REMARK>
 VINA RESULT:      -7.7      0.000      0.000
  Name = 
  3 active torsions:
  status: ('A' for Active; 'I' for Inactive)
    1  A    between atoms: C_7  and  C_19
    2  A    between atoms: C_7  and  N_25
    3  A    between atoms: C_11  and  N_25
                            x       y       z     vdW  Elec       q    Type
                         _______ _______ _______ _____ _____    ______ ____

>  <TORSDO>
F 3

$$$$
=
 OpenBabel11042415103D

 27 31  0  0  1  0  0  0  0  0999 V2000
  188.3190  176.4950  145.2390 C   0  0  0  0  0  0  0  0  0  0  0  0
  189.5970  175.9910  145.7850 C   0  0  0  0  0  0  0  0  0  0  0  0
  192.7230  174.2070  144.8770 C   0  0  2  0  0  3  0  0  0  0  0  0
  193.8840  173.7940  145.5270 O   0  0  0  0  0  1  0  0  0  0  0  0
  191.7100  173.1690  142.9380 C   0  0  0  0  0  3  0  0  0  0  0  0
  192.7250  174.1370  143.3930 C   0  0  0  0  0  2  0  0  0  0  0  0
  191.6990  174.7420  145.5800 C   0  0  0  0  0  0  0  0  0  0  0  0
  186.3470  177.9090  145.3380 C   0  0  0  0  0  0  0  0  0  0  0  0
  187.8820  175.9790  144.0210 C   0  0  2  0  0  3  0  0  0  0  0  0
  185.5450  178.9720  146.0290 C   0  0  0  0  0  2  0  0  0  0  0  0
  186.6880  176.4240  143.4480 C   0  0  0  0  0  3  0  0  0  0  0  0
  184.7200  177.8340  143.5320 O   0  0  0  0  0  0  0  0  0  0  0  0
  189.9530  176.3460  147.0910 C   0  0  0  0  0  3  0  0  0  0  0  0
  190.4130  175.0930  145.0300 C   0  0  0  0  0  0  0  0  0  0  0  0
  187.5490  177.4660  145.8990 C   0  0  0  0  0  3  0  0  0  0  0  0
  190.4190  173.3560  143.1740 C   0  0  0  0  0  0  0  0  0  0  0  0
  191.9850  175.0910  146.9110 C   0  0  0  0  0  3  0  0  0  0  0  0
  185.9220  177.3960  144.0980 C   0  0  0  0  0  0  0  0  0  0  0  0
  183.9950  178.9380  144.0740 C   0  0  0  0  0  2  0  0  0  0  0  0
  188.6440  175.0020  143.3870 O   0  0  0  0  0  0  0  0  0  0  0  0
  184.0780  178.9280  145.5980 C   0  0  0  0  0  2  0  0  0  0  0  0
  189.8710  174.5370  143.8930 C   0  0  0  0  0  0  0  0  0  0  0  0
  191.1220  175.8730  147.6630 C   0  0  0  0  0  3  0  0  0  0  0  0
  189.4660  172.3660  142.5920 C   0  0  0  0  0  2  0  0  0  0  0  0
  189.5960  172.3460  141.1460 N   0  0  0  0  0  2  0  0  0  0  0  0
  189.0050  173.3540  140.3760 C   0  0  0  0  0  0  0  0  0  0  0  0
  188.5170  174.1870  139.7400 N   0  0  0  0  0  0  0  0  0  0  0  0
  1  2  2  0  0  0  0
  1 15  1  0  0  0  0
  2 13  1  0  0  0  0
  3  4  1  6  0  0  0
  3  7  1  0  0  0  0
  5 16  2  0  0  0  0
  5  6  1  0  0  0  0
  6  3  1  0  0  0  0
  7 17  2  0  0  0  0
  8 15  2  0  0  0  0
  8 10  1  0  0  0  0
  9 11  1  1  0  0  0
  9  1  1  0  0  0  0
 11 18  2  0  0  0  0
 12 19  1  0  0  0  0
 12 18  1  0  0  0  0
 13 23  2  0  0  0  0
 14  7  1  0  0  0  0
 14  2  1  0  0  0  0
 16 22  1  0  0  0  0
 17 23  1  0  0  0  0
 18  8  1  0  0  0  0
 19 21  1  0  0  0  0
 20 22  1  0  0  0  0
 20  9  1  0  0  0  0
 21 10  1  0  0  0  0
 22 14  2  0  0  0  0
 24 16  1  0  0  0  0
 25 24  1  0  0  0  0
 26 25  1  0  0  0  0
 27 26  3  0  0  0  0
M  END
>  <MODEL>
2

>  <REMARK>
 VINA RESULT:      -7.6      1.246      1.394
  Name = 
  3 active torsions:
  status: ('A' for Active; 'I' for Inactive)
    1  A    between atoms: C_7  and  C_19
    2  A    between atoms: C_7  and  N_25
    3  A    between atoms: C_11  and  N_25
                            x       y       z     vdW  Elec       q    Type
                         _______ _______ _______ _____ _____    ______ ____

>  <TORSDO>
F 3

$$$$
=
 OpenBabel11042415103D

 27 31  0  0  1  0  0  0  0  0999 V2000
  189.1660  175.5070  143.2870 C   0  0  0  0  0  0  0  0  0  0  0  0
  188.9970  176.2160  144.5720 C   0  0  0  0  0  0  0  0  0  0  0  0
  186.4560  177.6490  146.8670 C   0  0  2  0  0  3  0  0  0  0  0  0
  186.4490  178.3080  148.0950 O   0  0  0  0  0  1  0  0  0  0  0  0
  184.8150  177.8780  145.1010 C   0  0  0  0  0  3  0  0  0  0  0  0
  185.1430  177.1750  146.3550 C   0  0  0  0  0  2  0  0  0  0  0  0
  187.6240  177.3730  146.2440 C   0  0  0  0  0  0  0  0  0  0  0  0
  190.4520  174.1620  141.7260 C   0  0  0  0  0  0  0  0  0  0  0  0
  188.1050  175.5310  142.3840 C   0  0  2  0  0  3  0  0  0  0  0  0
  191.6990  173.3970  141.3920 C   0  0  0  0  0  2  0  0  0  0  0  0
  188.2010  174.8700  141.1560 C   0  0  0  0  0  3  0  0  0  0  0  0
  189.4700  173.5230  139.5940 O   0  0  0  0  0  0  0  0  0  0  0  0
  190.1120  176.3710  145.4030 C   0  0  0  0  0  3  0  0  0  0  0  0
  187.7430  176.8050  144.9250 C   0  0  0  0  0  0  0  0  0  0  0  0
  190.3440  174.8180  142.9560 C   0  0  0  0  0  3  0  0  0  0  0  0
  185.5650  177.7490  144.0160 C   0  0  0  0  0  0  0  0  0  0  0  0
  188.7850  177.5410  147.0180 C   0  0  0  0  0  3  0  0  0  0  0  0
  189.3690  174.1760  140.8270 C   0  0  0  0  0  0  0  0  0  0  0  0
  190.5720  172.6680  139.2880 C   0  0  0  0  0  2  0  0  0  0  0  0
  186.9520  176.2350  142.7140 O   0  0  0  0  0  0  0  0  0  0  0  0
  191.8600  173.2340  139.8800 C   0  0  0  0  0  2  0  0  0  0  0  0
  186.7780  176.8910  143.9460 C   0  0  0  0  0  0  0  0  0  0  0  0
  190.0160  177.0570  146.6020 C   0  0  0  0  0  3  0  0  0  0  0  0
  185.0950  178.4280  142.7730 C   0  0  0  0  0  2  0  0  0  0  0  0
  183.6520  178.3120  142.6610 N   0  0  0  0  0  2  0  0  0  0  0  0
  183.0590  178.1460  141.4050 C   0  0  0  0  0  0  0  0  0  0  0  0
  182.5700  178.0080  140.3660 N   0  0  0  0  0  0  0  0  0  0  0  0
  1  2  2  0  0  0  0
  2 14  1  0  0  0  0
  2 13  1  0  0  0  0
  3  4  1  1  0  0  0
  5  6  1  0  0  0  0
  6  3  1  0  0  0  0
  7  3  1  0  0  0  0
  7 17  2  0  0  0  0
  8 15  2  0  0  0  0
  9 11  1  6  0  0  0
  9 20  1  0  0  0  0
  9  1  1  0  0  0  0
 10  8  1  0  0  0  0
 12 18  1  0  0  0  0
 13 23  2  0  0  0  0
 14  7  1  0  0  0  0
 15  1  1  0  0  0  0
 16  5  2  0  0  0  0
 18 11  2  0  0  0  0
 18  8  1  0  0  0  0
 19 12  1  0  0  0  0
 19 21  1  0  0  0  0
 20 22  1  0  0  0  0
 21 10  1  0  0  0  0
 22 16  1  0  0  0  0
 22 14  2  0  0  0  0
 23 17  1  0  0  0  0
 24 16  1  0  0  0  0
 25 24  1  0  0  0  0
 26 25  1  0  0  0  0
 27 26  3  0  0  0  0
M  END
>  <MODEL>
3

>  <REMARK>
 VINA RESULT:      -7.6      3.119      6.630
  Name = 
  3 active torsions:
  status: ('A' for Active; 'I' for Inactive)
    1  A    between atoms: C_7  and  C_19
    2  A    between atoms: C_7  and  N_25
    3  A    between atoms: C_11  and  N_25
                            x       y       z     vdW  Elec       q    Type
                         _______ _______ _______ _____ _____    ______ ____

>  <TORSDO>
F 3

$$$$
=
 OpenBabel11042415103D

 27 31  0  0  1  0  0  0  0  0999 V2000
  189.5250  176.7720  144.0860 C   0  0  0  0  0  0  0  0  0  0  0  0
  188.3980  176.9250  143.1420 C   0  0  0  0  0  0  0  0  0  0  0  0
  185.0740  178.5200  142.7120 C   0  0  2  0  0  3  0  0  0  0  0  0
  184.0940  178.5790  141.7230 O   0  0  0  0  0  1  0  0  0  0  0  0
  184.7250  178.7170  145.1000 C   0  0  0  0  0  3  0  0  0  0  0  0
  184.9360  179.4680  143.8490 C   0  0  0  0  0  2  0  0  0  0  0  0
  186.1450  177.7070  142.5660 C   0  0  0  0  0  0  0  0  0  0  0  0
  191.8300  176.2140  144.6100 C   0  0  0  0  0  0  0  0  0  0  0  0
  189.2990  177.0770  145.4270 C   0  0  0  0  0  0  0  0  0  0  0  0
  193.1970  175.7870  144.1620 C   0  0  0  0  0  2  0  0  0  0  0  0
  190.3290  176.9630  146.3650 C   0  0  0  0  0  3  0  0  0  0  0  0
  192.6270  176.4160  146.8990 O   0  0  0  0  0  0  0  0  0  0  0  0
  188.5460  176.4400  141.8380 C   0  0  0  0  0  3  0  0  0  0  0  0
  187.1530  177.4800  143.5720 C   0  0  0  0  0  0  0  0  0  0  0  0
  190.7970  176.3410  143.6760 C   0  0  0  0  0  2  0  0  0  0  0  0
  185.6460  177.8910  145.5770 C   0  0  0  0  0  0  0  0  0  0  0  0
  186.3300  177.1610  141.2850 C   0  0  0  0  0  3  0  0  0  0  0  0
  191.5980  176.5410  145.9590 C   0  0  0  0  0  0  0  0  0  0  0  0
  193.9730  176.1510  146.5050 C   0  0  0  0  0  2  0  0  0  0  0  0
  188.0290  177.4830  145.8230 O   0  0  0  0  0  0  0  0  0  0  0  0
  193.9980  175.1900  145.3190 C   0  0  0  0  0  2  0  0  0  0  0  0
  186.9610  177.6510  144.9250 C   0  0  0  0  0  0  0  0  0  0  0  0
  187.5090  176.5260  140.9250 C   0  0  0  0  0  3  0  0  0  0  0  0
  185.3740  177.2510  146.8970 C   0  0  0  0  0  2  0  0  0  0  0  0
  185.3010  178.2650  147.9340 N   0  0  0  0  0  2  0  0  0  0  0  0
  186.4690  178.8910  148.3830 C   0  0  0  0  0  0  0  0  0  0  0  0
  187.4340  179.4080  148.7550 N   0  0  0  0  0  0  0  0  0  0  0  0
  1  9  1  0  0  0  0
  2 14  1  0  0  0  0
  2  1  2  0  0  0  0
  3  4  1  6  0  0  0
  3  6  1  0  0  0  0
  5 16  2  0  0  0  0
  6  5  1  0  0  0  0
  7  3  1  0  0  0  0
  7 14  1  0  0  0  0
  8 18  2  0  0  0  0
  9 20  1  0  0  0  0
  9 11  2  0  0  0  0
 10  8  1  0  0  0  0
 10 21  1  0  0  0  0
 13  2  1  0  0  0  0
 14 22  2  0  0  0  0
 15  1  1  0  0  0  0
 15  8  1  0  0  0  0
 16 24  1  0  0  0  0
 17  7  2  0  0  0  0
 18 11  1  0  0  0  0
 18 12  1  0  0  0  0
 19 12  1  0  0  0  0
 21 19  1  0  0  0  0
 22 16  1  0  0  0  0
 22 20  1  0  0  0  0
 23 17  1  0  0  0  0
 23 13  2  0  0  0  0
 24 25  1  0  0  0  0
 25 26  1  0  0  0  0
 26 27  3  0  0  0  0
M  END
>  <MODEL>
4

>  <REMARK>
 VINA RESULT:      -7.6      2.908      7.457
  Name = 
  3 active torsions:
  status: ('A' for Active; 'I' for Inactive)
    1  A    between atoms: C_7  and  C_19
    2  A    between atoms: C_7  and  N_25
    3  A    between atoms: C_11  and  N_25
                            x       y       z     vdW  Elec       q    Type
                         _______ _______ _______ _____ _____    ______ ____

>  <TORSDO>
F 3

$$$$
=
 OpenBabel11042415103D

 27 31  0  0  1  0  0  0  0  0999 V2000
  188.8830  177.0870  144.4250 C   0  0  0  0  0  0  0  0  0  0  0  0
  190.0020  176.8440  145.3590 C   0  0  0  0  0  0  0  0  0  0  0  0
  193.6100  175.9890  145.5190 C   0  0  2  0  0  3  0  0  0  0  0  0
  194.5670  175.7910  146.5130 O   0  0  0  0  0  1  0  0  0  0  0  0
  193.5920  174.9800  143.3170 C   0  0  0  0  0  3  0  0  0  0  0  0
  194.1090  176.1020  144.1230 C   0  0  0  0  0  2  0  0  0  0  0  0
  192.3110  176.1720  145.8450 C   0  0  0  0  0  0  0  0  0  0  0  0
  186.6810  177.9630  143.8890 C   0  0  0  0  0  0  0  0  0  0  0  0
  189.0160  176.6330  143.1140 C   0  0  2  0  0  3  0  0  0  0  0  0
  185.4460  178.7090  144.2980 C   0  0  0  0  0  2  0  0  0  0  0  0
  187.9960  176.8440  142.1820 C   0  0  0  0  0  3  0  0  0  0  0  0
  185.8050  177.7180  141.6330 O   0  0  0  0  0  0  0  0  0  0  0  0
  189.8100  177.1130  146.7180 C   0  0  0  0  0  3  0  0  0  0  0  0
  191.2270  176.2670  144.9000 C   0  0  0  0  0  0  0  0  0  0  0  0
  187.7110  177.7570  144.8130 C   0  0  0  0  0  3  0  0  0  0  0  0
  192.2940  174.8200  143.1030 C   0  0  0  0  0  0  0  0  0  0  0  0
  192.0490  176.4150  147.2040 C   0  0  0  0  0  3  0  0  0  0  0  0
  186.8320  177.5160  142.5620 C   0  0  0  0  0  0  0  0  0  0  0  0
  184.6770  178.5410  141.9300 C   0  0  0  0  0  2  0  0  0  0  0  0
  190.1730  175.9530  142.7490 O   0  0  0  0  0  0  0  0  0  0  0  0
  184.2650  178.3660  143.3890 C   0  0  0  0  0  2  0  0  0  0  0  0
  191.2490  175.7390  143.6280 C   0  0  0  0  0  0  0  0  0  0  0  0
  190.8140  176.8700  147.6400 C   0  0  0  0  0  3  0  0  0  0  0  0
  191.8810  173.7090  142.1980 C   0  0  0  0  0  2  0  0  0  0  0  0
  191.1640  172.6960  142.9520 N   0  0  0  0  0  2  0  0  0  0  0  0
  189.8040  172.4750  142.7100 C   0  0  0  0  0  0  0  0  0  0  0  0
  188.6800  172.2920  142.5100 N   0  0  0  0  0  0  0  0  0  0  0  0
  1 15  1  0  0  0  0
  1  2  2  0  0  0  0
  2 13  1  0  0  0  0
  3  7  1  0  0  0  0
  3  4  1  1  0  0  0
  5  6  1  0  0  0  0
  6  3  1  0  0  0  0
  7 17  2  0  0  0  0
  8 10  1  0  0  0  0
  8 15  2  0  0  0  0
  9 11  1  1  0  0  0
  9  1  1  0  0  0  0
 11 18  2  0  0  0  0
 12 19  1  0  0  0  0
 12 18  1  0  0  0  0
 13 23  2  0  0  0  0
 14  2  1  0  0  0  0
 14  7  1  0  0  0  0
 16  5  2  0  0  0  0
 16 22  1  0  0  0  0
 17 23  1  0  0  0  0
 18  8  1  0  0  0  0
 19 21  1  0  0  0  0
 20  9  1  0  0  0  0
 20 22  1  0  0  0  0
 21 10  1  0  0  0  0
 22 14  2  0  0  0  0
 24 25  1  0  0  0  0
 24 16  1  0  0  0  0
 26 25  1  0  0  0  0
 27 26  3  0  0  0  0
M  END
>  <MODEL>
5

>  <REMARK>
 VINA RESULT:      -7.3      1.257      1.481
  Name = 
  3 active torsions:
  status: ('A' for Active; 'I' for Inactive)
    1  A    between atoms: C_7  and  C_19
    2  A    between atoms: C_7  and  N_25
    3  A    between atoms: C_11  and  N_25
                            x       y       z     vdW  Elec       q    Type
                         _______ _______ _______ _____ _____    ______ ____

>  <TORSDO>
F 3

$$$$
=
 OpenBabel11042415103D

 27 31  0  0  1  0  0  0  0  0999 V2000
  188.0770  177.2570  143.7490 C   0  0  0  0  0  0  0  0  0  0  0  0
  189.0230  177.0850  144.8720 C   0  0  0  0  0  0  0  0  0  0  0  0
  192.5800  176.4110  145.6890 C   0  0  2  0  0  3  0  0  0  0  0  0
  193.3530  176.2780  146.8410 O   0  0  0  0  0  1  0  0  0  0  0  0
  192.9990  175.3640  143.5460 C   0  0  0  0  0  3  0  0  0  0  0  0
  193.3130  176.5230  144.4010 C   0  0  0  0  0  2  0  0  0  0  0  0
  191.2360  176.5360  145.7760 C   0  0  0  0  0  0  0  0  0  0  0  0
  185.9690  178.0140  142.8100 C   0  0  0  0  0  0  0  0  0  0  0  0
  188.4620  176.7870  142.4950 C   0  0  2  0  0  3  0  0  0  0  0  0
  184.6490  178.7060  142.9750 C   0  0  0  0  0  2  0  0  0  0  0  0
  187.6150  176.9310  141.3920 C   0  0  0  0  0  3  0  0  0  0  0  0
  185.5200  177.6870  140.4420 O   0  0  0  0  0  0  0  0  0  0  0  0
  188.5800  177.3700  146.1690 C   0  0  0  0  0  3  0  0  0  0  0  0
  190.3340  176.5610  144.6520 C   0  0  0  0  0  0  0  0  0  0  0  0
  186.8260  177.8760  143.9060 C   0  0  0  0  0  3  0  0  0  0  0  0
  191.7680  175.1370  143.1100 C   0  0  0  0  0  0  0  0  0  0  0  0
  190.7270  176.7910  147.0600 C   0  0  0  0  0  3  0  0  0  0  0  0
  186.3730  177.5520  141.5430 C   0  0  0  0  0  0  0  0  0  0  0  0
  184.3210  178.4580  140.5130 C   0  0  0  0  0  2  0  0  0  0  0  0
  189.6940  176.1570  142.3570 O   0  0  0  0  0  0  0  0  0  0  0  0
  183.6640  178.2900  141.8810 C   0  0  0  0  0  2  0  0  0  0  0  0
  190.6060  176.0130  143.4180 C   0  0  0  0  0  0  0  0  0  0  0  0
  189.4150  177.1920  147.2590 C   0  0  0  0  0  3  0  0  0  0  0  0
  191.5720  173.9900  142.1760 C   0  0  0  0  0  2  0  0  0  0  0  0
  190.8120  172.9410  142.8310 N   0  0  0  0  0  2  0  0  0  0  0  0
  189.4690  172.7360  142.4960 C   0  0  0  0  0  0  0  0  0  0  0  0
  188.3600  172.5660  142.2180 N   0  0  0  0  0  0  0  0  0  0  0  0
  1 15  1  0  0  0  0
  1  2  2  0  0  0  0
  2 13  1  0  0  0  0
  3  7  1  0  0  0  0
  3  4  1  1  0  0  0
  5  6  1  0  0  0  0
  6  3  1  0  0  0  0
  7 17  2  0  0  0  0
  8 10  1  0  0  0  0
  8 15  2  0  0  0  0
  9 11  1  1  0  0  0
  9  1  1  0  0  0  0
 11 18  2  0  0  0  0
 12 19  1  0  0  0  0
 12 18  1  0  0  0  0
 13 23  2  0  0  0  0
 14  2  1  0  0  0  0
 14  7  1  0  0  0  0
 16 22  1  0  0  0  0
 16  5  2  0  0  0  0
 17 23  1  0  0  0  0
 18  8  1  0  0  0  0
 19 21  1  0  0  0  0
 20  9  1  0  0  0  0
 20 22  1  0  0  0  0
 21 10  1  0  0  0  0
 22 14  2  0  0  0  0
 24 25  1  0  0  0  0
 24 16  1  0  0  0  0
 26 25  1  0  0  0  0
 27 26  3  0  0  0  0
M  END
>  <MODEL>
6

>  <REMARK>
 VINA RESULT:      -7.3      1.654      2.199
  Name = 
  3 active torsions:
  status: ('A' for Active; 'I' for Inactive)
    1  A    between atoms: C_7  and  C_19
    2  A    between atoms: C_7  and  N_25
    3  A    between atoms: C_11  and  N_25
                            x       y       z     vdW  Elec       q    Type
                         _______ _______ _______ _____ _____    ______ ____

>  <TORSDO>
F 3

$$$$
=
 OpenBabel11042415103D

 27 31  0  0  1  0  0  0  0  0999 V2000
  184.6000  178.1590  143.3870 C   0  0  0  0  0  0  0  0  0  0  0  0
  185.6350  177.9800  144.4270 C   0  0  0  0  0  0  0  0  0  0  0  0
  189.2820  177.5240  144.9480 C   0  0  2  0  0  3  0  0  0  0  0  0
  190.1430  177.3680  146.0320 O   0  0  0  0  0  1  0  0  0  0  0  0
  189.6170  176.6690  142.7070 C   0  0  0  0  0  3  0  0  0  0  0  0
  189.9090  177.7850  143.6260 C   0  0  0  0  0  2  0  0  0  0  0  0
  187.9420  177.5390  145.1350 C   0  0  0  0  0  0  0  0  0  0  0  0
  182.3800  178.8170  142.6530 C   0  0  0  0  0  0  0  0  0  0  0  0
  184.9250  177.8110  142.0770 C   0  0  2  0  0  3  0  0  0  0  0  0
  181.0290  179.3920  142.9590 C   0  0  0  0  0  2  0  0  0  0  0  0
  183.9920  177.9680  141.0480 C   0  0  0  0  0  3  0  0  0  0  0  0
  181.7840  178.6270  140.3030 O   0  0  0  0  0  0  0  0  0  0  0  0
  185.2690  178.1350  145.7680 C   0  0  0  0  0  3  0  0  0  0  0  0
  186.9610  177.5750  144.0790 C   0  0  0  0  0  0  0  0  0  0  0  0
  183.3230  178.6660  143.6750 C   0  0  0  0  0  3  0  0  0  0  0  0
  188.3770  176.3800  142.3390 C   0  0  0  0  0  0  0  0  0  0  0  0
  187.5110  177.6600  146.4660 C   0  0  0  0  0  3  0  0  0  0  0  0
  182.7220  178.4790  141.3300 C   0  0  0  0  0  0  0  0  0  0  0  0
  180.5410  179.2970  140.5140 C   0  0  0  0  0  2  0  0  0  0  0  0
  186.1860  177.2890  141.8080 O   0  0  0  0  0  0  0  0  0  0  0  0
  180.0000  178.9800  141.9060 C   0  0  0  0  0  2  0  0  0  0  0  0
  187.1810  177.1390  142.7910 C   0  0  0  0  0  0  0  0  0  0  0  0
  186.1910  177.9440  146.7840 C   0  0  0  0  0  3  0  0  0  0  0  0
  188.1960  175.2910  141.3340 C   0  0  0  0  0  2  0  0  0  0  0  0
  188.0900  174.0090  142.0070 N   0  0  0  0  0  2  0  0  0  0  0  0
  188.9650  172.9690  141.6740 C   0  0  0  0  0  0  0  0  0  0  0  0
  189.6890  172.1110  141.3970 N   0  0  0  0  0  0  0  0  0  0  0  0
  1 15  1  0  0  0  0
  1  2  2  0  0  0  0
  2 13  1  0  0  0  0
  3  7  1  0  0  0  0
  3  4  1  1  0  0  0
  5  6  1  0  0  0  0
  6  3  1  0  0  0  0
  7 17  2  0  0  0  0
  8 10  1  0  0  0  0
  8 15  2  0  0  0  0
  9 11  1  1  0  0  0
  9  1  1  0  0  0  0
 11 18  2  0  0  0  0
 12 19  1  0  0  0  0
 12 18  1  0  0  0  0
 13 23  2  0  0  0  0
 14  2  1  0  0  0  0
 14  7  1  0  0  0  0
 16  5  2  0  0  0  0
 16 22  1  0  0  0  0
 17 23  1  0  0  0  0
 18  8  1  0  0  0  0
 19 21  1  0  0  0  0
 20  9  1  0  0  0  0
 20 22  1  0  0  0  0
 21 10  1  0  0  0  0
 22 14  2  0  0  0  0
 24 25  1  0  0  0  0
 24 16  1  0  0  0  0
 26 25  1  0  0  0  0
 27 26  3  0  0  0  0
M  END
>  <MODEL>
7

>  <REMARK>
 VINA RESULT:      -7.1      2.568      4.498
  Name = 
  3 active torsions:
  status: ('A' for Active; 'I' for Inactive)
    1  A    between atoms: C_7  and  C_19
    2  A    between atoms: C_7  and  N_25
    3  A    between atoms: C_11  and  N_25
                            x       y       z     vdW  Elec       q    Type
                         _______ _______ _______ _____ _____    ______ ____

>  <TORSDO>
F 3

$$$$
=
 OpenBabel11042415103D

 27 31  0  0  1  0  0  0  0  0999 V2000
  188.5590  176.0390  144.6510 C   0  0  0  0  0  0  0  0  0  0  0  0
  189.3110  175.2500  143.6530 C   0  0  0  0  0  0  0  0  0  0  0  0
  192.1070  172.8410  143.2590 C   0  0  2  0  0  3  0  0  0  0  0  0
  192.7190  172.1550  142.2120 O   0  0  0  0  0  1  0  0  0  0  0  0
  193.1470  173.5230  145.3370 C   0  0  0  0  0  3  0  0  0  0  0  0
  192.4660  172.4180  144.6380 C   0  0  0  0  0  2  0  0  0  0  0  0
  191.1570  173.7700  143.0060 C   0  0  0  0  0  0  0  0  0  0  0  0
  186.6200  177.3150  145.3660 C   0  0  0  0  0  0  0  0  0  0  0  0
  189.1460  176.2430  145.8990 C   0  0  0  0  0  0  0  0  0  0  0  0
  185.2480  177.8560  145.0900 C   0  0  0  0  0  2  0  0  0  0  0  0
  188.4800  176.9710  146.8880 C   0  0  0  0  0  3  0  0  0  0  0  0
  186.5480  178.2390  147.6150 O   0  0  0  0  0  0  0  0  0  0  0  0
  188.8310  175.2020  142.3400 C   0  0  0  0  0  3  0  0  0  0  0  0
  190.5460  174.6190  143.9980 C   0  0  0  0  0  0  0  0  0  0  0  0
  187.2890  176.5760  144.3860 C   0  0  0  0  0  2  0  0  0  0  0  0
  192.5320  174.6710  145.5830 C   0  0  0  0  0  0  0  0  0  0  0  0
  190.6580  173.7930  141.6930 C   0  0  0  0  0  3  0  0  0  0  0  0
  187.2120  177.5000  146.6290 C   0  0  0  0  0  0  0  0  0  0  0  0
  185.1910  178.6530  147.4540 C   0  0  0  0  0  2  0  0  0  0  0  0
  190.4140  175.7240  146.1420 O   0  0  0  0  0  0  0  0  0  0  0  0
  184.9260  179.0410  146.0020 C   0  0  0  0  0  2  0  0  0  0  0  0
  191.1220  174.9540  145.2030 C   0  0  0  0  0  0  0  0  0  0  0  0
  189.5170  174.5060  141.3580 C   0  0  0  0  0  3  0  0  0  0  0  0
  193.2780  175.6910  146.3780 C   0  0  0  0  0  2  0  0  0  0  0  0
  193.7290  176.7630  145.5090 N   0  0  0  0  0  2  0  0  0  0  0  0
  194.8460  176.5730  144.6870 C   0  0  0  0  0  0  0  0  0  0  0  0
  195.7680  176.4160  144.0080 N   0  0  0  0  0  0  0  0  0  0  0  0
  1  9  1  0  0  0  0
  2 14  1  0  0  0  0
  2  1  2  0  0  0  0
  3  4  1  6  0  0  0
  3  6  1  0  0  0  0
  5 16  2  0  0  0  0
  6  5  1  0  0  0  0
  7  3  1  0  0  0  0
  7 14  1  0  0  0  0
  8 18  2  0  0  0  0
  9 20  1  0  0  0  0
  9 11  2  0  0  0  0
 10  8  1  0  0  0  0
 10 21  1  0  0  0  0
 13  2  1  0  0  0  0
 14 22  2  0  0  0  0
 15  1  1  0  0  0  0
 15  8  1  0  0  0  0
 16 24  1  0  0  0  0
 17  7  2  0  0  0  0
 18 11  1  0  0  0  0
 18 12  1  0  0  0  0
 19 12  1  0  0  0  0
 21 19  1  0  0  0  0
 22 16  1  0  0  0  0
 22 20  1  0  0  0  0
 23 17  1  0  0  0  0
 23 13  2  0  0  0  0
 25 24  1  0  0  0  0
 26 25  1  0  0  0  0
 27 26  3  0  0  0  0
M  END
>  <MODEL>
8

>  <REMARK>
 VINA RESULT:      -7.1      2.646      4.226
  Name = 
  3 active torsions:
  status: ('A' for Active; 'I' for Inactive)
    1  A    between atoms: C_7  and  C_19
    2  A    between atoms: C_7  and  N_25
    3  A    between atoms: C_11  and  N_25
                            x       y       z     vdW  Elec       q    Type
                         _______ _______ _______ _____ _____    ______ ____

>  <TORSDO>
F 3

$$$$
=
 OpenBabel11042415103D

 27 31  0  0  1  0  0  0  0  0999 V2000
  190.2990  174.4740  142.3170 C   0  0  0  0  0  0  0  0  0  0  0  0
  190.9850  174.6530  143.6140 C   0  0  0  0  0  0  0  0  0  0  0  0
  190.3990  175.1520  147.2450 C   0  0  2  0  0  3  0  0  0  0  0  0
  191.1790  175.3040  148.3900 O   0  0  0  0  0  1  0  0  0  0  0  0
  188.1760  176.0440  146.8860 C   0  0  0  0  0  3  0  0  0  0  0  0
  188.9460  174.9190  147.4500 C   0  0  0  0  0  2  0  0  0  0  0  0
  190.9780  175.1160  146.0230 C   0  0  0  0  0  0  0  0  0  0  0  0
  190.2510  173.7960  139.9850 C   0  0  0  0  0  0  0  0  0  0  0  0
  188.9580  174.8450  142.2310 C   0  0  0  0  0  0  0  0  0  0  0  0
  190.9370  173.1970  138.7930 C   0  0  0  0  0  2  0  0  0  0  0  0
  188.2530  174.6900  141.0350 C   0  0  0  0  0  3  0  0  0  0  0  0
  188.1900  174.0110  138.7110 O   0  0  0  0  0  0  0  0  0  0  0  0
  192.3710  174.4730  143.6680 C   0  0  0  0  0  3  0  0  0  0  0  0
  190.2640  175.0810  144.7710 C   0  0  0  0  0  0  0  0  0  0  0  0
  190.9460  173.9450  141.1890 C   0  0  0  0  0  2  0  0  0  0  0  0
  188.2020  176.3210  145.5900 C   0  0  0  0  0  0  0  0  0  0  0  0
  192.3750  174.9690  146.0110 C   0  0  0  0  0  3  0  0  0  0  0  0
  188.8920  174.1570  139.9120 C   0  0  0  0  0  0  0  0  0  0  0  0
  188.7520  173.3200  137.5950 C   0  0  0  0  0  2  0  0  0  0  0  0
  188.3340  175.3880  143.3500 O   0  0  0  0  0  0  0  0  0  0  0  0
  190.2470  173.6090  137.4920 C   0  0  0  0  0  2  0  0  0  0  0  0
  188.9770  175.5380  144.5910 C   0  0  0  0  0  0  0  0  0  0  0  0
  193.0680  174.6630  144.8500 C   0  0  0  0  0  3  0  0  0  0  0  0
  187.3160  177.4210  145.1080 C   0  0  0  0  0  2  0  0  0  0  0  0
  185.9260  177.0090  145.1880 N   0  0  0  0  0  2  0  0  0  0  0  0
  184.9670  177.8820  145.7130 C   0  0  0  0  0  0  0  0  0  0  0  0
  184.1750  178.6040  146.1480 N   0  0  0  0  0  0  0  0  0  0  0  0
  1  2  2  0  0  0  0
  2 13  1  0  0  0  0
  2 14  1  0  0  0  0
  3  6  1  0  0  0  0
  3  4  1  1  0  0  0
  5  6  1  0  0  0  0
  7  3  1  0  0  0  0
  8 15  1  0  0  0  0
  9  1  1  0  0  0  0
  9 20  1  0  0  0  0
 10  8  1  0  0  0  0
 11  9  2  0  0  0  0
 12 18  1  0  0  0  0
 13 23  2  0  0  0  0
 14  7  1  0  0  0  0
 15  1  1  0  0  0  0
 16  5  2  0  0  0  0
 17  7  2  0  0  0  0
 18  8  2  0  0  0  0
 18 11  1  0  0  0  0
 19 12  1  0  0  0  0
 20 22  1  0  0  0  0
 21 19  1  0  0  0  0
 21 10  1  0  0  0  0
 22 14  2  0  0  0  0
 22 16  1  0  0  0  0
 23 17  1  0  0  0  0
 24 25  1  0  0  0  0
 24 16  1  0  0  0  0
 25 26  1  0  0  0  0
 26 27  3  0  0  0  0
M  END
>  <MODEL>
9

>  <REMARK>
 VINA RESULT:      -7.0      2.932      6.056
  Name = 
  3 active torsions:
  status: ('A' for Active; 'I' for Inactive)
    1  A    between atoms: C_7  and  C_19
    2  A    between atoms: C_7  and  N_25
    3  A    between atoms: C_11  and  N_25
                            x       y       z     vdW  Elec       q    Type
                         _______ _______ _______ _____ _____    ______ ____

>  <TORSDO>
F 3

$$$$
