=
 OpenBabel11042414313D

 64 67  0  0  1  0  0  0  0  0999 V2000
  193.9300  175.3050  143.4520 C   0  0  0  0  0  0  0  0  0  0  0  0
  194.5960  174.8270  142.4360 N   0  0  0  0  0  0  0  0  0  0  0  0
  193.2270  173.4290  138.3160 C   0  0  0  0  0  2  0  0  0  0  0  0
  193.7920  171.9840  140.3330 C   0  0  0  0  0  2  0  0  0  0  0  0
  193.8320  174.7680  138.7200 C   0  0  0  0  0  3  0  0  0  0  0  0
  193.9610  172.1640  138.8510 C   0  0  1  0  0  3  0  0  0  0  0  0
  194.0450  174.3580  141.2010 C   0  0  1  0  0  3  0  0  0  0  0  0
  194.1480  175.1830  139.9700 C   0  0  0  0  0  3  0  0  0  0  0  0
  193.9290  173.0920  140.9840 C   0  0  0  0  0  2  0  0  0  0  0  0
  193.5540  170.8920  138.1060 C   0  0  1  0  0  3  0  0  0  0  0  0
  195.8030  170.9170  137.8490 O   0  0  0  0  0  1  0  0  0  0  0  0
  194.6830  170.3120  137.3870 N   0  0  0  0  0  2  0  0  0  0  0  0
  193.0060  169.9250  139.0500 N   0  0  0  0  0  2  0  0  0  0  0  0
  191.5790  169.7780  138.7860 C   0  0  0  0  0  2  0  0  0  0  0  0
  191.2840  169.9040  137.2930 C   0  0  1  0  0  3  0  0  0  0  0  0
  191.4880  168.5440  136.6410 C   0  0  0  0  0  1  0  0  0  0  0  0
  190.6350  172.7130  136.0630 C   0  0  0  0  0  2  0  0  0  0  0  0
  189.4780  172.5870  138.3270 C   0  0  0  0  0  0  0  0  0  0  0  0
  189.8800  173.4570  137.1530 C   0  0  0  0  0  2  0  0  0  0  0  0
  189.6370  171.3050  135.4970 S   0  0  0  0  0  0  0  0  0  0  0  0
  189.3930  171.2460  138.2530 C   0  0  0  0  0  3  0  0  0  0  0  0
  189.8490  170.4090  137.0810 C   0  0  2  0  0  3  0  0  0  0  0  0
  188.4300  174.4960  139.2640 O   0  0  0  0  0  1  0  0  0  0  0  0
  188.9680  173.2430  139.5720 C   0  0  2  0  0  3  0  0  0  0  0  0
  190.0800  173.3850  140.6030 C   0  0  0  0  0  2  0  0  0  0  0  0
  190.6520  171.4770  142.0090 N   0  0  0  0  0  1  0  0  0  0  0  0
  189.7520  172.6090  141.8690 C   0  0  0  0  0  2  0  0  0  0  0  0
  191.8750  174.1940  143.8660 O   0  0  0  0  0  0  0  0  0  0  0  0
  191.6730  176.3990  143.1510 N   0  0  0  0  0  2  0  0  0  0  0  0
  192.4520  175.2650  143.5360 C   0  0  0  0  0  0  0  0  0  0  0  0
  190.2210  176.3990  143.2220 C   0  0  0  0  0  2  0  0  0  0  0  0
  189.7690  176.6460  144.6490 C   0  0  1  0  0  3  0  0  0  0  0  0
  190.5520  177.6640  145.2040 O   0  0  0  0  0  1  0  0  0  0  0  0
  188.3110  177.0680  144.6310 C   0  0  0  0  0  2  0  0  0  0  0  0
  187.8040  177.3160  146.0370 C   0  0  0  0  0  2  0  0  0  0  0  0
  186.2920  177.1660  146.0560 C   0  0  1  0  0  3  0  0  0  0  0  0
  185.8750  176.8580  147.3540 O   0  0  0  0  0  1  0  0  0  0  0  0
  185.6110  178.4410  145.5740 C   0  0  2  0  0  3  0  0  0  0  0  0
  184.9400  179.0400  146.6450 O   0  0  0  0  0  1  0  0  0  0  0  0
  184.6570  178.1130  144.5220 N   0  0  0  0  0  2  0  0  0  0  0  0
  184.9800  178.9170  143.3530 C   0  0  0  0  0  2  0  0  0  0  0  0
  184.7010  178.3460  140.9200 C   0  0  1  0  0  3  0  0  0  0  0  0
  183.3230  178.2150  141.1000 O   0  0  0  0  0  1  0  0  0  0  0  0
  187.2360  177.2930  141.0210 C   0  0  0  0  0  2  0  0  0  0  0  0
  185.4410  178.0070  142.2280 C   0  0  1  0  0  3  0  0  0  0  0  0
  186.5030  177.6450  139.7220 C   0  0  0  0  0  2  0  0  0  0  0  0
  185.1170  177.4690  139.8990 O   0  0  0  0  0  0  0  0  0  0  0  0
  186.8320  178.1710  142.0460 O   0  0  0  0  0  0  0  0  0  0  0  0
  194.6830  175.9560  144.5790 C   0  0  1  0  0  3  0  0  0  0  0  0
  193.2560  176.1540  146.7770 N   0  0  0  0  0  0  0  0  0  0  0  0
  193.8840  176.0660  145.8090 C   0  0  0  0  0  0  0  0  0  0  0  0
  195.9880  175.2610  144.8310 C   0  0  0  0  0  0  0  0  0  0  0  0
  196.9840  175.5540  144.1880 O   0  0  0  0  0  0  0  0  0  0  0  0
  196.0640  174.2470  145.9240 C   0  0  0  0  0  2  0  0  0  0  0  0
  196.9690  173.0980  145.5070 C   0  0  0  0  0  2  0  0  0  0  0  0
  195.9470  169.4250  146.1620 C   0  0  0  0  0  0  0  0  0  0  0  0
  194.8160  171.8170  144.9030 C   0  0  0  0  0  2  0  0  0  0  0  0
  196.5450  168.4700  145.1410 C   0  0  0  0  0  1  0  0  0  0  0  0
  192.9430  170.4310  144.3830 O   0  0  0  0  0  1  0  0  0  0  0  0
  196.2030  171.8180  145.4880 C   0  0  0  0  0  0  0  0  0  0  0  0
  194.3030  170.3940  144.6920 C   0  0  2  0  0  3  0  0  0  0  0  0
  196.1250  168.8140  147.5360 C   0  0  0  0  0  1  0  0  0  0  0  0
  194.5090  169.6030  145.9080 N   0  0  0  0  0  2  0  0  0  0  0  0
  196.6900  170.7390  146.1250 C   0  0  0  0  0  3  0  0  0  0  0  0
  1 30  1  0  0  0  0
  1 49  1  0  0  0  0
  2  1  2  0  0  0  0
  3  5  1  0  0  0  0
  3  6  1  0  0  0  0
  4  9  1  0  0  0  0
  5  8  2  0  0  0  0
  6 10  1  6  0  0  0
  6  4  1  0  0  0  0
  7  2  1  1  0  0  0
  8  7  1  0  0  0  0
  9  7  1  0  0  0  0
 10 12  1  1  0  0  0
 10 13  1  0  0  0  0
 12 11  1  0  0  0  0
 14 13  1  0  0  0  0
 15 16  1  6  0  0  0
 15 14  1  0  0  0  0
 17 19  1  0  0  0  0
 18 24  1  0  0  0  0
 19 18  1  0  0  0  0
 20 17  1  0  0  0  0
 20 22  1  0  0  0  0
 21 18  2  0  0  0  0
 22 15  1  1  0  0  0
 22 21  1  0  0  0  0
 24 23  1  6  0  0  0
 24 25  1  0  0  0  0
 25 27  1  0  0  0  0
 27 26  1  0  0  0  0
 29 31  1  0  0  0  0
 29 30  1  0  0  0  0
 30 28  2  0  0  0  0
 31 32  1  0  0  0  0
 32 33  1  6  0  0  0
 34 32  1  0  0  0  0
 34 35  1  0  0  0  0
 35 36  1  0  0  0  0
 36 37  1  1  0  0  0
 38 36  1  0  0  0  0
 38 39  1  1  0  0  0
 40 38  1  0  0  0  0
 41 40  1  0  0  0  0
 42 43  1  1  0  0  0
 42 45  1  0  0  0  0
 44 48  1  0  0  0  0
 45 41  1  1  0  0  0
 46 47  1  0  0  0  0
 46 44  1  0  0  0  0
 47 42  1  0  0  0  0
 48 45  1  0  0  0  0
 49 52  1  0  0  0  0
 49 51  1  1  0  0  0
 51 50  3  0  0  0  0
 52 54  1  0  0  0  0
 53 52  2  0  0  0  0
 55 54  1  0  0  0  0
 56 62  1  0  0  0  0
 57 60  1  0  0  0  0
 58 56  1  0  0  0  0
 60 55  1  0  0  0  0
 60 64  2  0  0  0  0
 61 59  1  1  0  0  0
 61 57  1  0  0  0  0
 61 63  1  0  0  0  0
 63 56  1  0  0  0  0
 64 56  1  0  0  0  0
M  END
>  <MODEL>
1

>  <REMARK>
 VINA RESULT:      -6.2      0.000      0.000
  Name = 
  26 active torsions:
  status: ('A' for Active; 'I' for Inactive)
    1  A    between atoms: C_3  and  C_16
    2  A    between atoms: C_3  and  C_62
    3  A    between atoms: C_4  and  C_43
    4  A    between atoms: C_4  and  C_63
    5  A    between atoms: C_5  and  C_18
    6  A    between atoms: C_6  and  C_7
    7  A    between atoms: C_6  and  C_54
    8  A    between atoms: C_7  and  C_36
    9  A    between atoms: C_8  and  N_33
   10  A    between atoms: C_8  and  C_34
   11  A    between atoms: C_16  and  N_29
   12  A    between atoms: C_18  and  C_55
   13  A    between atoms: C_19  and  C_36
   14  A    between atoms: C_19  and  C_58
   15  A    between atoms: C_25  and  C_27
   16  A    between atoms: C_27  and  N_33
   17  A    between atoms: C_28  and  C_41
   18  A    between atoms: N_29  and  C_41
   19  A    between atoms: C_32  and  N_46
   20  A    between atoms: C_34  and  C_42
   21  A    between atoms: C_36  and  C_53
   22  A    between atoms: C_37  and  C_54
   23  A    between atoms: N_38  and  C_63
   24  A    between atoms: C_40  and  C_55
   25  A    between atoms: C_41  and  N_57
   26  A    between atoms: C_42  and  C_43
                            x       y       z     vdW  Elec       q    Type
                         _______ _______ _______ _____ _____    ______ ____

>  <TORSDO>
F 26

$$$$
=
 OpenBabel11042414313D

 64 67  0  0  1  0  0  0  0  0999 V2000
  191.8460  175.4210  144.9660 C   0  0  0  0  0  0  0  0  0  0  0  0
  191.7720  174.1360  145.1850 N   0  0  0  0  0  0  0  0  0  0  0  0
  190.3600  171.1430  142.0470 C   0  0  0  0  0  2  0  0  0  0  0  0
  192.2320  172.8520  141.8250 C   0  0  0  0  0  2  0  0  0  0  0  0
  189.6270  171.6510  143.2830 C   0  0  0  0  0  3  0  0  0  0  0  0
  191.0330  172.2340  141.1620 C   0  0  1  0  0  3  0  0  0  0  0  0
  191.4450  173.1260  144.2250 C   0  0  1  0  0  3  0  0  0  0  0  0
  190.1100  172.4750  144.2430 C   0  0  0  0  0  3  0  0  0  0  0  0
  192.0250  173.1180  143.0730 C   0  0  0  0  0  2  0  0  0  0  0  0
  191.3980  171.7160  139.7710 C   0  0  1  0  0  3  0  0  0  0  0  0
  189.7930  173.2040  139.1890 O   0  0  0  0  0  1  0  0  0  0  0  0
  190.9240  172.6190  138.7270 N   0  0  0  0  0  2  0  0  0  0  0  0
  192.8430  171.5450  139.6730 N   0  0  0  0  0  2  0  0  0  0  0  0
  193.2180  171.5770  138.2640 C   0  0  0  0  0  2  0  0  0  0  0  0
  194.6110  170.9890  138.0570 C   0  0  1  0  0  3  0  0  0  0  0  0
  194.4760  169.4920  137.8130 C   0  0  0  0  0  1  0  0  0  0  0  0
  197.7190  171.3580  137.8850 C   0  0  0  0  0  2  0  0  0  0  0  0
  196.6640  173.6650  137.6720 C   0  0  0  0  0  0  0  0  0  0  0  0
  197.9370  172.8630  137.8540 C   0  0  0  0  0  2  0  0  0  0  0  0
  196.8560  170.8460  136.3700 S   0  0  0  0  0  0  0  0  0  0  0  0
  195.5330  173.1450  137.1630 C   0  0  0  0  0  3  0  0  0  0  0  0
  195.3030  171.6800  136.8730 C   0  0  2  0  0  3  0  0  0  0  0  0
  197.2550  175.7740  136.7660 O   0  0  0  0  0  1  0  0  0  0  0  0
  196.7080  175.1460  137.8870 C   0  0  2  0  0  3  0  0  0  0  0  0
  197.5160  175.4890  139.1330 C   0  0  0  0  0  2  0  0  0  0  0  0
  197.4450  175.6920  141.5610 N   0  0  0  0  0  1  0  0  0  0  0  0
  196.7030  175.2460  140.3940 C   0  0  0  0  0  2  0  0  0  0  0  0
  192.2740  176.5890  142.9450 O   0  0  0  0  0  0  0  0  0  0  0  0
  190.0300  176.1330  143.3620 N   0  0  0  0  0  2  0  0  0  0  0  0
  191.4170  176.0480  143.6960 C   0  0  0  0  0  0  0  0  0  0  0  0
  189.5690  176.7380  142.1220 C   0  0  0  0  0  2  0  0  0  0  0  0
  188.8350  178.0320  142.4160 C   0  0  1  0  0  3  0  0  0  0  0  0
  188.2350  178.4920  141.2390 O   0  0  0  0  0  1  0  0  0  0  0  0
  187.7720  177.7590  143.4650 C   0  0  0  0  0  2  0  0  0  0  0  0
  186.5730  178.6650  143.2660 C   0  0  0  0  0  2  0  0  0  0  0  0
  185.3830  177.8290  142.8280 C   0  0  1  0  0  3  0  0  0  0  0  0
  185.6730  176.4760  143.0230 O   0  0  0  0  0  1  0  0  0  0  0  0
  184.1300  178.2140  143.6050 C   0  0  2  0  0  3  0  0  0  0  0  0
  183.1910  178.7630  142.7250 O   0  0  0  0  0  1  0  0  0  0  0  0
  184.4740  179.1960  144.6260 N   0  0  0  0  0  2  0  0  0  0  0  0
  183.8280  178.8000  145.8680 C   0  0  0  0  0  2  0  0  0  0  0  0
  185.6320  177.1870  146.5470 C   0  0  1  0  0  3  0  0  0  0  0  0
  184.7300  176.1250  146.4560 O   0  0  0  0  0  1  0  0  0  0  0  0
  186.7540  179.2560  147.9630 C   0  0  0  0  0  2  0  0  0  0  0  0
  184.8880  178.4860  146.9090 C   0  0  1  0  0  3  0  0  0  0  0  0
  187.4970  177.9680  147.5900 C   0  0  0  0  0  2  0  0  0  0  0  0
  186.5870  176.8940  147.5420 O   0  0  0  0  0  0  0  0  0  0  0  0
  185.8040  179.5590  146.9700 O   0  0  0  0  0  0  0  0  0  0  0  0
  192.4200  176.3130  146.0330 C   0  0  1  0  0  3  0  0  0  0  0  0
  191.5060  175.7440  148.4310 N   0  0  0  0  0  0  0  0  0  0  0  0
  191.9090  175.9950  147.3750 C   0  0  0  0  0  0  0  0  0  0  0  0
  193.9190  176.3030  145.9980 C   0  0  0  0  0  0  0  0  0  0  0  0
  194.5490  177.3500  146.0100 O   0  0  0  0  0  0  0  0  0  0  0  0
  194.6320  174.9920  146.0120 C   0  0  0  0  0  2  0  0  0  0  0  0
  195.4270  174.8170  144.7280 C   0  0  0  0  0  2  0  0  0  0  0  0
  195.7680  170.9950  145.2220 C   0  0  0  0  0  0  0  0  0  0  0  0
  195.7270  172.9180  143.0110 C   0  0  0  0  0  2  0  0  0  0  0  0
  197.1840  170.5870  145.5980 C   0  0  0  0  0  1  0  0  0  0  0  0
  196.0740  171.0230  141.6010 O   0  0  0  0  0  1  0  0  0  0  0  0
  195.6380  173.3670  144.4450 C   0  0  0  0  0  0  0  0  0  0  0  0
  196.2350  171.4810  142.9090 C   0  0  2  0  0  3  0  0  0  0  0  0
  194.8090  170.2510  146.1280 C   0  0  0  0  0  1  0  0  0  0  0  0
  195.4860  170.6190  143.8270 N   0  0  0  0  0  2  0  0  0  0  0  0
  195.5890  172.4770  145.4510 C   0  0  0  0  0  3  0  0  0  0  0  0
  1  2  2  0  0  0  0
  1 49  1  0  0  0  0
  3  5  1  0  0  0  0
  4  9  1  0  0  0  0
  5  8  2  0  0  0  0
  6 10  1  6  0  0  0
  6  4  1  0  0  0  0
  6  3  1  0  0  0  0
  7  8  1  0  0  0  0
  7  2  1  6  0  0  0
  9  7  1  0  0  0  0
 10 12  1  6  0  0  0
 12 11  1  0  0  0  0
 13 10  1  0  0  0  0
 14 13  1  0  0  0  0
 15 16  1  6  0  0  0
 15 14  1  0  0  0  0
 18 19  1  0  0  0  0
 18 24  1  0  0  0  0
 19 17  1  0  0  0  0
 20 22  1  0  0  0  0
 20 17  1  0  0  0  0
 21 18  2  0  0  0  0
 22 21  1  0  0  0  0
 22 15  1  1  0  0  0
 24 23  1  6  0  0  0
 24 25  1  0  0  0  0
 25 27  1  0  0  0  0
 27 26  1  0  0  0  0
 28 30  2  0  0  0  0
 29 30  1  0  0  0  0
 30  1  1  0  0  0  0
 31 32  1  0  0  0  0
 31 29  1  0  0  0  0
 32 33  1  6  0  0  0
 32 34  1  0  0  0  0
 35 34  1  0  0  0  0
 36 37  1  1  0  0  0
 36 35  1  0  0  0  0
 36 38  1  0  0  0  0
 38 39  1  6  0  0  0
 38 40  1  0  0  0  0
 40 41  1  0  0  0  0
 42 43  1  1  0  0  0
 42 45  1  0  0  0  0
 42 47  1  0  0  0  0
 45 41  1  6  0  0  0
 45 48  1  0  0  0  0
 46 44  1  0  0  0  0
 47 46  1  0  0  0  0
 48 44  1  0  0  0  0
 49 51  1  1  0  0  0
 51 50  3  0  0  0  0
 52 53  2  0  0  0  0
 52 54  1  0  0  0  0
 52 49  1  0  0  0  0
 55 54  1  0  0  0  0
 56 64  1  0  0  0  0
 56 58  1  0  0  0  0
 56 62  1  0  0  0  0
 57 60  1  0  0  0  0
 60 55  1  0  0  0  0
 60 64  2  0  0  0  0
 61 59  1  6  0  0  0
 61 57  1  0  0  0  0
 61 63  1  0  0  0  0
 63 56  1  0  0  0  0
M  END
>  <MODEL>
2

>  <REMARK>
 VINA RESULT:      -5.7      2.408      4.760
  Name = 
  26 active torsions:
  status: ('A' for Active; 'I' for Inactive)
    1  A    between atoms: C_3  and  C_16
    2  A    between atoms: C_3  and  C_62
    3  A    between atoms: C_4  and  C_43
    4  A    between atoms: C_4  and  C_63
    5  A    between atoms: C_5  and  C_18
    6  A    between atoms: C_6  and  C_7
    7  A    between atoms: C_6  and  C_54
    8  A    between atoms: C_7  and  C_36
    9  A    between atoms: C_8  and  N_33
   10  A    between atoms: C_8  and  C_34
   11  A    between atoms: C_16  and  N_29
   12  A    between atoms: C_18  and  C_55
   13  A    between atoms: C_19  and  C_36
   14  A    between atoms: C_19  and  C_58
   15  A    between atoms: C_25  and  C_27
   16  A    between atoms: C_27  and  N_33
   17  A    between atoms: C_28  and  C_41
   18  A    between atoms: N_29  and  C_41
   19  A    between atoms: C_32  and  N_46
   20  A    between atoms: C_34  and  C_42
   21  A    between atoms: C_36  and  C_53
   22  A    between atoms: C_37  and  C_54
   23  A    between atoms: N_38  and  C_63
   24  A    between atoms: C_40  and  C_55
   25  A    between atoms: C_41  and  N_57
   26  A    between atoms: C_42  and  C_43
                            x       y       z     vdW  Elec       q    Type
                         _______ _______ _______ _____ _____    ______ ____

>  <TORSDO>
F 26

$$$$
=
 OpenBabel11042414313D

 64 67  0  0  1  0  0  0  0  0999 V2000
  190.2560  172.3960  139.5730 C   0  0  0  0  0  0  0  0  0  0  0  0
  189.1180  172.9330  139.9230 N   0  0  0  0  0  0  0  0  0  0  0  0
  187.1680  176.8450  138.6220 C   0  0  0  0  0  2  0  0  0  0  0  0
  187.8700  176.1720  140.9730 C   0  0  0  0  0  2  0  0  0  0  0  0
  187.2000  175.5040  137.8970 C   0  0  0  0  0  3  0  0  0  0  0  0
  186.7890  176.7910  140.1320 C   0  0  1  0  0  3  0  0  0  0  0  0
  188.6280  174.2200  139.5340 C   0  0  1  0  0  3  0  0  0  0  0  0
  187.8630  174.3840  138.2720 C   0  0  0  0  0  3  0  0  0  0  0  0
  188.3730  175.1130  140.4300 C   0  0  0  0  0  2  0  0  0  0  0  0
  186.3960  178.1600  140.6860 C   0  0  1  0  0  3  0  0  0  0  0  0
  184.3230  177.2910  140.4120 O   0  0  0  0  0  1  0  0  0  0  0  0
  184.9970  178.4660  140.4060 N   0  0  0  0  0  2  0  0  0  0  0  0
  186.6440  178.1980  142.1220 N   0  0  0  0  0  2  0  0  0  0  0  0
  185.5930  178.9900  142.7520 C   0  0  0  0  0  2  0  0  0  0  0  0
  185.8140  179.0900  144.2590 C   0  0  1  0  0  3  0  0  0  0  0  0
  185.0780  180.3170  144.7780 C   0  0  0  0  0  1  0  0  0  0  0  0
  185.8930  178.6950  147.3670 C   0  0  0  0  0  2  0  0  0  0  0  0
  187.1650  176.7540  146.3200 C   0  0  0  0  0  0  0  0  0  0  0  0
  186.8030  177.4960  147.5910 C   0  0  0  0  0  2  0  0  0  0  0  0
  184.3930  178.1550  146.4980 S   0  0  0  0  0  0  0  0  0  0  0  0
  186.4480  176.8450  145.1860 C   0  0  0  0  0  3  0  0  0  0  0  0
  185.3120  177.8120  144.9500 C   0  0  2  0  0  3  0  0  0  0  0  0
  188.2680  175.1080  147.6220 O   0  0  0  0  0  1  0  0  0  0  0  0
  188.2530  175.7270  146.3690 C   0  0  2  0  0  3  0  0  0  0  0  0
  189.6070  176.3590  146.0750 C   0  0  0  0  0  2  0  0  0  0  0  0
  191.2040  175.5000  147.7050 N   0  0  0  0  0  1  0  0  0  0  0  0
  190.3690  176.6390  147.3610 C   0  0  0  0  0  2  0  0  0  0  0  0
  191.2760  173.1920  137.5850 O   0  0  0  0  0  0  0  0  0  0  0  0
  192.4090  173.7160  139.5490 N   0  0  0  0  0  2  0  0  0  0  0  0
  191.3070  173.1410  138.8440 C   0  0  0  0  0  0  0  0  0  0  0  0
  193.4590  174.4570  138.8680 C   0  0  0  0  0  2  0  0  0  0  0  0
  194.6620  173.5620  138.6370 C   0  0  1  0  0  3  0  0  0  0  0  0
  195.4150  174.0760  137.5760 O   0  0  0  0  0  1  0  0  0  0  0  0
  195.5010  173.5390  139.9020 C   0  0  0  0  0  2  0  0  0  0  0  0
  196.9760  173.4420  139.5690 C   0  0  0  0  0  2  0  0  0  0  0  0
  197.7230  174.5530  140.2870 C   0  0  1  0  0  3  0  0  0  0  0  0
  197.6770  175.7160  139.5130 O   0  0  0  0  0  1  0  0  0  0  0  0
  197.1240  174.8140  141.6630 C   0  0  2  0  0  3  0  0  0  0  0  0
  197.5620  176.0570  142.1310 O   0  0  0  0  0  1  0  0  0  0  0  0
  197.5500  173.7680  142.5850 N   0  0  0  0  0  2  0  0  0  0  0  0
  196.6160  173.7420  143.7010 C   0  0  0  0  0  2  0  0  0  0  0  0
  195.9190  172.1550  145.5220 C   0  0  1  0  0  3  0  0  0  0  0  0
  196.9990  172.5650  146.3050 O   0  0  0  0  0  1  0  0  0  0  0  0
  194.8680  170.5670  143.5420 C   0  0  0  0  0  2  0  0  0  0  0  0
  196.2620  172.3010  144.0270 C   0  0  1  0  0  3  0  0  0  0  0  0
  194.5180  170.4320  145.0280 C   0  0  0  0  0  2  0  0  0  0  0  0
  195.6280  170.8060  145.8110 O   0  0  0  0  0  0  0  0  0  0  0  0
  195.1540  171.9130  143.2430 O   0  0  0  0  0  0  0  0  0  0  0  0
  190.5100  170.9490  139.8930 C   0  0  1  0  0  3  0  0  0  0  0  0
  192.3480  169.8750  138.3510 N   0  0  0  0  0  0  0  0  0  0  0  0
  191.5390  170.3480  139.0310 C   0  0  0  0  0  0  0  0  0  0  0  0
  190.8320  170.7630  141.3450 C   0  0  0  0  0  0  0  0  0  0  0  0
  190.3870  169.8090  141.9650 O   0  0  0  0  0  0  0  0  0  0  0  0
  191.7570  171.7300  142.0070 C   0  0  0  0  0  2  0  0  0  0  0  0
  191.0290  172.4680  143.1200 C   0  0  0  0  0  2  0  0  0  0  0  0
  192.2970  176.1240  143.1080 C   0  0  0  0  0  0  0  0  0  0  0  0
  192.5670  173.7220  144.7660 C   0  0  0  0  0  2  0  0  0  0  0  0
  193.4890  176.3160  142.1830 C   0  0  0  0  0  1  0  0  0  0  0  0
  194.0200  175.0460  146.1200 O   0  0  0  0  0  1  0  0  0  0  0  0
  191.7710  173.7100  143.4870 C   0  0  0  0  0  0  0  0  0  0  0  0
  193.4870  174.9390  144.8350 C   0  0  2  0  0  3  0  0  0  0  0  0
  191.3330  177.2680  142.8760 C   0  0  0  0  0  1  0  0  0  0  0  0
  192.7350  176.1540  144.5130 N   0  0  0  0  0  2  0  0  0  0  0  0
  191.5940  174.8310  142.7680 C   0  0  0  0  0  3  0  0  0  0  0  0
  1 49  1  0  0  0  0
  1  2  2  0  0  0  0
  3  6  1  0  0  0  0
  5  8  2  0  0  0  0
  5  3  1  0  0  0  0
  6 10  1  1  0  0  0
  6  4  1  0  0  0  0
  7  2  1  1  0  0  0
  7  9  1  0  0  0  0
  8  7  1  0  0  0  0
  9  4  1  0  0  0  0
 10 12  1  1  0  0  0
 10 13  1  0  0  0  0
 12 11  1  0  0  0  0
 13 14  1  0  0  0  0
 14 15  1  0  0  0  0
 15 16  1  1  0  0  0
 17 19  1  0  0  0  0
 18 24  1  0  0  0  0
 18 19  1  0  0  0  0
 20 17  1  0  0  0  0
 21 18  2  0  0  0  0
 22 15  1  1  0  0  0
 22 21  1  0  0  0  0
 22 20  1  0  0  0  0
 24 23  1  1  0  0  0
 25 24  1  0  0  0  0
 25 27  1  0  0  0  0
 27 26  1  0  0  0  0
 28 30  2  0  0  0  0
 30 29  1  0  0  0  0
 30  1  1  0  0  0  0
 31 29  1  0  0  0  0
 32 33  1  6  0  0  0
 32 31  1  0  0  0  0
 32 34  1  0  0  0  0
 35 34  1  0  0  0  0
 35 36  1  0  0  0  0
 36 37  1  6  0  0  0
 36 38  1  0  0  0  0
 38 39  1  1  0  0  0
 38 40  1  0  0  0  0
 40 41  1  0  0  0  0
 42 47  1  0  0  0  0
 42 43  1  1  0  0  0
 44 46  1  0  0  0  0
 45 41  1  1  0  0  0
 45 42  1  0  0  0  0
 46 47  1  0  0  0  0
 48 44  1  0  0  0  0
 48 45  1  0  0  0  0
 49 51  1  6  0  0  0
 49 52  1  0  0  0  0
 50 51  3  0  0  0  0
 52 53  2  0  0  0  0
 52 54  1  0  0  0  0
 54 55  1  0  0  0  0
 55 60  1  0  0  0  0
 56 63  1  0  0  0  0
 57 61  1  0  0  0  0
 58 56  1  0  0  0  0
 60 57  1  0  0  0  0
 61 59  1  1  0  0  0
 62 56  1  0  0  0  0
 63 61  1  0  0  0  0
 64 56  1  0  0  0  0
 64 60  2  0  0  0  0
M  END
>  <MODEL>
3

>  <REMARK>
 VINA RESULT:      -5.6      2.867      9.900
  Name = 
  26 active torsions:
  status: ('A' for Active; 'I' for Inactive)
    1  A    between atoms: C_3  and  C_16
    2  A    between atoms: C_3  and  C_62
    3  A    between atoms: C_4  and  C_43
    4  A    between atoms: C_4  and  C_63
    5  A    between atoms: C_5  and  C_18
    6  A    between atoms: C_6  and  C_7
    7  A    between atoms: C_6  and  C_54
    8  A    between atoms: C_7  and  C_36
    9  A    between atoms: C_8  and  N_33
   10  A    between atoms: C_8  and  C_34
   11  A    between atoms: C_16  and  N_29
   12  A    between atoms: C_18  and  C_55
   13  A    between atoms: C_19  and  C_36
   14  A    between atoms: C_19  and  C_58
   15  A    between atoms: C_25  and  C_27
   16  A    between atoms: C_27  and  N_33
   17  A    between atoms: C_28  and  C_41
   18  A    between atoms: N_29  and  C_41
   19  A    between atoms: C_32  and  N_46
   20  A    between atoms: C_34  and  C_42
   21  A    between atoms: C_36  and  C_53
   22  A    between atoms: C_37  and  C_54
   23  A    between atoms: N_38  and  C_63
   24  A    between atoms: C_40  and  C_55
   25  A    between atoms: C_41  and  N_57
   26  A    between atoms: C_42  and  C_43
                            x       y       z     vdW  Elec       q    Type
                         _______ _______ _______ _____ _____    ______ ____

>  <TORSDO>
F 26

$$$$
=
 OpenBabel11042414313D

 64 67  0  0  1  0  0  0  0  0999 V2000
  189.9070  172.6250  140.1700 C   0  0  0  0  0  0  0  0  0  0  0  0
  189.1170  173.4700  140.7780 N   0  0  0  0  0  0  0  0  0  0  0  0
  186.9060  176.9940  138.9090 C   0  0  0  0  0  2  0  0  0  0  0  0
  187.4590  176.6400  141.3670 C   0  0  0  0  0  2  0  0  0  0  0  0
  187.1380  175.5990  138.3390 C   0  0  0  0  0  3  0  0  0  0  0  0
  186.4010  177.0500  140.3810 C   0  0  1  0  0  3  0  0  0  0  0  0
  188.5370  174.6500  140.2130 C   0  0  1  0  0  3  0  0  0  0  0  0
  187.8750  174.6020  138.8850 C   0  0  0  0  0  3  0  0  0  0  0  0
  188.1140  175.5940  140.9840 C   0  0  0  0  0  2  0  0  0  0  0  0
  185.8240  178.4160  140.7510 C   0  0  1  0  0  3  0  0  0  0  0  0
  184.0790  177.4050  139.7220 O   0  0  0  0  0  1  0  0  0  0  0  0
  184.3890  178.4750  140.4920 N   0  0  0  0  0  2  0  0  0  0  0  0
  186.0970  178.7010  142.1540 N   0  0  0  0  0  2  0  0  0  0  0  0
  184.9470  178.2750  142.9450 C   0  0  0  0  0  2  0  0  0  0  0  0
  185.2050  178.4760  144.4360 C   0  0  1  0  0  3  0  0  0  0  0  0
  183.9570  179.0750  145.0680 C   0  0  0  0  0  1  0  0  0  0  0  0
  186.5060  178.2730  147.2800 C   0  0  0  0  0  2  0  0  0  0  0  0
  188.0390  177.0560  145.6520 C   0  0  0  0  0  0  0  0  0  0  0  0
  187.8550  177.6080  147.0520 C   0  0  0  0  0  2  0  0  0  0  0  0
  185.1830  177.0930  146.8840 S   0  0  0  0  0  0  0  0  0  0  0  0
  187.0120  176.7780  144.8300 C   0  0  0  0  0  3  0  0  0  0  0  0
  185.5670  177.1350  145.0920 C   0  0  2  0  0  3  0  0  0  0  0  0
  189.8740  177.4510  144.2050 O   0  0  0  0  0  1  0  0  0  0  0  0
  189.4050  176.6180  145.2230 C   0  0  2  0  0  3  0  0  0  0  0  0
  189.3840  175.1680  144.7530 C   0  0  0  0  0  2  0  0  0  0  0  0
  190.2630  174.9420  147.0160 N   0  0  0  0  0  1  0  0  0  0  0  0
  189.6660  174.2180  145.9070 C   0  0  0  0  0  2  0  0  0  0  0  0
  189.9830  172.2800  137.8250 O   0  0  0  0  0  0  0  0  0  0  0  0
  191.6210  173.7060  138.6620 N   0  0  0  0  0  2  0  0  0  0  0  0
  190.4690  172.8750  138.8240 C   0  0  0  0  0  0  0  0  0  0  0  0
  192.2010  173.9760  137.3570 C   0  0  0  0  0  2  0  0  0  0  0  0
  193.3830  173.0580  137.1110 C   0  0  1  0  0  3  0  0  0  0  0  0
  192.9600  171.9660  136.3470 O   0  0  0  0  0  1  0  0  0  0  0  0
  194.4510  173.8320  136.3590 C   0  0  0  0  0  2  0  0  0  0  0  0
  195.5560  172.9070  135.8880 C   0  0  0  0  0  2  0  0  0  0  0  0
  196.9000  173.5690  136.1390 C   0  0  1  0  0  3  0  0  0  0  0  0
  197.4360  174.0020  134.9230 O   0  0  0  0  0  1  0  0  0  0  0  0
  196.7590  174.7440  137.0990 C   0  0  2  0  0  3  0  0  0  0  0  0
  197.4670  175.8400  136.5950 O   0  0  0  0  0  1  0  0  0  0  0  0
  197.2970  174.3740  138.4020 N   0  0  0  0  0  2  0  0  0  0  0  0
  197.0290  175.4650  139.3280 C   0  0  0  0  0  2  0  0  0  0  0  0
  195.3710  176.1760  141.0780 C   0  0  1  0  0  3  0  0  0  0  0  0
  196.3100  177.0530  141.6240 O   0  0  0  0  0  1  0  0  0  0  0  0
  194.2850  173.6610  140.8700 C   0  0  0  0  0  2  0  0  0  0  0  0
  196.0830  174.9830  140.4130 C   0  0  1  0  0  3  0  0  0  0  0  0
  193.5730  174.8540  141.5190 C   0  0  0  0  0  2  0  0  0  0  0  0
  194.5250  175.7110  142.1050 O   0  0  0  0  0  0  0  0  0  0  0  0
  195.1270  174.1170  139.8380 O   0  0  0  0  0  0  0  0  0  0  0  0
  190.2440  171.3250  140.8450 C   0  0  1  0  0  3  0  0  0  0  0  0
  192.2140  170.0460  139.6660 N   0  0  0  0  0  0  0  0  0  0  0  0
  191.3470  170.6100  140.1850 C   0  0  0  0  0  0  0  0  0  0  0  0
  190.5160  171.5260  142.3060 C   0  0  0  0  0  0  0  0  0  0  0  0
  189.6050  171.4910  143.1200 O   0  0  0  0  0  0  0  0  0  0  0  0
  191.9260  171.7100  142.7570 C   0  0  0  0  0  2  0  0  0  0  0  0
  191.9560  172.1230  144.2210 C   0  0  0  0  0  2  0  0  0  0  0  0
  195.7860  172.5850  144.5130 C   0  0  0  0  0  0  0  0  0  0  0  0
  193.3490  174.0810  145.1550 C   0  0  0  0  0  2  0  0  0  0  0  0
  196.3600  171.8770  145.7320 C   0  0  0  0  0  1  0  0  0  0  0  0
  194.8230  175.7430  146.0290 O   0  0  0  0  0  1  0  0  0  0  0  0
  193.2900  172.6950  144.5690 C   0  0  0  0  0  0  0  0  0  0  0  0
  194.7350  174.3860  145.7200 C   0  0  2  0  0  3  0  0  0  0  0  0
  196.6860  172.2880  143.3320 C   0  0  0  0  0  1  0  0  0  0  0  0
  195.7640  174.0390  144.7350 N   0  0  0  0  0  2  0  0  0  0  0  0
  194.4090  172.0420  144.2130 C   0  0  0  0  0  3  0  0  0  0  0  0
  1  2  2  0  0  0  0
  1 49  1  0  0  0  0
  3  6  1  0  0  0  0
  5  8  2  0  0  0  0
  5  3  1  0  0  0  0
  6 10  1  1  0  0  0
  6  4  1  0  0  0  0
  7  2  1  1  0  0  0
  7  9  1  0  0  0  0
  8  7  1  0  0  0  0
  9  4  1  0  0  0  0
 10 12  1  1  0  0  0
 10 13  1  0  0  0  0
 11 12  1  0  0  0  0
 13 14  1  0  0  0  0
 14 15  1  0  0  0  0
 15 16  1  1  0  0  0
 18 19  1  0  0  0  0
 19 17  1  0  0  0  0
 20 17  1  0  0  0  0
 21 22  1  0  0  0  0
 21 18  2  0  0  0  0
 22 15  1  1  0  0  0
 22 20  1  0  0  0  0
 24 23  1  6  0  0  0
 24 18  1  0  0  0  0
 25 24  1  0  0  0  0
 25 27  1  0  0  0  0
 27 26  1  0  0  0  0
 28 30  2  0  0  0  0
 29 30  1  0  0  0  0
 30  1  1  0  0  0  0
 31 29  1  0  0  0  0
 32 33  1  6  0  0  0
 32 31  1  0  0  0  0
 34 32  1  0  0  0  0
 35 36  1  0  0  0  0
 35 34  1  0  0  0  0
 36 37  1  6  0  0  0
 36 38  1  0  0  0  0
 38 39  1  6  0  0  0
 38 40  1  0  0  0  0
 40 41  1  0  0  0  0
 42 43  1  1  0  0  0
 42 47  1  0  0  0  0
 44 46  1  0  0  0  0
 45 41  1  6  0  0  0
 45 42  1  0  0  0  0
 46 47  1  0  0  0  0
 48 45  1  0  0  0  0
 48 44  1  0  0  0  0
 49 51  1  6  0  0  0
 49 52  1  0  0  0  0
 50 51  3  0  0  0  0
 52 54  1  0  0  0  0
 52 53  2  0  0  0  0
 54 55  1  0  0  0  0
 55 60  1  0  0  0  0
 56 63  1  0  0  0  0
 56 58  1  0  0  0  0
 57 61  1  0  0  0  0
 60 57  1  0  0  0  0
 61 59  1  6  0  0  0
 62 56  1  0  0  0  0
 63 61  1  0  0  0  0
 64 56  1  0  0  0  0
 64 60  2  0  0  0  0
M  END
>  <MODEL>
4

>  <REMARK>
 VINA RESULT:      -5.5      2.953      9.523
  Name = 
  26 active torsions:
  status: ('A' for Active; 'I' for Inactive)
    1  A    between atoms: C_3  and  C_16
    2  A    between atoms: C_3  and  C_62
    3  A    between atoms: C_4  and  C_43
    4  A    between atoms: C_4  and  C_63
    5  A    between atoms: C_5  and  C_18
    6  A    between atoms: C_6  and  C_7
    7  A    between atoms: C_6  and  C_54
    8  A    between atoms: C_7  and  C_36
    9  A    between atoms: C_8  and  N_33
   10  A    between atoms: C_8  and  C_34
   11  A    between atoms: C_16  and  N_29
   12  A    between atoms: C_18  and  C_55
   13  A    between atoms: C_19  and  C_36
   14  A    between atoms: C_19  and  C_58
   15  A    between atoms: C_25  and  C_27
   16  A    between atoms: C_27  and  N_33
   17  A    between atoms: C_28  and  C_41
   18  A    between atoms: N_29  and  C_41
   19  A    between atoms: C_32  and  N_46
   20  A    between atoms: C_34  and  C_42
   21  A    between atoms: C_36  and  C_53
   22  A    between atoms: C_37  and  C_54
   23  A    between atoms: N_38  and  C_63
   24  A    between atoms: C_40  and  C_55
   25  A    between atoms: C_41  and  N_57
   26  A    between atoms: C_42  and  C_43
                            x       y       z     vdW  Elec       q    Type
                         _______ _______ _______ _____ _____    ______ ____

>  <TORSDO>
F 26

$$$$
=
 OpenBabel11042414313D

 64 67  0  0  1  0  0  0  0  0999 V2000
  186.8460  177.5470  142.5200 C   0  0  0  0  0  0  0  0  0  0  0  0
  187.1830  178.2040  143.5970 N   0  0  0  0  0  0  0  0  0  0  0  0
  190.2390  176.5390  146.5450 C   0  0  0  0  0  2  0  0  0  0  0  0
  190.7000  177.8010  144.3850 C   0  0  0  0  0  2  0  0  0  0  0  0
  188.7720  176.1620  146.3720 C   0  0  0  0  0  3  0  0  0  0  0  0
  191.0760  176.6210  145.2350 C   0  0  1  0  0  3  0  0  0  0  0  0
  188.1650  177.8110  144.5610 C   0  0  1  0  0  3  0  0  0  0  0  0
  187.8680  176.7380  145.5440 C   0  0  0  0  0  3  0  0  0  0  0  0
  189.4200  177.9640  144.3040 C   0  0  0  0  0  2  0  0  0  0  0  0
  192.5820  176.6100  145.5010 C   0  0  1  0  0  3  0  0  0  0  0  0
  194.0900  177.0330  147.1370 O   0  0  0  0  0  1  0  0  0  0  0  0
  192.8690  176.4840  146.9260 N   0  0  0  0  0  2  0  0  0  0  0  0
  193.2040  175.5190  144.7620 N   0  0  0  0  0  2  0  0  0  0  0  0
  193.8800  176.0760  143.5960 C   0  0  0  0  0  2  0  0  0  0  0  0
  195.3870  176.1590  143.8260 C   0  0  1  0  0  3  0  0  0  0  0  0
  195.8200  174.9520  144.6450 C   0  0  0  0  0  1  0  0  0  0  0  0
  194.4300  174.5530  141.3110 C   0  0  0  0  0  2  0  0  0  0  0  0
  196.8400  173.8780  141.7750 C   0  0  0  0  0  0  0  0  0  0  0  0
  195.5730  173.6020  140.9900 C   0  0  0  0  0  2  0  0  0  0  0  0
  194.9820  176.2630  141.0460 S   0  0  0  0  0  0  0  0  0  0  0  0
  197.1010  175.0610  142.3580 C   0  0  0  0  0  3  0  0  0  0  0  0
  196.1230  176.2060  142.4790 C   0  0  2  0  0  3  0  0  0  0  0  0
  197.8010  172.0370  140.6290 O   0  0  0  0  0  1  0  0  0  0  0  0
  197.9410  172.8630  141.7470 C   0  0  2  0  0  3  0  0  0  0  0  0
  197.9410  172.0310  143.0230 C   0  0  0  0  0  2  0  0  0  0  0  0
  195.9180  170.6910  143.2600 N   0  0  0  0  0  1  0  0  0  0  0  0
  197.2930  170.6750  142.7890 C   0  0  0  0  0  2  0  0  0  0  0  0
  186.6550  175.1840  142.6240 O   0  0  0  0  0  0  0  0  0  0  0  0
  188.5890  175.9690  141.5950 N   0  0  0  0  0  2  0  0  0  0  0  0
  187.3250  176.1770  142.2290 C   0  0  0  0  0  0  0  0  0  0  0  0
  189.0920  174.6390  141.2910 C   0  0  0  0  0  2  0  0  0  0  0  0
  190.3140  174.3390  142.1370 C   0  0  1  0  0  3  0  0  0  0  0  0
  189.9010  173.9710  143.4220 O   0  0  0  0  0  1  0  0  0  0  0  0
  191.0810  173.1970  141.4950 C   0  0  0  0  0  2  0  0  0  0  0  0
  191.0780  173.3270  139.9850 C   0  0  0  0  0  2  0  0  0  0  0  0
  192.1730  172.4470  139.4070 C   0  0  1  0  0  3  0  0  0  0  0  0
  192.5370  171.4830  140.3510 O   0  0  0  0  0  1  0  0  0  0  0  0
  191.7100  171.7740  138.1200 C   0  0  2  0  0  3  0  0  0  0  0  0
  192.7890  171.6740  137.2360 O   0  0  0  0  0  1  0  0  0  0  0  0
  190.6510  172.5690  137.5110 N   0  0  0  0  0  2  0  0  0  0  0  0
  191.2220  173.2920  136.3830 C   0  0  0  0  0  2  0  0  0  0  0  0
  191.1850  175.4910  135.1660 C   0  0  1  0  0  3  0  0  0  0  0  0
  192.4700  175.7790  135.6280 O   0  0  0  0  0  1  0  0  0  0  0  0
  188.4610  175.4830  135.5250 C   0  0  0  0  0  2  0  0  0  0  0  0
  190.4510  174.5830  136.1710 C   0  0  1  0  0  3  0  0  0  0  0  0
  189.1920  176.3760  134.5150 C   0  0  0  0  0  2  0  0  0  0  0  0
  190.4720  176.6970  135.0090 O   0  0  0  0  0  0  0  0  0  0  0  0
  189.1630  174.2730  135.6810 O   0  0  0  0  0  0  0  0  0  0  0  0
  185.9570  178.2130  141.5060 C   0  0  1  0  0  3  0  0  0  0  0  0
  186.2480  177.2190  139.0900 N   0  0  0  0  0  0  0  0  0  0  0  0
  186.1210  177.6570  140.1540 C   0  0  0  0  0  0  0  0  0  0  0  0
  184.5230  178.1850  141.9420 C   0  0  0  0  0  0  0  0  0  0  0  0
  184.2000  177.6430  142.9880 O   0  0  0  0  0  0  0  0  0  0  0  0
  183.5030  178.8860  141.1070 C   0  0  0  0  0  2  0  0  0  0  0  0
  182.6280  177.8690  140.3910 C   0  0  0  0  0  2  0  0  0  0  0  0
  178.7790  178.0630  140.0430 C   0  0  0  0  0  0  0  0  0  0  0  0
  180.8100  178.4780  142.1140 C   0  0  0  0  0  2  0  0  0  0  0  0
  178.3240  179.3730  139.4190 C   0  0  0  0  0  1  0  0  0  0  0  0
  178.9800  179.0730  143.5270 O   0  0  0  0  0  1  0  0  0  0  0  0
  181.1890  178.1150  140.7030 C   0  0  0  0  0  0  0  0  0  0  0  0
  179.3700  178.9800  142.1910 C   0  0  2  0  0  3  0  0  0  0  0  0
  178.0130  176.9370  139.3820 C   0  0  0  0  0  1  0  0  0  0  0  0
  178.4800  178.0550  141.4830 N   0  0  0  0  0  2  0  0  0  0  0  0
  180.2520  177.8590  139.7750 C   0  0  0  0  0  3  0  0  0  0  0  0
  1  2  2  0  0  0  0
  4  6  1  0  0  0  0
  5  3  1  0  0  0  0
  6 10  1  1  0  0  0
  6  3  1  0  0  0  0
  7  2  1  6  0  0  0
  7  8  1  0  0  0  0
  8  5  2  0  0  0  0
  9  4  1  0  0  0  0
  9  7  1  0  0  0  0
 10 13  1  6  0  0  0
 10 12  1  0  0  0  0
 12 11  1  0  0  0  0
 14 15  1  0  0  0  0
 14 13  1  0  0  0  0
 15 16  1  6  0  0  0
 18 21  2  0  0  0  0
 19 17  1  0  0  0  0
 19 18  1  0  0  0  0
 20 17  1  0  0  0  0
 20 22  1  0  0  0  0
 21 22  1  0  0  0  0
 22 15  1  1  0  0  0
 24 23  1  6  0  0  0
 24 18  1  0  0  0  0
 24 25  1  0  0  0  0
 27 25  1  0  0  0  0
 27 26  1  0  0  0  0
 29 30  1  0  0  0  0
 30  1  1  0  0  0  0
 30 28  2  0  0  0  0
 31 29  1  0  0  0  0
 31 32  1  0  0  0  0
 32 33  1  1  0  0  0
 34 32  1  0  0  0  0
 35 34  1  0  0  0  0
 36 35  1  0  0  0  0
 36 37  1  1  0  0  0
 38 39  1  6  0  0  0
 38 36  1  0  0  0  0
 40 38  1  0  0  0  0
 41 40  1  0  0  0  0
 42 43  1  1  0  0  0
 42 45  1  0  0  0  0
 44 48  1  0  0  0  0
 45 41  1  6  0  0  0
 46 47  1  0  0  0  0
 46 44  1  0  0  0  0
 47 42  1  0  0  0  0
 48 45  1  0  0  0  0
 49 51  1  6  0  0  0
 49 52  1  0  0  0  0
 49  1  1  0  0  0  0
 50 51  3  0  0  0  0
 52 53  2  0  0  0  0
 54 52  1  0  0  0  0
 55 60  1  0  0  0  0
 55 54  1  0  0  0  0
 56 63  1  0  0  0  0
 57 61  1  0  0  0  0
 58 56  1  0  0  0  0
 60 57  1  0  0  0  0
 61 59  1  1  0  0  0
 62 56  1  0  0  0  0
 63 61  1  0  0  0  0
 64 56  1  0  0  0  0
 64 60  2  0  0  0  0
M  END
>  <MODEL>
5

>  <REMARK>
 VINA RESULT:      -5.3      3.398     11.037
  Name = 
  26 active torsions:
  status: ('A' for Active; 'I' for Inactive)
    1  A    between atoms: C_3  and  C_16
    2  A    between atoms: C_3  and  C_62
    3  A    between atoms: C_4  and  C_43
    4  A    between atoms: C_4  and  C_63
    5  A    between atoms: C_5  and  C_18
    6  A    between atoms: C_6  and  C_7
    7  A    between atoms: C_6  and  C_54
    8  A    between atoms: C_7  and  C_36
    9  A    between atoms: C_8  and  N_33
   10  A    between atoms: C_8  and  C_34
   11  A    between atoms: C_16  and  N_29
   12  A    between atoms: C_18  and  C_55
   13  A    between atoms: C_19  and  C_36
   14  A    between atoms: C_19  and  C_58
   15  A    between atoms: C_25  and  C_27
   16  A    between atoms: C_27  and  N_33
   17  A    between atoms: C_28  and  C_41
   18  A    between atoms: N_29  and  C_41
   19  A    between atoms: C_32  and  N_46
   20  A    between atoms: C_34  and  C_42
   21  A    between atoms: C_36  and  C_53
   22  A    between atoms: C_37  and  C_54
   23  A    between atoms: N_38  and  C_63
   24  A    between atoms: C_40  and  C_55
   25  A    between atoms: C_41  and  N_57
   26  A    between atoms: C_42  and  C_43
                            x       y       z     vdW  Elec       q    Type
                         _______ _______ _______ _____ _____    ______ ____

>  <TORSDO>
F 26

$$$$
=
 OpenBabel11042414313D

 64 67  0  0  1  0  0  0  0  0999 V2000
  192.1510  170.6740  138.5320 C   0  0  0  0  0  0  0  0  0  0  0  0
  191.2400  170.9380  139.4310 N   0  0  0  0  0  0  0  0  0  0  0  0
  188.5290  174.5690  139.9400 C   0  0  0  0  0  2  0  0  0  0  0  0
  190.3770  173.7860  141.5020 C   0  0  0  0  0  2  0  0  0  0  0  0
  188.3240  173.3370  139.0660 C   0  0  0  0  0  3  0  0  0  0  0  0
  188.9660  174.2940  141.4090 C   0  0  1  0  0  3  0  0  0  0  0  0
  190.4980  172.1550  139.5580 C   0  0  1  0  0  3  0  0  0  0  0  0
  189.1920  172.3150  138.8720 C   0  0  0  0  0  3  0  0  0  0  0  0
  190.6420  172.8920  140.6080 C   0  0  0  0  0  2  0  0  0  0  0  0
  188.7730  175.5100  142.3150 C   0  0  1  0  0  3  0  0  0  0  0  0
  186.5490  175.3740  142.7180 O   0  0  0  0  0  1  0  0  0  0  0  0
  187.4750  176.1380  142.0920 N   0  0  0  0  0  2  0  0  0  0  0  0
  188.9060  175.1080  143.7110 N   0  0  0  0  0  2  0  0  0  0  0  0
  189.0420  176.3090  144.5270 C   0  0  0  0  0  2  0  0  0  0  0  0
  188.0360  176.3070  145.6740 C   0  0  1  0  0  3  0  0  0  0  0  0
  188.6790  175.6440  146.8830 C   0  0  0  0  0  1  0  0  0  0  0  0
  185.2500  177.0040  146.9310 C   0  0  0  0  0  2  0  0  0  0  0  0
  185.4640  178.3310  144.7690 C   0  0  0  0  0  0  0  0  0  0  0  0
  184.5600  177.8830  145.8990 C   0  0  0  0  0  2  0  0  0  0  0  0
  186.7010  177.8770  147.5870 S   0  0  0  0  0  0  0  0  0  0  0  0
  186.8060  178.3380  144.8600 C   0  0  0  0  0  3  0  0  0  0  0  0
  187.6040  177.7460  145.9970 C   0  0  2  0  0  3  0  0  0  0  0  0
  183.7480  179.7440  143.9450 O   0  0  0  0  0  1  0  0  0  0  0  0
  184.8500  178.9740  143.5650 C   0  0  2  0  0  3  0  0  0  0  0  0
  184.4340  177.9230  142.5440 C   0  0  0  0  0  2  0  0  0  0  0  0
  183.2800  177.9760  140.3960 N   0  0  0  0  0  1  0  0  0  0  0  0
  184.4110  178.5060  141.1390 C   0  0  0  0  0  2  0  0  0  0  0  0
  192.1540  171.8360  136.4640 O   0  0  0  0  0  0  0  0  0  0  0  0
  193.8490  172.4460  137.9370 N   0  0  0  0  0  2  0  0  0  0  0  0
  192.6820  171.6930  137.6000 C   0  0  0  0  0  0  0  0  0  0  0  0
  194.3990  173.4580  137.0500 C   0  0  0  0  0  2  0  0  0  0  0  0
  194.5050  174.7850  137.7750 C   0  0  1  0  0  3  0  0  0  0  0  0
  193.5130  174.8470  138.7590 O   0  0  0  0  0  1  0  0  0  0  0  0
  195.8770  174.8800  138.4180 C   0  0  0  0  0  2  0  0  0  0  0  0
  195.9070  174.1340  139.7370 C   0  0  0  0  0  2  0  0  0  0  0  0
  196.5800  175.0030  140.7860 C   0  0  1  0  0  3  0  0  0  0  0  0
  196.3730  176.3500  140.4720 O   0  0  0  0  0  1  0  0  0  0  0  0
  196.0380  174.6990  142.1770 C   0  0  2  0  0  3  0  0  0  0  0  0
  195.0400  173.7250  142.0820 O   0  0  0  0  0  1  0  0  0  0  0  0
  195.4800  175.9140  142.7570 N   0  0  0  0  0  2  0  0  0  0  0  0
  195.8040  175.9270  144.1760 C   0  0  0  0  0  2  0  0  0  0  0  0
  193.3160  175.9850  144.5300 C   0  0  1  0  0  3  0  0  0  0  0  0
  193.1160  176.1520  143.1590 O   0  0  0  0  0  1  0  0  0  0  0  0
  193.8360  177.0350  147.0150 C   0  0  0  0  0  2  0  0  0  0  0  0
  194.6730  176.5860  144.9450 C   0  0  1  0  0  3  0  0  0  0  0  0
  192.4910  176.4240  146.6050 C   0  0  0  0  0  2  0  0  0  0  0  0
  192.2770  176.6340  145.2280 O   0  0  0  0  0  0  0  0  0  0  0  0
  194.8800  176.3870  146.3270 O   0  0  0  0  0  0  0  0  0  0  0  0
  192.6690  169.2670  138.4080 C   0  0  1  0  0  3  0  0  0  0  0  0
  194.6020  169.0490  136.6400 N   0  0  0  0  0  0  0  0  0  0  0  0
  193.7510  169.1440  137.4190 C   0  0  0  0  0  0  0  0  0  0  0  0
  193.0800  168.7220  139.7430 C   0  0  0  0  0  0  0  0  0  0  0  0
  192.2660  168.1690  140.4670 O   0  0  0  0  0  0  0  0  0  0  0  0
  194.5140  168.8110  140.1470 C   0  0  0  0  0  2  0  0  0  0  0  0
  194.8310  170.2140  140.6390 C   0  0  0  0  0  2  0  0  0  0  0  0
  195.0610  170.3740  144.4980 C   0  0  0  0  0  0  0  0  0  0  0  0
  193.0590  170.8310  142.4070 C   0  0  0  0  0  2  0  0  0  0  0  0
  194.9140  169.0030  145.1410 C   0  0  0  0  0  1  0  0  0  0  0  0
  191.5600  171.3000  144.2050 O   0  0  0  0  0  1  0  0  0  0  0  0
  194.4490  170.3560  142.0750 C   0  0  0  0  0  0  0  0  0  0  0  0
  192.7450  170.6350  143.8890 C   0  0  2  0  0  3  0  0  0  0  0  0
  196.2200  171.0830  145.1670 C   0  0  0  0  0  1  0  0  0  0  0  0
  193.8390  171.1660  144.7070 N   0  0  0  0  0  2  0  0  0  0  0  0
  195.3830  170.2150  143.0310 C   0  0  0  0  0  3  0  0  0  0  0  0
  1  2  2  0  0  0  0
  3  6  1  0  0  0  0
  5  3  1  0  0  0  0
  6  4  1  0  0  0  0
  6 10  1  1  0  0  0
  7  2  1  1  0  0  0
  7  9  1  0  0  0  0
  8  5  2  0  0  0  0
  8  7  1  0  0  0  0
  9  4  1  0  0  0  0
 10 12  1  1  0  0  0
 10 13  1  0  0  0  0
 12 11  1  0  0  0  0
 13 14  1  0  0  0  0
 14 15  1  0  0  0  0
 15 16  1  1  0  0  0
 17 20  1  0  0  0  0
 18 21  2  0  0  0  0
 18 19  1  0  0  0  0
 19 17  1  0  0  0  0
 21 22  1  0  0  0  0
 22 15  1  6  0  0  0
 22 20  1  0  0  0  0
 24 23  1  1  0  0  0
 24 18  1  0  0  0  0
 25 24  1  0  0  0  0
 26 27  1  0  0  0  0
 27 25  1  0  0  0  0
 28 30  2  0  0  0  0
 30 29  1  0  0  0  0
 30  1  1  0  0  0  0
 31 32  1  0  0  0  0
 31 29  1  0  0  0  0
 32 34  1  0  0  0  0
 32 33  1  1  0  0  0
 34 35  1  0  0  0  0
 35 36  1  0  0  0  0
 36 37  1  6  0  0  0
 36 38  1  0  0  0  0
 38 39  1  6  0  0  0
 38 40  1  0  0  0  0
 40 41  1  0  0  0  0
 42 43  1  6  0  0  0
 42 45  1  0  0  0  0
 42 47  1  0  0  0  0
 45 41  1  6  0  0  0
 45 48  1  0  0  0  0
 46 44  1  0  0  0  0
 47 46  1  0  0  0  0
 48 44  1  0  0  0  0
 49 51  1  6  0  0  0
 49  1  1  0  0  0  0
 49 52  1  0  0  0  0
 50 51  3  0  0  0  0
 52 54  1  0  0  0  0
 52 53  2  0  0  0  0
 54 55  1  0  0  0  0
 55 60  1  0  0  0  0
 56 63  1  0  0  0  0
 56 58  1  0  0  0  0
 56 62  1  0  0  0  0
 57 61  1  0  0  0  0
 60 57  1  0  0  0  0
 60 64  2  0  0  0  0
 61 59  1  1  0  0  0
 61 63  1  0  0  0  0
 64 56  1  0  0  0  0
M  END
>  <MODEL>
6

>  <REMARK>
 VINA RESULT:      -5.0      2.823      8.738
  Name = 
  26 active torsions:
  status: ('A' for Active; 'I' for Inactive)
    1  A    between atoms: C_3  and  C_16
    2  A    between atoms: C_3  and  C_62
    3  A    between atoms: C_4  and  C_43
    4  A    between atoms: C_4  and  C_63
    5  A    between atoms: C_5  and  C_18
    6  A    between atoms: C_6  and  C_7
    7  A    between atoms: C_6  and  C_54
    8  A    between atoms: C_7  and  C_36
    9  A    between atoms: C_8  and  N_33
   10  A    between atoms: C_8  and  C_34
   11  A    between atoms: C_16  and  N_29
   12  A    between atoms: C_18  and  C_55
   13  A    between atoms: C_19  and  C_36
   14  A    between atoms: C_19  and  C_58
   15  A    between atoms: C_25  and  C_27
   16  A    between atoms: C_27  and  N_33
   17  A    between atoms: C_28  and  C_41
   18  A    between atoms: N_29  and  C_41
   19  A    between atoms: C_32  and  N_46
   20  A    between atoms: C_34  and  C_42
   21  A    between atoms: C_36  and  C_53
   22  A    between atoms: C_37  and  C_54
   23  A    between atoms: N_38  and  C_63
   24  A    between atoms: C_40  and  C_55
   25  A    between atoms: C_41  and  N_57
   26  A    between atoms: C_42  and  C_43
                            x       y       z     vdW  Elec       q    Type
                         _______ _______ _______ _____ _____    ______ ____

>  <TORSDO>
F 26

$$$$
=
 OpenBabel11042414313D

 64 67  0  0  1  0  0  0  0  0999 V2000
  191.4040  172.3370  140.6020 C   0  0  0  0  0  0  0  0  0  0  0  0
  191.3210  173.5990  140.9310 N   0  0  0  0  0  0  0  0  0  0  0  0
  191.4560  175.7120  144.9700 C   0  0  0  0  0  2  0  0  0  0  0  0
  189.6950  174.0760  144.1360 C   0  0  0  0  0  2  0  0  0  0  0  0
  192.1720  176.0770  143.6740 C   0  0  0  0  0  3  0  0  0  0  0  0
  189.9400  175.3830  144.8360 C   0  0  1  0  0  3  0  0  0  0  0  0
  191.3990  174.1410  142.2530 C   0  0  1  0  0  3  0  0  0  0  0  0
  192.1780  175.3760  142.5150 C   0  0  0  0  0  3  0  0  0  0  0  0
  190.4480  173.9230  143.0970 C   0  0  0  0  0  2  0  0  0  0  0  0
  189.2130  175.4150  146.1810 C   0  0  1  0  0  3  0  0  0  0  0  0
  188.5540  174.2190  147.9870 O   0  0  0  0  0  1  0  0  0  0  0  0
  189.3270  174.1380  146.8780 N   0  0  0  0  0  2  0  0  0  0  0  0
  189.7530  176.4890  147.0060 N   0  0  0  0  0  2  0  0  0  0  0  0
  189.1850  177.7530  146.5490 C   0  0  0  0  0  2  0  0  0  0  0  0
  187.6760  177.6350  146.3560 C   0  0  1  0  0  3  0  0  0  0  0  0
  186.9910  177.9670  147.6740 C   0  0  0  0  0  1  0  0  0  0  0  0
  184.7520  177.6310  145.2290 C   0  0  0  0  0  2  0  0  0  0  0  0
  186.3270  177.2640  143.2630 C   0  0  0  0  0  0  0  0  0  0  0  0
  184.8950  177.2660  143.7590 C   0  0  0  0  0  2  0  0  0  0  0  0
  185.5270  179.2460  145.5230 S   0  0  0  0  0  0  0  0  0  0  0  0
  187.3220  177.9170  143.8870 C   0  0  0  0  0  3  0  0  0  0  0  0
  187.2120  178.5820  145.2390 C   0  0  2  0  0  3  0  0  0  0  0  0
  187.7260  175.8170  142.0110 O   0  0  0  0  0  1  0  0  0  0  0  0
  186.6250  176.6720  141.9210 C   0  0  2  0  0  3  0  0  0  0  0  0
  186.8880  177.7660  140.8930 C   0  0  0  0  0  2  0  0  0  0  0  0
  184.5410  178.2250  140.4160 N   0  0  0  0  0  1  0  0  0  0  0  0
  185.7990  177.7900  139.8320 C   0  0  0  0  0  2  0  0  0  0  0  0
  190.3460  170.6270  141.8620 O   0  0  0  0  0  0  0  0  0  0  0  0
  192.6010  170.9510  142.3420 N   0  0  0  0  0  2  0  0  0  0  0  0
  191.4140  171.2440  141.6000 C   0  0  0  0  0  0  0  0  0  0  0  0
  192.6510  169.8840  143.3290 C   0  0  0  0  0  2  0  0  0  0  0  0
  193.7430  168.8950  142.9700 C   0  0  1  0  0  3  0  0  0  0  0  0
  194.3350  169.2860  141.7650 O   0  0  0  0  0  1  0  0  0  0  0  0
  194.7800  168.8930  144.0790 C   0  0  0  0  0  2  0  0  0  0  0  0
  194.1850  169.4060  145.3750 C   0  0  0  0  0  2  0  0  0  0  0  0
  195.2490  170.1680  146.1450 C   0  0  1  0  0  3  0  0  0  0  0  0
  196.0080  169.2680  146.8990 O   0  0  0  0  0  1  0  0  0  0  0  0
  196.1510  170.9520  145.1990 C   0  0  2  0  0  3  0  0  0  0  0  0
  197.4390  171.0230  145.7410 O   0  0  0  0  0  1  0  0  0  0  0  0
  195.6190  172.2980  145.0260 N   0  0  0  0  0  2  0  0  0  0  0  0
  196.5080  173.2260  145.7100 C   0  0  0  0  0  2  0  0  0  0  0  0
  196.8300  174.1230  143.3840 C   0  0  1  0  0  3  0  0  0  0  0  0
  197.9410  173.2970  143.2090 O   0  0  0  0  0  1  0  0  0  0  0  0
  195.7090  176.4640  144.2840 C   0  0  0  0  0  2  0  0  0  0  0  0
  196.6650  174.4830  144.8730 C   0  0  1  0  0  3  0  0  0  0  0  0
  195.8610  176.0980  142.8030 C   0  0  0  0  0  2  0  0  0  0  0  0
  197.0090  175.3000  142.6290 O   0  0  0  0  0  0  0  0  0  0  0  0
  195.5220  175.2940  145.0440 O   0  0  0  0  0  0  0  0  0  0  0  0
  191.5250  171.9670  139.1500 C   0  0  1  0  0  3  0  0  0  0  0  0
  189.6350  173.0340  137.6670 N   0  0  0  0  0  0  0  0  0  0  0  0
  190.4680  172.5650  138.3200 C   0  0  0  0  0  0  0  0  0  0  0  0
  192.8900  172.2910  138.6200 C   0  0  0  0  0  0  0  0  0  0  0  0
  193.8750  172.1970  139.3370 O   0  0  0  0  0  0  0  0  0  0  0  0
  193.0330  172.6710  137.1840 C   0  0  0  0  0  2  0  0  0  0  0  0
  193.2870  174.1660  137.0630 C   0  0  0  0  0  2  0  0  0  0  0  0
  196.8770  173.5700  135.7480 C   0  0  0  0  0  0  0  0  0  0  0  0
  194.9950  175.7990  136.0330 C   0  0  0  0  0  2  0  0  0  0  0  0
  197.9030  173.5420  136.8710 C   0  0  0  0  0  1  0  0  0  0  0  0
  196.7420  177.1460  135.1220 O   0  0  0  0  0  1  0  0  0  0  0  0
  194.6540  174.4140  136.5180 C   0  0  0  0  0  0  0  0  0  0  0  0
  196.4960  175.9480  135.7930 C   0  0  2  0  0  3  0  0  0  0  0  0
  197.1690  172.4130  134.8170 C   0  0  0  0  0  1  0  0  0  0  0  0
  196.9880  174.8260  134.9900 N   0  0  0  0  0  2  0  0  0  0  0  0
  195.4920  173.3830  136.3230 C   0  0  0  0  0  3  0  0  0  0  0  0
  1  2  2  0  0  0  0
  1 30  1  0  0  0  0
  4  6  1  0  0  0  0
  5  3  1  0  0  0  0
  6  3  1  0  0  0  0
  6 10  1  1  0  0  0
  7  2  1  6  0  0  0
  7  8  1  0  0  0  0
  7  9  1  0  0  0  0
  8  5  2  0  0  0  0
  9  4  1  0  0  0  0
 10 12  1  1  0  0  0
 10 13  1  0  0  0  0
 12 11  1  0  0  0  0
 14 13  1  0  0  0  0
 15 14  1  0  0  0  0
 15 16  1  1  0  0  0
 17 20  1  0  0  0  0
 18 19  1  0  0  0  0
 18 21  2  0  0  0  0
 19 17  1  0  0  0  0
 21 22  1  0  0  0  0
 22 20  1  0  0  0  0
 22 15  1  1  0  0  0
 24 23  1  1  0  0  0
 24 18  1  0  0  0  0
 25 24  1  0  0  0  0
 27 26  1  0  0  0  0
 27 25  1  0  0  0  0
 29 31  1  0  0  0  0
 30 28  2  0  0  0  0
 30 29  1  0  0  0  0
 32 33  1  6  0  0  0
 32 31  1  0  0  0  0
 32 34  1  0  0  0  0
 34 35  1  0  0  0  0
 35 36  1  0  0  0  0
 36 37  1  6  0  0  0
 38 39  1  1  0  0  0
 38 36  1  0  0  0  0
 40 38  1  0  0  0  0
 40 41  1  0  0  0  0
 42 43  1  1  0  0  0
 42 45  1  0  0  0  0
 44 48  1  0  0  0  0
 45 48  1  0  0  0  0
 45 41  1  1  0  0  0
 46 44  1  0  0  0  0
 47 46  1  0  0  0  0
 47 42  1  0  0  0  0
 49 51  1  6  0  0  0
 49  1  1  0  0  0  0
 50 51  3  0  0  0  0
 52 49  1  0  0  0  0
 52 53  2  0  0  0  0
 54 52  1  0  0  0  0
 55 54  1  0  0  0  0
 56 64  1  0  0  0  0
 56 58  1  0  0  0  0
 57 60  1  0  0  0  0
 60 55  1  0  0  0  0
 61 59  1  6  0  0  0
 61 57  1  0  0  0  0
 62 56  1  0  0  0  0
 63 56  1  0  0  0  0
 63 61  1  0  0  0  0
 64 60  2  0  0  0  0
M  END
>  <MODEL>
7

>  <REMARK>
 VINA RESULT:      -5.0      3.197      9.907
  Name = 
  26 active torsions:
  status: ('A' for Active; 'I' for Inactive)
    1  A    between atoms: C_3  and  C_16
    2  A    between atoms: C_3  and  C_62
    3  A    between atoms: C_4  and  C_43
    4  A    between atoms: C_4  and  C_63
    5  A    between atoms: C_5  and  C_18
    6  A    between atoms: C_6  and  C_7
    7  A    between atoms: C_6  and  C_54
    8  A    between atoms: C_7  and  C_36
    9  A    between atoms: C_8  and  N_33
   10  A    between atoms: C_8  and  C_34
   11  A    between atoms: C_16  and  N_29
   12  A    between atoms: C_18  and  C_55
   13  A    between atoms: C_19  and  C_36
   14  A    between atoms: C_19  and  C_58
   15  A    between atoms: C_25  and  C_27
   16  A    between atoms: C_27  and  N_33
   17  A    between atoms: C_28  and  C_41
   18  A    between atoms: N_29  and  C_41
   19  A    between atoms: C_32  and  N_46
   20  A    between atoms: C_34  and  C_42
   21  A    between atoms: C_36  and  C_53
   22  A    between atoms: C_37  and  C_54
   23  A    between atoms: N_38  and  C_63
   24  A    between atoms: C_40  and  C_55
   25  A    between atoms: C_41  and  N_57
   26  A    between atoms: C_42  and  C_43
                            x       y       z     vdW  Elec       q    Type
                         _______ _______ _______ _____ _____    ______ ____

>  <TORSDO>
F 26

$$$$
=
 OpenBabel11042414313D

 64 67  0  0  1  0  0  0  0  0999 V2000
  190.0170  172.8750  140.9270 C   0  0  0  0  0  0  0  0  0  0  0  0
  189.3660  173.8100  141.5660 N   0  0  0  0  0  0  0  0  0  0  0  0
  186.7880  177.0280  139.6170 C   0  0  0  0  0  2  0  0  0  0  0  0
  187.3170  176.7560  142.0900 C   0  0  0  0  0  2  0  0  0  0  0  0
  187.2040  175.6700  139.0630 C   0  0  0  0  0  3  0  0  0  0  0  0
  186.2430  177.0280  141.0760 C   0  0  1  0  0  3  0  0  0  0  0  0
  188.6600  174.9080  140.9780 C   0  0  1  0  0  3  0  0  0  0  0  0
  188.0430  174.7740  139.6340 C   0  0  0  0  0  3  0  0  0  0  0  0
  188.1050  175.7960  141.7320 C   0  0  0  0  0  2  0  0  0  0  0  0
  185.4930  178.3150  141.4210 C   0  0  1  0  0  3  0  0  0  0  0  0
  183.6550  178.6710  140.1470 O   0  0  0  0  0  1  0  0  0  0  0  0
  184.0490  178.1310  141.3250 N   0  0  0  0  0  2  0  0  0  0  0  0
  185.8590  178.7510  142.7630 N   0  0  0  0  0  2  0  0  0  0  0  0
  184.8960  178.1960  143.7080 C   0  0  0  0  0  2  0  0  0  0  0  0
  185.3470  178.4310  145.1480 C   0  0  1  0  0  3  0  0  0  0  0  0
  184.1870  179.0340  145.9270 C   0  0  0  0  0  1  0  0  0  0  0  0
  187.3590  178.2990  147.5460 C   0  0  0  0  0  2  0  0  0  0  0  0
  188.3300  176.8930  145.6590 C   0  0  0  0  0  0  0  0  0  0  0  0
  188.5610  177.5340  147.0130 C   0  0  0  0  0  2  0  0  0  0  0  0
  185.9210  177.1910  147.6050 S   0  0  0  0  0  0  0  0  0  0  0  0
  187.1050  176.6400  145.1640 C   0  0  0  0  0  3  0  0  0  0  0  0
  185.8060  177.1070  145.7780 C   0  0  2  0  0  3  0  0  0  0  0  0
  189.5640  174.9540  145.0770 O   0  0  0  0  0  1  0  0  0  0  0  0
  189.5040  176.3400  144.9120 C   0  0  2  0  0  3  0  0  0  0  0  0
  190.8000  176.9860  145.3880 C   0  0  0  0  0  2  0  0  0  0  0  0
  190.5670  177.8780  143.1300 N   0  0  0  0  0  1  0  0  0  0  0  0
  191.4750  177.7490  144.2580 C   0  0  0  0  0  2  0  0  0  0  0  0
  189.6120  172.1720  138.6980 O   0  0  0  0  0  0  0  0  0  0  0  0
  191.3210  173.7330  138.9410 N   0  0  0  0  0  2  0  0  0  0  0  0
  190.2700  172.9210  139.4700 C   0  0  0  0  0  0  0  0  0  0  0  0
  191.5980  173.8060  137.5160 C   0  0  0  0  0  2  0  0  0  0  0  0
  192.9710  173.2330  137.2220 C   0  0  1  0  0  3  0  0  0  0  0  0
  193.1880  173.2560  135.8400 O   0  0  0  0  0  1  0  0  0  0  0  0
  194.0140  174.0860  137.9230 C   0  0  0  0  0  2  0  0  0  0  0  0
  194.5580  175.1480  136.9890 C   0  0  0  0  0  2  0  0  0  0  0  0
  196.0190  174.8530  136.6960 C   0  0  1  0  0  3  0  0  0  0  0  0
  196.6770  176.0450  136.3780 O   0  0  0  0  0  1  0  0  0  0  0  0
  196.6910  174.1840  137.8890 C   0  0  2  0  0  3  0  0  0  0  0  0
  197.6050  175.0730  138.4630 O   0  0  0  0  0  1  0  0  0  0  0  0
  197.3910  172.9860  137.4430 N   0  0  0  0  0  2  0  0  0  0  0  0
  197.9300  172.3150  138.6170 C   0  0  0  0  0  2  0  0  0  0  0  0
  196.7790  170.1370  139.1180 C   0  0  1  0  0  3  0  0  0  0  0  0
  196.6310  169.8920  137.7520 O   0  0  0  0  0  1  0  0  0  0  0  0
  195.9010  171.2990  141.4470 C   0  0  0  0  0  2  0  0  0  0  0  0
  196.7990  171.6540  139.3850 C   0  0  1  0  0  3  0  0  0  0  0  0
  195.8950  169.7890  141.1850 C   0  0  0  0  0  2  0  0  0  0  0  0
  195.7020  169.5480  139.8100 O   0  0  0  0  0  0  0  0  0  0  0  0
  196.9790  171.8940  140.7650 O   0  0  0  0  0  0  0  0  0  0  0  0
  190.5120  171.6780  141.6910 C   0  0  1  0  0  3  0  0  0  0  0  0
  192.4160  170.3810  140.4260 N   0  0  0  0  0  0  0  0  0  0  0  0
  191.5770  170.9520  140.9840 C   0  0  0  0  0  0  0  0  0  0  0  0
  190.9320  172.0570  143.0800 C   0  0  0  0  0  0  0  0  0  0  0  0
  190.2500  171.7430  144.0440 O   0  0  0  0  0  0  0  0  0  0  0  0
  192.2290  172.7700  143.2700 C   0  0  0  0  0  2  0  0  0  0  0  0
  192.8700  172.3460  144.5830 C   0  0  0  0  0  2  0  0  0  0  0  0
  196.3700  173.9570  144.9350 C   0  0  0  0  0  0  0  0  0  0  0  0
  193.5840  174.6240  145.5540 C   0  0  0  0  0  2  0  0  0  0  0  0
  197.1190  173.4440  146.1550 C   0  0  0  0  0  1  0  0  0  0  0  0
  194.4660  176.6470  146.4650 O   0  0  0  0  0  1  0  0  0  0  0  0
  193.9600  173.2950  144.9550 C   0  0  0  0  0  0  0  0  0  0  0  0
  194.8030  175.3330  146.1420 C   0  0  2  0  0  3  0  0  0  0  0  0
  197.3300  173.9660  143.7640 C   0  0  0  0  0  1  0  0  0  0  0  0
  195.9000  175.3310  145.1700 N   0  0  0  0  0  2  0  0  0  0  0  0
  195.2290  173.0220  144.6100 C   0  0  0  0  0  3  0  0  0  0  0  0
  1  2  2  0  0  0  0
  1 49  1  0  0  0  0
  3  6  1  0  0  0  0
  5  3  1  0  0  0  0
  5  8  2  0  0  0  0
  6 10  1  1  0  0  0
  6  4  1  0  0  0  0
  7  2  1  1  0  0  0
  7  9  1  0  0  0  0
  8  7  1  0  0  0  0
  9  4  1  0  0  0  0
 10 12  1  1  0  0  0
 10 13  1  0  0  0  0
 11 12  1  0  0  0  0
 13 14  1  0  0  0  0
 14 15  1  0  0  0  0
 15 16  1  1  0  0  0
 17 20  1  0  0  0  0
 18 19  1  0  0  0  0
 19 17  1  0  0  0  0
 21 18  2  0  0  0  0
 21 22  1  0  0  0  0
 22 15  1  6  0  0  0
 22 20  1  0  0  0  0
 24 23  1  1  0  0  0
 24 25  1  0  0  0  0
 24 18  1  0  0  0  0
 26 27  1  0  0  0  0
 27 25  1  0  0  0  0
 28 30  2  0  0  0  0
 29 30  1  0  0  0  0
 30  1  1  0  0  0  0
 31 29  1  0  0  0  0
 32 33  1  6  0  0  0
 32 31  1  0  0  0  0
 32 34  1  0  0  0  0
 35 34  1  0  0  0  0
 36 37  1  1  0  0  0
 36 35  1  0  0  0  0
 36 38  1  0  0  0  0
 38 39  1  6  0  0  0
 40 38  1  0  0  0  0
 40 41  1  0  0  0  0
 42 43  1  6  0  0  0
 42 45  1  0  0  0  0
 42 47  1  0  0  0  0
 45 41  1  6  0  0  0
 45 48  1  0  0  0  0
 46 44  1  0  0  0  0
 47 46  1  0  0  0  0
 48 44  1  0  0  0  0
 49 51  1  6  0  0  0
 49 52  1  0  0  0  0
 50 51  3  0  0  0  0
 52 54  1  0  0  0  0
 52 53  2  0  0  0  0
 54 55  1  0  0  0  0
 55 60  1  0  0  0  0
 56 63  1  0  0  0  0
 56 58  1  0  0  0  0
 57 61  1  0  0  0  0
 60 57  1  0  0  0  0
 61 59  1  6  0  0  0
 62 56  1  0  0  0  0
 63 61  1  0  0  0  0
 64 56  1  0  0  0  0
 64 60  2  0  0  0  0
M  END
>  <MODEL>
8

>  <REMARK>
 VINA RESULT:      -5.0      3.142      9.901
  Name = 
  26 active torsions:
  status: ('A' for Active; 'I' for Inactive)
    1  A    between atoms: C_3  and  C_16
    2  A    between atoms: C_3  and  C_62
    3  A    between atoms: C_4  and  C_43
    4  A    between atoms: C_4  and  C_63
    5  A    between atoms: C_5  and  C_18
    6  A    between atoms: C_6  and  C_7
    7  A    between atoms: C_6  and  C_54
    8  A    between atoms: C_7  and  C_36
    9  A    between atoms: C_8  and  N_33
   10  A    between atoms: C_8  and  C_34
   11  A    between atoms: C_16  and  N_29
   12  A    between atoms: C_18  and  C_55
   13  A    between atoms: C_19  and  C_36
   14  A    between atoms: C_19  and  C_58
   15  A    between atoms: C_25  and  C_27
   16  A    between atoms: C_27  and  N_33
   17  A    between atoms: C_28  and  C_41
   18  A    between atoms: N_29  and  C_41
   19  A    between atoms: C_32  and  N_46
   20  A    between atoms: C_34  and  C_42
   21  A    between atoms: C_36  and  C_53
   22  A    between atoms: C_37  and  C_54
   23  A    between atoms: N_38  and  C_63
   24  A    between atoms: C_40  and  C_55
   25  A    between atoms: C_41  and  N_57
   26  A    between atoms: C_42  and  C_43
                            x       y       z     vdW  Elec       q    Type
                         _______ _______ _______ _____ _____    ______ ____

>  <TORSDO>
F 26

$$$$
=
 OpenBabel11042414313D

 64 67  0  0  1  0  0  0  0  0999 V2000
  190.6090  172.7590  140.8180 C   0  0  0  0  0  0  0  0  0  0  0  0
  190.4850  174.0210  141.1300 N   0  0  0  0  0  0  0  0  0  0  0  0
  190.9380  176.2440  145.0860 C   0  0  0  0  0  2  0  0  0  0  0  0
  189.0910  174.6260  144.4220 C   0  0  0  0  0  2  0  0  0  0  0  0
  191.5720  176.5560  143.7350 C   0  0  0  0  0  3  0  0  0  0  0  0
  189.4100  175.9460  145.0650 C   0  0  1  0  0  3  0  0  0  0  0  0
  190.6630  174.5990  142.4270 C   0  0  1  0  0  3  0  0  0  0  0  0
  191.4850  175.8230  142.5990 C   0  0  0  0  0  3  0  0  0  0  0  0
  189.7680  174.4270  143.3400 C   0  0  0  0  0  2  0  0  0  0  0  0
  188.7770  176.0330  146.4540 C   0  0  1  0  0  3  0  0  0  0  0  0
  188.0430  174.6830  148.1170 O   0  0  0  0  0  1  0  0  0  0  0  0
  189.0680  174.8430  147.2470 N   0  0  0  0  0  2  0  0  0  0  0  0
  189.2590  177.2260  147.1390 N   0  0  0  0  0  2  0  0  0  0  0  0
  188.4280  178.3570  146.7390 C   0  0  0  0  0  2  0  0  0  0  0  0
  187.1470  178.4120  147.5670 C   0  0  1  0  0  3  0  0  0  0  0  0
  187.3790  179.3270  148.7610 C   0  0  0  0  0  1  0  0  0  0  0  0
  185.1330  176.4870  146.1320 C   0  0  0  0  0  2  0  0  0  0  0  0
  186.1530  177.9900  144.3480 C   0  0  0  0  0  0  0  0  0  0  0  0
  185.3040  176.7710  144.6470 C   0  0  0  0  0  2  0  0  0  0  0  0
  184.4430  177.9570  146.9460 S   0  0  0  0  0  0  0  0  0  0  0  0
  186.3770  178.9680  145.2440 C   0  0  0  0  0  3  0  0  0  0  0  0
  185.9830  178.9190  146.7010 C   0  0  2  0  0  3  0  0  0  0  0  0
  185.5650  178.7420  142.1780 O   0  0  0  0  0  1  0  0  0  0  0  0
  186.6130  178.2230  142.9420 C   0  0  2  0  0  3  0  0  0  0  0  0
  187.1300  176.9310  142.3220 C   0  0  0  0  0  2  0  0  0  0  0  0
  187.4480  176.0550  140.0690 N   0  0  0  0  0  1  0  0  0  0  0  0
  187.7160  177.1850  140.9420 C   0  0  0  0  0  2  0  0  0  0  0  0
  189.7790  171.2340  142.4340 O   0  0  0  0  0  0  0  0  0  0  0  0
  192.0940  171.2520  142.1970 N   0  0  0  0  0  2  0  0  0  0  0  0
  190.7860  171.6930  141.8290 C   0  0  0  0  0  0  0  0  0  0  0  0
  192.3080  170.2060  143.1850 C   0  0  0  0  0  2  0  0  0  0  0  0
  193.1650  169.1020  142.5960 C   0  0  1  0  0  3  0  0  0  0  0  0
  193.5940  169.4880  141.3220 O   0  0  0  0  0  1  0  0  0  0  0  0
  194.3650  168.8840  143.5010 C   0  0  0  0  0  2  0  0  0  0  0  0
  194.1650  169.5710  144.8370 C   0  0  0  0  0  2  0  0  0  0  0  0
  195.3720  170.4440  145.1340 C   0  0  1  0  0  3  0  0  0  0  0  0
  196.0940  169.8870  146.1940 O   0  0  0  0  0  1  0  0  0  0  0  0
  196.2630  170.5810  143.9060 C   0  0  2  0  0  3  0  0  0  0  0  0
  197.5750  170.8400  144.3130 O   0  0  0  0  0  1  0  0  0  0  0  0
  195.7830  171.6810  143.0790 N   0  0  0  0  0  2  0  0  0  0  0  0
  196.7770  172.7440  143.1190 C   0  0  0  0  0  2  0  0  0  0  0  0
  196.5080  174.8050  144.5330 C   0  0  1  0  0  3  0  0  0  0  0  0
  196.2140  174.0150  145.6450 O   0  0  0  0  0  1  0  0  0  0  0  0
  195.7150  176.1000  142.2440 C   0  0  0  0  0  2  0  0  0  0  0  0
  196.0750  174.0850  143.2420 C   0  0  1  0  0  3  0  0  0  0  0  0
  196.1590  176.8150  143.5250 C   0  0  0  0  0  2  0  0  0  0  0  0
  195.8200  176.0310  144.6460 O   0  0  0  0  0  0  0  0  0  0  0  0
  196.4030  174.8780  142.1200 O   0  0  0  0  0  0  0  0  0  0  0  0
  190.6040  172.3610  139.3670 C   0  0  1  0  0  3  0  0  0  0  0  0
  189.0380  173.8800  137.9000 N   0  0  0  0  0  0  0  0  0  0  0  0
  189.7290  173.2120  138.5470 C   0  0  0  0  0  0  0  0  0  0  0  0
  191.9980  172.3120  138.8150 C   0  0  0  0  0  0  0  0  0  0  0  0
  192.4360  171.2820  138.3240 O   0  0  0  0  0  0  0  0  0  0  0  0
  192.8180  173.5580  138.8180 C   0  0  0  0  0  2  0  0  0  0  0  0
  193.9240  173.4510  139.8570 C   0  0  0  0  0  2  0  0  0  0  0  0
  197.1620  174.0570  137.8260 C   0  0  0  0  0  0  0  0  0  0  0  0
  195.9680  171.9320  139.4540 C   0  0  0  0  0  2  0  0  0  0  0  0
  196.9600  173.8170  136.3380 C   0  0  0  0  0  1  0  0  0  0  0  0
  197.9170  170.6700  138.9010 O   0  0  0  0  0  1  0  0  0  0  0  0
  195.2400  173.2230  139.1890 C   0  0  0  0  0  0  0  0  0  0  0  0
  197.1260  171.7380  138.4780 C   0  0  2  0  0  3  0  0  0  0  0  0
  197.9400  175.3450  137.9930 C   0  0  0  0  0  1  0  0  0  0  0  0
  197.9390  172.9560  138.4170 N   0  0  0  0  0  2  0  0  0  0  0  0
  195.8190  174.2200  138.5000 C   0  0  0  0  0  3  0  0  0  0  0  0
  1  2  2  0  0  0  0
  1 30  1  0  0  0  0
  4  6  1  0  0  0  0
  5  3  1  0  0  0  0
  6  3  1  0  0  0  0
  6 10  1  1  0  0  0
  7  2  1  6  0  0  0
  7  8  1  0  0  0  0
  7  9  1  0  0  0  0
  8  5  2  0  0  0  0
  9  4  1  0  0  0  0
 10 13  1  1  0  0  0
 10 12  1  0  0  0  0
 12 11  1  0  0  0  0
 14 13  1  0  0  0  0
 14 15  1  0  0  0  0
 15 16  1  1  0  0  0
 17 20  1  0  0  0  0
 18 19  1  0  0  0  0
 18 21  2  0  0  0  0
 19 17  1  0  0  0  0
 21 22  1  0  0  0  0
 22 20  1  0  0  0  0
 22 15  1  1  0  0  0
 24 23  1  6  0  0  0
 24 18  1  0  0  0  0
 25 24  1  0  0  0  0
 26 27  1  0  0  0  0
 27 25  1  0  0  0  0
 29 31  1  0  0  0  0
 30 29  1  0  0  0  0
 30 28  2  0  0  0  0
 32 33  1  6  0  0  0
 32 31  1  0  0  0  0
 32 34  1  0  0  0  0
 34 35  1  0  0  0  0
 35 36  1  0  0  0  0
 36 37  1  1  0  0  0
 38 39  1  1  0  0  0
 38 36  1  0  0  0  0
 40 41  1  0  0  0  0
 40 38  1  0  0  0  0
 42 47  1  0  0  0  0
 42 43  1  1  0  0  0
 44 46  1  0  0  0  0
 45 41  1  6  0  0  0
 45 42  1  0  0  0  0
 46 47  1  0  0  0  0
 48 44  1  0  0  0  0
 48 45  1  0  0  0  0
 49 51  1  6  0  0  0
 49  1  1  0  0  0  0
 50 51  3  0  0  0  0
 52 54  1  0  0  0  0
 52 49  1  0  0  0  0
 53 52  2  0  0  0  0
 54 55  1  0  0  0  0
 56 62  1  0  0  0  0
 56 63  1  0  0  0  0
 56 64  1  0  0  0  0
 58 56  1  0  0  0  0
 60 57  1  0  0  0  0
 60 55  1  0  0  0  0
 61 59  1  1  0  0  0
 61 57  1  0  0  0  0
 63 61  1  0  0  0  0
 64 60  2  0  0  0  0
M  END
>  <MODEL>
9

>  <REMARK>
 VINA RESULT:      -5.0      3.083      9.726
  Name = 
  26 active torsions:
  status: ('A' for Active; 'I' for Inactive)
    1  A    between atoms: C_3  and  C_16
    2  A    between atoms: C_3  and  C_62
    3  A    between atoms: C_4  and  C_43
    4  A    between atoms: C_4  and  C_63
    5  A    between atoms: C_5  and  C_18
    6  A    between atoms: C_6  and  C_7
    7  A    between atoms: C_6  and  C_54
    8  A    between atoms: C_7  and  C_36
    9  A    between atoms: C_8  and  N_33
   10  A    between atoms: C_8  and  C_34
   11  A    between atoms: C_16  and  N_29
   12  A    between atoms: C_18  and  C_55
   13  A    between atoms: C_19  and  C_36
   14  A    between atoms: C_19  and  C_58
   15  A    between atoms: C_25  and  C_27
   16  A    between atoms: C_27  and  N_33
   17  A    between atoms: C_28  and  C_41
   18  A    between atoms: N_29  and  C_41
   19  A    between atoms: C_32  and  N_46
   20  A    between atoms: C_34  and  C_42
   21  A    between atoms: C_36  and  C_53
   22  A    between atoms: C_37  and  C_54
   23  A    between atoms: N_38  and  C_63
   24  A    between atoms: C_40  and  C_55
   25  A    between atoms: C_41  and  N_57
   26  A    between atoms: C_42  and  C_43
                            x       y       z     vdW  Elec       q    Type
                         _______ _______ _______ _____ _____    ______ ____

>  <TORSDO>
F 26

$$$$
