=
 OpenBabel11042418393D

 67 76  0  0  1  0  0  0  0  0999 V2000
  187.1230  177.9660  143.9320 C   0  0  2  0  0  3  0  0  0  0  0  0
  185.7600  177.4330  143.5200 C   0  0  2  0  0  3  0  0  0  0  0  0
  187.9080  177.6920  142.6780 C   0  0  2  0  0  3  0  0  0  0  0  0
  189.0290  176.2040  146.8500 C   0  0  0  0  0  3  0  0  0  0  0  0
  190.5420  176.1190  146.9650 C   0  0  0  0  0  3  0  0  0  0  0  0
  188.7730  176.9890  145.6060 C   0  0  0  0  0  0  0  0  0  0  0  0
  191.0680  176.8280  145.7600 C   0  0  0  0  0  0  0  0  0  0  0  0
  190.0500  176.8270  143.5830 N   0  0  0  0  0  2  0  0  0  0  0  0
  187.2200  176.5280  142.0080 C   0  0  2  0  0  3  0  0  0  0  0  0
  190.0110  177.4250  144.9060 C   0  0  1  0  0  3  0  0  0  0  0  0
  192.3210  176.8460  145.4050 N   0  0  0  0  0  0  0  0  0  0  0  0
  187.5290  177.1790  145.1520 C   0  0  0  0  0  3  0  0  0  0  0  0
  189.4400  177.7810  142.6710 C   0  0  0  0  0  2  0  0  0  0  0  0
  185.8700  176.5540  142.4120 O   0  0  0  0  0  0  0  0  0  0  0  0
  193.4160  176.3030  146.1600 C   0  0  0  0  0  0  0  0  0  0  0  0
  193.7960  176.8600  147.2240 O   0  0  0  0  0  0  0  0  0  0  0  0
  194.1240  175.1460  145.6980 N   0  0  0  0  0  2  0  0  0  0  0  0
  192.3390  171.8510  142.8490 C   0  0  0  0  0  3  0  0  0  0  0  0
  195.6140  176.0690  142.7700 C   0  0  0  0  0  2  0  0  0  0  0  0
  193.6880  174.2080  144.7070 C   0  0  0  0  0  0  0  0  0  0  0  0
  194.4480  174.0210  143.6390 C   0  0  0  0  0  0  0  0  0  0  0  0
  195.5960  173.6590  141.9710 C   0  0  2  0  0  3  0  0  0  0  0  0
  194.7180  176.2900  141.7160 O   0  0  0  0  0  0  0  0  0  0  0  0
  195.7360  174.5700  143.1030 C   0  0  1  0  0  3  0  0  0  0  0  0
  195.3740  175.8050  140.5820 C   0  0  0  0  0  2  0  0  0  0  0  0
  195.3360  174.2790  140.5800 C   0  0  0  0  0  2  0  0  0  0  0  0
  192.4540  173.4160  144.9010 C   0  0  0  0  0  3  0  0  0  0  0  0
  193.4150  172.1260  142.1090 C   0  0  0  0  0  3  0  0  0  0  0  0
  194.3550  173.1140  142.4880 N   0  0  0  0  0  0  0  0  0  0  0  0
  191.9070  172.4560  144.1350 C   0  0  0  0  0  3  0  0  0  0  0  0
  184.8490  178.5240  143.1960 N   0  0  0  0  0  2  0  0  0  0  0  0
  184.3390  178.3150  141.8500 C   0  0  0  0  0  2  0  0  0  0  0  0
  183.0190  177.8440  141.8990 O   0  0  0  0  0  0  0  0  0  0  0  0
  182.2230  178.9440  141.5810 C   0  0  0  0  0  2  0  0  0  0  0  0
  181.2040  178.5580  140.5160 C   0  0  0  0  0  2  0  0  0  0  0  0
  178.5170  181.0950  140.0440 P   0  0  2  0  0  0  0  0  0  0  0  0
  177.7540  179.6520  139.6500 O   0  0  0  0  0  0  0  0  0  0  0  0
  178.7970  178.7270  139.7480 C   0  0  1  0  0  3  0  0  0  0  0  0
  179.8490  179.2150  140.7610 C   0  0  2  0  0  3  0  0  0  0  0  0
  179.9660  180.6100  140.7400 O   0  0  0  0  0  0  0  0  0  0  0  0
  177.6920  181.8700  141.0450 O   0  0  0  0  0  0  0  0  0  0  0  0
  178.2580  177.3970  140.1600 C   0  0  0  0  0  0  0  0  0  0  0  0
  178.1420  176.3700  139.2320 O   0  0  0  0  0  0  0  0  0  0  0  0
  177.8730  177.2120  141.3480 O   0  0  0  0  0  1  0  0  0  0  0  0
  180.1990  182.2540  138.3940 O   0  0  0  0  0  1  0  0  0  0  0  0
  178.8230  182.0770  138.5470 C   0  0  0  0  0  0  0  0  0  0  0  0
  178.3190  181.3900  137.4410 O   0  0  0  0  0  1  0  0  0  0  0  0
  178.1330  183.4290  138.6840 C   0  0  0  0  0  2  0  0  0  0  0  0
  179.1250  184.5800  138.6010 C   0  0  0  0  0  1  0  0  0  0  0  0
  187.8250  175.1850  142.3960 C   0  0  0  0  0  2  0  0  0  0  0  0
  187.5120  174.2380  141.4160 O   0  0  0  0  0  0  0  0  0  0  0  0
  189.8770  173.9080  141.2780 C   0  0  0  0  0  3  0  0  0  0  0  0
  188.3410  172.3080  140.4850 O   0  0  0  0  0  0  0  0  0  0  0  0
  189.3820  172.3420  139.5880 C   0  0  0  0  0  0  0  0  0  0  0  0
  189.4010  171.5780  138.5350 N   0  0  0  0  0  0  0  0  0  0  0  0
  188.5070  173.2600  141.5200 C   0  0  2  0  0  3  0  0  0  0  0  0
  190.4110  173.3390  139.9640 C   0  0  0  0  0  3  0  0  0  0  0  0
  190.1970  172.3440  136.2520 C   0  0  0  0  0  2  0  0  0  0  0  0
  190.0170  170.8280  136.1710 C   0  0  0  0  0  2  0  0  0  0  0  0
  190.4170  171.4810  137.4770 C   0  0  0  0  0  0  0  0  0  0  0  0
  192.1810  170.1460  138.6470 C   0  0  0  0  0  3  0  0  0  0  0  0
  191.8340  171.2900  137.9160 C   0  0  0  0  0  0  0  0  0  0  0  0
  192.5280  173.2980  136.7910 F   0  0  0  0  0  0  0  0  0  0  0  0
  194.5000  170.8430  138.6560 C   0  0  0  0  0  3  0  0  0  0  0  0
  193.5110  169.9270  139.0220 C   0  0  0  0  0  3  0  0  0  0  0  0
  192.8370  172.2010  137.5320 C   0  0  0  0  0  0  0  0  0  0  0  0
  194.1640  171.9770  137.9090 C   0  0  0  0  0  3  0  0  0  0  0  0
  1 12  1  1  0  0  0
  2 31  1  6  0  0  0
  2  1  1  0  0  0  0
  3 13  1  1  0  0  0
  3  1  1  0  0  0  0
  4  5  2  0  0  0  0
  6  4  1  0  0  0  0
  7  5  1  0  0  0  0
  9 50  1  1  0  0  0
  9 14  1  0  0  0  0
  9  3  1  0  0  0  0
 10  8  1  6  0  0  0
 10  6  1  0  0  0  0
 10  7  1  0  0  0  0
 11  7  2  0  0  0  0
 11 15  1  0  0  0  0
 12  6  2  0  0  0  0
 13  8  1  0  0  0  0
 14  2  1  0  0  0  0
 15 16  2  0  0  0  0
 17 15  1  0  0  0  0
 18 30  1  0  0  0  0
 20 27  1  0  0  0  0
 20 17  1  0  0  0  0
 21 20  2  0  0  0  0
 22 26  1  6  0  0  0
 22 29  1  0  0  0  0
 22 24  1  0  0  0  0
 23 19  1  0  0  0  0
 24 19  1  6  0  0  0
 24 21  1  0  0  0  0
 25 23  1  0  0  0  0
 26 25  1  0  0  0  0
 28 29  1  0  0  0  0
 28 18  2  0  0  0  0
 29 21  1  0  0  0  0
 30 27  2  0  0  0  0
 32 33  1  0  0  0  0
 32 31  1  0  0  0  0
 34 33  1  0  0  0  0
 35 34  1  0  0  0  0
 36 40  1  0  0  0  0
 36 41  2  1  0  0  0
 37 38  1  0  0  0  0
 37 36  1  0  0  0  0
 38 42  1  1  0  0  0
 38 39  1  0  0  0  0
 39 35  1  6  0  0  0
 40 39  1  0  0  0  0
 42 44  1  0  0  0  0
 43 42  2  0  0  0  0
 45 46  1  0  0  0  0
 46 48  1  0  0  0  0
 46 36  1  0  0  0  0
 47 46  1  0  0  0  0
 49 48  1  0  0  0  0
 51 50  1  0  0  0  0
 52 56  1  0  0  0  0
 53 56  1  0  0  0  0
 54 57  1  0  0  0  0
 54 53  1  0  0  0  0
 55 54  2  0  0  0  0
 56 51  1  6  0  0  0
 57 52  2  0  0  0  0
 58 60  1  0  0  0  0
 59 58  1  0  0  0  0
 59 60  1  0  0  0  0
 60 62  1  0  0  0  0
 60 55  1  0  0  0  0
 61 65  1  0  0  0  0
 62 61  2  0  0  0  0
 63 66  1  0  0  0  0
 64 65  2  0  0  0  0
 66 67  2  0  0  0  0
 66 62  1  0  0  0  0
 67 64  1  0  0  0  0
M  END
>  <MODEL>
1

>  <REMARK>
 VINA RESULT:      -8.3      0.000      0.000
  Name = 
  16 active torsions:
  status: ('A' for Active; 'I' for Inactive)
    1  A    between atoms: C_3  and  C_31
    2  A    between atoms: C_5  and  N_32
    3  A    between atoms: C_6  and  N_43
    4  A    between atoms: C_7  and  N_32
    5  A    between atoms: C_7  and  O_41
    6  A    between atoms: C_13  and  N_33
    7  A    between atoms: P_16  and  C_62
    8  A    between atoms: C_19  and  C_66
    9  A    between atoms: O_36  and  C_45
   10  A    between atoms: O_36  and  C_57
   11  A    between atoms: C_38  and  C_45
   12  A    between atoms: O_41  and  C_61
   13  A    between atoms: C_44  and  C_67
   14  A    between atoms: N_53  and  C_66
   15  A    between atoms: C_54  and  C_62
   16  A    between atoms: C_61  and  C_67
                            x       y       z     vdW  Elec       q    Type
                         _______ _______ _______ _____ _____    ______ ____

>  <TORSDO>
F 16

$$$$
=
 OpenBabel11042418393D

 67 76  0  0  1  0  0  0  0  0999 V2000
  187.2250  178.1560  143.3980 C   0  0  2  0  0  3  0  0  0  0  0  0
  185.9550  177.6710  142.7180 C   0  0  2  0  0  3  0  0  0  0  0  0
  188.1650  178.1840  142.2240 C   0  0  2  0  0  3  0  0  0  0  0  0
  188.8900  175.8910  146.1080 C   0  0  0  0  0  3  0  0  0  0  0  0
  190.3830  175.8400  146.3930 C   0  0  0  0  0  3  0  0  0  0  0  0
  188.7300  176.9110  145.0300 C   0  0  0  0  0  0  0  0  0  0  0  0
  190.9980  176.8090  145.4350 C   0  0  0  0  0  0  0  0  0  0  0  0
  190.2390  177.2300  143.1940 N   0  0  0  0  0  2  0  0  0  0  0  0
  187.6340  177.1630  141.2480 C   0  0  2  0  0  3  0  0  0  0  0  0
  190.0100  177.5320  144.5960 C   0  0  1  0  0  3  0  0  0  0  0  0
  192.2800  176.9490  145.2520 N   0  0  0  0  0  0  0  0  0  0  0  0
  187.5370  177.1450  144.4720 C   0  0  0  0  0  3  0  0  0  0  0  0
  189.6780  178.3310  142.4280 C   0  0  0  0  0  2  0  0  0  0  0  0
  186.2470  177.0520  141.4750 O   0  0  0  0  0  0  0  0  0  0  0  0
  193.3130  176.3000  146.0110 C   0  0  0  0  0  0  0  0  0  0  0  0
  193.3580  176.4240  147.2630 O   0  0  0  0  0  0  0  0  0  0  0  0
  194.3350  175.5380  145.3570 N   0  0  0  0  0  2  0  0  0  0  0  0
  194.1900  174.4220  140.7860 C   0  0  0  0  0  3  0  0  0  0  0  0
  195.0110  172.2000  145.5730 C   0  0  0  0  0  2  0  0  0  0  0  0
  194.3080  175.0310  144.0170 C   0  0  0  0  0  0  0  0  0  0  0  0
  194.0560  173.7440  143.8360 C   0  0  0  0  0  0  0  0  0  0  0  0
  193.6400  171.7610  143.4810 C   0  0  2  0  0  3  0  0  0  0  0  0
  196.0980  171.7840  144.7920 O   0  0  0  0  0  0  0  0  0  0  0  0
  193.7900  172.5490  144.7020 C   0  0  1  0  0  3  0  0  0  0  0  0
  195.7310  170.5260  144.3110 C   0  0  0  0  0  2  0  0  0  0  0  0
  194.7080  170.6830  143.1890 C   0  0  0  0  0  2  0  0  0  0  0  0
  194.4900  175.9320  142.8600 C   0  0  0  0  0  3  0  0  0  0  0  0
  193.9400  173.1960  141.2500 C   0  0  0  0  0  3  0  0  0  0  0  0
  193.8860  172.9140  142.6370 N   0  0  0  0  0  0  0  0  0  0  0  0
  194.4430  175.6760  141.5410 C   0  0  0  0  0  3  0  0  0  0  0  0
  185.0200  178.7710  142.5130 N   0  0  0  0  0  2  0  0  0  0  0  0
  183.6670  178.2660  142.6900 C   0  0  0  0  0  2  0  0  0  0  0  0
  183.1050  177.9400  141.4470 O   0  0  0  0  0  0  0  0  0  0  0  0
  181.7340  178.1440  141.5990 C   0  0  0  0  0  2  0  0  0  0  0  0
  181.1770  178.8660  140.3770 C   0  0  0  0  0  2  0  0  0  0  0  0
  178.5440  181.4630  139.9250 P   0  0  2  0  0  0  0  0  0  0  0  0
  177.6910  180.0230  139.7810 O   0  0  0  0  0  0  0  0  0  0  0  0
  178.7050  179.0660  139.8650 C   0  0  1  0  0  3  0  0  0  0  0  0
  179.8830  179.6080  140.6960 C   0  0  2  0  0  3  0  0  0  0  0  0
  180.0450  180.9870  140.5070 O   0  0  0  0  0  0  0  0  0  0  0  0
  177.8670  182.3780  140.9190 O   0  0  0  0  0  0  0  0  0  0  0  0
  178.1710  177.8140  140.4790 C   0  0  0  0  0  0  0  0  0  0  0  0
  178.0940  176.6450  139.7320 O   0  0  0  0  0  0  0  0  0  0  0  0
  177.7540  177.8230  141.6710 O   0  0  0  0  0  1  0  0  0  0  0  0
  180.0660  182.3610  137.9840 O   0  0  0  0  0  1  0  0  0  0  0  0
  178.7120  182.2640  138.3040 C   0  0  0  0  0  0  0  0  0  0  0  0
  178.0620  181.4860  137.3430 O   0  0  0  0  0  1  0  0  0  0  0  0
  178.0860  183.6530  138.3650 C   0  0  0  0  0  2  0  0  0  0  0  0
  179.1350  184.7350  138.5780 C   0  0  0  0  0  1  0  0  0  0  0  0
  188.2740  175.7930  141.4240 C   0  0  0  0  0  2  0  0  0  0  0  0
  187.2960  174.8720  141.8120 O   0  0  0  0  0  0  0  0  0  0  0  0
  189.4650  173.8700  141.9170 C   0  0  0  0  0  3  0  0  0  0  0  0
  187.7200  172.9460  140.6340 O   0  0  0  0  0  0  0  0  0  0  0  0
  188.8740  172.8000  139.9020 C   0  0  0  0  0  0  0  0  0  0  0  0
  188.8740  172.2340  138.7300 N   0  0  0  0  0  0  0  0  0  0  0  0
  187.9500  173.6360  141.8490 C   0  0  2  0  0  3  0  0  0  0  0  0
  190.0510  173.3720  140.5960 C   0  0  0  0  0  3  0  0  0  0  0  0
  190.5250  173.2050  137.0690 C   0  0  0  0  0  2  0  0  0  0  0  0
  189.7370  172.1240  136.3280 C   0  0  0  0  0  2  0  0  0  0  0  0
  189.9980  171.9960  137.8130 C   0  0  0  0  0  0  0  0  0  0  0  0
  192.3200  171.3790  138.5130 C   0  0  0  0  0  3  0  0  0  0  0  0
  191.0070  170.9760  138.2330 C   0  0  0  0  0  0  0  0  0  0  0  0
  189.3580  169.2260  138.2000 F   0  0  0  0  0  0  0  0  0  0  0  0
  192.8950  169.1100  139.1320 C   0  0  0  0  0  3  0  0  0  0  0  0
  193.2630  170.4460  138.9560 C   0  0  0  0  0  3  0  0  0  0  0  0
  190.6350  169.6320  138.4310 C   0  0  0  0  0  0  0  0  0  0  0  0
  191.5810  168.7040  138.8730 C   0  0  0  0  0  3  0  0  0  0  0  0
  1 12  1  1  0  0  0
  2 31  1  6  0  0  0
  2  1  1  0  0  0  0
  3 13  1  1  0  0  0
  3  1  1  0  0  0  0
  4  5  2  0  0  0  0
  6  4  1  0  0  0  0
  7  5  1  0  0  0  0
  9 50  1  1  0  0  0
  9 14  1  0  0  0  0
  9  3  1  0  0  0  0
 10  8  1  6  0  0  0
 10  6  1  0  0  0  0
 10  7  1  0  0  0  0
 11  7  2  0  0  0  0
 11 15  1  0  0  0  0
 12  6  2  0  0  0  0
 13  8  1  0  0  0  0
 14  2  1  0  0  0  0
 15 16  2  0  0  0  0
 17 15  1  0  0  0  0
 18 28  2  0  0  0  0
 18 30  1  0  0  0  0
 20 17  1  0  0  0  0
 21 20  2  0  0  0  0
 21 24  1  0  0  0  0
 22 26  1  1  0  0  0
 22 24  1  0  0  0  0
 23 19  1  0  0  0  0
 24 19  1  1  0  0  0
 25 23  1  0  0  0  0
 26 25  1  0  0  0  0
 27 20  1  0  0  0  0
 28 29  1  0  0  0  0
 29 22  1  0  0  0  0
 29 21  1  0  0  0  0
 30 27  2  0  0  0  0
 31 32  1  0  0  0  0
 33 34  1  0  0  0  0
 33 32  1  0  0  0  0
 35 34  1  0  0  0  0
 36 40  1  0  0  0  0
 36 41  2  1  0  0  0
 37 38  1  0  0  0  0
 37 36  1  0  0  0  0
 38 42  1  1  0  0  0
 38 39  1  0  0  0  0
 39 35  1  6  0  0  0
 40 39  1  0  0  0  0
 42 44  1  0  0  0  0
 43 42  2  0  0  0  0
 45 46  1  0  0  0  0
 46 48  1  0  0  0  0
 46 36  1  0  0  0  0
 47 46  1  0  0  0  0
 48 49  1  0  0  0  0
 50 51  1  0  0  0  0
 53 56  1  0  0  0  0
 54 57  1  0  0  0  0
 54 53  1  0  0  0  0
 55 54  2  0  0  0  0
 56 51  1  6  0  0  0
 56 52  1  0  0  0  0
 57 52  2  0  0  0  0
 58 60  1  0  0  0  0
 59 58  1  0  0  0  0
 59 60  1  0  0  0  0
 60 62  1  0  0  0  0
 60 55  1  0  0  0  0
 61 65  1  0  0  0  0
 62 66  1  0  0  0  0
 62 61  2  0  0  0  0
 63 66  1  0  0  0  0
 65 64  2  0  0  0  0
 66 67  2  0  0  0  0
 67 64  1  0  0  0  0
M  END
>  <MODEL>
2

>  <REMARK>
 VINA RESULT:      -8.2      1.378      2.061
  Name = 
  16 active torsions:
  status: ('A' for Active; 'I' for Inactive)
    1  A    between atoms: C_3  and  C_31
    2  A    between atoms: C_5  and  N_32
    3  A    between atoms: C_6  and  N_43
    4  A    between atoms: C_7  and  N_32
    5  A    between atoms: C_7  and  O_41
    6  A    between atoms: C_13  and  N_33
    7  A    between atoms: P_16  and  C_62
    8  A    between atoms: C_19  and  C_66
    9  A    between atoms: O_36  and  C_45
   10  A    between atoms: O_36  and  C_57
   11  A    between atoms: C_38  and  C_45
   12  A    between atoms: O_41  and  C_61
   13  A    between atoms: C_44  and  C_67
   14  A    between atoms: N_53  and  C_66
   15  A    between atoms: C_54  and  C_62
   16  A    between atoms: C_61  and  C_67
                            x       y       z     vdW  Elec       q    Type
                         _______ _______ _______ _____ _____    ______ ____

>  <TORSDO>
F 16

$$$$
=
 OpenBabel11042418393D

 67 76  0  0  1  0  0  0  0  0999 V2000
  191.3090  172.5640  143.6060 C   0  0  2  0  0  3  0  0  0  0  0  0
  190.1320  173.0240  144.4510 C   0  0  2  0  0  3  0  0  0  0  0  0
  191.4540  173.7430  142.6830 C   0  0  2  0  0  3  0  0  0  0  0  0
  190.8810  169.4140  141.3390 C   0  0  0  0  0  3  0  0  0  0  0  0
  191.6020  169.1970  140.0180 C   0  0  0  0  0  3  0  0  0  0  0  0
  191.3840  170.7230  141.8490 C   0  0  0  0  0  0  0  0  0  0  0  0
  192.4500  170.4120  139.8290 C   0  0  0  0  0  0  0  0  0  0  0  0
  191.8600  172.6450  140.4960 N   0  0  0  0  0  2  0  0  0  0  0  0
  190.0850  174.3720  142.6030 C   0  0  2  0  0  3  0  0  0  0  0  0
  192.3840  171.3720  140.9590 C   0  0  1  0  0  3  0  0  0  0  0  0
  193.1110  170.6870  138.7410 N   0  0  0  0  0  0  0  0  0  0  0  0
  190.8840  171.2690  142.9640 C   0  0  0  0  0  3  0  0  0  0  0  0
  192.3300  173.6580  141.4260 C   0  0  0  0  0  2  0  0  0  0  0  0
  189.4120  174.0590  143.8010 O   0  0  0  0  0  0  0  0  0  0  0  0
  193.2400  169.8270  137.5970 C   0  0  0  0  0  0  0  0  0  0  0  0
  193.8150  168.7110  137.6990 O   0  0  0  0  0  0  0  0  0  0  0  0
  192.7590  170.2380  136.3120 N   0  0  0  0  0  2  0  0  0  0  0  0
  189.3300  173.3100  135.3280 C   0  0  0  0  0  3  0  0  0  0  0  0
  194.4120  173.1510  136.9630 C   0  0  0  0  0  2  0  0  0  0  0  0
  191.8360  171.2980  136.0360 C   0  0  0  0  0  0  0  0  0  0  0  0
  192.3210  172.4930  135.7360 C   0  0  0  0  0  0  0  0  0  0  0  0
  193.0070  174.3650  135.2310 C   0  0  2  0  0  3  0  0  0  0  0  0
  193.7630  173.9840  137.8850 O   0  0  0  0  0  0  0  0  0  0  0  0
  193.6760  173.1240  135.6110 C   0  0  1  0  0  3  0  0  0  0  0  0
  193.9920  175.2800  137.4170 C   0  0  0  0  0  2  0  0  0  0  0  0
  193.0980  175.5560  136.2110 C   0  0  0  0  0  2  0  0  0  0  0  0
  190.3780  171.0530  136.0210 C   0  0  0  0  0  3  0  0  0  0  0  0
  190.3480  174.1540  135.1470 C   0  0  0  0  0  3  0  0  0  0  0  0
  191.6940  173.7600  135.3390 N   0  0  0  0  0  0  0  0  0  0  0  0
  189.3590  171.8810  135.7330 C   0  0  0  0  0  3  0  0  0  0  0  0
  190.5780  173.4810  145.7620 N   0  0  0  0  0  2  0  0  0  0  0  0
  189.5120  174.2700  146.3630 C   0  0  0  0  0  2  0  0  0  0  0  0
  190.0290  175.0940  147.3720 O   0  0  0  0  0  0  0  0  0  0  0  0
  191.4090  175.0990  147.1730 C   0  0  0  0  0  2  0  0  0  0  0  0
  191.9570  176.5090  147.3590 C   0  0  0  0  0  2  0  0  0  0  0  0
  194.6860  176.0660  144.8620 P   0  0  2  0  0  0  0  0  0  0  0  0
  193.3410  176.3860  143.9080 O   0  0  0  0  0  0  0  0  0  0  0  0
  192.3160  176.4620  144.8530 C   0  0  1  0  0  3  0  0  0  0  0  0
  192.8770  176.9180  146.2130 C   0  0  2  0  0  3  0  0  0  0  0  0
  194.1720  176.4250  146.4190 O   0  0  0  0  0  0  0  0  0  0  0  0
  195.8350  176.9660  144.4720 O   0  0  0  0  0  0  0  0  0  0  0  0
  191.2620  177.4100  144.3830 C   0  0  0  0  0  0  0  0  0  0  0  0
  191.6090  178.5350  143.6450 O   0  0  0  0  0  0  0  0  0  0  0  0
  190.0530  177.2100  144.6850 O   0  0  0  0  0  1  0  0  0  0  0  0
  195.0470  173.9160  143.3980 O   0  0  0  0  0  1  0  0  0  0  0  0
  195.1510  174.3150  144.7310 C   0  0  0  0  0  0  0  0  0  0  0  0
  196.4710  174.1610  145.1600 O   0  0  0  0  0  1  0  0  0  0  0  0
  194.2170  173.4820  145.6020 C   0  0  0  0  0  2  0  0  0  0  0  0
  194.4780  171.9910  145.4420 C   0  0  0  0  0  1  0  0  0  0  0  0
  189.2670  173.8540  141.4270 C   0  0  0  0  0  2  0  0  0  0  0  0
  189.0920  174.8840  140.4970 O   0  0  0  0  0  0  0  0  0  0  0  0
  187.4430  176.5120  139.9070 C   0  0  0  0  0  3  0  0  0  0  0  0
  187.1830  175.0830  141.7600 O   0  0  0  0  0  0  0  0  0  0  0  0
  186.7050  176.3160  142.1350 C   0  0  0  0  0  0  0  0  0  0  0  0
  186.2190  176.5270  143.3240 N   0  0  0  0  0  0  0  0  0  0  0  0
  187.7100  175.1010  140.4460 C   0  0  2  0  0  3  0  0  0  0  0  0
  186.8390  177.3200  141.0550 C   0  0  0  0  0  3  0  0  0  0  0  0
  184.2960  178.1770  143.4160 C   0  0  0  0  0  2  0  0  0  0  0  0
  185.5330  178.9640  142.9840 C   0  0  0  0  0  2  0  0  0  0  0  0
  185.6710  177.7650  143.8970 C   0  0  0  0  0  0  0  0  0  0  0  0
  185.4160  179.1570  145.9610 C   0  0  0  0  0  3  0  0  0  0  0  0
  185.9910  178.0450  145.3310 C   0  0  0  0  0  0  0  0  0  0  0  0
  187.3320  176.0560  145.4950 F   0  0  0  0  0  0  0  0  0  0  0  0
  186.4760  178.5350  148.0470 C   0  0  0  0  0  3  0  0  0  0  0  0
  185.6640  179.4040  147.3150 C   0  0  0  0  0  3  0  0  0  0  0  0
  186.7930  177.1600  146.0770 C   0  0  0  0  0  0  0  0  0  0  0  0
  187.0380  177.4120  147.4300 C   0  0  0  0  0  3  0  0  0  0  0  0
  1 12  1  6  0  0  0
  1  2  1  0  0  0  0
  2 31  1  1  0  0  0
  3 13  1  6  0  0  0
  3  1  1  0  0  0  0
  4  6  1  0  0  0  0
  5  4  2  0  0  0  0
  6 12  2  0  0  0  0
  7  5  1  0  0  0  0
  8 10  1  0  0  0  0
  8 13  1  0  0  0  0
  9 50  1  6  0  0  0
  9  3  1  0  0  0  0
  9 14  1  0  0  0  0
 10  7  1  6  0  0  0
 10  6  1  0  0  0  0
 11  7  2  0  0  0  0
 14  2  1  0  0  0  0
 15 16  2  0  0  0  0
 15 11  1  0  0  0  0
 17 15  1  0  0  0  0
 18 30  1  0  0  0  0
 19 23  1  0  0  0  0
 20 17  1  0  0  0  0
 21 20  2  0  0  0  0
 22 29  1  0  0  0  0
 22 24  1  0  0  0  0
 22 26  1  1  0  0  0
 24 21  1  0  0  0  0
 24 19  1  1  0  0  0
 25 23  1  0  0  0  0
 26 25  1  0  0  0  0
 27 20  1  0  0  0  0
 28 18  2  0  0  0  0
 28 29  1  0  0  0  0
 29 21  1  0  0  0  0
 30 27  2  0  0  0  0
 31 32  1  0  0  0  0
 32 33  1  0  0  0  0
 34 35  1  0  0  0  0
 34 33  1  0  0  0  0
 36 41  2  6  0  0  0
 36 40  1  0  0  0  0
 37 38  1  0  0  0  0
 37 36  1  0  0  0  0
 38 42  1  6  0  0  0
 38 39  1  0  0  0  0
 39 40  1  0  0  0  0
 39 35  1  1  0  0  0
 42 44  1  0  0  0  0
 43 42  2  0  0  0  0
 45 46  1  0  0  0  0
 46 36  1  0  0  0  0
 46 47  1  0  0  0  0
 46 48  1  0  0  0  0
 49 48  1  0  0  0  0
 51 50  1  0  0  0  0
 52 56  1  0  0  0  0
 52 57  2  0  0  0  0
 53 54  1  0  0  0  0
 54 55  2  0  0  0  0
 55 60  1  0  0  0  0
 56 51  1  1  0  0  0
 56 53  1  0  0  0  0
 57 54  1  0  0  0  0
 58 60  1  0  0  0  0
 59 58  1  0  0  0  0
 59 60  1  0  0  0  0
 60 62  1  0  0  0  0
 61 65  1  0  0  0  0
 62 61  2  0  0  0  0
 62 66  1  0  0  0  0
 63 66  1  0  0  0  0
 65 64  2  0  0  0  0
 66 67  2  0  0  0  0
 67 64  1  0  0  0  0
M  END
>  <MODEL>
3

>  <REMARK>
 VINA RESULT:      -7.8      5.204     11.030
  Name = 
  16 active torsions:
  status: ('A' for Active; 'I' for Inactive)
    1  A    between atoms: C_3  and  C_31
    2  A    between atoms: C_5  and  N_32
    3  A    between atoms: C_6  and  N_43
    4  A    between atoms: C_7  and  N_32
    5  A    between atoms: C_7  and  O_41
    6  A    between atoms: C_13  and  N_33
    7  A    between atoms: P_16  and  C_62
    8  A    between atoms: C_19  and  C_66
    9  A    between atoms: O_36  and  C_45
   10  A    between atoms: O_36  and  C_57
   11  A    between atoms: C_38  and  C_45
   12  A    between atoms: O_41  and  C_61
   13  A    between atoms: C_44  and  C_67
   14  A    between atoms: N_53  and  C_66
   15  A    between atoms: C_54  and  C_62
   16  A    between atoms: C_61  and  C_67
                            x       y       z     vdW  Elec       q    Type
                         _______ _______ _______ _____ _____    ______ ____

>  <TORSDO>
F 16

$$$$
=
 OpenBabel11042418393D

 67 76  0  0  1  0  0  0  0  0999 V2000
  194.3450  175.6460  144.5510 C   0  0  2  0  0  3  0  0  0  0  0  0
  195.2750  175.2520  143.4150 C   0  0  2  0  0  3  0  0  0  0  0  0
  193.7170  174.3140  144.8580 C   0  0  2  0  0  3  0  0  0  0  0  0
  191.4160  178.1200  143.8120 C   0  0  0  0  0  3  0  0  0  0  0  0
  190.0790  178.1160  144.5370 C   0  0  0  0  0  3  0  0  0  0  0  0
  192.2130  177.0330  144.4530 C   0  0  0  0  0  0  0  0  0  0  0  0
  190.1730  177.0010  145.5280 C   0  0  0  0  0  0  0  0  0  0  0  0
  191.3360  174.9250  145.1890 N   0  0  0  0  0  2  0  0  0  0  0  0
  193.7860  173.5220  143.5760 C   0  0  2  0  0  3  0  0  0  0  0  0
  191.4940  176.3240  145.5460 C   0  0  1  0  0  3  0  0  0  0  0  0
  189.1760  176.5680  146.2450 N   0  0  0  0  0  0  0  0  0  0  0  0
  193.4240  176.6990  143.9920 C   0  0  0  0  0  3  0  0  0  0  0  0
  192.4730  174.2150  145.7500 C   0  0  0  0  0  2  0  0  0  0  0  0
  194.8820  174.0160  142.8390 O   0  0  0  0  0  0  0  0  0  0  0  0
  187.8650  177.1530  146.3010 C   0  0  0  0  0  0  0  0  0  0  0  0
  187.5150  177.8390  147.2970 O   0  0  0  0  0  0  0  0  0  0  0  0
  186.9170  176.9330  145.2500 N   0  0  0  0  0  2  0  0  0  0  0  0
  188.1870  174.9890  141.1550 C   0  0  0  0  0  3  0  0  0  0  0  0
  184.7230  178.5180  143.1720 C   0  0  0  0  0  2  0  0  0  0  0  0
  187.1920  176.4540  143.9280 C   0  0  0  0  0  0  0  0  0  0  0  0
  186.8540  177.2160  142.8990 C   0  0  0  0  0  0  0  0  0  0  0  0
  186.3840  178.3620  141.2570 C   0  0  2  0  0  3  0  0  0  0  0  0
  183.9420  177.6510  142.3950 O   0  0  0  0  0  0  0  0  0  0  0  0
  186.1860  178.5420  142.6930 C   0  0  1  0  0  3  0  0  0  0  0  0
  183.8200  178.2920  141.1600 C   0  0  0  0  0  2  0  0  0  0  0  0
  185.1270  178.1600  140.3820 C   0  0  0  0  0  2  0  0  0  0  0  0
  187.8960  175.1710  143.7150 C   0  0  0  0  0  3  0  0  0  0  0  0
  187.6390  176.0900  140.6370 C   0  0  0  0  0  3  0  0  0  0  0  0
  187.0400  177.0830  141.4490 N   0  0  0  0  0  0  0  0  0  0  0  0
  188.2970  174.5770  142.5780 C   0  0  0  0  0  3  0  0  0  0  0  0
  196.6560  175.1640  143.8770 N   0  0  0  0  0  2  0  0  0  0  0  0
  196.6910  174.3290  145.0680 C   0  0  0  0  0  2  0  0  0  0  0  0
  197.7800  173.4470  145.0100 O   0  0  0  0  0  0  0  0  0  0  0  0
  197.2250  172.1950  144.7480 C   0  0  0  0  0  2  0  0  0  0  0  0
  196.7960  171.5320  146.0520 C   0  0  0  0  0  2  0  0  0  0  0  0
  194.3030  169.5740  144.0950 P   0  0  2  0  0  0  0  0  0  0  0  0
  195.0990  168.3960  144.9900 O   0  0  0  0  0  0  0  0  0  0  0  0
  196.0830  169.1360  145.6480 C   0  0  1  0  0  3  0  0  0  0  0  0
  195.6140  170.5890  145.8490 C   0  0  2  0  0  3  0  0  0  0  0  0
  194.8190  171.0180  144.7790 O   0  0  0  0  0  0  0  0  0  0  0  0
  192.8060  169.4300  144.2490 O   0  0  0  0  0  0  0  0  0  0  0  0
  196.3960  168.5060  146.9650 C   0  0  0  0  0  0  0  0  0  0  0  0
  195.3720  168.1660  147.8400 O   0  0  0  0  0  1  0  0  0  0  0  0
  197.5970  168.3110  147.3030 O   0  0  0  0  0  0  0  0  0  0  0  0
  194.9500  170.7760  141.8530 O   0  0  0  0  0  1  0  0  0  0  0  0
  194.7940  169.4810  142.3500 C   0  0  0  0  0  0  0  0  0  0  0  0
  196.0090  168.7980  142.2540 O   0  0  0  0  0  1  0  0  0  0  0  0
  193.7160  168.7450  141.5630 C   0  0  0  0  0  2  0  0  0  0  0  0
  193.4910  169.3680  140.1930 C   0  0  0  0  0  1  0  0  0  0  0  0
  192.5250  173.6550  142.7330 C   0  0  0  0  0  2  0  0  0  0  0  0
  192.2510  172.4310  142.1150 O   0  0  0  0  0  0  0  0  0  0  0  0
  190.4330  171.2400  141.1180 C   0  0  0  0  0  3  0  0  0  0  0  0
  191.2300  173.2730  140.2370 O   0  0  0  0  0  0  0  0  0  0  0  0
  190.9320  172.4630  139.1680 C   0  0  0  0  0  0  0  0  0  0  0  0
  191.0990  172.8630  137.9400 N   0  0  0  0  0  0  0  0  0  0  0  0
  191.0220  172.6120  141.4720 C   0  0  2  0  0  3  0  0  0  0  0  0
  190.4420  171.1320  139.5940 C   0  0  0  0  0  3  0  0  0  0  0  0
  190.5790  172.9970  135.4620 C   0  0  0  0  0  2  0  0  0  0  0  0
  189.4410  172.2070  136.1100 C   0  0  0  0  0  2  0  0  0  0  0  0
  190.8400  172.1430  136.6850 C   0  0  0  0  0  0  0  0  0  0  0  0
  190.8990  169.6800  136.2440 C   0  0  0  0  0  3  0  0  0  0  0  0
  191.5990  170.8740  136.4660 C   0  0  0  0  0  0  0  0  0  0  0  0
  193.7040  172.0300  136.5710 F   0  0  0  0  0  0  0  0  0  0  0  0
  192.9880  168.4980  135.9360 C   0  0  0  0  0  3  0  0  0  0  0  0
  191.5930  168.4940  135.9870 C   0  0  0  0  0  3  0  0  0  0  0  0
  193.0060  170.8770  136.3950 C   0  0  0  0  0  0  0  0  0  0  0  0
  193.6950  169.6890  136.1380 C   0  0  0  0  0  3  0  0  0  0  0  0
  1 12  1  6  0  0  0
  1  3  1  0  0  0  0
  2 31  1  1  0  0  0
  2  1  1  0  0  0  0
  3 13  1  6  0  0  0
  4  6  1  0  0  0  0
  4  5  2  0  0  0  0
  5  7  1  0  0  0  0
  7 10  1  0  0  0  0
  7 11  2  0  0  0  0
  8 10  1  0  0  0  0
  8 13  1  0  0  0  0
  9 50  1  6  0  0  0
  9  3  1  0  0  0  0
 10  6  1  6  0  0  0
 11 15  1  0  0  0  0
 12  6  2  0  0  0  0
 14  2  1  0  0  0  0
 14  9  1  0  0  0  0
 15 16  2  0  0  0  0
 17 15  1  0  0  0  0
 18 30  1  0  0  0  0
 20 17  1  0  0  0  0
 21 20  2  0  0  0  0
 22 26  1  6  0  0  0
 22 29  1  0  0  0  0
 22 24  1  0  0  0  0
 23 19  1  0  0  0  0
 24 21  1  0  0  0  0
 24 19  1  6  0  0  0
 25 23  1  0  0  0  0
 26 25  1  0  0  0  0
 27 20  1  0  0  0  0
 28 18  2  0  0  0  0
 28 29  1  0  0  0  0
 29 21  1  0  0  0  0
 30 27  2  0  0  0  0
 31 32  1  0  0  0  0
 33 32  1  0  0  0  0
 34 33  1  0  0  0  0
 34 35  1  0  0  0  0
 36 41  2  1  0  0  0
 36 40  1  0  0  0  0
 36 37  1  0  0  0  0
 37 38  1  0  0  0  0
 38 39  1  0  0  0  0
 38 42  1  1  0  0  0
 39 35  1  6  0  0  0
 40 39  1  0  0  0  0
 42 44  2  0  0  0  0
 42 43  1  0  0  0  0
 45 46  1  0  0  0  0
 46 36  1  0  0  0  0
 47 46  1  0  0  0  0
 48 46  1  0  0  0  0
 49 48  1  0  0  0  0
 51 50  1  0  0  0  0
 52 56  1  0  0  0  0
 53 56  1  0  0  0  0
 54 57  1  0  0  0  0
 54 53  1  0  0  0  0
 55 54  2  0  0  0  0
 56 51  1  6  0  0  0
 57 52  2  0  0  0  0
 58 59  1  0  0  0  0
 58 60  1  0  0  0  0
 59 60  1  0  0  0  0
 60 55  1  0  0  0  0
 61 62  1  0  0  0  0
 62 60  1  0  0  0  0
 64 65  1  0  0  0  0
 64 67  2  0  0  0  0
 65 61  2  0  0  0  0
 66 62  2  0  0  0  0
 66 63  1  0  0  0  0
 67 66  1  0  0  0  0
M  END
>  <MODEL>
4

>  <REMARK>
 VINA RESULT:      -7.8      4.267     11.527
  Name = 
  16 active torsions:
  status: ('A' for Active; 'I' for Inactive)
    1  A    between atoms: C_3  and  C_31
    2  A    between atoms: C_5  and  N_32
    3  A    between atoms: C_6  and  N_43
    4  A    between atoms: C_7  and  N_32
    5  A    between atoms: C_7  and  O_41
    6  A    between atoms: C_13  and  N_33
    7  A    between atoms: P_16  and  C_62
    8  A    between atoms: C_19  and  C_66
    9  A    between atoms: O_36  and  C_45
   10  A    between atoms: O_36  and  C_57
   11  A    between atoms: C_38  and  C_45
   12  A    between atoms: O_41  and  C_61
   13  A    between atoms: C_44  and  C_67
   14  A    between atoms: N_53  and  C_66
   15  A    between atoms: C_54  and  C_62
   16  A    between atoms: C_61  and  C_67
                            x       y       z     vdW  Elec       q    Type
                         _______ _______ _______ _____ _____    ______ ____

>  <TORSDO>
F 16

$$$$
=
 OpenBabel11042418393D

 67 76  0  0  1  0  0  0  0  0999 V2000
  193.8190  175.6120  144.5240 C   0  0  2  0  0  3  0  0  0  0  0  0
  194.8200  175.4310  143.3940 C   0  0  2  0  0  3  0  0  0  0  0  0
  193.1800  174.2510  144.5380 C   0  0  2  0  0  3  0  0  0  0  0  0
  190.9280  178.1990  144.0780 C   0  0  0  0  0  3  0  0  0  0  0  0
  189.5490  178.0690  144.7040 C   0  0  0  0  0  3  0  0  0  0  0  0
  191.6900  177.0070  144.5530 C   0  0  0  0  0  0  0  0  0  0  0  0
  189.5870  176.7890  145.4740 C   0  0  0  0  0  0  0  0  0  0  0  0
  190.7800  174.8050  144.8280 N   0  0  0  0  0  2  0  0  0  0  0  0
  193.3330  173.7110  143.1370 C   0  0  2  0  0  3  0  0  0  0  0  0
  190.9080  176.1120  145.4480 C   0  0  1  0  0  3  0  0  0  0  0  0
  188.5500  176.2360  146.0350 N   0  0  0  0  0  0  0  0  0  0  0  0
  192.9290  176.7580  144.1140 C   0  0  0  0  0  3  0  0  0  0  0  0
  191.8840  173.9960  145.3170 C   0  0  0  0  0  2  0  0  0  0  0  0
  194.4700  174.3270  142.5750 O   0  0  0  0  0  0  0  0  0  0  0  0
  187.2340  176.8090  146.1170 C   0  0  0  0  0  0  0  0  0  0  0  0
  186.8360  177.3390  147.1880 O   0  0  0  0  0  0  0  0  0  0  0  0
  186.3370  176.7510  145.0030 N   0  0  0  0  0  2  0  0  0  0  0  0
  187.8400  175.4750  140.7280 C   0  0  0  0  0  3  0  0  0  0  0  0
  184.0490  178.4050  143.0870 C   0  0  0  0  0  2  0  0  0  0  0  0
  186.6750  176.4740  143.6380 C   0  0  0  0  0  0  0  0  0  0  0  0
  186.2890  177.3340  142.7070 C   0  0  0  0  0  0  0  0  0  0  0  0
  185.7490  178.6430  141.2150 C   0  0  2  0  0  3  0  0  0  0  0  0
  183.3600  177.5860  142.1820 O   0  0  0  0  0  0  0  0  0  0  0  0
  185.5120  178.6150  142.6560 C   0  0  1  0  0  3  0  0  0  0  0  0
  183.2030  178.3710  141.0380 C   0  0  0  0  0  2  0  0  0  0  0  0
  184.5300  178.4530  140.2860 C   0  0  0  0  0  2  0  0  0  0  0  0
  187.4910  175.2940  143.2810 C   0  0  0  0  0  3  0  0  0  0  0  0
  187.2070  176.5840  140.3420 C   0  0  0  0  0  3  0  0  0  0  0  0
  186.5110  177.4090  141.2580 N   0  0  0  0  0  0  0  0  0  0  0  0
  187.9610  174.8900  142.0880 C   0  0  0  0  0  3  0  0  0  0  0  0
  196.1690  175.2490  143.9170 N   0  0  0  0  0  2  0  0  0  0  0  0
  196.0730  174.7910  145.2950 C   0  0  0  0  0  2  0  0  0  0  0  0
  197.1820  173.9970  145.6200 O   0  0  0  0  0  0  0  0  0  0  0  0
  196.9560  172.7740  144.9880 C   0  0  0  0  0  2  0  0  0  0  0  0
  195.9230  171.9680  145.7670 C   0  0  0  0  0  2  0  0  0  0  0  0
  195.9060  169.5050  142.9720 P   0  0  2  0  0  0  0  0  0  0  0  0
  196.6360  168.6580  144.2250 O   0  0  0  0  0  0  0  0  0  0  0  0
  196.7120  169.6230  145.2330 C   0  0  1  0  0  3  0  0  0  0  0  0
  195.5820  170.6550  145.0690 C   0  0  2  0  0  3  0  0  0  0  0  0
  195.2880  170.8770  143.7180 O   0  0  0  0  0  0  0  0  0  0  0  0
  194.7840  168.6900  142.3700 O   0  0  0  0  0  0  0  0  0  0  0  0
  196.6260  168.9660  146.5710 C   0  0  0  0  0  0  0  0  0  0  0  0
  197.7790  168.5560  147.2270 O   0  0  0  0  0  1  0  0  0  0  0  0
  195.4980  168.7500  147.0960 O   0  0  0  0  0  0  0  0  0  0  0  0
  197.9260  170.9980  142.2080 O   0  0  0  0  0  1  0  0  0  0  0  0
  197.1350  169.9590  141.7160 C   0  0  0  0  0  0  0  0  0  0  0  0
  197.9410  168.8510  141.4450 O   0  0  0  0  0  1  0  0  0  0  0  0
  196.4150  170.4050  140.4480 C   0  0  0  0  0  2  0  0  0  0  0  0
  196.0770  171.8890  140.4830 C   0  0  0  0  0  1  0  0  0  0  0  0
  192.1260  174.0060  142.2580 C   0  0  0  0  0  2  0  0  0  0  0  0
  191.7000  172.8230  141.6460 O   0  0  0  0  0  0  0  0  0  0  0  0
  191.1980  172.0180  139.4510 C   0  0  0  0  0  3  0  0  0  0  0  0
  192.0340  174.1870  139.8270 O   0  0  0  0  0  0  0  0  0  0  0  0
  192.6430  173.7160  138.6890 C   0  0  0  0  0  0  0  0  0  0  0  0
  193.5030  174.4340  138.0260 N   0  0  0  0  0  0  0  0  0  0  0  0
  191.1810  173.2170  140.4080 C   0  0  2  0  0  3  0  0  0  0  0  0
  192.2170  172.3360  138.3570 C   0  0  0  0  0  3  0  0  0  0  0  0
  194.2550  175.1490  135.7130 C   0  0  0  0  0  2  0  0  0  0  0  0
  193.4530  173.8590  135.5370 C   0  0  0  0  0  2  0  0  0  0  0  0
  194.2470  174.0990  136.8040 C   0  0  0  0  0  0  0  0  0  0  0  0
  195.5000  171.9380  136.6400 C   0  0  0  0  0  3  0  0  0  0  0  0
  195.4990  173.3000  136.9730 C   0  0  0  0  0  0  0  0  0  0  0  0
  196.7290  175.2420  137.6750 F   0  0  0  0  0  0  0  0  0  0  0  0
  197.8580  171.7980  137.1680 C   0  0  0  0  0  3  0  0  0  0  0  0
  196.6750  171.1880  136.7440 C   0  0  0  0  0  3  0  0  0  0  0  0
  196.6980  173.9160  137.3820 C   0  0  0  0  0  0  0  0  0  0  0  0
  197.8700  173.1610  137.4840 C   0  0  0  0  0  3  0  0  0  0  0  0
  1 12  1  6  0  0  0
  1  3  1  0  0  0  0
  2 31  1  1  0  0  0
  2  1  1  0  0  0  0
  3 13  1  6  0  0  0
  4  6  1  0  0  0  0
  4  5  2  0  0  0  0
  5  7  1  0  0  0  0
  7 11  2  0  0  0  0
  8 13  1  0  0  0  0
  8 10  1  0  0  0  0
  9 50  1  6  0  0  0
  9  3  1  0  0  0  0
 10  6  1  6  0  0  0
 10  7  1  0  0  0  0
 11 15  1  0  0  0  0
 12  6  2  0  0  0  0
 14  9  1  0  0  0  0
 14  2  1  0  0  0  0
 15 16  2  0  0  0  0
 17 15  1  0  0  0  0
 18 30  1  0  0  0  0
 20 17  1  0  0  0  0
 21 20  2  0  0  0  0
 22 26  1  6  0  0  0
 22 29  1  0  0  0  0
 22 24  1  0  0  0  0
 23 19  1  0  0  0  0
 24 21  1  0  0  0  0
 24 19  1  6  0  0  0
 25 23  1  0  0  0  0
 26 25  1  0  0  0  0
 27 20  1  0  0  0  0
 28 18  2  0  0  0  0
 28 29  1  0  0  0  0
 29 21  1  0  0  0  0
 30 27  2  0  0  0  0
 31 32  1  0  0  0  0
 32 33  1  0  0  0  0
 34 33  1  0  0  0  0
 34 35  1  0  0  0  0
 36 41  2  6  0  0  0
 36 40  1  0  0  0  0
 36 37  1  0  0  0  0
 37 38  1  0  0  0  0
 38 42  1  1  0  0  0
 39 38  1  0  0  0  0
 39 35  1  6  0  0  0
 40 39  1  0  0  0  0
 42 44  2  0  0  0  0
 42 43  1  0  0  0  0
 46 45  1  0  0  0  0
 46 36  1  0  0  0  0
 47 46  1  0  0  0  0
 48 49  1  0  0  0  0
 48 46  1  0  0  0  0
 51 50  1  0  0  0  0
 52 56  1  0  0  0  0
 53 56  1  0  0  0  0
 54 53  1  0  0  0  0
 55 54  2  0  0  0  0
 56 51  1  1  0  0  0
 57 54  1  0  0  0  0
 57 52  2  0  0  0  0
 58 60  1  0  0  0  0
 59 58  1  0  0  0  0
 59 60  1  0  0  0  0
 60 62  1  0  0  0  0
 60 55  1  0  0  0  0
 61 65  2  0  0  0  0
 61 62  1  0  0  0  0
 62 66  2  0  0  0  0
 64 67  2  0  0  0  0
 65 64  1  0  0  0  0
 66 67  1  0  0  0  0
 66 63  1  0  0  0  0
M  END
>  <MODEL>
5

>  <REMARK>
 VINA RESULT:      -7.4      4.393     11.913
  Name = 
  16 active torsions:
  status: ('A' for Active; 'I' for Inactive)
    1  A    between atoms: C_3  and  C_31
    2  A    between atoms: C_5  and  N_32
    3  A    between atoms: C_6  and  N_43
    4  A    between atoms: C_7  and  N_32
    5  A    between atoms: C_7  and  O_41
    6  A    between atoms: C_13  and  N_33
    7  A    between atoms: P_16  and  C_62
    8  A    between atoms: C_19  and  C_66
    9  A    between atoms: O_36  and  C_45
   10  A    between atoms: O_36  and  C_57
   11  A    between atoms: C_38  and  C_45
   12  A    between atoms: O_41  and  C_61
   13  A    between atoms: C_44  and  C_67
   14  A    between atoms: N_53  and  C_66
   15  A    between atoms: C_54  and  C_62
   16  A    between atoms: C_61  and  C_67
                            x       y       z     vdW  Elec       q    Type
                         _______ _______ _______ _____ _____    ______ ____

>  <TORSDO>
F 16

$$$$
=
 OpenBabel11042418393D

 67 76  0  0  1  0  0  0  0  0999 V2000
  187.9720  174.0050  140.7570 C   0  0  2  0  0  3  0  0  0  0  0  0
  187.8870  175.3630  141.4350 C   0  0  2  0  0  3  0  0  0  0  0  0
  188.8260  173.2620  141.7480 C   0  0  2  0  0  3  0  0  0  0  0  0
  189.7790  173.7380  137.3050 C   0  0  0  0  0  3  0  0  0  0  0  0
  190.5290  172.5090  136.8160 C   0  0  0  0  0  3  0  0  0  0  0  0
  189.2370  173.3600  138.6430 C   0  0  0  0  0  0  0  0  0  0  0  0
  190.4040  171.5080  137.9180 C   0  0  0  0  0  0  0  0  0  0  0  0
  190.3770  172.0150  140.2680 N   0  0  0  0  0  2  0  0  0  0  0  0
  189.6500  174.3140  142.4500 C   0  0  2  0  0  3  0  0  0  0  0  0
  189.5740  171.9720  139.0580 C   0  0  1  0  0  3  0  0  0  0  0  0
  191.0390  170.3720  137.9560 N   0  0  0  0  0  0  0  0  0  0  0  0
  188.5910  174.2510  139.4040 C   0  0  0  0  0  3  0  0  0  0  0  0
  189.4580  171.9110  141.3890 C   0  0  0  0  0  2  0  0  0  0  0  0
  188.9220  175.5190  142.3930 O   0  0  0  0  0  0  0  0  0  0  0  0
  191.8600  169.8330  136.9080 C   0  0  0  0  0  0  0  0  0  0  0  0
  191.3380  169.2160  135.9420 O   0  0  0  0  0  0  0  0  0  0  0  0
  193.2870  169.9480  136.9600 N   0  0  0  0  0  2  0  0  0  0  0  0
  195.8350  173.2170  139.1930 C   0  0  0  0  0  3  0  0  0  0  0  0
  193.1580  168.6910  140.1300 C   0  0  0  0  0  2  0  0  0  0  0  0
  194.0500  170.8400  137.7810 C   0  0  0  0  0  0  0  0  0  0  0  0
  194.5680  170.3720  138.9060 C   0  0  0  0  0  0  0  0  0  0  0  0
  195.4280  169.7030  140.6500 C   0  0  2  0  0  3  0  0  0  0  0  0
  192.6790  169.5980  141.0860 O   0  0  0  0  0  0  0  0  0  0  0  0
  194.5720  169.0710  139.6510 C   0  0  1  0  0  3  0  0  0  0  0  0
  193.4380  169.3430  142.2300 C   0  0  0  0  0  2  0  0  0  0  0  0
  194.8370  169.9300  142.0590 C   0  0  0  0  0  2  0  0  0  0  0  0
  194.3100  172.2310  137.3540 C   0  0  0  0  0  3  0  0  0  0  0  0
  196.0250  172.2420  140.0830 C   0  0  0  0  0  3  0  0  0  0  0  0
  195.4400  170.9610  139.9310 N   0  0  0  0  0  0  0  0  0  0  0  0
  195.0390  173.1990  137.9380 C   0  0  0  0  0  3  0  0  0  0  0  0
  186.5900  175.5450  142.0760 N   0  0  0  0  0  2  0  0  0  0  0  0
  186.1360  176.9040  141.8210 C   0  0  0  0  0  2  0  0  0  0  0  0
  185.2570  177.3190  142.8310 O   0  0  0  0  0  0  0  0  0  0  0  0
  185.4940  178.6840  142.9880 C   0  0  0  0  0  2  0  0  0  0  0  0
  186.2970  178.9300  144.2600 C   0  0  0  0  0  2  0  0  0  0  0  0
  188.4950  176.4640  145.9830 P   0  0  2  0  0  0  0  0  0  0  0  0
  187.3300  176.8140  147.1400 O   0  0  0  0  0  0  0  0  0  0  0  0
  186.5690  177.8010  146.5100 C   0  0  1  0  0  3  0  0  0  0  0  0
  186.6340  177.6290  144.9810 C   0  0  2  0  0  3  0  0  0  0  0  0
  187.8860  177.1500  144.5760 O   0  0  0  0  0  0  0  0  0  0  0  0
  188.6380  174.9690  145.8140 O   0  0  0  0  0  0  0  0  0  0  0  0
  185.1540  177.7290  146.9800 C   0  0  0  0  0  0  0  0  0  0  0  0
  184.6960  178.6010  147.9600 O   0  0  0  0  0  1  0  0  0  0  0  0
  184.3770  176.8500  146.5130 O   0  0  0  0  0  0  0  0  0  0  0  0
  190.3630  178.2520  145.5260 O   0  0  0  0  0  1  0  0  0  0  0  0
  190.0800  177.2290  146.4310 C   0  0  0  0  0  0  0  0  0  0  0  0
  189.9810  177.7620  147.7180 O   0  0  0  0  0  1  0  0  0  0  0  0
  191.1770  176.1710  146.3860 C   0  0  0  0  0  2  0  0  0  0  0  0
  192.1450  176.4110  145.2360 C   0  0  0  0  0  1  0  0  0  0  0  0
  191.0090  174.5270  141.7990 C   0  0  0  0  0  2  0  0  0  0  0  0
  191.9880  174.6200  142.7930 O   0  0  0  0  0  0  0  0  0  0  0  0
  192.3600  172.7640  144.2550 C   0  0  0  0  0  3  0  0  0  0  0  0
  193.9740  173.4680  142.6920 O   0  0  0  0  0  0  0  0  0  0  0  0
  194.6510  173.1190  143.8350 C   0  0  0  0  0  0  0  0  0  0  0  0
  195.9480  173.2010  143.9140 N   0  0  0  0  0  0  0  0  0  0  0  0
  192.5720  173.3490  142.8530 C   0  0  2  0  0  3  0  0  0  0  0  0
  193.7360  172.6790  144.9140 C   0  0  0  0  0  3  0  0  0  0  0  0
  196.7000  173.7520  146.2720 C   0  0  0  0  0  2  0  0  0  0  0  0
  197.9360  173.8560  145.3780 C   0  0  0  0  0  2  0  0  0  0  0  0
  196.8320  172.8770  145.0430 C   0  0  0  0  0  0  0  0  0  0  0  0
  196.7920  170.8520  146.5120 C   0  0  0  0  0  3  0  0  0  0  0  0
  197.1230  171.4290  145.2790 C   0  0  0  0  0  0  0  0  0  0  0  0
  197.9390  171.1530  143.0340 F   0  0  0  0  0  0  0  0  0  0  0  0
  197.5470  168.6940  145.7160 C   0  0  0  0  0  3  0  0  0  0  0  0
  197.0110  169.4880  146.7320 C   0  0  0  0  0  3  0  0  0  0  0  0
  197.6450  170.6220  144.2500 C   0  0  0  0  0  0  0  0  0  0  0  0
  197.8610  169.2590  144.4750 C   0  0  0  0  0  3  0  0  0  0  0  0
  1 12  1  6  0  0  0
  1  2  1  0  0  0  0
  1  3  1  0  0  0  0
  2 31  1  1  0  0  0
  2 14  1  0  0  0  0
  3 13  1  6  0  0  0
  3  9  1  0  0  0  0
  4  6  1  0  0  0  0
  5  4  2  0  0  0  0
  5  7  1  0  0  0  0
  6 10  1  0  0  0  0
  6 12  2  0  0  0  0
  7 11  2  0  0  0  0
  8 13  1  0  0  0  0
  9 50  1  6  0  0  0
 10  7  1  6  0  0  0
 10  8  1  0  0  0  0
 14  9  1  0  0  0  0
 15 17  1  0  0  0  0
 15 11  1  0  0  0  0
 16 15  2  0  0  0  0
 17 20  1  0  0  0  0
 18 28  2  0  0  0  0
 19 23  1  0  0  0  0
 20 21  2  0  0  0  0
 21 24  1  0  0  0  0
 21 29  1  0  0  0  0
 22 26  1  1  0  0  0
 23 25  1  0  0  0  0
 24 19  1  1  0  0  0
 24 22  1  0  0  0  0
 26 25  1  0  0  0  0
 27 20  1  0  0  0  0
 27 30  2  0  0  0  0
 29 28  1  0  0  0  0
 29 22  1  0  0  0  0
 30 18  1  0  0  0  0
 32 31  1  0  0  0  0
 32 33  1  0  0  0  0
 33 34  1  0  0  0  0
 34 35  1  0  0  0  0
 36 41  2  6  0  0  0
 36 46  1  0  0  0  0
 36 37  1  0  0  0  0
 38 42  1  1  0  0  0
 38 37  1  0  0  0  0
 39 35  1  6  0  0  0
 39 38  1  0  0  0  0
 40 39  1  0  0  0  0
 40 36  1  0  0  0  0
 42 43  1  0  0  0  0
 44 42  2  0  0  0  0
 45 46  1  0  0  0  0
 46 47  1  0  0  0  0
 48 46  1  0  0  0  0
 49 48  1  0  0  0  0
 50 51  1  0  0  0  0
 52 57  2  0  0  0  0
 53 56  1  0  0  0  0
 53 54  1  0  0  0  0
 54 55  2  0  0  0  0
 54 57  1  0  0  0  0
 55 60  1  0  0  0  0
 56 51  1  1  0  0  0
 56 52  1  0  0  0  0
 59 58  1  0  0  0  0
 60 62  1  0  0  0  0
 60 59  1  0  0  0  0
 60 58  1  0  0  0  0
 61 65  1  0  0  0  0
 62 61  2  0  0  0  0
 63 66  1  0  0  0  0
 64 65  2  0  0  0  0
 66 67  2  0  0  0  0
 66 62  1  0  0  0  0
 67 64  1  0  0  0  0
M  END
>  <MODEL>
6

>  <REMARK>
 VINA RESULT:      -7.4      4.555      8.773
  Name = 
  16 active torsions:
  status: ('A' for Active; 'I' for Inactive)
    1  A    between atoms: C_3  and  C_31
    2  A    between atoms: C_5  and  N_32
    3  A    between atoms: C_6  and  N_43
    4  A    between atoms: C_7  and  N_32
    5  A    between atoms: C_7  and  O_41
    6  A    between atoms: C_13  and  N_33
    7  A    between atoms: P_16  and  C_62
    8  A    between atoms: C_19  and  C_66
    9  A    between atoms: O_36  and  C_45
   10  A    between atoms: O_36  and  C_57
   11  A    between atoms: C_38  and  C_45
   12  A    between atoms: O_41  and  C_61
   13  A    between atoms: C_44  and  C_67
   14  A    between atoms: N_53  and  C_66
   15  A    between atoms: C_54  and  C_62
   16  A    between atoms: C_61  and  C_67
                            x       y       z     vdW  Elec       q    Type
                         _______ _______ _______ _____ _____    ______ ____

>  <TORSDO>
F 16

$$$$
=
 OpenBabel11042418393D

 67 76  0  0  1  0  0  0  0  0999 V2000
  191.5800  175.2400  144.4840 C   0  0  2  0  0  3  0  0  0  0  0  0
  192.3430  175.9800  145.5700 C   0  0  2  0  0  3  0  0  0  0  0  0
  191.5430  173.8580  145.0750 C   0  0  2  0  0  3  0  0  0  0  0  0
  193.2010  174.8990  140.9470 C   0  0  0  0  0  3  0  0  0  0  0  0
  192.9750  173.7290  140.0030 C   0  0  0  0  0  3  0  0  0  0  0  0
  192.3590  174.6070  142.1440 C   0  0  0  0  0  0  0  0  0  0  0  0
  192.0430  172.8140  140.7290 C   0  0  0  0  0  0  0  0  0  0  0  0
  192.0250  172.4340  143.1020 N   0  0  0  0  0  2  0  0  0  0  0  0
  192.7470  173.7650  145.9790 C   0  0  2  0  0  3  0  0  0  0  0  0
  191.5960  173.3330  142.0450 C   0  0  1  0  0  3  0  0  0  0  0  0
  191.7210  171.6190  140.3230 N   0  0  0  0  0  0  0  0  0  0  0  0
  192.3900  175.3990  143.2220 C   0  0  0  0  0  3  0  0  0  0  0  0
  191.1300  172.6470  144.2270 C   0  0  0  0  0  2  0  0  0  0  0  0
  193.0530  175.0750  146.4010 O   0  0  0  0  0  0  0  0  0  0  0  0
  192.0970  171.0280  139.0690 C   0  0  0  0  0  0  0  0  0  0  0  0
  192.8240  170.0000  139.0410 O   0  0  0  0  0  0  0  0  0  0  0  0
  191.6900  171.6160  137.8280 N   0  0  0  0  0  2  0  0  0  0  0  0
  187.9310  174.4320  137.5050 C   0  0  0  0  0  3  0  0  0  0  0  0
  193.1060  174.2590  136.1990 C   0  0  0  0  0  2  0  0  0  0  0  0
  190.6470  172.5780  137.6310 C   0  0  0  0  0  0  0  0  0  0  0  0
  190.7700  173.4480  136.6400 C   0  0  0  0  0  0  0  0  0  0  0  0
  190.8840  174.8070  135.1010 C   0  0  2  0  0  3  0  0  0  0  0  0
  192.9400  175.4890  136.8510 O   0  0  0  0  0  0  0  0  0  0  0  0
  191.7850  173.7640  135.5830 C   0  0  1  0  0  3  0  0  0  0  0  0
  192.7490  176.4150  135.8220 C   0  0  0  0  0  2  0  0  0  0  0  0
  191.3360  176.2750  135.2630 C   0  0  0  0  0  2  0  0  0  0  0  0
  189.4290  172.5610  138.4700 C   0  0  0  0  0  3  0  0  0  0  0  0
  188.6070  174.9630  136.4850 C   0  0  0  0  0  3  0  0  0  0  0  0
  189.8920  174.5000  136.1130 N   0  0  0  0  0  0  0  0  0  0  0  0
  188.3230  173.3240  138.4140 C   0  0  0  0  0  3  0  0  0  0  0  0
  191.4420  176.7910  146.3810 N   0  0  0  0  0  2  0  0  0  0  0  0
  190.1250  176.7750  145.7630 C   0  0  0  0  0  2  0  0  0  0  0  0
  189.1260  176.7950  146.7470 O   0  0  0  0  0  0  0  0  0  0  0  0
  187.9700  176.3500  146.1070 C   0  0  0  0  0  2  0  0  0  0  0  0
  188.2740  176.0220  144.6500 C   0  0  0  0  0  2  0  0  0  0  0  0
  185.3100  178.0710  143.7050 P   0  0  2  0  0  0  0  0  0  0  0  0
  186.5400  178.7210  142.7650 O   0  0  0  0  0  0  0  0  0  0  0  0
  187.6570  178.0010  143.1960 C   0  0  1  0  0  3  0  0  0  0  0  0
  187.2320  176.6120  143.7050 C   0  0  2  0  0  3  0  0  0  0  0  0
  185.9760  176.6590  144.3240 O   0  0  0  0  0  0  0  0  0  0  0  0
  184.1070  177.7470  142.8480 O   0  0  0  0  0  0  0  0  0  0  0  0
  188.6360  177.8660  142.0770 C   0  0  0  0  0  0  0  0  0  0  0  0
  188.1900  177.6990  140.7720 O   0  0  0  0  0  0  0  0  0  0  0  0
  189.8750  177.8680  142.3180 O   0  0  0  0  0  1  0  0  0  0  0  0
  185.0010  180.5230  144.5910 O   0  0  0  0  0  1  0  0  0  0  0  0
  184.8700  179.2120  145.0480 C   0  0  0  0  0  0  0  0  0  0  0  0
  183.5450  178.9820  145.4250 O   0  0  0  0  0  1  0  0  0  0  0  0
  185.8000  178.9740  146.2320 C   0  0  0  0  0  2  0  0  0  0  0  0
  185.0810  178.2910  147.3870 C   0  0  0  0  0  1  0  0  0  0  0  0
  193.9640  173.1750  145.2800 C   0  0  0  0  0  2  0  0  0  0  0  0
  195.1120  173.4680  146.0240 O   0  0  0  0  0  0  0  0  0  0  0  0
  197.3380  173.9910  145.3230 C   0  0  0  0  0  3  0  0  0  0  0  0
  195.7930  172.9330  143.8960 O   0  0  0  0  0  0  0  0  0  0  0  0
  196.4960  173.8300  143.1290 C   0  0  0  0  0  0  0  0  0  0  0  0
  196.2610  173.9720  141.8560 N   0  0  0  0  0  0  0  0  0  0  0  0
  196.1790  172.9880  145.2570 C   0  0  2  0  0  3  0  0  0  0  0  0
  197.4910  174.5860  143.9240 C   0  0  0  0  0  3  0  0  0  0  0  0
  197.9410  175.8260  141.4440 C   0  0  0  0  0  2  0  0  0  0  0  0
  196.5830  176.3500  140.9770 C   0  0  0  0  0  2  0  0  0  0  0  0
  196.9040  174.8730  140.8880 C   0  0  0  0  0  0  0  0  0  0  0  0
  197.0070  175.1520  138.4030 C   0  0  0  0  0  3  0  0  0  0  0  0
  197.1640  174.3230  139.5230 C   0  0  0  0  0  0  0  0  0  0  0  0
  197.8390  172.2000  140.4280 F   0  0  0  0  0  0  0  0  0  0  0  0
  197.7540  173.3590  136.9580 C   0  0  0  0  0  3  0  0  0  0  0  0
  197.2950  174.6680  137.1230 C   0  0  0  0  0  3  0  0  0  0  0  0
  197.6450  173.0100  139.3540 C   0  0  0  0  0  0  0  0  0  0  0  0
  197.9310  172.5320  138.0720 C   0  0  0  0  0  3  0  0  0  0  0  0
  1 12  1  6  0  0  0
  1  3  1  0  0  0  0
  1  2  1  0  0  0  0
  2 31  1  1  0  0  0
  2 14  1  0  0  0  0
  3 13  1  6  0  0  0
  3  9  1  0  0  0  0
  4  6  1  0  0  0  0
  5  7  1  0  0  0  0
  5  4  2  0  0  0  0
  6 12  2  0  0  0  0
  8 13  1  0  0  0  0
  9 50  1  6  0  0  0
  9 14  1  0  0  0  0
 10  7  1  6  0  0  0
 10  6  1  0  0  0  0
 10  8  1  0  0  0  0
 11  7  2  0  0  0  0
 15 11  1  0  0  0  0
 16 15  2  0  0  0  0
 17 15  1  0  0  0  0
 18 30  1  0  0  0  0
 19 23  1  0  0  0  0
 20 17  1  0  0  0  0
 20 27  1  0  0  0  0
 21 20  2  0  0  0  0
 22 26  1  1  0  0  0
 22 24  1  0  0  0  0
 22 29  1  0  0  0  0
 24 19  1  1  0  0  0
 24 21  1  0  0  0  0
 25 23  1  0  0  0  0
 26 25  1  0  0  0  0
 28 18  2  0  0  0  0
 29 28  1  0  0  0  0
 29 21  1  0  0  0  0
 30 27  2  0  0  0  0
 32 31  1  0  0  0  0
 32 33  1  0  0  0  0
 34 33  1  0  0  0  0
 35 34  1  0  0  0  0
 36 41  2  6  0  0  0
 36 40  1  0  0  0  0
 36 46  1  0  0  0  0
 37 38  1  0  0  0  0
 37 36  1  0  0  0  0
 38 42  1  6  0  0  0
 38 39  1  0  0  0  0
 39 40  1  0  0  0  0
 39 35  1  1  0  0  0
 42 44  1  0  0  0  0
 43 42  2  0  0  0  0
 45 46  1  0  0  0  0
 46 47  1  0  0  0  0
 46 48  1  0  0  0  0
 48 49  1  0  0  0  0
 50 51  1  0  0  0  0
 53 56  1  0  0  0  0
 54 53  1  0  0  0  0
 54 57  1  0  0  0  0
 55 54  2  0  0  0  0
 56 52  1  0  0  0  0
 56 51  1  1  0  0  0
 57 52  2  0  0  0  0
 59 58  1  0  0  0  0
 60 59  1  0  0  0  0
 60 58  1  0  0  0  0
 60 55  1  0  0  0  0
 61 62  1  0  0  0  0
 62 60  1  0  0  0  0
 64 65  1  0  0  0  0
 64 67  2  0  0  0  0
 65 61  2  0  0  0  0
 66 62  2  0  0  0  0
 66 63  1  0  0  0  0
 67 66  1  0  0  0  0
M  END
>  <MODEL>
7

>  <REMARK>
 VINA RESULT:      -7.3      4.361      7.960
  Name = 
  16 active torsions:
  status: ('A' for Active; 'I' for Inactive)
    1  A    between atoms: C_3  and  C_31
    2  A    between atoms: C_5  and  N_32
    3  A    between atoms: C_6  and  N_43
    4  A    between atoms: C_7  and  N_32
    5  A    between atoms: C_7  and  O_41
    6  A    between atoms: C_13  and  N_33
    7  A    between atoms: P_16  and  C_62
    8  A    between atoms: C_19  and  C_66
    9  A    between atoms: O_36  and  C_45
   10  A    between atoms: O_36  and  C_57
   11  A    between atoms: C_38  and  C_45
   12  A    between atoms: O_41  and  C_61
   13  A    between atoms: C_44  and  C_67
   14  A    between atoms: N_53  and  C_66
   15  A    between atoms: C_54  and  C_62
   16  A    between atoms: C_61  and  C_67
                            x       y       z     vdW  Elec       q    Type
                         _______ _______ _______ _____ _____    ______ ____

>  <TORSDO>
F 16

$$$$
=
 OpenBabel11042418393D

 67 76  0  0  1  0  0  0  0  0999 V2000
  190.1760  174.6130  142.3340 C   0  0  2  0  0  3  0  0  0  0  0  0
  189.0510  173.6570  142.6980 C   0  0  2  0  0  3  0  0  0  0  0  0
  190.9000  173.7960  141.3000 C   0  0  2  0  0  3  0  0  0  0  0  0
  192.8060  175.5470  145.0650 C   0  0  0  0  0  3  0  0  0  0  0  0
  194.2610  175.8880  144.7820 C   0  0  0  0  0  3  0  0  0  0  0  0
  192.1940  175.2970  143.7270 C   0  0  0  0  0  0  0  0  0  0  0  0
  194.4080  175.7780  143.2990 C   0  0  0  0  0  0  0  0  0  0  0  0
  193.2760  174.1880  141.8970 N   0  0  0  0  0  2  0  0  0  0  0  0
  190.6030  172.3540  141.6340 C   0  0  2  0  0  3  0  0  0  0  0  0
  193.1430  175.4560  142.5930 C   0  0  1  0  0  3  0  0  0  0  0  0
  195.5440  175.8450  142.6660 N   0  0  0  0  0  0  0  0  0  0  0  0
  190.9280  174.8800  143.6130 C   0  0  0  0  0  3  0  0  0  0  0  0
  192.3010  174.1940  140.8180 C   0  0  0  0  0  2  0  0  0  0  0  0
  189.3650  172.3290  142.3080 O   0  0  0  0  0  0  0  0  0  0  0  0
  196.8170  176.1540  143.2540 C   0  0  0  0  0  0  0  0  0  0  0  0
  197.2040  177.3490  143.3480 O   0  0  0  0  0  0  0  0  0  0  0  0
  197.6890  175.1110  143.7060 N   0  0  0  0  0  2  0  0  0  0  0  0
  196.5670  170.7620  145.1180 C   0  0  0  0  0  3  0  0  0  0  0  0
  196.9720  173.7060  140.6800 C   0  0  0  0  0  2  0  0  0  0  0  0
  197.3380  173.7460  143.9660 C   0  0  0  0  0  0  0  0  0  0  0  0
  197.4850  172.8630  142.9900 C   0  0  0  0  0  0  0  0  0  0  0  0
  197.7170  171.4320  141.5310 C   0  0  2  0  0  3  0  0  0  0  0  0
  195.7010  173.1190  140.6080 O   0  0  0  0  0  0  0  0  0  0  0  0
  197.9280  172.8770  141.5580 C   0  0  1  0  0  3  0  0  0  0  0  0
  195.8800  171.9780  139.8240 C   0  0  0  0  0  2  0  0  0  0  0  0
  196.5720  170.8930  140.6460 C   0  0  0  0  0  2  0  0  0  0  0  0
  196.8870  173.3190  145.3070 C   0  0  0  0  0  3  0  0  0  0  0  0
  196.8860  170.4380  143.8640 C   0  0  0  0  0  3  0  0  0  0  0  0
  197.2980  171.4080  142.9180 N   0  0  0  0  0  0  0  0  0  0  0  0
  196.5710  172.0970  145.7710 C   0  0  0  0  0  3  0  0  0  0  0  0
  187.7960  174.0690  142.0800 N   0  0  0  0  0  2  0  0  0  0  0  0
  188.0170  175.3250  141.3790 C   0  0  0  0  0  2  0  0  0  0  0  0
  187.0520  176.2680  141.7580 O   0  0  0  0  0  0  0  0  0  0  0  0
  187.7720  177.4070  142.1180 C   0  0  0  0  0  2  0  0  0  0  0  0
  187.0540  178.1430  143.2430 C   0  0  0  0  0  2  0  0  0  0  0  0
  188.2760  176.6200  146.4150 P   0  0  2  0  0  0  0  0  0  0  0  0
  186.9450  177.5160  146.9090 O   0  0  0  0  0  0  0  0  0  0  0  0
  186.5540  178.1470  145.7250 C   0  0  1  0  0  3  0  0  0  0  0  0
  186.9610  177.2960  144.5080 C   0  0  2  0  0  3  0  0  0  0  0  0
  188.1660  176.6210  144.7400 O   0  0  0  0  0  0  0  0  0  0  0  0
  188.1830  175.2060  146.9420 O   0  0  0  0  0  0  0  0  0  0  0  0
  185.0780  178.3700  145.7330 C   0  0  0  0  0  0  0  0  0  0  0  0
  184.5360  179.4970  145.1260 O   0  0  0  0  0  0  0  0  0  0  0  0
  184.3190  177.5520  146.3220 O   0  0  0  0  0  1  0  0  0  0  0  0
  190.4840  177.9170  145.8370 O   0  0  0  0  0  1  0  0  0  0  0  0
  189.8140  177.4210  146.9550 C   0  0  0  0  0  0  0  0  0  0  0  0
  189.5000  178.4770  147.8140 O   0  0  0  0  0  1  0  0  0  0  0  0
  190.6840  176.3990  147.6780 C   0  0  0  0  0  2  0  0  0  0  0  0
  191.8590  177.0590  148.3850 C   0  0  0  0  0  1  0  0  0  0  0  0
  191.6640  171.7270  142.5290 C   0  0  0  0  0  2  0  0  0  0  0  0
  192.6440  171.1260  141.7320 O   0  0  0  0  0  0  0  0  0  0  0  0
  192.8570  168.9460  140.7720 C   0  0  0  0  0  3  0  0  0  0  0  0
  191.7340  170.6960  139.6660 O   0  0  0  0  0  0  0  0  0  0  0  0
  192.4400  170.0070  138.7100 C   0  0  0  0  0  0  0  0  0  0  0  0
  192.4080  170.3530  137.4550 N   0  0  0  0  0  0  0  0  0  0  0  0
  191.9600  170.1770  140.9640 C   0  0  2  0  0  3  0  0  0  0  0  0
  193.2170  168.8870  139.2880 C   0  0  0  0  0  3  0  0  0  0  0  0
  192.2350  169.4550  135.0900 C   0  0  0  0  0  2  0  0  0  0  0  0
  192.7500  168.3090  135.9610 C   0  0  0  0  0  2  0  0  0  0  0  0
  193.0910  169.7420  136.3060 C   0  0  0  0  0  0  0  0  0  0  0  0
  194.7320  171.3580  135.3250 C   0  0  0  0  0  3  0  0  0  0  0  0
  194.4980  170.1790  136.0460 C   0  0  0  0  0  0  0  0  0  0  0  0
  195.3800  168.3430  137.3230 F   0  0  0  0  0  0  0  0  0  0  0  0
  197.1170  171.0900  135.6400 C   0  0  0  0  0  3  0  0  0  0  0  0
  196.0400  171.8080  135.1170 C   0  0  0  0  0  3  0  0  0  0  0  0
  195.5850  169.4690  136.5890 C   0  0  0  0  0  0  0  0  0  0  0  0
  196.8900  169.9230  136.3790 C   0  0  0  0  0  3  0  0  0  0  0  0
  1  2  1  0  0  0  0
  1 12  1  1  0  0  0
  2 31  1  6  0  0  0
  3 13  1  1  0  0  0
  3  9  1  0  0  0  0
  3  1  1  0  0  0  0
  5  4  2  0  0  0  0
  6  4  1  0  0  0  0
  7  5  1  0  0  0  0
  9 14  1  0  0  0  0
  9 50  1  1  0  0  0
 10  8  1  1  0  0  0
 10  7  1  0  0  0  0
 10  6  1  0  0  0  0
 11 15  1  0  0  0  0
 11  7  2  0  0  0  0
 12  6  2  0  0  0  0
 13  8  1  0  0  0  0
 14  2  1  0  0  0  0
 15 16  2  0  0  0  0
 15 17  1  0  0  0  0
 17 20  1  0  0  0  0
 18 30  1  0  0  0  0
 20 27  1  0  0  0  0
 21 20  2  0  0  0  0
 22 26  1  6  0  0  0
 22 24  1  0  0  0  0
 22 29  1  0  0  0  0
 23 19  1  0  0  0  0
 24 19  1  6  0  0  0
 24 21  1  0  0  0  0
 25 23  1  0  0  0  0
 25 26  1  0  0  0  0
 27 30  2  0  0  0  0
 28 18  2  0  0  0  0
 29 21  1  0  0  0  0
 29 28  1  0  0  0  0
 32 33  1  0  0  0  0
 32 31  1  0  0  0  0
 33 34  1  0  0  0  0
 34 35  1  0  0  0  0
 36 37  1  0  0  0  0
 36 41  2  1  0  0  0
 36 46  1  0  0  0  0
 38 42  1  1  0  0  0
 38 37  1  0  0  0  0
 39 35  1  6  0  0  0
 39 40  1  0  0  0  0
 39 38  1  0  0  0  0
 40 36  1  0  0  0  0
 42 44  1  0  0  0  0
 43 42  2  0  0  0  0
 45 46  1  0  0  0  0
 46 48  1  0  0  0  0
 46 47  1  0  0  0  0
 48 49  1  0  0  0  0
 51 50  1  0  0  0  0
 52 56  1  0  0  0  0
 53 56  1  0  0  0  0
 54 57  1  0  0  0  0
 54 53  1  0  0  0  0
 55 54  2  0  0  0  0
 56 51  1  1  0  0  0
 57 52  2  0  0  0  0
 58 59  1  0  0  0  0
 58 60  1  0  0  0  0
 59 60  1  0  0  0  0
 60 55  1  0  0  0  0
 61 62  1  0  0  0  0
 62 60  1  0  0  0  0
 62 66  2  0  0  0  0
 64 67  2  0  0  0  0
 65 61  2  0  0  0  0
 65 64  1  0  0  0  0
 66 63  1  0  0  0  0
 67 66  1  0  0  0  0
M  END
>  <MODEL>
8

>  <REMARK>
 VINA RESULT:      -7.2      4.882      7.012
  Name = 
  16 active torsions:
  status: ('A' for Active; 'I' for Inactive)
    1  A    between atoms: C_3  and  C_31
    2  A    between atoms: C_5  and  N_32
    3  A    between atoms: C_6  and  N_43
    4  A    between atoms: C_7  and  N_32
    5  A    between atoms: C_7  and  O_41
    6  A    between atoms: C_13  and  N_33
    7  A    between atoms: P_16  and  C_62
    8  A    between atoms: C_19  and  C_66
    9  A    between atoms: O_36  and  C_45
   10  A    between atoms: O_36  and  C_57
   11  A    between atoms: C_38  and  C_45
   12  A    between atoms: O_41  and  C_61
   13  A    between atoms: C_44  and  C_67
   14  A    between atoms: N_53  and  C_66
   15  A    between atoms: C_54  and  C_62
   16  A    between atoms: C_61  and  C_67
                            x       y       z     vdW  Elec       q    Type
                         _______ _______ _______ _____ _____    ______ ____

>  <TORSDO>
F 16

$$$$
=
 OpenBabel11042418393D

 67 76  0  0  1  0  0  0  0  0999 V2000
  191.4980  172.9600  143.7920 C   0  0  2  0  0  3  0  0  0  0  0  0
  190.3780  173.5270  144.6490 C   0  0  2  0  0  3  0  0  0  0  0  0
  191.5760  174.0130  142.7210 C   0  0  2  0  0  3  0  0  0  0  0  0
  190.9310  169.5540  141.9690 C   0  0  0  0  0  3  0  0  0  0  0  0
  191.5630  169.1700  140.6400 C   0  0  0  0  0  3  0  0  0  0  0  0
  191.4620  170.9140  142.2770 C   0  0  0  0  0  0  0  0  0  0  0  0
  192.3920  170.3480  140.2450 C   0  0  0  0  0  0  0  0  0  0  0  0
  191.8400  172.6490  140.6660 N   0  0  0  0  0  2  0  0  0  0  0  0
  190.2030  174.6350  142.6540 C   0  0  2  0  0  3  0  0  0  0  0  0
  192.3980  171.4420  141.2490 C   0  0  1  0  0  3  0  0  0  0  0  0
  192.9780  170.4820  139.0900 N   0  0  0  0  0  0  0  0  0  0  0  0
  191.0350  171.5960  143.3460 C   0  0  0  0  0  3  0  0  0  0  0  0
  192.3670  173.7690  141.4290 C   0  0  0  0  0  2  0  0  0  0  0  0
  189.6120  174.4760  143.9240 O   0  0  0  0  0  0  0  0  0  0  0  0
  193.0340  169.4850  138.0560 C   0  0  0  0  0  0  0  0  0  0  0  0
  193.5270  168.3500  138.2890 O   0  0  0  0  0  0  0  0  0  0  0  0
  192.5700  169.7750  136.7320 N   0  0  0  0  0  2  0  0  0  0  0  0
  189.3590  172.9530  135.4090 C   0  0  0  0  0  3  0  0  0  0  0  0
  194.4640  172.6060  136.9390 C   0  0  0  0  0  2  0  0  0  0  0  0
  191.7230  170.8590  136.3330 C   0  0  0  0  0  0  0  0  0  0  0  0
  192.2890  171.9590  135.8600 C   0  0  0  0  0  0  0  0  0  0  0  0
  193.1010  173.6840  135.0880 C   0  0  2  0  0  3  0  0  0  0  0  0
  193.9110  173.6060  137.7520 O   0  0  0  0  0  0  0  0  0  0  0  0
  193.6840  172.4550  135.6200 C   0  0  1  0  0  3  0  0  0  0  0  0
  194.2240  174.8030  137.1060 C   0  0  0  0  0  2  0  0  0  0  0  0
  193.3150  174.9850  135.8930 C   0  0  0  0  0  2  0  0  0  0  0  0
  190.2510  170.7330  136.3840 C   0  0  0  0  0  3  0  0  0  0  0  0
  190.4310  173.6790  135.0920 C   0  0  0  0  0  3  0  0  0  0  0  0
  191.7490  173.2070  135.3070 N   0  0  0  0  0  0  0  0  0  0  0  0
  189.2900  171.5940  136.0070 C   0  0  0  0  0  3  0  0  0  0  0  0
  190.9080  174.1420  145.8600 N   0  0  0  0  0  2  0  0  0  0  0  0
  191.2810  175.5160  145.5560 C   0  0  0  0  0  2  0  0  0  0  0  0
  192.3470  175.9210  146.3700 O   0  0  0  0  0  0  0  0  0  0  0  0
  193.3620  174.9930  146.1370 C   0  0  0  0  0  2  0  0  0  0  0  0
  194.7210  175.6800  146.2040 C   0  0  0  0  0  2  0  0  0  0  0  0
  196.4400  172.7740  144.6300 P   0  0  2  0  0  0  0  0  0  0  0  0
  195.9180  173.6720  143.3100 O   0  0  0  0  0  0  0  0  0  0  0  0
  195.2030  174.7080  143.9170 C   0  0  1  0  0  3  0  0  0  0  0  0
  195.7550  174.9810  145.3280 C   0  0  2  0  0  3  0  0  0  0  0  0
  196.2000  173.8000  145.9370 O   0  0  0  0  0  0  0  0  0  0  0  0
  197.9070  172.4400  144.4920 O   0  0  0  0  0  0  0  0  0  0  0  0
  195.2870  175.9410  143.0800 C   0  0  0  0  0  0  0  0  0  0  0  0
  196.4930  176.6180  142.9470 O   0  0  0  0  0  1  0  0  0  0  0  0
  194.2520  176.3930  142.5160 O   0  0  0  0  0  0  0  0  0  0  0  0
  194.4450  171.4950  145.7600 O   0  0  0  0  0  1  0  0  0  0  0  0
  195.4380  171.2700  144.8060 C   0  0  0  0  0  0  0  0  0  0  0  0
  194.8430  170.9720  143.5780 O   0  0  0  0  0  1  0  0  0  0  0  0
  196.3360  170.1190  145.2460 C   0  0  0  0  0  2  0  0  0  0  0  0
  196.4490  170.0390  146.7620 C   0  0  0  0  0  1  0  0  0  0  0  0
  189.3100  173.9780  141.6100 C   0  0  0  0  0  2  0  0  0  0  0  0
  189.1450  174.8500  140.5300 O   0  0  0  0  0  0  0  0  0  0  0  0
  187.4990  176.4470  139.8490 C   0  0  0  0  0  3  0  0  0  0  0  0
  187.1920  175.0550  141.7240 O   0  0  0  0  0  0  0  0  0  0  0  0
  186.6900  176.2890  142.0560 C   0  0  0  0  0  0  0  0  0  0  0  0
  186.1620  176.5200  143.2240 N   0  0  0  0  0  0  0  0  0  0  0  0
  187.7630  175.0500  140.4280 C   0  0  2  0  0  3  0  0  0  0  0  0
  186.8490  177.2720  140.9590 C   0  0  0  0  0  3  0  0  0  0  0  0
  184.3480  178.2840  143.0430 C   0  0  0  0  0  2  0  0  0  0  0  0
  185.6860  179.0090  142.8970 C   0  0  0  0  0  2  0  0  0  0  0  0
  185.5830  177.7640  143.7510 C   0  0  0  0  0  0  0  0  0  0  0  0
  184.4440  178.1110  145.9530 C   0  0  0  0  0  3  0  0  0  0  0  0
  185.6370  177.9600  145.2330 C   0  0  0  0  0  0  0  0  0  0  0  0
  188.0290  177.7260  145.2480 F   0  0  0  0  0  0  0  0  0  0  0  0
  185.6940  178.2120  148.0230 C   0  0  0  0  0  3  0  0  0  0  0  0
  184.4740  178.2430  147.3450 C   0  0  0  0  0  3  0  0  0  0  0  0
  186.8640  177.9080  145.9220 C   0  0  0  0  0  0  0  0  0  0  0  0
  186.8880  178.0410  147.3130 C   0  0  0  0  0  3  0  0  0  0  0  0
  1 12  1  6  0  0  0
  1  2  1  0  0  0  0
  2 31  1  1  0  0  0
  3 13  1  6  0  0  0
  3  1  1  0  0  0  0
  4  6  1  0  0  0  0
  5  4  2  0  0  0  0
  6 12  2  0  0  0  0
  7  5  1  0  0  0  0
  8 10  1  0  0  0  0
  8 13  1  0  0  0  0
  9 50  1  6  0  0  0
  9  3  1  0  0  0  0
  9 14  1  0  0  0  0
 10  7  1  6  0  0  0
 10  6  1  0  0  0  0
 11  7  2  0  0  0  0
 14  2  1  0  0  0  0
 15 16  2  0  0  0  0
 15 11  1  0  0  0  0
 17 15  1  0  0  0  0
 18 30  1  0  0  0  0
 19 23  1  0  0  0  0
 20 27  1  0  0  0  0
 20 17  1  0  0  0  0
 21 20  2  0  0  0  0
 22 29  1  0  0  0  0
 22 24  1  0  0  0  0
 22 26  1  1  0  0  0
 24 21  1  0  0  0  0
 24 19  1  1  0  0  0
 25 23  1  0  0  0  0
 26 25  1  0  0  0  0
 28 29  1  0  0  0  0
 28 18  2  0  0  0  0
 29 21  1  0  0  0  0
 30 27  2  0  0  0  0
 32 31  1  0  0  0  0
 32 33  1  0  0  0  0
 34 35  1  0  0  0  0
 34 33  1  0  0  0  0
 36 41  2  6  0  0  0
 36 46  1  0  0  0  0
 36 40  1  0  0  0  0
 37 38  1  0  0  0  0
 37 36  1  0  0  0  0
 38 42  1  6  0  0  0
 38 39  1  0  0  0  0
 39 40  1  0  0  0  0
 39 35  1  1  0  0  0
 43 42  1  0  0  0  0
 44 42  2  0  0  0  0
 46 48  1  0  0  0  0
 46 45  1  0  0  0  0
 47 46  1  0  0  0  0
 48 49  1  0  0  0  0
 51 50  1  0  0  0  0
 52 56  1  0  0  0  0
 52 57  2  0  0  0  0
 53 54  1  0  0  0  0
 54 55  2  0  0  0  0
 55 60  1  0  0  0  0
 56 51  1  1  0  0  0
 56 53  1  0  0  0  0
 57 54  1  0  0  0  0
 58 60  1  0  0  0  0
 59 58  1  0  0  0  0
 59 60  1  0  0  0  0
 60 62  1  0  0  0  0
 61 65  1  0  0  0  0
 62 66  1  0  0  0  0
 62 61  2  0  0  0  0
 63 66  1  0  0  0  0
 65 64  2  0  0  0  0
 66 67  2  0  0  0  0
 67 64  1  0  0  0  0
M  END
>  <MODEL>
9

>  <REMARK>
 VINA RESULT:      -7.2      5.291     11.964
  Name = 
  16 active torsions:
  status: ('A' for Active; 'I' for Inactive)
    1  A    between atoms: C_3  and  C_31
    2  A    between atoms: C_5  and  N_32
    3  A    between atoms: C_6  and  N_43
    4  A    between atoms: C_7  and  N_32
    5  A    between atoms: C_7  and  O_41
    6  A    between atoms: C_13  and  N_33
    7  A    between atoms: P_16  and  C_62
    8  A    between atoms: C_19  and  C_66
    9  A    between atoms: O_36  and  C_45
   10  A    between atoms: O_36  and  C_57
   11  A    between atoms: C_38  and  C_45
   12  A    between atoms: O_41  and  C_61
   13  A    between atoms: C_44  and  C_67
   14  A    between atoms: N_53  and  C_66
   15  A    between atoms: C_54  and  C_62
   16  A    between atoms: C_61  and  C_67
                            x       y       z     vdW  Elec       q    Type
                         _______ _______ _______ _____ _____    ______ ____

>  <TORSDO>
F 16

$$$$
