=
 OpenBabel11042416373D

 32 37  0  0  1  0  0  0  0  0999 V2000
  191.2920  172.9120  142.4680 C   0  0  0  0  0  3  0  0  0  0  0  0
  188.6510  175.2310  147.3330 N   0  0  0  0  0  0  0  0  0  0  0  0
  188.2850  174.8870  142.2120 C   0  0  0  0  0  0  0  0  0  0  0  0
  190.5500  173.7570  144.5490 N   0  0  0  0  0  2  0  0  0  0  0  0
  189.8380  174.7120  145.3240 C   0  0  0  0  0  0  0  0  0  0  0  0
  189.4420  175.9350  144.7610 C   0  0  0  0  0  0  0  0  0  0  0  0
  189.6550  175.5390  142.0750 C   0  0  2  0  0  3  0  0  0  0  0  0
  189.5740  177.7680  142.9500 C   0  0  0  0  0  2  0  0  0  0  0  0
  191.0570  174.0250  143.3830 C   0  0  2  0  0  3  0  0  0  0  0  0
  190.9870  175.4010  142.7800 C   0  0  2  0  0  3  0  0  0  0  0  0
  189.9510  176.3660  143.3800 C   0  0  1  0  0  0  0  0  0  0  0  0
  190.2520  172.1890  142.0380 C   0  0  0  0  0  0  0  0  0  0  0  0
  188.6590  176.8030  145.5390 C   0  0  0  0  0  3  0  0  0  0  0  0
  188.9260  172.5040  142.4880 N   0  0  0  0  0  2  0  0  0  0  0  0
  187.1810  175.6890  142.2010 C   0  0  0  0  0  3  0  0  0  0  0  0
  187.1830  177.1930  142.2920 C   0  0  0  0  0  0  0  0  0  0  0  0
  188.3130  177.7640  142.6030 C   0  0  0  0  0  3  0  0  0  0  0  0
  188.0670  173.4560  141.7940 C   0  0  0  0  0  2  0  0  0  0  0  0
  189.4160  174.3700  146.6120 C   0  0  0  0  0  3  0  0  0  0  0  0
  188.2680  176.4320  146.8260 C   0  0  0  0  0  3  0  0  0  0  0  0
  190.6570  169.7750  139.2470 N   0  0  0  0  0  0  0  0  0  0  0  0
  190.3710  171.1460  139.6360 C   0  0  0  0  0  3  0  0  0  0  0  0
  190.8590  169.0890  140.3230 C   0  0  0  0  0  2  0  0  0  0  0  0
  190.4580  171.0580  141.1190 C   0  0  0  0  0  0  0  0  0  0  0  0
  190.7420  169.8620  141.5100 N   0  0  0  0  0  0  0  0  0  0  0  0
  185.9160  177.9720  142.2680 C   0  0  0  0  0  2  0  0  0  0  0  0
  185.0180  177.5450  143.4170 C   0  0  0  0  0  2  0  0  0  0  0  0
  185.1680  178.4600  144.5390 N   0  0  0  0  0  0  0  0  0  0  0  0
  185.1120  177.9850  145.8950 C   0  0  0  0  0  0  0  0  0  0  0  0
  185.4840  179.8500  144.2480 C   0  0  0  0  0  1  0  0  0  0  0  0
  185.2680  178.9230  147.0450 C   0  0  0  0  0  1  0  0  0  0  0  0
  184.9270  176.7620  146.1320 O   0  0  0  0  0  0  0  0  0  0  0  0
  4  5  1  0  0  0  0
  5 19  1  0  0  0  0
  6  5  2  0  0  0  0
  6 13  1  0  0  0  0
  7  3  1  1  0  0  0
  7 10  1  0  0  0  0
  7 11  1  0  0  0  0
  8 11  1  0  0  0  0
  9  1  1  6  0  0  0
  9  4  1  0  0  0  0
 10 11  1  0  0  0  0
 10  9  1  0  0  0  0
 11  6  1  0  0  0  0
 12  1  2  0  0  0  0
 12 14  1  0  0  0  0
 13 20  2  0  0  0  0
 15  3  2  0  0  0  0
 15 16  1  0  0  0  0
 16 17  2  0  0  0  0
 17  8  1  0  0  0  0
 18  3  1  0  0  0  0
 18 14  1  0  0  0  0
 19  2  2  0  0  0  0
 20  2  1  0  0  0  0
 21 22  2  0  0  0  0
 21 23  1  0  0  0  0
 22 24  1  0  0  0  0
 23 25  1  0  0  0  0
 24 25  2  0  0  0  0
 24 12  1  0  0  0  0
 26 16  1  0  0  0  0
 26 27  1  0  0  0  0
 27 28  1  0  0  0  0
 28 29  1  0  0  0  0
 29 32  2  0  0  0  0
 29 31  1  0  0  0  0
 30 28  1  0  0  0  0
M  END
>  <MODEL>
1

>  <REMARK>
 VINA RESULT:      -8.0      0.000      0.000
  Name = 
  4 active torsions:
  status: ('A' for Active; 'I' for Inactive)
    1  A    between atoms: N_2  and  C_7
    2  A    between atoms: C_7  and  C_16
    3  A    between atoms: C_16  and  C_24
    4  A    between atoms: C_18  and  C_30
                            x       y       z     vdW  Elec       q    Type
                         _______ _______ _______ _____ _____    ______ ____

>  <TORSDO>
F 4

$$$$
=
 OpenBabel11042416373D

 32 37  0  0  1  0  0  0  0  0999 V2000
  186.1460  177.9220  141.2220 C   0  0  0  0  0  3  0  0  0  0  0  0
  189.8480  173.2300  141.7740 N   0  0  0  0  0  0  0  0  0  0  0  0
  187.6990  177.1150  144.3750 C   0  0  0  0  0  0  0  0  0  0  0  0
  187.6180  176.0750  141.0920 N   0  0  0  0  0  2  0  0  0  0  0  0
  188.7350  175.3350  141.5660 C   0  0  0  0  0  0  0  0  0  0  0  0
  189.6520  175.9200  142.4530 C   0  0  0  0  0  0  0  0  0  0  0  0
  188.3510  178.1080  143.4210 C   0  0  2  0  0  3  0  0  0  0  0  0
  190.7350  177.9560  143.6100 C   0  0  0  0  0  2  0  0  0  0  0  0
  187.4920  177.3560  141.2610 C   0  0  2  0  0  3  0  0  0  0  0  0
  188.5600  178.1830  141.9230 C   0  0  2  0  0  3  0  0  0  0  0  0
  189.6020  177.4220  142.7590 C   0  0  1  0  0  0  0  0  0  0  0  0
  185.2500  177.5410  142.1390 C   0  0  0  0  0  0  0  0  0  0  0  0
  190.6850  175.1180  142.9670 C   0  0  0  0  0  3  0  0  0  0  0  0
  185.6150  176.5770  143.1380 N   0  0  0  0  0  2  0  0  0  0  0  0
  188.3710  176.7730  145.5120 C   0  0  0  0  0  3  0  0  0  0  0  0
  189.8070  177.1060  145.8220 C   0  0  0  0  0  0  0  0  0  0  0  0
  190.5250  177.5880  144.8470 C   0  0  0  0  0  3  0  0  0  0  0  0
  186.2020  176.9570  144.4180 C   0  0  0  0  0  2  0  0  0  0  0  0
  188.8410  173.9780  141.2510 C   0  0  0  0  0  3  0  0  0  0  0  0
  190.7650  173.7690  142.6190 C   0  0  0  0  0  3  0  0  0  0  0  0
  181.7910  178.7140  141.4770 N   0  0  0  0  0  0  0  0  0  0  0  0
  182.9720  178.0520  140.9470 C   0  0  0  0  0  3  0  0  0  0  0  0
  182.0320  179.0410  142.7030 C   0  0  0  0  0  2  0  0  0  0  0  0
  183.8850  178.0900  142.1220 C   0  0  0  0  0  0  0  0  0  0  0  0
  183.3330  178.6640  143.1360 N   0  0  0  0  0  0  0  0  0  0  0  0
  190.4420  176.6840  147.1000 C   0  0  0  0  0  2  0  0  0  0  0  0
  191.1530  175.3540  146.9150 C   0  0  0  0  0  2  0  0  0  0  0  0
  192.5810  175.5680  146.7310 N   0  0  0  0  0  0  0  0  0  0  0  0
  193.3730  174.6540  145.9540 C   0  0  0  0  0  0  0  0  0  0  0  0
  193.1610  176.7910  147.2630 C   0  0  0  0  0  1  0  0  0  0  0  0
  194.8360  174.8750  145.7630 C   0  0  0  0  0  1  0  0  0  0  0  0
  192.8390  173.6440  145.4220 O   0  0  0  0  0  0  0  0  0  0  0  0
  1 12  2  0  0  0  0
  2 20  1  0  0  0  0
  3 18  1  0  0  0  0
  3 15  2  0  0  0  0
  4  9  1  0  0  0  0
  4  5  1  0  0  0  0
  5  6  2  0  0  0  0
  6 11  1  0  0  0  0
  6 13  1  0  0  0  0
  7  3  1  6  0  0  0
  8 17  1  0  0  0  0
  9  1  1  1  0  0  0
  9 10  1  0  0  0  0
 10 11  1  0  0  0  0
 10  7  1  0  0  0  0
 11  7  1  0  0  0  0
 11  8  1  0  0  0  0
 12 14  1  0  0  0  0
 14 18  1  0  0  0  0
 15 16  1  0  0  0  0
 16 26  1  0  0  0  0
 17 16  2  0  0  0  0
 19  5  1  0  0  0  0
 19  2  2  0  0  0  0
 20 13  2  0  0  0  0
 21 23  1  0  0  0  0
 22 21  2  0  0  0  0
 22 24  1  0  0  0  0
 23 25  1  0  0  0  0
 24 12  1  0  0  0  0
 24 25  2  0  0  0  0
 27 26  1  0  0  0  0
 28 27  1  0  0  0  0
 28 30  1  0  0  0  0
 29 28  1  0  0  0  0
 31 29  1  0  0  0  0
 32 29  2  0  0  0  0
M  END
>  <MODEL>
2

>  <REMARK>
 VINA RESULT:      -7.8      2.750      7.093
  Name = 
  4 active torsions:
  status: ('A' for Active; 'I' for Inactive)
    1  A    between atoms: N_2  and  C_7
    2  A    between atoms: C_7  and  C_16
    3  A    between atoms: C_16  and  C_24
    4  A    between atoms: C_18  and  C_30
                            x       y       z     vdW  Elec       q    Type
                         _______ _______ _______ _____ _____    ______ ____

>  <TORSDO>
F 4

$$$$
=
 OpenBabel11042416373D

 32 37  0  0  1  0  0  0  0  0999 V2000
  187.4540  177.6280  143.9390 C   0  0  0  0  0  3  0  0  0  0  0  0
  190.4910  172.8130  142.0400 N   0  0  0  0  0  0  0  0  0  0  0  0
  190.3980  176.4630  145.6650 C   0  0  0  0  0  0  0  0  0  0  0  0
  188.4730  175.7680  142.8930 N   0  0  0  0  0  2  0  0  0  0  0  0
  189.6090  174.9550  142.6260 C   0  0  0  0  0  0  0  0  0  0  0  0
  190.9020  175.4230  142.9090 C   0  0  0  0  0  0  0  0  0  0  0  0
  190.5040  177.5320  144.5850 C   0  0  2  0  0  3  0  0  0  0  0  0
  192.5910  177.3020  143.4310 C   0  0  0  0  0  2  0  0  0  0  0  0
  188.5580  177.0280  143.1960 C   0  0  2  0  0  3  0  0  0  0  0  0
  189.8750  177.7550  143.2260 C   0  0  2  0  0  3  0  0  0  0  0  0
  191.1420  176.8860  143.3000 C   0  0  1  0  0  0  0  0  0  0  0  0
  187.1700  177.1770  145.1660 C   0  0  0  0  0  0  0  0  0  0  0  0
  191.9830  174.5460  142.7160 C   0  0  0  0  0  3  0  0  0  0  0  0
  187.9410  176.1070  145.7310 N   0  0  0  0  0  2  0  0  0  0  0  0
  191.5490  175.9880  146.2230 C   0  0  0  0  0  3  0  0  0  0  0  0
  192.9450  176.2520  145.7220 C   0  0  0  0  0  0  0  0  0  0  0  0
  193.0560  176.8130  144.5520 C   0  0  0  0  0  3  0  0  0  0  0  0
  189.1550  176.3390  146.5070 C   0  0  0  0  0  2  0  0  0  0  0  0
  189.4220  173.6350  142.2070 C   0  0  0  0  0  3  0  0  0  0  0  0
  191.7580  173.2390  142.2840 C   0  0  0  0  0  3  0  0  0  0  0  0
  184.8090  178.7060  147.5880 N   0  0  0  0  0  0  0  0  0  0  0  0
  186.1650  178.2470  147.3380 C   0  0  0  0  0  2  0  0  0  0  0  0
  184.1140  178.5000  146.5190 C   0  0  0  0  0  3  0  0  0  0  0  0
  186.0590  177.7590  145.9360 C   0  0  0  0  0  0  0  0  0  0  0  0
  184.8670  177.9100  145.4680 N   0  0  0  0  0  0  0  0  0  0  0  0
  194.1350  175.6850  146.4120 C   0  0  0  0  0  2  0  0  0  0  0  0
  195.1350  175.1690  145.3900 C   0  0  0  0  0  2  0  0  0  0  0  0
  195.3010  173.7290  145.5310 N   0  0  0  0  0  0  0  0  0  0  0  0
  196.5950  173.1540  145.7750 C   0  0  0  0  0  0  0  0  0  0  0  0
  194.1050  172.9020  145.5260 C   0  0  0  0  0  1  0  0  0  0  0  0
  196.7640  171.6790  145.9230 C   0  0  0  0  0  1  0  0  0  0  0  0
  197.6110  173.8910  145.8680 O   0  0  0  0  0  0  0  0  0  0  0  0
  1 12  2  0  0  0  0
  2 19  2  0  0  0  0
  2 20  1  0  0  0  0
  3 15  2  0  0  0  0
  3 18  1  0  0  0  0
  4  9  1  0  0  0  0
  5  4  1  0  0  0  0
  5  6  2  0  0  0  0
  6 11  1  0  0  0  0
  7  3  1  1  0  0  0
  8 17  1  0  0  0  0
  9 10  1  0  0  0  0
  9  1  1  1  0  0  0
 10 11  1  0  0  0  0
 10  7  1  0  0  0  0
 11  8  1  0  0  0  0
 11  7  1  0  0  0  0
 12 14  1  0  0  0  0
 12 24  1  0  0  0  0
 13  6  1  0  0  0  0
 14 18  1  0  0  0  0
 16 15  1  0  0  0  0
 16 26  1  0  0  0  0
 17 16  2  0  0  0  0
 19  5  1  0  0  0  0
 20 13  2  0  0  0  0
 22 21  1  0  0  0  0
 23 21  2  0  0  0  0
 24 22  1  0  0  0  0
 25 24  2  0  0  0  0
 25 23  1  0  0  0  0
 27 28  1  0  0  0  0
 27 26  1  0  0  0  0
 28 29  1  0  0  0  0
 29 32  2  0  0  0  0
 29 31  1  0  0  0  0
 30 28  1  0  0  0  0
M  END
>  <MODEL>
3

>  <REMARK>
 VINA RESULT:      -7.7      3.603      8.117
  Name = 
  4 active torsions:
  status: ('A' for Active; 'I' for Inactive)
    1  A    between atoms: N_2  and  C_7
    2  A    between atoms: C_7  and  C_16
    3  A    between atoms: C_16  and  C_24
    4  A    between atoms: C_18  and  C_30
                            x       y       z     vdW  Elec       q    Type
                         _______ _______ _______ _____ _____    ______ ____

>  <TORSDO>
F 4

$$$$
=
 OpenBabel11042416373D

 32 37  0  0  1  0  0  0  0  0999 V2000
  188.0830  176.0510  146.8020 C   0  0  0  0  0  3  0  0  0  0  0  0
  194.0360  176.7910  146.9880 N   0  0  0  0  0  0  0  0  0  0  0  0
  190.0990  175.8210  143.8200 C   0  0  0  0  0  0  0  0  0  0  0  0
  190.3980  176.3000  147.2190 N   0  0  0  0  0  2  0  0  0  0  0  0
  191.7580  176.0770  146.8720 C   0  0  0  0  0  0  0  0  0  0  0  0
  192.1000  175.1030  145.9210 C   0  0  0  0  0  0  0  0  0  0  0  0
  189.7630  174.5740  144.6280 C   0  0  2  0  0  3  0  0  0  0  0  0
  191.5800  173.0170  144.4930 C   0  0  0  0  0  2  0  0  0  0  0  0
  189.4350  175.5040  146.8630 C   0  0  2  0  0  3  0  0  0  0  0  0
  189.6910  174.2320  146.1010 C   0  0  2  0  0  3  0  0  0  0  0  0
  191.0540  174.1110  145.3980 C   0  0  1  0  0  0  0  0  0  0  0  0
  187.8160  177.0380  145.9390 C   0  0  0  0  0  0  0  0  0  0  0  0
  193.4490  174.9870  145.5430 C   0  0  0  0  0  3  0  0  0  0  0  0
  188.8570  177.5530  145.0950 N   0  0  0  0  0  2  0  0  0  0  0  0
  190.9410  175.6960  142.7540 C   0  0  0  0  0  3  0  0  0  0  0  0
  191.7620  174.4790  142.4170 C   0  0  0  0  0  0  0  0  0  0  0  0
  191.8260  173.5410  143.3200 C   0  0  0  0  0  3  0  0  0  0  0  0
  189.1520  176.9920  143.7810 C   0  0  0  0  0  2  0  0  0  0  0  0
  192.7430  176.9260  147.3830 C   0  0  0  0  0  3  0  0  0  0  0  0
  194.4050  175.8460  146.0850 C   0  0  0  0  0  3  0  0  0  0  0  0
  184.2370  178.0010  146.1380 N   0  0  0  0  0  0  0  0  0  0  0  0
  185.2690  177.0690  146.5590 C   0  0  0  0  0  2  0  0  0  0  0  0
  184.7820  178.8760  145.3600 C   0  0  0  0  0  3  0  0  0  0  0  0
  186.4640  177.6130  145.8580 C   0  0  0  0  0  0  0  0  0  0  0  0
  186.1730  178.6610  145.1650 N   0  0  0  0  0  0  0  0  0  0  0  0
  192.6490  174.4480  141.2230 C   0  0  0  0  0  2  0  0  0  0  0  0
  194.0510  174.0200  141.6240 C   0  0  0  0  0  2  0  0  0  0  0  0
  194.8670  175.1880  141.9240 N   0  0  0  0  0  0  0  0  0  0  0  0
  195.9780  175.1010  142.8330 C   0  0  0  0  0  0  0  0  0  0  0  0
  194.5940  176.4160  141.1950 C   0  0  0  0  0  1  0  0  0  0  0  0
  196.8160  176.2980  143.1370 C   0  0  0  0  0  1  0  0  0  0  0  0
  196.2600  174.0070  143.3890 O   0  0  0  0  0  0  0  0  0  0  0  0
  2 19  1  0  0  0  0
  5  4  1  0  0  0  0
  5 19  2  0  0  0  0
  6  5  1  0  0  0  0
  7  3  1  1  0  0  0
  7 11  1  0  0  0  0
  7 10  1  0  0  0  0
  8 11  1  0  0  0  0
  9  1  1  6  0  0  0
  9  4  1  0  0  0  0
 10  9  1  0  0  0  0
 11  6  1  0  0  0  0
 11 10  1  0  0  0  0
 12  1  2  0  0  0  0
 13  6  2  0  0  0  0
 13 20  1  0  0  0  0
 14 12  1  0  0  0  0
 15  3  2  0  0  0  0
 16 15  1  0  0  0  0
 16 17  2  0  0  0  0
 17  8  1  0  0  0  0
 18  3  1  0  0  0  0
 18 14  1  0  0  0  0
 20  2  2  0  0  0  0
 21 22  1  0  0  0  0
 23 21  2  0  0  0  0
 24 12  1  0  0  0  0
 24 22  1  0  0  0  0
 25 23  1  0  0  0  0
 25 24  2  0  0  0  0
 26 27  1  0  0  0  0
 26 16  1  0  0  0  0
 27 28  1  0  0  0  0
 28 29  1  0  0  0  0
 29 31  1  0  0  0  0
 29 32  2  0  0  0  0
 30 28  1  0  0  0  0
M  END
>  <MODEL>
4

>  <REMARK>
 VINA RESULT:      -7.7      3.673      7.624
  Name = 
  4 active torsions:
  status: ('A' for Active; 'I' for Inactive)
    1  A    between atoms: N_2  and  C_7
    2  A    between atoms: C_7  and  C_16
    3  A    between atoms: C_16  and  C_24
    4  A    between atoms: C_18  and  C_30
                            x       y       z     vdW  Elec       q    Type
                         _______ _______ _______ _____ _____    ______ ____

>  <TORSDO>
F 4

$$$$
=
 OpenBabel11042416373D

 32 37  0  0  1  0  0  0  0  0999 V2000
  187.0690  177.4330  143.3730 C   0  0  0  0  0  3  0  0  0  0  0  0
  190.3030  172.5420  142.0910 N   0  0  0  0  0  0  0  0  0  0  0  0
  189.9600  176.5270  145.3290 C   0  0  0  0  0  0  0  0  0  0  0  0
  188.1790  175.5090  142.5610 N   0  0  0  0  0  2  0  0  0  0  0  0
  189.3440  174.7060  142.4240 C   0  0  0  0  0  0  0  0  0  0  0  0
  190.6120  175.2350  142.7130 C   0  0  0  0  0  0  0  0  0  0  0  0
  190.0890  177.4870  144.1530 C   0  0  2  0  0  3  0  0  0  0  0  0
  192.2310  177.2030  143.1170 C   0  0  0  0  0  2  0  0  0  0  0  0
  188.2200  176.7940  142.7400 C   0  0  2  0  0  3  0  0  0  0  0  0
  189.5160  177.5570  142.7540 C   0  0  2  0  0  3  0  0  0  0  0  0
  190.7990  176.7360  142.9670 C   0  0  1  0  0  0  0  0  0  0  0  0
  186.7420  177.0970  144.6250 C   0  0  0  0  0  0  0  0  0  0  0  0
  191.7210  174.3750  142.6540 C   0  0  0  0  0  3  0  0  0  0  0  0
  187.5120  176.1100  145.3260 N   0  0  0  0  0  2  0  0  0  0  0  0
  191.0960  176.1410  145.9790 C   0  0  0  0  0  3  0  0  0  0  0  0
  192.5070  176.3930  145.5140 C   0  0  0  0  0  0  0  0  0  0  0  0
  192.6570  176.8410  144.2990 C   0  0  0  0  0  3  0  0  0  0  0  0
  188.6840  176.4500  146.1260 C   0  0  0  0  0  2  0  0  0  0  0  0
  189.2080  173.3470  142.1300 C   0  0  0  0  0  3  0  0  0  0  0  0
  191.5470  173.0260  142.3450 C   0  0  0  0  0  3  0  0  0  0  0  0
  183.7480  178.9930  145.7300 N   0  0  0  0  0  0  0  0  0  0  0  0
  184.6960  178.7350  144.6590 C   0  0  0  0  0  3  0  0  0  0  0  0
  184.0720  178.2530  146.7370 C   0  0  0  0  0  2  0  0  0  0  0  0
  185.5840  177.7200  145.2870 C   0  0  0  0  0  0  0  0  0  0  0  0
  185.2160  177.4450  146.4920 N   0  0  0  0  0  0  0  0  0  0  0  0
  193.6780  175.9310  146.3060 C   0  0  0  0  0  2  0  0  0  0  0  0
  194.9600  176.5050  145.7270 C   0  0  0  0  0  2  0  0  0  0  0  0
  195.7320  175.4570  145.0750 N   0  0  0  0  0  0  0  0  0  0  0  0
  196.3820  175.6910  143.8150 C   0  0  0  0  0  0  0  0  0  0  0  0
  195.9160  174.2030  145.7880 C   0  0  0  0  0  1  0  0  0  0  0  0
  197.1750  174.6170  143.1480 C   0  0  0  0  0  1  0  0  0  0  0  0
  196.2890  176.8130  143.2500 O   0  0  0  0  0  0  0  0  0  0  0  0
  1 12  2  0  0  0  0
  2 19  2  0  0  0  0
  2 20  1  0  0  0  0
  3 15  2  0  0  0  0
  3 18  1  0  0  0  0
  4  9  1  0  0  0  0
  5  4  1  0  0  0  0
  5  6  2  0  0  0  0
  6 11  1  0  0  0  0
  7  3  1  1  0  0  0
  8 17  1  0  0  0  0
  9 10  1  0  0  0  0
  9  1  1  1  0  0  0
 10 11  1  0  0  0  0
 10  7  1  0  0  0  0
 11  8  1  0  0  0  0
 11  7  1  0  0  0  0
 12 24  1  0  0  0  0
 12 14  1  0  0  0  0
 13  6  1  0  0  0  0
 14 18  1  0  0  0  0
 16 15  1  0  0  0  0
 16 26  1  0  0  0  0
 17 16  2  0  0  0  0
 19  5  1  0  0  0  0
 20 13  2  0  0  0  0
 21 23  1  0  0  0  0
 22 24  1  0  0  0  0
 22 21  2  0  0  0  0
 24 25  2  0  0  0  0
 25 23  1  0  0  0  0
 27 26  1  0  0  0  0
 28 27  1  0  0  0  0
 28 30  1  0  0  0  0
 29 28  1  0  0  0  0
 31 29  1  0  0  0  0
 32 29  2  0  0  0  0
M  END
>  <MODEL>
5

>  <REMARK>
 VINA RESULT:      -7.6      3.444      7.887
  Name = 
  4 active torsions:
  status: ('A' for Active; 'I' for Inactive)
    1  A    between atoms: N_2  and  C_7
    2  A    between atoms: C_7  and  C_16
    3  A    between atoms: C_16  and  C_24
    4  A    between atoms: C_18  and  C_30
                            x       y       z     vdW  Elec       q    Type
                         _______ _______ _______ _____ _____    ______ ____

>  <TORSDO>
F 4

$$$$
=
 OpenBabel11042416373D

 32 37  0  0  1  0  0  0  0  0999 V2000
  188.0610  176.1260  146.8730 C   0  0  0  0  0  3  0  0  0  0  0  0
  194.0460  176.4280  146.5250 N   0  0  0  0  0  0  0  0  0  0  0  0
  189.7900  175.6160  143.7490 C   0  0  0  0  0  0  0  0  0  0  0  0
  190.4150  176.2190  147.0830 N   0  0  0  0  0  2  0  0  0  0  0  0
  191.7210  175.8810  146.6350 C   0  0  0  0  0  0  0  0  0  0  0  0
  191.9100  174.8440  145.7080 C   0  0  0  0  0  0  0  0  0  0  0  0
  189.4380  174.4340  144.6430 C   0  0  2  0  0  3  0  0  0  0  0  0
  191.1220  172.7420  144.4350 C   0  0  0  0  0  2  0  0  0  0  0  0
  189.3720  175.4820  146.8480 C   0  0  2  0  0  3  0  0  0  0  0  0
  189.4710  174.1640  146.1320 C   0  0  2  0  0  3  0  0  0  0  0  0
  190.7550  173.9100  145.3250 C   0  0  1  0  0  0  0  0  0  0  0  0
  187.7910  177.0910  145.9870 C   0  0  0  0  0  0  0  0  0  0  0  0
  193.2090  174.6110  145.2250 C   0  0  0  0  0  3  0  0  0  0  0  0
  188.7890  177.4900  145.0350 N   0  0  0  0  0  2  0  0  0  0  0  0
  190.5260  175.3820  142.6240 C   0  0  0  0  0  3  0  0  0  0  0  0
  191.2260  174.0940  142.2810 C   0  0  0  0  0  0  0  0  0  0  0  0
  191.3020  173.1950  143.2210 C   0  0  0  0  0  3  0  0  0  0  0  0
  188.9280  176.8520  143.7310 C   0  0  0  0  0  2  0  0  0  0  0  0
  192.8040  176.6760  147.0200 C   0  0  0  0  0  3  0  0  0  0  0  0
  194.2680  175.4190  145.6430 C   0  0  0  0  0  3  0  0  0  0  0  0
  184.7270  179.1280  145.4970 N   0  0  0  0  0  0  0  0  0  0  0  0
  186.0840  178.8490  145.0570 C   0  0  0  0  0  3  0  0  0  0  0  0
  184.4540  178.3350  146.4800 C   0  0  0  0  0  2  0  0  0  0  0  0
  186.4810  177.7610  145.9910 C   0  0  0  0  0  0  0  0  0  0  0  0
  185.5300  177.4680  146.8120 N   0  0  0  0  0  0  0  0  0  0  0  0
  192.0020  173.9460  141.0200 C   0  0  0  0  0  2  0  0  0  0  0  0
  191.4480  172.7930  140.1990 C   0  0  0  0  0  2  0  0  0  0  0  0
  190.6330  173.3000  139.1040 N   0  0  0  0  0  0  0  0  0  0  0  0
  189.2030  173.3810  139.2210 C   0  0  0  0  0  0  0  0  0  0  0  0
  191.3170  173.8250  137.9320 C   0  0  0  0  0  1  0  0  0  0  0  0
  188.3690  173.9040  138.1000 C   0  0  0  0  0  1  0  0  0  0  0  0
  188.6300  173.0070  140.2780 O   0  0  0  0  0  0  0  0  0  0  0  0
  2 19  1  0  0  0  0
  5 19  2  0  0  0  0
  5  4  1  0  0  0  0
  6  5  1  0  0  0  0
  7  3  1  1  0  0  0
  7 11  1  0  0  0  0
  7 10  1  0  0  0  0
  8 11  1  0  0  0  0
  9  1  1  6  0  0  0
  9  4  1  0  0  0  0
 10  9  1  0  0  0  0
 11  6  1  0  0  0  0
 11 10  1  0  0  0  0
 12 24  1  0  0  0  0
 12  1  2  0  0  0  0
 13 20  1  0  0  0  0
 13  6  2  0  0  0  0
 14 12  1  0  0  0  0
 15  3  2  0  0  0  0
 16 15  1  0  0  0  0
 16 17  2  0  0  0  0
 17  8  1  0  0  0  0
 18  3  1  0  0  0  0
 18 14  1  0  0  0  0
 20  2  2  0  0  0  0
 21 23  1  0  0  0  0
 22 21  2  0  0  0  0
 22 24  1  0  0  0  0
 23 25  1  0  0  0  0
 24 25  2  0  0  0  0
 26 16  1  0  0  0  0
 27 26  1  0  0  0  0
 28 29  1  0  0  0  0
 28 27  1  0  0  0  0
 29 32  2  0  0  0  0
 30 28  1  0  0  0  0
 31 29  1  0  0  0  0
M  END
>  <MODEL>
6

>  <REMARK>
 VINA RESULT:      -7.5      2.673      7.162
  Name = 
  4 active torsions:
  status: ('A' for Active; 'I' for Inactive)
    1  A    between atoms: N_2  and  C_7
    2  A    between atoms: C_7  and  C_16
    3  A    between atoms: C_16  and  C_24
    4  A    between atoms: C_18  and  C_30
                            x       y       z     vdW  Elec       q    Type
                         _______ _______ _______ _____ _____    ______ ____

>  <TORSDO>
F 4

$$$$
=
 OpenBabel11042416373D

 32 37  0  0  1  0  0  0  0  0999 V2000
  187.6170  177.6440  143.9940 C   0  0  0  0  0  3  0  0  0  0  0  0
  190.3490  172.8000  141.7370 N   0  0  0  0  0  0  0  0  0  0  0  0
  190.5660  176.2570  145.5410 C   0  0  0  0  0  0  0  0  0  0  0  0
  188.5070  175.7960  142.8170 N   0  0  0  0  0  2  0  0  0  0  0  0
  189.5920  174.9470  142.4640 C   0  0  0  0  0  0  0  0  0  0  0  0
  190.9150  175.3400  142.7180 C   0  0  0  0  0  0  0  0  0  0  0  0
  190.6820  177.3750  144.5120 C   0  0  2  0  0  3  0  0  0  0  0  0
  192.7110  177.1100  143.2660 C   0  0  0  0  0  2  0  0  0  0  0  0
  188.6640  177.0330  143.1790 C   0  0  2  0  0  3  0  0  0  0  0  0
  190.0140  177.6970  143.1930 C   0  0  2  0  0  3  0  0  0  0  0  0
  191.2390  176.7690  143.1720 C   0  0  1  0  0  0  0  0  0  0  0  0
  187.3590  177.1430  145.2070 C   0  0  0  0  0  0  0  0  0  0  0  0
  191.9460  174.4260  142.4390 C   0  0  0  0  0  3  0  0  0  0  0  0
  188.0990  176.0110  145.6870 N   0  0  0  0  0  2  0  0  0  0  0  0
  191.7130  175.7020  146.0280 C   0  0  0  0  0  3  0  0  0  0  0  0
  193.1000  175.9270  145.4860 C   0  0  0  0  0  0  0  0  0  0  0  0
  193.1940  176.5430  144.3410 C   0  0  0  0  0  3  0  0  0  0  0  0
  189.3500  176.1460  146.4240 C   0  0  0  0  0  2  0  0  0  0  0  0
  189.3270  173.6610  141.9870 C   0  0  0  0  0  3  0  0  0  0  0  0
  191.6420  173.1550  141.9510 C   0  0  0  0  0  3  0  0  0  0  0  0
  184.2970  178.4360  146.8610 N   0  0  0  0  0  0  0  0  0  0  0  0
  184.8580  177.7480  145.7100 C   0  0  0  0  0  3  0  0  0  0  0  0
  185.2670  178.7320  147.6610 C   0  0  0  0  0  2  0  0  0  0  0  0
  186.3070  177.7350  146.0490 C   0  0  0  0  0  0  0  0  0  0  0  0
  186.5360  178.3070  147.1830 N   0  0  0  0  0  0  0  0  0  0  0  0
  194.2870  175.2710  146.0980 C   0  0  0  0  0  2  0  0  0  0  0  0
  195.0670  174.5100  145.0400 C   0  0  0  0  0  2  0  0  0  0  0  0
  195.4430  173.1950  145.5400 N   0  0  0  0  0  0  0  0  0  0  0  0
  194.5510  172.0750  145.4210 C   0  0  0  0  0  0  0  0  0  0  0  0
  196.7890  173.0250  146.0630 C   0  0  0  0  0  1  0  0  0  0  0  0
  194.9380  170.7270  145.9310 C   0  0  0  0  0  1  0  0  0  0  0  0
  193.4220  172.2160  144.8820 O   0  0  0  0  0  0  0  0  0  0  0  0
  1 12  2  0  0  0  0
  2 20  2  0  0  0  0
  2 19  1  0  0  0  0
  3 15  2  0  0  0  0
  3 18  1  0  0  0  0
  4  9  1  0  0  0  0
  5  6  1  0  0  0  0
  5  4  1  0  0  0  0
  6 11  1  0  0  0  0
  7  3  1  1  0  0  0
  8 17  1  0  0  0  0
  9 10  1  0  0  0  0
  9  1  1  1  0  0  0
 10  7  1  0  0  0  0
 11 10  1  0  0  0  0
 11  8  1  0  0  0  0
 11  7  1  0  0  0  0
 12 14  1  0  0  0  0
 12 24  1  0  0  0  0
 13  6  2  0  0  0  0
 14 18  1  0  0  0  0
 16 15  1  0  0  0  0
 16 26  1  0  0  0  0
 17 16  2  0  0  0  0
 19  5  2  0  0  0  0
 20 13  1  0  0  0  0
 21 23  1  0  0  0  0
 22 24  1  0  0  0  0
 22 21  2  0  0  0  0
 24 25  2  0  0  0  0
 25 23  1  0  0  0  0
 27 28  1  0  0  0  0
 27 26  1  0  0  0  0
 28 30  1  0  0  0  0
 29 28  1  0  0  0  0
 29 31  1  0  0  0  0
 32 29  2  0  0  0  0
M  END
>  <MODEL>
7

>  <REMARK>
 VINA RESULT:      -7.4      3.229      7.974
  Name = 
  4 active torsions:
  status: ('A' for Active; 'I' for Inactive)
    1  A    between atoms: N_2  and  C_7
    2  A    between atoms: C_7  and  C_16
    3  A    between atoms: C_16  and  C_24
    4  A    between atoms: C_18  and  C_30
                            x       y       z     vdW  Elec       q    Type
                         _______ _______ _______ _____ _____    ______ ____

>  <TORSDO>
F 4

$$$$
=
 OpenBabel11042416373D

 32 37  0  0  1  0  0  0  0  0999 V2000
  193.8870  173.7040  143.1820 C   0  0  0  0  0  3  0  0  0  0  0  0
  188.3700  174.7590  141.0650 N   0  0  0  0  0  0  0  0  0  0  0  0
  191.7000  176.1060  144.7500 C   0  0  0  0  0  0  0  0  0  0  0  0
  191.7530  173.8240  142.1690 N   0  0  0  0  0  2  0  0  0  0  0  0
  190.3640  174.1200  142.2200 C   0  0  0  0  0  0  0  0  0  0  0  0
  189.7150  174.2860  143.4540 C   0  0  0  0  0  0  0  0  0  0  0  0
  191.7410  174.6620  145.2340 C   0  0  2  0  0  3  0  0  0  0  0  0
  189.5700  174.0160  146.0160 C   0  0  0  0  0  2  0  0  0  0  0  0
  192.4440  173.4810  143.2140 C   0  0  2  0  0  3  0  0  0  0  0  0
  191.8110  173.3050  144.5670 C   0  0  2  0  0  3  0  0  0  0  0  0
  190.4240  173.9380  144.7680 C   0  0  1  0  0  0  0  0  0  0  0  0
  194.3530  174.9530  143.0720 C   0  0  0  0  0  0  0  0  0  0  0  0
  188.3640  174.6710  143.4490 C   0  0  0  0  0  3  0  0  0  0  0  0
  193.4360  176.0530  142.9750 N   0  0  0  0  0  2  0  0  0  0  0  0
  190.7900  176.9530  145.3120 C   0  0  0  0  0  3  0  0  0  0  0  0
  189.6550  176.5520  146.2170 C   0  0  0  0  0  0  0  0  0  0  0  0
  189.4000  175.2780  146.3160 C   0  0  0  0  0  3  0  0  0  0  0  0
  192.9210  176.7520  144.1470 C   0  0  0  0  0  2  0  0  0  0  0  0
  189.6750  174.3790  141.0320 C   0  0  0  0  0  3  0  0  0  0  0  0
  187.7070  174.9080  142.2410 C   0  0  0  0  0  3  0  0  0  0  0  0
  197.8430  176.2170  143.0950 N   0  0  0  0  0  0  0  0  0  0  0  0
  196.4330  176.5400  143.2340 C   0  0  0  0  0  2  0  0  0  0  0  0
  197.9410  174.9500  142.8630 C   0  0  0  0  0  3  0  0  0  0  0  0
  195.8020  175.2080  143.0320 C   0  0  0  0  0  0  0  0  0  0  0  0
  196.6830  174.2910  142.8180 N   0  0  0  0  0  0  0  0  0  0  0  0
  188.7190  177.5630  146.7800 C   0  0  0  0  0  2  0  0  0  0  0  0
  187.3120  176.9930  146.8440 C   0  0  0  0  0  2  0  0  0  0  0  0
  186.4350  177.7130  145.9320 N   0  0  0  0  0  0  0  0  0  0  0  0
  185.2180  178.3190  146.3980 C   0  0  0  0  0  0  0  0  0  0  0  0
  186.8810  177.8950  144.5600 C   0  0  0  0  0  1  0  0  0  0  0  0
  184.3220  179.0600  145.4630 C   0  0  0  0  0  1  0  0  0  0  0  0
  184.8880  178.2310  147.6110 O   0  0  0  0  0  0  0  0  0  0  0  0
  2 20  1  0  0  0  0
  3 15  2  0  0  0  0
  4  5  1  0  0  0  0
  4  9  1  0  0  0  0
  5  6  2  0  0  0  0
  6 11  1  0  0  0  0
  7  3  1  6  0  0  0
  8 17  1  0  0  0  0
  9  1  1  1  0  0  0
  9 10  1  0  0  0  0
 10 11  1  0  0  0  0
 10  7  1  0  0  0  0
 11  7  1  0  0  0  0
 11  8  1  0  0  0  0
 12  1  2  0  0  0  0
 13  6  1  0  0  0  0
 14 12  1  0  0  0  0
 14 18  1  0  0  0  0
 15 16  1  0  0  0  0
 16 17  2  0  0  0  0
 16 26  1  0  0  0  0
 18  3  1  0  0  0  0
 19  2  2  0  0  0  0
 19  5  1  0  0  0  0
 20 13  2  0  0  0  0
 21 22  1  0  0  0  0
 23 21  2  0  0  0  0
 24 12  1  0  0  0  0
 24 22  1  0  0  0  0
 25 23  1  0  0  0  0
 25 24  2  0  0  0  0
 26 27  1  0  0  0  0
 28 29  1  0  0  0  0
 28 27  1  0  0  0  0
 29 32  2  0  0  0  0
 30 28  1  0  0  0  0
 31 29  1  0  0  0  0
M  END
>  <MODEL>
8

>  <REMARK>
 VINA RESULT:      -7.3      3.111      5.073
  Name = 
  4 active torsions:
  status: ('A' for Active; 'I' for Inactive)
    1  A    between atoms: N_2  and  C_7
    2  A    between atoms: C_7  and  C_16
    3  A    between atoms: C_16  and  C_24
    4  A    between atoms: C_18  and  C_30
                            x       y       z     vdW  Elec       q    Type
                         _______ _______ _______ _____ _____    ______ ____

>  <TORSDO>
F 4

$$$$
=
 OpenBabel11042416373D

 32 37  0  0  1  0  0  0  0  0999 V2000
  193.8100  174.8440  145.4240 C   0  0  0  0  0  3  0  0  0  0  0  0
  188.2470  175.2620  147.6360 N   0  0  0  0  0  0  0  0  0  0  0  0
  190.9460  175.1610  143.2560 C   0  0  0  0  0  0  0  0  0  0  0  0
  191.7720  175.0780  146.6000 N   0  0  0  0  0  2  0  0  0  0  0  0
  190.4230  175.5190  146.6810 C   0  0  0  0  0  0  0  0  0  0  0  0
  189.9190  176.4440  145.7530 C   0  0  0  0  0  0  0  0  0  0  0  0
  191.7170  176.3950  143.7080 C   0  0  2  0  0  3  0  0  0  0  0  0
  190.2110  178.2450  143.9290 C   0  0  0  0  0  2  0  0  0  0  0  0
  192.6570  175.6400  145.8330 C   0  0  2  0  0  3  0  0  0  0  0  0
  192.3410  176.8570  145.0080 C   0  0  2  0  0  3  0  0  0  0  0  0
  190.8530  177.1650  144.7730 C   0  0  1  0  0  0  0  0  0  0  0  0
  193.6170  173.7460  144.6840 C   0  0  0  0  0  0  0  0  0  0  0  0
  188.5550  176.7750  145.8180 C   0  0  0  0  0  3  0  0  0  0  0  0
  192.2860  173.3580  144.3140 N   0  0  0  0  0  2  0  0  0  0  0  0
  189.8150  175.3390  142.5140 C   0  0  0  0  0  3  0  0  0  0  0  0
  189.1140  176.6510  142.2760 C   0  0  0  0  0  0  0  0  0  0  0  0
  189.5020  177.6660  142.9950 C   0  0  0  0  0  3  0  0  0  0  0  0
  191.6400  173.8340  143.0960 C   0  0  0  0  0  2  0  0  0  0  0  0
  189.5630  174.9250  147.6080 C   0  0  0  0  0  3  0  0  0  0  0  0
  187.7300  176.1690  146.7660 C   0  0  0  0  0  3  0  0  0  0  0  0
  196.8630  172.1780  143.7970 N   0  0  0  0  0  0  0  0  0  0  0  0
  196.1830  173.3510  144.3210 C   0  0  0  0  0  2  0  0  0  0  0  0
  195.9680  171.2910  143.5130 C   0  0  0  0  0  3  0  0  0  0  0  0
  194.7600  172.9210  144.2610 C   0  0  0  0  0  0  0  0  0  0  0  0
  194.6430  171.7250  143.7920 N   0  0  0  0  0  0  0  0  0  0  0  0
  187.8840  176.7330  141.4430 C   0  0  0  0  0  2  0  0  0  0  0  0
  187.4070  178.1730  141.3550 C   0  0  0  0  0  2  0  0  0  0  0  0
  185.9840  178.2510  141.6540 N   0  0  0  0  0  0  0  0  0  0  0  0
  185.5210  178.5700  142.9770 C   0  0  0  0  0  0  0  0  0  0  0  0
  185.0480  178.1060  140.5500 C   0  0  0  0  0  1  0  0  0  0  0  0
  184.0630  178.6530  143.2810 C   0  0  0  0  0  1  0  0  0  0  0  0
  186.3460  178.7830  143.9040 O   0  0  0  0  0  0  0  0  0  0  0  0
  4  5  1  0  0  0  0
  5 19  2  0  0  0  0
  6 13  2  0  0  0  0
  6  5  1  0  0  0  0
  7  3  1  1  0  0  0
  7 11  1  0  0  0  0
  7 10  1  0  0  0  0
  8 11  1  0  0  0  0
  9  1  1  6  0  0  0
  9  4  1  0  0  0  0
 10  9  1  0  0  0  0
 11 10  1  0  0  0  0
 11  6  1  0  0  0  0
 12  1  2  0  0  0  0
 13 20  1  0  0  0  0
 14 12  1  0  0  0  0
 15  3  2  0  0  0  0
 16 15  1  0  0  0  0
 16 17  2  0  0  0  0
 17  8  1  0  0  0  0
 18  3  1  0  0  0  0
 18 14  1  0  0  0  0
 19  2  1  0  0  0  0
 20  2  2  0  0  0  0
 21 22  1  0  0  0  0
 23 25  1  0  0  0  0
 23 21  2  0  0  0  0
 24 22  1  0  0  0  0
 24 12  1  0  0  0  0
 25 24  2  0  0  0  0
 26 16  1  0  0  0  0
 27 26  1  0  0  0  0
 27 28  1  0  0  0  0
 28 29  1  0  0  0  0
 29 31  1  0  0  0  0
 29 32  2  0  0  0  0
 30 28  1  0  0  0  0
M  END
>  <MODEL>
9

>  <REMARK>
 VINA RESULT:      -7.2      2.669      3.698
  Name = 
  4 active torsions:
  status: ('A' for Active; 'I' for Inactive)
    1  A    between atoms: N_2  and  C_7
    2  A    between atoms: C_7  and  C_16
    3  A    between atoms: C_16  and  C_24
    4  A    between atoms: C_18  and  C_30
                            x       y       z     vdW  Elec       q    Type
                         _______ _______ _______ _____ _____    ______ ____

>  <TORSDO>
F 4

$$$$
