=
 OpenBabel11042415583D

 52 57  0  0  1  0  0  0  0  0999 V2000
  187.6990  175.7120  143.1650 C   0  0  2  0  0  3  0  0  0  0  0  0
  187.0060  177.4270  141.0420 S   0  0  0  0  0  0  0  0  0  0  0  0
  185.5160  177.0760  143.0130 C   0  0  0  0  0  3  0  0  0  0  0  0
  186.7460  176.6740  142.5170 C   0  0  0  0  0  0  0  0  0  0  0  0
  185.5610  178.2890  140.9860 C   0  0  0  0  0  3  0  0  0  0  0  0
  184.8670  177.9690  142.1520 C   0  0  0  0  0  0  0  0  0  0  0  0
  183.5430  178.5640  142.4760 C   0  0  0  0  0  2  0  0  0  0  0  0
  182.5060  177.9100  141.6950 N   0  0  0  0  0  2  0  0  0  0  0  0
  181.9860  178.8750  140.8220 N   0  0  0  0  0  2  0  0  0  0  0  0
  178.9510  181.6960  140.1070 N   0  0  0  0  0  1  0  0  0  0  0  0
  179.6500  179.4450  140.2740 C   0  0  0  0  0  0  0  0  0  0  0  0
  180.6770  178.4820  140.5120 N   0  0  0  0  0  2  0  0  0  0  0  0
  179.9260  180.7130  140.3200 N   0  0  0  0  0  0  0  0  0  0  0  0
  178.2580  178.9620  140.0070 C   0  0  0  0  0  2  0  0  0  0  0  0
  177.8640  179.1350  142.4430 C   0  0  0  0  0  2  0  0  0  0  0  0
  177.6910  178.2610  141.2330 C   0  0  2  0  0  3  0  0  0  0  0  0
  178.3270  178.1530  143.4690 C   0  0  0  0  0  2  0  0  0  0  0  0
  178.3860  177.0670  141.4760 O   0  0  0  0  0  0  0  0  0  0  0  0
  178.2880  176.8510  142.8190 N   0  0  0  0  0  2  0  0  0  0  0  0
  189.4300  176.1150  146.6050 C   0  0  0  0  0  2  0  0  0  0  0  0
  187.8660  176.5590  145.8030 S   0  0  0  0  0  0  0  0  0  0  0  0
  188.6480  176.3900  144.1640 C   0  0  1  0  0  3  0  0  0  0  0  0
  190.4950  176.0910  145.5270 C   0  0  2  0  0  3  0  0  0  0  0  0
  189.8680  175.6100  144.3070 N   0  0  0  0  0  2  0  0  0  0  0  0
  194.5750  177.5520  146.0820 O   0  0  0  0  0  1  0  0  0  0  0  0
  192.1860  174.3590  144.7410 C   0  0  0  0  0  2  0  0  0  0  0  0
  194.0440  175.9950  144.3570 C   0  0  0  0  0  2  0  0  0  0  0  0
  192.8230  175.9970  146.5420 C   0  0  0  0  0  2  0  0  0  0  0  0
  191.6710  175.1910  145.9260 C   0  0  1  0  0  3  0  0  0  0  0  0
  193.5160  176.8650  145.4910 C   0  0  1  0  0  3  0  0  0  0  0  0
  192.8930  175.2350  143.7050 C   0  0  0  0  0  2  0  0  0  0  0  0
  188.3710  174.9160  142.2130 O   0  0  0  0  0  0  0  0  0  0  0  0
  187.7420  173.7540  142.1620 O   0  0  0  0  0  0  0  0  0  0  0  0
  191.5790  172.2730  141.4970 C   0  0  2  0  0  3  0  0  0  0  0  0
  188.6720  172.8660  141.6160 C   0  0  1  0  0  3  0  0  0  0  0  0
  189.6450  173.6440  140.7250 C   0  0  0  0  0  2  0  0  0  0  0  0
  190.6820  171.4070  142.3770 C   0  0  0  0  0  2  0  0  0  0  0  0
  189.4180  172.1390  142.7110 C   0  0  0  0  0  0  0  0  0  0  0  0
  188.9480  172.0490  143.8360 O   0  0  0  0  0  0  0  0  0  0  0  0
  190.8080  172.7610  140.2730 C   0  0  0  0  0  2  0  0  0  0  0  0
  192.6910  171.5310  141.0920 O   0  0  0  0  0  0  0  0  0  0  0  0
  193.6300  172.4260  140.8530 O   0  0  0  0  0  0  0  0  0  0  0  0
  194.9840  171.9030  141.7350 P   0  0  1  0  0  0  0  0  0  0  0  0
  195.5590  173.1860  142.7860 N   0  0  0  0  0  2  0  0  0  0  0  0
  194.1110  171.1000  144.1560 C   0  0  0  0  0  2  0  0  0  0  0  0
  194.5200  170.5190  142.8100 C   0  0  0  0  0  2  0  0  0  0  0  0
  196.2450  172.5470  143.9080 C   0  0  2  0  0  3  0  0  0  0  0  0
  195.2670  171.8300  144.8610 C   0  0  0  0  0  2  0  0  0  0  0  0
  196.0810  171.4700  140.7890 O   0  0  0  0  0  0  0  0  0  0  0  0
  197.3950  174.7650  143.8250 C   0  0  0  0  0  1  0  0  0  0  0  0
  197.1180  173.5400  144.6730 C   0  0  0  0  0  3  0  0  0  0  0  0
  196.4910  173.9580  145.9930 C   0  0  0  0  0  1  0  0  0  0  0  0
  1 32  1  6  0  0  0
  2  4  1  0  0  0  0
  4  3  2  0  0  0  0
  4  1  1  0  0  0  0
  5  2  1  0  0  0  0
  5  6  2  0  0  0  0
  6  7  1  0  0  0  0
  6  3  1  0  0  0  0
  8  7  1  0  0  0  0
  9  8  1  0  0  0  0
 10 13  1  0  0  0  0
 11 13  2  0  0  0  0
 11 12  1  0  0  0  0
 12  9  1  0  0  0  0
 14 11  1  0  0  0  0
 15 17  1  0  0  0  0
 16 14  1  6  0  0  0
 16 18  1  0  0  0  0
 16 15  1  0  0  0  0
 18 19  1  0  0  0  0
 19 17  1  0  0  0  0
 21 20  1  0  0  0  0
 22  1  1  6  0  0  0
 22 24  1  0  0  0  0
 22 21  1  0  0  0  0
 23 29  1  0  0  0  0
 23 20  1  1  0  0  0
 24 23  1  0  0  0  0
 27 30  1  0  0  0  0
 29 26  1  6  0  0  0
 29 28  1  0  0  0  0
 30 25  1  1  0  0  0
 30 28  1  0  0  0  0
 31 27  1  0  0  0  0
 31 26  1  0  0  0  0
 33 32  1  0  0  0  0
 34 41  1  6  0  0  0
 34 37  1  0  0  0  0
 35 33  1  1  0  0  0
 35 38  1  0  0  0  0
 36 35  1  0  0  0  0
 37 38  1  0  0  0  0
 38 39  2  0  0  0  0
 40 36  1  0  0  0  0
 40 34  1  0  0  0  0
 42 41  1  0  0  0  0
 42 43  1  0  0  0  0
 43 49  2  6  0  0  0
 43 44  1  0  0  0  0
 43 46  1  0  0  0  0
 44 47  1  0  0  0  0
 45 48  1  0  0  0  0
 46 45  1  0  0  0  0
 47 51  1  1  0  0  0
 47 48  1  0  0  0  0
 50 51  1  0  0  0  0
 51 52  1  0  0  0  0
M  END
>  <MODEL>
1

>  <REMARK>
 VINA RESULT:      -7.3      0.000      0.000
  Name = 
  16 active torsions:
  status: ('A' for Active; 'I' for Inactive)
    1  A    between atoms: O_1  and  O_26
    2  A    between atoms: O_1  and  C_41
    3  A    between atoms: C_3  and  N_8
    4  A    between atoms: C_3  and  C_49
    5  A    between atoms: C_4  and  O_37
    6  A    between atoms: C_6  and  C_22
    7  A    between atoms: C_6  and  C_28
    8  A    between atoms: N_8  and  N_14
    9  A    between atoms: P_13  and  O_21
   10  A    between atoms: N_14  and  N_36
   11  A    between atoms: C_16  and  O_26
   12  A    between atoms: C_18  and  C_41
   13  A    between atoms: O_21  and  O_37
   14  A    between atoms: C_24  and  C_41
   15  A    between atoms: C_25  and  C_40
   16  A    between atoms: C_29  and  C_45
                            x       y       z     vdW  Elec       q    Type
                         _______ _______ _______ _____ _____    ______ ____

>  <TORSDO>
F 16

$$$$
=
 OpenBabel11042415583D

 52 57  0  0  1  0  0  0  0  0999 V2000
  188.4260  174.5430  141.7840 C   0  0  2  0  0  3  0  0  0  0  0  0
  187.3840  177.0440  141.0160 S   0  0  0  0  0  0  0  0  0  0  0  0
  186.8940  176.0200  143.2400 C   0  0  0  0  0  3  0  0  0  0  0  0
  187.6040  175.7640  142.0760 C   0  0  0  0  0  0  0  0  0  0  0  0
  186.3780  177.9660  142.0020 C   0  0  0  0  0  3  0  0  0  0  0  0
  186.2150  177.2440  143.1830 C   0  0  0  0  0  0  0  0  0  0  0  0
  185.4040  177.7540  144.3200 C   0  0  0  0  0  2  0  0  0  0  0  0
  185.3800  176.7670  145.3880 N   0  0  0  0  0  2  0  0  0  0  0  0
  185.8220  177.4140  146.5500 N   0  0  0  0  0  2  0  0  0  0  0  0
  188.9600  174.7570  147.4300 N   0  0  0  0  0  1  0  0  0  0  0  0
  188.2230  176.8600  146.6400 C   0  0  0  0  0  0  0  0  0  0  0  0
  187.1610  177.7650  146.3360 N   0  0  0  0  0  2  0  0  0  0  0  0
  187.9540  175.6760  147.1040 N   0  0  0  0  0  0  0  0  0  0  0  0
  189.6360  177.3160  146.4470 C   0  0  0  0  0  2  0  0  0  0  0  0
  191.5740  176.6040  145.0830 C   0  0  0  0  0  2  0  0  0  0  0  0
  190.1190  176.9810  145.0440 C   0  0  2  0  0  3  0  0  0  0  0  0
  192.1120  177.3330  143.8960 C   0  0  0  0  0  2  0  0  0  0  0  0
  189.9990  178.1000  144.2080 O   0  0  0  0  0  0  0  0  0  0  0  0
  190.9620  177.9530  143.2540 N   0  0  0  0  0  2  0  0  0  0  0  0
  191.5790  172.8440  143.2570 C   0  0  0  0  0  2  0  0  0  0  0  0
  189.8470  173.1360  143.7090 S   0  0  0  0  0  0  0  0  0  0  0  0
  189.7660  174.5290  142.5350 C   0  0  1  0  0  3  0  0  0  0  0  0
  192.0160  174.0060  142.3870 C   0  0  2  0  0  3  0  0  0  0  0  0
  190.8690  174.4100  141.5920 N   0  0  0  0  0  2  0  0  0  0  0  0
  196.1680  173.8860  143.7450 O   0  0  0  0  0  1  0  0  0  0  0  0
  193.5910  174.7540  140.5340 C   0  0  0  0  0  2  0  0  0  0  0  0
  195.4610  175.4200  142.0620 C   0  0  0  0  0  2  0  0  0  0  0  0
  194.4110  173.1600  142.3000 C   0  0  0  0  0  2  0  0  0  0  0  0
  193.1930  173.6150  141.4850 C   0  0  1  0  0  3  0  0  0  0  0  0
  195.0470  174.3340  143.0470 C   0  0  1  0  0  3  0  0  0  0  0  0
  194.2430  175.9140  141.2890 C   0  0  0  0  0  2  0  0  0  0  0  0
  188.5640  174.3220  140.3970 O   0  0  0  0  0  0  0  0  0  0  0  0
  188.0880  173.1150  140.1450 O   0  0  0  0  0  0  0  0  0  0  0  0
  191.5090  172.7710  137.7930 C   0  0  2  0  0  3  0  0  0  0  0  0
  188.8190  172.6630  139.0430 C   0  0  1  0  0  3  0  0  0  0  0  0
  189.3180  173.8710  138.2440 C   0  0  0  0  0  2  0  0  0  0  0  0
  191.0840  171.5010  138.5260 C   0  0  0  0  0  2  0  0  0  0  0  0
  189.9780  171.8040  139.4910 C   0  0  0  0  0  0  0  0  0  0  0  0
  189.9720  171.2670  140.5890 O   0  0  0  0  0  0  0  0  0  0  0  0
  190.2980  173.4440  137.1520 C   0  0  0  0  0  2  0  0  0  0  0  0
  192.4480  172.4490  136.8100 O   0  0  0  0  0  0  0  0  0  0  0  0
  193.1630  173.5450  136.6480 O   0  0  0  0  0  0  0  0  0  0  0  0
  194.7840  173.0390  136.7060 P   0  0  1  0  0  0  0  0  0  0  0  0
  195.6580  173.9390  137.9350 N   0  0  0  0  0  2  0  0  0  0  0  0
  194.9960  171.2370  138.7010 C   0  0  0  0  0  2  0  0  0  0  0  0
  194.8640  171.2920  137.1850 C   0  0  0  0  0  2  0  0  0  0  0  0
  196.7690  173.0960  138.3740 C   0  0  2  0  0  3  0  0  0  0  0  0
  196.2950  171.8870  139.2070 C   0  0  0  0  0  2  0  0  0  0  0  0
  195.4330  173.2300  135.3550 O   0  0  0  0  0  0  0  0  0  0  0  0
  197.5010  175.3820  139.0730 C   0  0  0  0  0  1  0  0  0  0  0  0
  197.8190  173.9020  139.1370 C   0  0  0  0  0  3  0  0  0  0  0  0
  197.9380  173.4620  140.5870 C   0  0  0  0  0  1  0  0  0  0  0  0
  1 32  1  6  0  0  0
  1  4  1  0  0  0  0
  2  5  1  0  0  0  0
  2  4  1  0  0  0  0
  4  3  2  0  0  0  0
  5  6  2  0  0  0  0
  6  3  1  0  0  0  0
  6  7  1  0  0  0  0
  7  8  1  0  0  0  0
  8  9  1  0  0  0  0
 11 13  2  0  0  0  0
 12  9  1  0  0  0  0
 12 11  1  0  0  0  0
 13 10  1  0  0  0  0
 14 11  1  0  0  0  0
 16 15  1  0  0  0  0
 16 14  1  1  0  0  0
 17 15  1  0  0  0  0
 18 16  1  0  0  0  0
 19 17  1  0  0  0  0
 19 18  1  0  0  0  0
 20 21  1  0  0  0  0
 22  1  1  6  0  0  0
 22 21  1  0  0  0  0
 23 20  1  6  0  0  0
 24 23  1  0  0  0  0
 24 22  1  0  0  0  0
 26 31  1  0  0  0  0
 27 30  1  0  0  0  0
 28 30  1  0  0  0  0
 29 26  1  1  0  0  0
 29 28  1  0  0  0  0
 29 23  1  0  0  0  0
 30 25  1  6  0  0  0
 31 27  1  0  0  0  0
 33 32  1  0  0  0  0
 34 41  1  6  0  0  0
 34 37  1  0  0  0  0
 35 38  1  0  0  0  0
 35 33  1  1  0  0  0
 36 35  1  0  0  0  0
 37 38  1  0  0  0  0
 38 39  2  0  0  0  0
 40 34  1  0  0  0  0
 40 36  1  0  0  0  0
 42 43  1  0  0  0  0
 42 41  1  0  0  0  0
 43 49  2  6  0  0  0
 43 46  1  0  0  0  0
 43 44  1  0  0  0  0
 44 47  1  0  0  0  0
 45 48  1  0  0  0  0
 46 45  1  0  0  0  0
 47 51  1  1  0  0  0
 47 48  1  0  0  0  0
 50 51  1  0  0  0  0
 51 52  1  0  0  0  0
M  END
>  <MODEL>
2

>  <REMARK>
 VINA RESULT:      -7.3      4.436      6.644
  Name = 
  16 active torsions:
  status: ('A' for Active; 'I' for Inactive)
    1  A    between atoms: O_1  and  O_26
    2  A    between atoms: O_1  and  C_41
    3  A    between atoms: C_3  and  N_8
    4  A    between atoms: C_3  and  C_49
    5  A    between atoms: C_4  and  O_37
    6  A    between atoms: C_6  and  C_22
    7  A    between atoms: C_6  and  C_28
    8  A    between atoms: N_8  and  N_14
    9  A    between atoms: P_13  and  O_21
   10  A    between atoms: N_14  and  N_36
   11  A    between atoms: C_16  and  O_26
   12  A    between atoms: C_18  and  C_41
   13  A    between atoms: O_21  and  O_37
   14  A    between atoms: C_24  and  C_41
   15  A    between atoms: C_25  and  C_40
   16  A    between atoms: C_29  and  C_45
                            x       y       z     vdW  Elec       q    Type
                         _______ _______ _______ _____ _____    ______ ____

>  <TORSDO>
F 16

$$$$
=
 OpenBabel11042415583D

 52 57  0  0  1  0  0  0  0  0999 V2000
  191.1950  173.9240  145.1190 C   0  0  2  0  0  3  0  0  0  0  0  0
  191.7060  176.0500  146.8940 S   0  0  0  0  0  0  0  0  0  0  0  0
  189.4320  175.6040  145.9660 C   0  0  0  0  0  3  0  0  0  0  0  0
  190.7240  175.1040  145.9180 C   0  0  0  0  0  0  0  0  0  0  0  0
  190.5200  177.1270  147.4100 C   0  0  0  0  0  3  0  0  0  0  0  0
  189.3330  176.7300  146.7950 C   0  0  0  0  0  0  0  0  0  0  0  0
  188.0430  177.4300  147.0300 C   0  0  0  0  0  2  0  0  0  0  0  0
  186.9670  176.4580  147.1350 N   0  0  0  0  0  2  0  0  0  0  0  0
  185.7720  177.1470  146.8940 N   0  0  0  0  0  2  0  0  0  0  0  0
  185.5840  180.2300  144.0420 N   0  0  0  0  0  1  0  0  0  0  0  0
  185.3500  177.9450  144.6000 C   0  0  0  0  0  0  0  0  0  0  0  0
  185.4150  176.8940  145.5640 N   0  0  0  0  0  2  0  0  0  0  0  0
  185.6460  179.1620  144.9460 N   0  0  0  0  0  0  0  0  0  0  0  0
  184.9030  177.6210  143.2080 C   0  0  0  0  0  2  0  0  0  0  0  0
  187.2100  176.7320  143.2830 C   0  0  0  0  0  2  0  0  0  0  0  0
  186.0690  177.1050  142.3790 C   0  0  2  0  0  3  0  0  0  0  0  0
  188.3820  177.2980  142.5500 C   0  0  0  0  0  2  0  0  0  0  0  0
  186.5320  178.1070  141.5140 O   0  0  0  0  0  0  0  0  0  0  0  0
  187.8510  177.8350  141.3050 N   0  0  0  0  0  2  0  0  0  0  0  0
  194.5060  172.6030  143.6060 C   0  0  0  0  0  2  0  0  0  0  0  0
  193.6460  172.6240  145.2020 S   0  0  0  0  0  0  0  0  0  0  0  0
  192.6550  174.0550  144.6600 C   0  0  1  0  0  3  0  0  0  0  0  0
  194.1020  173.8610  142.8640 C   0  0  2  0  0  3  0  0  0  0  0  0
  192.7190  174.1450  143.2090 N   0  0  0  0  0  2  0  0  0  0  0  0
  197.9380  174.1370  140.7890 O   0  0  0  0  0  1  0  0  0  0  0  0
  193.8130  174.9420  140.5790 C   0  0  0  0  0  2  0  0  0  0  0  0
  196.1900  175.7040  140.3710 C   0  0  0  0  0  2  0  0  0  0  0  0
  195.7000  173.3220  140.9630 C   0  0  0  0  0  2  0  0  0  0  0  0
  194.2610  173.6900  141.3480 C   0  0  1  0  0  3  0  0  0  0  0  0
  196.6510  174.5000  141.1830 C   0  0  1  0  0  3  0  0  0  0  0  0
  194.7810  176.1080  140.7910 C   0  0  0  0  0  2  0  0  0  0  0  0
  190.3080  173.6140  144.0670 O   0  0  0  0  0  0  0  0  0  0  0  0
  189.9330  172.3570  144.2310 O   0  0  0  0  0  0  0  0  0  0  0  0
  189.5310  172.5550  140.0880 C   0  0  2  0  0  3  0  0  0  0  0  0
  189.3940  171.9790  142.9980 C   0  0  1  0  0  3  0  0  0  0  0  0
  188.7130  173.1910  142.3560 C   0  0  0  0  0  2  0  0  0  0  0  0
  190.2000  171.2930  140.6250 C   0  0  0  0  0  2  0  0  0  0  0  0
  190.4730  171.4330  142.0920 C   0  0  0  0  0  0  0  0  0  0  0  0
  191.5210  171.0040  142.5540 O   0  0  0  0  0  0  0  0  0  0  0  0
  188.2940  172.8930  140.9170 C   0  0  0  0  0  2  0  0  0  0  0  0
  189.1690  172.3590  138.7540 O   0  0  0  0  0  0  0  0  0  0  0  0
  190.2440  171.8590  138.1770 O   0  0  0  0  0  0  0  0  0  0  0  0
  190.4500  172.7580  136.7510 P   0  0  1  0  0  0  0  0  0  0  0  0
  191.7690  173.9020  136.9380 N   0  0  0  0  0  2  0  0  0  0  0  0
  192.4300  171.5920  135.3400 C   0  0  0  0  0  2  0  0  0  0  0  0
  190.9100  171.6530  135.3890 C   0  0  0  0  0  2  0  0  0  0  0  0
  192.3010  174.1650  135.6020 C   0  0  2  0  0  3  0  0  0  0  0  0
  193.0670  172.9560  135.0260 C   0  0  0  0  0  2  0  0  0  0  0  0
  189.1700  173.4860  136.4100 O   0  0  0  0  0  0  0  0  0  0  0  0
  193.7180  175.7100  136.9640 C   0  0  0  0  0  1  0  0  0  0  0  0
  193.1730  175.4200  135.5800 C   0  0  0  0  0  3  0  0  0  0  0  0
  194.3180  175.3060  134.5880 C   0  0  0  0  0  1  0  0  0  0  0  0
  1 32  1  6  0  0  0
  1  4  1  0  0  0  0
  2  5  1  0  0  0  0
  3  6  1  0  0  0  0
  4  3  2  0  0  0  0
  4  2  1  0  0  0  0
  6  7  1  0  0  0  0
  6  5  2  0  0  0  0
  7  8  1  0  0  0  0
  9  8  1  0  0  0  0
 10 13  1  0  0  0  0
 11 13  2  0  0  0  0
 11 12  1  0  0  0  0
 12  9  1  0  0  0  0
 14 11  1  0  0  0  0
 16 14  1  1  0  0  0
 16 15  1  0  0  0  0
 17 15  1  0  0  0  0
 18 16  1  0  0  0  0
 19 18  1  0  0  0  0
 19 17  1  0  0  0  0
 20 21  1  0  0  0  0
 22  1  1  6  0  0  0
 22 21  1  0  0  0  0
 23 24  1  0  0  0  0
 23 20  1  1  0  0  0
 24 22  1  0  0  0  0
 26 31  1  0  0  0  0
 27 31  1  0  0  0  0
 27 30  1  0  0  0  0
 28 30  1  0  0  0  0
 28 29  1  0  0  0  0
 29 26  1  6  0  0  0
 29 23  1  0  0  0  0
 30 25  1  6  0  0  0
 32 33  1  0  0  0  0
 34 41  1  6  0  0  0
 34 37  1  0  0  0  0
 34 40  1  0  0  0  0
 35 33  1  1  0  0  0
 36 35  1  0  0  0  0
 37 38  1  0  0  0  0
 38 39  2  0  0  0  0
 38 35  1  0  0  0  0
 40 36  1  0  0  0  0
 42 41  1  0  0  0  0
 43 49  2  6  0  0  0
 43 44  1  0  0  0  0
 43 42  1  0  0  0  0
 45 46  1  0  0  0  0
 46 43  1  0  0  0  0
 47 51  1  1  0  0  0
 47 44  1  0  0  0  0
 48 45  1  0  0  0  0
 48 47  1  0  0  0  0
 51 50  1  0  0  0  0
 52 51  1  0  0  0  0
M  END
>  <MODEL>
3

>  <REMARK>
 VINA RESULT:      -6.7      4.107      6.751
  Name = 
  16 active torsions:
  status: ('A' for Active; 'I' for Inactive)
    1  A    between atoms: O_1  and  O_26
    2  A    between atoms: O_1  and  C_41
    3  A    between atoms: C_3  and  N_8
    4  A    between atoms: C_3  and  C_49
    5  A    between atoms: C_4  and  O_37
    6  A    between atoms: C_6  and  C_22
    7  A    between atoms: C_6  and  C_28
    8  A    between atoms: N_8  and  N_14
    9  A    between atoms: P_13  and  O_21
   10  A    between atoms: N_14  and  N_36
   11  A    between atoms: C_16  and  O_26
   12  A    between atoms: C_18  and  C_41
   13  A    between atoms: O_21  and  O_37
   14  A    between atoms: C_24  and  C_41
   15  A    between atoms: C_25  and  C_40
   16  A    between atoms: C_29  and  C_45
                            x       y       z     vdW  Elec       q    Type
                         _______ _______ _______ _____ _____    ______ ____

>  <TORSDO>
F 16

$$$$
=
 OpenBabel11042415583D

 52 57  0  0  1  0  0  0  0  0999 V2000
  194.9660  173.8250  140.5680 C   0  0  2  0  0  3  0  0  0  0  0  0
  196.8170  173.9460  138.4480 S   0  0  0  0  0  0  0  0  0  0  0  0
  194.5600  175.0060  138.3120 C   0  0  0  0  0  3  0  0  0  0  0  0
  195.3480  174.2750  139.1880 C   0  0  0  0  0  0  0  0  0  0  0  0
  196.4980  174.7230  136.9890 C   0  0  0  0  0  3  0  0  0  0  0  0
  195.2090  175.2440  137.0930 C   0  0  0  0  0  0  0  0  0  0  0  0
  194.5800  176.0310  136.0000 C   0  0  0  0  0  2  0  0  0  0  0  0
  193.2120  176.3670  136.3610 N   0  0  0  0  0  2  0  0  0  0  0  0
  192.4550  176.3110  135.1830 N   0  0  0  0  0  2  0  0  0  0  0  0
  188.4560  175.1050  135.6610 N   0  0  0  0  0  1  0  0  0  0  0  0
  190.7070  174.5720  135.1780 C   0  0  0  0  0  0  0  0  0  0  0  0
  192.0670  174.9770  135.0110 N   0  0  0  0  0  2  0  0  0  0  0  0
  189.8000  175.4530  135.4740 N   0  0  0  0  0  0  0  0  0  0  0  0
  190.3650  173.1210  135.0410 C   0  0  0  0  0  2  0  0  0  0  0  0
  189.7980  171.2580  136.5660 C   0  0  0  0  0  2  0  0  0  0  0  0
  190.7880  172.3520  136.2830 C   0  0  2  0  0  3  0  0  0  0  0  0
  189.6300  171.3690  138.0460 C   0  0  0  0  0  2  0  0  0  0  0  0
  190.8040  173.2010  137.3990 O   0  0  0  0  0  0  0  0  0  0  0  0
  190.5640  172.3990  138.4760 N   0  0  0  0  0  2  0  0  0  0  0  0
  192.2420  171.5400  142.1000 C   0  0  0  0  0  2  0  0  0  0  0  0
  193.6860  171.4030  141.0130 S   0  0  0  0  0  0  0  0  0  0  0  0
  193.5730  173.1810  140.6240 C   0  0  1  0  0  3  0  0  0  0  0  0
  191.6540  172.9220  141.8920 C   0  0  2  0  0  3  0  0  0  0  0  0
  192.7600  173.8310  141.6410 N   0  0  0  0  0  2  0  0  0  0  0  0
  187.3090  172.5620  142.1820 O   0  0  0  0  0  1  0  0  0  0  0  0
  190.6700  174.8990  143.1550 C   0  0  0  0  0  2  0  0  0  0  0  0
  188.3750  174.6950  142.1710 C   0  0  0  0  0  2  0  0  0  0  0  0
  189.4750  172.6850  143.1790 C   0  0  0  0  0  2  0  0  0  0  0  0
  190.8450  173.3730  143.1140 C   0  0  1  0  0  3  0  0  0  0  0  0
  188.5510  173.1850  142.0670 C   0  0  1  0  0  3  0  0  0  0  0  0
  189.7290  175.3860  142.0510 C   0  0  0  0  0  2  0  0  0  0  0  0
  195.1440  174.8480  141.5220 O   0  0  0  0  0  0  0  0  0  0  0  0
  196.2070  174.5310  142.2420 O   0  0  0  0  0  0  0  0  0  0  0  0
  193.5640  175.0010  145.4280 C   0  0  2  0  0  3  0  0  0  0  0  0
  195.8630  174.8620  143.5550 C   0  0  1  0  0  3  0  0  0  0  0  0
  194.8390  176.0000  143.5330 C   0  0  0  0  0  2  0  0  0  0  0  0
  194.5600  173.8530  145.5630 C   0  0  0  0  0  2  0  0  0  0  0  0
  195.3060  173.6580  144.2780 C   0  0  0  0  0  0  0  0  0  0  0  0
  195.5480  172.5250  143.8870 O   0  0  0  0  0  0  0  0  0  0  0  0
  194.2700  176.2590  144.9280 C   0  0  0  0  0  2  0  0  0  0  0  0
  192.9710  175.2510  146.6680 O   0  0  0  0  0  0  0  0  0  0  0  0
  192.6840  176.5390  146.6560 O   0  0  0  0  0  0  0  0  0  0  0  0
  191.1280  176.6600  147.3260 P   0  0  1  0  0  0  0  0  0  0  0  0
  190.0070  177.3160  146.1440 N   0  0  0  0  0  2  0  0  0  0  0  0
  189.7470  174.4730  146.5620 C   0  0  0  0  0  2  0  0  0  0  0  0
  190.5170  175.0100  147.7610 C   0  0  0  0  0  2  0  0  0  0  0  0
  188.6750  176.8290  146.5000 C   0  0  2  0  0  3  0  0  0  0  0  0
  188.5090  175.3210  146.2260 C   0  0  0  0  0  2  0  0  0  0  0  0
  191.1620  177.5350  148.5570 O   0  0  0  0  0  0  0  0  0  0  0  0
  187.9500  177.8930  144.3570 C   0  0  0  0  0  1  0  0  0  0  0  0
  187.5780  177.6320  145.8030 C   0  0  0  0  0  3  0  0  0  0  0  0
  186.2280  176.9360  145.8700 C   0  0  0  0  0  1  0  0  0  0  0  0
  1 32  1  1  0  0  0
  2  4  1  0  0  0  0
  3  4  2  0  0  0  0
  4  1  1  0  0  0  0
  5  6  2  0  0  0  0
  5  2  1  0  0  0  0
  6  3  1  0  0  0  0
  7  8  1  0  0  0  0
  7  6  1  0  0  0  0
  9  8  1  0  0  0  0
 11 13  2  0  0  0  0
 12 11  1  0  0  0  0
 12  9  1  0  0  0  0
 13 10  1  0  0  0  0
 14 11  1  0  0  0  0
 15 17  1  0  0  0  0
 16 14  1  6  0  0  0
 16 15  1  0  0  0  0
 16 18  1  0  0  0  0
 17 19  1  0  0  0  0
 18 19  1  0  0  0  0
 21 20  1  0  0  0  0
 22  1  1  1  0  0  0
 22 21  1  0  0  0  0
 22 24  1  0  0  0  0
 23 20  1  1  0  0  0
 23 29  1  0  0  0  0
 24 23  1  0  0  0  0
 29 26  1  6  0  0  0
 29 28  1  0  0  0  0
 30 27  1  0  0  0  0
 30 25  1  1  0  0  0
 30 28  1  0  0  0  0
 31 27  1  0  0  0  0
 31 26  1  0  0  0  0
 32 33  1  0  0  0  0
 34 37  1  0  0  0  0
 34 41  1  1  0  0  0
 35 33  1  6  0  0  0
 35 38  1  0  0  0  0
 36 35  1  0  0  0  0
 36 40  1  0  0  0  0
 38 37  1  0  0  0  0
 39 38  2  0  0  0  0
 40 34  1  0  0  0  0
 42 41  1  0  0  0  0
 42 43  1  0  0  0  0
 43 46  1  0  0  0  0
 43 49  2  1  0  0  0
 44 47  1  0  0  0  0
 44 43  1  0  0  0  0
 45 46  1  0  0  0  0
 47 51  1  6  0  0  0
 48 47  1  0  0  0  0
 48 45  1  0  0  0  0
 50 51  1  0  0  0  0
 51 52  1  0  0  0  0
M  END
>  <MODEL>
4

>  <REMARK>
 VINA RESULT:      -6.6      5.644      9.617
  Name = 
  16 active torsions:
  status: ('A' for Active; 'I' for Inactive)
    1  A    between atoms: O_1  and  O_26
    2  A    between atoms: O_1  and  C_41
    3  A    between atoms: C_3  and  N_8
    4  A    between atoms: C_3  and  C_49
    5  A    between atoms: C_4  and  O_37
    6  A    between atoms: C_6  and  C_22
    7  A    between atoms: C_6  and  C_28
    8  A    between atoms: N_8  and  N_14
    9  A    between atoms: P_13  and  O_21
   10  A    between atoms: N_14  and  N_36
   11  A    between atoms: C_16  and  O_26
   12  A    between atoms: C_18  and  C_41
   13  A    between atoms: O_21  and  O_37
   14  A    between atoms: C_24  and  C_41
   15  A    between atoms: C_25  and  C_40
   16  A    between atoms: C_29  and  C_45
                            x       y       z     vdW  Elec       q    Type
                         _______ _______ _______ _____ _____    ______ ____

>  <TORSDO>
F 16

$$$$
=
 OpenBabel11042415583D

 52 57  0  0  1  0  0  0  0  0999 V2000
  189.6210  172.4160  140.1220 C   0  0  2  0  0  3  0  0  0  0  0  0
  188.9680  173.1970  137.4960 S   0  0  0  0  0  0  0  0  0  0  0  0
  188.2400  174.5010  139.4960 C   0  0  0  0  0  3  0  0  0  0  0  0
  188.9610  173.3650  139.1640 C   0  0  0  0  0  0  0  0  0  0  0  0
  188.0530  174.5650  137.1410 C   0  0  0  0  0  3  0  0  0  0  0  0
  187.7380  175.1560  138.3640 C   0  0  0  0  0  0  0  0  0  0  0  0
  186.9530  176.4150  138.4580 C   0  0  0  0  0  2  0  0  0  0  0  0
  186.9530  176.8920  139.8320 N   0  0  0  0  0  2  0  0  0  0  0  0
  185.9920  177.9080  139.9090 N   0  0  0  0  0  2  0  0  0  0  0  0
  181.9570  178.5930  140.8730 N   0  0  0  0  0  1  0  0  0  0  0  0
  184.1830  178.1910  141.5600 C   0  0  0  0  0  0  0  0  0  0  0  0
  185.5540  177.9550  141.2390 N   0  0  0  0  0  2  0  0  0  0  0  0
  183.3110  178.3460  140.6100 N   0  0  0  0  0  0  0  0  0  0  0  0
  183.7870  178.2910  143.0010 C   0  0  0  0  0  2  0  0  0  0  0  0
  184.7570  177.7620  145.2150 C   0  0  0  0  0  2  0  0  0  0  0  0
  185.0180  178.4140  143.8860 C   0  0  2  0  0  3  0  0  0  0  0  0
  185.3410  178.7550  146.1650 C   0  0  0  0  0  2  0  0  0  0  0  0
  185.3080  179.7640  144.1320 O   0  0  0  0  0  0  0  0  0  0  0  0
  185.9430  179.7910  145.3390 N   0  0  0  0  0  2  0  0  0  0  0  0
  190.1850  172.5540  143.9500 C   0  0  0  0  0  2  0  0  0  0  0  0
  189.8410  171.3230  142.6640 S   0  0  0  0  0  0  0  0  0  0  0  0
  189.1800  172.6300  141.5770 C   0  0  1  0  0  3  0  0  0  0  0  0
  189.5450  173.8550  143.5070 C   0  0  2  0  0  3  0  0  0  0  0  0
  189.6500  173.9210  142.0590 N   0  0  0  0  0  2  0  0  0  0  0  0
  189.0630  174.9290  147.7150 O   0  0  0  0  0  1  0  0  0  0  0  0
  189.5320  176.3830  143.7950 C   0  0  0  0  0  2  0  0  0  0  0  0
  188.3010  176.3710  145.9760 C   0  0  0  0  0  2  0  0  0  0  0  0
  190.3170  174.9170  145.6830 C   0  0  0  0  0  2  0  0  0  0  0  0
  190.2290  175.0630  144.1580 C   0  0  1  0  0  3  0  0  0  0  0  0
  188.9360  175.0320  146.3310 C   0  0  1  0  0  3  0  0  0  0  0  0
  188.1600  176.4960  144.4630 C   0  0  0  0  0  2  0  0  0  0  0  0
  191.0230  172.3980  139.9620 O   0  0  0  0  0  0  0  0  0  0  0  0
  191.3660  173.5480  139.4070 O   0  0  0  0  0  0  0  0  0  0  0  0
  195.2870  173.5980  140.8150 C   0  0  2  0  0  3  0  0  0  0  0  0
  192.4160  174.0280  140.1950 C   0  0  1  0  0  3  0  0  0  0  0  0
  192.9110  172.9040  141.1090 C   0  0  0  0  0  2  0  0  0  0  0  0
  194.8890  174.7780  139.9330 C   0  0  0  0  0  2  0  0  0  0  0  0
  193.5400  174.5410  139.3260 C   0  0  0  0  0  0  0  0  0  0  0  0
  193.3360  174.8680  138.1650 O   0  0  0  0  0  0  0  0  0  0  0  0
  194.1920  173.3070  141.8380 C   0  0  0  0  0  2  0  0  0  0  0  0
  196.4850  173.8890  141.4720 O   0  0  0  0  0  0  0  0  0  0  0  0
  196.5950  175.2020  141.4150 O   0  0  0  0  0  0  0  0  0  0  0  0
  196.7250  175.7130  143.0300 P   0  0  1  0  0  0  0  0  0  0  0  0
  195.1320  176.0330  143.6970 N   0  0  0  0  0  2  0  0  0  0  0  0
  196.3100  173.5570  144.5960 C   0  0  0  0  0  2  0  0  0  0  0  0
  197.4530  174.3920  144.0360 C   0  0  0  0  0  2  0  0  0  0  0  0
  195.2270  175.8450  145.1440 C   0  0  2  0  0  3  0  0  0  0  0  0
  195.3930  174.3620  145.5330 C   0  0  0  0  0  2  0  0  0  0  0  0
  197.5850  176.9530  143.1120 O   0  0  0  0  0  0  0  0  0  0  0  0
  194.5100  177.4820  146.8920 C   0  0  0  0  0  1  0  0  0  0  0  0
  194.0360  176.4670  145.8710 C   0  0  0  0  0  3  0  0  0  0  0  0
  193.0550  177.1200  144.9120 C   0  0  0  0  0  1  0  0  0  0  0  0
  1 32  1  1  0  0  0
  2  4  1  0  0  0  0
  4  3  2  0  0  0  0
  4  1  1  0  0  0  0
  5  2  1  0  0  0  0
  5  6  2  0  0  0  0
  6  7  1  0  0  0  0
  6  3  1  0  0  0  0
  7  8  1  0  0  0  0
  8  9  1  0  0  0  0
  9 12  1  0  0  0  0
 11 14  1  0  0  0  0
 12 11  1  0  0  0  0
 13 10  1  0  0  0  0
 13 11  2  0  0  0  0
 15 17  1  0  0  0  0
 16 14  1  6  0  0  0
 16 18  1  0  0  0  0
 16 15  1  0  0  0  0
 18 19  1  0  0  0  0
 19 17  1  0  0  0  0
 21 20  1  0  0  0  0
 22  1  1  6  0  0  0
 22 24  1  0  0  0  0
 22 21  1  0  0  0  0
 23 20  1  1  0  0  0
 23 29  1  0  0  0  0
 24 23  1  0  0  0  0
 26 31  1  0  0  0  0
 27 30  1  0  0  0  0
 28 30  1  0  0  0  0
 29 26  1  1  0  0  0
 29 28  1  0  0  0  0
 30 25  1  1  0  0  0
 31 27  1  0  0  0  0
 33 32  1  0  0  0  0
 34 41  1  1  0  0  0
 34 40  1  0  0  0  0
 35 33  1  6  0  0  0
 35 36  1  0  0  0  0
 36 40  1  0  0  0  0
 37 34  1  0  0  0  0
 38 37  1  0  0  0  0
 38 35  1  0  0  0  0
 39 38  2  0  0  0  0
 42 41  1  0  0  0  0
 42 43  1  0  0  0  0
 43 49  2  1  0  0  0
 43 44  1  0  0  0  0
 43 46  1  0  0  0  0
 44 47  1  0  0  0  0
 45 48  1  0  0  0  0
 46 45  1  0  0  0  0
 47 48  1  0  0  0  0
 47 51  1  1  0  0  0
 51 50  1  0  0  0  0
 52 51  1  0  0  0  0
M  END
>  <MODEL>
5

>  <REMARK>
 VINA RESULT:      -6.6      3.281      5.174
  Name = 
  16 active torsions:
  status: ('A' for Active; 'I' for Inactive)
    1  A    between atoms: O_1  and  O_26
    2  A    between atoms: O_1  and  C_41
    3  A    between atoms: C_3  and  N_8
    4  A    between atoms: C_3  and  C_49
    5  A    between atoms: C_4  and  O_37
    6  A    between atoms: C_6  and  C_22
    7  A    between atoms: C_6  and  C_28
    8  A    between atoms: N_8  and  N_14
    9  A    between atoms: P_13  and  O_21
   10  A    between atoms: N_14  and  N_36
   11  A    between atoms: C_16  and  O_26
   12  A    between atoms: C_18  and  C_41
   13  A    between atoms: O_21  and  O_37
   14  A    between atoms: C_24  and  C_41
   15  A    between atoms: C_25  and  C_40
   16  A    between atoms: C_29  and  C_45
                            x       y       z     vdW  Elec       q    Type
                         _______ _______ _______ _____ _____    ______ ____

>  <TORSDO>
F 16

$$$$
=
 OpenBabel11042415583D

 52 57  0  0  1  0  0  0  0  0999 V2000
  188.1500  177.4100  142.2090 C   0  0  2  0  0  3  0  0  0  0  0  0
  190.9080  177.5410  142.7650 S   0  0  0  0  0  0  0  0  0  0  0  0
  189.2120  177.0630  144.5330 C   0  0  0  0  0  3  0  0  0  0  0  0
  189.2970  177.3210  143.1740 C   0  0  0  0  0  0  0  0  0  0  0  0
  191.5500  177.3170  144.3040 C   0  0  0  0  0  3  0  0  0  0  0  0
  190.4700  177.0680  145.1500 C   0  0  0  0  0  0  0  0  0  0  0  0
  190.6440  176.7910  146.6000 C   0  0  0  0  0  2  0  0  0  0  0  0
  192.0500  176.5620  146.8920 N   0  0  0  0  0  2  0  0  0  0  0  0
  192.2440  175.1740  146.8920 N   0  0  0  0  0  2  0  0  0  0  0  0
  192.9990  173.0660  143.3340 N   0  0  0  0  0  1  0  0  0  0  0  0
  193.8000  174.2250  145.2320 C   0  0  0  0  0  0  0  0  0  0  0  0
  193.5490  174.9450  146.4390 N   0  0  0  0  0  2  0  0  0  0  0  0
  192.8060  173.7880  144.5190 N   0  0  0  0  0  0  0  0  0  0  0  0
  195.2180  173.9600  144.8320 C   0  0  0  0  0  2  0  0  0  0  0  0
  195.1350  176.0440  143.5020 C   0  0  0  0  0  2  0  0  0  0  0  0
  195.9340  175.2620  144.5060 C   0  0  2  0  0  3  0  0  0  0  0  0
  196.1970  176.5170  142.5650 C   0  0  0  0  0  2  0  0  0  0  0  0
  197.1860  174.9980  143.9310 O   0  0  0  0  0  0  0  0  0  0  0  0
  197.4590  176.0710  143.1350 N   0  0  0  0  0  2  0  0  0  0  0  0
  184.4570  178.2880  142.9720 C   0  0  0  0  0  2  0  0  0  0  0  0
  185.5980  178.2910  141.5630 S   0  0  0  0  0  0  0  0  0  0  0  0
  187.0210  178.3250  142.7040 C   0  0  1  0  0  3  0  0  0  0  0  0
  185.2820  178.5420  144.2170 C   0  0  2  0  0  3  0  0  0  0  0  0
  186.5720  177.9010  144.0230 N   0  0  0  0  0  2  0  0  0  0  0  0
  185.9480  180.1140  148.2400 O   0  0  0  0  0  1  0  0  0  0  0  0
  185.2080  176.6700  145.9390 C   0  0  0  0  0  2  0  0  0  0  0  0
  186.5560  177.8800  147.6690 C   0  0  0  0  0  2  0  0  0  0  0  0
  184.5870  179.0120  146.6170 C   0  0  0  0  0  2  0  0  0  0  0  0
  184.5860  177.9930  145.4690 C   0  0  1  0  0  3  0  0  0  0  0  0
  185.9960  179.2100  147.1800 C   0  0  1  0  0  3  0  0  0  0  0  0
  186.6090  176.8820  146.5180 C   0  0  0  0  0  2  0  0  0  0  0  0
  187.6980  176.1340  141.8110 O   0  0  0  0  0  0  0  0  0  0  0  0
  188.1030  175.2730  142.7280 O   0  0  0  0  0  0  0  0  0  0  0  0
  190.0520  172.2870  140.5720 C   0  0  2  0  0  3  0  0  0  0  0  0
  188.1810  174.0480  142.0600 C   0  0  1  0  0  3  0  0  0  0  0  0
  188.5760  174.2960  140.6020 C   0  0  0  0  0  2  0  0  0  0  0  0
  189.6800  171.9270  142.0070 C   0  0  0  0  0  2  0  0  0  0  0  0
  189.1810  173.1380  142.7350 C   0  0  0  0  0  0  0  0  0  0  0  0
  189.5030  173.3160  143.9010 O   0  0  0  0  0  0  0  0  0  0  0  0
  188.8830  172.9840  139.8810 C   0  0  0  0  0  2  0  0  0  0  0  0
  190.3930  171.1270  139.8730 O   0  0  0  0  0  0  0  0  0  0  0  0
  191.7070  171.0520  139.9560 O   0  0  0  0  0  0  0  0  0  0  0  0
  192.2790  171.4300  138.4020 P   0  0  1  0  0  0  0  0  0  0  0  0
  190.9340  171.6540  137.2960 N   0  0  0  0  0  2  0  0  0  0  0  0
  192.1870  174.1130  138.1390 C   0  0  0  0  0  2  0  0  0  0  0  0
  193.1820  173.0020  138.4460 C   0  0  0  0  0  2  0  0  0  0  0  0
  191.3950  172.5460  136.2340 C   0  0  2  0  0  3  0  0  0  0  0  0
  191.5870  173.9950  136.7270 C   0  0  0  0  0  2  0  0  0  0  0  0
  193.1890  170.3310  137.9040 O   0  0  0  0  0  0  0  0  0  0  0  0
  189.3200  171.5450  135.2640 C   0  0  0  0  0  1  0  0  0  0  0  0
  190.4670  172.5050  135.0210 C   0  0  0  0  0  3  0  0  0  0  0  0
  189.9230  173.8790  134.6670 C   0  0  0  0  0  1  0  0  0  0  0  0
  1 32  1  1  0  0  0
  1  4  1  0  0  0  0
  2  4  1  0  0  0  0
  2  5  1  0  0  0  0
  3  6  1  0  0  0  0
  4  3  2  0  0  0  0
  5  6  2  0  0  0  0
  6  7  1  0  0  0  0
  7  8  1  0  0  0  0
  9  8  1  0  0  0  0
 10 13  1  0  0  0  0
 11 12  1  0  0  0  0
 12  9  1  0  0  0  0
 13 11  2  0  0  0  0
 14 11  1  0  0  0  0
 15 16  1  0  0  0  0
 16 14  1  6  0  0  0
 17 19  1  0  0  0  0
 17 15  1  0  0  0  0
 18 16  1  0  0  0  0
 19 18  1  0  0  0  0
 21 22  1  0  0  0  0
 21 20  1  0  0  0  0
 22  1  1  6  0  0  0
 22 24  1  0  0  0  0
 23 20  1  6  0  0  0
 23 29  1  0  0  0  0
 24 23  1  0  0  0  0
 26 31  1  0  0  0  0
 28 30  1  0  0  0  0
 29 26  1  1  0  0  0
 29 28  1  0  0  0  0
 30 27  1  0  0  0  0
 30 25  1  1  0  0  0
 31 27  1  0  0  0  0
 32 33  1  0  0  0  0
 34 41  1  6  0  0  0
 34 37  1  0  0  0  0
 35 33  1  1  0  0  0
 35 38  1  0  0  0  0
 36 35  1  0  0  0  0
 37 38  1  0  0  0  0
 38 39  2  0  0  0  0
 40 34  1  0  0  0  0
 40 36  1  0  0  0  0
 41 42  1  0  0  0  0
 43 49  2  6  0  0  0
 43 46  1  0  0  0  0
 43 42  1  0  0  0  0
 44 43  1  0  0  0  0
 45 46  1  0  0  0  0
 47 51  1  6  0  0  0
 47 48  1  0  0  0  0
 47 44  1  0  0  0  0
 48 45  1  0  0  0  0
 51 50  1  0  0  0  0
 52 51  1  0  0  0  0
M  END
>  <MODEL>
6

>  <REMARK>
 VINA RESULT:      -6.5      4.001      9.734
  Name = 
  16 active torsions:
  status: ('A' for Active; 'I' for Inactive)
    1  A    between atoms: O_1  and  O_26
    2  A    between atoms: O_1  and  C_41
    3  A    between atoms: C_3  and  N_8
    4  A    between atoms: C_3  and  C_49
    5  A    between atoms: C_4  and  O_37
    6  A    between atoms: C_6  and  C_22
    7  A    between atoms: C_6  and  C_28
    8  A    between atoms: N_8  and  N_14
    9  A    between atoms: P_13  and  O_21
   10  A    between atoms: N_14  and  N_36
   11  A    between atoms: C_16  and  O_26
   12  A    between atoms: C_18  and  C_41
   13  A    between atoms: O_21  and  O_37
   14  A    between atoms: C_24  and  C_41
   15  A    between atoms: C_25  and  C_40
   16  A    between atoms: C_29  and  C_45
                            x       y       z     vdW  Elec       q    Type
                         _______ _______ _______ _____ _____    ______ ____

>  <TORSDO>
F 16

$$$$
=
 OpenBabel11042415583D

 52 57  0  0  1  0  0  0  0  0999 V2000
  194.4380  173.3640  144.1650 C   0  0  2  0  0  3  0  0  0  0  0  0
  196.9670  174.4860  144.6900 S   0  0  0  0  0  0  0  0  0  0  0  0
  195.9770  174.4400  142.3980 C   0  0  0  0  0  3  0  0  0  0  0  0
  195.6830  174.0600  143.6990 C   0  0  0  0  0  0  0  0  0  0  0  0
  197.9390  175.1690  143.4960 C   0  0  0  0  0  3  0  0  0  0  0  0
  197.2340  175.0510  142.2990 C   0  0  0  0  0  0  0  0  0  0  0  0
  197.7630  175.5710  141.0110 C   0  0  0  0  0  2  0  0  0  0  0  0
  196.6610  175.8700  140.1110 N   0  0  0  0  0  2  0  0  0  0  0  0
  196.9830  175.3030  138.8720 N   0  0  0  0  0  2  0  0  0  0  0  0
  196.7680  174.7900  134.7040 N   0  0  0  0  0  1  0  0  0  0  0  0
  195.7050  174.8400  136.8150 C   0  0  0  0  0  0  0  0  0  0  0  0
  195.7730  175.0100  138.2310 N   0  0  0  0  0  2  0  0  0  0  0  0
  196.7840  174.9350  136.0970 N   0  0  0  0  0  0  0  0  0  0  0  0
  194.3720  174.5880  136.1820 C   0  0  0  0  0  2  0  0  0  0  0  0
  192.1020  175.4910  135.7890 C   0  0  0  0  0  2  0  0  0  0  0  0
  193.4590  175.7910  136.3610 C   0  0  2  0  0  3  0  0  0  0  0  0
  191.7870  176.7570  135.0630 C   0  0  0  0  0  2  0  0  0  0  0  0
  193.9700  176.8980  135.6680 O   0  0  0  0  0  0  0  0  0  0  0  0
  192.8890  177.6650  135.3490 N   0  0  0  0  0  2  0  0  0  0  0  0
  192.4920  170.1290  143.3030 C   0  0  0  0  0  2  0  0  0  0  0  0
  194.0180  170.6200  144.1500 S   0  0  0  0  0  0  0  0  0  0  0  0
  194.0190  172.2050  143.2480 C   0  0  1  0  0  3  0  0  0  0  0  0
  192.2340  171.1540  142.2170 C   0  0  2  0  0  3  0  0  0  0  0  0
  192.6850  172.4420  142.7170 N   0  0  0  0  0  2  0  0  0  0  0  0
  190.6650  173.4780  138.8650 O   0  0  0  0  0  1  0  0  0  0  0  0
  189.9490  172.1220  142.7830 C   0  0  0  0  0  2  0  0  0  0  0  0
  190.0580  173.9860  141.1140 C   0  0  0  0  0  2  0  0  0  0  0  0
  190.5400  171.6410  140.3850 C   0  0  0  0  0  2  0  0  0  0  0  0
  190.7470  171.2060  141.8420 C   0  0  1  0  0  3  0  0  0  0  0  0
  190.9000  173.1150  140.1900 C   0  0  1  0  0  3  0  0  0  0  0  0
  190.3030  173.5950  142.5670 C   0  0  0  0  0  2  0  0  0  0  0  0
  193.3910  174.2750  144.4220 O   0  0  0  0  0  0  0  0  0  0  0  0
  193.8710  175.2010  145.2350 O   0  0  0  0  0  0  0  0  0  0  0  0
  190.3250  177.0430  144.0530 C   0  0  2  0  0  3  0  0  0  0  0  0
  192.9980  176.2840  145.0990 C   0  0  1  0  0  3  0  0  0  0  0  0
  192.7240  176.5240  143.6120 C   0  0  0  0  0  2  0  0  0  0  0  0
  190.5100  176.8760  145.5580 C   0  0  0  0  0  2  0  0  0  0  0  0
  191.7090  176.0230  145.8430 C   0  0  0  0  0  0  0  0  0  0  0  0
  191.6630  175.2000  146.7470 O   0  0  0  0  0  0  0  0  0  0  0  0
  191.6130  177.5560  143.4140 C   0  0  0  0  0  2  0  0  0  0  0  0
  189.2840  177.9410  143.8080 O   0  0  0  0  0  0  0  0  0  0  0  0
  188.7270  177.5220  142.6880 O   0  0  0  0  0  0  0  0  0  0  0  0
  187.1320  177.1110  143.1050 P   0  0  1  0  0  0  0  0  0  0  0  0
  186.9100  177.2220  144.8430 N   0  0  0  0  0  2  0  0  0  0  0  0
  185.7480  179.4110  143.3650 C   0  0  0  0  0  2  0  0  0  0  0  0
  185.9790  178.2940  142.3570 C   0  0  0  0  0  2  0  0  0  0  0  0
  185.4910  177.4860  145.0780 C   0  0  2  0  0  3  0  0  0  0  0  0
  185.0820  178.9130  144.6590 C   0  0  0  0  0  2  0  0  0  0  0  0
  186.8160  175.7140  142.6240 O   0  0  0  0  0  0  0  0  0  0  0  0
  186.3280  176.8720  147.3530 C   0  0  0  0  0  1  0  0  0  0  0  0
  185.1010  177.2140  146.5300 C   0  0  0  0  0  3  0  0  0  0  0  0
  184.3710  178.3890  147.1580 C   0  0  0  0  0  1  0  0  0  0  0  0
  1 32  1  6  0  0  0
  3  4  2  0  0  0  0
  4  1  1  0  0  0  0
  4  2  1  0  0  0  0
  5  2  1  0  0  0  0
  6  3  1  0  0  0  0
  6  5  2  0  0  0  0
  7  6  1  0  0  0  0
  8  7  1  0  0  0  0
  9  8  1  0  0  0  0
 10 13  1  0  0  0  0
 11 12  1  0  0  0  0
 12  9  1  0  0  0  0
 13 11  2  0  0  0  0
 14 11  1  0  0  0  0
 15 16  1  0  0  0  0
 16 14  1  6  0  0  0
 17 19  1  0  0  0  0
 17 15  1  0  0  0  0
 18 16  1  0  0  0  0
 19 18  1  0  0  0  0
 20 21  1  0  0  0  0
 22 21  1  0  0  0  0
 22  1  1  1  0  0  0
 23 24  1  0  0  0  0
 23 20  1  1  0  0  0
 24 22  1  0  0  0  0
 27 31  1  0  0  0  0
 29 28  1  6  0  0  0
 29 23  1  0  0  0  0
 29 26  1  0  0  0  0
 30 25  1  6  0  0  0
 30 28  1  0  0  0  0
 30 27  1  0  0  0  0
 31 26  1  0  0  0  0
 32 33  1  0  0  0  0
 34 41  1  1  0  0  0
 34 37  1  0  0  0  0
 35 33  1  6  0  0  0
 35 38  1  0  0  0  0
 36 35  1  0  0  0  0
 37 38  1  0  0  0  0
 38 39  2  0  0  0  0
 40 36  1  0  0  0  0
 40 34  1  0  0  0  0
 42 43  1  0  0  0  0
 42 41  1  0  0  0  0
 43 49  2  6  0  0  0
 43 44  1  0  0  0  0
 44 47  1  0  0  0  0
 45 48  1  0  0  0  0
 46 43  1  0  0  0  0
 46 45  1  0  0  0  0
 47 51  1  1  0  0  0
 48 47  1  0  0  0  0
 51 52  1  0  0  0  0
 51 50  1  0  0  0  0
M  END
>  <MODEL>
7

>  <REMARK>
 VINA RESULT:      -6.4      4.816     11.217
  Name = 
  16 active torsions:
  status: ('A' for Active; 'I' for Inactive)
    1  A    between atoms: O_1  and  O_26
    2  A    between atoms: O_1  and  C_41
    3  A    between atoms: C_3  and  N_8
    4  A    between atoms: C_3  and  C_49
    5  A    between atoms: C_4  and  O_37
    6  A    between atoms: C_6  and  C_22
    7  A    between atoms: C_6  and  C_28
    8  A    between atoms: N_8  and  N_14
    9  A    between atoms: P_13  and  O_21
   10  A    between atoms: N_14  and  N_36
   11  A    between atoms: C_16  and  O_26
   12  A    between atoms: C_18  and  C_41
   13  A    between atoms: O_21  and  O_37
   14  A    between atoms: C_24  and  C_41
   15  A    between atoms: C_25  and  C_40
   16  A    between atoms: C_29  and  C_45
                            x       y       z     vdW  Elec       q    Type
                         _______ _______ _______ _____ _____    ______ ____

>  <TORSDO>
F 16

$$$$
=
 OpenBabel11042415583D

 52 57  0  0  1  0  0  0  0  0999 V2000
  191.2000  175.2880  145.1410 C   0  0  2  0  0  3  0  0  0  0  0  0
  189.7210  172.9020  144.9130 S   0  0  0  0  0  0  0  0  0  0  0  0
  190.6300  174.1040  142.9220 C   0  0  0  0  0  3  0  0  0  0  0  0
  190.5900  174.2010  144.3050 C   0  0  0  0  0  0  0  0  0  0  0  0
  189.3670  172.1740  143.4370 C   0  0  0  0  0  3  0  0  0  0  0  0
  189.9440  172.9760  142.4530 C   0  0  0  0  0  0  0  0  0  0  0  0
  189.8670  172.6380  141.0070 C   0  0  0  0  0  2  0  0  0  0  0  0
  188.8720  173.4770  140.3590 N   0  0  0  0  0  2  0  0  0  0  0  0
  188.1970  172.6670  139.4360 N   0  0  0  0  0  2  0  0  0  0  0  0
  190.6870  170.5750  136.7720 N   0  0  0  0  0  1  0  0  0  0  0  0
  189.3410  172.4550  137.2620 C   0  0  0  0  0  0  0  0  0  0  0  0
  188.4920  173.1680  138.1620 N   0  0  0  0  0  2  0  0  0  0  0  0
  189.8390  171.3070  137.6130 N   0  0  0  0  0  0  0  0  0  0  0  0
  189.6680  173.0720  135.9380 C   0  0  0  0  0  2  0  0  0  0  0  0
  189.0010  175.3560  135.2640 C   0  0  0  0  0  2  0  0  0  0  0  0
  189.9620  174.5550  136.0970 C   0  0  2  0  0  3  0  0  0  0  0  0
  189.9030  176.3770  134.6510 C   0  0  0  0  0  2  0  0  0  0  0  0
  191.2560  174.8470  135.6400 O   0  0  0  0  0  0  0  0  0  0  0  0
  191.2180  176.1470  135.2310 N   0  0  0  0  0  2  0  0  0  0  0  0
  188.5930  177.8700  143.9050 C   0  0  0  0  0  2  0  0  0  0  0  0
  190.3850  177.6000  143.8390 S   0  0  0  0  0  0  0  0  0  0  0  0
  190.2830  176.5100  145.2970 C   0  0  1  0  0  3  0  0  0  0  0  0
  188.0960  177.2630  145.2020 C   0  0  2  0  0  3  0  0  0  0  0  0
  188.9010  176.0820  145.4660 N   0  0  0  0  0  2  0  0  0  0  0  0
  184.9520  180.1490  144.2630 O   0  0  0  0  0  1  0  0  0  0  0  0
  185.9730  176.7350  146.5010 C   0  0  0  0  0  2  0  0  0  0  0  0
  185.0340  179.0540  146.3800 C   0  0  0  0  0  2  0  0  0  0  0  0
  185.8170  177.9240  144.2890 C   0  0  0  0  0  2  0  0  0  0  0  0
  186.6090  176.8980  145.1120 C   0  0  1  0  0  3  0  0  0  0  0  0
  185.7050  179.2590  145.0270 C   0  0  1  0  0  3  0  0  0  0  0  0
  185.8480  178.0790  147.2230 C   0  0  0  0  0  2  0  0  0  0  0  0
  192.4990  175.6210  144.7040 O   0  0  0  0  0  0  0  0  0  0  0  0
  193.3180  175.4150  145.7210 O   0  0  0  0  0  0  0  0  0  0  0  0
  196.0930  175.4590  142.6140 C   0  0  2  0  0  3  0  0  0  0  0  0
  194.5580  175.1450  145.1350 C   0  0  1  0  0  3  0  0  0  0  0  0
  194.3490  174.2430  143.9160 C   0  0  0  0  0  2  0  0  0  0  0  0
  196.4100  176.3760  143.7930 C   0  0  0  0  0  2  0  0  0  0  0  0
  195.2470  176.4290  144.7360 C   0  0  0  0  0  0  0  0  0  0  0  0
  194.9400  177.4920  145.2560 O   0  0  0  0  0  0  0  0  0  0  0  0
  195.6420  174.0890  143.1140 C   0  0  0  0  0  2  0  0  0  0  0  0
  197.2290  175.3200  141.8130 O   0  0  0  0  0  0  0  0  0  0  0  0
  196.9050  175.8740  140.6610 O   0  0  0  0  0  0  0  0  0  0  0  0
  196.8430  174.5930  139.5470 P   0  0  1  0  0  0  0  0  0  0  0  0
  195.1900  174.3300  139.0140 N   0  0  0  0  0  2  0  0  0  0  0  0
  196.8550  175.6700  137.0750 C   0  0  0  0  0  2  0  0  0  0  0  0
  197.8050  175.0170  138.0700 C   0  0  0  0  0  2  0  0  0  0  0  0
  195.2600  173.7240  137.6850 C   0  0  2  0  0  3  0  0  0  0  0  0
  195.7390  174.7200  136.6100 C   0  0  0  0  0  2  0  0  0  0  0  0
  197.3970  173.3350  140.1750 O   0  0  0  0  0  0  0  0  0  0  0  0
  194.1200  171.6310  136.9300 C   0  0  0  0  0  1  0  0  0  0  0  0
  193.9280  173.0920  137.2850 C   0  0  0  0  0  3  0  0  0  0  0  0
  192.8790  173.2240  138.3760 C   0  0  0  0  0  1  0  0  0  0  0  0
  1 32  1  6  0  0  0
  3  4  2  0  0  0  0
  4  2  1  0  0  0  0
  4  1  1  0  0  0  0
  5  2  1  0  0  0  0
  6  3  1  0  0  0  0
  6  5  2  0  0  0  0
  7  6  1  0  0  0  0
  8  7  1  0  0  0  0
  9  8  1  0  0  0  0
 10 13  1  0  0  0  0
 11 13  2  0  0  0  0
 11 12  1  0  0  0  0
 12  9  1  0  0  0  0
 14 11  1  0  0  0  0
 15 16  1  0  0  0  0
 16 14  1  6  0  0  0
 17 19  1  0  0  0  0
 17 15  1  0  0  0  0
 18 16  1  0  0  0  0
 19 18  1  0  0  0  0
 21 20  1  0  0  0  0
 21 22  1  0  0  0  0
 22  1  1  6  0  0  0
 22 24  1  0  0  0  0
 23 20  1  6  0  0  0
 23 24  1  0  0  0  0
 26 31  1  0  0  0  0
 27 31  1  0  0  0  0
 28 30  1  0  0  0  0
 29 28  1  1  0  0  0
 29 23  1  0  0  0  0
 29 26  1  0  0  0  0
 30 25  1  6  0  0  0
 30 27  1  0  0  0  0
 32 33  1  0  0  0  0
 34 41  1  6  0  0  0
 34 40  1  0  0  0  0
 34 37  1  0  0  0  0
 35 33  1  6  0  0  0
 36 35  1  0  0  0  0
 37 38  1  0  0  0  0
 38 35  1  0  0  0  0
 38 39  2  0  0  0  0
 40 36  1  0  0  0  0
 42 41  1  0  0  0  0
 43 49  2  1  0  0  0
 43 42  1  0  0  0  0
 44 43  1  0  0  0  0
 45 46  1  0  0  0  0
 46 43  1  0  0  0  0
 47 51  1  6  0  0  0
 47 44  1  0  0  0  0
 48 45  1  0  0  0  0
 48 47  1  0  0  0  0
 50 51  1  0  0  0  0
 51 52  1  0  0  0  0
M  END
>  <MODEL>
8

>  <REMARK>
 VINA RESULT:      -6.3      5.078      8.574
  Name = 
  16 active torsions:
  status: ('A' for Active; 'I' for Inactive)
    1  A    between atoms: O_1  and  O_26
    2  A    between atoms: O_1  and  C_41
    3  A    between atoms: C_3  and  N_8
    4  A    between atoms: C_3  and  C_49
    5  A    between atoms: C_4  and  O_37
    6  A    between atoms: C_6  and  C_22
    7  A    between atoms: C_6  and  C_28
    8  A    between atoms: N_8  and  N_14
    9  A    between atoms: P_13  and  O_21
   10  A    between atoms: N_14  and  N_36
   11  A    between atoms: C_16  and  O_26
   12  A    between atoms: C_18  and  C_41
   13  A    between atoms: O_21  and  O_37
   14  A    between atoms: C_24  and  C_41
   15  A    between atoms: C_25  and  C_40
   16  A    between atoms: C_29  and  C_45
                            x       y       z     vdW  Elec       q    Type
                         _______ _______ _______ _____ _____    ______ ____

>  <TORSDO>
F 16

$$$$
=
 OpenBabel11042415583D

 52 57  0  0  1  0  0  0  0  0999 V2000
  194.0470  171.3110  140.6950 C   0  0  2  0  0  3  0  0  0  0  0  0
  196.6830  171.5520  139.7330 S   0  0  0  0  0  0  0  0  0  0  0  0
  195.4960  173.4370  140.8600 C   0  0  0  0  0  3  0  0  0  0  0  0
  195.2950  172.1170  140.4860 C   0  0  0  0  0  0  0  0  0  0  0  0
  197.5840  172.9690  139.8570 C   0  0  0  0  0  3  0  0  0  0  0  0
  196.7690  173.8990  140.5010 C   0  0  0  0  0  0  0  0  0  0  0  0
  197.2320  175.2750  140.8180 C   0  0  0  0  0  2  0  0  0  0  0  0
  196.1200  176.0640  141.3220 N   0  0  0  0  0  2  0  0  0  0  0  0
  196.6010  176.7920  142.4180 N   0  0  0  0  0  2  0  0  0  0  0  0
  193.5230  176.2630  145.2340 N   0  0  0  0  0  1  0  0  0  0  0  0
  195.6810  175.7170  144.4370 C   0  0  0  0  0  0  0  0  0  0  0  0
  196.7280  175.8900  143.4820 N   0  0  0  0  0  2  0  0  0  0  0  0
  194.5750  176.3870  144.3160 N   0  0  0  0  0  0  0  0  0  0  0  0
  195.9010  174.7830  145.5870 C   0  0  0  0  0  2  0  0  0  0  0  0
  195.0720  172.6790  144.5830 C   0  0  0  0  0  2  0  0  0  0  0  0
  196.2910  173.4010  145.0850 C   0  0  2  0  0  3  0  0  0  0  0  0
  195.2680  171.3120  145.1500 C   0  0  0  0  0  2  0  0  0  0  0  0
  196.8280  172.6360  146.1310 O   0  0  0  0  0  0  0  0  0  0  0  0
  196.5640  171.3370  145.8120 N   0  0  0  0  0  2  0  0  0  0  0  0
  192.1180  168.4900  138.8740 C   0  0  0  0  0  2  0  0  0  0  0  0
  193.5840  168.6850  139.9220 S   0  0  0  0  0  0  0  0  0  0  0  0
  193.6790  170.4510  139.4770 C   0  0  1  0  0  3  0  0  0  0  0  0
  191.9590  169.7740  138.0840 C   0  0  2  0  0  3  0  0  0  0  0  0
  192.3920  170.8670  138.9380 N   0  0  0  0  0  2  0  0  0  0  0  0
  190.7400  172.7000  135.0760 O   0  0  0  0  0  1  0  0  0  0  0  0
  189.6930  170.7750  138.6680 C   0  0  0  0  0  2  0  0  0  0  0  0
  190.0080  172.8750  137.3390 C   0  0  0  0  0  2  0  0  0  0  0  0
  190.4190  170.6530  136.2620 C   0  0  0  0  0  2  0  0  0  0  0  0
  190.5050  169.9770  137.6370 C   0  0  1  0  0  3  0  0  0  0  0  0
  190.8660  172.1140  136.3350 C   0  0  1  0  0  3  0  0  0  0  0  0
  190.1350  172.2400  138.7190 C   0  0  0  0  0  2  0  0  0  0  0  0
  192.9780  172.1070  141.1560 O   0  0  0  0  0  0  0  0  0  0  0  0
  192.5720  171.5890  142.3030 O   0  0  0  0  0  0  0  0  0  0  0  0
  189.8530  174.7440  142.1930 C   0  0  2  0  0  3  0  0  0  0  0  0
  191.7590  172.5720  142.8730 C   0  0  1  0  0  3  0  0  0  0  0  0
  192.2080  173.9470  142.3700 C   0  0  0  0  0  2  0  0  0  0  0  0
  189.3090  173.4250  142.7360 C   0  0  0  0  0  2  0  0  0  0  0  0
  190.3090  172.3270  142.5300 C   0  0  0  0  0  0  0  0  0  0  0  0
  189.9240  171.2170  142.1920 O   0  0  0  0  0  0  0  0  0  0  0  0
  191.2250  175.0380  142.7920 C   0  0  0  0  0  2  0  0  0  0  0  0
  188.9670  175.7770  142.5060 O   0  0  0  0  0  0  0  0  0  0  0  0
  188.4790  175.4630  143.6900 O   0  0  0  0  0  0  0  0  0  0  0  0
  188.3830  176.9300  144.5410 P   0  0  1  0  0  0  0  0  0  0  0  0
  186.7520  177.5750  144.4580 N   0  0  0  0  0  2  0  0  0  0  0  0
  187.4180  176.3770  146.9980 C   0  0  0  0  0  2  0  0  0  0  0  0
  188.7410  176.6470  146.2950 C   0  0  0  0  0  2  0  0  0  0  0  0
  186.5600  178.4110  145.6420 C   0  0  2  0  0  3  0  0  0  0  0  0
  186.4600  177.5790  146.9380 C   0  0  0  0  0  2  0  0  0  0  0  0
  189.3680  177.9240  143.9710 O   0  0  0  0  0  0  0  0  0  0  0  0
  185.2050  179.7850  144.0540 C   0  0  0  0  0  1  0  0  0  0  0  0
  185.3490  179.3300  145.4930 C   0  0  0  0  0  3  0  0  0  0  0  0
  184.0640  178.6650  145.9550 C   0  0  0  0  0  1  0  0  0  0  0  0
  1 32  1  6  0  0  0
  2  5  1  0  0  0  0
  2  4  1  0  0  0  0
  4  1  1  0  0  0  0
  4  3  2  0  0  0  0
  5  6  2  0  0  0  0
  6  7  1  0  0  0  0
  6  3  1  0  0  0  0
  7  8  1  0  0  0  0
  8  9  1  0  0  0  0
  9 12  1  0  0  0  0
 11 14  1  0  0  0  0
 12 11  1  0  0  0  0
 13 11  2  0  0  0  0
 13 10  1  0  0  0  0
 15 16  1  0  0  0  0
 15 17  1  0  0  0  0
 16 14  1  1  0  0  0
 16 18  1  0  0  0  0
 17 19  1  0  0  0  0
 19 18  1  0  0  0  0
 20 21  1  0  0  0  0
 22 21  1  0  0  0  0
 22  1  1  1  0  0  0
 23 20  1  1  0  0  0
 23 24  1  0  0  0  0
 24 22  1  0  0  0  0
 26 31  1  0  0  0  0
 27 31  1  0  0  0  0
 28 30  1  0  0  0  0
 29 28  1  6  0  0  0
 29 23  1  0  0  0  0
 29 26  1  0  0  0  0
 30 25  1  6  0  0  0
 30 27  1  0  0  0  0
 32 33  1  0  0  0  0
 34 41  1  1  0  0  0
 34 37  1  0  0  0  0
 34 40  1  0  0  0  0
 35 33  1  6  0  0  0
 36 40  1  0  0  0  0
 36 35  1  0  0  0  0
 38 37  1  0  0  0  0
 38 35  1  0  0  0  0
 39 38  2  0  0  0  0
 41 42  1  0  0  0  0
 42 43  1  0  0  0  0
 43 49  2  6  0  0  0
 43 46  1  0  0  0  0
 44 43  1  0  0  0  0
 44 47  1  0  0  0  0
 46 45  1  0  0  0  0
 47 51  1  6  0  0  0
 47 48  1  0  0  0  0
 48 45  1  0  0  0  0
 50 51  1  0  0  0  0
 51 52  1  0  0  0  0
M  END
>  <MODEL>
9

>  <REMARK>
 VINA RESULT:      -6.3      4.939     11.754
  Name = 
  16 active torsions:
  status: ('A' for Active; 'I' for Inactive)
    1  A    between atoms: O_1  and  O_26
    2  A    between atoms: O_1  and  C_41
    3  A    between atoms: C_3  and  N_8
    4  A    between atoms: C_3  and  C_49
    5  A    between atoms: C_4  and  O_37
    6  A    between atoms: C_6  and  C_22
    7  A    between atoms: C_6  and  C_28
    8  A    between atoms: N_8  and  N_14
    9  A    between atoms: P_13  and  O_21
   10  A    between atoms: N_14  and  N_36
   11  A    between atoms: C_16  and  O_26
   12  A    between atoms: C_18  and  C_41
   13  A    between atoms: O_21  and  O_37
   14  A    between atoms: C_24  and  C_41
   15  A    between atoms: C_25  and  C_40
   16  A    between atoms: C_29  and  C_45
                            x       y       z     vdW  Elec       q    Type
                         _______ _______ _______ _____ _____    ______ ____

>  <TORSDO>
F 16

$$$$
