=
 OpenBabel11042414493D

 28 30  0  0  1  0  0  0  0  0999 V2000
  187.2950  175.9150  143.2620 C   0  0  1  0  0  3  0  0  0  0  0  0
  189.2990  176.2200  144.7880 C   0  0  0  0  0  0  0  0  0  0  0  0
  191.1940  176.5480  146.2290 N   0  0  0  0  0  0  0  0  0  0  0  0
  190.3970  178.0520  143.0270 N   0  0  0  0  0  0  0  0  0  0  0  0
  190.5320  176.8400  145.0770 C   0  0  0  0  0  0  0  0  0  0  0  0
  189.2060  177.4700  142.7240 C   0  0  0  0  0  3  0  0  0  0  0  0
  189.4770  175.0220  146.8860 C   0  0  0  0  0  3  0  0  0  0  0  0
  191.0660  177.7590  144.1740 C   0  0  0  0  0  3  0  0  0  0  0  0
  191.4170  175.3780  148.3210 N   0  0  0  0  0  1  0  0  0  0  0  0
  190.6960  175.6600  147.1290 C   0  0  0  0  0  0  0  0  0  0  0  0
  188.6270  176.5340  143.5920 C   0  0  0  0  0  0  0  0  0  0  0  0
  188.7780  175.3050  145.7120 C   0  0  0  0  0  3  0  0  0  0  0  0
  185.5130  177.4710  142.3690 C   0  0  0  0  0  3  0  0  0  0  0  0
  184.4750  178.3820  142.5820 C   0  0  0  0  0  3  0  0  0  0  0  0
  184.7300  178.1150  144.9760 C   0  0  0  0  0  0  0  0  0  0  0  0
  186.1660  176.8780  143.4610 C   0  0  0  0  0  0  0  0  0  0  0  0
  184.0850  178.7060  143.8850 C   0  0  0  0  0  3  0  0  0  0  0  0
  185.7750  177.2090  144.7630 C   0  0  0  0  0  3  0  0  0  0  0  0
  185.4770  178.9980  147.0860 N   0  0  0  0  0  1  0  0  0  0  0  0
  184.3300  178.4770  146.3630 C   0  0  0  0  0  2  0  0  0  0  0  0
  187.2840  175.3650  141.9120 N   0  0  0  0  0  2  0  0  0  0  0  0
  188.0250  174.1120  141.9410 C   0  0  0  0  0  2  0  0  0  0  0  0
  189.0350  174.0630  140.8010 C   0  0  0  0  0  2  0  0  0  0  0  0
  190.3840  174.2440  141.3100 N   0  0  0  0  0  2  0  0  0  0  0  0
  190.5340  173.3630  142.4570 C   0  0  0  0  0  2  0  0  0  0  0  0
  191.6730  173.8470  143.3340 C   0  0  0  0  0  2  0  0  0  0  0  0
  190.6130  172.2710  144.4560 C   0  0  0  0  0  1  0  0  0  0  0  0
  191.5780  173.2660  144.5990 O   0  0  0  0  0  0  0  0  0  0  0  0
  1 21  1  6  0  0  0
  1 16  1  0  0  0  0
  1 11  1  0  0  0  0
  2  5  1  0  0  0  0
  2 12  2  0  0  0  0
  3 10  1  0  0  0  0
  4  8  2  0  0  0  0
  5  3  2  0  0  0  0
  6  4  1  0  0  0  0
  6 11  2  0  0  0  0
  7 10  2  0  0  0  0
  8  5  1  0  0  0  0
 10  9  1  0  0  0  0
 11  2  1  0  0  0  0
 12  7  1  0  0  0  0
 13 14  2  0  0  0  0
 13 16  1  0  0  0  0
 14 17  1  0  0  0  0
 15 20  1  0  0  0  0
 16 18  2  0  0  0  0
 17 15  2  0  0  0  0
 18 15  1  0  0  0  0
 20 19  1  0  0  0  0
 21 22  1  0  0  0  0
 23 24  1  0  0  0  0
 23 22  1  0  0  0  0
 24 25  1  0  0  0  0
 25 26  1  0  0  0  0
 26 28  1  0  0  0  0
 27 28  1  0  0  0  0
M  END
>  <MODEL>
1

>  <REMARK>
 VINA RESULT:      -5.9      0.000      0.000
  Name = 
  10 active torsions:
  status: ('A' for Active; 'I' for Inactive)
    1  A    between atoms: C_5  and  N_8
    2  A    between atoms: C_5  and  C_19
    3  A    between atoms: C_6  and  N_8
    4  A    between atoms: C_6  and  C_25
    5  A    between atoms: C_11  and  C_16
    6  A    between atoms: C_11  and  C_23
    7  A    between atoms: C_11  and  N_24
    8  A    between atoms: C_14  and  C_27
    9  A    between atoms: C_19  and  N_24
   10  A    between atoms: O_20  and  C_25
                            x       y       z     vdW  Elec       q    Type
                         _______ _______ _______ _____ _____    ______ ____

>  <TORSDO>
F 10

$$$$
=
 OpenBabel11042414493D

 28 30  0  0  1  0  0  0  0  0999 V2000
  187.3610  176.2090  143.3650 C   0  0  1  0  0  3  0  0  0  0  0  0
  189.3930  176.3610  144.8760 C   0  0  0  0  0  0  0  0  0  0  0  0
  191.3180  176.5440  146.3030 N   0  0  0  0  0  0  0  0  0  0  0  0
  190.6090  178.1150  143.1120 N   0  0  0  0  0  0  0  0  0  0  0  0
  190.6710  176.8880  145.1570 C   0  0  0  0  0  0  0  0  0  0  0  0
  189.3770  177.6220  142.8160 C   0  0  0  0  0  3  0  0  0  0  0  0
  189.4990  175.1450  146.9690 C   0  0  0  0  0  3  0  0  0  0  0  0
  191.2630  177.7690  144.2530 C   0  0  0  0  0  3  0  0  0  0  0  0
  191.4700  175.3530  148.3900 N   0  0  0  0  0  1  0  0  0  0  0  0
  190.7630  175.6920  147.2050 C   0  0  0  0  0  0  0  0  0  0  0  0
  188.7370  176.7270  143.6860 C   0  0  0  0  0  0  0  0  0  0  0  0
  188.8130  175.4830  145.8010 C   0  0  0  0  0  3  0  0  0  0  0  0
  186.3590  178.1060  144.7020 C   0  0  0  0  0  3  0  0  0  0  0  0
  185.3490  179.0510  144.9070 C   0  0  0  0  0  3  0  0  0  0  0  0
  184.2250  178.2850  142.9020 C   0  0  0  0  0  0  0  0  0  0  0  0
  186.3050  177.2440  143.5960 C   0  0  0  0  0  0  0  0  0  0  0  0
  184.2820  179.1390  144.0080 C   0  0  0  0  0  3  0  0  0  0  0  0
  185.2320  177.3340  142.7020 C   0  0  0  0  0  3  0  0  0  0  0  0
  183.5610  178.3120  140.5900 N   0  0  0  0  0  1  0  0  0  0  0  0
  183.0780  178.3640  141.9590 C   0  0  0  0  0  2  0  0  0  0  0  0
  187.2940  175.6850  142.0050 N   0  0  0  0  0  2  0  0  0  0  0  0
  187.9520  174.3860  142.0020 C   0  0  0  0  0  2  0  0  0  0  0  0
  188.8760  174.2590  140.7970 C   0  0  0  0  0  2  0  0  0  0  0  0
  190.2520  174.0750  141.2300 N   0  0  0  0  0  2  0  0  0  0  0  0
  190.2100  173.5480  142.5850 C   0  0  0  0  0  2  0  0  0  0  0  0
  191.5340  173.8040  143.2790 C   0  0  0  0  0  2  0  0  0  0  0  0
  192.8010  173.4580  145.0520 C   0  0  0  0  0  1  0  0  0  0  0  0
  191.5090  173.2630  144.5650 O   0  0  0  0  0  0  0  0  0  0  0  0
  1 21  1  6  0  0  0
  1 16  1  0  0  0  0
  1 11  1  0  0  0  0
  2  5  1  0  0  0  0
  2 12  2  0  0  0  0
  3 10  1  0  0  0  0
  4  8  2  0  0  0  0
  5  3  2  0  0  0  0
  6  4  1  0  0  0  0
  6 11  2  0  0  0  0
  7 10  2  0  0  0  0
  8  5  1  0  0  0  0
 10  9  1  0  0  0  0
 11  2  1  0  0  0  0
 12  7  1  0  0  0  0
 13 14  1  0  0  0  0
 15 17  1  0  0  0  0
 16 13  2  0  0  0  0
 17 14  2  0  0  0  0
 18 15  2  0  0  0  0
 18 16  1  0  0  0  0
 19 20  1  0  0  0  0
 20 15  1  0  0  0  0
 22 21  1  0  0  0  0
 23 24  1  0  0  0  0
 23 22  1  0  0  0  0
 24 25  1  0  0  0  0
 25 26  1  0  0  0  0
 26 28  1  0  0  0  0
 28 27  1  0  0  0  0
M  END
>  <MODEL>
2

>  <REMARK>
 VINA RESULT:      -5.8      1.368      1.867
  Name = 
  10 active torsions:
  status: ('A' for Active; 'I' for Inactive)
    1  A    between atoms: C_5  and  N_8
    2  A    between atoms: C_5  and  C_19
    3  A    between atoms: C_6  and  N_8
    4  A    between atoms: C_6  and  C_25
    5  A    between atoms: C_11  and  C_16
    6  A    between atoms: C_11  and  C_23
    7  A    between atoms: C_11  and  N_24
    8  A    between atoms: C_14  and  C_27
    9  A    between atoms: C_19  and  N_24
   10  A    between atoms: O_20  and  C_25
                            x       y       z     vdW  Elec       q    Type
                         _______ _______ _______ _____ _____    ______ ____

>  <TORSDO>
F 10

$$$$
=
 OpenBabel11042414493D

 28 30  0  0  1  0  0  0  0  0999 V2000
  189.1290  176.5280  144.4810 C   0  0  1  0  0  3  0  0  0  0  0  0
  189.0220  174.4790  142.9890 C   0  0  0  0  0  0  0  0  0  0  0  0
  188.9010  172.5190  141.6050 N   0  0  0  0  0  0  0  0  0  0  0  0
  189.8400  172.8720  145.0900 N   0  0  0  0  0  0  0  0  0  0  0  0
  189.1670  173.0880  142.8110 C   0  0  0  0  0  0  0  0  0  0  0  0
  189.7070  174.2100  145.2890 C   0  0  0  0  0  3  0  0  0  0  0  0
  188.3330  174.6440  140.6720 C   0  0  0  0  0  3  0  0  0  0  0  0
  189.5810  172.2990  143.8850 C   0  0  0  0  0  3  0  0  0  0  0  0
  188.2260  172.6330  139.2970 N   0  0  0  0  0  1  0  0  0  0  0  0
  188.4920  173.2620  140.5430 C   0  0  0  0  0  0  0  0  0  0  0  0
  189.3000  175.0520  144.2440 C   0  0  0  0  0  0  0  0  0  0  0  0
  188.5980  175.2520  141.9010 C   0  0  0  0  0  3  0  0  0  0  0  0
  187.5330  176.5710  146.4420 C   0  0  0  0  0  3  0  0  0  0  0  0
  186.2770  176.8600  146.9830 C   0  0  0  0  0  3  0  0  0  0  0  0
  185.5440  177.7020  144.8330 C   0  0  0  0  0  0  0  0  0  0  0  0
  187.8000  176.8470  145.0920 C   0  0  0  0  0  0  0  0  0  0  0  0
  185.2820  177.4230  146.1780 C   0  0  0  0  0  3  0  0  0  0  0  0
  186.7990  177.4070  144.2900 C   0  0  0  0  0  3  0  0  0  0  0  0
  184.9730  178.4410  142.6160 N   0  0  0  0  0  1  0  0  0  0  0  0
  184.4780  178.2810  143.9720 C   0  0  0  0  0  2  0  0  0  0  0  0
  190.2190  177.0680  145.2860 N   0  0  0  0  0  2  0  0  0  0  0  0
  191.2700  177.4950  144.3740 C   0  0  0  0  0  2  0  0  0  0  0  0
  192.5820  176.7950  144.7070 C   0  0  0  0  0  2  0  0  0  0  0  0
  192.6230  176.4380  146.1160 N   0  0  0  0  0  2  0  0  0  0  0  0
  194.0060  176.5530  146.5500 C   0  0  0  0  0  2  0  0  0  0  0  0
  194.9350  176.3800  145.3630 C   0  0  0  0  0  2  0  0  0  0  0  0
  195.6930  174.6500  144.2230 C   0  0  0  0  0  1  0  0  0  0  0  0
  195.6700  175.2020  145.5030 O   0  0  0  0  0  0  0  0  0  0  0  0
  1 16  1  0  0  0  0
  1 21  1  1  0  0  0
  2 11  1  0  0  0  0
  3  5  1  0  0  0  0
  4  6  1  0  0  0  0
  5  2  2  0  0  0  0
  5  8  1  0  0  0  0
  7 12  2  0  0  0  0
  8  4  2  0  0  0  0
  9 10  1  0  0  0  0
 10  7  1  0  0  0  0
 10  3  2  0  0  0  0
 11  1  1  0  0  0  0
 11  6  2  0  0  0  0
 12  2  1  0  0  0  0
 13 14  1  0  0  0  0
 15 17  1  0  0  0  0
 16 13  2  0  0  0  0
 17 14  2  0  0  0  0
 18 15  2  0  0  0  0
 18 16  1  0  0  0  0
 19 20  1  0  0  0  0
 20 15  1  0  0  0  0
 22 23  1  0  0  0  0
 22 21  1  0  0  0  0
 23 24  1  0  0  0  0
 24 25  1  0  0  0  0
 26 28  1  0  0  0  0
 26 25  1  0  0  0  0
 27 28  1  0  0  0  0
M  END
>  <MODEL>
3

>  <REMARK>
 VINA RESULT:      -5.7      2.349      4.956
  Name = 
  10 active torsions:
  status: ('A' for Active; 'I' for Inactive)
    1  A    between atoms: C_5  and  N_8
    2  A    between atoms: C_5  and  C_19
    3  A    between atoms: C_6  and  N_8
    4  A    between atoms: C_6  and  C_25
    5  A    between atoms: C_11  and  C_16
    6  A    between atoms: C_11  and  C_23
    7  A    between atoms: C_11  and  N_24
    8  A    between atoms: C_14  and  C_27
    9  A    between atoms: C_19  and  N_24
   10  A    between atoms: O_20  and  C_25
                            x       y       z     vdW  Elec       q    Type
                         _______ _______ _______ _____ _____    ______ ____

>  <TORSDO>
F 10

$$$$
=
 OpenBabel11042414493D

 28 30  0  0  1  0  0  0  0  0999 V2000
  187.3560  175.9660  143.1800 C   0  0  1  0  0  3  0  0  0  0  0  0
  189.3250  176.2630  144.7510 C   0  0  0  0  0  0  0  0  0  0  0  0
  191.1860  176.5850  146.2370 N   0  0  0  0  0  0  0  0  0  0  0  0
  190.4110  178.1800  143.0740 N   0  0  0  0  0  0  0  0  0  0  0  0
  190.5380  176.9010  145.0840 C   0  0  0  0  0  0  0  0  0  0  0  0
  189.2390  177.5810  142.7290 C   0  0  0  0  0  3  0  0  0  0  0  0
  189.4940  174.9980  146.8110 C   0  0  0  0  0  3  0  0  0  0  0  0
  191.0650  177.8630  144.2220 C   0  0  0  0  0  3  0  0  0  0  0  0
  191.3990  175.3490  148.2930 N   0  0  0  0  0  1  0  0  0  0  0  0
  190.6930  175.6550  147.0980 C   0  0  0  0  0  0  0  0  0  0  0  0
  188.6660  176.6030  143.5550 C   0  0  0  0  0  0  0  0  0  0  0  0
  188.8090  175.3060  145.6340 C   0  0  0  0  0  3  0  0  0  0  0  0
  185.5480  177.4710  142.2530 C   0  0  0  0  0  3  0  0  0  0  0  0
  184.4890  178.3630  142.4450 C   0  0  0  0  0  3  0  0  0  0  0  0
  184.7310  178.1320  144.8450 C   0  0  0  0  0  0  0  0  0  0  0  0
  186.2050  176.9070  143.3570 C   0  0  0  0  0  0  0  0  0  0  0  0
  184.0820  178.6950  143.7400 C   0  0  0  0  0  3  0  0  0  0  0  0
  185.7950  177.2460  144.6520 C   0  0  0  0  0  3  0  0  0  0  0  0
  185.4510  179.0170  146.9630 N   0  0  0  0  0  1  0  0  0  0  0  0
  184.3110  178.5030  146.2230 C   0  0  0  0  0  2  0  0  0  0  0  0
  187.3920  175.4310  141.8230 N   0  0  0  0  0  2  0  0  0  0  0  0
  188.0680  174.1430  141.8760 C   0  0  0  0  0  2  0  0  0  0  0  0
  189.1010  174.0360  140.7610 C   0  0  0  0  0  2  0  0  0  0  0  0
  188.4640  174.1950  139.4630 N   0  0  0  0  0  2  0  0  0  0  0  0
  189.2010  173.3740  138.5170 C   0  0  0  0  0  2  0  0  0  0  0  0
  189.3940  171.9800  139.0840 C   0  0  0  0  0  2  0  0  0  0  0  0
  189.7070  170.0990  137.9750 C   0  0  0  0  0  1  0  0  0  0  0  0
  190.3430  171.2870  138.3320 O   0  0  0  0  0  0  0  0  0  0  0  0
  1 21  1  6  0  0  0
  1 16  1  0  0  0  0
  1 11  1  0  0  0  0
  2  5  1  0  0  0  0
  2 12  2  0  0  0  0
  3 10  1  0  0  0  0
  4  8  2  0  0  0  0
  5  3  2  0  0  0  0
  6  4  1  0  0  0  0
  6 11  2  0  0  0  0
  7 10  2  0  0  0  0
  8  5  1  0  0  0  0
 10  9  1  0  0  0  0
 11  2  1  0  0  0  0
 12  7  1  0  0  0  0
 13 14  2  0  0  0  0
 13 16  1  0  0  0  0
 14 17  1  0  0  0  0
 15 20  1  0  0  0  0
 16 18  2  0  0  0  0
 17 15  2  0  0  0  0
 18 15  1  0  0  0  0
 20 19  1  0  0  0  0
 21 22  1  0  0  0  0
 23 22  1  0  0  0  0
 24 23  1  0  0  0  0
 25 26  1  0  0  0  0
 25 24  1  0  0  0  0
 27 28  1  0  0  0  0
 28 26  1  0  0  0  0
M  END
>  <MODEL>
4

>  <REMARK>
 VINA RESULT:      -5.5      1.787      2.265
  Name = 
  10 active torsions:
  status: ('A' for Active; 'I' for Inactive)
    1  A    between atoms: C_5  and  N_8
    2  A    between atoms: C_5  and  C_19
    3  A    between atoms: C_6  and  N_8
    4  A    between atoms: C_6  and  C_25
    5  A    between atoms: C_11  and  C_16
    6  A    between atoms: C_11  and  C_23
    7  A    between atoms: C_11  and  N_24
    8  A    between atoms: C_14  and  C_27
    9  A    between atoms: C_19  and  N_24
   10  A    between atoms: O_20  and  C_25
                            x       y       z     vdW  Elec       q    Type
                         _______ _______ _______ _____ _____    ______ ____

>  <TORSDO>
F 10

$$$$
=
 OpenBabel11042414493D

 28 30  0  0  1  0  0  0  0  0999 V2000
  189.9070  176.4320  143.6010 C   0  0  1  0  0  3  0  0  0  0  0  0
  187.8020  177.5380  144.4860 C   0  0  0  0  0  0  0  0  0  0  0  0
  185.7890  178.5720  145.2920 N   0  0  0  0  0  0  0  0  0  0  0  0
  187.2030  178.4870  141.9550 N   0  0  0  0  0  0  0  0  0  0  0  0
  186.6360  178.3000  144.2640 C   0  0  0  0  0  0  0  0  0  0  0  0
  188.3340  177.7550  142.1400 C   0  0  0  0  0  3  0  0  0  0  0  0
  187.1760  177.3660  146.8200 C   0  0  0  0  0  3  0  0  0  0  0  0
  186.3560  178.7670  142.9800 C   0  0  0  0  0  3  0  0  0  0  0  0
  185.1260  178.4310  147.6030 N   0  0  0  0  0  1  0  0  0  0  0  0
  186.0340  178.1250  146.5530 C   0  0  0  0  0  0  0  0  0  0  0  0
  188.6680  177.2650  143.4110 C   0  0  0  0  0  0  0  0  0  0  0  0
  188.0610  177.0720  145.7810 C   0  0  0  0  0  3  0  0  0  0  0  0
  189.7660  174.0310  144.3810 C   0  0  0  0  0  3  0  0  0  0  0  0
  189.5390  172.6770  144.1190 C   0  0  0  0  0  3  0  0  0  0  0  0
  189.0700  173.2040  141.8010 C   0  0  0  0  0  0  0  0  0  0  0  0
  189.6480  174.9780  143.3520 C   0  0  0  0  0  0  0  0  0  0  0  0
  189.1920  172.2630  142.8290 C   0  0  0  0  0  3  0  0  0  0  0  0
  189.3050  174.5580  142.0620 C   0  0  0  0  0  3  0  0  0  0  0  0
  188.4630  173.9180  139.5860 N   0  0  0  0  0  1  0  0  0  0  0  0
  188.7230  172.7610  140.4240 C   0  0  0  0  0  2  0  0  0  0  0  0
  191.0070  176.9170  142.7760 N   0  0  0  0  0  2  0  0  0  0  0  0
  192.2470  176.4480  143.3760 C   0  0  0  0  0  2  0  0  0  0  0  0
  192.3740  176.9570  144.8070 C   0  0  0  0  0  2  0  0  0  0  0  0
  193.3430  176.1610  145.5440 N   0  0  0  0  0  2  0  0  0  0  0  0
  192.6070  175.3940  146.5350 C   0  0  0  0  0  2  0  0  0  0  0  0
  191.3950  176.1800  147.0000 C   0  0  0  0  0  2  0  0  0  0  0  0
  191.4990  177.4540  148.7980 C   0  0  0  0  0  1  0  0  0  0  0  0
  191.3050  176.1350  148.3920 O   0  0  0  0  0  0  0  0  0  0  0  0
  1 21  1  6  0  0  0
  2 12  2  0  0  0  0
  3 10  1  0  0  0  0
  4  6  1  0  0  0  0
  4  8  2  0  0  0  0
  5  2  1  0  0  0  0
  5  3  2  0  0  0  0
  6 11  2  0  0  0  0
  8  5  1  0  0  0  0
 10  7  2  0  0  0  0
 10  9  1  0  0  0  0
 11  1  1  0  0  0  0
 11  2  1  0  0  0  0
 12  7  1  0  0  0  0
 14 13  1  0  0  0  0
 15 18  2  0  0  0  0
 15 17  1  0  0  0  0
 16  1  1  0  0  0  0
 16 13  2  0  0  0  0
 17 14  2  0  0  0  0
 18 16  1  0  0  0  0
 19 20  1  0  0  0  0
 20 15  1  0  0  0  0
 21 22  1  0  0  0  0
 22 23  1  0  0  0  0
 23 24  1  0  0  0  0
 24 25  1  0  0  0  0
 25 26  1  0  0  0  0
 26 28  1  0  0  0  0
 28 27  1  0  0  0  0
M  END
>  <MODEL>
5

>  <REMARK>
 VINA RESULT:      -5.4      2.046      5.516
  Name = 
  10 active torsions:
  status: ('A' for Active; 'I' for Inactive)
    1  A    between atoms: C_5  and  N_8
    2  A    between atoms: C_5  and  C_19
    3  A    between atoms: C_6  and  N_8
    4  A    between atoms: C_6  and  C_25
    5  A    between atoms: C_11  and  C_16
    6  A    between atoms: C_11  and  C_23
    7  A    between atoms: C_11  and  N_24
    8  A    between atoms: C_14  and  C_27
    9  A    between atoms: C_19  and  N_24
   10  A    between atoms: O_20  and  C_25
                            x       y       z     vdW  Elec       q    Type
                         _______ _______ _______ _____ _____    ______ ____

>  <TORSDO>
F 10

$$$$
=
 OpenBabel11042414493D

 28 30  0  0  1  0  0  0  0  0999 V2000
  188.8200  176.6960  144.2360 C   0  0  1  0  0  3  0  0  0  0  0  0
  190.4870  174.8220  144.6150 C   0  0  0  0  0  0  0  0  0  0  0  0
  192.0630  173.0520  145.0140 N   0  0  0  0  0  0  0  0  0  0  0  0
  191.8220  176.3520  146.4970 N   0  0  0  0  0  0  0  0  0  0  0  0
  191.6190  174.3090  145.2830 C   0  0  0  0  0  0  0  0  0  0  0  0
  190.7340  176.8710  145.8690 C   0  0  0  0  0  3  0  0  0  0  0  0
  190.3170  172.7230  143.4170 C   0  0  0  0  0  3  0  0  0  0  0  0
  192.2740  175.0990  146.2270 C   0  0  0  0  0  3  0  0  0  0  0  0
  191.9360  170.9510  143.8450 N   0  0  0  0  0  1  0  0  0  0  0  0
  191.4410  172.2580  144.1030 C   0  0  0  0  0  0  0  0  0  0  0  0
  190.0400  176.1240  144.9060 C   0  0  0  0  0  0  0  0  0  0  0  0
  189.8390  174.0090  143.6760 C   0  0  0  0  0  3  0  0  0  0  0  0
  187.7340  176.3690  146.4960 C   0  0  0  0  0  3  0  0  0  0  0  0
  186.6690  176.5770  147.3760 C   0  0  0  0  0  3  0  0  0  0  0  0
  185.5310  177.8920  145.6890 C   0  0  0  0  0  0  0  0  0  0  0  0
  187.7020  176.9210  145.2060 C   0  0  0  0  0  0  0  0  0  0  0  0
  185.5670  177.3370  146.9730 C   0  0  0  0  0  3  0  0  0  0  0  0
  186.5950  177.6770  144.8060 C   0  0  0  0  0  3  0  0  0  0  0  0
  184.7790  179.7940  144.4220 N   0  0  0  0  0  1  0  0  0  0  0  0
  184.3490  178.6820  145.2530 C   0  0  0  0  0  2  0  0  0  0  0  0
  189.1370  177.9190  143.5070 N   0  0  0  0  0  2  0  0  0  0  0  0
  189.1260  177.5990  142.0870 C   0  0  0  0  0  2  0  0  0  0  0  0
  187.9290  178.2480  141.4030 C   0  0  0  0  0  2  0  0  0  0  0  0
  186.9680  177.2350  140.9950 N   0  0  0  0  0  2  0  0  0  0  0  0
  185.9080  177.9150  140.2680 C   0  0  0  0  0  2  0  0  0  0  0  0
  184.7880  178.2890  141.2200 C   0  0  0  0  0  2  0  0  0  0  0  0
  182.5950  178.2910  141.4560 C   0  0  0  0  0  1  0  0  0  0  0  0
  183.6010  178.4730  140.5100 O   0  0  0  0  0  0  0  0  0  0  0  0
  1 21  1  1  0  0  0
  1 11  1  0  0  0  0
  1 16  1  0  0  0  0
  2 11  2  0  0  0  0
  2  5  1  0  0  0  0
  3  5  1  0  0  0  0
  5  8  2  0  0  0  0
  6  4  2  0  0  0  0
  7 12  2  0  0  0  0
  7 10  1  0  0  0  0
  8  4  1  0  0  0  0
  9 10  1  0  0  0  0
 10  3  2  0  0  0  0
 11  6  1  0  0  0  0
 12  2  1  0  0  0  0
 13 14  1  0  0  0  0
 15 17  1  0  0  0  0
 16 13  2  0  0  0  0
 17 14  2  0  0  0  0
 18 16  1  0  0  0  0
 18 15  2  0  0  0  0
 19 20  1  0  0  0  0
 20 15  1  0  0  0  0
 22 21  1  0  0  0  0
 23 22  1  0  0  0  0
 24 23  1  0  0  0  0
 25 24  1  0  0  0  0
 25 26  1  0  0  0  0
 28 26  1  0  0  0  0
 28 27  1  0  0  0  0
M  END
>  <MODEL>
6

>  <REMARK>
 VINA RESULT:      -5.3      2.737      4.810
  Name = 
  10 active torsions:
  status: ('A' for Active; 'I' for Inactive)
    1  A    between atoms: C_5  and  N_8
    2  A    between atoms: C_5  and  C_19
    3  A    between atoms: C_6  and  N_8
    4  A    between atoms: C_6  and  C_25
    5  A    between atoms: C_11  and  C_16
    6  A    between atoms: C_11  and  C_23
    7  A    between atoms: C_11  and  N_24
    8  A    between atoms: C_14  and  C_27
    9  A    between atoms: C_19  and  N_24
   10  A    between atoms: O_20  and  C_25
                            x       y       z     vdW  Elec       q    Type
                         _______ _______ _______ _____ _____    ______ ____

>  <TORSDO>
F 10

$$$$
=
 OpenBabel11042414493D

 28 30  0  0  1  0  0  0  0  0999 V2000
  189.9530  176.1840  144.5320 C   0  0  1  0  0  3  0  0  0  0  0  0
  187.6760  177.3010  144.5930 C   0  0  0  0  0  0  0  0  0  0  0  0
  185.5120  178.3460  144.6140 N   0  0  0  0  0  0  0  0  0  0  0  0
  188.0620  178.2900  142.0350 N   0  0  0  0  0  0  0  0  0  0  0  0
  186.6790  178.0780  143.9680 C   0  0  0  0  0  0  0  0  0  0  0  0
  189.0400  177.5430  142.6140 C   0  0  0  0  0  3  0  0  0  0  0  0
  186.2290  177.1060  146.5260 C   0  0  0  0  0  3  0  0  0  0  0  0
  186.8970  178.5650  142.6790 C   0  0  0  0  0  3  0  0  0  0  0  0
  184.0410  178.1830  146.5130 N   0  0  0  0  0  1  0  0  0  0  0  0
  185.2710  177.8800  145.8680 C   0  0  0  0  0  0  0  0  0  0  0  0
  188.8770  177.0330  143.9110 C   0  0  0  0  0  0  0  0  0  0  0  0
  187.4350  176.8160  145.8840 C   0  0  0  0  0  3  0  0  0  0  0  0
  189.8410  173.7460  145.1950 C   0  0  0  0  0  3  0  0  0  0  0  0
  189.7010  172.3980  144.8550 C   0  0  0  0  0  3  0  0  0  0  0  0
  189.4470  173.0100  142.5250 C   0  0  0  0  0  0  0  0  0  0  0  0
  189.7850  174.7340  144.1990 C   0  0  0  0  0  0  0  0  0  0  0  0
  189.5060  172.0300  143.5200 C   0  0  0  0  0  3  0  0  0  0  0  0
  189.5940  174.3600  142.8640 C   0  0  0  0  0  3  0  0  0  0  0  0
  190.1290  171.4950  140.7850 N   0  0  0  0  0  1  0  0  0  0  0  0
  189.2620  172.6170  141.1020 C   0  0  0  0  0  2  0  0  0  0  0  0
  191.2830  176.6570  144.1650 N   0  0  0  0  0  2  0  0  0  0  0  0
  192.0690  176.7530  145.3870 C   0  0  0  0  0  2  0  0  0  0  0  0
  193.4960  176.2770  145.1420 C   0  0  0  0  0  2  0  0  0  0  0  0
  193.5210  175.2670  144.0970 N   0  0  0  0  0  2  0  0  0  0  0  0
  194.8640  175.2590  143.5390 C   0  0  0  0  0  2  0  0  0  0  0  0
  195.6510  176.4410  144.0700 C   0  0  0  0  0  2  0  0  0  0  0  0
  196.4550  176.7910  142.0460 C   0  0  0  0  0  1  0  0  0  0  0  0
  196.8480  176.5710  143.3650 O   0  0  0  0  0  0  0  0  0  0  0  0
  1 21  1  6  0  0  0
  2 12  2  0  0  0  0
  3 10  1  0  0  0  0
  4  6  1  0  0  0  0
  4  8  2  0  0  0  0
  5  2  1  0  0  0  0
  5  3  2  0  0  0  0
  6 11  2  0  0  0  0
  8  5  1  0  0  0  0
 10  9  1  0  0  0  0
 10  7  2  0  0  0  0
 11  1  1  0  0  0  0
 11  2  1  0  0  0  0
 12  7  1  0  0  0  0
 14 13  1  0  0  0  0
 15 18  2  0  0  0  0
 15 17  1  0  0  0  0
 16  1  1  0  0  0  0
 16 13  2  0  0  0  0
 17 14  2  0  0  0  0
 18 16  1  0  0  0  0
 19 20  1  0  0  0  0
 20 15  1  0  0  0  0
 21 22  1  0  0  0  0
 23 22  1  0  0  0  0
 24 23  1  0  0  0  0
 25 26  1  0  0  0  0
 25 24  1  0  0  0  0
 27 28  1  0  0  0  0
 28 26  1  0  0  0  0
M  END
>  <MODEL>
7

>  <REMARK>
 VINA RESULT:      -5.3      2.616      5.884
  Name = 
  10 active torsions:
  status: ('A' for Active; 'I' for Inactive)
    1  A    between atoms: C_5  and  N_8
    2  A    between atoms: C_5  and  C_19
    3  A    between atoms: C_6  and  N_8
    4  A    between atoms: C_6  and  C_25
    5  A    between atoms: C_11  and  C_16
    6  A    between atoms: C_11  and  C_23
    7  A    between atoms: C_11  and  N_24
    8  A    between atoms: C_14  and  C_27
    9  A    between atoms: C_19  and  N_24
   10  A    between atoms: O_20  and  C_25
                            x       y       z     vdW  Elec       q    Type
                         _______ _______ _______ _____ _____    ______ ____

>  <TORSDO>
F 10

$$$$
=
 OpenBabel11042414493D

 28 30  0  0  1  0  0  0  0  0999 V2000
  188.0150  176.2540  143.7710 C   0  0  1  0  0  3  0  0  0  0  0  0
  190.4280  175.6660  144.2900 C   0  0  0  0  0  0  0  0  0  0  0  0
  192.7150  175.1410  144.8060 N   0  0  0  0  0  0  0  0  0  0  0  0
  191.1870  178.2970  143.8840 N   0  0  0  0  0  0  0  0  0  0  0  0
  191.7740  176.0550  144.4470 C   0  0  0  0  0  0  0  0  0  0  0  0
  189.8820  177.9500  143.7260 C   0  0  0  0  0  3  0  0  0  0  0  0
  191.0730  173.4060  144.8810 C   0  0  0  0  0  3  0  0  0  0  0  0
  192.1320  177.3860  144.2360 C   0  0  0  0  0  3  0  0  0  0  0  0
  193.4050  172.9100  145.3940 N   0  0  0  0  0  1  0  0  0  0  0  0
  192.3940  173.8370  145.0230 C   0  0  0  0  0  0  0  0  0  0  0  0
  189.4670  176.6240  143.9200 C   0  0  0  0  0  0  0  0  0  0  0  0
  190.0880  174.3250  144.5140 C   0  0  0  0  0  3  0  0  0  0  0  0
  187.4440  176.4170  146.2290 C   0  0  0  0  0  3  0  0  0  0  0  0
  186.6410  176.9080  147.2620 C   0  0  0  0  0  3  0  0  0  0  0  0
  185.3150  178.1360  145.6490 C   0  0  0  0  0  0  0  0  0  0  0  0
  187.1840  176.7830  144.8990 C   0  0  0  0  0  0  0  0  0  0  0  0
  185.5760  177.7650  146.9720 C   0  0  0  0  0  3  0  0  0  0  0  0
  186.1140  177.6380  144.6140 C   0  0  0  0  0  3  0  0  0  0  0  0
  183.9250  179.0420  143.9060 N   0  0  0  0  0  1  0  0  0  0  0  0
  184.1680  179.0310  145.3390 C   0  0  0  0  0  2  0  0  0  0  0  0
  187.4860  176.6840  142.4820 N   0  0  0  0  0  2  0  0  0  0  0  0
  187.8430  175.6720  141.4990 C   0  0  0  0  0  2  0  0  0  0  0  0
  187.4850  174.2820  142.0110 C   0  0  0  0  0  2  0  0  0  0  0  0
  188.1460  173.2620  141.2130 N   0  0  0  0  0  2  0  0  0  0  0  0
  188.6990  173.9220  140.0420 C   0  0  0  0  0  2  0  0  0  0  0  0
  188.4760  173.0630  138.8110 C   0  0  0  0  0  2  0  0  0  0  0  0
  189.6980  171.9880  137.3220 C   0  0  0  0  0  1  0  0  0  0  0  0
  189.5020  172.1240  138.6960 O   0  0  0  0  0  0  0  0  0  0  0  0
  1 21  1  6  0  0  0
  1 11  1  0  0  0  0
  1 16  1  0  0  0  0
  2  5  1  0  0  0  0
  2 12  2  0  0  0  0
  3 10  1  0  0  0  0
  4  8  2  0  0  0  0
  5  3  2  0  0  0  0
  6  4  1  0  0  0  0
  6 11  2  0  0  0  0
  7 10  2  0  0  0  0
  8  5  1  0  0  0  0
 10  9  1  0  0  0  0
 11  2  1  0  0  0  0
 12  7  1  0  0  0  0
 13 14  1  0  0  0  0
 15 17  1  0  0  0  0
 16 13  2  0  0  0  0
 17 14  2  0  0  0  0
 18 16  1  0  0  0  0
 18 15  2  0  0  0  0
 19 20  1  0  0  0  0
 20 15  1  0  0  0  0
 22 23  1  0  0  0  0
 22 21  1  0  0  0  0
 24 23  1  0  0  0  0
 25 24  1  0  0  0  0
 26 25  1  0  0  0  0
 27 28  1  0  0  0  0
 28 26  1  0  0  0  0
M  END
>  <MODEL>
8

>  <REMARK>
 VINA RESULT:      -5.2      2.300      3.198
  Name = 
  10 active torsions:
  status: ('A' for Active; 'I' for Inactive)
    1  A    between atoms: C_5  and  N_8
    2  A    between atoms: C_5  and  C_19
    3  A    between atoms: C_6  and  N_8
    4  A    between atoms: C_6  and  C_25
    5  A    between atoms: C_11  and  C_16
    6  A    between atoms: C_11  and  C_23
    7  A    between atoms: C_11  and  N_24
    8  A    between atoms: C_14  and  C_27
    9  A    between atoms: C_19  and  N_24
   10  A    between atoms: O_20  and  C_25
                            x       y       z     vdW  Elec       q    Type
                         _______ _______ _______ _____ _____    ______ ____

>  <TORSDO>
F 10

$$$$
=
 OpenBabel11042414493D

 28 30  0  0  1  0  0  0  0  0999 V2000
  189.8540  175.4140  145.5900 C   0  0  1  0  0  3  0  0  0  0  0  0
  189.1260  175.1540  143.1740 C   0  0  0  0  0  0  0  0  0  0  0  0
  188.4640  174.9350  140.8750 N   0  0  0  0  0  0  0  0  0  0  0  0
  189.0320  177.9050  142.8760 N   0  0  0  0  0  0  0  0  0  0  0  0
  188.7650  175.7280  141.9380 C   0  0  0  0  0  0  0  0  0  0  0  0
  189.3840  177.3780  144.0790 C   0  0  0  0  0  3  0  0  0  0  0  0
  188.8540  172.9650  142.1700 C   0  0  0  0  0  3  0  0  0  0  0  0
  188.7240  177.1160  141.8130 C   0  0  0  0  0  3  0  0  0  0  0  0
  188.1760  172.7820  139.8350 N   0  0  0  0  0  1  0  0  0  0  0  0
  188.5000  173.5790  140.9660 C   0  0  0  0  0  0  0  0  0  0  0  0
  189.4360  175.9880  144.2630 C   0  0  0  0  0  0  0  0  0  0  0  0
  189.1680  173.7570  143.2760 C   0  0  0  0  0  3  0  0  0  0  0  0
  191.9100  173.9730  145.2900 C   0  0  0  0  0  3  0  0  0  0  0  0
  193.2920  173.7880  145.3880 C   0  0  0  0  0  3  0  0  0  0  0  0
  193.5350  176.0460  146.2320 C   0  0  0  0  0  0  0  0  0  0  0  0
  191.3340  175.1970  145.6650 C   0  0  0  0  0  0  0  0  0  0  0  0
  194.1040  174.8230  145.8600 C   0  0  0  0  0  3  0  0  0  0  0  0
  192.1510  176.2280  146.1410 C   0  0  0  0  0  3  0  0  0  0  0  0
  194.9380  177.9120  145.6500 N   0  0  0  0  0  1  0  0  0  0  0  0
  194.3970  177.1390  146.7550 C   0  0  0  0  0  2  0  0  0  0  0  0
  189.3890  176.2400  146.6980 N   0  0  0  0  0  2  0  0  0  0  0  0
  187.9940  175.9020  146.9430 C   0  0  0  0  0  2  0  0  0  0  0  0
  187.1240  177.1510  146.8850 C   0  0  0  0  0  2  0  0  0  0  0  0
  185.7610  176.8030  146.5180 N   0  0  0  0  0  2  0  0  0  0  0  0
  185.4660  177.4790  145.2650 C   0  0  0  0  0  2  0  0  0  0  0  0
  185.9200  178.9250  145.3390 C   0  0  0  0  0  2  0  0  0  0  0  0
  185.5920  179.0000  143.1580 C   0  0  0  0  0  1  0  0  0  0  0  0
  185.2910  179.6720  144.3420 O   0  0  0  0  0  0  0  0  0  0  0  0
  1 16  1  0  0  0  0
  1 21  1  1  0  0  0
  2 12  1  0  0  0  0
  2 11  1  0  0  0  0
  3 10  2  0  0  0  0
  3  5  1  0  0  0  0
  4  6  1  0  0  0  0
  5  2  2  0  0  0  0
  6 11  2  0  0  0  0
  7 12  2  0  0  0  0
  8  5  1  0  0  0  0
  8  4  2  0  0  0  0
  9 10  1  0  0  0  0
 10  7  1  0  0  0  0
 11  1  1  0  0  0  0
 13 14  2  0  0  0  0
 13 16  1  0  0  0  0
 14 17  1  0  0  0  0
 15 20  1  0  0  0  0
 16 18  2  0  0  0  0
 17 15  2  0  0  0  0
 18 15  1  0  0  0  0
 19 20  1  0  0  0  0
 21 22  1  0  0  0  0
 23 22  1  0  0  0  0
 24 23  1  0  0  0  0
 25 26  1  0  0  0  0
 25 24  1  0  0  0  0
 27 28  1  0  0  0  0
 28 26  1  0  0  0  0
M  END
>  <MODEL>
9

>  <REMARK>
 VINA RESULT:      -5.2      2.693      6.893
  Name = 
  10 active torsions:
  status: ('A' for Active; 'I' for Inactive)
    1  A    between atoms: C_5  and  N_8
    2  A    between atoms: C_5  and  C_19
    3  A    between atoms: C_6  and  N_8
    4  A    between atoms: C_6  and  C_25
    5  A    between atoms: C_11  and  C_16
    6  A    between atoms: C_11  and  C_23
    7  A    between atoms: C_11  and  N_24
    8  A    between atoms: C_14  and  C_27
    9  A    between atoms: C_19  and  N_24
   10  A    between atoms: O_20  and  C_25
                            x       y       z     vdW  Elec       q    Type
                         _______ _______ _______ _____ _____    ______ ____

>  <TORSDO>
F 10

$$$$
