=
 OpenBabel11042416543D

 35 36  0  0  1  0  0  0  0  0999 V2000
  192.0780  176.2060  145.4600 C   0  0  0  0  0  0  0  0  0  0  0  0
  190.6460  176.6240  145.2900 C   0  0  1  0  0  3  0  0  0  0  0  0
  193.9450  176.2080  143.8110 N   0  0  0  0  0  0  0  0  0  0  0  0
  190.4650  176.3340  143.7760 C   0  0  0  0  0  0  0  0  0  0  0  0
  189.3110  175.6160  143.1850 N   0  0  0  0  0  2  0  0  0  0  0  0
  192.5530  175.7690  144.1620 C   0  0  2  0  0  3  0  0  0  0  0  0
  191.6060  176.1050  143.1780 N   0  0  0  0  0  0  0  0  0  0  0  0
  192.9110  176.2290  146.5050 C   0  0  0  0  0  3  0  0  0  0  0  0
  194.3900  175.8760  142.4570 C   0  0  0  0  0  1  0  0  0  0  0  0
  194.4500  175.9100  146.2610 C   0  0  0  0  0  3  0  0  0  0  0  0
  194.8630  175.9280  144.9380 C   0  0  0  0  0  3  0  0  0  0  0  0
  189.5010  176.0060  146.1070 C   0  0  0  0  0  2  0  0  0  0  0  0
  189.6250  177.8600  147.4420 O   0  0  0  0  0  0  0  0  0  0  0  0
  187.4460  177.3420  146.9840 N   0  0  0  0  0  0  0  0  0  0  0  0
  188.8400  177.0900  146.8920 C   0  0  0  0  0  0  0  0  0  0  0  0
  184.9160  178.8660  146.7390 O   0  0  0  0  0  0  0  0  0  0  0  0
  185.5240  178.3920  145.7380 C   0  0  0  0  0  0  0  0  0  0  0  0
  186.8590  177.8870  145.8400 N   0  0  0  0  0  0  0  0  0  0  0  0
  184.8690  178.4630  144.3900 C   0  0  0  0  0  2  0  0  0  0  0  0
  185.7830  179.1830  143.3990 C   0  0  0  0  0  2  0  0  0  0  0  0
  185.3970  178.3230  140.8030 O   0  0  0  0  0  0  0  0  0  0  0  0
  187.6940  178.3580  141.8110 O   0  0  0  0  0  1  0  0  0  0  0  0
  185.9690  176.3860  142.7880 O   0  0  0  0  0  1  0  0  0  0  0  0
  186.2950  177.9570  142.1800 P   0  0  0  0  0  0  0  0  0  0  0  0
  189.2050  175.1390  141.8080 C   0  0  0  0  0  2  0  0  0  0  0  0
  188.5090  173.8300  141.7670 C   0  0  0  0  0  2  0  0  0  0  0  0
  189.5110  172.7380  142.1320 C   0  0  0  0  0  2  0  0  0  0  0  0
  189.1660  172.0600  143.4940 C   0  0  0  0  0  2  0  0  0  0  0  0
  190.1740  172.3720  144.5970 C   0  0  0  0  0  2  0  0  0  0  0  0
  191.5990  172.3300  144.2230 C   0  0  0  0  0  2  0  0  0  0  0  0
  192.0860  170.3950  142.9130 O   0  0  0  0  0  1  0  0  0  0  0  0
  192.3250  170.9900  144.1460 C   0  0  1  0  0  3  0  0  0  0  0  0
  193.8430  171.1960  144.2530 C   0  0  0  0  0  2  0  0  0  0  0  0
  194.1080  172.1210  145.3960 C   0  0  0  0  0  2  0  0  0  0  0  0
  195.6090  172.3880  145.6670 C   0  0  0  0  0  1  0  0  0  0  0  0
  1  8  2  0  0  0  0
  2  1  1  0  0  0  0
  2 12  1  1  0  0  0
  3  6  1  0  0  0  0
  3 11  1  0  0  0  0
  4  2  1  0  0  0  0
  5  4  1  0  0  0  0
  6  7  1  6  0  0  0
  6  1  1  0  0  0  0
  7  4  2  0  0  0  0
  9  3  1  0  0  0  0
 10  8  1  0  0  0  0
 11 10  2  0  0  0  0
 12 15  1  0  0  0  0
 15 14  1  0  0  0  0
 15 13  2  0  0  0  0
 17 18  1  0  0  0  0
 17 16  2  0  0  0  0
 18 14  2  0  0  0  0
 19 17  1  0  0  0  0
 20 19  1  0  0  0  0
 21 24  2  0  0  0  0
 22 24  1  0  0  0  0
 24 23  1  0  0  0  0
 24 20  1  0  0  0  0
 25  5  1  0  0  0  0
 26 25  1  0  0  0  0
 26 27  1  0  0  0  0
 27 28  1  0  0  0  0
 28 29  1  0  0  0  0
 30 29  1  0  0  0  0
 32 31  1  6  0  0  0
 32 30  1  0  0  0  0
 32 33  1  0  0  0  0
 33 34  1  0  0  0  0
 34 35  1  0  0  0  0
M  END
>  <MODEL>
1

>  <REMARK>
 VINA RESULT:      -6.0      0.000      0.000
  Name = 
  15 active torsions:
  status: ('A' for Active; 'I' for Inactive)
    1  A    between atoms: C_1  and  C_14
    2  A    between atoms: C_1  and  C_32
    3  A    between atoms: C_5  and  C_22
    4  A    between atoms: C_6  and  C_31
    5  A    between atoms: C_7  and  C_16
    6  A    between atoms: C_7  and  C_27
    7  A    between atoms: N_12  and  C_32
    8  A    between atoms: C_14  and  C_16
    9  A    between atoms: C_18  and  C_28
   10  A    between atoms: C_22  and  C_30
   11  A    between atoms: N_25  and  N_26
   12  A    between atoms: C_27  and  C_29
   13  A    between atoms: C_28  and  C_34
   14  A    between atoms: C_29  and  C_31
   15  A    between atoms: C_34  and  P_35
                            x       y       z     vdW  Elec       q    Type
                         _______ _______ _______ _____ _____    ______ ____

>  <TORSDO>
F 15

$$$$
=
 OpenBabel11042416543D

 35 36  0  0  1  0  0  0  0  0999 V2000
  186.5250  177.2930  144.3680 C   0  0  0  0  0  0  0  0  0  0  0  0
  187.8830  176.7770  143.9890 C   0  0  1  0  0  3  0  0  0  0  0  0
  185.8100  178.5580  146.3920 N   0  0  0  0  0  0  0  0  0  0  0  0
  188.4890  176.5650  145.4010 C   0  0  0  0  0  0  0  0  0  0  0  0
  189.2180  175.3500  145.8340 N   0  0  0  0  0  2  0  0  0  0  0  0
  186.4760  177.3420  145.8170 C   0  0  2  0  0  3  0  0  0  0  0  0
  187.7640  177.1210  146.3370 N   0  0  0  0  0  0  0  0  0  0  0  0
  185.4860  177.7250  143.6480 C   0  0  0  0  0  3  0  0  0  0  0  0
  185.8620  178.6770  147.8500 C   0  0  0  0  0  1  0  0  0  0  0  0
  184.2700  178.4190  144.4030 C   0  0  0  0  0  3  0  0  0  0  0  0
  184.5150  178.7940  145.7150 C   0  0  0  0  0  3  0  0  0  0  0  0
  188.0790  175.5280  143.1150 C   0  0  0  0  0  2  0  0  0  0  0  0
  188.5840  177.1320  141.5640 O   0  0  0  0  0  0  0  0  0  0  0  0
  188.0870  175.1490  140.5400 N   0  0  0  0  0  2  0  0  0  0  0  0
  188.2310  175.9610  141.6950 C   0  0  0  0  0  0  0  0  0  0  0  0
  188.0760  172.6940  138.8800 O   0  0  0  0  0  0  0  0  0  0  0  0
  188.9920  172.9480  139.7140 C   0  0  0  0  0  0  0  0  0  0  0  0
  189.1230  174.2390  140.3150 N   0  0  0  0  0  2  0  0  0  0  0  0
  190.0310  171.9010  139.9920 C   0  0  0  0  0  2  0  0  0  0  0  0
  191.2000  172.5140  140.7620 C   0  0  0  0  0  2  0  0  0  0  0  0
  190.4780  172.9380  143.3930 O   0  0  0  0  0  1  0  0  0  0  0  0
  190.1420  170.6950  142.3210 O   0  0  0  0  0  0  0  0  0  0  0  0
  192.7930  171.3950  142.8690 O   0  0  0  0  0  1  0  0  0  0  0  0
  191.1850  171.7720  142.4050 P   0  0  0  0  0  0  0  0  0  0  0  0
  189.6150  175.0240  147.2020 C   0  0  0  0  0  2  0  0  0  0  0  0
  190.7450  175.8820  147.6310 C   0  0  0  0  0  2  0  0  0  0  0  0
  192.0370  175.2980  147.0670 C   0  0  0  0  0  2  0  0  0  0  0  0
  193.1160  176.3980  146.8190 C   0  0  0  0  0  2  0  0  0  0  0  0
  194.3350  175.8880  146.0540 C   0  0  0  0  0  2  0  0  0  0  0  0
  194.5270  176.4100  144.6900 C   0  0  0  0  0  2  0  0  0  0  0  0
  193.3990  174.4500  143.9250 O   0  0  0  0  0  1  0  0  0  0  0  0
  194.0690  175.5870  143.4890 C   0  0  1  0  0  3  0  0  0  0  0  0
  193.0740  176.3890  142.6370 C   0  0  0  0  0  2  0  0  0  0  0  0
  191.8030  176.5240  143.4100 C   0  0  0  0  0  2  0  0  0  0  0  0
  191.3790  177.9870  143.6930 C   0  0  0  0  0  1  0  0  0  0  0  0
  2 12  1  1  0  0  0
  2  1  1  0  0  0  0
  2  4  1  0  0  0  0
  3  9  1  0  0  0  0
  4  5  1  0  0  0  0
  4  7  2  0  0  0  0
  5 25  1  0  0  0  0
  6  1  1  6  0  0  0
  6  7  1  0  0  0  0
  6  3  1  0  0  0  0
  8  1  2  0  0  0  0
  8 10  1  0  0  0  0
 10 11  2  0  0  0  0
 11  3  1  0  0  0  0
 13 15  2  0  0  0  0
 14 15  1  0  0  0  0
 15 12  1  0  0  0  0
 16 17  2  0  0  0  0
 17 19  1  0  0  0  0
 17 18  1  0  0  0  0
 18 14  1  0  0  0  0
 19 20  1  0  0  0  0
 20 24  1  0  0  0  0
 22 24  2  0  0  0  0
 24 23  1  0  0  0  0
 24 21  1  0  0  0  0
 25 26  1  0  0  0  0
 27 26  1  0  0  0  0
 28 27  1  0  0  0  0
 29 28  1  0  0  0  0
 30 29  1  0  0  0  0
 32 31  1  1  0  0  0
 32 30  1  0  0  0  0
 33 34  1  0  0  0  0
 33 32  1  0  0  0  0
 34 35  1  0  0  0  0
M  END
>  <MODEL>
2

>  <REMARK>
 VINA RESULT:      -6.0      3.165      7.102
  Name = 
  15 active torsions:
  status: ('A' for Active; 'I' for Inactive)
    1  A    between atoms: C_1  and  C_14
    2  A    between atoms: C_1  and  C_32
    3  A    between atoms: C_5  and  C_22
    4  A    between atoms: C_6  and  C_31
    5  A    between atoms: C_7  and  C_16
    6  A    between atoms: C_7  and  C_27
    7  A    between atoms: N_12  and  C_32
    8  A    between atoms: C_14  and  C_16
    9  A    between atoms: C_18  and  C_28
   10  A    between atoms: C_22  and  C_30
   11  A    between atoms: N_25  and  N_26
   12  A    between atoms: C_27  and  C_29
   13  A    between atoms: C_28  and  C_34
   14  A    between atoms: C_29  and  C_31
   15  A    between atoms: C_34  and  P_35
                            x       y       z     vdW  Elec       q    Type
                         _______ _______ _______ _____ _____    ______ ____

>  <TORSDO>
F 15

$$$$
=
 OpenBabel11042416543D

 35 36  0  0  1  0  0  0  0  0999 V2000
  195.2330  172.3060  145.4900 C   0  0  0  0  0  0  0  0  0  0  0  0
  194.5910  173.5780  145.0170 C   0  0  1  0  0  3  0  0  0  0  0  0
  194.8770  169.9610  144.7250 N   0  0  0  0  0  0  0  0  0  0  0  0
  193.2240  173.0210  144.5390 C   0  0  0  0  0  0  0  0  0  0  0  0
  191.9070  173.6190  144.8630 N   0  0  0  0  0  2  0  0  0  0  0  0
  194.2830  171.2350  145.2550 C   0  0  2  0  0  3  0  0  0  0  0  0
  193.2200  171.7150  144.4700 N   0  0  0  0  0  0  0  0  0  0  0  0
  196.4420  172.0310  145.9880 C   0  0  0  0  0  3  0  0  0  0  0  0
  193.9150  168.9160  144.3700 C   0  0  0  0  0  1  0  0  0  0  0  0
  196.8620  170.5080  146.1760 C   0  0  0  0  0  3  0  0  0  0  0  0
  196.0600  169.5810  145.5290 C   0  0  0  0  0  3  0  0  0  0  0  0
  194.3960  174.7960  145.9330 C   0  0  0  0  0  2  0  0  0  0  0  0
  195.3480  175.9780  144.2210 O   0  0  0  0  0  0  0  0  0  0  0  0
  193.6650  177.1830  145.1940 N   0  0  0  0  0  2  0  0  0  0  0  0
  194.4940  176.0330  145.1040 C   0  0  0  0  0  0  0  0  0  0  0  0
  192.7770  176.5370  142.4420 O   0  0  0  0  0  0  0  0  0  0  0  0
  191.9850  176.9610  143.3300 C   0  0  0  0  0  0  0  0  0  0  0  0
  192.3660  177.0240  144.7070 N   0  0  0  0  0  2  0  0  0  0  0  0
  190.5760  177.3020  142.9430 C   0  0  0  0  0  2  0  0  0  0  0  0
  189.8040  176.0300  142.5950 C   0  0  0  0  0  2  0  0  0  0  0  0
  187.8920  175.8290  140.6130 O   0  0  0  0  0  0  0  0  0  0  0  0
  187.2350  175.7770  143.0330 O   0  0  0  0  0  1  0  0  0  0  0  0
  188.0790  178.2570  142.0550 O   0  0  0  0  0  1  0  0  0  0  0  0
  188.1440  176.5440  142.1170 P   0  0  0  0  0  0  0  0  0  0  0  0
  190.6000  173.0150  144.6150 C   0  0  0  0  0  2  0  0  0  0  0  0
  189.6690  173.3260  145.7260 C   0  0  0  0  0  2  0  0  0  0  0  0
  190.1050  174.6400  146.3690 C   0  0  0  0  0  2  0  0  0  0  0  0
  188.8850  175.5030  146.8170 C   0  0  0  0  0  2  0  0  0  0  0  0
  188.7930  176.8430  146.0890 C   0  0  0  0  0  2  0  0  0  0  0  0
  187.4830  177.5180  146.1060 C   0  0  0  0  0  2  0  0  0  0  0  0
  186.2400  178.0990  148.0600 O   0  0  0  0  0  1  0  0  0  0  0  0
  186.4230  177.0930  147.1180 C   0  0  1  0  0  3  0  0  0  0  0  0
  185.0700  176.8850  146.4220 C   0  0  0  0  0  2  0  0  0  0  0  0
  184.2800  178.1470  146.5550 C   0  0  0  0  0  2  0  0  0  0  0  0
  184.1060  178.9330  145.2320 C   0  0  0  0  0  1  0  0  0  0  0  0
  1  8  2  0  0  0  0
  2  1  1  0  0  0  0
  2 12  1  1  0  0  0
  3  6  1  0  0  0  0
  3 11  1  0  0  0  0
  4  5  1  0  0  0  0
  4  2  1  0  0  0  0
  6  7  1  6  0  0  0
  6  1  1  0  0  0  0
  7  4  2  0  0  0  0
  8 10  1  0  0  0  0
  9  3  1  0  0  0  0
 11 10  2  0  0  0  0
 13 15  2  0  0  0  0
 15 14  1  0  0  0  0
 15 12  1  0  0  0  0
 16 17  2  0  0  0  0
 17 18  1  0  0  0  0
 18 14  1  0  0  0  0
 19 17  1  0  0  0  0
 20 19  1  0  0  0  0
 21 24  2  0  0  0  0
 23 24  1  0  0  0  0
 24 20  1  0  0  0  0
 24 22  1  0  0  0  0
 25  5  1  0  0  0  0
 25 26  1  0  0  0  0
 26 27  1  0  0  0  0
 27 28  1  0  0  0  0
 29 30  1  0  0  0  0
 29 28  1  0  0  0  0
 30 32  1  0  0  0  0
 32 31  1  1  0  0  0
 33 34  1  0  0  0  0
 33 32  1  0  0  0  0
 35 34  1  0  0  0  0
M  END
>  <MODEL>
3

>  <REMARK>
 VINA RESULT:      -5.9      2.531      6.589
  Name = 
  15 active torsions:
  status: ('A' for Active; 'I' for Inactive)
    1  A    between atoms: C_1  and  C_14
    2  A    between atoms: C_1  and  C_32
    3  A    between atoms: C_5  and  C_22
    4  A    between atoms: C_6  and  C_31
    5  A    between atoms: C_7  and  C_16
    6  A    between atoms: C_7  and  C_27
    7  A    between atoms: N_12  and  C_32
    8  A    between atoms: C_14  and  C_16
    9  A    between atoms: C_18  and  C_28
   10  A    between atoms: C_22  and  C_30
   11  A    between atoms: N_25  and  N_26
   12  A    between atoms: C_27  and  C_29
   13  A    between atoms: C_28  and  C_34
   14  A    between atoms: C_29  and  C_31
   15  A    between atoms: C_34  and  P_35
                            x       y       z     vdW  Elec       q    Type
                         _______ _______ _______ _____ _____    ______ ____

>  <TORSDO>
F 15

$$$$
=
 OpenBabel11042416543D

 35 36  0  0  1  0  0  0  0  0999 V2000
  190.7750  174.0870  142.3410 C   0  0  0  0  0  0  0  0  0  0  0  0
  189.6550  174.8870  142.9410 C   0  0  1  0  0  3  0  0  0  0  0  0
  191.6870  171.8690  143.0170 N   0  0  0  0  0  0  0  0  0  0  0  0
  189.7370  174.3960  144.4100 C   0  0  0  0  0  0  0  0  0  0  0  0
  189.7080  175.2790  145.5990 N   0  0  0  0  0  2  0  0  0  0  0  0
  191.3380  173.2760  143.4040 C   0  0  2  0  0  3  0  0  0  0  0  0
  190.5080  173.3460  144.5370 N   0  0  0  0  0  0  0  0  0  0  0  0
  191.2430  173.9740  141.0950 C   0  0  0  0  0  3  0  0  0  0  0  0
  192.1420  171.0070  144.1090 C   0  0  0  0  0  1  0  0  0  0  0  0
  192.3170  172.8430  140.7820 C   0  0  0  0  0  3  0  0  0  0  0  0
  192.4610  171.8670  141.7550 C   0  0  0  0  0  3  0  0  0  0  0  0
  189.6100  176.4220  142.8770 C   0  0  0  0  0  2  0  0  0  0  0  0
  188.1470  175.9150  141.1920 O   0  0  0  0  0  0  0  0  0  0  0  0
  187.9010  178.0930  141.8450 N   0  0  0  0  0  2  0  0  0  0  0  0
  188.5370  176.8250  141.9220 C   0  0  0  0  0  0  0  0  0  0  0  0
  185.0050  177.4920  142.0280 O   0  0  0  0  0  0  0  0  0  0  0  0
  185.5850  178.2940  142.8140 C   0  0  0  0  0  0  0  0  0  0  0  0
  187.0100  178.3800  142.8820 N   0  0  0  0  0  2  0  0  0  0  0  0
  184.7560  179.0930  143.7770 C   0  0  0  0  0  2  0  0  0  0  0  0
  185.6390  179.6550  144.8900 C   0  0  0  0  0  2  0  0  0  0  0  0
  185.8920  179.5120  147.6360 O   0  0  0  0  0  1  0  0  0  0  0  0
  183.9410  178.4460  146.4740 O   0  0  0  0  0  1  0  0  0  0  0  0
  186.4080  177.1790  146.1170 O   0  0  0  0  0  0  0  0  0  0  0  0
  185.4280  178.5730  146.3160 P   0  0  0  0  0  0  0  0  0  0  0  0
  189.9940  174.8820  146.9760 C   0  0  0  0  0  2  0  0  0  0  0  0
  191.1480  175.6480  147.5050 C   0  0  0  0  0  2  0  0  0  0  0  0
  192.4220  175.1080  146.8620 C   0  0  0  0  0  2  0  0  0  0  0  0
  193.4150  176.2510  146.4840 C   0  0  0  0  0  2  0  0  0  0  0  0
  193.1650  176.8340  145.0950 C   0  0  0  0  0  2  0  0  0  0  0  0
  193.5110  175.9790  143.9460 C   0  0  0  0  0  2  0  0  0  0  0  0
  195.7270  176.8460  144.1460 O   0  0  0  0  0  1  0  0  0  0  0  0
  194.9470  175.9430  143.4310 C   0  0  1  0  0  3  0  0  0  0  0  0
  195.5620  174.5540  143.6530 C   0  0  0  0  0  2  0  0  0  0  0  0
  196.6670  174.6870  144.6490 C   0  0  0  0  0  2  0  0  0  0  0  0
  196.4390  173.9030  145.9650 C   0  0  0  0  0  1  0  0  0  0  0  0
  1  2  1  0  0  0  0
  2 12  1  1  0  0  0
  2  4  1  0  0  0  0
  3  6  1  0  0  0  0
  3  9  1  0  0  0  0
  4  7  2  0  0  0  0
  4  5  1  0  0  0  0
  5 25  1  0  0  0  0
  6  1  1  6  0  0  0
  6  7  1  0  0  0  0
  8  1  2  0  0  0  0
 10  8  1  0  0  0  0
 10 11  2  0  0  0  0
 11  3  1  0  0  0  0
 13 15  2  0  0  0  0
 14 15  1  0  0  0  0
 14 18  1  0  0  0  0
 15 12  1  0  0  0  0
 16 17  2  0  0  0  0
 17 18  1  0  0  0  0
 17 19  1  0  0  0  0
 19 20  1  0  0  0  0
 20 24  1  0  0  0  0
 23 24  2  0  0  0  0
 24 22  1  0  0  0  0
 24 21  1  0  0  0  0
 25 26  1  0  0  0  0
 27 26  1  0  0  0  0
 28 27  1  0  0  0  0
 29 28  1  0  0  0  0
 30 29  1  0  0  0  0
 32 33  1  0  0  0  0
 32 30  1  0  0  0  0
 32 31  1  1  0  0  0
 33 34  1  0  0  0  0
 34 35  1  0  0  0  0
M  END
>  <MODEL>
4

>  <REMARK>
 VINA RESULT:      -5.8      2.455      4.808
  Name = 
  15 active torsions:
  status: ('A' for Active; 'I' for Inactive)
    1  A    between atoms: C_1  and  C_14
    2  A    between atoms: C_1  and  C_32
    3  A    between atoms: C_5  and  C_22
    4  A    between atoms: C_6  and  C_31
    5  A    between atoms: C_7  and  C_16
    6  A    between atoms: C_7  and  C_27
    7  A    between atoms: N_12  and  C_32
    8  A    between atoms: C_14  and  C_16
    9  A    between atoms: C_18  and  C_28
   10  A    between atoms: C_22  and  C_30
   11  A    between atoms: N_25  and  N_26
   12  A    between atoms: C_27  and  C_29
   13  A    between atoms: C_28  and  C_34
   14  A    between atoms: C_29  and  C_31
   15  A    between atoms: C_34  and  P_35
                            x       y       z     vdW  Elec       q    Type
                         _______ _______ _______ _____ _____    ______ ____

>  <TORSDO>
F 15

$$$$
=
 OpenBabel11042416543D

 35 36  0  0  1  0  0  0  0  0999 V2000
  189.7470  173.9990  143.5930 C   0  0  0  0  0  0  0  0  0  0  0  0
  190.3630  173.6890  144.9260 C   0  0  1  0  0  3  0  0  0  0  0  0
  189.5270  172.5650  141.5670 N   0  0  0  0  0  0  0  0  0  0  0  0
  191.4180  172.6380  144.4910 C   0  0  0  0  0  0  0  0  0  0  0  0
  192.8350  172.6330  144.9240 N   0  0  0  0  0  2  0  0  0  0  0  0
  190.4210  173.1750  142.6080 C   0  0  2  0  0  3  0  0  0  0  0  0
  191.2280  172.2280  143.2630 N   0  0  0  0  0  0  0  0  0  0  0  0
  188.7370  174.7930  143.2230 C   0  0  0  0  0  3  0  0  0  0  0  0
  190.1770  171.6350  140.6430 C   0  0  0  0  0  1  0  0  0  0  0  0
  188.2040  174.7030  141.7270 C   0  0  0  0  0  3  0  0  0  0  0  0
  188.6260  173.5970  141.0060 C   0  0  0  0  0  3  0  0  0  0  0  0
  191.0000  174.7700  145.8140 C   0  0  0  0  0  2  0  0  0  0  0  0
  190.6640  175.1640  148.0420 O   0  0  0  0  0  0  0  0  0  0  0  0
  188.6820  175.2320  146.9040 N   0  0  0  0  0  2  0  0  0  0  0  0
  190.0870  175.0380  146.9630 C   0  0  0  0  0  0  0  0  0  0  0  0
  186.2980  176.8550  147.5840 O   0  0  0  0  0  0  0  0  0  0  0  0
  186.9880  177.0630  146.5460 C   0  0  0  0  0  0  0  0  0  0  0  0
  188.2680  176.4510  146.3610 N   0  0  0  0  0  2  0  0  0  0  0  0
  186.5010  178.0610  145.5370 C   0  0  0  0  0  2  0  0  0  0  0  0
  185.9020  177.3390  144.3310 C   0  0  0  0  0  2  0  0  0  0  0  0
  185.3180  180.0290  144.1180 O   0  0  0  0  0  1  0  0  0  0  0  0
  186.4360  178.8100  142.2320 O   0  0  0  0  0  0  0  0  0  0  0  0
  183.7400  178.1930  142.6510 O   0  0  0  0  0  1  0  0  0  0  0  0
  185.3080  178.6150  143.2040 P   0  0  0  0  0  0  0  0  0  0  0  0
  193.9020  171.7970  144.3780 C   0  0  0  0  0  2  0  0  0  0  0  0
  195.0630  172.6320  143.9870 C   0  0  0  0  0  2  0  0  0  0  0  0
  195.8070  173.0460  145.2540 C   0  0  0  0  0  2  0  0  0  0  0  0
  195.4940  174.5210  145.6580 C   0  0  0  0  0  2  0  0  0  0  0  0
  195.3960  175.4670  144.4640 C   0  0  0  0  0  2  0  0  0  0  0  0
  194.0870  176.1020  144.2280 C   0  0  0  0  0  2  0  0  0  0  0  0
  193.9040  175.2310  142.0130 O   0  0  0  0  0  1  0  0  0  0  0  0
  193.6020  176.3360  142.8000 C   0  0  1  0  0  3  0  0  0  0  0  0
  192.0750  176.4980  142.7720 C   0  0  0  0  0  2  0  0  0  0  0  0
  191.7120  177.6410  143.6640 C   0  0  0  0  0  2  0  0  0  0  0  0
  190.2400  178.1050  143.5400 C   0  0  0  0  0  1  0  0  0  0  0  0
  1  2  1  0  0  0  0
  2 12  1  6  0  0  0
  3  6  1  0  0  0  0
  4  5  1  0  0  0  0
  4  2  1  0  0  0  0
  6  7  1  1  0  0  0
  6  1  1  0  0  0  0
  7  4  2  0  0  0  0
  8  1  2  0  0  0  0
  9  3  1  0  0  0  0
 10  8  1  0  0  0  0
 11  3  1  0  0  0  0
 11 10  2  0  0  0  0
 12 15  1  0  0  0  0
 14 15  1  0  0  0  0
 15 13  2  0  0  0  0
 17 16  2  0  0  0  0
 18 17  1  0  0  0  0
 18 14  1  0  0  0  0
 19 17  1  0  0  0  0
 20 19  1  0  0  0  0
 22 24  2  0  0  0  0
 23 24  1  0  0  0  0
 24 21  1  0  0  0  0
 24 20  1  0  0  0  0
 25  5  1  0  0  0  0
 26 25  1  0  0  0  0
 26 27  1  0  0  0  0
 27 28  1  0  0  0  0
 29 28  1  0  0  0  0
 30 29  1  0  0  0  0
 32 31  1  6  0  0  0
 32 30  1  0  0  0  0
 33 32  1  0  0  0  0
 33 34  1  0  0  0  0
 35 34  1  0  0  0  0
M  END
>  <MODEL>
5

>  <REMARK>
 VINA RESULT:      -5.7      2.127      4.895
  Name = 
  15 active torsions:
  status: ('A' for Active; 'I' for Inactive)
    1  A    between atoms: C_1  and  C_14
    2  A    between atoms: C_1  and  C_32
    3  A    between atoms: C_5  and  C_22
    4  A    between atoms: C_6  and  C_31
    5  A    between atoms: C_7  and  C_16
    6  A    between atoms: C_7  and  C_27
    7  A    between atoms: N_12  and  C_32
    8  A    between atoms: C_14  and  C_16
    9  A    between atoms: C_18  and  C_28
   10  A    between atoms: C_22  and  C_30
   11  A    between atoms: N_25  and  N_26
   12  A    between atoms: C_27  and  C_29
   13  A    between atoms: C_28  and  C_34
   14  A    between atoms: C_29  and  C_31
   15  A    between atoms: C_34  and  P_35
                            x       y       z     vdW  Elec       q    Type
                         _______ _______ _______ _____ _____    ______ ____

>  <TORSDO>
F 15

$$$$
=
 OpenBabel11042416543D

 35 36  0  0  1  0  0  0  0  0999 V2000
  185.6370  177.8370  142.9180 C   0  0  0  0  0  0  0  0  0  0  0  0
  186.5590  177.3360  143.9920 C   0  0  1  0  0  3  0  0  0  0  0  0
  185.7440  177.5190  140.4490 N   0  0  0  0  0  0  0  0  0  0  0  0
  187.8820  177.2560  143.1870 C   0  0  0  0  0  0  0  0  0  0  0  0
  189.1900  177.7710  143.6560 N   0  0  0  0  0  2  0  0  0  0  0  0
  186.4240  177.9750  141.7080 C   0  0  2  0  0  3  0  0  0  0  0  0
  187.6840  177.3810  141.8990 N   0  0  0  0  0  0  0  0  0  0  0  0
  184.3250  178.0920  142.8950 C   0  0  0  0  0  3  0  0  0  0  0  0
  186.5720  177.5400  139.2420 C   0  0  0  0  0  1  0  0  0  0  0  0
  183.6320  178.4020  141.4980 C   0  0  0  0  0  3  0  0  0  0  0  0
  184.3810  178.0900  140.3750 C   0  0  0  0  0  3  0  0  0  0  0  0
  186.7680  178.0850  145.3170 C   0  0  0  0  0  2  0  0  0  0  0  0
  184.9970  176.9890  146.2640 O   0  0  0  0  0  0  0  0  0  0  0  0
  186.8760  176.7400  147.5440 N   0  0  0  0  0  2  0  0  0  0  0  0
  186.1850  177.2670  146.4210 C   0  0  0  0  0  0  0  0  0  0  0  0
  189.8040  176.7610  147.0840 O   0  0  0  0  0  0  0  0  0  0  0  0
  189.0800  175.7610  146.8140 C   0  0  0  0  0  0  0  0  0  0  0  0
  187.7290  175.6670  147.2720 N   0  0  0  0  0  2  0  0  0  0  0  0
  189.6910  174.5970  146.0910 C   0  0  0  0  0  2  0  0  0  0  0  0
  189.3240  174.6490  144.6080 C   0  0  0  0  0  2  0  0  0  0  0  0
  189.6720  171.9410  145.0200 O   0  0  0  0  0  1  0  0  0  0  0  0
  188.9700  172.8130  142.7750 O   0  0  0  0  0  0  0  0  0  0  0  0
  191.6200  173.3300  143.5050 O   0  0  0  0  0  1  0  0  0  0  0  0
  189.9540  173.1330  143.8640 P   0  0  0  0  0  0  0  0  0  0  0  0
  190.4030  177.9070  142.8520 C   0  0  0  0  0  2  0  0  0  0  0  0
  191.5840  178.0960  143.7290 C   0  0  0  0  0  2  0  0  0  0  0  0
  192.4050  176.8090  143.7170 C   0  0  0  0  0  2  0  0  0  0  0  0
  192.7140  176.3010  145.1600 C   0  0  0  0  0  2  0  0  0  0  0  0
  194.1140  176.6730  145.6440 C   0  0  0  0  0  2  0  0  0  0  0  0
  194.9400  175.5780  146.1830 C   0  0  0  0  0  2  0  0  0  0  0  0
  196.2610  175.3130  144.2120 O   0  0  0  0  0  1  0  0  0  0  0  0
  195.6310  174.6070  145.2300 C   0  0  1  0  0  3  0  0  0  0  0  0
  196.7240  173.8180  145.9660 C   0  0  0  0  0  2  0  0  0  0  0  0
  196.6010  172.3810  145.5800 C   0  0  0  0  0  2  0  0  0  0  0  0
  195.1420  171.8860  145.4140 C   0  0  0  0  0  1  0  0  0  0  0  0
  1  2  1  0  0  0  0
  2 12  1  1  0  0  0
  3  6  1  0  0  0  0
  4  5  1  0  0  0  0
  4  2  1  0  0  0  0
  6  7  1  1  0  0  0
  6  1  1  0  0  0  0
  7  4  2  0  0  0  0
  8  1  2  0  0  0  0
  9  3  1  0  0  0  0
 10  8  1  0  0  0  0
 11  3  1  0  0  0  0
 11 10  2  0  0  0  0
 12 15  1  0  0  0  0
 13 15  2  0  0  0  0
 15 14  1  0  0  0  0
 17 16  2  0  0  0  0
 17 18  1  0  0  0  0
 18 14  1  0  0  0  0
 19 17  1  0  0  0  0
 20 19  1  0  0  0  0
 22 24  2  0  0  0  0
 23 24  1  0  0  0  0
 24 20  1  0  0  0  0
 24 21  1  0  0  0  0
 25  5  1  0  0  0  0
 25 26  1  0  0  0  0
 27 26  1  0  0  0  0
 27 28  1  0  0  0  0
 28 29  1  0  0  0  0
 29 30  1  0  0  0  0
 32 31  1  6  0  0  0
 32 33  1  0  0  0  0
 32 30  1  0  0  0  0
 34 33  1  0  0  0  0
 35 34  1  0  0  0  0
M  END
>  <MODEL>
6

>  <REMARK>
 VINA RESULT:      -5.7      2.768      6.095
  Name = 
  15 active torsions:
  status: ('A' for Active; 'I' for Inactive)
    1  A    between atoms: C_1  and  C_14
    2  A    between atoms: C_1  and  C_32
    3  A    between atoms: C_5  and  C_22
    4  A    between atoms: C_6  and  C_31
    5  A    between atoms: C_7  and  C_16
    6  A    between atoms: C_7  and  C_27
    7  A    between atoms: N_12  and  C_32
    8  A    between atoms: C_14  and  C_16
    9  A    between atoms: C_18  and  C_28
   10  A    between atoms: C_22  and  C_30
   11  A    between atoms: N_25  and  N_26
   12  A    between atoms: C_27  and  C_29
   13  A    between atoms: C_28  and  C_34
   14  A    between atoms: C_29  and  C_31
   15  A    between atoms: C_34  and  P_35
                            x       y       z     vdW  Elec       q    Type
                         _______ _______ _______ _____ _____    ______ ____

>  <TORSDO>
F 15

$$$$
=
 OpenBabel11042416543D

 35 36  0  0  1  0  0  0  0  0999 V2000
  193.6210  174.4890  145.4670 C   0  0  0  0  0  0  0  0  0  0  0  0
  192.3980  175.1530  146.0310 C   0  0  1  0  0  3  0  0  0  0  0  0
  195.6500  175.5020  144.4350 N   0  0  0  0  0  0  0  0  0  0  0  0
  192.3790  176.4440  145.1710 C   0  0  0  0  0  0  0  0  0  0  0  0
  191.1790  176.9930  144.4970 N   0  0  0  0  0  2  0  0  0  0  0  0
  194.1540  175.3710  144.4470 C   0  0  2  0  0  3  0  0  0  0  0  0
  193.4940  176.6110  144.5070 N   0  0  0  0  0  0  0  0  0  0  0  0
  194.2600  173.3560  145.7730 C   0  0  0  0  0  3  0  0  0  0  0  0
  196.1910  176.4810  143.4900 C   0  0  0  0  0  1  0  0  0  0  0  0
  195.6760  173.0740  145.1050 C   0  0  0  0  0  3  0  0  0  0  0  0
  196.2760  174.1610  144.4900 C   0  0  0  0  0  3  0  0  0  0  0  0
  191.0180  174.4760  146.0340 C   0  0  0  0  0  2  0  0  0  0  0  0
  190.9400  175.1620  148.2160 O   0  0  0  0  0  0  0  0  0  0  0  0
  188.8700  175.3010  147.2520 N   0  0  0  0  0  0  0  0  0  0  0  0
  190.2510  174.9710  147.2150 C   0  0  0  0  0  0  0  0  0  0  0  0
  186.3490  176.8480  147.4320 O   0  0  0  0  0  0  0  0  0  0  0  0
  187.2080  177.0500  146.5270 C   0  0  0  0  0  0  0  0  0  0  0  0
  188.5200  176.4840  146.5980 N   0  0  0  0  0  0  0  0  0  0  0  0
  186.8770  177.9940  145.4090 C   0  0  0  0  0  2  0  0  0  0  0  0
  185.5750  177.5700  144.7310 C   0  0  0  0  0  2  0  0  0  0  0  0
  183.5760  178.5770  143.1130 O   0  0  0  0  0  1  0  0  0  0  0  0
  185.1800  180.1170  144.2740 O   0  0  0  0  0  1  0  0  0  0  0  0
  186.2380  178.6350  142.1510 O   0  0  0  0  0  0  0  0  0  0  0  0
  185.1950  178.8310  143.5000 P   0  0  0  0  0  0  0  0  0  0  0  0
  191.1600  178.0750  143.5150 C   0  0  0  0  0  2  0  0  0  0  0  0
  189.7760  178.3200  143.0430 C   0  0  0  0  0  2  0  0  0  0  0  0
  189.3400  177.1340  142.1870 C   0  0  0  0  0  2  0  0  0  0  0  0
  188.5490  176.0750  143.0170 C   0  0  0  0  0  2  0  0  0  0  0  0
  187.5510  175.2750  142.1820 C   0  0  0  0  0  3  0  0  0  0  0  0
  187.8300  173.8380  142.0150 C   0  0  0  0  0  3  0  0  0  0  0  0
  188.9610  171.9240  142.8870 O   0  0  0  0  0  1  0  0  0  0  0  0
  189.1440  173.2540  142.5250 C   0  0  1  0  0  3  0  0  0  0  0  0
  190.2040  173.2700  141.4140 C   0  0  0  0  0  2  0  0  0  0  0  0
  191.4840  173.7720  141.9990 C   0  0  0  0  0  2  0  0  0  0  0  0
  192.3710  172.6730  142.6350 C   0  0  0  0  0  1  0  0  0  0  0  0
  1  8  2  0  0  0  0
  1  2  1  0  0  0  0
  2 12  1  6  0  0  0
  3  6  1  0  0  0  0
  3 11  1  0  0  0  0
  4  2  1  0  0  0  0
  5  4  1  0  0  0  0
  6  7  1  1  0  0  0
  6  1  1  0  0  0  0
  7  4  2  0  0  0  0
  9  3  1  0  0  0  0
 10  8  1  0  0  0  0
 11 10  2  0  0  0  0
 12 15  1  0  0  0  0
 15 14  1  0  0  0  0
 15 13  2  0  0  0  0
 17 18  1  0  0  0  0
 17 16  2  0  0  0  0
 18 14  2  0  0  0  0
 19 17  1  0  0  0  0
 20 19  1  0  0  0  0
 21 24  1  0  0  0  0
 23 24  2  0  0  0  0
 24 22  1  0  0  0  0
 24 20  1  0  0  0  0
 25  5  1  0  0  0  0
 26 25  1  0  0  0  0
 27 28  1  0  0  0  0
 27 26  1  0  0  0  0
 29 28  1  0  0  0  0
 30 29  2  0  0  0  0
 30 32  1  0  0  0  0
 32 31  1  6  0  0  0
 33 34  1  0  0  0  0
 33 32  1  0  0  0  0
 34 35  1  0  0  0  0
M  END
>  <MODEL>
7

>  <REMARK>
 VINA RESULT:      -5.7      1.903      3.246
  Name = 
  15 active torsions:
  status: ('A' for Active; 'I' for Inactive)
    1  A    between atoms: C_1  and  C_14
    2  A    between atoms: C_1  and  C_32
    3  A    between atoms: C_5  and  C_22
    4  A    between atoms: C_6  and  C_31
    5  A    between atoms: C_7  and  C_16
    6  A    between atoms: C_7  and  C_27
    7  A    between atoms: N_12  and  C_32
    8  A    between atoms: C_14  and  C_16
    9  A    between atoms: C_18  and  C_28
   10  A    between atoms: C_22  and  C_30
   11  A    between atoms: N_25  and  N_26
   12  A    between atoms: C_27  and  C_29
   13  A    between atoms: C_28  and  C_34
   14  A    between atoms: C_29  and  C_31
   15  A    between atoms: C_34  and  P_35
                            x       y       z     vdW  Elec       q    Type
                         _______ _______ _______ _____ _____    ______ ____

>  <TORSDO>
F 15

$$$$
=
 OpenBabel11042416543D

 35 36  0  0  1  0  0  0  0  0999 V2000
  186.5730  177.2930  146.0080 C   0  0  0  0  0  0  0  0  0  0  0  0
  187.7310  176.3460  145.8810 C   0  0  1  0  0  3  0  0  0  0  0  0
  185.0890  178.2400  144.2450 N   0  0  0  0  0  0  0  0  0  0  0  0
  188.2080  176.7020  144.4480 C   0  0  0  0  0  0  0  0  0  0  0  0
  189.6170  176.9450  144.0620 N   0  0  0  0  0  2  0  0  0  0  0  0
  186.4830  178.0270  144.7600 C   0  0  2  0  0  3  0  0  0  0  0  0
  187.3390  177.4440  143.8100 N   0  0  0  0  0  0  0  0  0  0  0  0
  185.6710  177.4980  146.9720 C   0  0  0  0  0  3  0  0  0  0  0  0
  184.9920  178.8720  142.9280 C   0  0  0  0  0  1  0  0  0  0  0  0
  184.4300  178.4450  146.6670 C   0  0  0  0  0  3  0  0  0  0  0  0
  184.2190  178.7450  145.3300 C   0  0  0  0  0  3  0  0  0  0  0  0
  188.9100  176.3460  146.8660 C   0  0  0  0  0  2  0  0  0  0  0  0
  188.5670  174.3920  148.0070 O   0  0  0  0  0  0  0  0  0  0  0  0
  190.2890  174.1650  146.5200 N   0  0  0  0  0  2  0  0  0  0  0  0
  189.2810  174.9310  147.1620 C   0  0  0  0  0  0  0  0  0  0  0  0
  192.0810  172.9360  144.5050 O   0  0  0  0  0  0  0  0  0  0  0  0
  190.9460  173.4050  144.2090 C   0  0  0  0  0  0  0  0  0  0  0  0
  189.9940  173.7580  145.2170 N   0  0  0  0  0  2  0  0  0  0  0  0
  190.5490  173.4890  142.7640 C   0  0  0  0  0  2  0  0  0  0  0  0
  189.0270  173.5190  142.6390 C   0  0  0  0  0  2  0  0  0  0  0  0
  190.1360  173.7950  140.1250 O   0  0  0  0  0  0  0  0  0  0  0  0
  187.8890  172.7200  140.4200 O   0  0  0  0  0  1  0  0  0  0  0  0
  187.9770  175.4840  140.8330 O   0  0  0  0  0  1  0  0  0  0  0  0
  188.6550  173.9110  140.9190 P   0  0  0  0  0  0  0  0  0  0  0  0
  190.0820  177.4850  142.7860 C   0  0  0  0  0  2  0  0  0  0  0  0
  191.5630  177.5520  142.7630 C   0  0  0  0  0  2  0  0  0  0  0  0
  192.0730  177.4690  144.1990 C   0  0  0  0  0  2  0  0  0  0  0  0
  193.0630  176.2790  144.3990 C   0  0  0  0  0  2  0  0  0  0  0  0
  194.1940  176.2560  143.3740 C   0  0  0  0  0  2  0  0  0  0  0  0
  195.5690  176.2910  143.9040 C   0  0  0  0  0  2  0  0  0  0  0  0
  197.6910  175.2820  143.4800 O   0  0  0  0  0  1  0  0  0  0  0  0
  196.4040  175.0150  143.9350 C   0  0  1  0  0  3  0  0  0  0  0  0
  196.5410  174.4980  145.3740 C   0  0  0  0  0  2  0  0  0  0  0  0
  195.4300  173.5320  145.6290 C   0  0  0  0  0  2  0  0  0  0  0  0
  195.8160  172.0460  145.4280 C   0  0  0  0  0  1  0  0  0  0  0  0
  1  8  2  0  0  0  0
  2  1  1  0  0  0  0
  2 12  1  1  0  0  0
  3  6  1  0  0  0  0
  3 11  1  0  0  0  0
  4  2  1  0  0  0  0
  5  4  1  0  0  0  0
  6  7  1  6  0  0  0
  6  1  1  0  0  0  0
  7  4  2  0  0  0  0
  9  3  1  0  0  0  0
 10  8  1  0  0  0  0
 11 10  2  0  0  0  0
 12 15  1  0  0  0  0
 14 15  1  0  0  0  0
 15 13  2  0  0  0  0
 17 16  2  0  0  0  0
 17 18  1  0  0  0  0
 18 14  1  0  0  0  0
 19 17  1  0  0  0  0
 20 19  1  0  0  0  0
 21 24  2  0  0  0  0
 22 24  1  0  0  0  0
 23 24  1  0  0  0  0
 24 20  1  0  0  0  0
 25  5  1  0  0  0  0
 26 25  1  0  0  0  0
 26 27  1  0  0  0  0
 27 28  1  0  0  0  0
 29 30  1  0  0  0  0
 29 28  1  0  0  0  0
 30 32  1  0  0  0  0
 32 31  1  1  0  0  0
 32 33  1  0  0  0  0
 33 34  1  0  0  0  0
 35 34  1  0  0  0  0
M  END
>  <MODEL>
8

>  <REMARK>
 VINA RESULT:      -5.7      2.625      6.035
  Name = 
  15 active torsions:
  status: ('A' for Active; 'I' for Inactive)
    1  A    between atoms: C_1  and  C_14
    2  A    between atoms: C_1  and  C_32
    3  A    between atoms: C_5  and  C_22
    4  A    between atoms: C_6  and  C_31
    5  A    between atoms: C_7  and  C_16
    6  A    between atoms: C_7  and  C_27
    7  A    between atoms: N_12  and  C_32
    8  A    between atoms: C_14  and  C_16
    9  A    between atoms: C_18  and  C_28
   10  A    between atoms: C_22  and  C_30
   11  A    between atoms: N_25  and  N_26
   12  A    between atoms: C_27  and  C_29
   13  A    between atoms: C_28  and  C_34
   14  A    between atoms: C_29  and  C_31
   15  A    between atoms: C_34  and  P_35
                            x       y       z     vdW  Elec       q    Type
                         _______ _______ _______ _____ _____    ______ ____

>  <TORSDO>
F 15

$$$$
=
 OpenBabel11042416543D

 35 36  0  0  1  0  0  0  0  0999 V2000
  186.9530  178.1130  144.3290 C   0  0  0  0  0  0  0  0  0  0  0  0
  188.4180  177.7880  144.2870 C   0  0  1  0  0  3  0  0  0  0  0  0
  185.4950  178.6440  146.2790 N   0  0  0  0  0  0  0  0  0  0  0  0
  188.5890  177.1550  145.6930 C   0  0  0  0  0  0  0  0  0  0  0  0
  189.3070  175.8880  145.9690 N   0  0  0  0  0  2  0  0  0  0  0  0
  186.4600  177.6960  145.6280 C   0  0  2  0  0  3  0  0  0  0  0  0
  187.5460  177.3600  146.4560 N   0  0  0  0  0  0  0  0  0  0  0  0
  186.1340  178.7200  143.4660 C   0  0  0  0  0  3  0  0  0  0  0  0
  185.0850  178.2930  147.6390 C   0  0  0  0  0  1  0  0  0  0  0  0
  184.6650  179.0990  143.9440 C   0  0  0  0  0  3  0  0  0  0  0  0
  184.4470  179.0430  145.3120 C   0  0  0  0  0  3  0  0  0  0  0  0
  189.0350  176.8890  143.2040 C   0  0  0  0  0  2  0  0  0  0  0  0
  190.8050  178.2840  143.6000 O   0  0  0  0  0  0  0  0  0  0  0  0
  191.5020  176.3740  142.5520 N   0  0  0  0  0  2  0  0  0  0  0  0
  190.4880  177.2080  143.0940 C   0  0  0  0  0  0  0  0  0  0  0  0
  191.1150  173.4880  142.0000 O   0  0  0  0  0  0  0  0  0  0  0  0
  191.4270  173.9260  143.1440 C   0  0  0  0  0  0  0  0  0  0  0  0
  191.8580  175.2760  143.3390 N   0  0  0  0  0  2  0  0  0  0  0  0
  191.4510  172.9750  144.3040 C   0  0  0  0  0  2  0  0  0  0  0  0
  191.3240  171.5350  143.8060 C   0  0  0  0  0  2  0  0  0  0  0  0
  192.7250  169.1590  143.9260 O   0  0  0  0  0  1  0  0  0  0  0  0
  193.5210  171.0400  142.4710 O   0  0  0  0  0  0  0  0  0  0  0  0
  193.8140  171.4260  145.2250 O   0  0  0  0  0  1  0  0  0  0  0  0
  192.9790  170.8220  143.8540 P   0  0  0  0  0  0  0  0  0  0  0  0
  189.3080  175.1550  147.2330 C   0  0  0  0  0  2  0  0  0  0  0  0
  190.6280  175.2760  147.8990 C   0  0  0  0  0  2  0  0  0  0  0  0
  191.7020  175.4050  146.8220 C   0  0  0  0  0  2  0  0  0  0  0  0
  192.4520  176.7710  146.9070 C   0  0  0  0  0  2  0  0  0  0  0  0
  193.9720  176.6290  146.8780 C   0  0  0  0  0  2  0  0  0  0  0  0
  194.6570  177.0920  145.6580 C   0  0  0  0  0  2  0  0  0  0  0  0
  196.1290  176.4370  143.8960 O   0  0  0  0  0  1  0  0  0  0  0  0
  194.9300  176.1120  144.5210 C   0  0  1  0  0  3  0  0  0  0  0  0
  195.0880  174.6860  145.0690 C   0  0  0  0  0  2  0  0  0  0  0  0
  196.5130  174.4980  145.4750 C   0  0  0  0  0  2  0  0  0  0  0  0
  196.8160  173.1290  146.1330 C   0  0  0  0  0  1  0  0  0  0  0  0
  2 12  1  6  0  0  0
  2  1  1  0  0  0  0
  2  4  1  0  0  0  0
  3  9  1  0  0  0  0
  4  5  1  0  0  0  0
  4  7  2  0  0  0  0
  5 25  1  0  0  0  0
  6  1  1  6  0  0  0
  6  3  1  0  0  0  0
  6  7  1  0  0  0  0
  8 10  1  0  0  0  0
  8  1  2  0  0  0  0
 10 11  2  0  0  0  0
 11  3  1  0  0  0  0
 14 15  1  0  0  0  0
 14 18  1  0  0  0  0
 15 12  1  0  0  0  0
 15 13  2  0  0  0  0
 16 17  2  0  0  0  0
 17 18  1  0  0  0  0
 17 19  1  0  0  0  0
 20 24  1  0  0  0  0
 20 19  1  0  0  0  0
 22 24  2  0  0  0  0
 24 21  1  0  0  0  0
 24 23  1  0  0  0  0
 25 26  1  0  0  0  0
 27 28  1  0  0  0  0
 27 26  1  0  0  0  0
 29 28  1  0  0  0  0
 30 29  1  0  0  0  0
 32 31  1  1  0  0  0
 32 33  1  0  0  0  0
 32 30  1  0  0  0  0
 33 34  1  0  0  0  0
 34 35  1  0  0  0  0
M  END
>  <MODEL>
9

>  <REMARK>
 VINA RESULT:      -5.7      3.055      7.205
  Name = 
  15 active torsions:
  status: ('A' for Active; 'I' for Inactive)
    1  A    between atoms: C_1  and  C_14
    2  A    between atoms: C_1  and  C_32
    3  A    between atoms: C_5  and  C_22
    4  A    between atoms: C_6  and  C_31
    5  A    between atoms: C_7  and  C_16
    6  A    between atoms: C_7  and  C_27
    7  A    between atoms: N_12  and  C_32
    8  A    between atoms: C_14  and  C_16
    9  A    between atoms: C_18  and  C_28
   10  A    between atoms: C_22  and  C_30
   11  A    between atoms: N_25  and  N_26
   12  A    between atoms: C_27  and  C_29
   13  A    between atoms: C_28  and  C_34
   14  A    between atoms: C_29  and  C_31
   15  A    between atoms: C_34  and  P_35
                            x       y       z     vdW  Elec       q    Type
                         _______ _______ _______ _____ _____    ______ ____

>  <TORSDO>
F 15

$$$$
