=
 OpenBabel11042416043D

 64 70  0  0  1  0  0  0  0  0999 V2000
  191.1040  174.0190  143.4500 C   0  0  0  0  0  2  0  0  0  0  0  0
  190.5050  172.6840  143.0730 C   0  0  2  0  0  3  0  0  0  0  0  0
  189.6260  173.7570  143.6970 C   0  0  2  0  0  3  0  0  0  0  0  0
  188.7650  174.3920  142.6340 C   0  0  0  0  0  0  0  0  0  0  0  0
  188.2840  175.5960  142.7610 N   0  0  0  0  0  0  0  0  0  0  0  0
  187.4820  172.7250  141.5390 O   0  0  0  0  0  0  0  0  0  0  0  0
  188.3770  173.6100  141.4470 C   0  0  0  0  0  0  0  0  0  0  0  0
  189.0040  173.8650  140.2240 O   0  0  0  0  0  0  0  0  0  0  0  0
  188.5770  173.2910  138.9900 C   0  0  0  0  0  2  0  0  0  0  0  0
  189.3140  173.6060  136.5940 C   0  0  0  0  0  2  0  0  0  0  0  0
  188.7030  174.2720  137.8220 C   0  0  1  0  0  3  0  0  0  0  0  0
  190.0050  174.6440  135.7270 C   0  0  0  0  0  2  0  0  0  0  0  0
  187.3840  174.9310  137.5440 C   0  0  0  0  0  3  0  0  0  0  0  0
  187.1760  175.8790  136.6260 C   0  0  0  0  0  3  0  0  0  0  0  0
  188.9960  175.3880  134.8670 C   0  0  0  0  0  2  0  0  0  0  0  0
  188.1770  176.3580  135.6610 C   0  0  0  0  0  0  0  0  0  0  0  0
  188.0760  177.5710  135.2290 N   0  0  0  0  0  2  0  0  0  0  0  0
  188.5060  176.4810  143.9030 C   0  0  1  0  0  3  0  0  0  0  0  0
  190.0030  176.8410  143.9850 C   0  0  0  0  0  3  0  0  0  0  0  0
  190.4180  177.8720  142.9500 C   0  0  0  0  0  2  0  0  0  0  0  0
  190.2450  178.2800  144.4030 C   0  0  0  0  0  2  0  0  0  0  0  0
  187.5130  177.6700  143.9440 C   0  0  2  0  0  3  0  0  0  0  0  0
  186.8770  176.7530  146.1760 C   0  0  0  0  0  3  0  0  0  0  0  0
  186.8320  177.8170  145.2690 C   0  0  0  0  0  0  0  0  0  0  0  0
  186.2400  176.8570  147.4170 C   0  0  0  0  0  3  0  0  0  0  0  0
  186.1400  178.9890  145.6120 C   0  0  0  0  0  3  0  0  0  0  0  0
  185.5510  178.0260  147.7550 C   0  0  0  0  0  3  0  0  0  0  0  0
  185.5010  179.0920  146.8520 C   0  0  0  0  0  3  0  0  0  0  0  0
  183.4160  178.0740  141.1930 C   0  0  0  0  0  1  0  0  0  0  0  0
  185.9210  178.1710  140.7720 C   0  0  0  0  0  2  0  0  0  0  0  0
  187.0340  178.0540  141.5200 N   0  0  0  0  0  0  0  0  0  0  0  0
  184.8410  178.0080  141.6090 C   0  0  0  0  0  0  0  0  0  0  0  0
  186.5880  177.8170  142.7710 C   0  0  0  0  0  0  0  0  0  0  0  0
  185.2440  177.7950  142.8720 N   0  0  0  0  0  0  0  0  0  0  0  0
  190.8310  171.6470  144.1290 C   0  0  0  0  0  2  0  0  0  0  0  0
  193.0890  171.0910  144.6590 O   0  0  0  0  0  0  0  0  0  0  0  0
  192.1450  171.0000  143.8290 C   0  0  0  0  0  0  0  0  0  0  0  0
  191.5280  169.4060  142.2080 N   0  0  0  0  0  0  0  0  0  0  0  0
  192.3520  170.2920  142.6060 N   0  0  0  0  0  0  0  0  0  0  0  0
  191.7560  168.6970  140.9610 C   0  0  0  0  0  2  0  0  0  0  0  0
  190.7790  170.5530  139.8040 O   0  0  0  0  0  0  0  0  0  0  0  0
  190.7500  169.1510  139.9060 C   0  0  1  0  0  3  0  0  0  0  0  0
  191.3430  169.8450  138.7240 C   0  0  2  0  0  3  0  0  0  0  0  0
  193.5080  171.0580  138.2330 C   0  0  0  0  0  0  0  0  0  0  0  0
  192.7970  169.9500  138.7840 N   0  0  0  0  0  2  0  0  0  0  0  0
  194.7580  171.1200  138.3770 O   0  0  0  0  0  0  0  0  0  0  0  0
  192.7760  172.1650  137.5350 C   0  0  2  0  0  3  0  0  0  0  0  0
  193.0710  172.2250  136.0570 C   0  0  0  0  0  0  0  0  0  0  0  0
  193.2750  173.4470  135.4250 O   0  0  0  0  0  1  0  0  0  0  0  0
  193.2140  171.1630  135.3960 O   0  0  0  0  0  0  0  0  0  0  0  0
  193.0660  173.4880  138.2370 C   0  0  0  0  0  2  0  0  0  0  0  0
  192.9820  173.3380  139.7520 C   0  0  0  0  0  2  0  0  0  0  0  0
  193.8100  175.0810  141.4220 C   0  0  0  0  0  0  0  0  0  0  0  0
  193.6800  176.2420  141.8930 O   0  0  0  0  0  0  0  0  0  0  0  0
  192.9070  174.6420  140.4050 N   0  0  0  0  0  2  0  0  0  0  0  0
  195.9480  174.9680  144.1050 C   0  0  0  0  0  0  0  0  0  0  0  0
  196.1930  174.6360  139.9030 O   0  0  0  0  0  1  0  0  0  0  0  0
  196.2870  174.4760  141.2880 C   0  0  1  0  0  3  0  0  0  0  0  0
  195.8080  175.1380  145.3450 O   0  0  0  0  0  0  0  0  0  0  0  0
  194.9760  174.2030  143.3820 N   0  0  0  0  0  2  0  0  0  0  0  0
  196.3170  176.8690  141.6660 O   0  0  0  0  0  1  0  0  0  0  0  0
  196.9970  175.6770  141.9220 C   0  0  1  0  0  3  0  0  0  0  0  0
  197.1850  175.4850  143.4260 C   0  0  0  0  0  2  0  0  0  0  0  0
  194.9130  174.1840  141.9200 C   0  0  1  0  0  3  0  0  0  0  0  0
  1  3  1  0  0  0  0
  2  1  1  0  0  0  0
  2  3  1  0  0  0  0
  2 35  1  1  0  0  0
  3  4  1  6  0  0  0
  4  5  2  0  0  0  0
  7  6  2  0  0  0  0
  7  4  1  0  0  0  0
  8  7  1  0  0  0  0
  9  8  1  0  0  0  0
 10 11  1  0  0  0  0
 11  9  1  1  0  0  0
 12 10  1  0  0  0  0
 13 11  1  0  0  0  0
 14 13  2  0  0  0  0
 15 16  1  0  0  0  0
 15 12  1  0  0  0  0
 16 14  1  0  0  0  0
 17 16  2  0  0  0  0
 18  5  1  6  0  0  0
 18 19  1  0  0  0  0
 19 21  1  0  0  0  0
 20 19  1  0  0  0  0
 20 21  1  0  0  0  0
 22 18  1  1  0  0  0
 22 24  1  0  0  0  0
 23 25  1  0  0  0  0
 24 26  1  0  0  0  0
 24 23  2  0  0  0  0
 25 27  2  0  0  0  0
 26 28  2  0  0  0  0
 28 27  1  0  0  0  0
 29 32  1  0  0  0  0
 30 31  1  0  0  0  0
 30 32  1  0  0  0  0
 31 33  2  0  0  0  0
 32 34  2  0  0  0  0
 33 34  1  0  0  0  0
 33 22  1  0  0  0  0
 37 35  1  0  0  0  0
 37 36  2  0  0  0  0
 38 39  2  0  0  0  0
 39 37  1  0  0  0  0
 40 38  1  0  0  0  0
 41 42  1  0  0  0  0
 42 40  1  1  0  0  0
 43 45  1  1  0  0  0
 43 41  1  0  0  0  0
 43 42  1  0  0  0  0
 44 46  2  0  0  0  0
 44 45  1  0  0  0  0
 47 44  1  0  0  0  0
 47 51  1  1  0  0  0
 48 47  1  0  0  0  0
 49 48  1  0  0  0  0
 50 48  2  0  0  0  0
 51 52  1  0  0  0  0
 52 55  1  0  0  0  0
 53 54  2  0  0  0  0
 55 53  1  0  0  0  0
 56 59  2  0  0  0  0
 58 57  1  6  0  0  0
 58 64  1  0  0  0  0
 58 62  1  0  0  0  0
 60 56  1  0  0  0  0
 62 61  1  1  0  0  0
 62 63  1  0  0  0  0
 63 56  1  0  0  0  0
 64 53  1  6  0  0  0
 64 60  1  0  0  0  0
M  END
>  <MODEL>
1

>  <REMARK>
 VINA RESULT:      -6.8      0.000      0.000
  Name = 
  22 active torsions:
  status: ('A' for Active; 'I' for Inactive)
    1  A    between atoms: C_5  and  C_37
    2  A    between atoms: C_7  and  C_64
    3  A    between atoms: C_10  and  C_48
    4  A    between atoms: C_12  and  C_51
    5  A    between atoms: C_16  and  C_48
    6  A    between atoms: C_17  and  C_26
    7  A    between atoms: N_21  and  C_61
    8  A    between atoms: C_22  and  C_39
    9  A    between atoms: C_22  and  C_50
   10  A    between atoms: C_23  and  C_42
   11  A    between atoms: C_23  and  C_62
   12  A    between atoms: C_26  and  O_47
   13  A    between atoms: C_31  and  N_44
   14  A    between atoms: C_31  and  C_59
   15  A    between atoms: C_32  and  N_33
   16  A    between atoms: C_32  and  C_54
   17  A    between atoms: N_36  and  C_50
   18  A    between atoms: C_37  and  C_51
   19  A    between atoms: C_37  and  N_57
   20  A    between atoms: C_38  and  C_51
   21  A    between atoms: O_47  and  C_62
   22  A    between atoms: C_48  and  C_59
                            x       y       z     vdW  Elec       q    Type
                         _______ _______ _______ _____ _____    ______ ____

>  <TORSDO>
F 22

$$$$
=
 OpenBabel11042416043D

 64 70  0  0  1  0  0  0  0  0999 V2000
  191.0970  175.4540  148.2830 C   0  0  0  0  0  2  0  0  0  0  0  0
  191.7680  176.4000  147.3150 C   0  0  2  0  0  3  0  0  0  0  0  0
  191.1300  175.1190  146.7990 C   0  0  2  0  0  3  0  0  0  0  0  0
  189.8160  175.4390  146.1300 C   0  0  0  0  0  0  0  0  0  0  0  0
  189.4970  174.9520  144.9640 N   0  0  0  0  0  0  0  0  0  0  0  0
  189.2810  177.5600  147.0450 O   0  0  0  0  0  0  0  0  0  0  0  0
  188.8890  176.3940  146.7620 C   0  0  0  0  0  0  0  0  0  0  0  0
  187.5770  175.9980  147.0350 O   0  0  0  0  0  0  0  0  0  0  0  0
  186.5430  176.9090  147.4010 C   0  0  0  0  0  2  0  0  0  0  0  0
  186.2330  178.9720  145.9760 C   0  0  0  0  0  2  0  0  0  0  0  0
  185.8460  177.5120  146.1800 C   0  0  1  0  0  3  0  0  0  0  0  0
  185.1300  179.7070  145.2350 C   0  0  0  0  0  2  0  0  0  0  0  0
  186.0840  176.6620  144.9660 C   0  0  0  0  0  3  0  0  0  0  0  0
  185.5620  176.8840  143.7560 C   0  0  0  0  0  3  0  0  0  0  0  0
  185.2120  179.4390  143.7400 C   0  0  0  0  0  2  0  0  0  0  0  0
  184.7570  178.0570  143.3830 C   0  0  0  0  0  0  0  0  0  0  0  0
  183.8860  177.9250  142.4390 N   0  0  0  0  0  2  0  0  0  0  0  0
  190.3270  174.0520  144.1660 C   0  0  1  0  0  3  0  0  0  0  0  0
  189.7980  172.6110  144.3080 C   0  0  0  0  0  3  0  0  0  0  0  0
  189.0510  172.1340  143.0760 C   0  0  0  0  0  2  0  0  0  0  0  0
  190.4600  171.6380  143.3490 C   0  0  0  0  0  2  0  0  0  0  0  0
  190.5460  174.5600  142.7190 C   0  0  2  0  0  3  0  0  0  0  0  0
  192.8400  173.6960  142.2500 C   0  0  0  0  0  3  0  0  0  0  0  0
  191.9890  174.7960  142.3940 C   0  0  0  0  0  0  0  0  0  0  0  0
  194.1950  173.8850  141.9590 C   0  0  0  0  0  3  0  0  0  0  0  0
  192.5040  176.0920  142.2470 C   0  0  0  0  0  3  0  0  0  0  0  0
  194.7050  175.1780  141.8130 C   0  0  0  0  0  3  0  0  0  0  0  0
  193.8600  176.2820  141.9580 C   0  0  0  0  0  3  0  0  0  0  0  0
  186.9360  176.9990  140.3660 C   0  0  0  0  0  1  0  0  0  0  0  0
  188.6890  177.5660  142.1180 C   0  0  0  0  0  2  0  0  0  0  0  0
  189.6750  176.9040  142.7510 N   0  0  0  0  0  0  0  0  0  0  0  0
  188.0840  176.6820  141.2550 C   0  0  0  0  0  0  0  0  0  0  0  0
  189.6350  175.6540  142.2440 C   0  0  0  0  0  0  0  0  0  0  0  0
  188.6600  175.4710  141.3300 N   0  0  0  0  0  0  0  0  0  0  0  0
  193.2710  176.2130  147.3570 C   0  0  0  0  0  2  0  0  0  0  0  0
  193.5730  177.1630  145.1910 O   0  0  0  0  0  0  0  0  0  0  0  0
  193.8290  176.2060  145.9700 C   0  0  0  0  0  0  0  0  0  0  0  0
  195.8610  175.2930  145.2040 N   0  0  0  0  0  0  0  0  0  0  0  0
  194.6360  175.1220  145.5090 N   0  0  0  0  0  0  0  0  0  0  0  0
  196.6660  174.1780  144.7360 C   0  0  0  0  0  2  0  0  0  0  0  0
  195.1950  172.3030  144.9810 O   0  0  0  0  0  0  0  0  0  0  0  0
  196.3340  172.9190  145.5320 C   0  0  1  0  0  3  0  0  0  0  0  0
  196.4200  171.6430  144.7610 C   0  0  2  0  0  3  0  0  0  0  0  0
  196.2680  171.0730  142.3010 C   0  0  0  0  0  0  0  0  0  0  0  0
  196.8280  171.8310  143.3730 N   0  0  0  0  0  2  0  0  0  0  0  0
  196.6170  171.3310  141.1180 O   0  0  0  0  0  0  0  0  0  0  0  0
  195.2400  170.0150  142.5680 C   0  0  2  0  0  3  0  0  0  0  0  0
  195.8190  168.7790  143.2090 C   0  0  0  0  0  0  0  0  0  0  0  0
  195.1740  168.1670  144.2770 O   0  0  0  0  0  1  0  0  0  0  0  0
  196.8530  168.2430  142.7300 O   0  0  0  0  0  0  0  0  0  0  0  0
  194.4890  169.6990  141.2780 C   0  0  0  0  0  2  0  0  0  0  0  0
  193.0360  170.1550  141.3600 C   0  0  0  0  0  2  0  0  0  0  0  0
  191.4440  170.4780  139.3930 C   0  0  0  0  0  0  0  0  0  0  0  0
  190.8490  169.9540  138.4140 O   0  0  0  0  0  0  0  0  0  0  0  0
  192.2640  169.6560  140.2250 N   0  0  0  0  0  2  0  0  0  0  0  0
  189.3830  173.0310  138.3830 C   0  0  0  0  0  0  0  0  0  0  0  0
  193.5280  172.3400  138.7820 O   0  0  0  0  0  1  0  0  0  0  0  0
  192.2240  172.8390  138.8100 C   0  0  1  0  0  3  0  0  0  0  0  0
  188.1370  173.1440  138.2320 O   0  0  0  0  0  0  0  0  0  0  0  0
  189.8970  172.3650  139.5420 N   0  0  0  0  0  2  0  0  0  0  0  0
  191.6980  171.8760  136.6490 O   0  0  0  0  0  1  0  0  0  0  0  0
  191.7010  173.0610  137.3860 C   0  0  1  0  0  3  0  0  0  0  0  0
  190.3060  173.6860  137.3940 C   0  0  0  0  0  2  0  0  0  0  0  0
  191.2950  171.9540  139.6630 C   0  0  1  0  0  3  0  0  0  0  0  0
  2 35  1  1  0  0  0
  2  1  1  0  0  0  0
  3  4  1  6  0  0  0
  3  2  1  0  0  0  0
  3  1  1  0  0  0  0
  4  7  1  0  0  0  0
  5  4  2  0  0  0  0
  7  8  1  0  0  0  0
  7  6  2  0  0  0  0
  8  9  1  0  0  0  0
 10 11  1  0  0  0  0
 11  9  1  1  0  0  0
 12 10  1  0  0  0  0
 13 11  1  0  0  0  0
 14 13  2  0  0  0  0
 15 12  1  0  0  0  0
 16 15  1  0  0  0  0
 16 14  1  0  0  0  0
 17 16  2  0  0  0  0
 18 19  1  0  0  0  0
 18  5  1  6  0  0  0
 20 21  1  0  0  0  0
 20 19  1  0  0  0  0
 21 19  1  0  0  0  0
 22 18  1  1  0  0  0
 23 24  1  0  0  0  0
 24 22  1  0  0  0  0
 25 23  2  0  0  0  0
 26 24  2  0  0  0  0
 27 28  2  0  0  0  0
 27 25  1  0  0  0  0
 28 26  1  0  0  0  0
 29 32  1  0  0  0  0
 30 31  1  0  0  0  0
 32 34  2  0  0  0  0
 32 30  1  0  0  0  0
 33 22  1  0  0  0  0
 33 31  2  0  0  0  0
 34 33  1  0  0  0  0
 36 37  2  0  0  0  0
 37 35  1  0  0  0  0
 38 39  2  0  0  0  0
 39 37  1  0  0  0  0
 40 38  1  0  0  0  0
 41 42  1  0  0  0  0
 42 40  1  6  0  0  0
 43 45  1  6  0  0  0
 43 41  1  0  0  0  0
 43 42  1  0  0  0  0
 44 47  1  0  0  0  0
 44 45  1  0  0  0  0
 46 44  2  0  0  0  0
 47 51  1  6  0  0  0
 47 48  1  0  0  0  0
 48 49  1  0  0  0  0
 50 48  2  0  0  0  0
 51 52  1  0  0  0  0
 53 55  1  0  0  0  0
 54 53  2  0  0  0  0
 55 52  1  0  0  0  0
 56 60  1  0  0  0  0
 58 57  1  6  0  0  0
 58 64  1  0  0  0  0
 59 56  2  0  0  0  0
 60 64  1  0  0  0  0
 62 61  1  1  0  0  0
 62 63  1  0  0  0  0
 62 58  1  0  0  0  0
 63 56  1  0  0  0  0
 64 53  1  6  0  0  0
M  END
>  <MODEL>
2

>  <REMARK>
 VINA RESULT:      -6.3      2.638      7.134
  Name = 
  22 active torsions:
  status: ('A' for Active; 'I' for Inactive)
    1  A    between atoms: C_5  and  C_37
    2  A    between atoms: C_7  and  C_64
    3  A    between atoms: C_10  and  C_48
    4  A    between atoms: C_12  and  C_51
    5  A    between atoms: C_16  and  C_48
    6  A    between atoms: C_17  and  C_26
    7  A    between atoms: N_21  and  C_61
    8  A    between atoms: C_22  and  C_39
    9  A    between atoms: C_22  and  C_50
   10  A    between atoms: C_23  and  C_42
   11  A    between atoms: C_23  and  C_62
   12  A    between atoms: C_26  and  O_47
   13  A    between atoms: C_31  and  N_44
   14  A    between atoms: C_31  and  C_59
   15  A    between atoms: C_32  and  N_33
   16  A    between atoms: C_32  and  C_54
   17  A    between atoms: N_36  and  C_50
   18  A    between atoms: C_37  and  C_51
   19  A    between atoms: C_37  and  N_57
   20  A    between atoms: C_38  and  C_51
   21  A    between atoms: O_47  and  C_62
   22  A    between atoms: C_48  and  C_59
                            x       y       z     vdW  Elec       q    Type
                         _______ _______ _______ _____ _____    ______ ____

>  <TORSDO>
F 22

$$$$
=
 OpenBabel11042416043D

 64 70  0  0  1  0  0  0  0  0999 V2000
  189.4580  173.9190  143.3270 C   0  0  0  0  0  2  0  0  0  0  0  0
  189.6710  172.9990  142.1480 C   0  0  2  0  0  3  0  0  0  0  0  0
  188.3460  173.7290  142.3060 C   0  0  2  0  0  3  0  0  0  0  0  0
  188.2820  174.8830  141.3360 C   0  0  0  0  0  0  0  0  0  0  0  0
  188.1280  176.1130  141.7340 N   0  0  0  0  0  0  0  0  0  0  0  0
  187.6220  175.3310  139.1030 O   0  0  0  0  0  0  0  0  0  0  0  0
  188.3090  174.6190  139.8870 C   0  0  0  0  0  0  0  0  0  0  0  0
  189.1050  173.5810  139.3940 O   0  0  0  0  0  0  0  0  0  0  0  0
  190.0600  173.7540  138.3490 C   0  0  0  0  0  2  0  0  0  0  0  0
  190.3500  171.2740  138.7290 C   0  0  0  0  0  2  0  0  0  0  0  0
  190.4940  172.4210  137.7360 C   0  0  1  0  0  3  0  0  0  0  0  0
  191.3240  170.1600  138.3860 C   0  0  0  0  0  2  0  0  0  0  0  0
  189.7730  172.1780  136.4430 C   0  0  0  0  0  3  0  0  0  0  0  0
  189.9720  171.1330  135.6350 C   0  0  0  0  0  3  0  0  0  0  0  0
  190.7820  169.2980  137.2560 C   0  0  0  0  0  2  0  0  0  0  0  0
  190.8500  169.9900  135.9300 C   0  0  0  0  0  0  0  0  0  0  0  0
  191.3840  169.3590  134.9380 N   0  0  0  0  0  2  0  0  0  0  0  0
  188.0090  176.5450  143.1260 C   0  0  1  0  0  3  0  0  0  0  0  0
  189.4170  176.7670  143.7120 C   0  0  0  0  0  3  0  0  0  0  0  0
  190.2030  177.8320  142.9690 C   0  0  0  0  0  2  0  0  0  0  0  0
  189.5950  178.1440  144.3250 C   0  0  0  0  0  2  0  0  0  0  0  0
  187.0000  177.7060  143.3110 C   0  0  2  0  0  3  0  0  0  0  0  0
  186.0920  179.0310  145.2210 C   0  0  0  0  0  3  0  0  0  0  0  0
  186.4440  177.7820  144.6990 C   0  0  0  0  0  0  0  0  0  0  0  0
  185.5810  179.1350  146.5190 C   0  0  0  0  0  3  0  0  0  0  0  0
  186.2840  176.6330  145.4890 C   0  0  0  0  0  3  0  0  0  0  0  0
  185.4230  177.9880  147.3030 C   0  0  0  0  0  3  0  0  0  0  0  0
  185.7760  176.7370  146.7880 C   0  0  0  0  0  3  0  0  0  0  0  0
  182.6550  178.1360  140.9750 C   0  0  0  0  0  1  0  0  0  0  0  0
  185.1080  178.2930  140.3240 C   0  0  0  0  0  2  0  0  0  0  0  0
  186.2880  178.1680  140.9590 N   0  0  0  0  0  0  0  0  0  0  0  0
  184.1140  178.0810  141.2520 C   0  0  0  0  0  0  0  0  0  0  0  0
  185.9660  177.8790  142.2370 C   0  0  0  0  0  0  0  0  0  0  0  0
  184.6370  177.8290  142.4630 N   0  0  0  0  0  0  0  0  0  0  0  0
  189.4840  171.5550  142.5700 C   0  0  0  0  0  2  0  0  0  0  0  0
  190.6400  169.5450  142.0140 O   0  0  0  0  0  0  0  0  0  0  0  0
  190.7260  170.7710  142.2930 C   0  0  0  0  0  0  0  0  0  0  0  0
  192.9770  170.9780  141.6310 N   0  0  0  0  0  0  0  0  0  0  0  0
  192.0130  171.3880  142.3550 N   0  0  0  0  0  0  0  0  0  0  0  0
  194.2790  171.6180  141.7090 C   0  0  0  0  0  2  0  0  0  0  0  0
  194.5480  170.4430  139.6380 O   0  0  0  0  0  0  0  0  0  0  0  0
  195.2540  170.9450  140.7470 C   0  0  1  0  0  3  0  0  0  0  0  0
  195.3490  171.5770  139.3970 C   0  0  2  0  0  3  0  0  0  0  0  0
  195.0170  174.0430  138.9430 C   0  0  0  0  0  0  0  0  0  0  0  0
  194.4950  172.7490  139.2460 N   0  0  0  0  0  2  0  0  0  0  0  0
  194.2190  175.0010  138.7610 O   0  0  0  0  0  0  0  0  0  0  0  0
  196.4940  174.2560  138.7930 C   0  0  2  0  0  3  0  0  0  0  0  0
  197.0780  173.5180  137.6150 C   0  0  0  0  0  0  0  0  0  0  0  0
  196.7400  173.8790  136.3160 O   0  0  0  0  0  0  0  0  0  0  0  0
  197.9410  172.6190  137.7950 O   0  0  0  0  0  1  0  0  0  0  0  0
  197.1940  173.9010  140.1020 C   0  0  0  0  0  2  0  0  0  0  0  0
  196.8410  174.8950  141.2030 C   0  0  0  0  0  2  0  0  0  0  0  0
  195.9290  174.7010  143.5770 C   0  0  0  0  0  0  0  0  0  0  0  0
  195.8810  174.0290  144.6420 O   0  0  0  0  0  0  0  0  0  0  0  0
  196.7380  174.2290  142.4980 N   0  0  0  0  0  2  0  0  0  0  0  0
  194.2520  176.8430  145.6720 C   0  0  0  0  0  0  0  0  0  0  0  0
  193.5220  174.8250  142.0360 O   0  0  0  0  0  1  0  0  0  0  0  0
  193.6540  175.7470  143.0770 C   0  0  1  0  0  3  0  0  0  0  0  0
  194.5180  177.3630  146.7880 O   0  0  0  0  0  0  0  0  0  0  0  0
  195.2630  176.7900  144.6580 N   0  0  0  0  0  2  0  0  0  0  0  0
  193.1430  174.0790  144.7590 O   0  0  0  0  0  1  0  0  0  0  0  0
  192.7870  175.3390  144.2730 C   0  0  1  0  0  3  0  0  0  0  0  0
  192.8510  176.3770  145.3920 C   0  0  0  0  0  2  0  0  0  0  0  0
  195.1310  175.9730  143.4520 C   0  0  1  0  0  3  0  0  0  0  0  0
  2  3  1  0  0  0  0
  2 35  1  1  0  0  0
  2  1  1  0  0  0  0
  3  4  1  6  0  0  0
  3  1  1  0  0  0  0
  4  5  2  0  0  0  0
  6  7  2  0  0  0  0
  7  4  1  0  0  0  0
  8  7  1  0  0  0  0
  9  8  1  0  0  0  0
 11  9  1  1  0  0  0
 11 10  1  0  0  0  0
 12 10  1  0  0  0  0
 13 11  1  0  0  0  0
 14 16  1  0  0  0  0
 14 13  2  0  0  0  0
 15 12  1  0  0  0  0
 16 15  1  0  0  0  0
 17 16  2  0  0  0  0
 18  5  1  6  0  0  0
 18 19  1  0  0  0  0
 19 21  1  0  0  0  0
 20 19  1  0  0  0  0
 20 21  1  0  0  0  0
 22 18  1  6  0  0  0
 22 24  1  0  0  0  0
 23 25  1  0  0  0  0
 24 23  2  0  0  0  0
 24 26  1  0  0  0  0
 25 27  2  0  0  0  0
 26 28  2  0  0  0  0
 28 27  1  0  0  0  0
 29 32  1  0  0  0  0
 30 31  1  0  0  0  0
 30 32  1  0  0  0  0
 31 33  2  0  0  0  0
 32 34  2  0  0  0  0
 33 34  1  0  0  0  0
 33 22  1  0  0  0  0
 36 37  2  0  0  0  0
 37 39  1  0  0  0  0
 37 35  1  0  0  0  0
 38 40  1  0  0  0  0
 38 39  2  0  0  0  0
 41 42  1  0  0  0  0
 42 40  1  1  0  0  0
 43 45  1  1  0  0  0
 43 41  1  0  0  0  0
 43 42  1  0  0  0  0
 44 45  1  0  0  0  0
 46 44  2  0  0  0  0
 47 44  1  0  0  0  0
 47 51  1  1  0  0  0
 48 50  1  0  0  0  0
 48 47  1  0  0  0  0
 49 48  2  0  0  0  0
 51 52  1  0  0  0  0
 52 55  1  0  0  0  0
 53 54  2  0  0  0  0
 55 53  1  0  0  0  0
 56 59  2  0  0  0  0
 58 57  1  6  0  0  0
 58 64  1  0  0  0  0
 58 62  1  0  0  0  0
 60 56  1  0  0  0  0
 62 61  1  1  0  0  0
 62 63  1  0  0  0  0
 63 56  1  0  0  0  0
 64 53  1  1  0  0  0
 64 60  1  0  0  0  0
M  END
>  <MODEL>
3

>  <REMARK>
 VINA RESULT:      -6.2      2.108      3.464
  Name = 
  22 active torsions:
  status: ('A' for Active; 'I' for Inactive)
    1  A    between atoms: C_5  and  C_37
    2  A    between atoms: C_7  and  C_64
    3  A    between atoms: C_10  and  C_48
    4  A    between atoms: C_12  and  C_51
    5  A    between atoms: C_16  and  C_48
    6  A    between atoms: C_17  and  C_26
    7  A    between atoms: N_21  and  C_61
    8  A    between atoms: C_22  and  C_39
    9  A    between atoms: C_22  and  C_50
   10  A    between atoms: C_23  and  C_42
   11  A    between atoms: C_23  and  C_62
   12  A    between atoms: C_26  and  O_47
   13  A    between atoms: C_31  and  N_44
   14  A    between atoms: C_31  and  C_59
   15  A    between atoms: C_32  and  N_33
   16  A    between atoms: C_32  and  C_54
   17  A    between atoms: N_36  and  C_50
   18  A    between atoms: C_37  and  C_51
   19  A    between atoms: C_37  and  N_57
   20  A    between atoms: C_38  and  C_51
   21  A    between atoms: O_47  and  C_62
   22  A    between atoms: C_48  and  C_59
                            x       y       z     vdW  Elec       q    Type
                         _______ _______ _______ _____ _____    ______ ____

>  <TORSDO>
F 22

$$$$
=
 OpenBabel11042416043D

 64 70  0  0  1  0  0  0  0  0999 V2000
  189.1060  174.1150  142.8410 C   0  0  0  0  0  2  0  0  0  0  0  0
  189.1740  173.2130  141.6320 C   0  0  2  0  0  3  0  0  0  0  0  0
  187.9140  174.0220  141.9000 C   0  0  2  0  0  3  0  0  0  0  0  0
  187.8570  175.2010  140.9610 C   0  0  0  0  0  0  0  0  0  0  0  0
  187.6650  176.4170  141.3880 N   0  0  0  0  0  0  0  0  0  0  0  0
  187.2980  175.7310  138.7180 O   0  0  0  0  0  0  0  0  0  0  0  0
  187.9350  174.9790  139.5060 C   0  0  0  0  0  0  0  0  0  0  0  0
  188.7240  173.9360  139.0140 O   0  0  0  0  0  0  0  0  0  0  0  0
  188.5230  173.3370  137.7360 C   0  0  0  0  0  2  0  0  0  0  0  0
  189.5320  171.1240  138.4200 C   0  0  0  0  0  2  0  0  0  0  0  0
  189.5800  172.2760  137.4220 C   0  0  1  0  0  3  0  0  0  0  0  0
  190.8920  170.4560  138.5130 C   0  0  0  0  0  2  0  0  0  0  0  0
  189.4670  171.8270  135.9940 C   0  0  0  0  0  3  0  0  0  0  0  0
  190.2810  170.9530  135.3950 C   0  0  0  0  0  3  0  0  0  0  0  0
  191.1020  169.4920  137.3560 C   0  0  0  0  0  2  0  0  0  0  0  0
  191.3560  170.2030  136.0620 C   0  0  0  0  0  0  0  0  0  0  0  0
  192.3770  169.8430  135.3570 N   0  0  0  0  0  2  0  0  0  0  0  0
  187.4930  176.8070  142.7860 C   0  0  1  0  0  3  0  0  0  0  0  0
  188.8750  177.0800  143.4120 C   0  0  0  0  0  3  0  0  0  0  0  0
  189.8710  177.6470  142.4160 C   0  0  0  0  0  2  0  0  0  0  0  0
  189.2280  178.5560  143.4490 C   0  0  0  0  0  2  0  0  0  0  0  0
  186.4260  177.9140  142.9750 C   0  0  2  0  0  3  0  0  0  0  0  0
  185.8010  179.2090  145.0140 C   0  0  0  0  0  3  0  0  0  0  0  0
  185.8830  177.9710  144.3690 C   0  0  0  0  0  0  0  0  0  0  0  0
  185.3090  179.2930  146.3210 C   0  0  0  0  0  3  0  0  0  0  0  0
  185.4710  176.8120  145.0430 C   0  0  0  0  0  3  0  0  0  0  0  0
  184.9000  178.1350  146.9900 C   0  0  0  0  0  3  0  0  0  0  0  0
  184.9820  176.8950  146.3510 C   0  0  0  0  0  3  0  0  0  0  0  0
  182.0360  178.1530  140.6960 C   0  0  0  0  0  1  0  0  0  0  0  0
  184.4730  178.3450  140.0000 C   0  0  0  0  0  2  0  0  0  0  0  0
  185.6660  178.2720  140.6190 N   0  0  0  0  0  0  0  0  0  0  0  0
  183.5000  178.1430  140.9510 C   0  0  0  0  0  0  0  0  0  0  0  0
  185.3710  178.0220  141.9120 C   0  0  0  0  0  0  0  0  0  0  0  0
  184.0480  177.9490  142.1610 N   0  0  0  0  0  0  0  0  0  0  0  0
  188.9230  171.7740  142.0370 C   0  0  0  0  0  2  0  0  0  0  0  0
  190.5900  170.0780  141.8640 O   0  0  0  0  0  0  0  0  0  0  0  0
  190.2030  171.1230  142.4510 C   0  0  0  0  0  0  0  0  0  0  0  0
  192.2430  171.4500  143.5840 N   0  0  0  0  0  0  0  0  0  0  0  0
  190.9880  171.6610  143.5160 N   0  0  0  0  0  0  0  0  0  0  0  0
  193.0250  172.0040  144.6750 C   0  0  0  0  0  2  0  0  0  0  0  0
  194.6760  171.6760  142.9710 O   0  0  0  0  0  0  0  0  0  0  0  0
  194.5130  171.9350  144.3440 C   0  0  1  0  0  3  0  0  0  0  0  0
  194.9990  172.9800  143.3940 C   0  0  2  0  0  3  0  0  0  0  0  0
  194.0530  175.3130  143.1480 C   0  0  0  0  0  0  0  0  0  0  0  0
  193.9540  173.9010  142.9630 N   0  0  0  0  0  2  0  0  0  0  0  0
  193.1450  176.0590  142.6930 O   0  0  0  0  0  0  0  0  0  0  0  0
  195.2470  175.9130  143.8290 C   0  0  2  0  0  3  0  0  0  0  0  0
  196.5500  175.3050  143.3750 C   0  0  0  0  0  0  0  0  0  0  0  0
  196.8860  175.2760  142.0260 O   0  0  0  0  0  0  0  0  0  0  0  0
  197.3850  174.8900  144.2220 O   0  0  0  0  0  1  0  0  0  0  0  0
  195.0650  175.8270  145.3410 C   0  0  0  0  0  2  0  0  0  0  0  0
  194.2210  176.9860  145.8610 C   0  0  0  0  0  2  0  0  0  0  0  0
  192.2160  176.5260  147.3710 C   0  0  0  0  0  0  0  0  0  0  0  0
  191.8050  176.2050  148.5180 O   0  0  0  0  0  0  0  0  0  0  0  0
  193.6220  176.6600  147.1530 N   0  0  0  0  0  2  0  0  0  0  0  0
  188.8860  177.3020  147.0620 C   0  0  0  0  0  0  0  0  0  0  0  0
  191.5920  174.4750  145.4780 O   0  0  0  0  0  1  0  0  0  0  0  0
  190.6180  175.4530  145.6930 C   0  0  1  0  0  3  0  0  0  0  0  0
  188.1250  178.1350  147.6210 O   0  0  0  0  0  0  0  0  0  0  0  0
  190.1990  177.7060  146.6540 N   0  0  0  0  0  2  0  0  0  0  0  0
  189.9510  174.4710  147.8060 O   0  0  0  0  0  1  0  0  0  0  0  0
  189.4830  174.9020  146.5630 C   0  0  1  0  0  3  0  0  0  0  0  0
  188.3660  175.9290  146.7420 C   0  0  0  0  0  2  0  0  0  0  0  0
  191.2310  176.7510  146.2530 C   0  0  1  0  0  3  0  0  0  0  0  0
  2  3  1  0  0  0  0
  2 35  1  1  0  0  0
  2  1  1  0  0  0  0
  3  4  1  6  0  0  0
  3  1  1  0  0  0  0
  4  5  2  0  0  0  0
  6  7  2  0  0  0  0
  7  4  1  0  0  0  0
  8  7  1  0  0  0  0
  9  8  1  0  0  0  0
 10 12  1  0  0  0  0
 11  9  1  1  0  0  0
 11 10  1  0  0  0  0
 13 11  1  0  0  0  0
 14 13  2  0  0  0  0
 14 16  1  0  0  0  0
 15 12  1  0  0  0  0
 16 15  1  0  0  0  0
 17 16  2  0  0  0  0
 18  5  1  6  0  0  0
 18 19  1  0  0  0  0
 19 21  1  0  0  0  0
 20 19  1  0  0  0  0
 20 21  1  0  0  0  0
 22 18  1  1  0  0  0
 22 24  1  0  0  0  0
 23 25  1  0  0  0  0
 24 23  2  0  0  0  0
 24 26  1  0  0  0  0
 25 27  2  0  0  0  0
 26 28  2  0  0  0  0
 28 27  1  0  0  0  0
 29 32  1  0  0  0  0
 30 31  1  0  0  0  0
 30 32  1  0  0  0  0
 31 33  2  0  0  0  0
 32 34  2  0  0  0  0
 33 34  1  0  0  0  0
 33 22  1  0  0  0  0
 35 37  1  0  0  0  0
 36 37  2  0  0  0  0
 37 39  1  0  0  0  0
 38 40  1  0  0  0  0
 39 38  2  0  0  0  0
 41 43  1  0  0  0  0
 41 42  1  0  0  0  0
 42 40  1  6  0  0  0
 43 45  1  6  0  0  0
 43 42  1  0  0  0  0
 44 47  1  0  0  0  0
 45 44  1  0  0  0  0
 46 44  2  0  0  0  0
 47 51  1  1  0  0  0
 48 47  1  0  0  0  0
 48 50  1  0  0  0  0
 49 48  2  0  0  0  0
 51 52  1  0  0  0  0
 52 55  1  0  0  0  0
 53 54  2  0  0  0  0
 55 53  1  0  0  0  0
 56 59  2  0  0  0  0
 58 57  1  1  0  0  0
 58 64  1  0  0  0  0
 58 62  1  0  0  0  0
 60 56  1  0  0  0  0
 62 63  1  0  0  0  0
 62 61  1  1  0  0  0
 63 56  1  0  0  0  0
 64 60  1  0  0  0  0
 64 53  1  1  0  0  0
M  END
>  <MODEL>
4

>  <REMARK>
 VINA RESULT:      -5.9      2.448      5.302
  Name = 
  22 active torsions:
  status: ('A' for Active; 'I' for Inactive)
    1  A    between atoms: C_5  and  C_37
    2  A    between atoms: C_7  and  C_64
    3  A    between atoms: C_10  and  C_48
    4  A    between atoms: C_12  and  C_51
    5  A    between atoms: C_16  and  C_48
    6  A    between atoms: C_17  and  C_26
    7  A    between atoms: N_21  and  C_61
    8  A    between atoms: C_22  and  C_39
    9  A    between atoms: C_22  and  C_50
   10  A    between atoms: C_23  and  C_42
   11  A    between atoms: C_23  and  C_62
   12  A    between atoms: C_26  and  O_47
   13  A    between atoms: C_31  and  N_44
   14  A    between atoms: C_31  and  C_59
   15  A    between atoms: C_32  and  N_33
   16  A    between atoms: C_32  and  C_54
   17  A    between atoms: N_36  and  C_50
   18  A    between atoms: C_37  and  C_51
   19  A    between atoms: C_37  and  N_57
   20  A    between atoms: C_38  and  C_51
   21  A    between atoms: O_47  and  C_62
   22  A    between atoms: C_48  and  C_59
                            x       y       z     vdW  Elec       q    Type
                         _______ _______ _______ _____ _____    ______ ____

>  <TORSDO>
F 22

$$$$
=
 OpenBabel11042416043D

 64 70  0  0  1  0  0  0  0  0999 V2000
  191.0870  177.6220  142.9690 C   0  0  0  0  0  2  0  0  0  0  0  0
  192.2310  176.6460  142.8220 C   0  0  2  0  0  3  0  0  0  0  0  0
  191.0160  176.2660  143.6550 C   0  0  2  0  0  3  0  0  0  0  0  0
  190.1520  175.2990  142.8830 C   0  0  0  0  0  0  0  0  0  0  0  0
  188.8540  175.4050  142.8520 N   0  0  0  0  0  0  0  0  0  0  0  0
  191.0370  174.2040  140.9750 O   0  0  0  0  0  0  0  0  0  0  0  0
  190.7720  174.1460  142.2080 C   0  0  0  0  0  0  0  0  0  0  0  0
  191.0690  172.9970  142.9470 O   0  0  0  0  0  0  0  0  0  0  0  0
  191.8770  173.0080  144.1220 C   0  0  0  0  0  2  0  0  0  0  0  0
  192.8090  170.9750  142.9490 C   0  0  0  0  0  2  0  0  0  0  0  0
  192.6980  171.7260  144.2700 C   0  0  1  0  0  3  0  0  0  0  0  0
  193.0290  169.4940  143.2070 C   0  0  0  0  0  2  0  0  0  0  0  0
  194.0310  172.0250  144.8940 C   0  0  0  0  0  3  0  0  0  0  0  0
  194.9540  171.1120  145.2110 C   0  0  0  0  0  3  0  0  0  0  0  0
  194.4890  169.2130  143.5290 C   0  0  0  0  0  2  0  0  0  0  0  0
  194.8670  169.6770  144.9020 C   0  0  0  0  0  0  0  0  0  0  0  0
  195.4780  168.8470  145.6810 N   0  0  0  0  0  2  0  0  0  0  0  0
  188.0720  176.4420  143.5240 C   0  0  1  0  0  3  0  0  0  0  0  0
  186.9320  176.9030  142.5950 C   0  0  0  0  0  3  0  0  0  0  0  0
  187.2440  178.2070  141.8830 C   0  0  0  0  0  2  0  0  0  0  0  0
  187.3200  176.8920  141.1280 C   0  0  0  0  0  2  0  0  0  0  0  0
  187.6630  176.0460  144.9650 C   0  0  2  0  0  3  0  0  0  0  0  0
  185.7290  176.5150  146.4720 C   0  0  0  0  0  3  0  0  0  0  0  0
  186.6900  177.0040  145.5810 C   0  0  0  0  0  0  0  0  0  0  0  0
  184.8000  177.3830  147.0540 C   0  0  0  0  0  3  0  0  0  0  0  0
  186.7130  178.3720  145.2710 C   0  0  0  0  0  3  0  0  0  0  0  0
  184.8260  178.7460  146.7430 C   0  0  0  0  0  3  0  0  0  0  0  0
  185.7820  179.2400  145.8500 C   0  0  0  0  0  3  0  0  0  0  0  0
  191.4040  176.2000  148.2050 C   0  0  0  0  0  1  0  0  0  0  0  0
  190.0370  174.3810  147.0710 C   0  0  0  0  0  2  0  0  0  0  0  0
  189.0260  174.3400  146.1850 N   0  0  0  0  0  0  0  0  0  0  0  0
  190.3480  175.7040  147.2850 C   0  0  0  0  0  0  0  0  0  0  0  0
  188.7700  175.6330  145.8910 C   0  0  0  0  0  0  0  0  0  0  0  0
  189.5520  176.5050  146.5580 N   0  0  0  0  0  0  0  0  0  0  0  0
  193.3640  177.0220  143.7560 C   0  0  0  0  0  2  0  0  0  0  0  0
  194.2300  175.0380  144.7540 O   0  0  0  0  0  0  0  0  0  0  0  0
  194.3510  175.9030  143.8470 C   0  0  0  0  0  0  0  0  0  0  0  0
  195.3760  176.3360  141.7710 N   0  0  0  0  0  0  0  0  0  0  0  0
  195.4410  175.8100  142.9290 N   0  0  0  0  0  0  0  0  0  0  0  0
  196.4950  176.2310  140.8500 C   0  0  0  0  0  2  0  0  0  0  0  0
  195.7630  174.0950  140.0480 O   0  0  0  0  0  0  0  0  0  0  0  0
  196.8560  174.7650  140.6280 C   0  0  1  0  0  3  0  0  0  0  0  0
  196.8650  174.3250  139.2000 C   0  0  2  0  0  3  0  0  0  0  0  0
  196.1870  175.1400  136.9030 C   0  0  0  0  0  0  0  0  0  0  0  0
  196.5380  175.3940  138.2640 N   0  0  0  0  0  2  0  0  0  0  0  0
  195.8520  176.1030  136.1640 O   0  0  0  0  0  0  0  0  0  0  0  0
  196.1670  173.7390  136.3690 C   0  0  2  0  0  3  0  0  0  0  0  0
  197.1510  173.5220  135.2470 C   0  0  0  0  0  0  0  0  0  0  0  0
  197.1390  172.3420  134.5130 O   0  0  0  0  0  0  0  0  0  0  0  0
  197.9410  174.4430  134.9120 O   0  0  0  0  0  1  0  0  0  0  0  0
  194.7420  173.3690  135.9670 C   0  0  0  0  0  2  0  0  0  0  0  0
  193.8960  173.0280  137.1890 C   0  0  0  0  0  2  0  0  0  0  0  0
  193.4050  170.8390  138.4060 C   0  0  0  0  0  0  0  0  0  0  0  0
  193.8540  169.7450  138.8400 O   0  0  0  0  0  0  0  0  0  0  0  0
  194.3030  171.7510  137.7690 N   0  0  0  0  0  2  0  0  0  0  0  0
  190.6720  169.5080  140.0010 C   0  0  0  0  0  0  0  0  0  0  0  0
  191.6510  170.9290  136.1480 O   0  0  0  0  0  1  0  0  0  0  0  0
  191.0710  170.6500  137.3880 C   0  0  1  0  0  3  0  0  0  0  0  0
  190.4710  169.0440  141.1540 O   0  0  0  0  0  0  0  0  0  0  0  0
  191.4340  170.7110  139.8450 N   0  0  0  0  0  2  0  0  0  0  0  0
  191.8770  168.3650  137.3660 O   0  0  0  0  0  1  0  0  0  0  0  0
  190.7370  169.1590  137.5020 C   0  0  1  0  0  3  0  0  0  0  0  0
  190.0250  168.8450  138.8170 C   0  0  0  0  0  2  0  0  0  0  0  0
  191.9410  171.1650  138.5510 C   0  0  1  0  0  3  0  0  0  0  0  0
  1  3  1  0  0  0  0
  2  1  1  0  0  0  0
  2  3  1  0  0  0  0
  2 35  1  1  0  0  0
  3  4  1  6  0  0  0
  5  4  2  0  0  0  0
  6  7  2  0  0  0  0
  7  4  1  0  0  0  0
  7  8  1  0  0  0  0
  8  9  1  0  0  0  0
 10 12  1  0  0  0  0
 10 11  1  0  0  0  0
 11  9  1  6  0  0  0
 11 13  1  0  0  0  0
 12 15  1  0  0  0  0
 13 14  2  0  0  0  0
 15 16  1  0  0  0  0
 16 14  1  0  0  0  0
 16 17  2  0  0  0  0
 18  5  1  6  0  0  0
 19 18  1  0  0  0  0
 20 19  1  0  0  0  0
 21 20  1  0  0  0  0
 21 19  1  0  0  0  0
 22 18  1  6  0  0  0
 22 24  1  0  0  0  0
 22 33  1  0  0  0  0
 23 25  1  0  0  0  0
 24 23  2  0  0  0  0
 26 24  1  0  0  0  0
 26 28  2  0  0  0  0
 27 25  2  0  0  0  0
 28 27  1  0  0  0  0
 30 32  1  0  0  0  0
 31 30  1  0  0  0  0
 32 29  1  0  0  0  0
 33 31  2  0  0  0  0
 33 34  1  0  0  0  0
 34 32  2  0  0  0  0
 35 37  1  0  0  0  0
 37 36  2  0  0  0  0
 38 39  2  0  0  0  0
 39 37  1  0  0  0  0
 40 38  1  0  0  0  0
 41 42  1  0  0  0  0
 42 40  1  6  0  0  0
 43 45  1  6  0  0  0
 43 41  1  0  0  0  0
 43 42  1  0  0  0  0
 44 45  1  0  0  0  0
 46 44  2  0  0  0  0
 47 51  1  6  0  0  0
 47 44  1  0  0  0  0
 48 47  1  0  0  0  0
 49 48  2  0  0  0  0
 50 48  1  0  0  0  0
 51 52  1  0  0  0  0
 52 55  1  0  0  0  0
 53 54  2  0  0  0  0
 55 53  1  0  0  0  0
 56 59  2  0  0  0  0
 58 57  1  6  0  0  0
 58 62  1  0  0  0  0
 58 64  1  0  0  0  0
 60 56  1  0  0  0  0
 62 61  1  1  0  0  0
 62 63  1  0  0  0  0
 63 56  1  0  0  0  0
 64 53  1  6  0  0  0
 64 60  1  0  0  0  0
M  END
>  <MODEL>
5

>  <REMARK>
 VINA RESULT:      -5.3      2.723      6.769
  Name = 
  22 active torsions:
  status: ('A' for Active; 'I' for Inactive)
    1  A    between atoms: C_5  and  C_37
    2  A    between atoms: C_7  and  C_64
    3  A    between atoms: C_10  and  C_48
    4  A    between atoms: C_12  and  C_51
    5  A    between atoms: C_16  and  C_48
    6  A    between atoms: C_17  and  C_26
    7  A    between atoms: N_21  and  C_61
    8  A    between atoms: C_22  and  C_39
    9  A    between atoms: C_22  and  C_50
   10  A    between atoms: C_23  and  C_42
   11  A    between atoms: C_23  and  C_62
   12  A    between atoms: C_26  and  O_47
   13  A    between atoms: C_31  and  N_44
   14  A    between atoms: C_31  and  C_59
   15  A    between atoms: C_32  and  N_33
   16  A    between atoms: C_32  and  C_54
   17  A    between atoms: N_36  and  C_50
   18  A    between atoms: C_37  and  C_51
   19  A    between atoms: C_37  and  N_57
   20  A    between atoms: C_38  and  C_51
   21  A    between atoms: O_47  and  C_62
   22  A    between atoms: C_48  and  C_59
                            x       y       z     vdW  Elec       q    Type
                         _______ _______ _______ _____ _____    ______ ____

>  <TORSDO>
F 22

$$$$
=
 OpenBabel11042416043D

 64 70  0  0  1  0  0  0  0  0999 V2000
  188.7780  174.9400  143.1550 C   0  0  0  0  0  2  0  0  0  0  0  0
  189.0540  173.9690  142.0300 C   0  0  2  0  0  3  0  0  0  0  0  0
  187.7370  174.7300  142.0650 C   0  0  2  0  0  3  0  0  0  0  0  0
  187.7660  175.8450  141.0490 C   0  0  0  0  0  0  0  0  0  0  0  0
  187.8070  177.0990  141.3990 N   0  0  0  0  0  0  0  0  0  0  0  0
  187.0940  176.3350  138.8280 O   0  0  0  0  0  0  0  0  0  0  0  0
  187.6610  175.5260  139.6140 C   0  0  0  0  0  0  0  0  0  0  0  0
  188.2010  174.3280  139.1370 O   0  0  0  0  0  0  0  0  0  0  0  0
  188.2490  173.9870  137.7530 C   0  0  0  0  0  2  0  0  0  0  0  0
  190.6150  173.4460  138.4520 C   0  0  0  0  0  2  0  0  0  0  0  0
  189.5460  173.2650  137.3810 C   0  0  1  0  0  3  0  0  0  0  0  0
  191.9980  173.3130  137.8370 C   0  0  0  0  0  2  0  0  0  0  0  0
  189.2720  171.8260  137.0560 C   0  0  0  0  0  3  0  0  0  0  0  0
  190.1840  170.9440  136.6380 C   0  0  0  0  0  3  0  0  0  0  0  0
  192.3720  171.8500  137.6600 C   0  0  0  0  0  2  0  0  0  0  0  0
  191.6280  171.2050  136.5320 C   0  0  0  0  0  0  0  0  0  0  0  0
  192.3040  170.5440  135.6520 N   0  0  0  0  0  2  0  0  0  0  0  0
  187.8400  177.5940  142.7740 C   0  0  1  0  0  3  0  0  0  0  0  0
  189.1740  178.3260  143.0200 C   0  0  0  0  0  3  0  0  0  0  0  0
  189.8210  177.9430  144.3390 C   0  0  0  0  0  2  0  0  0  0  0  0
  190.3700  177.3910  143.0350 C   0  0  0  0  0  2  0  0  0  0  0  0
  186.5550  178.3650  143.1670 C   0  0  2  0  0  3  0  0  0  0  0  0
  185.9170  179.2600  145.4070 C   0  0  0  0  0  3  0  0  0  0  0  0
  186.1550  178.1480  144.5930 C   0  0  0  0  0  0  0  0  0  0  0  0
  185.5540  179.0880  146.7470 C   0  0  0  0  0  3  0  0  0  0  0  0
  186.0300  176.8580  145.1310 C   0  0  0  0  0  3  0  0  0  0  0  0
  185.4300  177.8010  147.2790 C   0  0  0  0  0  3  0  0  0  0  0  0
  185.6690  176.6860  146.4710 C   0  0  0  0  0  3  0  0  0  0  0  0
  181.9750  178.1650  141.2940 C   0  0  0  0  0  1  0  0  0  0  0  0
  184.3310  178.3330  140.3550 C   0  0  0  0  0  2  0  0  0  0  0  0
  185.5760  178.3790  140.8650 N   0  0  0  0  0  0  0  0  0  0  0  0
  183.4550  178.2330  141.4110 C   0  0  0  0  0  0  0  0  0  0  0  0
  185.4070  178.2970  142.2020 C   0  0  0  0  0  0  0  0  0  0  0  0
  184.1150  178.2200  142.5800 N   0  0  0  0  0  0  0  0  0  0  0  0
  188.8070  172.5470  142.4940 C   0  0  0  0  0  2  0  0  0  0  0  0
  189.4900  171.8280  144.6610 O   0  0  0  0  0  0  0  0  0  0  0  0
  189.8420  172.1430  143.4930 C   0  0  0  0  0  0  0  0  0  0  0  0
  191.6340  171.5780  142.0720 N   0  0  0  0  0  0  0  0  0  0  0  0
  191.2280  172.1250  143.1490 N   0  0  0  0  0  0  0  0  0  0  0  0
  193.0470  171.5690  141.7390 C   0  0  0  0  0  2  0  0  0  0  0  0
  193.2280  169.1820  141.6360 O   0  0  0  0  0  0  0  0  0  0  0  0
  193.7140  170.3190  142.3070 C   0  0  1  0  0  3  0  0  0  0  0  0
  194.5540  169.5540  141.3380 C   0  0  2  0  0  3  0  0  0  0  0  0
  195.8160  170.6170  139.4210 C   0  0  0  0  0  0  0  0  0  0  0  0
  194.6000  170.1570  140.0110 N   0  0  0  0  0  2  0  0  0  0  0  0
  195.7970  171.0670  138.2450 O   0  0  0  0  0  0  0  0  0  0  0  0
  197.1130  170.5200  140.1680 C   0  0  2  0  0  3  0  0  0  0  0  0
  197.4610  169.1080  140.5630 C   0  0  0  0  0  0  0  0  0  0  0  0
  197.6950  168.7810  141.8940 O   0  0  0  0  0  1  0  0  0  0  0  0
  197.4650  168.1910  139.6990 O   0  0  0  0  0  0  0  0  0  0  0  0
  197.0790  171.4640  141.3670 C   0  0  0  0  0  2  0  0  0  0  0  0
  197.1320  172.9220  140.9230 C   0  0  0  0  0  2  0  0  0  0  0  0
  196.9600  174.2730  143.0800 C   0  0  0  0  0  0  0  0  0  0  0  0
  197.5560  174.9650  143.9480 O   0  0  0  0  0  0  0  0  0  0  0  0
  197.7010  173.7680  141.9680 N   0  0  0  0  0  2  0  0  0  0  0  0
  194.2390  175.7280  144.5860 C   0  0  0  0  0  0  0  0  0  0  0  0
  196.0230  171.9060  144.3860 O   0  0  0  0  0  1  0  0  0  0  0  0
  195.1640  173.0080  144.3830 C   0  0  1  0  0  3  0  0  0  0  0  0
  193.7980  176.9060  144.6490 O   0  0  0  0  0  0  0  0  0  0  0  0
  194.7200  175.2180  143.3360 N   0  0  0  0  0  2  0  0  0  0  0  0
  196.4280  174.1290  146.1200 O   0  0  0  0  0  1  0  0  0  0  0  0
  195.1550  173.6880  145.7570 C   0  0  1  0  0  3  0  0  0  0  0  0
  194.1590  174.8460  145.8010 C   0  0  0  0  0  2  0  0  0  0  0  0
  195.4890  173.9790  143.2310 C   0  0  1  0  0  3  0  0  0  0  0  0
  2  3  1  0  0  0  0
  2 35  1  1  0  0  0
  2  1  1  0  0  0  0
  3  4  1  6  0  0  0
  3  1  1  0  0  0  0
  4  5  2  0  0  0  0
  6  7  2  0  0  0  0
  7  4  1  0  0  0  0
  8  7  1  0  0  0  0
  9  8  1  0  0  0  0
 11  9  1  1  0  0  0
 11 10  1  0  0  0  0
 12 10  1  0  0  0  0
 13 11  1  0  0  0  0
 14 13  2  0  0  0  0
 15 12  1  0  0  0  0
 16 14  1  0  0  0  0
 16 15  1  0  0  0  0
 17 16  2  0  0  0  0
 18  5  1  6  0  0  0
 18 19  1  0  0  0  0
 19 21  1  0  0  0  0
 19 20  1  0  0  0  0
 21 20  1  0  0  0  0
 22 18  1  6  0  0  0
 22 24  1  0  0  0  0
 23 25  1  0  0  0  0
 24 26  1  0  0  0  0
 24 23  2  0  0  0  0
 25 27  2  0  0  0  0
 26 28  2  0  0  0  0
 28 27  1  0  0  0  0
 29 32  1  0  0  0  0
 30 31  1  0  0  0  0
 30 32  1  0  0  0  0
 31 33  2  0  0  0  0
 32 34  2  0  0  0  0
 33 34  1  0  0  0  0
 33 22  1  0  0  0  0
 35 37  1  0  0  0  0
 37 36  2  0  0  0  0
 38 39  2  0  0  0  0
 39 37  1  0  0  0  0
 40 38  1  0  0  0  0
 41 42  1  0  0  0  0
 42 40  1  6  0  0  0
 43 45  1  6  0  0  0
 43 41  1  0  0  0  0
 43 42  1  0  0  0  0
 44 45  1  0  0  0  0
 44 47  1  0  0  0  0
 46 44  2  0  0  0  0
 47 48  1  0  0  0  0
 47 51  1  1  0  0  0
 48 49  1  0  0  0  0
 50 48  2  0  0  0  0
 52 51  1  0  0  0  0
 52 55  1  0  0  0  0
 53 54  2  0  0  0  0
 55 53  1  0  0  0  0
 56 59  2  0  0  0  0
 56 63  1  0  0  0  0
 58 57  1  1  0  0  0
 58 62  1  0  0  0  0
 60 56  1  0  0  0  0
 62 63  1  0  0  0  0
 62 61  1  6  0  0  0
 64 53  1  1  0  0  0
 64 60  1  0  0  0  0
 64 58  1  0  0  0  0
M  END
>  <MODEL>
6

>  <REMARK>
 VINA RESULT:      -5.3      2.173      3.657
  Name = 
  22 active torsions:
  status: ('A' for Active; 'I' for Inactive)
    1  A    between atoms: C_5  and  C_37
    2  A    between atoms: C_7  and  C_64
    3  A    between atoms: C_10  and  C_48
    4  A    between atoms: C_12  and  C_51
    5  A    between atoms: C_16  and  C_48
    6  A    between atoms: C_17  and  C_26
    7  A    between atoms: N_21  and  C_61
    8  A    between atoms: C_22  and  C_39
    9  A    between atoms: C_22  and  C_50
   10  A    between atoms: C_23  and  C_42
   11  A    between atoms: C_23  and  C_62
   12  A    between atoms: C_26  and  O_47
   13  A    between atoms: C_31  and  N_44
   14  A    between atoms: C_31  and  C_59
   15  A    between atoms: C_32  and  N_33
   16  A    between atoms: C_32  and  C_54
   17  A    between atoms: N_36  and  C_50
   18  A    between atoms: C_37  and  C_51
   19  A    between atoms: C_37  and  N_57
   20  A    between atoms: C_38  and  C_51
   21  A    between atoms: O_47  and  C_62
   22  A    between atoms: C_48  and  C_59
                            x       y       z     vdW  Elec       q    Type
                         _______ _______ _______ _____ _____    ______ ____

>  <TORSDO>
F 22

$$$$
=
 OpenBabel11042416043D

 64 70  0  0  1  0  0  0  0  0999 V2000
  191.5010  177.7200  143.2500 C   0  0  0  0  0  2  0  0  0  0  0  0
  192.5130  176.5980  143.2440 C   0  0  2  0  0  3  0  0  0  0  0  0
  191.1740  176.4040  143.9400 C   0  0  2  0  0  3  0  0  0  0  0  0
  190.2770  175.5400  143.0880 C   0  0  0  0  0  0  0  0  0  0  0  0
  189.0080  175.7920  142.9450 N   0  0  0  0  0  0  0  0  0  0  0  0
  191.6220  174.4190  141.4880 O   0  0  0  0  0  0  0  0  0  0  0  0
  190.8210  174.3230  142.4590 C   0  0  0  0  0  0  0  0  0  0  0  0
  190.4480  173.0710  142.9550 O   0  0  0  0  0  0  0  0  0  0  0  0
  190.9390  172.5350  144.1810 C   0  0  0  0  0  2  0  0  0  0  0  0
  191.9580  170.9440  142.5040 C   0  0  0  0  0  2  0  0  0  0  0  0
  191.9510  171.4100  143.9550 C   0  0  1  0  0  3  0  0  0  0  0  0
  192.4290  169.5030  142.4190 C   0  0  0  0  0  2  0  0  0  0  0  0
  193.3080  171.8150  144.4520 C   0  0  0  0  0  3  0  0  0  0  0  0
  194.3930  171.0350  144.4540 C   0  0  0  0  0  3  0  0  0  0  0  0
  193.9470  169.4260  142.4880 C   0  0  0  0  0  2  0  0  0  0  0  0
  194.4670  169.6880  143.8680 C   0  0  0  0  0  0  0  0  0  0  0  0
  195.3080  168.8480  144.3740 N   0  0  0  0  0  2  0  0  0  0  0  0
  188.2910  176.9100  143.5550 C   0  0  1  0  0  3  0  0  0  0  0  0
  187.2470  177.4520  142.5590 C   0  0  0  0  0  3  0  0  0  0  0  0
  187.8670  178.2820  141.4490 C   0  0  0  0  0  2  0  0  0  0  0  0
  187.3970  176.8660  141.1660 C   0  0  0  0  0  2  0  0  0  0  0  0
  187.7740  176.5880  144.9800 C   0  0  2  0  0  3  0  0  0  0  0  0
  186.3460  178.6270  144.8170 C   0  0  0  0  0  3  0  0  0  0  0  0
  186.5300  177.3410  145.3350 C   0  0  0  0  0  0  0  0  0  0  0  0
  185.2000  179.3610  145.1410 C   0  0  0  0  0  3  0  0  0  0  0  0
  185.5590  176.7930  146.1860 C   0  0  0  0  0  3  0  0  0  0  0  0
  184.2340  178.8110  145.9890 C   0  0  0  0  0  3  0  0  0  0  0  0
  184.4140  177.5280  146.5130 C   0  0  0  0  0  3  0  0  0  0  0  0
  191.1770  175.0150  148.2150 C   0  0  0  0  0  1  0  0  0  0  0  0
  190.1690  177.2560  147.5610 C   0  0  0  0  0  2  0  0  0  0  0  0
  189.2390  177.6810  146.6870 N   0  0  0  0  0  0  0  0  0  0  0  0
  190.2590  175.8880  147.4390 C   0  0  0  0  0  0  0  0  0  0  0  0
  188.7970  176.5600  146.0780 C   0  0  0  0  0  0  0  0  0  0  0  0
  189.4090  175.4360  146.5020 N   0  0  0  0  0  0  0  0  0  0  0  0
  193.5770  176.8460  144.2950 C   0  0  0  0  0  2  0  0  0  0  0  0
  193.4390  174.9890  145.7840 O   0  0  0  0  0  0  0  0  0  0  0  0
  194.0700  175.5470  144.8470 C   0  0  0  0  0  0  0  0  0  0  0  0
  195.7920  175.3350  143.2530 N   0  0  0  0  0  0  0  0  0  0  0  0
  195.2560  174.9370  144.3380 N   0  0  0  0  0  0  0  0  0  0  0  0
  196.9980  174.7020  142.7510 C   0  0  0  0  0  2  0  0  0  0  0  0
  195.5480  173.1770  141.6060 O   0  0  0  0  0  0  0  0  0  0  0  0
  196.7160  173.2470  142.3870 C   0  0  1  0  0  3  0  0  0  0  0  0
  196.7580  172.9410  140.9250 C   0  0  2  0  0  3  0  0  0  0  0  0
  197.0100  174.0690  138.6760 C   0  0  0  0  0  0  0  0  0  0  0  0
  197.0840  174.0990  140.1010 N   0  0  0  0  0  2  0  0  0  0  0  0
  197.2400  175.1230  138.0260 O   0  0  0  0  0  0  0  0  0  0  0  0
  196.6140  172.8140  137.9570 C   0  0  2  0  0  3  0  0  0  0  0  0
  197.1040  172.7720  136.5320 C   0  0  0  0  0  0  0  0  0  0  0  0
  197.8930  173.7970  136.0230 O   0  0  0  0  0  1  0  0  0  0  0  0
  196.8710  171.7650  135.8110 O   0  0  0  0  0  0  0  0  0  0  0  0
  195.1020  172.6290  138.0530 C   0  0  0  0  0  2  0  0  0  0  0  0
  194.3670  173.9340  137.7640 C   0  0  0  0  0  2  0  0  0  0  0  0
  191.8810  173.3700  137.8570 C   0  0  0  0  0  0  0  0  0  0  0  0
  190.8100  173.4110  138.5190 O   0  0  0  0  0  0  0  0  0  0  0  0
  193.0600  173.9550  138.4130 N   0  0  0  0  0  2  0  0  0  0  0  0
  189.7850  173.0530  135.1570 C   0  0  0  0  0  0  0  0  0  0  0  0
  192.1460  170.5350  137.5870 O   0  0  0  0  0  1  0  0  0  0  0  0
  191.5120  171.2120  136.5430 C   0  0  1  0  0  3  0  0  0  0  0  0
  189.0570  173.8550  134.5140 O   0  0  0  0  0  0  0  0  0  0  0  0
  191.1070  173.4500  135.5400 N   0  0  0  0  0  2  0  0  0  0  0  0
  189.4590  171.4530  137.8090 O   0  0  0  0  0  1  0  0  0  0  0  0
  189.9950  170.9960  136.6030 C   0  0  1  0  0  3  0  0  0  0  0  0
  189.2890  171.6600  135.4230 C   0  0  0  0  0  2  0  0  0  0  0  0
  191.9090  172.7010  136.5080 C   0  0  1  0  0  3  0  0  0  0  0  0
  1  3  1  0  0  0  0
  2  1  1  0  0  0  0
  2  3  1  0  0  0  0
  2 35  1  1  0  0  0
  3  4  1  6  0  0  0
  5  4  2  0  0  0  0
  6  7  2  0  0  0  0
  7  8  1  0  0  0  0
  7  4  1  0  0  0  0
  8  9  1  0  0  0  0
 10 11  1  0  0  0  0
 11  9  1  6  0  0  0
 11 13  1  0  0  0  0
 12 15  1  0  0  0  0
 12 10  1  0  0  0  0
 13 14  2  0  0  0  0
 15 16  1  0  0  0  0
 16 17  2  0  0  0  0
 16 14  1  0  0  0  0
 18  5  1  6  0  0  0
 19 18  1  0  0  0  0
 20 19  1  0  0  0  0
 21 20  1  0  0  0  0
 21 19  1  0  0  0  0
 22 18  1  6  0  0  0
 22 24  1  0  0  0  0
 22 33  1  0  0  0  0
 23 25  2  0  0  0  0
 23 24  1  0  0  0  0
 24 26  2  0  0  0  0
 25 27  1  0  0  0  0
 26 28  1  0  0  0  0
 27 28  2  0  0  0  0
 31 30  1  0  0  0  0
 32 30  1  0  0  0  0
 32 29  1  0  0  0  0
 33 34  1  0  0  0  0
 33 31  2  0  0  0  0
 34 32  2  0  0  0  0
 35 37  1  0  0  0  0
 37 36  2  0  0  0  0
 38 39  2  0  0  0  0
 39 37  1  0  0  0  0
 40 38  1  0  0  0  0
 41 42  1  0  0  0  0
 42 40  1  6  0  0  0
 43 45  1  6  0  0  0
 43 41  1  0  0  0  0
 43 42  1  0  0  0  0
 44 45  1  0  0  0  0
 46 44  2  0  0  0  0
 47 51  1  6  0  0  0
 47 44  1  0  0  0  0
 48 47  1  0  0  0  0
 49 48  1  0  0  0  0
 50 48  2  0  0  0  0
 52 51  1  0  0  0  0
 52 55  1  0  0  0  0
 53 55  1  0  0  0  0
 53 54  2  0  0  0  0
 56 63  1  0  0  0  0
 56 60  1  0  0  0  0
 58 62  1  0  0  0  0
 58 57  1  1  0  0  0
 59 56  2  0  0  0  0
 60 64  1  0  0  0  0
 62 61  1  1  0  0  0
 63 62  1  0  0  0  0
 64 58  1  0  0  0  0
 64 53  1  1  0  0  0
M  END
>  <MODEL>
7

>  <REMARK>
 VINA RESULT:      -5.2      2.527      6.651
  Name = 
  22 active torsions:
  status: ('A' for Active; 'I' for Inactive)
    1  A    between atoms: C_5  and  C_37
    2  A    between atoms: C_7  and  C_64
    3  A    between atoms: C_10  and  C_48
    4  A    between atoms: C_12  and  C_51
    5  A    between atoms: C_16  and  C_48
    6  A    between atoms: C_17  and  C_26
    7  A    between atoms: N_21  and  C_61
    8  A    between atoms: C_22  and  C_39
    9  A    between atoms: C_22  and  C_50
   10  A    between atoms: C_23  and  C_42
   11  A    between atoms: C_23  and  C_62
   12  A    between atoms: C_26  and  O_47
   13  A    between atoms: C_31  and  N_44
   14  A    between atoms: C_31  and  C_59
   15  A    between atoms: C_32  and  N_33
   16  A    between atoms: C_32  and  C_54
   17  A    between atoms: N_36  and  C_50
   18  A    between atoms: C_37  and  C_51
   19  A    between atoms: C_37  and  N_57
   20  A    between atoms: C_38  and  C_51
   21  A    between atoms: O_47  and  C_62
   22  A    between atoms: C_48  and  C_59
                            x       y       z     vdW  Elec       q    Type
                         _______ _______ _______ _____ _____    ______ ____

>  <TORSDO>
F 22

$$$$
=
 OpenBabel11042416043D

 64 70  0  0  1  0  0  0  0  0999 V2000
  188.7690  174.9740  143.1720 C   0  0  0  0  0  2  0  0  0  0  0  0
  188.9570  173.9840  142.0460 C   0  0  2  0  0  3  0  0  0  0  0  0
  187.6810  174.8090  142.1210 C   0  0  2  0  0  3  0  0  0  0  0  0
  187.7280  175.9140  141.0960 C   0  0  0  0  0  0  0  0  0  0  0  0
  187.8180  177.1690  141.4350 N   0  0  0  0  0  0  0  0  0  0  0  0
  187.0650  176.4260  138.8770 O   0  0  0  0  0  0  0  0  0  0  0  0
  187.5850  175.5880  139.6660 C   0  0  0  0  0  0  0  0  0  0  0  0
  188.0380  174.3520  139.1960 O   0  0  0  0  0  0  0  0  0  0  0  0
  188.6260  174.1700  137.9100 C   0  0  0  0  0  2  0  0  0  0  0  0
  188.9630  171.8660  138.8890 C   0  0  0  0  0  2  0  0  0  0  0  0
  189.3930  172.8500  137.8070 C   0  0  1  0  0  3  0  0  0  0  0  0
  190.0900  170.8930  139.1880 C   0  0  0  0  0  2  0  0  0  0  0  0
  189.2860  172.2870  136.4200 C   0  0  0  0  0  3  0  0  0  0  0  0
  189.8920  171.1760  135.9910 C   0  0  0  0  0  3  0  0  0  0  0  0
  190.1370  169.7840  138.1480 C   0  0  0  0  0  2  0  0  0  0  0  0
  190.6750  170.2590  136.8340 C   0  0  0  0  0  0  0  0  0  0  0  0
  191.6220  169.5790  136.2790 N   0  0  0  0  0  2  0  0  0  0  0  0
  187.8940  177.6730  142.8050 C   0  0  1  0  0  3  0  0  0  0  0  0
  189.2250  178.4260  142.9970 C   0  0  0  0  0  3  0  0  0  0  0  0
  190.0120  177.9340  144.1990 C   0  0  0  0  0  2  0  0  0  0  0  0
  190.4420  177.5410  142.7970 C   0  0  0  0  0  2  0  0  0  0  0  0
  186.6130  178.4270  143.2400 C   0  0  2  0  0  3  0  0  0  0  0  0
  185.9450  179.2470  145.5000 C   0  0  0  0  0  3  0  0  0  0  0  0
  186.2340  178.1630  144.6650 C   0  0  0  0  0  0  0  0  0  0  0  0
  185.6000  179.0330  146.8390 C   0  0  0  0  0  3  0  0  0  0  0  0
  186.1810  176.8600  145.1800 C   0  0  0  0  0  3  0  0  0  0  0  0
  185.5470  177.7320  147.3490 C   0  0  0  0  0  3  0  0  0  0  0  0
  185.8390  176.6460  146.5190 C   0  0  0  0  0  3  0  0  0  0  0  0
  182.0140  178.1380  141.4260 C   0  0  0  0  0  1  0  0  0  0  0  0
  184.3370  178.5360  140.4730 C   0  0  0  0  0  2  0  0  0  0  0  0
  185.5870  178.6070  140.9660 N   0  0  0  0  0  0  0  0  0  0  0  0
  183.4900  178.2820  141.5270 C   0  0  0  0  0  0  0  0  0  0  0  0
  185.4510  178.3850  142.2910 C   0  0  0  0  0  0  0  0  0  0  0  0
  184.1740  178.1940  142.6790 N   0  0  0  0  0  0  0  0  0  0  0  0
  188.6580  172.5790  142.5300 C   0  0  0  0  0  2  0  0  0  0  0  0
  189.5490  171.7670  144.5860 O   0  0  0  0  0  0  0  0  0  0  0  0
  189.7750  172.0780  143.3870 C   0  0  0  0  0  0  0  0  0  0  0  0
  191.8260  172.9930  142.6760 N   0  0  0  0  0  0  0  0  0  0  0  0
  191.1020  171.9640  142.8700 N   0  0  0  0  0  0  0  0  0  0  0  0
  193.1730  172.8570  142.1490 C   0  0  0  0  0  2  0  0  0  0  0  0
  192.4040  173.4460  139.9580 O   0  0  0  0  0  0  0  0  0  0  0  0
  193.1240  172.4720  140.6730 C   0  0  1  0  0  3  0  0  0  0  0  0
  193.7970  173.4300  139.7470 C   0  0  2  0  0  3  0  0  0  0  0  0
  195.7750  174.9220  140.2600 C   0  0  0  0  0  0  0  0  0  0  0  0
  194.4020  174.5680  140.4310 N   0  0  0  0  0  2  0  0  0  0  0  0
  196.2190  175.9550  140.8280 O   0  0  0  0  0  0  0  0  0  0  0  0
  196.6700  174.1070  139.3740 C   0  0  2  0  0  3  0  0  0  0  0  0
  196.2520  174.1390  137.9260 C   0  0  0  0  0  0  0  0  0  0  0  0
  195.8990  175.3370  137.3160 O   0  0  0  0  0  1  0  0  0  0  0  0
  196.2960  173.0890  137.2310 O   0  0  0  0  0  0  0  0  0  0  0  0
  196.7640  172.6850  139.9180 C   0  0  0  0  0  2  0  0  0  0  0  0
  197.7120  172.6120  141.1100 C   0  0  0  0  0  2  0  0  0  0  0  0
  197.2000  170.5650  142.5450 C   0  0  0  0  0  0  0  0  0  0  0  0
  197.4500  169.3560  142.7920 O   0  0  0  0  0  0  0  0  0  0  0  0
  197.9390  171.2280  141.5170 N   0  0  0  0  0  2  0  0  0  0  0  0
  197.0370  173.0430  144.9160 C   0  0  0  0  0  0  0  0  0  0  0  0
  195.4340  169.1830  144.3210 O   0  0  0  0  0  1  0  0  0  0  0  0
  195.6590  170.5370  144.5800 C   0  0  1  0  0  3  0  0  0  0  0  0
  197.6000  174.1610  145.0550 O   0  0  0  0  0  0  0  0  0  0  0  0
  196.5420  172.6550  143.6280 N   0  0  0  0  0  2  0  0  0  0  0  0
  197.8450  170.0980  145.5300 O   0  0  0  0  0  1  0  0  0  0  0  0
  196.6110  170.7070  145.7690 C   0  0  1  0  0  3  0  0  0  0  0  0
  196.8050  172.1800  146.1240 C   0  0  0  0  0  2  0  0  0  0  0  0
  196.1280  171.2870  143.3190 C   0  0  1  0  0  3  0  0  0  0  0  0
  2  3  1  0  0  0  0
  2 35  1  1  0  0  0
  2  1  1  0  0  0  0
  3  4  1  6  0  0  0
  3  1  1  0  0  0  0
  4  5  2  0  0  0  0
  6  7  2  0  0  0  0
  7  4  1  0  0  0  0
  8  7  1  0  0  0  0
  9  8  1  0  0  0  0
 10 12  1  0  0  0  0
 11  9  1  6  0  0  0
 11 10  1  0  0  0  0
 13 11  1  0  0  0  0
 14 13  2  0  0  0  0
 14 16  1  0  0  0  0
 15 12  1  0  0  0  0
 16 15  1  0  0  0  0
 17 16  2  0  0  0  0
 18  5  1  6  0  0  0
 18 19  1  0  0  0  0
 19 20  1  0  0  0  0
 21 19  1  0  0  0  0
 21 20  1  0  0  0  0
 22 18  1  6  0  0  0
 22 24  1  0  0  0  0
 23 25  1  0  0  0  0
 24 26  1  0  0  0  0
 24 23  2  0  0  0  0
 25 27  2  0  0  0  0
 26 28  2  0  0  0  0
 28 27  1  0  0  0  0
 29 32  1  0  0  0  0
 30 31  1  0  0  0  0
 30 32  1  0  0  0  0
 31 33  2  0  0  0  0
 32 34  2  0  0  0  0
 33 34  1  0  0  0  0
 33 22  1  0  0  0  0
 35 37  1  0  0  0  0
 37 36  2  0  0  0  0
 38 39  2  0  0  0  0
 39 37  1  0  0  0  0
 40 38  1  0  0  0  0
 41 42  1  0  0  0  0
 42 40  1  1  0  0  0
 43 41  1  0  0  0  0
 43 45  1  1  0  0  0
 43 42  1  0  0  0  0
 44 45  1  0  0  0  0
 44 46  2  0  0  0  0
 47 51  1  1  0  0  0
 47 44  1  0  0  0  0
 48 47  1  0  0  0  0
 49 48  1  0  0  0  0
 50 48  2  0  0  0  0
 51 52  1  0  0  0  0
 52 55  1  0  0  0  0
 53 54  2  0  0  0  0
 55 53  1  0  0  0  0
 56 59  2  0  0  0  0
 56 63  1  0  0  0  0
 58 57  1  6  0  0  0
 58 62  1  0  0  0  0
 60 56  1  0  0  0  0
 62 61  1  6  0  0  0
 62 63  1  0  0  0  0
 64 53  1  1  0  0  0
 64 60  1  0  0  0  0
 64 58  1  0  0  0  0
M  END
>  <MODEL>
8

>  <REMARK>
 VINA RESULT:      -5.2      2.300      4.002
  Name = 
  22 active torsions:
  status: ('A' for Active; 'I' for Inactive)
    1  A    between atoms: C_5  and  C_37
    2  A    between atoms: C_7  and  C_64
    3  A    between atoms: C_10  and  C_48
    4  A    between atoms: C_12  and  C_51
    5  A    between atoms: C_16  and  C_48
    6  A    between atoms: C_17  and  C_26
    7  A    between atoms: N_21  and  C_61
    8  A    between atoms: C_22  and  C_39
    9  A    between atoms: C_22  and  C_50
   10  A    between atoms: C_23  and  C_42
   11  A    between atoms: C_23  and  C_62
   12  A    between atoms: C_26  and  O_47
   13  A    between atoms: C_31  and  N_44
   14  A    between atoms: C_31  and  C_59
   15  A    between atoms: C_32  and  N_33
   16  A    between atoms: C_32  and  C_54
   17  A    between atoms: N_36  and  C_50
   18  A    between atoms: C_37  and  C_51
   19  A    between atoms: C_37  and  N_57
   20  A    between atoms: C_38  and  C_51
   21  A    between atoms: O_47  and  C_62
   22  A    between atoms: C_48  and  C_59
                            x       y       z     vdW  Elec       q    Type
                         _______ _______ _______ _____ _____    ______ ____

>  <TORSDO>
F 22

$$$$
=
 OpenBabel11042416043D

 64 70  0  0  1  0  0  0  0  0999 V2000
  191.6470  175.6750  142.6000 C   0  0  0  0  0  2  0  0  0  0  0  0
  192.1640  174.2560  142.6300 C   0  0  2  0  0  3  0  0  0  0  0  0
  191.2900  174.7650  143.7660 C   0  0  2  0  0  3  0  0  0  0  0  0
  189.8960  174.2050  143.6250 C   0  0  0  0  0  0  0  0  0  0  0  0
  188.9350  174.5290  144.4420 N   0  0  0  0  0  0  0  0  0  0  0  0
  190.1520  172.0550  142.6580 O   0  0  0  0  0  0  0  0  0  0  0  0
  189.6170  173.1960  142.5880 C   0  0  0  0  0  0  0  0  0  0  0  0
  188.7520  173.5150  141.5370 O   0  0  0  0  0  0  0  0  0  0  0  0
  189.1200  174.3580  140.4480 C   0  0  0  0  0  2  0  0  0  0  0  0
  191.2170  173.5280  139.3100 C   0  0  0  0  0  2  0  0  0  0  0  0
  189.6930  173.5660  139.2720 C   0  0  1  0  0  3  0  0  0  0  0  0
  191.7700  173.3370  137.9090 C   0  0  0  0  0  2  0  0  0  0  0  0
  189.0700  172.2020  139.2020 C   0  0  0  0  0  3  0  0  0  0  0  0
  189.3140  171.2910  138.2560 C   0  0  0  0  0  3  0  0  0  0  0  0
  191.7090  171.8740  137.4990 C   0  0  0  0  0  2  0  0  0  0  0  0
  190.3140  171.4280  137.1860 C   0  0  0  0  0  0  0  0  0  0  0  0
  190.1050  170.8090  136.0730 N   0  0  0  0  0  2  0  0  0  0  0  0
  189.0560  175.4550  145.5670 C   0  0  1  0  0  3  0  0  0  0  0  0
  190.4860  175.3820  146.1370 C   0  0  0  0  0  3  0  0  0  0  0  0
  190.8760  176.6270  146.9120 C   0  0  0  0  0  2  0  0  0  0  0  0
  190.5200  175.3510  147.6540 C   0  0  0  0  0  2  0  0  0  0  0  0
  188.5220  176.8720  145.2390 C   0  0  2  0  0  3  0  0  0  0  0  0
  187.4730  178.0230  147.1890 C   0  0  0  0  0  3  0  0  0  0  0  0
  187.3120  177.2420  146.0400 C   0  0  0  0  0  0  0  0  0  0  0  0
  186.3630  178.3750  147.9650 C   0  0  0  0  0  3  0  0  0  0  0  0
  186.0290  176.8090  145.6730 C   0  0  0  0  0  3  0  0  0  0  0  0
  185.0860  177.9410  147.5950 C   0  0  0  0  0  3  0  0  0  0  0  0
  184.9190  177.1570  146.4500 C   0  0  0  0  0  3  0  0  0  0  0  0
  186.8150  177.3710  140.6180 C   0  0  0  0  0  1  0  0  0  0  0  0
  188.8720  178.1330  141.9020 C   0  0  0  0  0  2  0  0  0  0  0  0
  189.3390  177.9900  143.1560 N   0  0  0  0  0  0  0  0  0  0  0  0
  187.6750  177.4600  141.8270 C   0  0  0  0  0  0  0  0  0  0  0  0
  188.4160  177.2330  143.7860 C   0  0  0  0  0  0  0  0  0  0  0  0
  187.3680  176.8970  143.0060 N   0  0  0  0  0  0  0  0  0  0  0  0
  193.6060  174.2340  143.0970 C   0  0  0  0  0  2  0  0  0  0  0  0
  194.7020  176.3060  143.5310 O   0  0  0  0  0  0  0  0  0  0  0  0
  194.3080  175.4800  142.6650 C   0  0  0  0  0  0  0  0  0  0  0  0
  194.6530  174.8180  140.4310 N   0  0  0  0  0  0  0  0  0  0  0  0
  194.5260  175.7580  141.2810 N   0  0  0  0  0  0  0  0  0  0  0  0
  194.8740  175.1190  139.0270 C   0  0  0  0  0  2  0  0  0  0  0  0
  196.9460  174.0050  139.4830 O   0  0  0  0  0  0  0  0  0  0  0  0
  196.3600  175.0120  138.6950 C   0  0  1  0  0  3  0  0  0  0  0  0
  196.7860  173.7030  138.1160 C   0  0  2  0  0  3  0  0  0  0  0  0
  195.9020  171.3780  137.6540 C   0  0  0  0  0  0  0  0  0  0  0  0
  195.6870  172.7570  137.9550 N   0  0  0  0  0  2  0  0  0  0  0  0
  194.9130  170.6010  137.5930 O   0  0  0  0  0  0  0  0  0  0  0  0
  197.2910  170.8450  137.4610 C   0  0  2  0  0  3  0  0  0  0  0  0
  197.3380  169.6360  136.5620 C   0  0  0  0  0  0  0  0  0  0  0  0
  197.2430  169.7740  135.1820 O   0  0  0  0  0  0  0  0  0  0  0  0
  197.5430  168.4930  137.0490 O   0  0  0  0  0  1  0  0  0  0  0  0
  197.9270  170.5790  138.8220 C   0  0  0  0  0  2  0  0  0  0  0  0
  196.8680  170.2590  139.8720 C   0  0  0  0  0  2  0  0  0  0  0  0
  196.1950  171.0260  142.2110 C   0  0  0  0  0  0  0  0  0  0  0  0
  196.4320  171.7900  143.1840 O   0  0  0  0  0  0  0  0  0  0  0  0
  197.0160  171.1170  141.0440 N   0  0  0  0  0  2  0  0  0  0  0  0
  193.4270  170.5010  144.1720 C   0  0  0  0  0  0  0  0  0  0  0  0
  196.6770  168.2480  142.6940 O   0  0  0  0  0  1  0  0  0  0  0  0
  195.4270  168.7470  143.0710 C   0  0  1  0  0  3  0  0  0  0  0  0
  192.5210  171.2490  144.6260 O   0  0  0  0  0  0  0  0  0  0  0  0
  193.8550  170.6550  142.8140 N   0  0  0  0  0  2  0  0  0  0  0  0
  196.3350  169.8140  145.0480 O   0  0  0  0  0  1  0  0  0  0  0  0
  195.3560  168.9300  144.5910 C   0  0  1  0  0  3  0  0  0  0  0  0
  193.9700  169.3970  145.0340 C   0  0  0  0  0  2  0  0  0  0  0  0
  195.0690  170.0270  142.2920 C   0  0  1  0  0  3  0  0  0  0  0  0
  1  2  1  0  0  0  0
  1  3  1  0  0  0  0
  2 35  1  1  0  0  0
  2  3  1  0  0  0  0
  3  4  1  6  0  0  0
  4  5  2  0  0  0  0
  7  6  2  0  0  0  0
  7  4  1  0  0  0  0
  8  7  1  0  0  0  0
  9  8  1  0  0  0  0
 11 10  1  0  0  0  0
 11  9  1  1  0  0  0
 12 10  1  0  0  0  0
 13 11  1  0  0  0  0
 14 13  2  0  0  0  0
 15 12  1  0  0  0  0
 16 15  1  0  0  0  0
 16 14  1  0  0  0  0
 17 16  2  0  0  0  0
 18  5  1  6  0  0  0
 18 19  1  0  0  0  0
 19 20  1  0  0  0  0
 19 21  1  0  0  0  0
 20 21  1  0  0  0  0
 22 18  1  6  0  0  0
 22 24  1  0  0  0  0
 23 25  1  0  0  0  0
 24 23  2  0  0  0  0
 26 24  1  0  0  0  0
 26 28  2  0  0  0  0
 27 25  2  0  0  0  0
 28 27  1  0  0  0  0
 29 32  1  0  0  0  0
 30 31  1  0  0  0  0
 31 33  2  0  0  0  0
 32 30  1  0  0  0  0
 32 34  2  0  0  0  0
 33 22  1  0  0  0  0
 34 33  1  0  0  0  0
 37 35  1  0  0  0  0
 37 36  2  0  0  0  0
 38 39  2  0  0  0  0
 39 37  1  0  0  0  0
 40 38  1  0  0  0  0
 42 40  1  1  0  0  0
 42 41  1  0  0  0  0
 43 45  1  1  0  0  0
 43 42  1  0  0  0  0
 43 41  1  0  0  0  0
 44 45  1  0  0  0  0
 46 44  2  0  0  0  0
 47 44  1  0  0  0  0
 47 51  1  1  0  0  0
 48 50  1  0  0  0  0
 48 47  1  0  0  0  0
 49 48  2  0  0  0  0
 51 52  1  0  0  0  0
 52 55  1  0  0  0  0
 53 54  2  0  0  0  0
 55 53  1  0  0  0  0
 56 59  2  0  0  0  0
 56 63  1  0  0  0  0
 58 57  1  1  0  0  0
 58 62  1  0  0  0  0
 60 56  1  0  0  0  0
 62 63  1  0  0  0  0
 62 61  1  6  0  0  0
 64 53  1  1  0  0  0
 64 60  1  0  0  0  0
 64 58  1  0  0  0  0
M  END
>  <MODEL>
9

>  <REMARK>
 VINA RESULT:      -5.2      2.598      4.505
  Name = 
  22 active torsions:
  status: ('A' for Active; 'I' for Inactive)
    1  A    between atoms: C_5  and  C_37
    2  A    between atoms: C_7  and  C_64
    3  A    between atoms: C_10  and  C_48
    4  A    between atoms: C_12  and  C_51
    5  A    between atoms: C_16  and  C_48
    6  A    between atoms: C_17  and  C_26
    7  A    between atoms: N_21  and  C_61
    8  A    between atoms: C_22  and  C_39
    9  A    between atoms: C_22  and  C_50
   10  A    between atoms: C_23  and  C_42
   11  A    between atoms: C_23  and  C_62
   12  A    between atoms: C_26  and  O_47
   13  A    between atoms: C_31  and  N_44
   14  A    between atoms: C_31  and  C_59
   15  A    between atoms: C_32  and  N_33
   16  A    between atoms: C_32  and  C_54
   17  A    between atoms: N_36  and  C_50
   18  A    between atoms: C_37  and  C_51
   19  A    between atoms: C_37  and  N_57
   20  A    between atoms: C_38  and  C_51
   21  A    between atoms: O_47  and  C_62
   22  A    between atoms: C_48  and  C_59
                            x       y       z     vdW  Elec       q    Type
                         _______ _______ _______ _____ _____    ______ ____

>  <TORSDO>
F 22

$$$$
