=
 OpenBabel11042417183D

 63 70  0  0  1  0  0  0  0  0999 V2000
  194.3040  169.5640  143.4210 N   0  0  0  0  0  0  0  0  0  0  0  0
  194.3100  169.3290  140.8900 C   0  0  2  0  0  3  0  0  0  0  0  0
  194.0350  170.1940  142.1200 C   0  0  2  0  0  3  0  0  0  0  0  0
  195.4740  170.2240  140.5180 C   0  0  1  0  0  3  0  0  0  0  0  0
  194.2270  170.2090  139.6520 C   0  0  1  0  0  3  0  0  0  0  0  0
  195.2100  171.0780  141.7480 C   0  0  0  0  0  2  0  0  0  0  0  0
  194.4770  169.4630  138.3330 C   0  0  2  0  0  3  0  0  0  0  0  0
  195.8580  169.3620  138.1260 O   0  0  0  0  0  1  0  0  0  0  0  0
  193.8750  170.0820  137.2210 O   0  0  0  0  0  0  0  0  0  0  0  0
  193.7290  171.4270  137.5800 C   0  0  1  0  0  3  0  0  0  0  0  0
  194.8340  172.2600  136.9050 C   0  0  0  0  0  2  0  0  0  0  0  0
  191.3240  173.0810  135.4660 N   0  0  0  0  0  0  0  0  0  0  0  0
  192.4460  171.9520  137.0580 C   0  0  0  0  0  0  0  0  0  0  0  0
  192.4980  172.9770  136.2580 C   0  0  0  0  0  0  0  0  0  0  0  0
  194.1080  173.6150  135.8800 S   0  0  0  0  0  0  0  0  0  0  0  0
  189.3470  171.6490  135.4910 C   0  0  0  0  0  1  0  0  0  0  0  0
  191.2060  171.2560  136.9830 N   0  0  0  0  0  0  0  0  0  0  0  0
  190.5090  172.0360  136.0110 C   0  0  0  0  0  0  0  0  0  0  0  0
  190.8660  174.3260  134.8660 C   0  0  0  0  0  2  0  0  0  0  0  0
  190.0230  175.0070  135.7390 O   0  0  0  0  0  1  0  0  0  0  0  0
  195.5160  170.1810  143.9360 C   0  0  0  0  0  2  0  0  0  0  0  0
  196.0290  169.3950  145.1310 C   0  0  0  0  0  2  0  0  0  0  0  0
  196.5070  170.3560  146.2030 C   0  0  0  0  0  2  0  0  0  0  0  0
  197.0580  171.6170  145.6080 C   0  0  0  0  0  3  0  0  0  0  0  0
  196.7440  172.8210  146.0840 C   0  0  0  0  0  3  0  0  0  0  0  0
  197.3520  174.0330  145.4550 C   0  0  0  0  0  2  0  0  0  0  0  0
  196.3610  174.6980  144.5200 C   0  0  2  0  0  3  0  0  0  0  0  0
  196.8270  174.5210  143.1200 C   0  0  2  0  0  3  0  0  0  0  0  0
  197.0020  175.7340  143.8100 O   0  0  0  0  0  0  0  0  0  0  0  0
  195.7090  174.6250  142.0770 C   0  0  0  0  0  2  0  0  0  0  0  0
  196.1480  174.8750  140.6330 C   0  0  0  0  0  2  0  0  0  0  0  0
  195.0090  175.3000  139.8320 N   0  0  0  0  0  2  0  0  0  0  0  0
  193.8370  175.1710  140.6830 C   0  0  0  0  0  2  0  0  0  0  0  0
  192.9900  174.0210  140.1920 C   0  0  0  0  0  1  0  0  0  0  0  0
  193.2700  169.8140  144.4280 C   0  0  0  0  0  2  0  0  0  0  0  0
  193.2850  172.2630  144.9500 C   0  0  0  0  0  3  0  0  0  0  0  0
  191.1530  172.7160  143.1860 C   0  0  0  0  0  3  0  0  0  0  0  0
  192.7120  171.1890  144.2530 C   0  0  0  0  0  0  0  0  0  0  0  0
  191.6370  171.4200  143.3810 C   0  0  0  0  0  3  0  0  0  0  0  0
  192.8010  173.5630  144.7580 C   0  0  0  0  0  3  0  0  0  0  0  0
  191.7370  173.7890  143.8730 C   0  0  0  0  0  0  0  0  0  0  0  0
  191.2890  175.1820  143.5750 C   0  0  0  0  0  2  0  0  0  0  0  0
  189.9120  175.2120  143.1070 N   0  0  0  0  0  0  0  0  0  0  0  0
  189.6680  175.0200  141.6780 C   0  0  0  0  0  2  0  0  0  0  0  0
  187.9740  176.7080  141.9160 O   0  0  0  0  0  0  0  0  0  0  0  0
  188.2440  175.4760  141.2960 C   0  0  0  0  0  2  0  0  0  0  0  0
  188.9670  175.6970  145.1960 O   0  0  0  0  0  0  0  0  0  0  0  0
  188.8890  175.7810  143.9360 C   0  0  0  0  0  0  0  0  0  0  0  0
  187.6960  176.4390  143.2760 C   0  0  1  0  0  3  0  0  0  0  0  0
  187.4000  177.7570  143.9960 C   0  0  0  0  0  2  0  0  0  0  0  0
  185.6700  177.6530  145.7570 N   0  0  0  0  0  0  0  0  0  0  0  0
  184.3790  179.8460  144.8800 O   0  0  0  0  0  0  0  0  0  0  0  0
  183.6000  178.8820  145.4110 O   0  0  0  0  0  0  0  0  0  0  0  0
  185.9150  178.0220  144.3390 C   0  0  1  0  0  0  0  0  0  0  0  0
  186.2280  180.3130  143.5810 O   0  0  0  0  0  0  0  0  0  0  0  0
  185.6820  176.2980  145.8940 O   0  0  0  0  0  1  0  0  0  0  0  0
  184.3980  178.1610  146.3340 C   0  0  0  0  0  2  0  0  0  0  0  0
  185.5280  179.4680  144.1960 C   0  0  0  0  0  0  0  0  0  0  0  0
  185.0420  177.1520  143.3990 C   0  0  0  0  0  2  0  0  0  0  0  0
  184.5460  177.8410  142.1550 C   0  0  0  0  0  0  0  0  0  0  0  0
  185.3240  178.0590  141.1830 O   0  0  0  0  0  0  0  0  0  0  0  0
  182.5220  178.2120  140.9420 C   0  0  0  0  0  2  0  0  0  0  0  0
  183.1670  178.1930  142.0640 N   0  0  0  0  0  0  0  0  0  0  0  0
  1 21  1  0  0  0  0
  1 35  1  0  0  0  0
  2  3  1  0  0  0  0
  3  1  1  0  0  0  0
  4  2  1  0  0  0  0
  4  6  1  0  0  0  0
  5  4  1  0  0  0  0
  5  2  1  0  0  0  0
  6  3  1  0  0  0  0
  7  5  1  0  0  0  0
  8  7  1  0  0  0  0
  9 10  1  0  0  0  0
  9  7  1  0  0  0  0
 11 10  1  0  0  0  0
 12 18  1  0  0  0  0
 12 14  1  0  0  0  0
 13 10  1  0  0  0  0
 14 13  2  0  0  0  0
 15 14  1  0  0  0  0
 15 11  1  0  0  0  0
 16 18  1  0  0  0  0
 17 13  1  0  0  0  0
 18 17  2  0  0  0  0
 19 12  1  0  0  0  0
 19 20  1  0  0  0  0
 21 22  1  0  0  0  0
 22 23  1  0  0  0  0
 24 25  2  0  0  0  0
 24 23  1  0  0  0  0
 26 25  1  0  0  0  0
 27 26  1  0  0  0  0
 28 29  1  0  0  0  0
 28 27  1  0  0  0  0
 29 27  1  0  0  0  0
 30 28  1  0  0  0  0
 31 30  1  0  0  0  0
 32 31  1  0  0  0  0
 32 33  1  0  0  0  0
 34 33  1  0  0  0  0
 37 39  2  0  0  0  0
 37 41  1  0  0  0  0
 38 35  1  0  0  0  0
 38 36  2  0  0  0  0
 39 38  1  0  0  0  0
 40 36  1  0  0  0  0
 41 40  2  0  0  0  0
 42 41  1  0  0  0  0
 43 42  1  0  0  0  0
 43 48  1  0  0  0  0
 44 43  1  0  0  0  0
 45 49  1  0  0  0  0
 46 44  1  0  0  0  0
 46 45  1  0  0  0  0
 48 47  2  0  0  0  0
 49 48  1  0  0  0  0
 49 50  1  0  0  0  0
 50 54  1  0  0  0  0
 51 56  1  0  0  0  0
 51 57  1  0  0  0  0
 52 53  1  0  0  0  0
 53 57  1  0  0  0  0
 54 51  1  0  0  0  0
 55 58  2  0  0  0  0
 58 54  1  0  0  0  0
 58 52  1  0  0  0  0
 59 54  1  0  0  0  0
 60 59  1  0  0  0  0
 61 60  2  0  0  0  0
 62 63  2  0  0  0  0
 63 60  1  0  0  0  0
M  END
>  <MODEL>
1

>  <REMARK>
 VINA RESULT:      -5.6      0.000      0.000
  Name = 
  24 active torsions:
  status: ('A' for Active; 'I' for Inactive)
    1  A    between atoms: C_1  and  N_27
    2  A    between atoms: C_1  and  C_48
    3  A    between atoms: C_2  and  N_14
    4  A    between atoms: C_2  and  C_57
    5  A    between atoms: C_3  and  C_4
    6  A    between atoms: C_3  and  N_26
    7  A    between atoms: C_4  and  C_34
    8  A    between atoms: N_6  and  C_12
    9  A    between atoms: N_6  and  C_17
   10  A    between atoms: N_6  and  C_45
   11  A    between atoms: C_7  and  C_56
   12  A    between atoms: C_10  and  O_47
   13  A    between atoms: C_12  and  C_31
   14  A    between atoms: C_13  and  C_25
   15  A    between atoms: C_13  and  C_61
   16  A    between atoms: C_15  and  C_39
   17  A    between atoms: C_15  and  O_47
   18  A    between atoms: N_21  and  C_32
   19  A    between atoms: C_22  and  C_29
   20  A    between atoms: C_23  and  C_29
   21  A    between atoms: C_23  and  C_45
   22  A    between atoms: C_25  and  C_48
   23  A    between atoms: N_26  and  C_43
   24  A    between atoms: C_56  and  C_59
                            x       y       z     vdW  Elec       q    Type
                         _______ _______ _______ _____ _____    ______ ____

>  <TORSDO>
F 24

$$$$
=
 OpenBabel11042417183D

 63 70  0  0  1  0  0  0  0  0999 V2000
  191.5150  175.2420  145.0760 N   0  0  0  0  0  0  0  0  0  0  0  0
  193.9370  174.4700  145.1240 C   0  0  2  0  0  3  0  0  0  0  0  0
  192.9270  175.5830  144.8420 C   0  0  2  0  0  3  0  0  0  0  0  0
  194.4660  175.2490  146.3100 C   0  0  1  0  0  3  0  0  0  0  0  0
  195.3350  175.0650  145.0790 C   0  0  1  0  0  3  0  0  0  0  0  0
  193.4540  176.3500  146.0380 C   0  0  0  0  0  2  0  0  0  0  0  0
  196.4580  174.0500  145.3410 C   0  0  2  0  0  3  0  0  0  0  0  0
  196.7880  174.0810  146.7010 O   0  0  0  0  0  1  0  0  0  0  0  0
  197.6120  174.2850  144.5680 O   0  0  0  0  0  0  0  0  0  0  0  0
  197.8320  173.0970  143.8600 C   0  0  1  0  0  3  0  0  0  0  0  0
  197.3820  171.8990  144.7170 C   0  0  0  0  0  2  0  0  0  0  0  0
  195.1000  172.3980  141.6170 N   0  0  0  0  0  0  0  0  0  0  0  0
  196.9850  173.0700  142.6440 C   0  0  0  0  0  0  0  0  0  0  0  0
  196.1530  172.0800  142.5150 C   0  0  0  0  0  0  0  0  0  0  0  0
  196.1230  170.8840  143.8230 S   0  0  0  0  0  0  0  0  0  0  0  0
  194.7540  174.4580  140.3540 C   0  0  0  0  0  1  0  0  0  0  0  0
  196.6680  174.1730  141.8010 N   0  0  0  0  0  0  0  0  0  0  0  0
  195.5070  173.6820  141.1300 C   0  0  0  0  0  0  0  0  0  0  0  0
  194.3230  171.3950  140.9000 C   0  0  0  0  0  2  0  0  0  0  0  0
  193.1500  171.1030  141.5900 O   0  0  0  0  0  1  0  0  0  0  0  0
  190.7380  176.0420  144.1430 C   0  0  0  0  0  2  0  0  0  0  0  0
  190.1070  177.2170  144.8710 C   0  0  0  0  0  2  0  0  0  0  0  0
  189.6450  176.7740  146.2460 C   0  0  0  0  0  2  0  0  0  0  0  0
  188.1730  176.9950  146.4320 C   0  0  0  0  0  3  0  0  0  0  0  0
  187.6940  177.8420  147.3420 C   0  0  0  0  0  3  0  0  0  0  0  0
  186.2160  178.0300  147.4530 C   0  0  0  0  0  2  0  0  0  0  0  0
  185.5220  177.5240  146.2030 C   0  0  2  0  0  3  0  0  0  0  0  0
  184.8060  178.6540  145.5580 C   0  0  2  0  0  3  0  0  0  0  0  0
  184.1290  177.6940  146.3320 O   0  0  0  0  0  0  0  0  0  0  0  0
  184.5470  178.4510  144.0610 C   0  0  0  0  0  2  0  0  0  0  0  0
  185.4670  179.2100  143.1030 C   0  0  0  0  0  2  0  0  0  0  0  0
  186.0090  178.2980  142.1060 N   0  0  0  0  0  2  0  0  0  0  0  0
  187.3180  177.8890  142.5910 C   0  0  0  0  0  2  0  0  0  0  0  0
  187.9190  176.8960  141.6250 C   0  0  0  0  0  1  0  0  0  0  0  0
  191.1830  173.8460  144.7760 C   0  0  0  0  0  2  0  0  0  0  0  0
  189.3380  173.4420  143.1320 C   0  0  0  0  0  3  0  0  0  0  0  0
  191.0800  173.8730  140.9780 C   0  0  0  0  0  3  0  0  0  0  0  0
  190.6900  173.7310  143.3700 C   0  0  0  0  0  0  0  0  0  0  0  0
  191.5590  173.9340  142.2870 C   0  0  0  0  0  3  0  0  0  0  0  0
  188.8550  173.3780  141.8190 C   0  0  0  0  0  3  0  0  0  0  0  0
  189.7260  173.5970  140.7420 C   0  0  0  0  0  0  0  0  0  0  0  0
  189.1990  173.6440  139.3460 C   0  0  0  0  0  2  0  0  0  0  0  0
  189.8650  172.6740  138.4900 N   0  0  0  0  0  0  0  0  0  0  0  0
  189.6520  171.2540  138.7660 C   0  0  0  0  0  2  0  0  0  0  0  0
  191.9790  170.9770  138.2350 O   0  0  0  0  0  0  0  0  0  0  0  0
  190.7150  170.3890  138.0580 C   0  0  0  0  0  2  0  0  0  0  0  0
  191.0110  174.2560  137.1940 O   0  0  0  0  0  0  0  0  0  0  0  0
  190.9690  173.0840  137.6710 C   0  0  0  0  0  0  0  0  0  0  0  0
  192.0550  172.0790  137.3520 C   0  0  1  0  0  3  0  0  0  0  0  0
  193.4170  172.7570  137.5140 C   0  0  0  0  0  2  0  0  0  0  0  0
  194.4240  173.9570  135.6040 N   0  0  0  0  0  0  0  0  0  0  0  0
  196.7580  172.6250  135.7560 O   0  0  0  0  0  0  0  0  0  0  0  0
  196.3590  172.9680  134.5140 O   0  0  0  0  0  0  0  0  0  0  0  0
  194.3750  172.6480  136.3050 C   0  0  1  0  0  0  0  0  0  0  0  0
  196.1020  171.8810  137.8380 O   0  0  0  0  0  0  0  0  0  0  0  0
  193.2570  174.1690  134.9320 O   0  0  0  0  0  1  0  0  0  0  0  0
  195.5430  174.1190  134.6390 C   0  0  0  0  0  2  0  0  0  0  0  0
  195.7880  172.3190  136.7020 C   0  0  0  0  0  0  0  0  0  0  0  0
  193.8300  171.5500  135.3560 C   0  0  0  0  0  2  0  0  0  0  0  0
  194.5310  170.2190  135.4360 C   0  0  0  0  0  0  0  0  0  0  0  0
  195.3090  169.8430  134.5150 O   0  0  0  0  0  0  0  0  0  0  0  0
  193.9380  168.1880  136.5430 C   0  0  0  0  0  2  0  0  0  0  0  0
  194.3500  169.4140  136.5990 N   0  0  0  0  0  0  0  0  0  0  0  0
  2  4  1  0  0  0  0
  3  1  1  0  0  0  0
  3  2  1  0  0  0  0
  3  6  1  0  0  0  0
  5  2  1  0  0  0  0
  5  7  1  0  0  0  0
  5  4  1  0  0  0  0
  6  4  1  0  0  0  0
  7  8  1  0  0  0  0
  9  7  1  0  0  0  0
 10  9  1  0  0  0  0
 10 11  1  0  0  0  0
 12 14  1  0  0  0  0
 13 10  1  0  0  0  0
 14 13  2  0  0  0  0
 14 15  1  0  0  0  0
 15 11  1  0  0  0  0
 16 18  1  0  0  0  0
 17 13  1  0  0  0  0
 18 12  1  0  0  0  0
 18 17  2  0  0  0  0
 19 20  1  0  0  0  0
 19 12  1  0  0  0  0
 21 22  1  0  0  0  0
 21  1  1  0  0  0  0
 22 23  1  0  0  0  0
 23 24  1  0  0  0  0
 24 25  2  0  0  0  0
 25 26  1  0  0  0  0
 27 29  1  0  0  0  0
 27 26  1  0  0  0  0
 28 27  1  0  0  0  0
 28 29  1  0  0  0  0
 30 28  1  0  0  0  0
 31 30  1  0  0  0  0
 32 33  1  0  0  0  0
 32 31  1  0  0  0  0
 34 33  1  0  0  0  0
 35  1  1  0  0  0  0
 36 38  1  0  0  0  0
 37 39  1  0  0  0  0
 38 35  1  0  0  0  0
 39 38  2  0  0  0  0
 40 36  2  0  0  0  0
 41 37  2  0  0  0  0
 41 40  1  0  0  0  0
 42 41  1  0  0  0  0
 43 44  1  0  0  0  0
 43 42  1  0  0  0  0
 46 45  1  0  0  0  0
 46 44  1  0  0  0  0
 47 48  2  0  0  0  0
 48 43  1  0  0  0  0
 49 50  1  0  0  0  0
 49 48  1  0  0  0  0
 49 45  1  0  0  0  0
 51 54  1  0  0  0  0
 52 58  1  0  0  0  0
 53 57  1  0  0  0  0
 53 52  1  0  0  0  0
 54 58  1  0  0  0  0
 54 50  1  0  0  0  0
 56 51  1  0  0  0  0
 57 51  1  0  0  0  0
 58 55  2  0  0  0  0
 59 60  1  0  0  0  0
 59 54  1  0  0  0  0
 60 63  1  0  0  0  0
 61 60  2  0  0  0  0
 62 63  2  0  0  0  0
M  END
>  <MODEL>
2

>  <REMARK>
 VINA RESULT:      -5.5      2.664      9.942
  Name = 
  24 active torsions:
  status: ('A' for Active; 'I' for Inactive)
    1  A    between atoms: C_1  and  N_27
    2  A    between atoms: C_1  and  C_48
    3  A    between atoms: C_2  and  N_14
    4  A    between atoms: C_2  and  C_57
    5  A    between atoms: C_3  and  C_4
    6  A    between atoms: C_3  and  N_26
    7  A    between atoms: C_4  and  C_34
    8  A    between atoms: N_6  and  C_12
    9  A    between atoms: N_6  and  C_17
   10  A    between atoms: N_6  and  C_45
   11  A    between atoms: C_7  and  C_56
   12  A    between atoms: C_10  and  O_47
   13  A    between atoms: C_12  and  C_31
   14  A    between atoms: C_13  and  C_25
   15  A    between atoms: C_13  and  C_61
   16  A    between atoms: C_15  and  C_39
   17  A    between atoms: C_15  and  O_47
   18  A    between atoms: N_21  and  C_32
   19  A    between atoms: C_22  and  C_29
   20  A    between atoms: C_23  and  C_29
   21  A    between atoms: C_23  and  C_45
   22  A    between atoms: C_25  and  C_48
   23  A    between atoms: N_26  and  C_43
   24  A    between atoms: C_56  and  C_59
                            x       y       z     vdW  Elec       q    Type
                         _______ _______ _______ _____ _____    ______ ____

>  <TORSDO>
F 24

$$$$
=
 OpenBabel11042417183D

 63 70  0  0  1  0  0  0  0  0999 V2000
  187.9090  176.4800  143.9180 N   0  0  0  0  0  0  0  0  0  0  0  0
  190.3350  175.8610  144.3570 C   0  0  2  0  0  3  0  0  0  0  0  0
  189.2890  176.4540  143.4120 C   0  0  2  0  0  3  0  0  0  0  0  0
  190.9570  177.2310  144.5310 C   0  0  1  0  0  3  0  0  0  0  0  0
  191.7160  176.1470  143.7880 C   0  0  1  0  0  3  0  0  0  0  0  0
  189.9100  177.8240  143.6020 C   0  0  0  0  0  2  0  0  0  0  0  0
  192.8710  175.5980  144.6390 C   0  0  2  0  0  3  0  0  0  0  0  0
  193.8720  176.5720  144.7250 O   0  0  0  0  0  1  0  0  0  0  0  0
  193.4160  174.4020  144.1330 O   0  0  0  0  0  0  0  0  0  0  0  0
  192.9480  173.3930  144.9840 C   0  0  1  0  0  3  0  0  0  0  0  0
  191.9190  172.5270  144.2350 C   0  0  0  0  0  2  0  0  0  0  0  0
  195.1820  170.5650  144.9920 N   0  0  0  0  0  0  0  0  0  0  0  0
  194.0610  172.4840  145.3460 C   0  0  0  0  0  0  0  0  0  0  0  0
  193.9250  171.2240  145.0520 C   0  0  0  0  0  0  0  0  0  0  0  0
  192.4240  170.7500  144.2390 S   0  0  0  0  0  0  0  0  0  0  0  0
  197.4020  171.4930  145.3980 C   0  0  0  0  0  1  0  0  0  0  0  0
  195.4120  172.8490  145.6030 N   0  0  0  0  0  0  0  0  0  0  0  0
  196.0750  171.5970  145.4250 C   0  0  0  0  0  0  0  0  0  0  0  0
  195.3460  169.1290  145.1740 C   0  0  0  0  0  2  0  0  0  0  0  0
  195.3880  168.4830  143.9420 O   0  0  0  0  0  1  0  0  0  0  0  0
  187.4360  177.8450  143.7600 C   0  0  0  0  0  2  0  0  0  0  0  0
  186.0270  177.8430  143.1920 C   0  0  0  0  0  2  0  0  0  0  0  0
  185.9730  178.7310  141.9630 C   0  0  0  0  0  2  0  0  0  0  0  0
  184.7050  178.5250  141.1890 C   0  0  0  0  0  3  0  0  0  0  0  0
  183.6030  178.0350  141.7550 C   0  0  0  0  0  3  0  0  0  0  0  0
  182.3680  177.8810  140.9270 C   0  0  0  0  0  2  0  0  0  0  0  0
  181.2390  178.7170  141.4990 C   0  0  2  0  0  3  0  0  0  0  0  0
  180.1170  178.7410  140.5270 C   0  0  2  0  0  3  0  0  0  0  0  0
  181.0010  179.8260  140.6620 O   0  0  0  0  0  0  0  0  0  0  0  0
  178.7540  179.0450  141.1590 C   0  0  0  0  0  2  0  0  0  0  0  0
  177.8110  179.9350  140.3480 C   0  0  0  0  0  2  0  0  0  0  0  0
  178.5080  181.1400  139.9210 N   0  0  0  0  0  2  0  0  0  0  0  0
  177.6920  181.7380  138.8750 C   0  0  0  0  0  2  0  0  0  0  0  0
  178.4550  181.7090  137.5720 C   0  0  0  0  0  1  0  0  0  0  0  0
  186.9790  175.6450  143.1520 C   0  0  0  0  0  2  0  0  0  0  0  0
  187.9900  175.2500  140.8960 C   0  0  0  0  0  3  0  0  0  0  0  0
  188.9730  172.7520  141.7040 C   0  0  0  0  0  3  0  0  0  0  0  0
  187.7380  174.7850  142.1950 C   0  0  0  0  0  0  0  0  0  0  0  0
  188.2230  173.5280  142.5900 C   0  0  0  0  0  3  0  0  0  0  0  0
  188.7400  174.4730  140.0050 C   0  0  0  0  0  3  0  0  0  0  0  0
  189.2350  173.2250  140.4110 C   0  0  0  0  0  0  0  0  0  0  0  0
  190.1300  172.4410  139.5100 C   0  0  0  0  0  2  0  0  0  0  0  0
  191.1610  173.2810  138.9180 N   0  0  0  0  0  0  0  0  0  0  0  0
  191.0480  173.6080  137.4970 C   0  0  0  0  0  2  0  0  0  0  0  0
  193.4340  173.3320  137.4190 O   0  0  0  0  0  0  0  0  0  0  0  0
  192.3860  174.1420  136.9460 C   0  0  0  0  0  2  0  0  0  0  0  0
  192.4660  173.4490  140.8580 O   0  0  0  0  0  0  0  0  0  0  0  0
  192.4140  173.4550  139.5930 C   0  0  0  0  0  0  0  0  0  0  0  0
  193.6620  173.6910  138.7680 C   0  0  1  0  0  3  0  0  0  0  0  0
  194.7940  172.8280  139.3300 C   0  0  0  0  0  2  0  0  0  0  0  0
  195.7040  175.0510  139.9090 N   0  0  0  0  0  0  0  0  0  0  0  0
  196.6390  174.2530  142.3030 O   0  0  0  0  0  0  0  0  0  0  0  0
  197.3750  175.1890  141.6700 O   0  0  0  0  0  0  0  0  0  0  0  0
  195.9260  173.5900  140.0600 C   0  0  1  0  0  0  0  0  0  0  0  0
  195.3600  172.3480  142.0750 O   0  0  0  0  0  0  0  0  0  0  0  0
  195.9800  175.4340  138.6310 O   0  0  0  0  0  1  0  0  0  0  0  0
  196.4960  175.9130  140.8260 C   0  0  0  0  0  2  0  0  0  0  0  0
  195.9640  173.3110  141.5380 C   0  0  0  0  0  0  0  0  0  0  0  0
  197.2750  173.1820  139.4160 C   0  0  0  0  0  2  0  0  0  0  0  0
  197.2720  171.8610  138.6910 C   0  0  0  0  0  0  0  0  0  0  0  0
  197.4620  171.8090  137.4430 O   0  0  0  0  0  0  0  0  0  0  0  0
  197.3730  169.4910  138.9590 C   0  0  0  0  0  2  0  0  0  0  0  0
  197.1110  170.6610  139.4450 N   0  0  0  0  0  0  0  0  0  0  0  0
  2  4  1  0  0  0  0
  3  6  1  0  0  0  0
  3  1  1  0  0  0  0
  3  2  1  0  0  0  0
  5  2  1  0  0  0  0
  5  4  1  0  0  0  0
  5  7  1  0  0  0  0
  6  4  1  0  0  0  0
  7  8  1  0  0  0  0
  9  7  1  0  0  0  0
  9 10  1  0  0  0  0
 10 13  1  0  0  0  0
 11 15  1  0  0  0  0
 11 10  1  0  0  0  0
 12 14  1  0  0  0  0
 12 19  1  0  0  0  0
 12 18  1  0  0  0  0
 13 17  1  0  0  0  0
 14 13  2  0  0  0  0
 15 14  1  0  0  0  0
 16 18  1  0  0  0  0
 18 17  2  0  0  0  0
 20 19  1  0  0  0  0
 21  1  1  0  0  0  0
 22 21  1  0  0  0  0
 23 22  1  0  0  0  0
 24 25  2  0  0  0  0
 24 23  1  0  0  0  0
 26 27  1  0  0  0  0
 26 25  1  0  0  0  0
 28 29  1  0  0  0  0
 28 30  1  0  0  0  0
 28 27  1  0  0  0  0
 29 27  1  0  0  0  0
 31 30  1  0  0  0  0
 32 31  1  0  0  0  0
 33 32  1  0  0  0  0
 34 33  1  0  0  0  0
 35  1  1  0  0  0  0
 36 38  1  0  0  0  0
 37 39  1  0  0  0  0
 38 39  2  0  0  0  0
 38 35  1  0  0  0  0
 40 41  1  0  0  0  0
 40 36  2  0  0  0  0
 41 37  2  0  0  0  0
 42 41  1  0  0  0  0
 43 42  1  0  0  0  0
 43 48  1  0  0  0  0
 44 43  1  0  0  0  0
 45 49  1  0  0  0  0
 46 45  1  0  0  0  0
 46 44  1  0  0  0  0
 48 47  2  0  0  0  0
 49 50  1  0  0  0  0
 49 48  1  0  0  0  0
 50 54  1  0  0  0  0
 51 54  1  0  0  0  0
 51 57  1  0  0  0  0
 53 52  1  0  0  0  0
 54 58  1  0  0  0  0
 56 51  1  0  0  0  0
 57 53  1  0  0  0  0
 58 55  2  0  0  0  0
 58 52  1  0  0  0  0
 59 54  1  0  0  0  0
 60 59  1  0  0  0  0
 60 63  1  0  0  0  0
 61 60  2  0  0  0  0
 62 63  2  0  0  0  0
M  END
>  <MODEL>
3

>  <REMARK>
 VINA RESULT:      -5.5      3.079     11.659
  Name = 
  24 active torsions:
  status: ('A' for Active; 'I' for Inactive)
    1  A    between atoms: C_1  and  N_27
    2  A    between atoms: C_1  and  C_48
    3  A    between atoms: C_2  and  N_14
    4  A    between atoms: C_2  and  C_57
    5  A    between atoms: C_3  and  C_4
    6  A    between atoms: C_3  and  N_26
    7  A    between atoms: C_4  and  C_34
    8  A    between atoms: N_6  and  C_12
    9  A    between atoms: N_6  and  C_17
   10  A    between atoms: N_6  and  C_45
   11  A    between atoms: C_7  and  C_56
   12  A    between atoms: C_10  and  O_47
   13  A    between atoms: C_12  and  C_31
   14  A    between atoms: C_13  and  C_25
   15  A    between atoms: C_13  and  C_61
   16  A    between atoms: C_15  and  C_39
   17  A    between atoms: C_15  and  O_47
   18  A    between atoms: N_21  and  C_32
   19  A    between atoms: C_22  and  C_29
   20  A    between atoms: C_23  and  C_29
   21  A    between atoms: C_23  and  C_45
   22  A    between atoms: C_25  and  C_48
   23  A    between atoms: N_26  and  C_43
   24  A    between atoms: C_56  and  C_59
                            x       y       z     vdW  Elec       q    Type
                         _______ _______ _______ _____ _____    ______ ____

>  <TORSDO>
F 24

$$$$
=
 OpenBabel11042417183D

 63 70  0  0  1  0  0  0  0  0999 V2000
  184.8510  178.1080  142.8650 N   0  0  0  0  0  0  0  0  0  0  0  0
  182.3970  178.5080  142.3340 C   0  0  2  0  0  3  0  0  0  0  0  0
  183.8640  178.8490  142.0660 C   0  0  2  0  0  3  0  0  0  0  0  0
  182.2910  177.8790  140.9610 C   0  0  1  0  0  3  0  0  0  0  0  0
  181.5450  179.1660  141.2600 C   0  0  1  0  0  3  0  0  0  0  0  0
  183.7520  178.2060  140.6980 C   0  0  0  0  0  2  0  0  0  0  0  0
  180.0380  178.9110  141.4110 C   0  0  2  0  0  3  0  0  0  0  0  0
  179.7300  178.8130  142.7720 O   0  0  0  0  0  1  0  0  0  0  0  0
  179.6000  177.7520  140.7410 O   0  0  0  0  0  0  0  0  0  0  0  0
  178.3590  178.0910  140.1880 C   0  0  1  0  0  3  0  0  0  0  0  0
  178.3440  179.5900  139.8420 C   0  0  0  0  0  2  0  0  0  0  0  0
  178.2730  177.3710  136.6570 N   0  0  0  0  0  0  0  0  0  0  0  0
  178.1660  177.3730  138.9050 C   0  0  0  0  0  0  0  0  0  0  0  0
  177.9630  178.0930  137.8410 C   0  0  0  0  0  0  0  0  0  0  0  0
  177.9540  179.8520  138.0540 S   0  0  0  0  0  0  0  0  0  0  0  0
  179.0520  175.0680  136.4460 C   0  0  0  0  0  1  0  0  0  0  0  0
  178.5680  176.0410  138.6040 N   0  0  0  0  0  0  0  0  0  0  0  0
  178.5650  176.0690  137.1760 C   0  0  0  0  0  0  0  0  0  0  0  0
  177.7110  177.6890  135.3520 C   0  0  0  0  0  2  0  0  0  0  0  0
  178.5150  178.6110  134.6870 O   0  0  0  0  0  1  0  0  0  0  0  0
  186.1610  178.5290  142.3960 C   0  0  0  0  0  2  0  0  0  0  0  0
  186.6840  177.5420  141.3660 C   0  0  0  0  0  2  0  0  0  0  0  0
  186.8330  176.1740  142.0040 C   0  0  0  0  0  2  0  0  0  0  0  0
  187.9290  175.3800  141.3570 C   0  0  0  0  0  3  0  0  0  0  0  0
  189.0510  175.0660  142.0010 C   0  0  0  0  0  3  0  0  0  0  0  0
  190.0890  174.2500  141.3010 C   0  0  0  0  0  2  0  0  0  0  0  0
  189.4580  173.0300  140.6580 C   0  0  2  0  0  3  0  0  0  0  0  0
  190.3130  172.5840  139.5290 C   0  0  2  0  0  3  0  0  0  0  0  0
  189.1320  173.3170  139.3160 O   0  0  0  0  0  0  0  0  0  0  0  0
  190.1320  171.1080  139.1590 C   0  0  0  0  0  2  0  0  0  0  0  0
  191.3740  170.3780  138.6450 C   0  0  0  0  0  2  0  0  0  0  0  0
  191.0540  169.6450  137.4280 N   0  0  0  0  0  2  0  0  0  0  0  0
  190.1430  170.4870  136.6690 C   0  0  0  0  0  2  0  0  0  0  0  0
  190.9380  171.3450  135.7130 C   0  0  0  0  0  1  0  0  0  0  0  0
  184.8180  178.4260  144.2950 C   0  0  0  0  0  2  0  0  0  0  0  0
  185.8780  176.8150  145.8920 C   0  0  0  0  0  3  0  0  0  0  0  0
  188.4340  177.7840  145.2700 C   0  0  0  0  0  3  0  0  0  0  0  0
  186.0260  177.8610  144.9700 C   0  0  0  0  0  0  0  0  0  0  0  0
  187.3070  178.3500  144.6720 C   0  0  0  0  0  3  0  0  0  0  0  0
  187.0060  176.2470  146.4950 C   0  0  0  0  0  3  0  0  0  0  0  0
  188.2850  176.7290  146.1810 C   0  0  0  0  0  0  0  0  0  0  0  0
  189.4990  176.0570  146.7300 C   0  0  0  0  0  2  0  0  0  0  0  0
  190.1730  175.2590  145.7160 N   0  0  0  0  0  0  0  0  0  0  0  0
  189.6800  173.9050  145.4670 C   0  0  0  0  0  2  0  0  0  0  0  0
  191.9930  173.2890  145.2480 O   0  0  0  0  0  0  0  0  0  0  0  0
  190.7210  173.0750  144.6880 C   0  0  0  0  0  2  0  0  0  0  0  0
  191.8140  176.8580  145.2180 O   0  0  0  0  0  0  0  0  0  0  0  0
  191.4810  175.6380  145.2650 C   0  0  0  0  0  0  0  0  0  0  0  0
  192.4360  174.5560  144.8050 C   0  0  1  0  0  3  0  0  0  0  0  0
  193.8200  174.8370  145.3960 C   0  0  0  0  0  2  0  0  0  0  0  0
  195.1120  176.1930  143.7860 N   0  0  0  0  0  0  0  0  0  0  0  0
  197.4380  174.9450  144.3150 O   0  0  0  0  0  0  0  0  0  0  0  0
  197.2670  175.3500  143.0400 O   0  0  0  0  0  0  0  0  0  0  0  0
  194.9960  174.8420  144.3910 C   0  0  1  0  0  0  0  0  0  0  0  0
  196.4330  174.0450  146.1860 O   0  0  0  0  0  0  0  0  0  0  0  0
  194.0870  176.4020  142.9140 O   0  0  0  0  0  1  0  0  0  0  0  0
  196.3860  176.4590  143.0670 C   0  0  0  0  0  2  0  0  0  0  0  0
  196.3210  174.5420  145.0360 C   0  0  0  0  0  0  0  0  0  0  0  0
  194.6970  173.7860  143.2960 C   0  0  0  0  0  2  0  0  0  0  0  0
  195.3210  172.4330  143.5150 C   0  0  0  0  0  0  0  0  0  0  0  0
  194.7910  171.5970  144.3010 O   0  0  0  0  0  0  0  0  0  0  0  0
  197.0250  170.9070  142.8280 C   0  0  0  0  0  2  0  0  0  0  0  0
  196.4890  172.0840  142.7750 N   0  0  0  0  0  0  0  0  0  0  0  0
  1 35  1  0  0  0  0
  3  2  1  0  0  0  0
  3  1  1  0  0  0  0
  4  5  1  0  0  0  0
  4  2  1  0  0  0  0
  5  7  1  0  0  0  0
  5  2  1  0  0  0  0
  6  4  1  0  0  0  0
  6  3  1  0  0  0  0
  7  8  1  0  0  0  0
  9  7  1  0  0  0  0
 10  9  1  0  0  0  0
 11 10  1  0  0  0  0
 12 18  1  0  0  0  0
 12 14  1  0  0  0  0
 13 10  1  0  0  0  0
 14 15  1  0  0  0  0
 14 13  2  0  0  0  0
 15 11  1  0  0  0  0
 16 18  1  0  0  0  0
 17 13  1  0  0  0  0
 18 17  2  0  0  0  0
 19 12  1  0  0  0  0
 20 19  1  0  0  0  0
 21  1  1  0  0  0  0
 22 23  1  0  0  0  0
 22 21  1  0  0  0  0
 24 25  2  0  0  0  0
 24 23  1  0  0  0  0
 26 25  1  0  0  0  0
 27 26  1  0  0  0  0
 28 27  1  0  0  0  0
 29 28  1  0  0  0  0
 29 27  1  0  0  0  0
 30 28  1  0  0  0  0
 31 30  1  0  0  0  0
 32 31  1  0  0  0  0
 33 32  1  0  0  0  0
 34 33  1  0  0  0  0
 35 38  1  0  0  0  0
 36 40  1  0  0  0  0
 37 41  1  0  0  0  0
 38 36  2  0  0  0  0
 39 38  1  0  0  0  0
 39 37  2  0  0  0  0
 41 40  2  0  0  0  0
 41 42  1  0  0  0  0
 43 42  1  0  0  0  0
 44 43  1  0  0  0  0
 46 45  1  0  0  0  0
 46 44  1  0  0  0  0
 47 48  2  0  0  0  0
 48 43  1  0  0  0  0
 49 45  1  0  0  0  0
 49 48  1  0  0  0  0
 49 50  1  0  0  0  0
 51 54  1  0  0  0  0
 52 58  1  0  0  0  0
 53 57  1  0  0  0  0
 53 52  1  0  0  0  0
 54 58  1  0  0  0  0
 54 50  1  0  0  0  0
 56 51  1  0  0  0  0
 57 51  1  0  0  0  0
 58 55  2  0  0  0  0
 59 60  1  0  0  0  0
 59 54  1  0  0  0  0
 60 61  2  0  0  0  0
 63 62  2  0  0  0  0
 63 60  1  0  0  0  0
M  END
>  <MODEL>
4

>  <REMARK>
 VINA RESULT:      -5.3      4.018     11.570
  Name = 
  24 active torsions:
  status: ('A' for Active; 'I' for Inactive)
    1  A    between atoms: C_1  and  N_27
    2  A    between atoms: C_1  and  C_48
    3  A    between atoms: C_2  and  N_14
    4  A    between atoms: C_2  and  C_57
    5  A    between atoms: C_3  and  C_4
    6  A    between atoms: C_3  and  N_26
    7  A    between atoms: C_4  and  C_34
    8  A    between atoms: N_6  and  C_12
    9  A    between atoms: N_6  and  C_17
   10  A    between atoms: N_6  and  C_45
   11  A    between atoms: C_7  and  C_56
   12  A    between atoms: C_10  and  O_47
   13  A    between atoms: C_12  and  C_31
   14  A    between atoms: C_13  and  C_25
   15  A    between atoms: C_13  and  C_61
   16  A    between atoms: C_15  and  C_39
   17  A    between atoms: C_15  and  O_47
   18  A    between atoms: N_21  and  C_32
   19  A    between atoms: C_22  and  C_29
   20  A    between atoms: C_23  and  C_29
   21  A    between atoms: C_23  and  C_45
   22  A    between atoms: C_25  and  C_48
   23  A    between atoms: N_26  and  C_43
   24  A    between atoms: C_56  and  C_59
                            x       y       z     vdW  Elec       q    Type
                         _______ _______ _______ _____ _____    ______ ____

>  <TORSDO>
F 24

$$$$
=
 OpenBabel11042417183D

 63 70  0  0  1  0  0  0  0  0999 V2000
  195.5450  175.8360  142.7790 N   0  0  0  0  0  0  0  0  0  0  0  0
  196.0570  175.3040  140.3470 C   0  0  2  0  0  3  0  0  0  0  0  0
  196.1600  176.2800  141.5200 C   0  0  2  0  0  3  0  0  0  0  0  0
  197.5510  175.0670  140.4100 C   0  0  1  0  0  3  0  0  0  0  0  0
  196.9540  175.8020  139.2250 C   0  0  1  0  0  3  0  0  0  0  0  0
  197.6540  176.0280  141.5850 C   0  0  0  0  0  2  0  0  0  0  0  0
  196.9430  174.9140  137.9710 C   0  0  2  0  0  3  0  0  0  0  0  0
  197.7910  173.8220  138.1830 O   0  0  0  0  0  1  0  0  0  0  0  0
  197.3310  175.5970  136.8020 O   0  0  0  0  0  0  0  0  0  0  0  0
  196.4010  175.2190  135.8260 C   0  0  1  0  0  3  0  0  0  0  0  0
  195.2070  174.5190  136.4990 C   0  0  0  0  0  2  0  0  0  0  0  0
  194.2080  177.9570  134.9970 N   0  0  0  0  0  0  0  0  0  0  0  0
  195.8480  176.4240  135.1640 C   0  0  0  0  0  0  0  0  0  0  0  0
  194.5600  176.5980  135.2140 C   0  0  0  0  0  0  0  0  0  0  0  0
  193.6210  175.3710  136.0820 S   0  0  0  0  0  0  0  0  0  0  0  0
  195.6800  179.8480  134.5330 C   0  0  0  0  0  1  0  0  0  0  0  0
  196.5540  177.6160  134.8330 N   0  0  0  0  0  0  0  0  0  0  0  0
  195.4770  178.5410  134.6800 C   0  0  0  0  0  0  0  0  0  0  0  0
  192.9020  178.3820  134.5130 C   0  0  0  0  0  2  0  0  0  0  0  0
  191.9250  177.4590  134.8760 O   0  0  0  0  0  1  0  0  0  0  0  0
  196.6270  175.6930  143.7400 C   0  0  0  0  0  2  0  0  0  0  0  0
  196.0580  175.4830  145.1330 C   0  0  0  0  0  2  0  0  0  0  0  0
  195.8100  174.0030  145.3610 C   0  0  0  0  0  2  0  0  0  0  0  0
  194.3550  173.7160  145.5840 C   0  0  0  0  0  3  0  0  0  0  0  0
  193.4980  174.6620  145.9660 C   0  0  0  0  0  3  0  0  0  0  0  0
  192.0570  174.3080  146.1450 C   0  0  0  0  0  2  0  0  0  0  0  0
  191.3530  175.3610  146.9790 C   0  0  2  0  0  3  0  0  0  0  0  0
  190.3580  176.0630  146.1280 C   0  0  2  0  0  3  0  0  0  0  0  0
  191.6030  176.6380  146.4380 O   0  0  0  0  0  0  0  0  0  0  0  0
  189.2230  176.7230  146.9180 C   0  0  0  0  0  2  0  0  0  0  0  0
  188.2240  177.5530  146.1090 C   0  0  0  0  0  2  0  0  0  0  0  0
  186.9910  176.8030  145.9190 N   0  0  0  0  0  2  0  0  0  0  0  0
  185.9750  177.7720  145.5410 C   0  0  0  0  0  2  0  0  0  0  0  0
  184.8140  177.6780  146.5030 C   0  0  0  0  0  1  0  0  0  0  0  0
  194.6190  176.8100  143.3640 C   0  0  0  0  0  2  0  0  0  0  0  0
  192.9150  175.1930  142.4960 C   0  0  0  0  0  3  0  0  0  0  0  0
  190.8780  177.1010  142.7630 C   0  0  0  0  0  3  0  0  0  0  0  0
  193.2160  176.4800  142.9690 C   0  0  0  0  0  0  0  0  0  0  0  0
  192.1940  177.4330  143.0880 C   0  0  0  0  0  3  0  0  0  0  0  0
  191.5960  174.8580  142.1670 C   0  0  0  0  0  3  0  0  0  0  0  0
  190.5770  175.8110  142.3040 C   0  0  0  0  0  0  0  0  0  0  0  0
  189.1540  175.4300  142.0650 C   0  0  0  0  0  2  0  0  0  0  0  0
  189.0110  173.9970  141.8580 N   0  0  0  0  0  0  0  0  0  0  0  0
  188.7130  173.1610  143.0190 C   0  0  0  0  0  2  0  0  0  0  0  0
  190.2240  171.5660  142.0450 O   0  0  0  0  0  0  0  0  0  0  0  0
  188.9930  171.6750  142.7150 C   0  0  0  0  0  2  0  0  0  0  0  0
  189.5150  174.0440  139.5690 O   0  0  0  0  0  0  0  0  0  0  0  0
  189.5160  173.3970  140.6570 C   0  0  0  0  0  0  0  0  0  0  0  0
  190.0060  171.9650  140.7060 C   0  0  1  0  0  3  0  0  0  0  0  0
  191.3250  171.8690  139.9350 C   0  0  0  0  0  2  0  0  0  0  0  0
  190.3500  169.7590  139.1010 N   0  0  0  0  0  0  0  0  0  0  0  0
  190.7150  170.3950  136.5110 O   0  0  0  0  0  0  0  0  0  0  0  0
  190.8420  169.0870  136.8160 O   0  0  0  0  0  0  0  0  0  0  0  0
  191.3850  170.7890  138.8300 C   0  0  1  0  0  0  0  0  0  0  0  0
  191.1150  172.5630  137.1860 O   0  0  0  0  0  0  0  0  0  0  0  0
  190.7230  168.9940  140.1660 O   0  0  0  0  0  1  0  0  0  0  0  0
  190.0490  168.8460  137.9660 C   0  0  0  0  0  2  0  0  0  0  0  0
  191.1000  171.3350  137.4580 C   0  0  0  0  0  0  0  0  0  0  0  0
  192.7980  170.1510  138.8550 C   0  0  0  0  0  2  0  0  0  0  0  0
  193.9410  171.1190  139.0140 C   0  0  0  0  0  0  0  0  0  0  0  0
  194.3100  171.8460  138.0490 O   0  0  0  0  0  0  0  0  0  0  0  0
  195.2410  170.2880  140.8360 C   0  0  0  0  0  2  0  0  0  0  0  0
  194.5650  171.2470  140.2900 N   0  0  0  0  0  0  0  0  0  0  0  0
  1 35  1  0  0  0  0
  1 21  1  0  0  0  0
  2  4  1  0  0  0  0
  2  3  1  0  0  0  0
  3  6  1  0  0  0  0
  3  1  1  0  0  0  0
  4  6  1  0  0  0  0
  5  2  1  0  0  0  0
  5  4  1  0  0  0  0
  7  8  1  0  0  0  0
  7  5  1  0  0  0  0
  9  7  1  0  0  0  0
 10 11  1  0  0  0  0
 10  9  1  0  0  0  0
 12 14  1  0  0  0  0
 13 14  2  0  0  0  0
 13 10  1  0  0  0  0
 14 15  1  0  0  0  0
 15 11  1  0  0  0  0
 16 18  1  0  0  0  0
 17 13  1  0  0  0  0
 18 17  2  0  0  0  0
 18 12  1  0  0  0  0
 19 20  1  0  0  0  0
 19 12  1  0  0  0  0
 21 22  1  0  0  0  0
 22 23  1  0  0  0  0
 23 24  1  0  0  0  0
 24 25  2  0  0  0  0
 25 26  1  0  0  0  0
 26 27  1  0  0  0  0
 28 29  1  0  0  0  0
 28 30  1  0  0  0  0
 28 27  1  0  0  0  0
 29 27  1  0  0  0  0
 31 30  1  0  0  0  0
 32 31  1  0  0  0  0
 33 32  1  0  0  0  0
 33 34  1  0  0  0  0
 36 38  1  0  0  0  0
 37 39  1  0  0  0  0
 38 39  2  0  0  0  0
 38 35  1  0  0  0  0
 40 41  1  0  0  0  0
 40 36  2  0  0  0  0
 41 37  2  0  0  0  0
 42 41  1  0  0  0  0
 43 42  1  0  0  0  0
 43 44  1  0  0  0  0
 45 46  1  0  0  0  0
 46 44  1  0  0  0  0
 47 48  2  0  0  0  0
 48 49  1  0  0  0  0
 48 43  1  0  0  0  0
 49 45  1  0  0  0  0
 50 49  1  0  0  0  0
 51 56  1  0  0  0  0
 52 53  1  0  0  0  0
 52 58  1  0  0  0  0
 53 57  1  0  0  0  0
 54 59  1  0  0  0  0
 54 51  1  0  0  0  0
 54 50  1  0  0  0  0
 55 58  2  0  0  0  0
 57 51  1  0  0  0  0
 58 54  1  0  0  0  0
 59 60  1  0  0  0  0
 60 63  1  0  0  0  0
 61 60  2  0  0  0  0
 63 62  2  0  0  0  0
M  END
>  <MODEL>
5

>  <REMARK>
 VINA RESULT:      -5.1      3.310      7.860
  Name = 
  24 active torsions:
  status: ('A' for Active; 'I' for Inactive)
    1  A    between atoms: C_1  and  N_27
    2  A    between atoms: C_1  and  C_48
    3  A    between atoms: C_2  and  N_14
    4  A    between atoms: C_2  and  C_57
    5  A    between atoms: C_3  and  C_4
    6  A    between atoms: C_3  and  N_26
    7  A    between atoms: C_4  and  C_34
    8  A    between atoms: N_6  and  C_12
    9  A    between atoms: N_6  and  C_17
   10  A    between atoms: N_6  and  C_45
   11  A    between atoms: C_7  and  C_56
   12  A    between atoms: C_10  and  O_47
   13  A    between atoms: C_12  and  C_31
   14  A    between atoms: C_13  and  C_25
   15  A    between atoms: C_13  and  C_61
   16  A    between atoms: C_15  and  C_39
   17  A    between atoms: C_15  and  O_47
   18  A    between atoms: N_21  and  C_32
   19  A    between atoms: C_22  and  C_29
   20  A    between atoms: C_23  and  C_29
   21  A    between atoms: C_23  and  C_45
   22  A    between atoms: C_25  and  C_48
   23  A    between atoms: N_26  and  C_43
   24  A    between atoms: C_56  and  C_59
                            x       y       z     vdW  Elec       q    Type
                         _______ _______ _______ _____ _____    ______ ____

>  <TORSDO>
F 24

$$$$
=
 OpenBabel11042417183D

 63 70  0  0  1  0  0  0  0  0999 V2000
  187.0660  176.7820  140.4650 N   0  0  0  0  0  0  0  0  0  0  0  0
  187.9910  175.6190  138.4020 C   0  0  2  0  0  3  0  0  0  0  0  0
  186.7910  175.9300  139.2980 C   0  0  2  0  0  3  0  0  0  0  0  0
  187.3870  176.4630  137.2990 C   0  0  1  0  0  3  0  0  0  0  0  0
  187.4840  174.9580  137.1300 C   0  0  1  0  0  3  0  0  0  0  0  0
  186.2000  176.7830  138.1930 C   0  0  0  0  0  2  0  0  0  0  0  0
  188.5910  174.5820  136.1340 C   0  0  2  0  0  3  0  0  0  0  0  0
  188.1880  174.9560  134.8470 O   0  0  0  0  0  1  0  0  0  0  0  0
  188.9130  173.2110  136.1500 O   0  0  0  0  0  0  0  0  0  0  0  0
  190.2880  173.1500  135.8980 C   0  0  1  0  0  3  0  0  0  0  0  0
  191.0120  174.2170  136.7390 C   0  0  0  0  0  2  0  0  0  0  0  0
  191.8680  170.6210  137.9230 N   0  0  0  0  0  0  0  0  0  0  0  0
  190.8260  171.8440  136.3460 C   0  0  0  0  0  0  0  0  0  0  0  0
  191.7770  171.8590  137.2330 C   0  0  0  0  0  0  0  0  0  0  0  0
  192.3090  173.4490  137.8080 S   0  0  0  0  0  0  0  0  0  0  0  0
  190.5340  168.6030  137.5970 C   0  0  0  0  0  1  0  0  0  0  0  0
  190.1830  170.5770  136.2480 N   0  0  0  0  0  0  0  0  0  0  0  0
  190.9100  169.8220  137.2180 C   0  0  0  0  0  0  0  0  0  0  0  0
  193.0790  170.1560  138.5850 C   0  0  0  0  0  2  0  0  0  0  0  0
  194.2080  170.6620  137.9480 O   0  0  0  0  0  1  0  0  0  0  0  0
  185.9490  177.7060  140.5740 C   0  0  0  0  0  2  0  0  0  0  0  0
  185.8540  178.2380  141.9940 C   0  0  0  0  0  2  0  0  0  0  0  0
  184.3960  178.4500  142.3600 C   0  0  0  0  0  2  0  0  0  0  0  0
  184.2230  178.6550  143.8360 C   0  0  0  0  0  3  0  0  0  0  0  0
  185.2560  178.8840  144.6440 C   0  0  0  0  0  3  0  0  0  0  0  0
  185.0050  179.1050  146.1010 C   0  0  0  0  0  2  0  0  0  0  0  0
  186.1510  178.5510  146.9260 C   0  0  2  0  0  3  0  0  0  0  0  0
  186.0500  177.0690  146.9560 C   0  0  2  0  0  3  0  0  0  0  0  0
  185.6390  177.8610  148.0440 O   0  0  0  0  0  0  0  0  0  0  0  0
  187.3790  176.3630  147.2470 C   0  0  0  0  0  2  0  0  0  0  0  0
  188.2280  175.9860  146.0320 C   0  0  0  0  0  2  0  0  0  0  0  0
  189.6310  176.2710  146.2950 N   0  0  0  0  0  2  0  0  0  0  0  0
  189.9560  177.4690  145.5390 C   0  0  0  0  0  2  0  0  0  0  0  0
  188.9790  177.6180  144.3970 C   0  0  0  0  0  1  0  0  0  0  0  0
  187.1070  176.0540  141.7370 C   0  0  0  0  0  2  0  0  0  0  0  0
  187.7390  173.6330  141.6420 C   0  0  0  0  0  3  0  0  0  0  0  0
  190.4620  174.2850  141.5120 C   0  0  0  0  0  3  0  0  0  0  0  0
  188.1400  174.9770  141.6730 C   0  0  0  0  0  0  0  0  0  0  0  0
  189.5050  175.2960  141.6200 C   0  0  0  0  0  3  0  0  0  0  0  0
  188.6960  172.6170  141.5350 C   0  0  0  0  0  3  0  0  0  0  0  0
  190.0580  172.9440  141.4670 C   0  0  0  0  0  0  0  0  0  0  0  0
  191.0770  171.8770  141.2390 C   0  0  0  0  0  2  0  0  0  0  0  0
  192.1110  171.8980  142.2620 N   0  0  0  0  0  0  0  0  0  0  0  0
  191.8460  171.2020  143.5210 C   0  0  0  0  0  2  0  0  0  0  0  0
  192.9600  173.0500  144.5790 O   0  0  0  0  0  0  0  0  0  0  0  0
  192.8340  171.6500  144.6170 C   0  0  0  0  0  2  0  0  0  0  0  0
  193.5920  173.2670  141.0680 O   0  0  0  0  0  0  0  0  0  0  0  0
  193.1660  172.8670  142.1910 C   0  0  0  0  0  0  0  0  0  0  0  0
  193.7900  173.3640  143.4780 C   0  0  1  0  0  3  0  0  0  0  0  0
  193.9520  174.8840  143.3910 C   0  0  0  0  0  2  0  0  0  0  0  0
  196.3390  174.2540  143.3090 N   0  0  0  0  0  0  0  0  0  0  0  0
  196.9640  176.1270  141.4800 O   0  0  0  0  0  0  0  0  0  0  0  0
  197.9210  175.8560  142.3910 O   0  0  0  0  0  0  0  0  0  0  0  0
  195.3990  175.4000  143.2130 C   0  0  1  0  0  0  0  0  0  0  0  0
  194.7040  176.3930  141.1020 O   0  0  0  0  0  0  0  0  0  0  0  0
  196.4230  173.8290  144.6010 O   0  0  0  0  0  1  0  0  0  0  0  0
  197.7190  174.5220  142.8260 C   0  0  0  0  0  2  0  0  0  0  0  0
  195.6340  176.0390  141.8720 C   0  0  0  0  0  0  0  0  0  0  0  0
  195.6860  176.4270  144.3380 C   0  0  0  0  0  2  0  0  0  0  0  0
  194.5360  176.7000  145.2730 C   0  0  0  0  0  0  0  0  0  0  0  0
  193.7800  177.6960  145.0920 O   0  0  0  0  0  0  0  0  0  0  0  0
  193.1170  175.6760  146.8970 C   0  0  0  0  0  2  0  0  0  0  0  0
  194.2770  175.7830  146.3340 N   0  0  0  0  0  0  0  0  0  0  0  0
  1 21  1  0  0  0  0
  1 35  1  0  0  0  0
  2  3  1  0  0  0  0
  3  1  1  0  0  0  0
  4  6  1  0  0  0  0
  4  2  1  0  0  0  0
  5  4  1  0  0  0  0
  5  2  1  0  0  0  0
  6  3  1  0  0  0  0
  7  9  1  0  0  0  0
  7  5  1  0  0  0  0
  8  7  1  0  0  0  0
 10  9  1  0  0  0  0
 10 13  1  0  0  0  0
 10 11  1  0  0  0  0
 11 15  1  0  0  0  0
 12 19  1  0  0  0  0
 13 14  2  0  0  0  0
 14 15  1  0  0  0  0
 14 12  1  0  0  0  0
 17 13  1  0  0  0  0
 17 18  2  0  0  0  0
 18 16  1  0  0  0  0
 18 12  1  0  0  0  0
 20 19  1  0  0  0  0
 21 22  1  0  0  0  0
 22 23  1  0  0  0  0
 23 24  1  0  0  0  0
 24 25  2  0  0  0  0
 25 26  1  0  0  0  0
 26 27  1  0  0  0  0
 27 28  1  0  0  0  0
 27 29  1  0  0  0  0
 28 30  1  0  0  0  0
 28 29  1  0  0  0  0
 31 32  1  0  0  0  0
 31 30  1  0  0  0  0
 33 32  1  0  0  0  0
 34 33  1  0  0  0  0
 36 38  1  0  0  0  0
 37 39  1  0  0  0  0
 38 35  1  0  0  0  0
 39 38  2  0  0  0  0
 40 36  2  0  0  0  0
 41 37  2  0  0  0  0
 41 40  1  0  0  0  0
 42 41  1  0  0  0  0
 42 43  1  0  0  0  0
 43 44  1  0  0  0  0
 44 46  1  0  0  0  0
 45 46  1  0  0  0  0
 47 48  2  0  0  0  0
 48 43  1  0  0  0  0
 48 49  1  0  0  0  0
 49 45  1  0  0  0  0
 50 49  1  0  0  0  0
 51 56  1  0  0  0  0
 52 58  1  0  0  0  0
 52 53  1  0  0  0  0
 53 57  1  0  0  0  0
 54 51  1  0  0  0  0
 54 50  1  0  0  0  0
 54 59  1  0  0  0  0
 55 58  2  0  0  0  0
 57 51  1  0  0  0  0
 58 54  1  0  0  0  0
 59 60  1  0  0  0  0
 60 63  1  0  0  0  0
 61 60  2  0  0  0  0
 63 62  2  0  0  0  0
M  END
>  <MODEL>
6

>  <REMARK>
 VINA RESULT:      -5.1      2.771      9.112
  Name = 
  24 active torsions:
  status: ('A' for Active; 'I' for Inactive)
    1  A    between atoms: C_1  and  N_27
    2  A    between atoms: C_1  and  C_48
    3  A    between atoms: C_2  and  N_14
    4  A    between atoms: C_2  and  C_57
    5  A    between atoms: C_3  and  C_4
    6  A    between atoms: C_3  and  N_26
    7  A    between atoms: C_4  and  C_34
    8  A    between atoms: N_6  and  C_12
    9  A    between atoms: N_6  and  C_17
   10  A    between atoms: N_6  and  C_45
   11  A    between atoms: C_7  and  C_56
   12  A    between atoms: C_10  and  O_47
   13  A    between atoms: C_12  and  C_31
   14  A    between atoms: C_13  and  C_25
   15  A    between atoms: C_13  and  C_61
   16  A    between atoms: C_15  and  C_39
   17  A    between atoms: C_15  and  O_47
   18  A    between atoms: N_21  and  C_32
   19  A    between atoms: C_22  and  C_29
   20  A    between atoms: C_23  and  C_29
   21  A    between atoms: C_23  and  C_45
   22  A    between atoms: C_25  and  C_48
   23  A    between atoms: N_26  and  C_43
   24  A    between atoms: C_56  and  C_59
                            x       y       z     vdW  Elec       q    Type
                         _______ _______ _______ _____ _____    ______ ____

>  <TORSDO>
F 24

$$$$
=
 OpenBabel11042417183D

 63 70  0  0  1  0  0  0  0  0999 V2000
  193.3720  171.2080  141.3780 N   0  0  0  0  0  0  0  0  0  0  0  0
  194.4400  172.1680  139.2810 C   0  0  2  0  0  3  0  0  0  0  0  0
  194.4520  172.0230  140.8030 C   0  0  2  0  0  3  0  0  0  0  0  0
  195.7000  171.3350  139.1900 C   0  0  1  0  0  3  0  0  0  0  0  0
  195.7470  172.8120  138.8480 C   0  0  1  0  0  3  0  0  0  0  0  0
  195.7070  171.1780  140.7020 C   0  0  0  0  0  2  0  0  0  0  0  0
  195.8690  173.0270  137.3310 C   0  0  2  0  0  3  0  0  0  0  0  0
  197.2100  173.2700  137.0160 O   0  0  0  0  0  1  0  0  0  0  0  0
  195.0700  174.0830  136.8530 O   0  0  0  0  0  0  0  0  0  0  0  0
  194.3260  173.5370  135.8000 C   0  0  1  0  0  3  0  0  0  0  0  0
  194.8870  172.1500  135.4410 C   0  0  0  0  0  2  0  0  0  0  0  0
  191.3480  171.9150  137.0200 N   0  0  0  0  0  0  0  0  0  0  0  0
  192.9270  173.3130  136.2340 C   0  0  0  0  0  0  0  0  0  0  0  0
  192.4640  172.1000  136.1600 C   0  0  0  0  0  0  0  0  0  0  0  0
  193.5720  170.8560  135.5570 S   0  0  0  0  0  0  0  0  0  0  0  0
  190.2730  173.5470  138.4820 C   0  0  0  0  0  1  0  0  0  0  0  0
  192.1550  174.1480  137.0910 N   0  0  0  0  0  0  0  0  0  0  0  0
  191.1380  173.2410  137.5170 C   0  0  0  0  0  0  0  0  0  0  0  0
  190.3390  170.8840  136.8160 C   0  0  0  0  0  2  0  0  0  0  0  0
  189.2730  171.3860  136.0750 O   0  0  0  0  0  1  0  0  0  0  0  0
  193.7190  170.9860  142.7730 C   0  0  0  0  0  2  0  0  0  0  0  0
  193.6440  169.5030  143.0960 C   0  0  0  0  0  2  0  0  0  0  0  0
  194.9790  169.0350  143.6450 C   0  0  0  0  0  2  0  0  0  0  0  0
  195.8060  170.1840  144.1390 C   0  0  0  0  0  3  0  0  0  0  0  0
  195.9280  170.4630  145.4350 C   0  0  0  0  0  3  0  0  0  0  0  0
  196.7900  171.6090  145.8550 C   0  0  0  0  0  2  0  0  0  0  0  0
  196.0330  172.9170  145.7220 C   0  0  2  0  0  3  0  0  0  0  0  0
  196.9190  173.9230  145.0810 C   0  0  2  0  0  3  0  0  0  0  0  0
  196.6860  173.9190  146.4680 O   0  0  0  0  0  0  0  0  0  0  0  0
  196.1640  175.0620  144.3880 C   0  0  0  0  0  2  0  0  0  0  0  0
  196.8410  175.6790  143.1620 C   0  0  0  0  0  2  0  0  0  0  0  0
  196.2050  175.1950  141.9450 N   0  0  0  0  0  2  0  0  0  0  0  0
  196.7280  176.0060  140.8570 C   0  0  0  0  0  2  0  0  0  0  0  0
  197.9400  175.3250  140.2670 C   0  0  0  0  0  1  0  0  0  0  0  0
  192.0670  171.8750  141.3950 C   0  0  0  0  0  2  0  0  0  0  0  0
  191.9410  173.0550  143.6000 C   0  0  0  0  0  3  0  0  0  0  0  0
  192.5610  175.5080  142.3930 C   0  0  0  0  0  3  0  0  0  0  0  0
  192.1440  173.1230  142.2130 C   0  0  0  0  0  0  0  0  0  0  0  0
  192.4420  174.3560  141.6130 C   0  0  0  0  0  3  0  0  0  0  0  0
  192.0570  174.2100  144.3830 C   0  0  0  0  0  3  0  0  0  0  0  0
  192.3710  175.4360  143.7790 C   0  0  0  0  0  0  0  0  0  0  0  0
  192.6090  176.6480  144.6180 C   0  0  0  0  0  2  0  0  0  0  0  0
  191.4180  177.0230  145.3660 N   0  0  0  0  0  0  0  0  0  0  0  0
  191.2910  176.5410  146.7400 C   0  0  0  0  0  2  0  0  0  0  0  0
  188.9630  176.2260  146.2320 O   0  0  0  0  0  0  0  0  0  0  0  0
  189.8370  176.6740  147.2380 C   0  0  0  0  0  2  0  0  0  0  0  0
  190.3930  178.1810  143.6040 O   0  0  0  0  0  0  0  0  0  0  0  0
  190.2630  177.5100  144.6700 C   0  0  0  0  0  0  0  0  0  0  0  0
  188.8920  177.2470  145.2570 C   0  0  1  0  0  3  0  0  0  0  0  0
  187.9530  176.8010  144.1330 C   0  0  0  0  0  2  0  0  0  0  0  0
  186.0090  177.6290  145.4120 N   0  0  0  0  0  0  0  0  0  0  0  0
  185.6640  179.7920  143.8470 O   0  0  0  0  0  0  0  0  0  0  0  0
  184.5370  179.2470  144.3500 O   0  0  0  0  0  0  0  0  0  0  0  0
  186.5970  177.5410  144.0510 C   0  0  1  0  0  0  0  0  0  0  0  0
  187.7560  179.3860  142.9670 O   0  0  0  0  0  0  0  0  0  0  0  0
  185.5590  176.4050  145.8050 O   0  0  0  0  0  1  0  0  0  0  0  0
  184.8900  178.5970  145.5590 C   0  0  0  0  0  2  0  0  0  0  0  0
  186.7280  178.9510  143.5460 C   0  0  0  0  0  0  0  0  0  0  0  0
  185.6630  176.7330  143.1130 C   0  0  0  0  0  2  0  0  0  0  0  0
  185.6920  177.1420  141.6640 C   0  0  0  0  0  0  0  0  0  0  0  0
  184.7970  177.8960  141.1870 O   0  0  0  0  0  0  0  0  0  0  0  0
  187.0190  177.2150  139.6800 C   0  0  0  0  0  2  0  0  0  0  0  0
  186.7810  176.7130  140.8480 N   0  0  0  0  0  0  0  0  0  0  0  0
  1 35  1  0  0  0  0
  1 21  1  0  0  0  0
  2  3  1  0  0  0  0
  3  1  1  0  0  0  0
  4  2  1  0  0  0  0
  4  6  1  0  0  0  0
  5  4  1  0  0  0  0
  5  2  1  0  0  0  0
  6  3  1  0  0  0  0
  7  5  1  0  0  0  0
  8  7  1  0  0  0  0
  9  7  1  0  0  0  0
 10 13  1  0  0  0  0
 10  9  1  0  0  0  0
 11 15  1  0  0  0  0
 11 10  1  0  0  0  0
 12 18  1  0  0  0  0
 13 17  1  0  0  0  0
 14 13  2  0  0  0  0
 14 12  1  0  0  0  0
 15 14  1  0  0  0  0
 17 18  2  0  0  0  0
 18 16  1  0  0  0  0
 19 12  1  0  0  0  0
 20 19  1  0  0  0  0
 21 22  1  0  0  0  0
 22 23  1  0  0  0  0
 23 24  1  0  0  0  0
 24 25  2  0  0  0  0
 25 26  1  0  0  0  0
 27 26  1  0  0  0  0
 27 29  1  0  0  0  0
 28 27  1  0  0  0  0
 28 29  1  0  0  0  0
 30 28  1  0  0  0  0
 31 30  1  0  0  0  0
 32 31  1  0  0  0  0
 33 32  1  0  0  0  0
 34 33  1  0  0  0  0
 35 38  1  0  0  0  0
 36 40  1  0  0  0  0
 37 41  1  0  0  0  0
 38 36  2  0  0  0  0
 39 38  1  0  0  0  0
 39 37  2  0  0  0  0
 41 40  2  0  0  0  0
 41 42  1  0  0  0  0
 42 43  1  0  0  0  0
 43 44  1  0  0  0  0
 44 46  1  0  0  0  0
 45 46  1  0  0  0  0
 47 48  2  0  0  0  0
 48 49  1  0  0  0  0
 48 43  1  0  0  0  0
 49 45  1  0  0  0  0
 50 49  1  0  0  0  0
 51 57  1  0  0  0  0
 51 56  1  0  0  0  0
 52 53  1  0  0  0  0
 53 57  1  0  0  0  0
 54 50  1  0  0  0  0
 54 51  1  0  0  0  0
 55 58  2  0  0  0  0
 58 52  1  0  0  0  0
 58 54  1  0  0  0  0
 59 54  1  0  0  0  0
 60 59  1  0  0  0  0
 61 60  2  0  0  0  0
 62 63  2  0  0  0  0
 63 60  1  0  0  0  0
M  END
>  <MODEL>
7

>  <REMARK>
 VINA RESULT:      -5.0      1.993      2.895
  Name = 
  24 active torsions:
  status: ('A' for Active; 'I' for Inactive)
    1  A    between atoms: C_1  and  N_27
    2  A    between atoms: C_1  and  C_48
    3  A    between atoms: C_2  and  N_14
    4  A    between atoms: C_2  and  C_57
    5  A    between atoms: C_3  and  C_4
    6  A    between atoms: C_3  and  N_26
    7  A    between atoms: C_4  and  C_34
    8  A    between atoms: N_6  and  C_12
    9  A    between atoms: N_6  and  C_17
   10  A    between atoms: N_6  and  C_45
   11  A    between atoms: C_7  and  C_56
   12  A    between atoms: C_10  and  O_47
   13  A    between atoms: C_12  and  C_31
   14  A    between atoms: C_13  and  C_25
   15  A    between atoms: C_13  and  C_61
   16  A    between atoms: C_15  and  C_39
   17  A    between atoms: C_15  and  O_47
   18  A    between atoms: N_21  and  C_32
   19  A    between atoms: C_22  and  C_29
   20  A    between atoms: C_23  and  C_29
   21  A    between atoms: C_23  and  C_45
   22  A    between atoms: C_25  and  C_48
   23  A    between atoms: N_26  and  C_43
   24  A    between atoms: C_56  and  C_59
                            x       y       z     vdW  Elec       q    Type
                         _______ _______ _______ _____ _____    ______ ____

>  <TORSDO>
F 24

$$$$
=
 OpenBabel11042417183D

 63 70  0  0  1  0  0  0  0  0999 V2000
  187.9760  175.8390  142.6710 N   0  0  0  0  0  0  0  0  0  0  0  0
  189.8070  175.9470  144.4300 C   0  0  2  0  0  3  0  0  0  0  0  0
  188.6580  176.6400  143.6970 C   0  0  2  0  0  3  0  0  0  0  0  0
  188.9880  175.9300  145.7030 C   0  0  1  0  0  3  0  0  0  0  0  0
  190.2190  176.8130  145.6100 C   0  0  1  0  0  3  0  0  0  0  0  0
  187.8390  176.6080  144.9730 C   0  0  0  0  0  2  0  0  0  0  0  0
  191.3780  176.2360  146.4380 C   0  0  2  0  0  3  0  0  0  0  0  0
  191.2230  176.6340  147.7710 O   0  0  0  0  0  1  0  0  0  0  0  0
  192.6460  176.6300  145.9700 O   0  0  0  0  0  0  0  0  0  0  0  0
  193.5310  175.6450  146.4230 C   0  0  1  0  0  3  0  0  0  0  0  0
  192.8780  174.2590  146.2680 C   0  0  0  0  0  2  0  0  0  0  0  0
  195.8770  174.7230  143.8470 N   0  0  0  0  0  0  0  0  0  0  0  0
  194.7420  175.6230  145.5690 C   0  0  0  0  0  0  0  0  0  0  0  0
  195.0320  174.5070  144.9680 C   0  0  0  0  0  0  0  0  0  0  0  0
  193.9300  173.1450  145.2350 S   0  0  0  0  0  0  0  0  0  0  0  0
  196.8000  176.8290  143.0270 C   0  0  0  0  0  1  0  0  0  0  0  0
  195.4020  176.7470  144.9970 N   0  0  0  0  0  0  0  0  0  0  0  0
  196.1510  176.1250  143.9520 C   0  0  0  0  0  0  0  0  0  0  0  0
  196.7480  173.6990  143.2870 C   0  0  0  0  0  2  0  0  0  0  0  0
  196.8270  173.8290  141.9040 O   0  0  0  0  0  1  0  0  0  0  0  0
  186.6720  176.4500  142.4680 C   0  0  0  0  0  2  0  0  0  0  0  0
  186.8300  177.9440  142.2450 C   0  0  0  0  0  2  0  0  0  0  0  0
  185.5160  178.6430  142.5390 C   0  0  0  0  0  2  0  0  0  0  0  0
  184.4760  178.3170  141.5100 C   0  0  0  0  0  3  0  0  0  0  0  0
  183.1730  178.3570  141.7830 C   0  0  0  0  0  3  0  0  0  0  0  0
  182.1920  178.0430  140.7000 C   0  0  0  0  0  2  0  0  0  0  0  0
  180.7800  178.0280  141.2520 C   0  0  2  0  0  3  0  0  0  0  0  0
  180.0370  179.1940  140.7100 C   0  0  2  0  0  3  0  0  0  0  0  0
  180.5580  179.1910  142.0170 O   0  0  0  0  0  0  0  0  0  0  0  0
  178.5150  179.0160  140.7110 C   0  0  0  0  0  2  0  0  0  0  0  0
  177.6930  180.1890  140.1750 C   0  0  0  0  0  2  0  0  0  0  0  0
  178.1030  180.5040  138.8140 N   0  0  0  0  0  2  0  0  0  0  0  0
  177.8420  181.9220  138.6240 C   0  0  0  0  0  2  0  0  0  0  0  0
  179.1400  182.6860  138.7390 C   0  0  0  0  0  1  0  0  0  0  0  0
  188.6350  175.8640  141.3620 C   0  0  0  0  0  2  0  0  0  0  0  0
  188.6010  173.9290  139.7720 C   0  0  0  0  0  3  0  0  0  0  0  0
  190.3500  172.4730  141.4090 C   0  0  0  0  0  3  0  0  0  0  0  0
  189.0570  174.4830  140.9780 C   0  0  0  0  0  0  0  0  0  0  0  0
  189.9220  173.7440  141.7990 C   0  0  0  0  0  3  0  0  0  0  0  0
  189.0270  172.6540  139.3800 C   0  0  0  0  0  3  0  0  0  0  0  0
  189.9040  171.9280  140.1980 C   0  0  0  0  0  0  0  0  0  0  0  0
  190.4530  170.6190  139.7360 C   0  0  0  0  0  2  0  0  0  0  0  0
  191.0420  170.7240  138.4090 N   0  0  0  0  0  0  0  0  0  0  0  0
  190.4670  169.9140  137.3360 C   0  0  0  0  0  2  0  0  0  0  0  0
  192.7320  169.5870  136.6030 O   0  0  0  0  0  0  0  0  0  0  0  0
  191.4300  169.8300  136.1330 C   0  0  0  0  0  2  0  0  0  0  0  0
  192.7460  172.2090  139.0300 O   0  0  0  0  0  0  0  0  0  0  0  0
  192.3500  171.2920  138.2530 C   0  0  0  0  0  0  0  0  0  0  0  0
  193.2260  170.8080  137.1170 C   0  0  1  0  0  3  0  0  0  0  0  0
  194.6450  170.5910  137.6470 C   0  0  0  0  0  2  0  0  0  0  0  0
  196.5230  170.2740  136.0750 N   0  0  0  0  0  0  0  0  0  0  0  0
  196.1480  172.6450  134.8560 O   0  0  0  0  0  0  0  0  0  0  0  0
  197.4290  172.2330  134.9530 O   0  0  0  0  0  0  0  0  0  0  0  0
  195.7760  171.2910  136.8580 C   0  0  1  0  0  0  0  0  0  0  0  0
  194.0910  172.7580  135.8930 O   0  0  0  0  0  0  0  0  0  0  0  0
  197.2860  169.5130  136.9090 O   0  0  0  0  0  1  0  0  0  0  0  0
  197.4100  170.8170  135.0120 C   0  0  0  0  0  2  0  0  0  0  0  0
  195.2640  172.3040  135.8720 C   0  0  0  0  0  0  0  0  0  0  0  0
  196.7170  171.9830  137.8770 C   0  0  0  0  0  2  0  0  0  0  0  0
  196.1920  173.2600  138.4790 C   0  0  0  0  0  0  0  0  0  0  0  0
  195.3770  173.2310  139.4450 O   0  0  0  0  0  0  0  0  0  0  0  0
  197.4600  175.2740  138.6640 C   0  0  0  0  0  2  0  0  0  0  0  0
  196.6730  174.5070  137.9820 N   0  0  0  0  0  0  0  0  0  0  0  0
  1  3  1  0  0  0  0
  2  5  1  0  0  0  0
  2  4  1  0  0  0  0
  3  2  1  0  0  0  0
  3  6  1  0  0  0  0
  5  4  1  0  0  0  0
  5  7  1  0  0  0  0
  6  4  1  0  0  0  0
  7  8  1  0  0  0  0
  9 10  1  0  0  0  0
  9  7  1  0  0  0  0
 11 10  1  0  0  0  0
 12 18  1  0  0  0  0
 12 14  1  0  0  0  0
 13 10  1  0  0  0  0
 14 15  1  0  0  0  0
 14 13  2  0  0  0  0
 15 11  1  0  0  0  0
 16 18  1  0  0  0  0
 17 13  1  0  0  0  0
 18 17  2  0  0  0  0
 19 12  1  0  0  0  0
 20 19  1  0  0  0  0
 21  1  1  0  0  0  0
 22 21  1  0  0  0  0
 22 23  1  0  0  0  0
 24 25  2  0  0  0  0
 24 23  1  0  0  0  0
 26 27  1  0  0  0  0
 26 25  1  0  0  0  0
 27 29  1  0  0  0  0
 28 30  1  0  0  0  0
 28 27  1  0  0  0  0
 28 29  1  0  0  0  0
 31 30  1  0  0  0  0
 32 31  1  0  0  0  0
 33 34  1  0  0  0  0
 33 32  1  0  0  0  0
 35  1  1  0  0  0  0
 36 38  1  0  0  0  0
 37 39  1  0  0  0  0
 38 35  1  0  0  0  0
 38 39  2  0  0  0  0
 40 36  2  0  0  0  0
 40 41  1  0  0  0  0
 41 37  2  0  0  0  0
 42 41  1  0  0  0  0
 43 42  1  0  0  0  0
 44 43  1  0  0  0  0
 45 49  1  0  0  0  0
 46 45  1  0  0  0  0
 46 44  1  0  0  0  0
 48 43  1  0  0  0  0
 48 47  2  0  0  0  0
 49 50  1  0  0  0  0
 49 48  1  0  0  0  0
 51 54  1  0  0  0  0
 51 56  1  0  0  0  0
 52 53  1  0  0  0  0
 52 58  1  0  0  0  0
 53 57  1  0  0  0  0
 54 50  1  0  0  0  0
 54 59  1  0  0  0  0
 57 51  1  0  0  0  0
 58 55  2  0  0  0  0
 58 54  1  0  0  0  0
 59 60  1  0  0  0  0
 60 61  2  0  0  0  0
 63 60  1  0  0  0  0
 63 62  2  0  0  0  0
M  END
>  <MODEL>
8

>  <REMARK>
 VINA RESULT:      -4.8      3.415     12.362
  Name = 
  24 active torsions:
  status: ('A' for Active; 'I' for Inactive)
    1  A    between atoms: C_1  and  N_27
    2  A    between atoms: C_1  and  C_48
    3  A    between atoms: C_2  and  N_14
    4  A    between atoms: C_2  and  C_57
    5  A    between atoms: C_3  and  C_4
    6  A    between atoms: C_3  and  N_26
    7  A    between atoms: C_4  and  C_34
    8  A    between atoms: N_6  and  C_12
    9  A    between atoms: N_6  and  C_17
   10  A    between atoms: N_6  and  C_45
   11  A    between atoms: C_7  and  C_56
   12  A    between atoms: C_10  and  O_47
   13  A    between atoms: C_12  and  C_31
   14  A    between atoms: C_13  and  C_25
   15  A    between atoms: C_13  and  C_61
   16  A    between atoms: C_15  and  C_39
   17  A    between atoms: C_15  and  O_47
   18  A    between atoms: N_21  and  C_32
   19  A    between atoms: C_22  and  C_29
   20  A    between atoms: C_23  and  C_29
   21  A    between atoms: C_23  and  C_45
   22  A    between atoms: C_25  and  C_48
   23  A    between atoms: N_26  and  C_43
   24  A    between atoms: C_56  and  C_59
                            x       y       z     vdW  Elec       q    Type
                         _______ _______ _______ _____ _____    ______ ____

>  <TORSDO>
F 24

$$$$
=
 OpenBabel11042417183D

 63 70  0  0  1  0  0  0  0  0999 V2000
  187.2110  176.7120  140.3180 N   0  0  0  0  0  0  0  0  0  0  0  0
  188.2540  175.5000  138.3420 C   0  0  2  0  0  3  0  0  0  0  0  0
  187.0530  175.6940  139.2680 C   0  0  2  0  0  3  0  0  0  0  0  0
  187.4640  176.0870  137.1910 C   0  0  1  0  0  3  0  0  0  0  0  0
  187.8290  174.6140  137.1810 C   0  0  1  0  0  3  0  0  0  0  0  0
  186.2730  176.2930  138.1140 C   0  0  0  0  0  2  0  0  0  0  0  0
  188.9480  174.3280  136.1680 C   0  0  2  0  0  3  0  0  0  0  0  0
  188.5270  174.7440  134.9000 O   0  0  0  0  0  1  0  0  0  0  0  0
  189.3230  172.9720  136.1210 O   0  0  0  0  0  0  0  0  0  0  0  0
  190.6880  172.9750  135.8080 C   0  0  1  0  0  3  0  0  0  0  0  0
  191.4290  173.9350  136.7560 C   0  0  0  0  0  2  0  0  0  0  0  0
  192.3930  170.2310  137.4050 N   0  0  0  0  0  0  0  0  0  0  0  0
  191.2650  171.6320  136.0530 C   0  0  0  0  0  0  0  0  0  0  0  0
  192.2530  171.5490  136.8940 C   0  0  0  0  0  0  0  0  0  0  0  0
  192.7830  173.0580  137.6580 S   0  0  0  0  0  0  0  0  0  0  0  0
  191.0790  168.2470  136.8620 C   0  0  0  0  0  1  0  0  0  0  0  0
  190.6390  170.3770  135.8100 N   0  0  0  0  0  0  0  0  0  0  0  0
  191.4190  169.5140  136.6380 C   0  0  0  0  0  0  0  0  0  0  0  0
  193.6390  169.7070  137.9490 C   0  0  0  0  0  2  0  0  0  0  0  0
  194.6920  169.9430  137.0700 O   0  0  0  0  0  1  0  0  0  0  0  0
  186.0570  177.5910  140.2170 C   0  0  0  0  0  2  0  0  0  0  0  0
  185.8160  178.2840  141.5470 C   0  0  0  0  0  2  0  0  0  0  0  0
  184.3280  178.3130  141.8420 C   0  0  0  0  0  2  0  0  0  0  0  0
  184.0580  178.2830  143.3170 C   0  0  0  0  0  3  0  0  0  0  0  0
  185.0210  178.4800  144.2170 C   0  0  0  0  0  3  0  0  0  0  0  0
  184.6720  178.4610  145.6700 C   0  0  0  0  0  2  0  0  0  0  0  0
  185.9310  178.4570  146.5160 C   0  0  2  0  0  3  0  0  0  0  0  0
  186.4790  177.0770  146.5590 C   0  0  2  0  0  3  0  0  0  0  0  0
  185.7480  177.6160  147.6330 O   0  0  0  0  0  0  0  0  0  0  0  0
  187.9780  177.0150  146.8750 C   0  0  0  0  0  2  0  0  0  0  0  0
  188.6630  175.6650  146.6540 C   0  0  0  0  0  2  0  0  0  0  0  0
  189.7640  175.8130  145.7130 N   0  0  0  0  0  2  0  0  0  0  0  0
  190.0850  177.2310  145.6760 C   0  0  0  0  0  2  0  0  0  0  0  0
  190.0740  177.7060  144.2420 C   0  0  0  0  0  1  0  0  0  0  0  0
  187.1810  176.1710  141.6790 C   0  0  0  0  0  2  0  0  0  0  0  0
  187.6570  173.7360  142.0150 C   0  0  0  0  0  3  0  0  0  0  0  0
  190.4120  174.1700  141.7240 C   0  0  0  0  0  3  0  0  0  0  0  0
  188.1430  175.0330  141.7960 C   0  0  0  0  0  0  0  0  0  0  0  0
  189.5240  175.2460  141.6630 C   0  0  0  0  0  3  0  0  0  0  0  0
  188.5460  172.6550  142.0790 C   0  0  0  0  0  3  0  0  0  0  0  0
  189.9230  172.8730  141.9300 C   0  0  0  0  0  0  0  0  0  0  0  0
  190.8670  171.7170  141.8820 C   0  0  0  0  0  2  0  0  0  0  0  0
  192.0870  171.9920  142.6260 N   0  0  0  0  0  0  0  0  0  0  0  0
  191.9590  172.4740  144.0010 C   0  0  0  0  0  2  0  0  0  0  0  0
  193.8120  173.9150  143.4850 O   0  0  0  0  0  0  0  0  0  0  0  0
  193.2850  173.0900  144.4940 C   0  0  0  0  0  2  0  0  0  0  0  0
  193.5490  171.5030  140.8610 O   0  0  0  0  0  0  0  0  0  0  0  0
  193.3280  172.1500  141.9260 C   0  0  0  0  0  0  0  0  0  0  0  0
  194.3840  173.0660  142.5080 C   0  0  1  0  0  3  0  0  0  0  0  0
  194.9680  173.9230  141.3820 C   0  0  0  0  0  2  0  0  0  0  0  0
  195.4660  175.9780  142.6570 N   0  0  0  0  0  0  0  0  0  0  0  0
  197.9370  175.1710  143.3560 O   0  0  0  0  0  0  0  0  0  0  0  0
  197.7910  176.4950  143.1460 O   0  0  0  0  0  0  0  0  0  0  0  0
  196.0680  174.9280  141.7970 C   0  0  1  0  0  0  0  0  0  0  0  0
  197.3470  173.0490  142.6690 O   0  0  0  0  0  0  0  0  0  0  0  0
  194.6930  176.8100  141.9040 O   0  0  0  0  0  1  0  0  0  0  0  0
  196.4360  176.8150  143.4120 C   0  0  0  0  0  2  0  0  0  0  0  0
  197.1700  174.2930  142.6000 C   0  0  0  0  0  0  0  0  0  0  0  0
  196.6560  175.5580  140.5090 C   0  0  0  0  0  2  0  0  0  0  0  0
  196.8020  174.6210  139.3390 C   0  0  0  0  0  0  0  0  0  0  0  0
  197.5860  173.6320  139.3980 O   0  0  0  0  0  0  0  0  0  0  0  0
  196.3530  174.4390  137.0010 C   0  0  0  0  0  2  0  0  0  0  0  0
  195.9970  174.8330  138.1810 N   0  0  0  0  0  0  0  0  0  0  0  0
  1 35  1  0  0  0  0
  2  3  1  0  0  0  0
  3  1  1  0  0  0  0
  4  6  1  0  0  0  0
  4  2  1  0  0  0  0
  5  4  1  0  0  0  0
  5  2  1  0  0  0  0
  6  3  1  0  0  0  0
  7  5  1  0  0  0  0
  8  7  1  0  0  0  0
  9  7  1  0  0  0  0
 10 13  1  0  0  0  0
 10  9  1  0  0  0  0
 10 11  1  0  0  0  0
 11 15  1  0  0  0  0
 12 19  1  0  0  0  0
 13 14  2  0  0  0  0
 14 12  1  0  0  0  0
 14 15  1  0  0  0  0
 17 13  1  0  0  0  0
 17 18  2  0  0  0  0
 18 16  1  0  0  0  0
 18 12  1  0  0  0  0
 20 19  1  0  0  0  0
 21  1  1  0  0  0  0
 21 22  1  0  0  0  0
 22 23  1  0  0  0  0
 23 24  1  0  0  0  0
 24 25  2  0  0  0  0
 25 26  1  0  0  0  0
 26 27  1  0  0  0  0
 27 28  1  0  0  0  0
 27 29  1  0  0  0  0
 28 30  1  0  0  0  0
 28 29  1  0  0  0  0
 31 30  1  0  0  0  0
 32 31  1  0  0  0  0
 33 32  1  0  0  0  0
 34 33  1  0  0  0  0
 35 38  1  0  0  0  0
 36 40  1  0  0  0  0
 37 41  1  0  0  0  0
 38 36  2  0  0  0  0
 39 37  2  0  0  0  0
 39 38  1  0  0  0  0
 41 40  2  0  0  0  0
 42 41  1  0  0  0  0
 42 43  1  0  0  0  0
 43 44  1  0  0  0  0
 44 46  1  0  0  0  0
 45 46  1  0  0  0  0
 47 48  2  0  0  0  0
 48 49  1  0  0  0  0
 48 43  1  0  0  0  0
 49 45  1  0  0  0  0
 50 54  1  0  0  0  0
 50 49  1  0  0  0  0
 51 57  1  0  0  0  0
 53 52  1  0  0  0  0
 53 57  1  0  0  0  0
 54 58  1  0  0  0  0
 54 51  1  0  0  0  0
 56 51  1  0  0  0  0
 58 55  2  0  0  0  0
 58 52  1  0  0  0  0
 59 54  1  0  0  0  0
 60 61  2  0  0  0  0
 60 59  1  0  0  0  0
 62 63  2  0  0  0  0
 63 60  1  0  0  0  0
M  END
>  <MODEL>
9

>  <REMARK>
 VINA RESULT:      -4.7      2.671      9.377
  Name = 
  24 active torsions:
  status: ('A' for Active; 'I' for Inactive)
    1  A    between atoms: C_1  and  N_27
    2  A    between atoms: C_1  and  C_48
    3  A    between atoms: C_2  and  N_14
    4  A    between atoms: C_2  and  C_57
    5  A    between atoms: C_3  and  C_4
    6  A    between atoms: C_3  and  N_26
    7  A    between atoms: C_4  and  C_34
    8  A    between atoms: N_6  and  C_12
    9  A    between atoms: N_6  and  C_17
   10  A    between atoms: N_6  and  C_45
   11  A    between atoms: C_7  and  C_56
   12  A    between atoms: C_10  and  O_47
   13  A    between atoms: C_12  and  C_31
   14  A    between atoms: C_13  and  C_25
   15  A    between atoms: C_13  and  C_61
   16  A    between atoms: C_15  and  C_39
   17  A    between atoms: C_15  and  O_47
   18  A    between atoms: N_21  and  C_32
   19  A    between atoms: C_22  and  C_29
   20  A    between atoms: C_23  and  C_29
   21  A    between atoms: C_23  and  C_45
   22  A    between atoms: C_25  and  C_48
   23  A    between atoms: N_26  and  C_43
   24  A    between atoms: C_56  and  C_59
                            x       y       z     vdW  Elec       q    Type
                         _______ _______ _______ _____ _____    ______ ____

>  <TORSDO>
F 24

$$$$
