=
 OpenBabel11042414403D

 28 30  0  0  0  0  0  0  0  0999 V2000
  191.4210  175.9690  142.9210 C   0  0  0  0  0  0  0  0  0  0  0  0
  189.4310  175.2790  142.5870 C   0  0  0  0  0  0  0  0  0  0  0  0
  190.9760  178.3390  143.8500 C   0  0  0  0  0  1  0  0  0  0  0  0
  190.5820  177.0100  143.3000 C   0  0  0  0  0  0  0  0  0  0  0  0
  190.7010  174.9530  142.4990 O   0  0  0  0  0  0  0  0  0  0  0  0
  189.2890  176.5560  143.0980 C   0  0  0  0  0  0  0  0  0  0  0  0
  187.5350  178.0910  142.2720 C   0  0  0  0  0  3  0  0  0  0  0  0
  186.1140  177.9950  144.6580 C   0  0  0  0  0  0  0  0  0  0  0  0
  188.0320  177.3070  143.3190 C   0  0  0  0  0  0  0  0  0  0  0  0
  185.8790  177.2280  146.9480 C   0  0  0  0  0  3  0  0  0  0  0  0
  185.3940  177.9660  145.8650 C   0  0  0  0  0  0  0  0  0  0  0  0
  185.6650  178.7350  143.6070 N   0  0  0  0  0  0  0  0  0  0  0  0
  186.3460  178.7990  142.4330 C   0  0  0  0  0  3  0  0  0  0  0  0
  187.0770  176.5200  146.8390 C   0  0  0  0  0  3  0  0  0  0  0  0
  184.1160  178.7180  146.0240 C   0  0  0  0  0  1  0  0  0  0  0  0
  187.3210  177.2630  144.5380 C   0  0  0  0  0  0  0  0  0  0  0  0
  187.7960  176.5390  145.6440 C   0  0  0  0  0  3  0  0  0  0  0  0
  192.8930  175.9480  142.9610 C   0  0  0  0  0  0  0  0  0  0  0  0
  193.5420  176.3930  141.9780 O   0  0  0  0  0  0  0  0  0  0  0  0
  193.5820  175.4310  144.1010 N   0  0  0  0  0  2  0  0  0  0  0  0
  195.7820  174.6700  145.7570 C   0  0  0  0  0  1  0  0  0  0  0  0
  195.8590  174.5400  143.0850 O   0  0  0  0  0  0  0  0  0  0  0  0
  195.8640  176.7760  144.1080 O   0  0  0  0  0  0  0  0  0  0  0  0
  195.3090  175.3820  144.2000 S   0  0  0  0  0  0  0  0  0  0  0  0
  188.3620  174.4300  142.1730 N   0  0  0  0  0  2  0  0  0  0  0  0
  188.5940  173.2910  141.3050 C   0  0  0  0  0  2  0  0  0  0  0  0
  188.6620  173.7600  139.8680 C   0  0  0  0  0  2  0  0  0  0  0  0
  188.1670  172.7120  138.9940 N   0  0  0  0  0  1  0  0  0  0  0  0
  1 18  1  0  0  0  0
  1  4  2  0  0  0  0
  2  6  2  0  0  0  0
  4  3  1  0  0  0  0
  5  2  1  0  0  0  0
  5  1  1  0  0  0  0
  6  4  1  0  0  0  0
  6  9  1  0  0  0  0
  7 13  2  0  0  0  0
  7  9  1  0  0  0  0
  8 11  1  0  0  0  0
  9 16  2  0  0  0  0
 11 15  1  0  0  0  0
 11 10  2  0  0  0  0
 12  8  2  0  0  0  0
 13 12  1  0  0  0  0
 14 10  1  0  0  0  0
 16  8  1  0  0  0  0
 16 17  1  0  0  0  0
 17 14  2  0  0  0  0
 18 20  1  0  0  0  0
 19 18  2  0  0  0  0
 20 24  1  0  0  0  0
 22 24  2  0  0  0  0
 23 24  2  0  0  0  0
 24 21  1  0  0  0  0
 25  2  1  0  0  0  0
 26 25  1  0  0  0  0
 27 26  1  0  0  0  0
 28 27  1  0  0  0  0
M  END
>  <MODEL>
1

>  <REMARK>
 VINA RESULT:      -7.3      0.000      0.000
  Name = 
  6 active torsions:
  status: ('A' for Active; 'I' for Inactive)
    1  A    between atoms: C_1  and  C_5
    2  A    between atoms: C_4  and  C_11
    3  A    between atoms: C_9  and  C_27
    4  A    between atoms: C_11  and  N_28
    5  A    between atoms: C_13  and  N_28
    6  A    between atoms: S_20  and  N_25
                            x       y       z     vdW  Elec       q    Type
                         _______ _______ _______ _____ _____    ______ ____

>  <TORSDO>
F 6

$$$$
=
 OpenBabel11042414403D

 28 30  0  0  0  0  0  0  0  0999 V2000
  191.5590  175.7690  143.5900 C   0  0  0  0  0  0  0  0  0  0  0  0
  189.5930  175.0600  143.1650 C   0  0  0  0  0  0  0  0  0  0  0  0
  191.0750  178.2270  144.2250 C   0  0  0  0  0  1  0  0  0  0  0  0
  190.7070  176.8500  143.7860 C   0  0  0  0  0  0  0  0  0  0  0  0
  190.8600  174.7190  143.2180 O   0  0  0  0  0  0  0  0  0  0  0  0
  189.4290  176.3850  143.5260 C   0  0  0  0  0  0  0  0  0  0  0  0
  187.7910  177.8670  142.4120 C   0  0  0  0  0  3  0  0  0  0  0  0
  186.1420  177.9750  144.6460 C   0  0  0  0  0  0  0  0  0  0  0  0
  188.1700  177.1640  143.5620 C   0  0  0  0  0  0  0  0  0  0  0  0
  185.6700  177.3960  146.9550 C   0  0  0  0  0  3  0  0  0  0  0  0
  185.3060  178.0500  145.7740 C   0  0  0  0  0  0  0  0  0  0  0  0
  185.8110  178.6330  143.5010 N   0  0  0  0  0  0  0  0  0  0  0  0
  186.6050  178.5970  142.3980 C   0  0  0  0  0  3  0  0  0  0  0  0
  186.8600  176.6700  147.0210 C   0  0  0  0  0  3  0  0  0  0  0  0
  184.0330  178.8250  145.7460 C   0  0  0  0  0  1  0  0  0  0  0  0
  187.3420  177.2240  144.7040 C   0  0  0  0  0  0  0  0  0  0  0  0
  187.6930  176.5870  145.9050 C   0  0  0  0  0  3  0  0  0  0  0  0
  193.0210  175.7430  143.7540 C   0  0  0  0  0  0  0  0  0  0  0  0
  193.5100  175.4040  144.8650 O   0  0  0  0  0  0  0  0  0  0  0  0
  193.8820  176.0950  142.6690 N   0  0  0  0  0  2  0  0  0  0  0  0
  196.3160  176.7180  141.3100 C   0  0  0  0  0  1  0  0  0  0  0  0
  196.0310  176.9440  143.9620 O   0  0  0  0  0  0  0  0  0  0  0  0
  196.0890  174.6720  143.0210 O   0  0  0  0  0  0  0  0  0  0  0  0
  195.6070  176.0800  142.8080 S   0  0  0  0  0  0  0  0  0  0  0  0
  188.5480  174.1800  142.7550 N   0  0  0  0  0  2  0  0  0  0  0  0
  188.5840  173.5120  141.4670 C   0  0  0  0  0  2  0  0  0  0  0  0
  188.5420  174.5470  140.3630 C   0  0  0  0  0  2  0  0  0  0  0  0
  188.2580  173.8930  139.1000 N   0  0  0  0  0  1  0  0  0  0  0  0
  1 18  1  0  0  0  0
  1  4  2  0  0  0  0
  2  5  1  0  0  0  0
  2  6  2  0  0  0  0
  4  3  1  0  0  0  0
  5  1  1  0  0  0  0
  6  9  1  0  0  0  0
  6  4  1  0  0  0  0
  7  9  1  0  0  0  0
  8 16  1  0  0  0  0
  8 11  1  0  0  0  0
  9 16  2  0  0  0  0
 10 14  1  0  0  0  0
 11 10  2  0  0  0  0
 12  8  2  0  0  0  0
 13  7  2  0  0  0  0
 13 12  1  0  0  0  0
 15 11  1  0  0  0  0
 16 17  1  0  0  0  0
 17 14  2  0  0  0  0
 18 19  2  0  0  0  0
 20 24  1  0  0  0  0
 20 18  1  0  0  0  0
 21 24  1  0  0  0  0
 24 23  2  0  0  0  0
 24 22  2  0  0  0  0
 25  2  1  0  0  0  0
 26 25  1  0  0  0  0
 27 26  1  0  0  0  0
 28 27  1  0  0  0  0
M  END
>  <MODEL>
2

>  <REMARK>
 VINA RESULT:      -7.2      1.114      1.431
  Name = 
  6 active torsions:
  status: ('A' for Active; 'I' for Inactive)
    1  A    between atoms: C_1  and  C_5
    2  A    between atoms: C_4  and  C_11
    3  A    between atoms: C_9  and  C_27
    4  A    between atoms: C_11  and  N_28
    5  A    between atoms: C_13  and  N_28
    6  A    between atoms: S_20  and  N_25
                            x       y       z     vdW  Elec       q    Type
                         _______ _______ _______ _____ _____    ______ ____

>  <TORSDO>
F 6

$$$$
=
 OpenBabel11042414403D

 28 30  0  0  0  0  0  0  0  0999 V2000
  192.1200  175.5080  143.4980 C   0  0  0  0  0  0  0  0  0  0  0  0
  190.5380  174.5820  144.5880 C   0  0  0  0  0  0  0  0  0  0  0  0
  191.3770  177.9820  143.5460 C   0  0  0  0  0  1  0  0  0  0  0  0
  191.2420  176.5270  143.8470 C   0  0  0  0  0  0  0  0  0  0  0  0
  191.6670  174.3610  143.9550 O   0  0  0  0  0  0  0  0  0  0  0  0
  190.2230  175.9290  144.5690 C   0  0  0  0  0  0  0  0  0  0  0  0
  189.0640  177.0060  146.4700 C   0  0  0  0  0  3  0  0  0  0  0  0
  186.7500  177.4590  144.9980 C   0  0  0  0  0  0  0  0  0  0  0  0
  189.0230  176.5860  145.1350 C   0  0  0  0  0  0  0  0  0  0  0  0
  185.4740  177.2390  142.9460 C   0  0  0  0  0  3  0  0  0  0  0  0
  185.5690  177.6800  144.2690 C   0  0  0  0  0  0  0  0  0  0  0  0
  186.8420  177.8590  146.2970 N   0  0  0  0  0  0  0  0  0  0  0  0
  187.9620  177.6440  147.0350 C   0  0  0  0  0  3  0  0  0  0  0  0
  186.5460  176.5760  142.3450 C   0  0  0  0  0  3  0  0  0  0  0  0
  184.3990  178.3740  144.8790 C   0  0  0  0  0  1  0  0  0  0  0  0
  187.8460  176.8020  144.3850 C   0  0  0  0  0  0  0  0  0  0  0  0
  187.7230  176.3560  143.0600 C   0  0  0  0  0  3  0  0  0  0  0  0
  193.3740  175.6290  142.7360 C   0  0  0  0  0  0  0  0  0  0  0  0
  193.3940  175.2850  141.5240 O   0  0  0  0  0  0  0  0  0  0  0  0
  194.5580  176.1320  143.3590 N   0  0  0  0  0  2  0  0  0  0  0  0
  196.7070  174.6790  142.1630 C   0  0  0  0  0  1  0  0  0  0  0  0
  195.8320  177.0250  141.2170 O   0  0  0  0  0  0  0  0  0  0  0  0
  197.0420  177.0510  143.3580 O   0  0  0  0  0  0  0  0  0  0  0  0
  196.0570  176.2960  142.5100 S   0  0  0  0  0  0  0  0  0  0  0  0
  189.7410  173.5560  145.1780 N   0  0  0  0  0  2  0  0  0  0  0  0
  189.8050  172.1850  144.7060 C   0  0  0  0  0  2  0  0  0  0  0  0
  189.1580  172.0930  143.3410 C   0  0  0  0  0  2  0  0  0  0  0  0
  190.0450  171.3890  142.4340 N   0  0  0  0  0  1  0  0  0  0  0  0
  1  4  2  0  0  0  0
  1  5  1  0  0  0  0
  2 25  1  0  0  0  0
  3  4  1  0  0  0  0
  4  6  1  0  0  0  0
  5  2  1  0  0  0  0
  6  2  2  0  0  0  0
  6  9  1  0  0  0  0
  7 13  1  0  0  0  0
  8 12  1  0  0  0  0
  9  7  2  0  0  0  0
 10 11  1  0  0  0  0
 11 15  1  0  0  0  0
 11  8  2  0  0  0  0
 12 13  2  0  0  0  0
 14 10  2  0  0  0  0
 14 17  1  0  0  0  0
 16  8  1  0  0  0  0
 16  9  1  0  0  0  0
 17 16  2  0  0  0  0
 18 20  1  0  0  0  0
 18  1  1  0  0  0  0
 19 18  2  0  0  0  0
 21 24  1  0  0  0  0
 22 24  2  0  0  0  0
 24 23  2  0  0  0  0
 24 20  1  0  0  0  0
 26 25  1  0  0  0  0
 27 26  1  0  0  0  0
 28 27  1  0  0  0  0
M  END
>  <MODEL>
3

>  <REMARK>
 VINA RESULT:      -6.6      2.106      2.777
  Name = 
  6 active torsions:
  status: ('A' for Active; 'I' for Inactive)
    1  A    between atoms: C_1  and  C_5
    2  A    between atoms: C_4  and  C_11
    3  A    between atoms: C_9  and  C_27
    4  A    between atoms: C_11  and  N_28
    5  A    between atoms: C_13  and  N_28
    6  A    between atoms: S_20  and  N_25
                            x       y       z     vdW  Elec       q    Type
                         _______ _______ _______ _____ _____    ______ ____

>  <TORSDO>
F 6

$$$$
=
 OpenBabel11042414403D

 28 30  0  0  0  0  0  0  0  0999 V2000
  188.8080  176.8240  144.2630 C   0  0  0  0  0  0  0  0  0  0  0  0
  189.9750  175.1780  144.9530 C   0  0  0  0  0  0  0  0  0  0  0  0
  190.6380  178.6090  143.8860 C   0  0  0  0  0  1  0  0  0  0  0  0
  190.1260  177.2650  144.2830 C   0  0  0  0  0  0  0  0  0  0  0  0
  188.7550  175.5750  144.6700 O   0  0  0  0  0  0  0  0  0  0  0  0
  190.8850  176.1920  144.7150 C   0  0  0  0  0  0  0  0  0  0  0  0
  192.8250  176.3640  146.2400 C   0  0  0  0  0  3  0  0  0  0  0  0
  194.6590  175.9110  144.2030 C   0  0  0  0  0  0  0  0  0  0  0  0
  192.3490  176.1640  144.9400 C   0  0  0  0  0  0  0  0  0  0  0  0
  195.1650  175.5350  141.8590 C   0  0  0  0  0  3  0  0  0  0  0  0
  195.5980  175.6980  143.1780 C   0  0  0  0  0  0  0  0  0  0  0  0
  195.0730  176.1010  145.4860 N   0  0  0  0  0  0  0  0  0  0  0  0
  194.1940  176.3270  146.4970 C   0  0  0  0  0  3  0  0  0  0  0  0
  193.8040  175.5850  141.5520 C   0  0  0  0  0  3  0  0  0  0  0  0
  197.0610  175.6490  143.4640 C   0  0  0  0  0  1  0  0  0  0  0  0
  193.2760  175.9450  143.8970 C   0  0  0  0  0  0  0  0  0  0  0  0
  192.8660  175.7920  142.5640 C   0  0  0  0  0  3  0  0  0  0  0  0
  187.6160  177.5880  143.8600 C   0  0  0  0  0  0  0  0  0  0  0  0
  187.5270  178.0140  142.6780 O   0  0  0  0  0  0  0  0  0  0  0  0
  186.5660  177.8450  144.7960 N   0  0  0  0  0  2  0  0  0  0  0  0
  184.0450  178.7690  145.7710 C   0  0  0  0  0  1  0  0  0  0  0  0
  185.5160  180.1440  144.0070 O   0  0  0  0  0  0  0  0  0  0  0  0
  184.4500  178.0720  143.2190 O   0  0  0  0  0  0  0  0  0  0  0  0
  185.1430  178.7360  144.3750 S   0  0  0  0  0  0  0  0  0  0  0  0
  190.2920  173.8850  145.4660 N   0  0  0  0  0  2  0  0  0  0  0  0
  190.1760  172.6960  144.6440 C   0  0  0  0  0  2  0  0  0  0  0  0
  191.4280  172.5370  143.8090 C   0  0  0  0  0  2  0  0  0  0  0  0
  192.5870  172.4890  144.6810 N   0  0  0  0  0  1  0  0  0  0  0  0
  1  4  2  0  0  0  0
  1  5  1  0  0  0  0
  2 25  1  0  0  0  0
  3  4  1  0  0  0  0
  4  6  1  0  0  0  0
  5  2  1  0  0  0  0
  6  9  1  0  0  0  0
  6  2  2  0  0  0  0
  7 13  1  0  0  0  0
  8 12  1  0  0  0  0
  9  7  2  0  0  0  0
 10 11  1  0  0  0  0
 11 15  1  0  0  0  0
 11  8  2  0  0  0  0
 12 13  2  0  0  0  0
 14 10  2  0  0  0  0
 14 17  1  0  0  0  0
 16  8  1  0  0  0  0
 16  9  1  0  0  0  0
 17 16  2  0  0  0  0
 18  1  1  0  0  0  0
 18 20  1  0  0  0  0
 19 18  2  0  0  0  0
 22 24  2  0  0  0  0
 23 24  2  0  0  0  0
 24 20  1  0  0  0  0
 24 21  1  0  0  0  0
 26 25  1  0  0  0  0
 27 26  1  0  0  0  0
 27 28  1  0  0  0  0
M  END
>  <MODEL>
4

>  <REMARK>
 VINA RESULT:      -6.6      3.875      7.783
  Name = 
  6 active torsions:
  status: ('A' for Active; 'I' for Inactive)
    1  A    between atoms: C_1  and  C_5
    2  A    between atoms: C_4  and  C_11
    3  A    between atoms: C_9  and  C_27
    4  A    between atoms: C_11  and  N_28
    5  A    between atoms: C_13  and  N_28
    6  A    between atoms: S_20  and  N_25
                            x       y       z     vdW  Elec       q    Type
                         _______ _______ _______ _____ _____    ______ ____

>  <TORSDO>
F 6

$$$$
=
 OpenBabel11042414403D

 28 30  0  0  0  0  0  0  0  0999 V2000
  190.0150  174.4580  142.0110 C   0  0  0  0  0  0  0  0  0  0  0  0
  189.7980  176.4800  142.6540 C   0  0  0  0  0  0  0  0  0  0  0  0
  187.5690  173.6330  142.1270 C   0  0  0  0  0  1  0  0  0  0  0  0
  188.6620  174.6360  142.2770 C   0  0  0  0  0  0  0  0  0  0  0  0
  190.6620  175.5770  142.2490 O   0  0  0  0  0  0  0  0  0  0  0  0
  188.5190  175.9530  142.6790 C   0  0  0  0  0  0  0  0  0  0  0  0
  186.4020  177.1050  142.1210 C   0  0  0  0  0  3  0  0  0  0  0  0
  185.7060  177.4420  144.7900 C   0  0  0  0  0  0  0  0  0  0  0  0
  187.2720  176.6270  143.1080 C   0  0  0  0  0  0  0  0  0  0  0  0
  186.2110  177.2060  147.1520 C   0  0  0  0  0  3  0  0  0  0  0  0
  185.3490  177.6320  146.1370 C   0  0  0  0  0  0  0  0  0  0  0  0
  184.8870  177.8790  143.7940 N   0  0  0  0  0  0  0  0  0  0  0  0
  185.2100  177.7280  142.4830 C   0  0  0  0  0  3  0  0  0  0  0  0
  187.4260  176.5950  146.8370 C   0  0  0  0  0  3  0  0  0  0  0  0
  184.0660  178.2900  146.5140 C   0  0  0  0  0  1  0  0  0  0  0  0
  186.9300  176.8060  144.4660 C   0  0  0  0  0  0  0  0  0  0  0  0
  187.7850  176.3990  145.5030 C   0  0  0  0  0  3  0  0  0  0  0  0
  190.6790  173.2320  141.5380 C   0  0  0  0  0  0  0  0  0  0  0  0
  191.2780  172.4960  142.3670 O   0  0  0  0  0  0  0  0  0  0  0  0
  190.6460  172.8750  140.1540 N   0  0  0  0  0  2  0  0  0  0  0  0
  191.1450  171.3500  137.7910 C   0  0  0  0  0  1  0  0  0  0  0  0
  192.8850  171.5020  139.8190 O   0  0  0  0  0  0  0  0  0  0  0  0
  190.8130  170.2320  140.2000 O   0  0  0  0  0  0  0  0  0  0  0  0
  191.4090  171.4460  139.5450 S   0  0  0  0  0  0  0  0  0  0  0  0
  190.1540  177.8050  143.0450 N   0  0  0  0  0  2  0  0  0  0  0  0
  191.3520  178.0670  143.8200 C   0  0  0  0  0  2  0  0  0  0  0  0
  191.3730  177.1650  145.0350 C   0  0  0  0  0  2  0  0  0  0  0  0
  192.6710  176.5260  145.1400 N   0  0  0  0  0  1  0  0  0  0  0  0
  1  5  1  0  0  0  0
  1  4  2  0  0  0  0
  2  6  2  0  0  0  0
  2 25  1  0  0  0  0
  3  4  1  0  0  0  0
  4  6  1  0  0  0  0
  5  2  1  0  0  0  0
  6  9  1  0  0  0  0
  7 13  2  0  0  0  0
  7  9  1  0  0  0  0
  8 11  1  0  0  0  0
  9 16  2  0  0  0  0
 11 15  1  0  0  0  0
 11 10  2  0  0  0  0
 12  8  2  0  0  0  0
 13 12  1  0  0  0  0
 14 10  1  0  0  0  0
 16  8  1  0  0  0  0
 16 17  1  0  0  0  0
 17 14  2  0  0  0  0
 18  1  1  0  0  0  0
 18 19  2  0  0  0  0
 20 18  1  0  0  0  0
 21 24  1  0  0  0  0
 24 22  2  0  0  0  0
 24 20  1  0  0  0  0
 24 23  2  0  0  0  0
 25 26  1  0  0  0  0
 26 27  1  0  0  0  0
 27 28  1  0  0  0  0
M  END
>  <MODEL>
5

>  <REMARK>
 VINA RESULT:      -6.4      2.665      4.476
  Name = 
  6 active torsions:
  status: ('A' for Active; 'I' for Inactive)
    1  A    between atoms: C_1  and  C_5
    2  A    between atoms: C_4  and  C_11
    3  A    between atoms: C_9  and  C_27
    4  A    between atoms: C_11  and  N_28
    5  A    between atoms: C_13  and  N_28
    6  A    between atoms: S_20  and  N_25
                            x       y       z     vdW  Elec       q    Type
                         _______ _______ _______ _____ _____    ______ ____

>  <TORSDO>
F 6

$$$$
=
 OpenBabel11042414403D

 28 30  0  0  0  0  0  0  0  0999 V2000
  190.5480  174.3980  141.7040 C   0  0  0  0  0  0  0  0  0  0  0  0
  190.9750  175.9750  143.0760 C   0  0  0  0  0  0  0  0  0  0  0  0
  188.1390  173.7720  142.3980 C   0  0  0  0  0  1  0  0  0  0  0  0
  189.4130  174.5420  142.4930 C   0  0  0  0  0  0  0  0  0  0  0  0
  191.4600  175.2670  142.0810 O   0  0  0  0  0  0  0  0  0  0  0  0
  189.6840  175.5770  143.3730 C   0  0  0  0  0  0  0  0  0  0  0  0
  188.9420  175.5650  145.7330 C   0  0  0  0  0  3  0  0  0  0  0  0
  187.0430  177.5470  145.3040 C   0  0  0  0  0  0  0  0  0  0  0  0
  188.8020  176.0940  144.4440 C   0  0  0  0  0  0  0  0  0  0  0  0
  185.8680  179.0630  143.8160 C   0  0  0  0  0  3  0  0  0  0  0  0
  186.0680  178.5390  145.0960 C   0  0  0  0  0  0  0  0  0  0  0  0
  187.2240  177.0090  146.5410 N   0  0  0  0  0  0  0  0  0  0  0  0
  188.1440  176.0370  146.7730 C   0  0  0  0  0  3  0  0  0  0  0  0
  186.6300  178.6040  142.7390 C   0  0  0  0  0  3  0  0  0  0  0  0
  185.2260  179.0460  146.2180 C   0  0  0  0  0  1  0  0  0  0  0  0
  187.8300  177.0930  144.2170 C   0  0  0  0  0  0  0  0  0  0  0  0
  187.6030  177.6240  142.9380 C   0  0  0  0  0  3  0  0  0  0  0  0
  190.7580  173.4400  140.6060 C   0  0  0  0  0  0  0  0  0  0  0  0
  191.5540  172.4770  140.7720 O   0  0  0  0  0  0  0  0  0  0  0  0
  190.0690  173.5950  139.3640 N   0  0  0  0  0  2  0  0  0  0  0  0
  189.3370  173.0800  136.6510 C   0  0  0  0  0  1  0  0  0  0  0  0
  191.7300  172.4330  137.6620 O   0  0  0  0  0  0  0  0  0  0  0  0
  189.7890  171.1320  138.4310 O   0  0  0  0  0  0  0  0  0  0  0  0
  190.2790  172.4990  138.0410 S   0  0  0  0  0  0  0  0  0  0  0  0
  191.7070  176.9860  143.7660 N   0  0  0  0  0  2  0  0  0  0  0  0
  192.9600  176.6890  144.4340 C   0  0  0  0  0  2  0  0  0  0  0  0
  192.6850  176.3220  145.8770 C   0  0  0  0  0  2  0  0  0  0  0  0
  193.8270  176.6890  146.6940 N   0  0  0  0  0  1  0  0  0  0  0  0
  1  5  1  0  0  0  0
  1  4  2  0  0  0  0
  2  6  2  0  0  0  0
  2 25  1  0  0  0  0
  3  4  1  0  0  0  0
  4  6  1  0  0  0  0
  5  2  1  0  0  0  0
  6  9  1  0  0  0  0
  7 13  1  0  0  0  0
  8 12  1  0  0  0  0
  9  7  2  0  0  0  0
 10 11  2  0  0  0  0
 11  8  1  0  0  0  0
 11 15  1  0  0  0  0
 12 13  2  0  0  0  0
 14 17  2  0  0  0  0
 14 10  1  0  0  0  0
 16  9  1  0  0  0  0
 16  8  2  0  0  0  0
 17 16  1  0  0  0  0
 18 19  2  0  0  0  0
 18  1  1  0  0  0  0
 20 18  1  0  0  0  0
 21 24  1  0  0  0  0
 22 24  2  0  0  0  0
 24 23  2  0  0  0  0
 24 20  1  0  0  0  0
 25 26  1  0  0  0  0
 26 27  1  0  0  0  0
 27 28  1  0  0  0  0
M  END
>  <MODEL>
6

>  <REMARK>
 VINA RESULT:      -6.4      2.823      5.400
  Name = 
  6 active torsions:
  status: ('A' for Active; 'I' for Inactive)
    1  A    between atoms: C_1  and  C_5
    2  A    between atoms: C_4  and  C_11
    3  A    between atoms: C_9  and  C_27
    4  A    between atoms: C_11  and  N_28
    5  A    between atoms: C_13  and  N_28
    6  A    between atoms: S_20  and  N_25
                            x       y       z     vdW  Elec       q    Type
                         _______ _______ _______ _____ _____    ______ ____

>  <TORSDO>
F 6

$$$$
=
 OpenBabel11042414403D

 28 30  0  0  0  0  0  0  0  0999 V2000
  188.5010  176.0990  145.2770 C   0  0  0  0  0  0  0  0  0  0  0  0
  189.7900  175.5330  143.6740 C   0  0  0  0  0  0  0  0  0  0  0  0
  189.6110  174.8760  147.2640 C   0  0  0  0  0  1  0  0  0  0  0  0
  189.4720  175.2750  145.8330 C   0  0  0  0  0  0  0  0  0  0  0  0
  188.7200  176.2290  143.9870 O   0  0  0  0  0  0  0  0  0  0  0  0
  190.3190  174.9210  144.7960 C   0  0  0  0  0  0  0  0  0  0  0  0
  191.3290  172.6830  144.5030 C   0  0  0  0  0  3  0  0  0  0  0  0
  193.8450  173.5460  145.3060 C   0  0  0  0  0  0  0  0  0  0  0  0
  191.4940  174.0240  144.8680 C   0  0  0  0  0  0  0  0  0  0  0  0
  195.3160  175.2890  146.1370 C   0  0  0  0  0  3  0  0  0  0  0  0
  195.1190  173.9680  145.7250 C   0  0  0  0  0  0  0  0  0  0  0  0
  193.6370  172.2540  144.9310 N   0  0  0  0  0  0  0  0  0  0  0  0
  192.4150  171.8100  144.5390 C   0  0  0  0  0  3  0  0  0  0  0  0
  194.2520  176.1930  146.1380 C   0  0  0  0  0  3  0  0  0  0  0  0
  196.2780  173.0290  145.7500 C   0  0  0  0  0  1  0  0  0  0  0  0
  192.7680  174.4670  145.2880 C   0  0  0  0  0  0  0  0  0  0  0  0
  192.9860  175.7840  145.7190 C   0  0  0  0  0  3  0  0  0  0  0  0
  187.3780  176.7510  145.9690 C   0  0  0  0  0  0  0  0  0  0  0  0
  187.0240  176.3280  147.1020 O   0  0  0  0  0  0  0  0  0  0  0  0
  186.6930  177.8520  145.3680 N   0  0  0  0  0  2  0  0  0  0  0  0
  185.9410  179.4160  147.6370 C   0  0  0  0  0  1  0  0  0  0  0  0
  184.8150  179.7120  145.2270 O   0  0  0  0  0  0  0  0  0  0  0  0
  184.2930  177.6570  146.4730 O   0  0  0  0  0  0  0  0  0  0  0  0
  185.3670  178.6540  146.1390 S   0  0  0  0  0  0  0  0  0  0  0  0
  190.3000  175.4090  142.3480 N   0  0  0  0  0  2  0  0  0  0  0  0
  189.9960  174.2510  141.5270 C   0  0  0  0  0  2  0  0  0  0  0  0
  188.5260  174.2610  141.1690 C   0  0  0  0  0  2  0  0  0  0  0  0
  187.8270  173.2760  141.9730 N   0  0  0  0  0  1  0  0  0  0  0  0
  1  4  2  0  0  0  0
  1 18  1  0  0  0  0
  2  5  1  0  0  0  0
  2  6  2  0  0  0  0
  4  3  1  0  0  0  0
  5  1  1  0  0  0  0
  6  9  1  0  0  0  0
  6  4  1  0  0  0  0
  7 13  2  0  0  0  0
  7  9  1  0  0  0  0
  8 11  1  0  0  0  0
  9 16  2  0  0  0  0
 10 14  1  0  0  0  0
 11 15  1  0  0  0  0
 11 10  2  0  0  0  0
 12  8  2  0  0  0  0
 13 12  1  0  0  0  0
 16  8  1  0  0  0  0
 16 17  1  0  0  0  0
 17 14  2  0  0  0  0
 18 19  2  0  0  0  0
 20 18  1  0  0  0  0
 20 24  1  0  0  0  0
 22 24  2  0  0  0  0
 24 23  2  0  0  0  0
 24 21  1  0  0  0  0
 25  2  1  0  0  0  0
 26 25  1  0  0  0  0
 27 26  1  0  0  0  0
 27 28  1  0  0  0  0
M  END
>  <MODEL>
7

>  <REMARK>
 VINA RESULT:      -6.3      3.824      7.634
  Name = 
  6 active torsions:
  status: ('A' for Active; 'I' for Inactive)
    1  A    between atoms: C_1  and  C_5
    2  A    between atoms: C_4  and  C_11
    3  A    between atoms: C_9  and  C_27
    4  A    between atoms: C_11  and  N_28
    5  A    between atoms: C_13  and  N_28
    6  A    between atoms: S_20  and  N_25
                            x       y       z     vdW  Elec       q    Type
                         _______ _______ _______ _____ _____    ______ ____

>  <TORSDO>
F 6

$$$$
=
 OpenBabel11042414403D

 28 30  0  0  0  0  0  0  0  0999 V2000
  189.1440  176.4820  145.3750 C   0  0  0  0  0  0  0  0  0  0  0  0
  190.5230  176.0340  143.8110 C   0  0  0  0  0  0  0  0  0  0  0  0
  190.7390  176.7100  147.3950 C   0  0  0  0  0  1  0  0  0  0  0  0
  190.4020  176.4560  145.9640 C   0  0  0  0  0  0  0  0  0  0  0  0
  189.2530  176.2240  144.0900 O   0  0  0  0  0  0  0  0  0  0  0  0
  191.2990  176.1810  144.9460 C   0  0  0  0  0  0  0  0  0  0  0  0
  193.5660  177.1620  145.0710 C   0  0  0  0  0  3  0  0  0  0  0  0
  194.7910  174.6790  145.3090 C   0  0  0  0  0  0  0  0  0  0  0  0
  192.7660  176.0140  145.0660 C   0  0  0  0  0  0  0  0  0  0  0  0
  194.6630  172.2560  145.3740 C   0  0  0  0  0  3  0  0  0  0  0  0
  195.4240  173.4280  145.4160 C   0  0  0  0  0  0  0  0  0  0  0  0
  195.5270  175.8250  145.3190 N   0  0  0  0  0  0  0  0  0  0  0  0
  194.9490  177.0480  145.2000 C   0  0  0  0  0  3  0  0  0  0  0  0
  193.2760  172.3210  145.2240 C   0  0  0  0  0  3  0  0  0  0  0  0
  196.9040  173.3170  145.5650 C   0  0  0  0  0  1  0  0  0  0  0  0
  193.3820  174.7480  145.1760 C   0  0  0  0  0  0  0  0  0  0  0  0
  192.6400  173.5580  145.1220 C   0  0  0  0  0  3  0  0  0  0  0  0
  187.8540  176.7490  146.0330 C   0  0  0  0  0  0  0  0  0  0  0  0
  187.5550  176.1170  147.0810 O   0  0  0  0  0  0  0  0  0  0  0  0
  186.9480  177.7140  145.4940 N   0  0  0  0  0  2  0  0  0  0  0  0
  184.4530  179.0510  145.1090 C   0  0  0  0  0  1  0  0  0  0  0  0
  184.6890  176.7860  146.5160 O   0  0  0  0  0  0  0  0  0  0  0  0
  185.6320  178.8320  147.5020 O   0  0  0  0  0  0  0  0  0  0  0  0
  185.4200  178.0650  146.2260 S   0  0  0  0  0  0  0  0  0  0  0  0
  191.0100  175.6880  142.5150 N   0  0  0  0  0  2  0  0  0  0  0  0
  190.9360  174.3260  142.0190 C   0  0  0  0  0  2  0  0  0  0  0  0
  189.7020  174.1720  141.1570 C   0  0  0  0  0  2  0  0  0  0  0  0
  188.8620  173.1200  141.7000 N   0  0  0  0  0  1  0  0  0  0  0  0
  1  4  2  0  0  0  0
  1 18  1  0  0  0  0
  2  5  1  0  0  0  0
  2  6  2  0  0  0  0
  4  3  1  0  0  0  0
  5  1  1  0  0  0  0
  6  9  1  0  0  0  0
  6  4  1  0  0  0  0
  7 13  1  0  0  0  0
  8 12  1  0  0  0  0
  8 11  1  0  0  0  0
  9  7  2  0  0  0  0
  9 16  1  0  0  0  0
 10 11  2  0  0  0  0
 11 15  1  0  0  0  0
 13 12  2  0  0  0  0
 14 10  1  0  0  0  0
 16  8  2  0  0  0  0
 17 16  1  0  0  0  0
 17 14  2  0  0  0  0
 18 19  2  0  0  0  0
 20 18  1  0  0  0  0
 20 24  1  0  0  0  0
 21 24  1  0  0  0  0
 24 22  2  0  0  0  0
 24 23  2  0  0  0  0
 25  2  1  0  0  0  0
 26 25  1  0  0  0  0
 27 28  1  0  0  0  0
 27 26  1  0  0  0  0
M  END
>  <MODEL>
8

>  <REMARK>
 VINA RESULT:      -6.2      3.701      7.680
  Name = 
  6 active torsions:
  status: ('A' for Active; 'I' for Inactive)
    1  A    between atoms: C_1  and  C_5
    2  A    between atoms: C_4  and  C_11
    3  A    between atoms: C_9  and  C_27
    4  A    between atoms: C_11  and  N_28
    5  A    between atoms: C_13  and  N_28
    6  A    between atoms: S_20  and  N_25
                            x       y       z     vdW  Elec       q    Type
                         _______ _______ _______ _____ _____    ______ ____

>  <TORSDO>
F 6

$$$$
=
 OpenBabel11042414403D

 28 30  0  0  0  0  0  0  0  0999 V2000
  188.7240  176.3630  144.5310 C   0  0  0  0  0  0  0  0  0  0  0  0
  189.9940  174.6490  144.5500 C   0  0  0  0  0  0  0  0  0  0  0  0
  190.0150  177.9220  142.9260 C   0  0  0  0  0  1  0  0  0  0  0  0
  189.7950  176.6660  143.6990 C   0  0  0  0  0  0  0  0  0  0  0  0
  188.8760  175.1530  145.0230 O   0  0  0  0  0  0  0  0  0  0  0  0
  190.6120  175.5470  143.6990 C   0  0  0  0  0  0  0  0  0  0  0  0
  191.8990  174.7460  141.7450 C   0  0  0  0  0  3  0  0  0  0  0  0
  194.3140  175.6590  142.7710 C   0  0  0  0  0  0  0  0  0  0  0  0
  191.9020  175.3820  142.9910 C   0  0  0  0  0  0  0  0  0  0  0  0
  195.5960  176.7050  144.5460 C   0  0  0  0  0  3  0  0  0  0  0  0
  195.5450  176.1030  143.2860 C   0  0  0  0  0  0  0  0  0  0  0  0
  194.2590  175.0440  141.5570 N   0  0  0  0  0  0  0  0  0  0  0  0
  193.0890  174.5870  141.0380 C   0  0  0  0  0  3  0  0  0  0  0  0
  194.4310  176.8670  145.2990 C   0  0  0  0  0  3  0  0  0  0  0  0
  196.8120  175.9370  142.5180 C   0  0  0  0  0  1  0  0  0  0  0  0
  193.1280  175.8380  143.5240 C   0  0  0  0  0  0  0  0  0  0  0  0
  193.2050  176.4330  144.7930 C   0  0  0  0  0  3  0  0  0  0  0  0
  187.5710  177.2190  144.8520 C   0  0  0  0  0  0  0  0  0  0  0  0
  187.5220  177.7930  145.9720 O   0  0  0  0  0  0  0  0  0  0  0  0
  186.5150  177.4030  143.9060 N   0  0  0  0  0  2  0  0  0  0  0  0
  184.0080  178.2930  142.8650 C   0  0  0  0  0  1  0  0  0  0  0  0
  184.4500  177.9230  145.4790 O   0  0  0  0  0  0  0  0  0  0  0  0
  185.5720  179.8280  144.4020 O   0  0  0  0  0  0  0  0  0  0  0  0
  185.1380  178.3990  144.2320 S   0  0  0  0  0  0  0  0  0  0  0  0
  190.5020  173.3650  144.9070 N   0  0  0  0  0  2  0  0  0  0  0  0
  189.7030  172.1650  144.7430 C   0  0  0  0  0  2  0  0  0  0  0  0
  189.2470  172.0570  143.3040 C   0  0  0  0  0  2  0  0  0  0  0  0
  190.2240  171.3000  142.5430 N   0  0  0  0  0  1  0  0  0  0  0  0
  1 18  1  0  0  0  0
  1  5  1  0  0  0  0
  2 25  1  0  0  0  0
  2  5  1  0  0  0  0
  3  4  1  0  0  0  0
  4  6  1  0  0  0  0
  4  1  2  0  0  0  0
  6  2  2  0  0  0  0
  7  9  1  0  0  0  0
  8 11  1  0  0  0  0
  8 16  1  0  0  0  0
  9 16  2  0  0  0  0
  9  6  1  0  0  0  0
 10 14  1  0  0  0  0
 11 10  2  0  0  0  0
 12  8  2  0  0  0  0
 13 12  1  0  0  0  0
 13  7  2  0  0  0  0
 15 11  1  0  0  0  0
 16 17  1  0  0  0  0
 17 14  2  0  0  0  0
 18 19  2  0  0  0  0
 20 24  1  0  0  0  0
 20 18  1  0  0  0  0
 21 24  1  0  0  0  0
 24 23  2  0  0  0  0
 24 22  2  0  0  0  0
 26 25  1  0  0  0  0
 27 26  1  0  0  0  0
 28 27  1  0  0  0  0
M  END
>  <MODEL>
9

>  <REMARK>
 VINA RESULT:      -6.1      3.703      7.486
  Name = 
  6 active torsions:
  status: ('A' for Active; 'I' for Inactive)
    1  A    between atoms: C_1  and  C_5
    2  A    between atoms: C_4  and  C_11
    3  A    between atoms: C_9  and  C_27
    4  A    between atoms: C_11  and  N_28
    5  A    between atoms: C_13  and  N_28
    6  A    between atoms: S_20  and  N_25
                            x       y       z     vdW  Elec       q    Type
                         _______ _______ _______ _____ _____    ______ ____

>  <TORSDO>
F 6

$$$$
