=
 OpenBabel11042413413D

 42 45  0  0  1  0  0  0  0  0999 V2000
  184.9290  179.0720  143.7400 C   0  0  0  0  0  0  0  0  0  0  0  0
  186.0700  179.0120  144.5570 C   0  0  0  0  0  0  0  0  0  0  0  0
  184.2610  178.9450  145.7920 C   0  0  0  0  0  3  0  0  0  0  0  0
  185.2750  178.4940  142.4600 C   0  0  0  0  0  0  0  0  0  0  0  0
  185.5970  178.9470  145.9260 C   0  0  0  0  0  3  0  0  0  0  0  0
  186.5580  178.1150  142.5430 C   0  0  0  0  0  0  0  0  0  0  0  0
  187.0690  178.4160  143.9210 C   0  0  0  0  0  0  0  0  0  0  0  0
  183.8410  178.9410  144.4140 N   0  0  0  0  0  0  0  0  0  0  0  0
  184.3800  178.2430  141.3640 C   0  0  0  0  0  0  0  0  0  0  0  0
  183.6610  178.0410  140.4810 N   0  0  0  0  0  0  0  0  0  0  0  0
  187.2170  177.4110  141.4850 N   0  0  0  0  0  2  0  0  0  0  0  0
  187.4520  174.6500  142.0460 C   0  0  0  0  0  1  0  0  0  0  0  0
  188.4760  176.8200  141.6270 N   0  0  0  0  0  0  0  0  0  0  0  0
  188.6250  175.5600  141.8940 C   0  0  0  0  0  0  0  0  0  0  0  0
  189.9980  174.9970  142.0180 C   0  0  0  0  0  2  0  0  0  0  0  0
  189.9270  173.5090  142.3390 C   0  0  0  0  0  2  0  0  0  0  0  0
  190.7140  172.6450  141.3550 C   0  0  2  0  0  3  0  0  0  0  0  0
  191.9260  172.0850  141.9610 N   0  0  0  0  0  2  0  0  0  0  0  0
  192.8330  173.0770  142.1310 O   0  0  0  0  0  1  0  0  0  0  0  0
  190.9730  173.3390  140.0170 C   0  0  0  0  0  2  0  0  0  0  0  0
  190.2130  171.1760  139.0700 C   0  0  0  0  0  1  0  0  0  0  0  0
  190.1820  172.6800  138.8960 C   0  0  1  0  0  3  0  0  0  0  0  0
  187.8600  172.4450  139.3740 O   0  0  0  0  0  1  0  0  0  0  0  0
  188.7680  173.1620  138.8810 C   0  0  0  0  0  0  0  0  0  0  0  0
  188.4490  174.3990  138.3330 O   0  0  0  0  0  0  0  0  0  0  0  0
  188.1320  177.7660  144.6270 N   0  0  0  0  0  2  0  0  0  0  0  0
  187.9550  176.7490  145.6520 C   0  0  2  0  0  3  0  0  0  0  0  0
  190.3250  175.9430  145.7640 C   0  0  2  0  0  3  0  0  0  0  0  0
  189.7260  177.5380  147.2430 C   0  0  0  0  0  2  0  0  0  0  0  0
  188.2200  177.3510  147.0340 C   0  0  0  0  0  2  0  0  0  0  0  0
  190.3840  176.3010  147.1250 O   0  0  0  0  0  0  0  0  0  0  0  0
  188.8910  175.5620  145.3950 C   0  0  0  0  0  2  0  0  0  0  0  0
  191.2030  174.8150  145.5130 N   0  0  0  0  0  2  0  0  0  0  0  0
  192.3540  174.9660  146.3860 C   0  0  0  0  0  2  0  0  0  0  0  0
  193.6270  174.7710  145.5820 C   0  0  2  0  0  3  0  0  0  0  0  0
  193.3590  177.2240  145.2120 F   0  0  0  0  0  0  0  0  0  0  0  0
  194.7680  175.5360  146.2380 C   0  0  0  0  0  2  0  0  0  0  0  0
  194.1140  176.0820  144.9920 C   0  0  1  0  0  0  0  0  0  0  0  0
  194.9820  175.9770  143.7420 C   0  0  2  0  0  3  0  0  0  0  0  0
  195.3480  174.6490  143.4940 O   0  0  0  0  0  1  0  0  0  0  0  0
  197.1630  176.4240  142.8400 C   0  0  0  0  0  1  0  0  0  0  0  0
  196.1580  176.8460  143.8090 N   0  0  0  0  0  2  0  0  0  0  0  0
  1  8  1  0  0  0  0
  1  2  1  0  0  0  0
  2  5  2  0  0  0  0
  3  5  1  0  0  0  0
  4  6  1  0  0  0  0
  4  1  2  0  0  0  0
  6  7  2  0  0  0  0
  7  2  1  0  0  0  0
  7 26  1  0  0  0  0
  8  3  2  0  0  0  0
  9  4  1  0  0  0  0
 10  9  3  0  0  0  0
 11 13  1  0  0  0  0
 11  6  1  0  0  0  0
 13 14  2  0  0  0  0
 14 15  1  0  0  0  0
 14 12  1  0  0  0  0
 15 16  1  0  0  0  0
 17 20  1  6  0  0  0
 17 18  1  0  0  0  0
 17 16  1  0  0  0  0
 18 19  1  0  0  0  0
 22 21  1  1  0  0  0
 22 20  1  0  0  0  0
 24 22  1  0  0  0  0
 24 23  1  0  0  0  0
 25 24  2  0  0  0  0
 27 26  1  6  0  0  0
 27 30  1  0  0  0  0
 28 33  1  1  0  0  0
 28 31  1  0  0  0  0
 30 29  1  0  0  0  0
 31 29  1  0  0  0  0
 32 27  1  0  0  0  0
 32 28  1  0  0  0  0
 33 34  1  0  0  0  0
 35 37  1  0  0  0  0
 35 34  1  1  0  0  0
 38 36  1  1  0  0  0
 38 35  1  0  0  0  0
 38 37  1  0  0  0  0
 39 40  1  1  0  0  0
 39 42  1  0  0  0  0
 39 38  1  0  0  0  0
 41 42  1  0  0  0  0
M  END
>  <MODEL>
1

>  <REMARK>
 VINA RESULT:      -6.7      0.000      0.000
  Name = 
  17 active torsions:
  status: ('A' for Active; 'I' for Inactive)
    1  A    between atoms: C_1  and  C_39
    2  A    between atoms: N_2  and  C_16
    3  A    between atoms: C_7  and  N_11
    4  A    between atoms: C_7  and  C_42
    5  A    between atoms: C_8  and  C_15
    6  A    between atoms: N_9  and  C_13
    7  A    between atoms: N_9  and  C_29
    8  A    between atoms: C_12  and  C_30
    9  A    between atoms: C_12  and  C_36
   10  A    between atoms: C_16  and  C_17
   11  A    between atoms: C_16  and  C_36
   12  A    between atoms: C_17  and  C_41
   13  A    between atoms: N_18  and  C_28
   14  A    between atoms: N_18  and  N_31
   15  A    between atoms: C_20  and  N_37
   16  A    between atoms: C_35  and  C_41
   17  A    between atoms: N_37  and  C_39
                            x       y       z     vdW  Elec       q    Type
                         _______ _______ _______ _____ _____    ______ ____

>  <TORSDO>
F 17

$$$$
=
 OpenBabel11042413413D

 42 45  0  0  1  0  0  0  0  0999 V2000
  189.8900  172.8360  140.9140 C   0  0  0  0  0  0  0  0  0  0  0  0
  189.6770  174.1200  141.4410 C   0  0  0  0  0  0  0  0  0  0  0  0
  188.1330  173.6560  139.9570 C   0  0  0  0  0  3  0  0  0  0  0  0
  190.5540  172.0490  141.9300 C   0  0  0  0  0  0  0  0  0  0  0  0
  188.5080  174.6550  140.7720 C   0  0  0  0  0  3  0  0  0  0  0  0
  190.7100  172.8470  142.9950 C   0  0  0  0  0  0  0  0  0  0  0  0
  190.1060  174.1870  142.6950 C   0  0  0  0  0  0  0  0  0  0  0  0
  188.9540  172.4810  140.1060 N   0  0  0  0  0  0  0  0  0  0  0  0
  190.8570  170.6450  141.8630 C   0  0  0  0  0  0  0  0  0  0  0  0
  191.1020  169.5160  141.8100 N   0  0  0  0  0  0  0  0  0  0  0  0
  191.2510  172.3730  144.2330 N   0  0  0  0  0  2  0  0  0  0  0  0
  193.6580  170.8920  144.1540 C   0  0  0  0  0  1  0  0  0  0  0  0
  192.4200  172.8860  144.8030 N   0  0  0  0  0  0  0  0  0  0  0  0
  193.5400  172.2340  144.7950 C   0  0  0  0  0  0  0  0  0  0  0  0
  194.7490  172.8510  145.4100 C   0  0  0  0  0  2  0  0  0  0  0  0
  194.4320  174.2660  145.8790 C   0  0  0  0  0  2  0  0  0  0  0  0
  195.4530  175.2980  145.4000 C   0  0  2  0  0  3  0  0  0  0  0  0
  194.9060  176.6580  145.4060 N   0  0  0  0  0  2  0  0  0  0  0  0
  194.4520  176.9460  146.6490 O   0  0  0  0  0  1  0  0  0  0  0  0
  196.1170  174.9190  144.0760 C   0  0  0  0  0  2  0  0  0  0  0  0
  196.6440  176.5710  142.3030 C   0  0  0  0  0  1  0  0  0  0  0  0
  195.5460  175.7320  142.9240 C   0  0  1  0  0  3  0  0  0  0  0  0
  195.6540  174.3900  140.9580 O   0  0  0  0  0  0  0  0  0  0  0  0
  194.9390  174.8430  141.8880 C   0  0  0  0  0  0  0  0  0  0  0  0
  193.5910  174.5070  141.9490 O   0  0  0  0  0  1  0  0  0  0  0  0
  189.5790  175.1420  143.6220 N   0  0  0  0  0  2  0  0  0  0  0  0
  190.1430  176.4580  143.8780 C   0  0  2  0  0  3  0  0  0  0  0  0
  189.1770  176.8210  146.1610 C   0  0  2  0  0  3  0  0  0  0  0  0
  191.2560  175.9470  146.0670 C   0  0  0  0  0  2  0  0  0  0  0  0
  191.4860  176.3180  144.5980 C   0  0  0  0  0  2  0  0  0  0  0  0
  190.4760  176.9350  146.6930 O   0  0  0  0  0  0  0  0  0  0  0  0
  189.1730  177.3050  144.7100 C   0  0  0  0  0  2  0  0  0  0  0  0
  188.2530  177.6250  146.9390 N   0  0  0  0  0  2  0  0  0  0  0  0
  186.9170  177.1180  146.6750 C   0  0  0  0  0  2  0  0  0  0  0  0
  186.0850  178.2060  146.0220 C   0  0  2  0  0  3  0  0  0  0  0  0
  185.7620  176.4380  144.2910 F   0  0  0  0  0  0  0  0  0  0  0  0
  184.6260  177.7710  145.9700 C   0  0  0  0  0  2  0  0  0  0  0  0
  185.4710  177.7240  144.7200 C   0  0  1  0  0  0  0  0  0  0  0  0
  185.1230  178.8020  143.6990 C   0  0  2  0  0  3  0  0  0  0  0  0
  185.4580  180.0740  144.1770 O   0  0  0  0  0  1  0  0  0  0  0  0
  183.6000  178.1640  141.9540 C   0  0  0  0  0  1  0  0  0  0  0  0
  183.7200  178.7440  143.2870 N   0  0  0  0  0  2  0  0  0  0  0  0
  1  2  1  0  0  0  0
  1  4  2  0  0  0  0
  2  7  1  0  0  0  0
  3  8  2  0  0  0  0
  3  5  1  0  0  0  0
  4  6  1  0  0  0  0
  5  2  2  0  0  0  0
  6 11  1  0  0  0  0
  7  6  2  0  0  0  0
  7 26  1  0  0  0  0
  8  1  1  0  0  0  0
  9  4  1  0  0  0  0
 10  9  3  0  0  0  0
 11 13  1  0  0  0  0
 12 14  1  0  0  0  0
 14 13  2  0  0  0  0
 14 15  1  0  0  0  0
 15 16  1  0  0  0  0
 17 20  1  6  0  0  0
 17 18  1  0  0  0  0
 17 16  1  0  0  0  0
 18 19  1  0  0  0  0
 22 21  1  6  0  0  0
 22 20  1  0  0  0  0
 23 24  2  0  0  0  0
 24 25  1  0  0  0  0
 24 22  1  0  0  0  0
 27 26  1  1  0  0  0
 27 30  1  0  0  0  0
 27 32  1  0  0  0  0
 28 31  1  0  0  0  0
 28 33  1  1  0  0  0
 29 31  1  0  0  0  0
 30 29  1  0  0  0  0
 32 28  1  0  0  0  0
 34 33  1  0  0  0  0
 35 34  1  1  0  0  0
 37 35  1  0  0  0  0
 38 36  1  6  0  0  0
 38 37  1  0  0  0  0
 38 35  1  0  0  0  0
 39 40  1  1  0  0  0
 39 38  1  0  0  0  0
 41 42  1  0  0  0  0
 42 39  1  0  0  0  0
M  END
>  <MODEL>
2

>  <REMARK>
 VINA RESULT:      -6.5      2.482      7.603
  Name = 
  17 active torsions:
  status: ('A' for Active; 'I' for Inactive)
    1  A    between atoms: C_1  and  C_39
    2  A    between atoms: N_2  and  C_16
    3  A    between atoms: C_7  and  N_11
    4  A    between atoms: C_7  and  C_42
    5  A    between atoms: C_8  and  C_15
    6  A    between atoms: N_9  and  C_13
    7  A    between atoms: N_9  and  C_29
    8  A    between atoms: C_12  and  C_30
    9  A    between atoms: C_12  and  C_36
   10  A    between atoms: C_16  and  C_17
   11  A    between atoms: C_16  and  C_36
   12  A    between atoms: C_17  and  C_41
   13  A    between atoms: N_18  and  C_28
   14  A    between atoms: N_18  and  N_31
   15  A    between atoms: C_20  and  N_37
   16  A    between atoms: C_35  and  C_41
   17  A    between atoms: N_37  and  C_39
                            x       y       z     vdW  Elec       q    Type
                         _______ _______ _______ _____ _____    ______ ____

>  <TORSDO>
F 17

$$$$
=
 OpenBabel11042413413D

 42 45  0  0  1  0  0  0  0  0999 V2000
  185.2470  178.6320  145.2650 C   0  0  0  0  0  0  0  0  0  0  0  0
  186.4050  178.5280  146.0520 C   0  0  0  0  0  0  0  0  0  0  0  0
  184.6560  177.8920  147.2080 C   0  0  0  0  0  3  0  0  0  0  0  0
  185.6380  178.4530  143.8840 C   0  0  0  0  0  0  0  0  0  0  0  0
  185.9810  178.0490  147.3530 C   0  0  0  0  0  3  0  0  0  0  0  0
  186.9630  178.2520  143.8810 C   0  0  0  0  0  0  0  0  0  0  0  0
  187.4610  178.2610  145.2960 C   0  0  0  0  0  0  0  0  0  0  0  0
  184.2050  178.1790  145.8710 N   0  0  0  0  0  0  0  0  0  0  0  0
  184.7590  178.3660  142.7500 C   0  0  0  0  0  0  0  0  0  0  0  0
  184.0520  178.2930  141.8370 N   0  0  0  0  0  0  0  0  0  0  0  0
  187.6870  177.9430  142.6860 N   0  0  0  0  0  2  0  0  0  0  0  0
  187.0650  176.9020  140.1320 C   0  0  0  0  0  1  0  0  0  0  0  0
  188.0670  176.6440  142.3360 N   0  0  0  0  0  0  0  0  0  0  0  0
  187.7920  176.1270  141.1800 C   0  0  0  0  0  0  0  0  0  0  0  0
  188.2420  174.7410  140.8730 C   0  0  0  0  0  2  0  0  0  0  0  0
  189.3300  174.3160  141.8530 C   0  0  0  0  0  2  0  0  0  0  0  0
  190.2160  173.1940  141.3130 C   0  0  2  0  0  3  0  0  0  0  0  0
  190.2590  173.1820  139.8480 N   0  0  0  0  0  2  0  0  0  0  0  0
  191.4710  173.6280  139.4380 O   0  0  0  0  0  1  0  0  0  0  0  0
  189.8960  171.8280  141.9200 C   0  0  0  0  0  2  0  0  0  0  0  0
  192.3290  171.7470  142.3910 C   0  0  0  0  0  1  0  0  0  0  0  0
  190.9540  171.4150  142.9320 C   0  0  1  0  0  3  0  0  0  0  0  0
  191.6770  172.7750  144.7500 O   0  0  0  0  0  0  0  0  0  0  0  0
  190.7430  172.1030  144.2410 C   0  0  0  0  0  0  0  0  0  0  0  0
  189.5210  172.0110  144.8980 O   0  0  0  0  0  1  0  0  0  0  0  0
  188.6220  177.6110  145.8250 N   0  0  0  0  0  2  0  0  0  0  0  0
  189.2790  176.4580  145.2280 C   0  0  2  0  0  3  0  0  0  0  0  0
  191.2290  176.3110  146.7940 C   0  0  2  0  0  3  0  0  0  0  0  0
  189.4350  175.0340  147.2870 C   0  0  0  0  0  2  0  0  0  0  0  0
  188.7920  175.1740  145.9030 C   0  0  0  0  0  2  0  0  0  0  0  0
  190.8360  175.0110  147.1640 O   0  0  0  0  0  0  0  0  0  0  0  0
  190.8020  176.5860  145.3520 C   0  0  0  0  0  2  0  0  0  0  0  0
  192.6710  176.4390  146.9020 N   0  0  0  0  0  2  0  0  0  0  0  0
  193.2540  175.5830  145.8830 C   0  0  0  0  0  2  0  0  0  0  0  0
  194.7650  175.7250  145.9090 C   0  0  2  0  0  3  0  0  0  0  0  0
  194.6030  174.1070  144.0170 F   0  0  0  0  0  0  0  0  0  0  0  0
  195.2400  176.3710  144.6140 C   0  0  0  0  0  2  0  0  0  0  0  0
  195.4170  174.8860  144.8250 C   0  0  1  0  0  0  0  0  0  0  0  0
  196.8610  174.4660  145.0750 C   0  0  2  0  0  3  0  0  0  0  0  0
  197.4110  173.8550  143.9420 O   0  0  0  0  0  1  0  0  0  0  0  0
  196.5360  172.2560  145.9600 C   0  0  0  0  0  1  0  0  0  0  0  0
  196.9930  173.6090  146.2550 N   0  0  0  0  0  2  0  0  0  0  0  0
  1  8  1  0  0  0  0
  1  2  1  0  0  0  0
  2  5  2  0  0  0  0
  3  5  1  0  0  0  0
  4  1  2  0  0  0  0
  6  4  1  0  0  0  0
  6  7  2  0  0  0  0
  7 26  1  0  0  0  0
  7  2  1  0  0  0  0
  8  3  2  0  0  0  0
  9  4  1  0  0  0  0
 10  9  3  0  0  0  0
 11  6  1  0  0  0  0
 12 14  1  0  0  0  0
 13 11  1  0  0  0  0
 14 13  2  0  0  0  0
 15 14  1  0  0  0  0
 15 16  1  0  0  0  0
 17 16  1  6  0  0  0
 17 20  1  0  0  0  0
 18 17  1  0  0  0  0
 19 18  1  0  0  0  0
 20 22  1  0  0  0  0
 22 21  1  6  0  0  0
 22 24  1  0  0  0  0
 24 23  2  0  0  0  0
 24 25  1  0  0  0  0
 27 32  1  0  0  0  0
 27 26  1  1  0  0  0
 27 30  1  0  0  0  0
 28 33  1  6  0  0  0
 28 31  1  0  0  0  0
 30 29  1  0  0  0  0
 31 29  1  0  0  0  0
 32 28  1  0  0  0  0
 34 33  1  0  0  0  0
 35 34  1  6  0  0  0
 37 38  1  0  0  0  0
 37 35  1  0  0  0  0
 38 36  1  6  0  0  0
 38 39  1  0  0  0  0
 38 35  1  0  0  0  0
 39 40  1  6  0  0  0
 39 42  1  0  0  0  0
 41 42  1  0  0  0  0
M  END
>  <MODEL>
3

>  <REMARK>
 VINA RESULT:      -6.4      2.024      2.856
  Name = 
  17 active torsions:
  status: ('A' for Active; 'I' for Inactive)
    1  A    between atoms: C_1  and  C_39
    2  A    between atoms: N_2  and  C_16
    3  A    between atoms: C_7  and  N_11
    4  A    between atoms: C_7  and  C_42
    5  A    between atoms: C_8  and  C_15
    6  A    between atoms: N_9  and  C_13
    7  A    between atoms: N_9  and  C_29
    8  A    between atoms: C_12  and  C_30
    9  A    between atoms: C_12  and  C_36
   10  A    between atoms: C_16  and  C_17
   11  A    between atoms: C_16  and  C_36
   12  A    between atoms: C_17  and  C_41
   13  A    between atoms: N_18  and  C_28
   14  A    between atoms: N_18  and  N_31
   15  A    between atoms: C_20  and  N_37
   16  A    between atoms: C_35  and  C_41
   17  A    between atoms: N_37  and  C_39
                            x       y       z     vdW  Elec       q    Type
                         _______ _______ _______ _____ _____    ______ ____

>  <TORSDO>
F 17

$$$$
=
 OpenBabel11042413413D

 42 45  0  0  1  0  0  0  0  0999 V2000
  195.0750  174.3870  144.7530 C   0  0  0  0  0  0  0  0  0  0  0  0
  194.1450  175.0100  145.6000 C   0  0  0  0  0  0  0  0  0  0  0  0
  195.3930  176.5220  144.6220 C   0  0  0  0  0  3  0  0  0  0  0  0
  194.4930  173.1430  144.3010 C   0  0  0  0  0  0  0  0  0  0  0  0
  194.3900  176.4360  145.5110 C   0  0  0  0  0  3  0  0  0  0  0  0
  193.2800  173.0580  144.8640 C   0  0  0  0  0  0  0  0  0  0  0  0
  193.0330  174.2920  145.6810 C   0  0  0  0  0  0  0  0  0  0  0  0
  195.7690  175.2400  144.0830 N   0  0  0  0  0  0  0  0  0  0  0  0
  195.0470  172.2420  143.3270 C   0  0  0  0  0  0  0  0  0  0  0  0
  195.4940  171.5190  142.5430 N   0  0  0  0  0  0  0  0  0  0  0  0
  192.3710  171.9940  144.5650 N   0  0  0  0  0  2  0  0  0  0  0  0
  189.6140  171.9070  143.9420 C   0  0  0  0  0  1  0  0  0  0  0  0
  191.9440  171.6940  143.2680 N   0  0  0  0  0  0  0  0  0  0  0  0
  190.6900  171.6350  142.9450 C   0  0  0  0  0  0  0  0  0  0  0  0
  190.3110  171.3240  141.5390 C   0  0  0  0  0  2  0  0  0  0  0  0
  190.7100  172.4750  140.6230 C   0  0  0  0  0  2  0  0  0  0  0  0
  189.5230  173.3360  140.1920 C   0  0  2  0  0  3  0  0  0  0  0  0
  189.4700  173.5130  138.7380 N   0  0  0  0  0  2  0  0  0  0  0  0
  190.0820  172.4600  138.1420 O   0  0  0  0  0  1  0  0  0  0  0  0
  189.4210  174.6510  140.9650 C   0  0  0  0  0  2  0  0  0  0  0  0
  187.5470  174.5390  142.5850 C   0  0  0  0  0  1  0  0  0  0  0  0
  187.9680  175.0280  141.2150 C   0  0  1  0  0  3  0  0  0  0  0  0
  186.9660  176.9770  140.2790 O   0  0  0  0  0  0  0  0  0  0  0  0
  187.7740  176.5060  141.1210 C   0  0  0  0  0  0  0  0  0  0  0  0
  188.4730  177.3660  141.9610 O   0  0  0  0  0  1  0  0  0  0  0  0
  191.7750  174.8850  146.0210 N   0  0  0  0  0  2  0  0  0  0  0  0
  190.6580  175.0610  145.1050 C   0  0  2  0  0  3  0  0  0  0  0  0
  189.5510  176.9880  146.2610 C   0  0  2  0  0  3  0  0  0  0  0  0
  190.9930  177.4940  144.6000 C   0  0  0  0  0  2  0  0  0  0  0  0
  191.0280  176.0760  144.0210 C   0  0  0  0  0  2  0  0  0  0  0  0
  189.7100  177.7750  145.1030 O   0  0  0  0  0  0  0  0  0  0  0  0
  189.4080  175.5180  145.8660 C   0  0  0  0  0  2  0  0  0  0  0  0
  188.3660  177.4100  146.9840 N   0  0  0  0  0  2  0  0  0  0  0  0
  187.2160  176.9040  146.2540 C   0  0  0  0  0  2  0  0  0  0  0  0
  186.3760  178.0680  145.7640 C   0  0  2  0  0  3  0  0  0  0  0  0
  185.7570  176.4270  143.9900 F   0  0  0  0  0  0  0  0  0  0  0  0
  184.8990  177.7090  145.8630 C   0  0  0  0  0  2  0  0  0  0  0  0
  185.5890  177.6970  144.5200 C   0  0  1  0  0  0  0  0  0  0  0  0
  185.1860  178.8510  143.6080 C   0  0  2  0  0  3  0  0  0  0  0  0
  185.4930  180.0850  144.1930 O   0  0  0  0  0  1  0  0  0  0  0  0
  183.6290  178.1250  141.9290 C   0  0  0  0  0  1  0  0  0  0  0  0
  183.7760  178.7860  143.2210 N   0  0  0  0  0  2  0  0  0  0  0  0
  1  2  1  0  0  0  0
  2  7  1  0  0  0  0
  3  5  1  0  0  0  0
  4  1  2  0  0  0  0
  4  6  1  0  0  0  0
  5  2  2  0  0  0  0
  6  7  2  0  0  0  0
  7 26  1  0  0  0  0
  8  3  2  0  0  0  0
  8  1  1  0  0  0  0
  9  4  1  0  0  0  0
 10  9  3  0  0  0  0
 11  6  1  0  0  0  0
 13 11  1  0  0  0  0
 14 13  2  0  0  0  0
 14 12  1  0  0  0  0
 15 14  1  0  0  0  0
 16 15  1  0  0  0  0
 17 16  1  6  0  0  0
 17 20  1  0  0  0  0
 18 17  1  0  0  0  0
 19 18  1  0  0  0  0
 20 22  1  0  0  0  0
 22 21  1  1  0  0  0
 23 24  2  0  0  0  0
 24 22  1  0  0  0  0
 24 25  1  0  0  0  0
 27 32  1  0  0  0  0
 27 26  1  1  0  0  0
 28 33  1  6  0  0  0
 29 31  1  0  0  0  0
 30 29  1  0  0  0  0
 30 27  1  0  0  0  0
 31 28  1  0  0  0  0
 32 28  1  0  0  0  0
 34 33  1  0  0  0  0
 35 37  1  0  0  0  0
 35 34  1  1  0  0  0
 38 36  1  6  0  0  0
 38 35  1  0  0  0  0
 38 37  1  0  0  0  0
 39 40  1  1  0  0  0
 39 38  1  0  0  0  0
 41 42  1  0  0  0  0
 42 39  1  0  0  0  0
M  END
>  <MODEL>
4

>  <REMARK>
 VINA RESULT:      -6.4      2.536      7.688
  Name = 
  17 active torsions:
  status: ('A' for Active; 'I' for Inactive)
    1  A    between atoms: C_1  and  C_39
    2  A    between atoms: N_2  and  C_16
    3  A    between atoms: C_7  and  N_11
    4  A    between atoms: C_7  and  C_42
    5  A    between atoms: C_8  and  C_15
    6  A    between atoms: N_9  and  C_13
    7  A    between atoms: N_9  and  C_29
    8  A    between atoms: C_12  and  C_30
    9  A    between atoms: C_12  and  C_36
   10  A    between atoms: C_16  and  C_17
   11  A    between atoms: C_16  and  C_36
   12  A    between atoms: C_17  and  C_41
   13  A    between atoms: N_18  and  C_28
   14  A    between atoms: N_18  and  N_31
   15  A    between atoms: C_20  and  N_37
   16  A    between atoms: C_35  and  C_41
   17  A    between atoms: N_37  and  C_39
                            x       y       z     vdW  Elec       q    Type
                         _______ _______ _______ _____ _____    ______ ____

>  <TORSDO>
F 17

$$$$
=
 OpenBabel11042413413D

 42 45  0  0  1  0  0  0  0  0999 V2000
  185.8070  178.5890  144.9390 C   0  0  0  0  0  0  0  0  0  0  0  0
  186.8050  178.0380  145.7590 C   0  0  0  0  0  0  0  0  0  0  0  0
  185.3550  179.1350  146.9810 C   0  0  0  0  0  3  0  0  0  0  0  0
  185.6780  177.7400  143.7740 C   0  0  0  0  0  0  0  0  0  0  0  0
  186.4920  178.4330  147.1180 C   0  0  0  0  0  3  0  0  0  0  0  0
  186.5620  176.7440  143.9240 C   0  0  0  0  0  0  0  0  0  0  0  0
  187.2720  176.9130  145.2340 C   0  0  0  0  0  0  0  0  0  0  0  0
  184.8800  179.1640  145.6210 N   0  0  0  0  0  0  0  0  0  0  0  0
  184.6960  177.8610  142.7320 C   0  0  0  0  0  0  0  0  0  0  0  0
  183.9060  177.9570  141.8920 N   0  0  0  0  0  0  0  0  0  0  0  0
  186.6490  175.6550  142.9990 N   0  0  0  0  0  2  0  0  0  0  0  0
  187.4330  173.0650  142.1790 C   0  0  0  0  0  1  0  0  0  0  0  0
  187.7230  175.4820  142.1200 N   0  0  0  0  0  0  0  0  0  0  0  0
  188.1180  174.3110  141.7290 C   0  0  0  0  0  0  0  0  0  0  0  0
  189.2610  174.2060  140.7790 C   0  0  0  0  0  2  0  0  0  0  0  0
  189.2940  172.8170  140.1530 C   0  0  0  0  0  2  0  0  0  0  0  0
  190.6210  172.0920  140.3730 C   0  0  2  0  0  3  0  0  0  0  0  0
  191.0820  171.4060  139.1620 N   0  0  0  0  0  2  0  0  0  0  0  0
  190.2160  170.4080  138.8640 O   0  0  0  0  0  1  0  0  0  0  0  0
  190.6210  171.1970  141.6110 C   0  0  0  0  0  2  0  0  0  0  0  0
  190.5100  172.0830  143.9250 C   0  0  0  0  0  1  0  0  0  0  0  0
  191.4210  171.8250  142.7430 C   0  0  1  0  0  3  0  0  0  0  0  0
  193.1420  170.2390  142.2950 O   0  0  0  0  0  0  0  0  0  0  0  0
  192.5520  170.9410  143.1560 C   0  0  0  0  0  0  0  0  0  0  0  0
  192.9620  170.8930  144.4840 O   0  0  0  0  0  1  0  0  0  0  0  0
  187.8800  175.9000  146.0420 N   0  0  0  0  0  2  0  0  0  0  0  0
  188.9330  174.9980  145.6010 C   0  0  2  0  0  3  0  0  0  0  0  0
  190.7760  176.6820  145.3860 C   0  0  2  0  0  3  0  0  0  0  0  0
  190.6430  175.5690  147.3450 C   0  0  0  0  0  2  0  0  0  0  0  0
  189.7130  174.4750  146.8110 C   0  0  0  0  0  2  0  0  0  0  0  0
  191.5360  175.9730  146.3370 O   0  0  0  0  0  0  0  0  0  0  0  0
  189.8740  175.7110  144.6230 C   0  0  0  0  0  2  0  0  0  0  0  0
  191.6590  177.3540  144.4510 N   0  0  0  0  0  2  0  0  0  0  0  0
  191.5740  176.6370  143.1910 C   0  0  0  0  0  2  0  0  0  0  0  0
  192.9690  176.4460  142.6240 C   0  0  2  0  0  3  0  0  0  0  0  0
  192.9180  174.4360  144.1010 F   0  0  0  0  0  0  0  0  0  0  0  0
  193.0120  175.1720  141.7910 C   0  0  0  0  0  2  0  0  0  0  0  0
  193.6210  175.1890  143.1720 C   0  0  1  0  0  0  0  0  0  0  0  0
  195.1450  175.1670  143.1760 C   0  0  2  0  0  3  0  0  0  0  0  0
  195.6430  175.0260  144.4760 O   0  0  0  0  0  1  0  0  0  0  0  0
  196.9180  176.7880  143.2120 C   0  0  0  0  0  1  0  0  0  0  0  0
  195.7190  176.3400  142.5130 N   0  0  0  0  0  2  0  0  0  0  0  0
  1  8  1  0  0  0  0
  1  2  1  0  0  0  0
  2  5  2  0  0  0  0
  3  5  1  0  0  0  0
  4  6  1  0  0  0  0
  4  1  2  0  0  0  0
  6  7  2  0  0  0  0
  7  2  1  0  0  0  0
  7 26  1  0  0  0  0
  8  3  2  0  0  0  0
  9  4  1  0  0  0  0
 10  9  3  0  0  0  0
 11  6  1  0  0  0  0
 13 11  1  0  0  0  0
 14 13  2  0  0  0  0
 14 12  1  0  0  0  0
 15 14  1  0  0  0  0
 16 15  1  0  0  0  0
 17 16  1  6  0  0  0
 17 20  1  0  0  0  0
 18 17  1  0  0  0  0
 19 18  1  0  0  0  0
 20 22  1  0  0  0  0
 22 24  1  0  0  0  0
 22 21  1  1  0  0  0
 23 24  2  0  0  0  0
 24 25  1  0  0  0  0
 27 26  1  1  0  0  0
 27 30  1  0  0  0  0
 28 33  1  6  0  0  0
 28 31  1  0  0  0  0
 30 29  1  0  0  0  0
 31 29  1  0  0  0  0
 32 28  1  0  0  0  0
 32 27  1  0  0  0  0
 34 33  1  0  0  0  0
 35 38  1  0  0  0  0
 35 34  1  1  0  0  0
 37 35  1  0  0  0  0
 37 38  1  0  0  0  0
 38 39  1  0  0  0  0
 38 36  1  1  0  0  0
 39 40  1  1  0  0  0
 42 39  1  0  0  0  0
 42 41  1  0  0  0  0
M  END
>  <MODEL>
5

>  <REMARK>
 VINA RESULT:      -6.4      1.923      3.030
  Name = 
  17 active torsions:
  status: ('A' for Active; 'I' for Inactive)
    1  A    between atoms: C_1  and  C_39
    2  A    between atoms: N_2  and  C_16
    3  A    between atoms: C_7  and  N_11
    4  A    between atoms: C_7  and  C_42
    5  A    between atoms: C_8  and  C_15
    6  A    between atoms: N_9  and  C_13
    7  A    between atoms: N_9  and  C_29
    8  A    between atoms: C_12  and  C_30
    9  A    between atoms: C_12  and  C_36
   10  A    between atoms: C_16  and  C_17
   11  A    between atoms: C_16  and  C_36
   12  A    between atoms: C_17  and  C_41
   13  A    between atoms: N_18  and  C_28
   14  A    between atoms: N_18  and  N_31
   15  A    between atoms: C_20  and  N_37
   16  A    between atoms: C_35  and  C_41
   17  A    between atoms: N_37  and  C_39
                            x       y       z     vdW  Elec       q    Type
                         _______ _______ _______ _____ _____    ______ ____

>  <TORSDO>
F 17

$$$$
=
 OpenBabel11042413413D

 42 45  0  0  1  0  0  0  0  0999 V2000
  189.1880  172.7810  138.5120 C   0  0  0  0  0  0  0  0  0  0  0  0
  189.6980  172.2990  139.7280 C   0  0  0  0  0  0  0  0  0  0  0  0
  191.0550  171.7770  138.0880 C   0  0  0  0  0  3  0  0  0  0  0  0
  188.3950  173.9550  138.8040 C   0  0  0  0  0  0  0  0  0  0  0  0
  190.9370  171.6140  139.4160 C   0  0  0  0  0  3  0  0  0  0  0  0
  188.4520  174.1390  140.1300 C   0  0  0  0  0  0  0  0  0  0  0  0
  189.3320  173.0840  140.7320 C   0  0  0  0  0  0  0  0  0  0  0  0
  189.9980  172.5810  137.5320 N   0  0  0  0  0  0  0  0  0  0  0  0
  187.7840  174.8360  137.8450 C   0  0  0  0  0  0  0  0  0  0  0  0
  187.2910  175.5430  137.0740 N   0  0  0  0  0  0  0  0  0  0  0  0
  187.8560  175.2710  140.7720 N   0  0  0  0  0  2  0  0  0  0  0  0
  187.3590  177.9510  141.5230 C   0  0  0  0  0  1  0  0  0  0  0  0
  188.2670  175.7470  142.0200 N   0  0  0  0  0  0  0  0  0  0  0  0
  188.0660  176.9710  142.3980 C   0  0  0  0  0  0  0  0  0  0  0  0
  188.5200  177.4020  143.7490 C   0  0  0  0  0  2  0  0  0  0  0  0
  188.1610  176.3420  144.7840 C   0  0  0  0  0  2  0  0  0  0  0  0
  187.1410  176.8300  145.8120 C   0  0  2  0  0  3  0  0  0  0  0  0
  187.3510  176.2190  147.1280 N   0  0  0  0  0  2  0  0  0  0  0  0
  188.5000  175.5020  147.1040 O   0  0  0  0  0  1  0  0  0  0  0  0
  185.6970  176.7310  145.3230 C   0  0  0  0  0  2  0  0  0  0  0  0
  185.7740  178.9950  146.3300 C   0  0  0  0  0  1  0  0  0  0  0  0
  184.9930  178.0760  145.4140 C   0  0  1  0  0  3  0  0  0  0  0  0
  185.4010  179.8110  143.8320 O   0  0  0  0  0  1  0  0  0  0  0  0
  184.8530  178.7020  144.0650 C   0  0  0  0  0  0  0  0  0  0  0  0
  184.1280  178.0670  143.0630 O   0  0  0  0  0  0  0  0  0  0  0  0
  190.0860  173.1550  141.9470 N   0  0  0  0  0  2  0  0  0  0  0  0
  190.1500  172.1070  142.9540 C   0  0  2  0  0  3  0  0  0  0  0  0
  192.4000  172.6640  143.9050 C   0  0  2  0  0  3  0  0  0  0  0  0
  190.6100  173.5590  144.9470 C   0  0  0  0  0  2  0  0  0  0  0  0
  189.5920  172.6260  144.2820 C   0  0  0  0  0  2  0  0  0  0  0  0
  191.8160  172.8710  145.1690 O   0  0  0  0  0  0  0  0  0  0  0  0
  191.5920  171.6200  143.1310 C   0  0  0  0  0  2  0  0  0  0  0  0
  193.7650  172.1960  144.0630 N   0  0  0  0  0  2  0  0  0  0  0  0
  194.3240  172.8890  145.2110 C   0  0  0  0  0  2  0  0  0  0  0  0
  194.8170  174.2590  144.7820 C   0  0  2  0  0  3  0  0  0  0  0  0
  193.2810  174.9990  146.6040 F   0  0  0  0  0  0  0  0  0  0  0  0
  195.6060  174.8960  145.9190 C   0  0  0  0  0  2  0  0  0  0  0  0
  194.1990  175.3570  145.6280 C   0  0  1  0  0  0  0  0  0  0  0  0
  194.1210  176.7390  144.9870 C   0  0  2  0  0  3  0  0  0  0  0  0
  194.8330  177.6820  145.7370 O   0  0  0  0  0  1  0  0  0  0  0  0
  192.1870  176.5350  143.5770 C   0  0  0  0  0  1  0  0  0  0  0  0
  192.7400  177.1710  144.7670 N   0  0  0  0  0  2  0  0  0  0  0  0
  1  4  2  0  0  0  0
  1  2  1  0  0  0  0
  2  7  1  0  0  0  0
  3  5  1  0  0  0  0
  4  6  1  0  0  0  0
  5  2  2  0  0  0  0
  6  7  2  0  0  0  0
  6 11  1  0  0  0  0
  7 26  1  0  0  0  0
  8  3  2  0  0  0  0
  8  1  1  0  0  0  0
  9  4  1  0  0  0  0
 10  9  3  0  0  0  0
 11 13  1  0  0  0  0
 12 14  1  0  0  0  0
 13 14  2  0  0  0  0
 14 15  1  0  0  0  0
 15 16  1  0  0  0  0
 17 16  1  6  0  0  0
 17 18  1  0  0  0  0
 19 18  1  0  0  0  0
 20 22  1  0  0  0  0
 20 17  1  0  0  0  0
 22 21  1  1  0  0  0
 23 24  1  0  0  0  0
 24 22  1  0  0  0  0
 25 24  2  0  0  0  0
 27 26  1  6  0  0  0
 27 32  1  0  0  0  0
 27 30  1  0  0  0  0
 28 33  1  1  0  0  0
 28 31  1  0  0  0  0
 29 31  1  0  0  0  0
 30 29  1  0  0  0  0
 32 28  1  0  0  0  0
 33 34  1  0  0  0  0
 35 34  1  1  0  0  0
 35 38  1  0  0  0  0
 35 37  1  0  0  0  0
 38 37  1  0  0  0  0
 38 36  1  1  0  0  0
 39 38  1  0  0  0  0
 39 40  1  1  0  0  0
 41 42  1  0  0  0  0
 42 39  1  0  0  0  0
M  END
>  <MODEL>
6

>  <REMARK>
 VINA RESULT:      -6.4      2.752      6.453
  Name = 
  17 active torsions:
  status: ('A' for Active; 'I' for Inactive)
    1  A    between atoms: C_1  and  C_39
    2  A    between atoms: N_2  and  C_16
    3  A    between atoms: C_7  and  N_11
    4  A    between atoms: C_7  and  C_42
    5  A    between atoms: C_8  and  C_15
    6  A    between atoms: N_9  and  C_13
    7  A    between atoms: N_9  and  C_29
    8  A    between atoms: C_12  and  C_30
    9  A    between atoms: C_12  and  C_36
   10  A    between atoms: C_16  and  C_17
   11  A    between atoms: C_16  and  C_36
   12  A    between atoms: C_17  and  C_41
   13  A    between atoms: N_18  and  C_28
   14  A    between atoms: N_18  and  N_31
   15  A    between atoms: C_20  and  N_37
   16  A    between atoms: C_35  and  C_41
   17  A    between atoms: N_37  and  C_39
                            x       y       z     vdW  Elec       q    Type
                         _______ _______ _______ _____ _____    ______ ____

>  <TORSDO>
F 17

$$$$
=
 OpenBabel11042413413D

 42 45  0  0  1  0  0  0  0  0999 V2000
  189.4460  171.8550  138.5610 C   0  0  0  0  0  0  0  0  0  0  0  0
  190.0740  171.3090  139.6910 C   0  0  0  0  0  0  0  0  0  0  0  0
  191.0000  170.5220  137.8680 C   0  0  0  0  0  3  0  0  0  0  0  0
  188.9370  173.1580  138.9290 C   0  0  0  0  0  0  0  0  0  0  0  0
  191.0970  170.4060  139.2020 C   0  0  0  0  0  3  0  0  0  0  0  0
  189.2640  173.3510  140.2140 C   0  0  0  0  0  0  0  0  0  0  0  0
  190.0390  172.1640  140.7040 C   0  0  0  0  0  0  0  0  0  0  0  0
  190.0170  171.4950  137.4660 N   0  0  0  0  0  0  0  0  0  0  0  0
  188.3270  174.1190  138.0500 C   0  0  0  0  0  0  0  0  0  0  0  0
  187.8370  174.8900  137.3420 N   0  0  0  0  0  0  0  0  0  0  0  0
  189.0010  174.5830  140.8940 N   0  0  0  0  0  2  0  0  0  0  0  0
  188.0380  177.1720  141.4960 C   0  0  0  0  0  1  0  0  0  0  0  0
  187.9320  174.7560  141.7780 N   0  0  0  0  0  0  0  0  0  0  0  0
  187.4680  175.9260  142.0860 C   0  0  0  0  0  0  0  0  0  0  0  0
  186.3160  176.0310  143.0250 C   0  0  0  0  0  2  0  0  0  0  0  0
  185.6380  177.3880  142.8710 C   0  0  0  0  0  2  0  0  0  0  0  0
  185.6550  178.2140  144.1570 C   0  0  2  0  0  3  0  0  0  0  0  0
  185.2020  179.5900  143.9330 N   0  0  0  0  0  2  0  0  0  0  0  0
  184.0480  179.7920  144.6140 O   0  0  0  0  0  1  0  0  0  0  0  0
  186.9820  178.1290  144.9110 C   0  0  0  0  0  2  0  0  0  0  0  0
  185.5070  176.9040  146.4840 C   0  0  0  0  0  1  0  0  0  0  0  0
  186.7620  177.7440  146.3660 C   0  0  1  0  0  3  0  0  0  0  0  0
  187.8570  175.7400  147.0460 O   0  0  0  0  0  0  0  0  0  0  0  0
  187.9330  176.9870  146.9040 C   0  0  0  0  0  0  0  0  0  0  0  0
  189.1070  177.6500  147.2430 O   0  0  0  0  0  1  0  0  0  0  0  0
  191.0010  172.1170  141.7650 N   0  0  0  0  0  2  0  0  0  0  0  0
  190.7700  171.5360  143.0780 C   0  0  2  0  0  3  0  0  0  0  0  0
  192.5240  172.8030  144.3400 C   0  0  2  0  0  3  0  0  0  0  0  0
  190.4400  173.6680  144.3570 C   0  0  0  0  0  2  0  0  0  0  0  0
  189.7640  172.3880  143.8550 C   0  0  0  0  0  2  0  0  0  0  0  0
  191.5310  173.3420  145.1810 O   0  0  0  0  0  0  0  0  0  0  0  0
  192.0880  171.4210  143.8520 C   0  0  0  0  0  2  0  0  0  0  0  0
  193.7750  172.6850  145.0680 N   0  0  0  0  0  2  0  0  0  0  0  0
  194.7900  173.3710  144.2870 C   0  0  0  0  0  2  0  0  0  0  0  0
  194.4060  174.8300  144.1290 C   0  0  2  0  0  3  0  0  0  0  0  0
  195.5690  175.0170  146.3280 F   0  0  0  0  0  0  0  0  0  0  0  0
  195.6640  175.6780  143.9960 C   0  0  0  0  0  2  0  0  0  0  0  0
  194.9010  175.6620  145.2980 C   0  0  1  0  0  0  0  0  0  0  0  0
  194.1350  176.9490  145.5820 C   0  0  2  0  0  3  0  0  0  0  0  0
  194.5670  177.5390  146.7760 O   0  0  0  0  0  1  0  0  0  0  0  0
  192.2440  176.2460  146.8870 C   0  0  0  0  0  1  0  0  0  0  0  0
  192.6850  176.7420  145.5890 N   0  0  0  0  0  2  0  0  0  0  0  0
  1  4  2  0  0  0  0
  1  2  1  0  0  0  0
  2  7  1  0  0  0  0
  3  5  1  0  0  0  0
  4  6  1  0  0  0  0
  5  2  2  0  0  0  0
  6  7  2  0  0  0  0
  6 11  1  0  0  0  0
  7 26  1  0  0  0  0
  8  3  2  0  0  0  0
  8  1  1  0  0  0  0
  9  4  1  0  0  0  0
 10  9  3  0  0  0  0
 11 13  1  0  0  0  0
 12 14  1  0  0  0  0
 13 14  2  0  0  0  0
 14 15  1  0  0  0  0
 16 15  1  0  0  0  0
 17 16  1  6  0  0  0
 17 20  1  0  0  0  0
 18 17  1  0  0  0  0
 18 19  1  0  0  0  0
 20 22  1  0  0  0  0
 22 21  1  6  0  0  0
 22 24  1  0  0  0  0
 24 23  2  0  0  0  0
 24 25  1  0  0  0  0
 27 26  1  6  0  0  0
 27 32  1  0  0  0  0
 27 30  1  0  0  0  0
 28 33  1  1  0  0  0
 28 31  1  0  0  0  0
 29 31  1  0  0  0  0
 30 29  1  0  0  0  0
 32 28  1  0  0  0  0
 34 33  1  0  0  0  0
 35 34  1  1  0  0  0
 35 38  1  0  0  0  0
 37 35  1  0  0  0  0
 37 38  1  0  0  0  0
 38 39  1  0  0  0  0
 38 36  1  1  0  0  0
 39 42  1  0  0  0  0
 39 40  1  1  0  0  0
 42 41  1  0  0  0  0
M  END
>  <MODEL>
7

>  <REMARK>
 VINA RESULT:      -6.3      2.586      7.090
  Name = 
  17 active torsions:
  status: ('A' for Active; 'I' for Inactive)
    1  A    between atoms: C_1  and  C_39
    2  A    between atoms: N_2  and  C_16
    3  A    between atoms: C_7  and  N_11
    4  A    between atoms: C_7  and  C_42
    5  A    between atoms: C_8  and  C_15
    6  A    between atoms: N_9  and  C_13
    7  A    between atoms: N_9  and  C_29
    8  A    between atoms: C_12  and  C_30
    9  A    between atoms: C_12  and  C_36
   10  A    between atoms: C_16  and  C_17
   11  A    between atoms: C_16  and  C_36
   12  A    between atoms: C_17  and  C_41
   13  A    between atoms: N_18  and  C_28
   14  A    between atoms: N_18  and  N_31
   15  A    between atoms: C_20  and  N_37
   16  A    between atoms: C_35  and  C_41
   17  A    between atoms: N_37  and  C_39
                            x       y       z     vdW  Elec       q    Type
                         _______ _______ _______ _____ _____    ______ ____

>  <TORSDO>
F 17

$$$$
=
 OpenBabel11042413413D

 42 45  0  0  1  0  0  0  0  0999 V2000
  189.8550  173.6000  137.5970 C   0  0  0  0  0  0  0  0  0  0  0  0
  190.7350  172.9820  138.5000 C   0  0  0  0  0  0  0  0  0  0  0  0
  191.8320  173.6490  136.7240 C   0  0  0  0  0  3  0  0  0  0  0  0
  188.7720  174.1740  138.3650 C   0  0  0  0  0  0  0  0  0  0  0  0
  192.0480  173.0100  137.8850 C   0  0  0  0  0  3  0  0  0  0  0  0
  189.0240  173.9010  139.6520 C   0  0  0  0  0  0  0  0  0  0  0  0
  190.3230  173.1570  139.7480 C   0  0  0  0  0  0  0  0  0  0  0  0
  190.4690  174.0930  136.5790 N   0  0  0  0  0  0  0  0  0  0  0  0
  187.7090  175.0000  137.8600 C   0  0  0  0  0  0  0  0  0  0  0  0
  186.8530  175.6650  137.4550 N   0  0  0  0  0  0  0  0  0  0  0  0
  188.2050  174.4000  140.7150 N   0  0  0  0  0  2  0  0  0  0  0  0
  189.4090  175.4200  143.0610 C   0  0  0  0  0  1  0  0  0  0  0  0
  188.1070  175.7580  141.0310 N   0  0  0  0  0  0  0  0  0  0  0  0
  188.6360  176.2620  142.1020 C   0  0  0  0  0  0  0  0  0  0  0  0
  188.5030  177.7220  142.3650 C   0  0  0  0  0  2  0  0  0  0  0  0
  187.0630  178.1660  142.1310 C   0  0  0  0  0  2  0  0  0  0  0  0
  186.2260  178.1790  143.4090 C   0  0  2  0  0  3  0  0  0  0  0  0
  185.2040  179.2300  143.3870 N   0  0  0  0  0  2  0  0  0  0  0  0
  185.5370  180.1880  144.2860 O   0  0  0  0  0  1  0  0  0  0  0  0
  187.0700  178.1840  144.6830 C   0  0  0  0  0  2  0  0  0  0  0  0
  187.8600  176.5020  146.3260 C   0  0  0  0  0  1  0  0  0  0  0  0
  186.6420  177.0720  145.6300 C   0  0  1  0  0  3  0  0  0  0  0  0
  184.4320  177.5080  146.4060 O   0  0  0  0  0  0  0  0  0  0  0  0
  185.6660  177.5740  146.6430 C   0  0  0  0  0  0  0  0  0  0  0  0
  186.1100  178.1090  147.8470 O   0  0  0  0  0  1  0  0  0  0  0  0
  191.2300  173.1090  140.8560 N   0  0  0  0  0  2  0  0  0  0  0  0
  191.6930  171.8920  141.5040 C   0  0  2  0  0  3  0  0  0  0  0  0
  191.7340  172.7400  143.8610 C   0  0  2  0  0  3  0  0  0  0  0  0
  189.8580  171.6740  143.2000 C   0  0  0  0  0  2  0  0  0  0  0  0
  190.4940  171.0520  141.9530 C   0  0  0  0  0  2  0  0  0  0  0  0
  190.8060  171.7480  144.2360 O   0  0  0  0  0  0  0  0  0  0  0  0
  192.5890  172.2300  142.7010 C   0  0  0  0  0  2  0  0  0  0  0  0
  192.5910  173.0610  144.9870 N   0  0  0  0  0  2  0  0  0  0  0  0
  192.2960  174.4310  145.3730 C   0  0  0  0  0  2  0  0  0  0  0  0
  193.5930  175.2050  145.5190 C   0  0  2  0  0  3  0  0  0  0  0  0
  193.1380  175.7420  143.1250 F   0  0  0  0  0  0  0  0  0  0  0  0
  193.3200  176.6940  145.3490 C   0  0  0  0  0  2  0  0  0  0  0  0
  193.9610  175.9130  144.2280 C   0  0  1  0  0  0  0  0  0  0  0  0
  195.4410  176.2220  144.0280 C   0  0  2  0  0  3  0  0  0  0  0  0
  195.7330  176.4290  142.6750 O   0  0  0  0  0  1  0  0  0  0  0  0
  196.3770  174.0310  143.7230 C   0  0  0  0  0  1  0  0  0  0  0  0
  196.3060  175.1910  144.6040 N   0  0  0  0  0  2  0  0  0  0  0  0
  1  4  2  0  0  0  0
  1  2  1  0  0  0  0
  2  7  1  0  0  0  0
  3  5  1  0  0  0  0
  4  6  1  0  0  0  0
  5  2  2  0  0  0  0
  6  7  2  0  0  0  0
  6 11  1  0  0  0  0
  7 26  1  0  0  0  0
  8  3  2  0  0  0  0
  8  1  1  0  0  0  0
  9  4  1  0  0  0  0
 10  9  3  0  0  0  0
 11 13  1  0  0  0  0
 13 14  2  0  0  0  0
 14 15  1  0  0  0  0
 14 12  1  0  0  0  0
 16 15  1  0  0  0  0
 17 16  1  6  0  0  0
 17 20  1  0  0  0  0
 18 17  1  0  0  0  0
 18 19  1  0  0  0  0
 20 22  1  0  0  0  0
 22 21  1  1  0  0  0
 22 24  1  0  0  0  0
 23 24  2  0  0  0  0
 24 25  1  0  0  0  0
 27 26  1  1  0  0  0
 27 30  1  0  0  0  0
 27 32  1  0  0  0  0
 28 31  1  0  0  0  0
 28 33  1  1  0  0  0
 29 31  1  0  0  0  0
 30 29  1  0  0  0  0
 32 28  1  0  0  0  0
 33 34  1  0  0  0  0
 35 34  1  6  0  0  0
 37 35  1  0  0  0  0
 38 36  1  6  0  0  0
 38 37  1  0  0  0  0
 38 35  1  0  0  0  0
 39 40  1  6  0  0  0
 39 38  1  0  0  0  0
 39 42  1  0  0  0  0
 41 42  1  0  0  0  0
M  END
>  <MODEL>
8

>  <REMARK>
 VINA RESULT:      -6.3      2.543      6.867
  Name = 
  17 active torsions:
  status: ('A' for Active; 'I' for Inactive)
    1  A    between atoms: C_1  and  C_39
    2  A    between atoms: N_2  and  C_16
    3  A    between atoms: C_7  and  N_11
    4  A    between atoms: C_7  and  C_42
    5  A    between atoms: C_8  and  C_15
    6  A    between atoms: N_9  and  C_13
    7  A    between atoms: N_9  and  C_29
    8  A    between atoms: C_12  and  C_30
    9  A    between atoms: C_12  and  C_36
   10  A    between atoms: C_16  and  C_17
   11  A    between atoms: C_16  and  C_36
   12  A    between atoms: C_17  and  C_41
   13  A    between atoms: N_18  and  C_28
   14  A    between atoms: N_18  and  N_31
   15  A    between atoms: C_20  and  N_37
   16  A    between atoms: C_35  and  C_41
   17  A    between atoms: N_37  and  C_39
                            x       y       z     vdW  Elec       q    Type
                         _______ _______ _______ _____ _____    ______ ____

>  <TORSDO>
F 17

$$$$
=
 OpenBabel11042413413D

 42 45  0  0  1  0  0  0  0  0999 V2000
  184.8540  179.0860  143.7880 C   0  0  0  0  0  0  0  0  0  0  0  0
  185.9420  179.0530  144.6740 C   0  0  0  0  0  0  0  0  0  0  0  0
  184.0650  178.8780  145.7910 C   0  0  0  0  0  3  0  0  0  0  0  0
  185.3040  178.5560  142.5200 C   0  0  0  0  0  0  0  0  0  0  0  0
  185.3890  178.9330  146.0090 C   0  0  0  0  0  3  0  0  0  0  0  0
  186.5940  178.2290  142.6760 C   0  0  0  0  0  0  0  0  0  0  0  0
  187.0040  178.5160  144.0900 C   0  0  0  0  0  0  0  0  0  0  0  0
  183.7320  178.8910  144.3890 N   0  0  0  0  0  0  0  0  0  0  0  0
  184.4900  178.2950  141.3640 C   0  0  0  0  0  0  0  0  0  0  0  0
  183.8350  178.0870  140.4340 N   0  0  0  0  0  0  0  0  0  0  0  0
  187.3490  177.5820  141.6450 N   0  0  0  0  0  2  0  0  0  0  0  0
  189.9130  176.6450  142.3820 C   0  0  0  0  0  1  0  0  0  0  0  0
  187.6310  176.2130  141.6500 N   0  0  0  0  0  0  0  0  0  0  0  0
  188.7960  175.7450  141.9720 C   0  0  0  0  0  0  0  0  0  0  0  0
  189.0190  174.2720  141.9670 C   0  0  0  0  0  2  0  0  0  0  0  0
  190.4770  173.9620  142.2840 C   0  0  0  0  0  2  0  0  0  0  0  0
  190.9400  172.6200  141.7200 C   0  0  2  0  0  3  0  0  0  0  0  0
  189.9980  172.0820  140.7350 N   0  0  0  0  0  2  0  0  0  0  0  0
  190.4370  170.8690  140.3200 O   0  0  0  0  0  1  0  0  0  0  0  0
  191.3240  171.6120  142.8020 C   0  0  0  0  0  2  0  0  0  0  0  0
  193.1040  170.8850  144.3690 C   0  0  0  0  0  1  0  0  0  0  0  0
  192.8120  171.6800  143.1130 C   0  0  1  0  0  3  0  0  0  0  0  0
  194.4210  171.9140  141.3720 O   0  0  0  0  0  0  0  0  0  0  0  0
  193.6240  171.1510  141.9760 C   0  0  0  0  0  0  0  0  0  0  0  0
  193.5100  169.8220  141.5850 O   0  0  0  0  0  1  0  0  0  0  0  0
  188.0490  177.8940  144.8470 N   0  0  0  0  0  2  0  0  0  0  0  0
  187.8480  176.8910  145.8810 C   0  0  2  0  0  3  0  0  0  0  0  0
  190.1790  175.9770  145.9470 C   0  0  2  0  0  3  0  0  0  0  0  0
  189.6870  177.6060  147.4300 C   0  0  0  0  0  2  0  0  0  0  0  0
  188.1690  177.4870  147.2540 C   0  0  0  0  0  2  0  0  0  0  0  0
  190.2840  176.3390  147.3040 O   0  0  0  0  0  0  0  0  0  0  0  0
  188.7210  175.6610  145.6110 C   0  0  0  0  0  2  0  0  0  0  0  0
  190.9990  174.8080  145.6850 N   0  0  0  0  0  2  0  0  0  0  0  0
  192.2420  174.9840  146.4160 C   0  0  0  0  0  2  0  0  0  0  0  0
  193.4140  174.7880  145.4720 C   0  0  2  0  0  3  0  0  0  0  0  0
  193.0920  177.2360  145.1160 F   0  0  0  0  0  0  0  0  0  0  0  0
  194.6200  175.5640  145.9870 C   0  0  0  0  0  2  0  0  0  0  0  0
  193.8240  176.0960  144.8190 C   0  0  1  0  0  0  0  0  0  0  0  0
  194.5420  175.9850  143.4790 C   0  0  2  0  0  3  0  0  0  0  0  0
  193.9130  175.0530  142.6460 O   0  0  0  0  0  1  0  0  0  0  0  0
  196.7850  176.7870  143.1650 C   0  0  0  0  0  1  0  0  0  0  0  0
  195.9650  175.6770  143.6370 N   0  0  0  0  0  2  0  0  0  0  0  0
  1  8  1  0  0  0  0
  1  2  1  0  0  0  0
  2  5  2  0  0  0  0
  3  5  1  0  0  0  0
  4  6  1  0  0  0  0
  4  1  2  0  0  0  0
  6  7  2  0  0  0  0
  7  2  1  0  0  0  0
  7 26  1  0  0  0  0
  8  3  2  0  0  0  0
  9  4  1  0  0  0  0
 10  9  3  0  0  0  0
 11 13  1  0  0  0  0
 11  6  1  0  0  0  0
 13 14  2  0  0  0  0
 14 12  1  0  0  0  0
 15 14  1  0  0  0  0
 15 16  1  0  0  0  0
 17 16  1  1  0  0  0
 17 20  1  0  0  0  0
 18 17  1  0  0  0  0
 19 18  1  0  0  0  0
 20 22  1  0  0  0  0
 22 21  1  1  0  0  0
 23 24  2  0  0  0  0
 24 22  1  0  0  0  0
 25 24  1  0  0  0  0
 27 26  1  6  0  0  0
 27 30  1  0  0  0  0
 28 33  1  1  0  0  0
 28 31  1  0  0  0  0
 30 29  1  0  0  0  0
 31 29  1  0  0  0  0
 32 27  1  0  0  0  0
 32 28  1  0  0  0  0
 33 34  1  0  0  0  0
 35 37  1  0  0  0  0
 35 34  1  1  0  0  0
 38 36  1  1  0  0  0
 38 35  1  0  0  0  0
 38 37  1  0  0  0  0
 39 40  1  6  0  0  0
 39 42  1  0  0  0  0
 39 38  1  0  0  0  0
 41 42  1  0  0  0  0
M  END
>  <MODEL>
9

>  <REMARK>
 VINA RESULT:      -6.3      1.419      2.457
  Name = 
  17 active torsions:
  status: ('A' for Active; 'I' for Inactive)
    1  A    between atoms: C_1  and  C_39
    2  A    between atoms: N_2  and  C_16
    3  A    between atoms: C_7  and  N_11
    4  A    between atoms: C_7  and  C_42
    5  A    between atoms: C_8  and  C_15
    6  A    between atoms: N_9  and  C_13
    7  A    between atoms: N_9  and  C_29
    8  A    between atoms: C_12  and  C_30
    9  A    between atoms: C_12  and  C_36
   10  A    between atoms: C_16  and  C_17
   11  A    between atoms: C_16  and  C_36
   12  A    between atoms: C_17  and  C_41
   13  A    between atoms: N_18  and  C_28
   14  A    between atoms: N_18  and  N_31
   15  A    between atoms: C_20  and  N_37
   16  A    between atoms: C_35  and  C_41
   17  A    between atoms: N_37  and  C_39
                            x       y       z     vdW  Elec       q    Type
                         _______ _______ _______ _____ _____    ______ ____

>  <TORSDO>
F 17

$$$$
