=
 OpenBabel11042417043D

 44 48  0  0  1  0  0  0  0  0999 V2000
  195.5750  174.8850  143.9540 C   0  0  1  0  0  3  0  0  0  0  0  0
  193.3830  176.1710  143.7570 N   0  0  0  0  0  0  0  0  0  0  0  0
  195.0640  175.2940  146.3770 C   0  0  0  0  0  2  0  0  0  0  0  0
  196.4920  174.1350  143.0710 N   0  0  0  0  0  0  0  0  0  0  0  0
  197.6960  173.8900  145.1230 O   0  0  0  0  0  0  0  0  0  0  0  0
  197.5840  173.4560  143.7930 C   0  0  0  0  0  2  0  0  0  0  0  0
  193.7150  176.0000  146.2100 C   0  0  1  0  0  3  0  0  0  0  0  0
  196.5460  173.4070  145.7550 C   0  0  0  0  0  2  0  0  0  0  0  0
  193.8830  174.3890  142.3300 O   0  0  0  0  0  0  0  0  0  0  0  0
  194.2520  175.1320  143.2810 C   0  0  0  0  0  0  0  0  0  0  0  0
  193.6920  176.9130  144.9820 C   0  0  0  0  0  2  0  0  0  0  0  0
  195.3330  174.2240  145.3220 C   0  0  2  0  0  3  0  0  0  0  0  0
  191.4730  177.7250  143.5940 C   0  0  0  0  0  2  0  0  0  0  0  0
  191.3070  175.3850  142.7080 C   0  0  0  0  0  3  0  0  0  0  0  0
  190.1840  177.9810  142.8630 C   0  0  0  0  0  3  0  0  0  0  0  0
  189.4820  176.9700  142.3230 C   0  0  0  0  0  0  0  0  0  0  0  0
  192.2250  176.5550  142.9520 C   0  0  2  0  0  3  0  0  0  0  0  0
  190.0300  175.5980  142.3780 C   0  0  0  0  0  3  0  0  0  0  0  0
  188.2390  177.1640  141.7000 O   0  0  0  0  0  0  0  0  0  0  0  0
  186.9940  177.2580  142.3390 C   0  0  0  0  0  0  0  0  0  0  0  0
  186.5070  176.1580  142.9030 C   0  0  0  0  0  2  0  0  0  0  0  0
  186.3000  178.4810  142.3770 O   0  0  0  0  0  0  0  0  0  0  0  0
  183.9830  178.4430  142.5910 O   0  0  0  0  0  0  0  0  0  0  0  0
  185.1080  178.7490  143.0680 C   0  0  0  0  0  0  0  0  0  0  0  0
  185.1760  179.4450  144.3800 C   0  0  0  0  0  2  0  0  0  0  0  0
  183.9800  179.0620  145.2290 C   0  0  0  0  0  1  0  0  0  0  0  0
  192.6320  175.0710  146.1850 O   0  0  0  0  0  0  0  0  0  0  0  0
  188.8930  174.9910  146.0300 C   0  0  0  0  0  3  0  0  0  0  0  0
  191.2920  175.4460  146.3220 C   0  0  0  0  0  0  0  0  0  0  0  0
  190.9980  176.6910  146.9160 C   0  0  0  0  0  3  0  0  0  0  0  0
  189.1530  178.1730  147.5750 N   0  0  0  0  0  0  0  0  0  0  0  0
  188.6520  176.2280  146.6190 C   0  0  0  0  0  0  0  0  0  0  0  0
  186.1040  176.4610  146.6560 C   0  0  0  0  0  1  0  0  0  0  0  0
  190.2370  174.6030  145.8840 C   0  0  0  0  0  3  0  0  0  0  0  0
  189.6590  177.0450  147.0450 C   0  0  0  0  0  0  0  0  0  0  0  0
  187.8270  178.0880  147.4940 N   0  0  0  0  0  2  0  0  0  0  0  0
  187.4990  176.9110  146.9150 C   0  0  0  0  0  0  0  0  0  0  0  0
  197.1250  175.1070  142.1920 C   0  0  0  0  0  2  0  0  0  0  0  0
  197.6520  174.4060  140.9530 C   0  0  0  0  0  2  0  0  0  0  0  0
  196.5170  174.1390  139.9800 C   0  0  0  0  0  2  0  0  0  0  0  0
  196.6720  172.8230  139.3760 N   0  0  0  0  0  0  0  0  0  0  0  0
  197.6490  172.1120  140.1800 C   0  0  0  0  0  1  0  0  0  0  0  0
  195.5950  170.9800  140.4220 N   0  0  0  0  0  1  0  0  0  0  0  0
  195.4110  172.1170  139.5370 C   0  0  0  0  0  2  0  0  0  0  0  0
  1 10  1  6  0  0  0
  1 12  1  0  0  0  0
  2 11  1  0  0  0  0
  4  6  1  0  0  0  0
  4  1  1  0  0  0  0
  5  8  1  0  0  0  0
  6  5  1  0  0  0  0
  7 27  1  6  0  0  0
  7  3  1  0  0  0  0
  9 10  2  0  0  0  0
 10  2  1  0  0  0  0
 11  7  1  0  0  0  0
 12  8  1  1  0  0  0
 12  3  1  0  0  0  0
 15 13  1  0  0  0  0
 16 18  1  0  0  0  0
 16 15  2  0  0  0  0
 17 14  1  1  0  0  0
 17 13  1  0  0  0  0
 17  2  1  0  0  0  0
 18 14  2  0  0  0  0
 19 16  1  0  0  0  0
 19 20  1  0  0  0  0
 20 22  1  0  0  0  0
 20 21  2  0  0  0  0
 22 24  1  0  0  0  0
 23 24  2  0  0  0  0
 24 25  1  0  0  0  0
 25 26  1  0  0  0  0
 27 29  1  0  0  0  0
 28 32  1  0  0  0  0
 29 30  2  0  0  0  0
 30 35  1  0  0  0  0
 32 37  2  0  0  0  0
 32 35  1  0  0  0  0
 33 37  1  0  0  0  0
 34 28  2  0  0  0  0
 34 29  1  0  0  0  0
 35 31  2  0  0  0  0
 36 31  1  0  0  0  0
 37 36  1  0  0  0  0
 38  4  1  0  0  0  0
 39 38  1  0  0  0  0
 40 39  1  0  0  0  0
 41 44  1  0  0  0  0
 41 40  1  0  0  0  0
 41 42  1  0  0  0  0
 44 43  1  0  0  0  0
M  END
>  <MODEL>
1

>  <REMARK>
 VINA RESULT:      -6.9      0.000      0.000
  Name = 
  13 active torsions:
  status: ('A' for Active; 'I' for Inactive)
    1  A    between atoms: O_3  and  C_12
    2  A    between atoms: O_3  and  C_29
    3  A    between atoms: N_6  and  C_30
    4  A    between atoms: C_9  and  C_16
    5  A    between atoms: C_9  and  C_19
    6  A    between atoms: N_13  and  C_16
    7  A    between atoms: N_15  and  C_19
    8  A    between atoms: N_15  and  C_40
    9  A    between atoms: C_17  and  C_22
   10  A    between atoms: C_21  and  O_32
   11  A    between atoms: C_22  and  O_39
   12  A    between atoms: C_31  and  O_32
   13  A    between atoms: C_31  and  O_39
                            x       y       z     vdW  Elec       q    Type
                         _______ _______ _______ _____ _____    ______ ____

>  <TORSDO>
F 13

$$$$
=
 OpenBabel11042417043D

 44 48  0  0  1  0  0  0  0  0999 V2000
  190.5610  172.8330  138.7070 C   0  0  1  0  0  3  0  0  0  0  0  0
  190.9340  173.3580  141.1730 N   0  0  0  0  0  0  0  0  0  0  0  0
  188.2320  173.4670  139.3980 C   0  0  0  0  0  2  0  0  0  0  0  0
  191.3750  172.5320  137.5110 N   0  0  0  0  0  0  0  0  0  0  0  0
  189.2090  172.3840  136.5090 O   0  0  0  0  0  0  0  0  0  0  0  0
  190.5900  172.4460  136.2660 C   0  0  0  0  0  2  0  0  0  0  0  0
  188.5200  173.8400  140.8560 C   0  0  1  0  0  3  0  0  0  0  0  0
  188.8770  173.6460  137.0110 C   0  0  0  0  0  2  0  0  0  0  0  0
  192.5170  173.9300  139.5520 O   0  0  0  0  0  0  0  0  0  0  0  0
  191.4090  173.3880  139.8190 C   0  0  0  0  0  0  0  0  0  0  0  0
  189.5700  172.9220  141.4870 C   0  0  0  0  0  2  0  0  0  0  0  0
  189.3810  173.7860  138.4430 C   0  0  2  0  0  3  0  0  0  0  0  0
  191.6930  172.6960  143.4250 C   0  0  0  0  0  2  0  0  0  0  0  0
  191.7070  175.1010  142.7190 C   0  0  0  0  0  3  0  0  0  0  0  0
  192.5090  173.1480  144.6060 C   0  0  0  0  0  3  0  0  0  0  0  0
  192.6810  174.4540  144.8680 C   0  0  0  0  0  0  0  0  0  0  0  0
  191.8590  173.6740  142.2590 C   0  0  2  0  0  3  0  0  0  0  0  0
  192.1310  175.4590  143.9350 C   0  0  0  0  0  3  0  0  0  0  0  0
  193.3730  174.9100  146.0020 O   0  0  0  0  0  0  0  0  0  0  0  0
  193.3090  176.1980  146.5520 C   0  0  0  0  0  0  0  0  0  0  0  0
  194.3970  176.9580  146.4680 C   0  0  0  0  0  2  0  0  0  0  0  0
  192.1300  176.6570  147.1660 O   0  0  0  0  0  0  0  0  0  0  0  0
  191.2510  175.1220  148.6780 O   0  0  0  0  0  0  0  0  0  0  0  0
  191.0870  175.8680  147.6770 C   0  0  0  0  0  0  0  0  0  0  0  0
  189.7660  175.8890  146.9940 C   0  0  0  0  0  2  0  0  0  0  0  0
  189.4340  174.5050  146.4730 C   0  0  0  0  0  1  0  0  0  0  0  0
  188.8870  175.2130  140.9880 O   0  0  0  0  0  0  0  0  0  0  0  0
  186.9880  178.2800  141.9880 C   0  0  0  0  0  3  0  0  0  0  0  0
  188.1630  176.1320  141.7540 C   0  0  0  0  0  0  0  0  0  0  0  0
  187.8730  175.8110  143.0960 C   0  0  0  0  0  3  0  0  0  0  0  0
  186.7670  176.6420  145.1260 N   0  0  0  0  0  0  0  0  0  0  0  0
  186.7290  177.9220  143.3070 C   0  0  0  0  0  0  0  0  0  0  0  0
  185.4000  179.8800  144.2800 C   0  0  0  0  0  1  0  0  0  0  0  0
  187.7170  177.3650  141.2080 C   0  0  0  0  0  3  0  0  0  0  0  0
  187.1520  176.7390  143.8410 C   0  0  0  0  0  0  0  0  0  0  0  0
  186.0990  177.7540  145.4240 N   0  0  0  0  0  2  0  0  0  0  0  0
  186.0630  178.5490  144.3300 C   0  0  0  0  0  0  0  0  0  0  0  0
  191.9610  171.2150  137.7170 C   0  0  0  0  0  2  0  0  0  0  0  0
  191.0260  170.3680  138.5600 C   0  0  0  0  0  2  0  0  0  0  0  0
  191.8270  169.4650  139.4820 C   0  0  0  0  0  2  0  0  0  0  0  0
  191.6930  169.9090  140.8620 N   0  0  0  0  0  0  0  0  0  0  0  0
  190.8820  168.9130  141.5390 C   0  0  0  0  0  1  0  0  0  0  0  0
  193.8630  170.8800  140.8980 N   0  0  0  0  0  1  0  0  0  0  0  0
  193.0130  169.8500  141.4700 C   0  0  0  0  0  2  0  0  0  0  0  0
  1 10  1  1  0  0  0
  2 11  1  0  0  0  0
  3  7  1  0  0  0  0
  4 38  1  0  0  0  0
  4  1  1  0  0  0  0
  5  8  1  0  0  0  0
  6  5  1  0  0  0  0
  6  4  1  0  0  0  0
  7 27  1  6  0  0  0
  7 11  1  0  0  0  0
  9 10  2  0  0  0  0
 10  2  1  0  0  0  0
 12  8  1  6  0  0  0
 12  1  1  0  0  0  0
 12  3  1  0  0  0  0
 13 15  1  0  0  0  0
 14 18  2  0  0  0  0
 15 16  2  0  0  0  0
 16 19  1  0  0  0  0
 17  2  1  6  0  0  0
 17 14  1  0  0  0  0
 17 13  1  0  0  0  0
 18 16  1  0  0  0  0
 19 20  1  0  0  0  0
 20 22  1  0  0  0  0
 21 20  2  0  0  0  0
 22 24  1  0  0  0  0
 24 23  2  0  0  0  0
 25 24  1  0  0  0  0
 26 25  1  0  0  0  0
 27 29  1  0  0  0  0
 28 32  1  0  0  0  0
 29 30  2  0  0  0  0
 30 35  1  0  0  0  0
 31 36  1  0  0  0  0
 32 35  1  0  0  0  0
 32 37  2  0  0  0  0
 33 37  1  0  0  0  0
 34 29  1  0  0  0  0
 34 28  2  0  0  0  0
 35 31  2  0  0  0  0
 37 36  1  0  0  0  0
 38 39  1  0  0  0  0
 39 40  1  0  0  0  0
 40 41  1  0  0  0  0
 41 44  1  0  0  0  0
 41 42  1  0  0  0  0
 43 44  1  0  0  0  0
M  END
>  <MODEL>
2

>  <REMARK>
 VINA RESULT:      -6.9      3.269      6.707
  Name = 
  13 active torsions:
  status: ('A' for Active; 'I' for Inactive)
    1  A    between atoms: O_3  and  C_12
    2  A    between atoms: O_3  and  C_29
    3  A    between atoms: N_6  and  C_30
    4  A    between atoms: C_9  and  C_16
    5  A    between atoms: C_9  and  C_19
    6  A    between atoms: N_13  and  C_16
    7  A    between atoms: N_15  and  C_19
    8  A    between atoms: N_15  and  C_40
    9  A    between atoms: C_17  and  C_22
   10  A    between atoms: C_21  and  O_32
   11  A    between atoms: C_22  and  O_39
   12  A    between atoms: C_31  and  O_32
   13  A    between atoms: C_31  and  O_39
                            x       y       z     vdW  Elec       q    Type
                         _______ _______ _______ _____ _____    ______ ____

>  <TORSDO>
F 13

$$$$
=
 OpenBabel11042417043D

 44 48  0  0  1  0  0  0  0  0999 V2000
  187.6500  176.9650  145.2300 C   0  0  1  0  0  3  0  0  0  0  0  0
  189.0100  175.5770  143.5790 N   0  0  0  0  0  0  0  0  0  0  0  0
  189.3310  175.9270  146.7790 C   0  0  0  0  0  2  0  0  0  0  0  0
  186.5840  177.9870  145.1900 N   0  0  0  0  0  0  0  0  0  0  0  0
  186.8300  177.8250  147.5630 O   0  0  0  0  0  0  0  0  0  0  0  0
  186.2660  178.5620  146.5100 C   0  0  0  0  0  2  0  0  0  0  0  0
  190.1620  175.1670  145.7400 C   0  0  1  0  0  3  0  0  0  0  0  0
  188.2080  178.0340  147.4480 C   0  0  0  0  0  2  0  0  0  0  0  0
  188.1950  177.6930  143.0130 O   0  0  0  0  0  0  0  0  0  0  0  0
  188.2740  176.7740  143.8740 C   0  0  0  0  0  0  0  0  0  0  0  0
  189.2910  174.5870  144.6230 C   0  0  0  0  0  2  0  0  0  0  0  0
  188.7560  177.2440  146.2640 C   0  0  2  0  0  3  0  0  0  0  0  0
  188.2230  174.7260  141.4020 C   0  0  0  0  0  2  0  0  0  0  0  0
  190.6000  174.3950  142.1300 C   0  0  0  0  0  3  0  0  0  0  0  0
  188.6870  174.2700  140.0450 C   0  0  0  0  0  3  0  0  0  0  0  0
  189.9120  173.7470  139.8720 C   0  0  0  0  0  0  0  0  0  0  0  0
  189.3980  175.3020  142.1980 C   0  0  2  0  0  3  0  0  0  0  0  0
  190.8460  173.6980  141.0170 C   0  0  0  0  0  3  0  0  0  0  0  0
  190.3490  173.2420  138.6370 O   0  0  0  0  0  0  0  0  0  0  0  0
  191.5730  172.6060  138.3850 C   0  0  0  0  0  0  0  0  0  0  0  0
  192.5860  173.3610  137.9720 C   0  0  0  0  0  2  0  0  0  0  0  0
  191.7090  171.2180  138.5690 O   0  0  0  0  0  0  0  0  0  0  0  0
  189.6930  170.0690  138.4010 O   0  0  0  0  0  0  0  0  0  0  0  0
  190.7340  170.3360  139.0580 C   0  0  0  0  0  0  0  0  0  0  0  0
  190.9190  169.7290  140.4030 C   0  0  0  0  0  2  0  0  0  0  0  0
  192.1740  170.2820  141.0490 C   0  0  0  0  0  1  0  0  0  0  0  0
  191.2130  175.9750  145.2100 O   0  0  0  0  0  0  0  0  0  0  0  0
  194.3470  174.0110  145.7890 C   0  0  0  0  0  3  0  0  0  0  0  0
  192.5450  175.5560  145.1430 C   0  0  0  0  0  0  0  0  0  0  0  0
  193.4390  176.2810  144.3290 C   0  0  0  0  0  3  0  0  0  0  0  0
  195.7740  176.3820  143.5710 N   0  0  0  0  0  0  0  0  0  0  0  0
  195.1920  174.7590  144.9760 C   0  0  0  0  0  0  0  0  0  0  0  0
  197.4770  173.6230  145.1690 C   0  0  0  0  0  1  0  0  0  0  0  0
  193.0040  174.4240  145.8680 C   0  0  0  0  0  2  0  0  0  0  0  0
  194.7600  175.8470  144.2750 C   0  0  0  0  0  0  0  0  0  0  0  0
  196.8560  175.6460  143.8130 N   0  0  0  0  0  0  0  0  0  0  0  0
  196.5250  174.6510  144.6670 C   0  0  0  0  0  0  0  0  0  0  0  0
  185.3740  177.3220  144.7310 C   0  0  0  0  0  2  0  0  0  0  0  0
  184.4330  178.3420  144.1180 C   0  0  0  0  0  2  0  0  0  0  0  0
  184.9410  178.7690  142.7520 C   0  0  0  0  0  2  0  0  0  0  0  0
  184.4010  177.8960  141.7190 N   0  0  0  0  0  0  0  0  0  0  0  0
  182.9810  178.1870  141.6350 C   0  0  0  0  0  1  0  0  0  0  0  0
  186.1500  177.4930  140.1600 N   0  0  0  0  0  1  0  0  0  0  0  0
  184.9830  178.3080  140.4510 C   0  0  0  0  0  2  0  0  0  0  0  0
  1 10  1  6  0  0  0
  1 12  1  0  0  0  0
  2 10  1  0  0  0  0
  2 11  1  0  0  0  0
  4  1  1  0  0  0  0
  4  6  1  0  0  0  0
  6  5  1  0  0  0  0
  7 27  1  6  0  0  0
  7  3  1  0  0  0  0
  8  5  1  0  0  0  0
  9 10  2  0  0  0  0
 11  7  1  0  0  0  0
 12  3  1  1  0  0  0
 12  8  1  0  0  0  0
 14 17  1  0  0  0  0
 15 13  1  0  0  0  0
 16 15  2  0  0  0  0
 16 18  1  0  0  0  0
 17 13  1  6  0  0  0
 17  2  1  0  0  0  0
 18 14  2  0  0  0  0
 19 16  1  0  0  0  0
 20 22  1  0  0  0  0
 20 19  1  0  0  0  0
 21 20  2  0  0  0  0
 22 24  1  0  0  0  0
 23 24  2  0  0  0  0
 24 25  1  0  0  0  0
 25 26  1  0  0  0  0
 28 34  1  0  0  0  0
 29 27  1  0  0  0  0
 29 34  1  0  0  0  0
 30 29  2  0  0  0  0
 31 36  1  0  0  0  0
 31 35  2  0  0  0  0
 32 28  2  0  0  0  0
 35 30  1  0  0  0  0
 35 32  1  0  0  0  0
 36 37  2  0  0  0  0
 37 32  1  0  0  0  0
 37 33  1  0  0  0  0
 38  4  1  0  0  0  0
 39 38  1  0  0  0  0
 40 39  1  0  0  0  0
 41 40  1  0  0  0  0
 42 41  1  0  0  0  0
 43 44  1  0  0  0  0
 44 41  1  0  0  0  0
M  END
>  <MODEL>
3

>  <REMARK>
 VINA RESULT:      -6.8      3.226      8.858
  Name = 
  13 active torsions:
  status: ('A' for Active; 'I' for Inactive)
    1  A    between atoms: O_3  and  C_12
    2  A    between atoms: O_3  and  C_29
    3  A    between atoms: N_6  and  C_30
    4  A    between atoms: C_9  and  C_16
    5  A    between atoms: C_9  and  C_19
    6  A    between atoms: N_13  and  C_16
    7  A    between atoms: N_15  and  C_19
    8  A    between atoms: N_15  and  C_40
    9  A    between atoms: C_17  and  C_22
   10  A    between atoms: C_21  and  O_32
   11  A    between atoms: C_22  and  O_39
   12  A    between atoms: C_31  and  O_32
   13  A    between atoms: C_31  and  O_39
                            x       y       z     vdW  Elec       q    Type
                         _______ _______ _______ _____ _____    ______ ____

>  <TORSDO>
F 13

$$$$
=
 OpenBabel11042417043D

 44 48  0  0  1  0  0  0  0  0999 V2000
  188.0160  176.5560  144.9820 C   0  0  1  0  0  3  0  0  0  0  0  0
  189.8400  175.2460  143.7760 N   0  0  0  0  0  0  0  0  0  0  0  0
  189.1990  175.5120  146.9350 C   0  0  0  0  0  2  0  0  0  0  0  0
  186.9790  177.5550  144.6520 N   0  0  0  0  0  0  0  0  0  0  0  0
  186.5230  177.3310  146.9890 O   0  0  0  0  0  0  0  0  0  0  0  0
  186.2710  178.0850  145.8320 C   0  0  0  0  0  2  0  0  0  0  0  0
  190.3190  174.8010  146.1700 C   0  0  1  0  0  3  0  0  0  0  0  0
  187.8680  177.5730  147.2870 C   0  0  0  0  0  2  0  0  0  0  0  0
  189.1650  177.3580  143.0380 O   0  0  0  0  0  0  0  0  0  0  0  0
  189.0150  176.4170  143.8660 C   0  0  0  0  0  0  0  0  0  0  0  0
  189.8320  174.2330  144.8350 C   0  0  0  0  0  2  0  0  0  0  0  0
  188.7610  176.8300  146.3000 C   0  0  2  0  0  3  0  0  0  0  0  0
  190.7100  173.5240  142.2380 C   0  0  0  0  0  2  0  0  0  0  0  0
  191.9960  175.6340  142.6670 C   0  0  0  0  0  3  0  0  0  0  0  0
  191.6750  173.2930  141.1070 C   0  0  0  0  0  3  0  0  0  0  0  0
  192.7700  174.0570  140.9640 C   0  0  0  0  0  0  0  0  0  0  0  0
  190.6240  175.0180  142.5640 C   0  0  2  0  0  3  0  0  0  0  0  0
  192.9840  175.1940  141.8830 C   0  0  0  0  0  3  0  0  0  0  0  0
  193.7290  173.8210  139.9650 O   0  0  0  0  0  0  0  0  0  0  0  0
  194.1070  174.7100  138.9490 C   0  0  0  0  0  0  0  0  0  0  0  0
  193.2420  174.9200  137.9610 C   0  0  0  0  0  2  0  0  0  0  0  0
  195.3580  175.3510  138.9880 O   0  0  0  0  0  0  0  0  0  0  0  0
  197.0790  174.3700  140.2090 O   0  0  0  0  0  0  0  0  0  0  0  0
  196.2800  175.3300  140.0460 C   0  0  0  0  0  0  0  0  0  0  0  0
  196.2880  176.4550  141.0180 C   0  0  0  0  0  2  0  0  0  0  0  0
  196.6650  175.9450  142.3940 C   0  0  0  0  0  1  0  0  0  0  0  0
  191.4550  175.6450  145.9890 O   0  0  0  0  0  0  0  0  0  0  0  0
  195.1900  175.5380  145.7580 C   0  0  0  0  0  3  0  0  0  0  0  0
  192.7610  175.1620  145.8620 C   0  0  0  0  0  0  0  0  0  0  0  0
  192.9550  173.7740  145.7140 C   0  0  0  0  0  3  0  0  0  0  0  0
  194.6760  172.0430  145.4410 N   0  0  0  0  0  0  0  0  0  0  0  0
  195.3310  174.1620  145.6110 C   0  0  0  0  0  0  0  0  0  0  0  0
  197.8530  173.7690  145.4260 C   0  0  0  0  0  1  0  0  0  0  0  0
  193.8800  176.0360  145.8840 C   0  0  0  0  0  2  0  0  0  0  0  0
  194.2620  173.3130  145.5900 C   0  0  0  0  0  0  0  0  0  0  0  0
  196.0050  172.0660  145.3660 N   0  0  0  0  0  0  0  0  0  0  0  0
  196.4260  173.3480  145.4670 C   0  0  0  0  0  0  0  0  0  0  0  0
  185.9770  176.8770  143.8440 C   0  0  0  0  0  2  0  0  0  0  0  0
  184.8150  177.8160  143.5770 C   0  0  0  0  0  2  0  0  0  0  0  0
  185.0720  178.6210  142.3160 C   0  0  0  0  0  2  0  0  0  0  0  0
  185.2480  177.7300  141.1780 N   0  0  0  0  0  0  0  0  0  0  0  0
  184.3300  178.1890  140.1500 C   0  0  0  0  0  1  0  0  0  0  0  0
  186.6630  177.4840  139.2830 N   0  0  0  0  0  1  0  0  0  0  0  0
  186.5890  177.9450  140.6590 C   0  0  0  0  0  2  0  0  0  0  0  0
  1 10  1  6  0  0  0
  1 12  1  0  0  0  0
  2 10  1  0  0  0  0
  2 11  1  0  0  0  0
  4  1  1  0  0  0  0
  4  6  1  0  0  0  0
  5  8  1  0  0  0  0
  6  5  1  0  0  0  0
  7 27  1  6  0  0  0
  7  3  1  0  0  0  0
  9 10  2  0  0  0  0
 11  7  1  0  0  0  0
 12  3  1  1  0  0  0
 12  8  1  0  0  0  0
 15 13  1  0  0  0  0
 16 15  2  0  0  0  0
 16 18  1  0  0  0  0
 17 13  1  1  0  0  0
 17 14  1  0  0  0  0
 17  2  1  0  0  0  0
 18 14  2  0  0  0  0
 19 16  1  0  0  0  0
 20 22  1  0  0  0  0
 20 19  1  0  0  0  0
 21 20  2  0  0  0  0
 22 24  1  0  0  0  0
 24 23  2  0  0  0  0
 24 25  1  0  0  0  0
 25 26  1  0  0  0  0
 28 34  1  0  0  0  0
 29 34  1  0  0  0  0
 29 27  1  0  0  0  0
 30 29  2  0  0  0  0
 31 35  2  0  0  0  0
 32 28  2  0  0  0  0
 33 37  1  0  0  0  0
 35 32  1  0  0  0  0
 35 30  1  0  0  0  0
 36 31  1  0  0  0  0
 36 37  2  0  0  0  0
 37 32  1  0  0  0  0
 38  4  1  0  0  0  0
 39 38  1  0  0  0  0
 40 39  1  0  0  0  0
 41 40  1  0  0  0  0
 42 41  1  0  0  0  0
 43 44  1  0  0  0  0
 44 41  1  0  0  0  0
M  END
>  <MODEL>
4

>  <REMARK>
 VINA RESULT:      -6.8      2.672      8.846
  Name = 
  13 active torsions:
  status: ('A' for Active; 'I' for Inactive)
    1  A    between atoms: O_3  and  C_12
    2  A    between atoms: O_3  and  C_29
    3  A    between atoms: N_6  and  C_30
    4  A    between atoms: C_9  and  C_16
    5  A    between atoms: C_9  and  C_19
    6  A    between atoms: N_13  and  C_16
    7  A    between atoms: N_15  and  C_19
    8  A    between atoms: N_15  and  C_40
    9  A    between atoms: C_17  and  C_22
   10  A    between atoms: C_21  and  O_32
   11  A    between atoms: C_22  and  O_39
   12  A    between atoms: C_31  and  O_32
   13  A    between atoms: C_31  and  O_39
                            x       y       z     vdW  Elec       q    Type
                         _______ _______ _______ _____ _____    ______ ____

>  <TORSDO>
F 13

$$$$
=
 OpenBabel11042417043D

 44 48  0  0  1  0  0  0  0  0999 V2000
  188.1220  176.0360  144.6010 C   0  0  1  0  0  3  0  0  0  0  0  0
  189.3170  174.4500  143.0030 N   0  0  0  0  0  0  0  0  0  0  0  0
  189.4400  174.6530  146.2290 C   0  0  0  0  0  2  0  0  0  0  0  0
  187.2800  177.2490  144.5220 N   0  0  0  0  0  0  0  0  0  0  0  0
  187.2980  176.9840  146.8990 O   0  0  0  0  0  0  0  0  0  0  0  0
  186.9740  177.8420  145.8360 C   0  0  0  0  0  2  0  0  0  0  0  0
  190.1890  173.7710  145.2250 C   0  0  1  0  0  3  0  0  0  0  0  0
  188.6950  176.9210  146.8950 C   0  0  0  0  0  2  0  0  0  0  0  0
  188.9740  176.6980  142.4610 O   0  0  0  0  0  0  0  0  0  0  0  0
  188.8040  175.7600  143.2890 C   0  0  0  0  0  0  0  0  0  0  0  0
  189.3160  173.3990  144.0240 C   0  0  0  0  0  2  0  0  0  0  0  0
  189.1730  176.0690  145.7240 C   0  0  2  0  0  3  0  0  0  0  0  0
  188.9860  172.9380  141.0820 C   0  0  0  0  0  2  0  0  0  0  0  0
  191.2430  173.9110  141.5800 C   0  0  0  0  0  3  0  0  0  0  0  0
  189.5780  172.5100  139.7670 C   0  0  0  0  0  3  0  0  0  0  0  0
  190.8990  172.6060  139.5390 C   0  0  0  0  0  0  0  0  0  0  0  0
  189.7540  174.1380  141.6440 C   0  0  2  0  0  3  0  0  0  0  0  0
  191.7680  173.2190  140.5640 C   0  0  0  0  0  3  0  0  0  0  0  0
  191.4940  172.1460  138.3520 O   0  0  0  0  0  0  0  0  0  0  0  0
  191.6070  170.8090  137.9430 C   0  0  0  0  0  0  0  0  0  0  0  0
  191.3900  170.5370  136.6610 C   0  0  0  0  0  2  0  0  0  0  0  0
  191.9420  169.8040  138.8690 O   0  0  0  0  0  0  0  0  0  0  0  0
  190.2990  168.1760  139.1300 O   0  0  0  0  0  0  0  0  0  0  0  0
  191.0510  169.0460  139.6440 C   0  0  0  0  0  0  0  0  0  0  0  0
  190.9690  169.3050  141.1070 C   0  0  0  0  0  2  0  0  0  0  0  0
  192.3270  169.7220  141.6330 C   0  0  0  0  0  1  0  0  0  0  0  0
  191.4160  174.3690  144.8080 O   0  0  0  0  0  0  0  0  0  0  0  0
  194.1300  171.7920  144.8890 C   0  0  0  0  0  3  0  0  0  0  0  0
  192.6650  173.7660  144.9830 C   0  0  0  0  0  0  0  0  0  0  0  0
  193.7390  174.5590  145.4350 C   0  0  0  0  0  3  0  0  0  0  0  0
  196.1240  174.4980  146.0190 N   0  0  0  0  0  0  0  0  0  0  0  0
  195.1580  172.6130  145.3390 C   0  0  0  0  0  0  0  0  0  0  0  0
  197.2070  171.0890  145.4950 C   0  0  0  0  0  1  0  0  0  0  0  0
  192.8670  172.3870  144.7110 C   0  0  0  0  0  3  0  0  0  0  0  0
  194.9740  173.9400  145.6020 C   0  0  0  0  0  0  0  0  0  0  0  0
  197.0490  173.5400  146.0260 N   0  0  0  0  0  2  0  0  0  0  0  0
  196.4820  172.3830  145.6160 C   0  0  0  0  0  0  0  0  0  0  0  0
  186.0060  176.8440  143.9480 C   0  0  0  0  0  2  0  0  0  0  0  0
  184.9900  177.9590  144.1240 C   0  0  0  0  0  2  0  0  0  0  0  0
  184.8230  178.7240  142.8220 C   0  0  0  0  0  2  0  0  0  0  0  0
  184.1340  177.8990  141.8400 N   0  0  0  0  0  0  0  0  0  0  0  0
  182.7500  178.3370  141.8320 C   0  0  0  0  0  1  0  0  0  0  0  0
  186.1230  178.0700  140.5490 N   0  0  0  0  0  1  0  0  0  0  0  0
  184.6800  178.2300  140.5330 C   0  0  0  0  0  2  0  0  0  0  0  0
  1 10  1  6  0  0  0
  1 12  1  0  0  0  0
  2 10  1  0  0  0  0
  2 11  1  0  0  0  0
  4  1  1  0  0  0  0
  4  6  1  0  0  0  0
  6  5  1  0  0  0  0
  7 27  1  6  0  0  0
  7  3  1  0  0  0  0
  8  5  1  0  0  0  0
  9 10  2  0  0  0  0
 11  7  1  0  0  0  0
 12  3  1  1  0  0  0
 12  8  1  0  0  0  0
 14 17  1  0  0  0  0
 15 13  1  0  0  0  0
 16 15  2  0  0  0  0
 16 18  1  0  0  0  0
 17 13  1  1  0  0  0
 17  2  1  0  0  0  0
 18 14  2  0  0  0  0
 19 16  1  0  0  0  0
 20 19  1  0  0  0  0
 20 22  1  0  0  0  0
 21 20  2  0  0  0  0
 22 24  1  0  0  0  0
 23 24  2  0  0  0  0
 24 25  1  0  0  0  0
 25 26  1  0  0  0  0
 27 29  1  0  0  0  0
 28 32  1  0  0  0  0
 29 30  2  0  0  0  0
 30 35  1  0  0  0  0
 31 36  1  0  0  0  0
 32 35  1  0  0  0  0
 32 37  2  0  0  0  0
 33 37  1  0  0  0  0
 34 28  2  0  0  0  0
 34 29  1  0  0  0  0
 35 31  2  0  0  0  0
 37 36  1  0  0  0  0
 38 39  1  0  0  0  0
 38  4  1  0  0  0  0
 40 39  1  0  0  0  0
 41 40  1  0  0  0  0
 42 41  1  0  0  0  0
 44 43  1  0  0  0  0
 44 41  1  0  0  0  0
M  END
>  <MODEL>
5

>  <REMARK>
 VINA RESULT:      -6.7      3.549      9.056
  Name = 
  13 active torsions:
  status: ('A' for Active; 'I' for Inactive)
    1  A    between atoms: O_3  and  C_12
    2  A    between atoms: O_3  and  C_29
    3  A    between atoms: N_6  and  C_30
    4  A    between atoms: C_9  and  C_16
    5  A    between atoms: C_9  and  C_19
    6  A    between atoms: N_13  and  C_16
    7  A    between atoms: N_15  and  C_19
    8  A    between atoms: N_15  and  C_40
    9  A    between atoms: C_17  and  C_22
   10  A    between atoms: C_21  and  O_32
   11  A    between atoms: C_22  and  O_39
   12  A    between atoms: C_31  and  O_32
   13  A    between atoms: C_31  and  O_39
                            x       y       z     vdW  Elec       q    Type
                         _______ _______ _______ _____ _____    ______ ____

>  <TORSDO>
F 13

$$$$
=
 OpenBabel11042417043D

 44 48  0  0  1  0  0  0  0  0999 V2000
  195.2190  173.0430  143.6150 C   0  0  1  0  0  3  0  0  0  0  0  0
  193.1480  174.4800  143.2390 N   0  0  0  0  0  0  0  0  0  0  0  0
  195.1090  174.2690  145.8030 C   0  0  0  0  0  2  0  0  0  0  0  0
  195.9260  171.9340  142.9410 N   0  0  0  0  0  0  0  0  0  0  0  0
  197.3900  172.1990  144.8130 O   0  0  0  0  0  0  0  0  0  0  0  0
  197.0450  171.3820  143.7250 C   0  0  0  0  0  2  0  0  0  0  0  0
  193.8190  175.0590  145.5570 C   0  0  1  0  0  3  0  0  0  0  0  0
  196.3050  172.1020  145.6910 C   0  0  0  0  0  2  0  0  0  0  0  0
  193.2700  172.2850  142.4450 O   0  0  0  0  0  0  0  0  0  0  0  0
  193.8400  173.2370  143.0460 C   0  0  0  0  0  0  0  0  0  0  0  0
  193.6990  175.5260  144.1050 C   0  0  0  0  0  2  0  0  0  0  0  0
  195.1220  172.8920  145.1440 C   0  0  2  0  0  3  0  0  0  0  0  0
  191.2850  176.0630  142.9080 C   0  0  0  0  0  2  0  0  0  0  0  0
  190.9470  173.5970  142.6030 C   0  0  0  0  0  3  0  0  0  0  0  0
  189.9340  176.2200  142.2650 C   0  0  0  0  0  3  0  0  0  0  0  0
  189.1450  175.1560  142.0420 C   0  0  0  0  0  0  0  0  0  0  0  0
  191.9250  174.7380  142.4830 C   0  0  2  0  0  3  0  0  0  0  0  0
  189.6490  173.8030  142.3580 C   0  0  0  0  0  3  0  0  0  0  0  0
  187.8500  175.2750  141.5130 O   0  0  0  0  0  0  0  0  0  0  0  0
  187.0150  176.3980  141.6050 C   0  0  0  0  0  0  0  0  0  0  0  0
  186.9900  177.2330  140.5710 C   0  0  0  0  0  2  0  0  0  0  0  0
  186.2370  176.6190  142.7560 O   0  0  0  0  0  0  0  0  0  0  0  0
  184.3070  177.9190  142.7460 O   0  0  0  0  0  0  0  0  0  0  0  0
  185.5150  177.7800  143.0720 C   0  0  0  0  0  0  0  0  0  0  0  0
  186.2090  178.8900  143.7800 C   0  0  0  0  0  2  0  0  0  0  0  0
  185.1880  179.8360  144.3780 C   0  0  0  0  0  1  0  0  0  0  0  0
  192.6640  174.3240  145.9610 O   0  0  0  0  0  0  0  0  0  0  0  0
  188.9540  174.8210  146.0190 C   0  0  0  0  0  3  0  0  0  0  0  0
  191.4090  174.9080  146.1550 C   0  0  0  0  0  0  0  0  0  0  0  0
  191.3460  176.2050  146.7050 C   0  0  0  0  0  3  0  0  0  0  0  0
  189.7940  177.9800  147.3950 N   0  0  0  0  0  0  0  0  0  0  0  0
  188.9430  176.1020  146.5600 C   0  0  0  0  0  0  0  0  0  0  0  0
  186.4680  176.7300  146.7280 C   0  0  0  0  0  1  0  0  0  0  0  0
  190.2110  174.2230  145.8160 C   0  0  0  0  0  3  0  0  0  0  0  0
  190.0870  176.7680  146.8910 C   0  0  0  0  0  0  0  0  0  0  0  0
  188.4690  178.0990  147.3920 N   0  0  0  0  0  2  0  0  0  0  0  0
  187.9290  176.9660  146.8880 C   0  0  0  0  0  0  0  0  0  0  0  0
  196.5080  172.4800  141.7240 C   0  0  0  0  0  2  0  0  0  0  0  0
  197.3100  173.7260  142.0570 C   0  0  0  0  0  2  0  0  0  0  0  0
  197.2490  174.7100  140.9020 C   0  0  0  0  0  2  0  0  0  0  0  0
  197.2320  176.0760  141.4060 N   0  0  0  0  0  0  0  0  0  0  0  0
  195.8670  176.5500  141.2650 C   0  0  0  0  0  1  0  0  0  0  0  0
  196.8130  177.1030  143.5090 N   0  0  0  0  0  1  0  0  0  0  0  0
  197.5030  176.0180  142.8330 C   0  0  0  0  0  2  0  0  0  0  0  0
  1 10  1  6  0  0  0
  1 12  1  0  0  0  0
  2 11  1  0  0  0  0
  4  1  1  0  0  0  0
  4  6  1  0  0  0  0
  5  8  1  0  0  0  0
  6  5  1  0  0  0  0
  7  3  1  0  0  0  0
  7 27  1  6  0  0  0
  9 10  2  0  0  0  0
 10  2  1  0  0  0  0
 11  7  1  0  0  0  0
 12  8  1  1  0  0  0
 12  3  1  0  0  0  0
 15 13  1  0  0  0  0
 16 15  2  0  0  0  0
 16 18  1  0  0  0  0
 17 14  1  1  0  0  0
 17 13  1  0  0  0  0
 17  2  1  0  0  0  0
 18 14  2  0  0  0  0
 19 20  1  0  0  0  0
 19 16  1  0  0  0  0
 20 22  1  0  0  0  0
 21 20  2  0  0  0  0
 22 24  1  0  0  0  0
 23 24  2  0  0  0  0
 24 25  1  0  0  0  0
 25 26  1  0  0  0  0
 27 29  1  0  0  0  0
 28 32  1  0  0  0  0
 29 30  2  0  0  0  0
 30 35  1  0  0  0  0
 32 37  2  0  0  0  0
 32 35  1  0  0  0  0
 33 37  1  0  0  0  0
 34 28  2  0  0  0  0
 34 29  1  0  0  0  0
 35 31  2  0  0  0  0
 36 31  1  0  0  0  0
 37 36  1  0  0  0  0
 38 39  1  0  0  0  0
 38  4  1  0  0  0  0
 40 41  1  0  0  0  0
 40 39  1  0  0  0  0
 41 44  1  0  0  0  0
 42 41  1  0  0  0  0
 44 43  1  0  0  0  0
M  END
>  <MODEL>
6

>  <REMARK>
 VINA RESULT:      -6.6      1.463      2.193
  Name = 
  13 active torsions:
  status: ('A' for Active; 'I' for Inactive)
    1  A    between atoms: O_3  and  C_12
    2  A    between atoms: O_3  and  C_29
    3  A    between atoms: N_6  and  C_30
    4  A    between atoms: C_9  and  C_16
    5  A    between atoms: C_9  and  C_19
    6  A    between atoms: N_13  and  C_16
    7  A    between atoms: N_15  and  C_19
    8  A    between atoms: N_15  and  C_40
    9  A    between atoms: C_17  and  C_22
   10  A    between atoms: C_21  and  O_32
   11  A    between atoms: C_22  and  O_39
   12  A    between atoms: C_31  and  O_32
   13  A    between atoms: C_31  and  O_39
                            x       y       z     vdW  Elec       q    Type
                         _______ _______ _______ _____ _____    ______ ____

>  <TORSDO>
F 13

$$$$
=
 OpenBabel11042417043D

 44 48  0  0  1  0  0  0  0  0999 V2000
  188.2310  176.0450  144.7470 C   0  0  1  0  0  3  0  0  0  0  0  0
  189.4110  174.2590  143.3620 N   0  0  0  0  0  0  0  0  0  0  0  0
  189.6310  174.9440  146.5160 C   0  0  0  0  0  2  0  0  0  0  0  0
  187.3600  177.2160  144.5180 N   0  0  0  0  0  0  0  0  0  0  0  0
  187.4580  177.3100  146.9050 O   0  0  0  0  0  0  0  0  0  0  0  0
  187.0810  177.9940  145.7380 C   0  0  0  0  0  2  0  0  0  0  0  0
  190.3680  173.9350  145.6290 C   0  0  1  0  0  3  0  0  0  0  0  0
  188.8560  177.2730  146.8620 C   0  0  0  0  0  2  0  0  0  0  0  0
  189.0010  176.3930  142.5040 O   0  0  0  0  0  0  0  0  0  0  0  0
  188.8780  175.5880  143.4680 C   0  0  0  0  0  0  0  0  0  0  0  0
  189.4660  173.3720  144.5280 C   0  0  0  0  0  2  0  0  0  0  0  0
  189.3160  176.2640  145.8160 C   0  0  2  0  0  3  0  0  0  0  0  0
  189.6470  172.2340  141.9730 C   0  0  0  0  0  2  0  0  0  0  0  0
  191.2210  174.1680  141.7060 C   0  0  0  0  0  3  0  0  0  0  0  0
  190.2430  171.7100  140.6950 C   0  0  0  0  0  3  0  0  0  0  0  0
  191.3370  172.2770  140.1570 C   0  0  0  0  0  0  0  0  0  0  0  0
  189.8130  173.7550  142.0510 C   0  0  2  0  0  3  0  0  0  0  0  0
  191.9100  173.4840  140.7880 C   0  0  0  0  0  3  0  0  0  0  0  0
  191.9620  171.7670  139.0080 O   0  0  0  0  0  0  0  0  0  0  0  0
  191.7670  172.2080  137.6910 C   0  0  0  0  0  0  0  0  0  0  0  0
  192.8060  172.7460  137.0610 C   0  0  0  0  0  2  0  0  0  0  0  0
  190.5110  172.0760  137.0720 O   0  0  0  0  0  0  0  0  0  0  0  0
  189.3700  173.1890  135.3760 O   0  0  0  0  0  0  0  0  0  0  0  0
  189.6990  173.1140  136.5890 C   0  0  0  0  0  0  0  0  0  0  0  0
  189.2470  174.1730  137.5310 C   0  0  0  0  0  2  0  0  0  0  0  0
  188.1940  173.6140  138.4670 C   0  0  0  0  0  1  0  0  0  0  0  0
  191.5670  174.4860  145.0850 O   0  0  0  0  0  0  0  0  0  0  0  0
  194.2070  171.8330  145.0480 C   0  0  0  0  0  3  0  0  0  0  0  0
  192.8110  173.8550  145.1700 C   0  0  0  0  0  0  0  0  0  0  0  0
  193.9470  174.6380  145.4620 C   0  0  0  0  0  3  0  0  0  0  0  0
  196.3770  174.5350  145.8050 N   0  0  0  0  0  0  0  0  0  0  0  0
  195.2970  172.6460  145.3420 C   0  0  0  0  0  0  0  0  0  0  0  0
  197.3110  171.0680  145.3820 C   0  0  0  0  0  1  0  0  0  0  0  0
  192.9490  172.4560  144.9630 C   0  0  0  0  0  3  0  0  0  0  0  0
  195.1760  173.9910  145.5410 C   0  0  0  0  0  0  0  0  0  0  0  0
  197.2720  173.5500  145.7770 N   0  0  0  0  0  2  0  0  0  0  0  0
  196.6360  172.3890  145.4970 C   0  0  0  0  0  0  0  0  0  0  0  0
  186.0770  176.7080  144.0540 C   0  0  0  0  0  2  0  0  0  0  0  0
  185.3030  177.8220  143.3730 C   0  0  0  0  0  2  0  0  0  0  0  0
  186.1590  178.4730  142.3010 C   0  0  0  0  0  2  0  0  0  0  0  0
  185.3950  178.6270  141.0710 N   0  0  0  0  0  0  0  0  0  0  0  0
  185.8860  177.6180  140.1510 C   0  0  0  0  0  1  0  0  0  0  0  0
  183.3120  177.9600  140.1380 N   0  0  0  0  0  1  0  0  0  0  0  0
  184.0150  178.2770  141.3690 C   0  0  0  0  0  2  0  0  0  0  0  0
  1 10  1  6  0  0  0
  1 12  1  0  0  0  0
  2 10  1  0  0  0  0
  2 11  1  0  0  0  0
  4  1  1  0  0  0  0
  4  6  1  0  0  0  0
  6  5  1  0  0  0  0
  7 27  1  6  0  0  0
  7  3  1  0  0  0  0
  8  5  1  0  0  0  0
  9 10  2  0  0  0  0
 11  7  1  0  0  0  0
 12  3  1  1  0  0  0
 12  8  1  0  0  0  0
 13 17  1  0  0  0  0
 15 13  1  0  0  0  0
 16 15  2  0  0  0  0
 16 18  1  0  0  0  0
 17 14  1  1  0  0  0
 17  2  1  0  0  0  0
 18 14  2  0  0  0  0
 19 16  1  0  0  0  0
 20 19  1  0  0  0  0
 21 20  2  0  0  0  0
 22 20  1  0  0  0  0
 23 24  2  0  0  0  0
 24 22  1  0  0  0  0
 24 25  1  0  0  0  0
 25 26  1  0  0  0  0
 27 29  1  0  0  0  0
 28 32  1  0  0  0  0
 29 30  2  0  0  0  0
 30 35  1  0  0  0  0
 32 37  2  0  0  0  0
 32 35  1  0  0  0  0
 33 37  1  0  0  0  0
 34 28  2  0  0  0  0
 34 29  1  0  0  0  0
 35 31  2  0  0  0  0
 36 31  1  0  0  0  0
 37 36  1  0  0  0  0
 38  4  1  0  0  0  0
 39 38  1  0  0  0  0
 40 39  1  0  0  0  0
 41 44  1  0  0  0  0
 41 40  1  0  0  0  0
 42 41  1  0  0  0  0
 43 44  1  0  0  0  0
M  END
>  <MODEL>
7

>  <REMARK>
 VINA RESULT:      -6.5      3.570      8.588
  Name = 
  13 active torsions:
  status: ('A' for Active; 'I' for Inactive)
    1  A    between atoms: O_3  and  C_12
    2  A    between atoms: O_3  and  C_29
    3  A    between atoms: N_6  and  C_30
    4  A    between atoms: C_9  and  C_16
    5  A    between atoms: C_9  and  C_19
    6  A    between atoms: N_13  and  C_16
    7  A    between atoms: N_15  and  C_19
    8  A    between atoms: N_15  and  C_40
    9  A    between atoms: C_17  and  C_22
   10  A    between atoms: C_21  and  O_32
   11  A    between atoms: C_22  and  O_39
   12  A    between atoms: C_31  and  O_32
   13  A    between atoms: C_31  and  O_39
                            x       y       z     vdW  Elec       q    Type
                         _______ _______ _______ _____ _____    ______ ____

>  <TORSDO>
F 13

$$$$
=
 OpenBabel11042417043D

 44 48  0  0  1  0  0  0  0  0999 V2000
  190.6650  172.8410  138.5000 C   0  0  1  0  0  3  0  0  0  0  0  0
  190.8960  173.1630  141.0190 N   0  0  0  0  0  0  0  0  0  0  0  0
  188.2990  173.4210  139.1070 C   0  0  0  0  0  2  0  0  0  0  0  0
  191.5470  172.6360  137.3330 N   0  0  0  0  0  0  0  0  0  0  0  0
  189.4420  172.5740  136.2000 O   0  0  0  0  0  0  0  0  0  0  0  0
  190.8350  172.6530  136.0420 C   0  0  0  0  0  2  0  0  0  0  0  0
  188.5030  173.6740  140.6040 C   0  0  1  0  0  3  0  0  0  0  0  0
  189.0780  173.7930  136.7830 C   0  0  0  0  0  2  0  0  0  0  0  0
  192.5670  173.8620  139.5420 O   0  0  0  0  0  0  0  0  0  0  0  0
  191.4470  173.3020  139.7000 C   0  0  0  0  0  0  0  0  0  0  0  0
  189.5170  172.7060  141.2170 C   0  0  0  0  0  2  0  0  0  0  0  0
  189.5000  173.8140  138.2480 C   0  0  2  0  0  3  0  0  0  0  0  0
  191.3370  172.5010  143.3540 C   0  0  0  0  0  2  0  0  0  0  0  0
  191.7830  174.8420  142.5740 C   0  0  0  0  0  3  0  0  0  0  0  0
  192.1030  172.8810  144.5920 C   0  0  0  0  0  3  0  0  0  0  0  0
  192.4490  174.1580  144.8270 C   0  0  0  0  0  0  0  0  0  0  0  0
  191.7560  173.3880  142.1770 C   0  0  2  0  0  3  0  0  0  0  0  0
  192.1450  175.1880  143.8130 C   0  0  0  0  0  3  0  0  0  0  0  0
  193.0960  174.5580  146.0070 O   0  0  0  0  0  0  0  0  0  0  0  0
  193.0200  175.8220  146.6090 C   0  0  0  0  0  0  0  0  0  0  0  0
  194.0730  176.6250  146.4900 C   0  0  0  0  0  2  0  0  0  0  0  0
  191.8640  176.2130  147.3090 O   0  0  0  0  0  0  0  0  0  0  0  0
  190.4650  177.4030  145.8800 O   0  0  0  0  0  0  0  0  0  0  0  0
  190.6090  176.5100  146.7560 C   0  0  0  0  0  0  0  0  0  0  0  0
  189.4130  175.7740  147.2470 C   0  0  0  0  0  2  0  0  0  0  0  0
  189.4030  174.3700  146.6770 C   0  0  0  0  0  1  0  0  0  0  0  0
  188.8570  175.0310  140.8680 O   0  0  0  0  0  0  0  0  0  0  0  0
  187.6300  176.4880  144.0910 C   0  0  0  0  0  3  0  0  0  0  0  0
  188.1740  175.8410  141.7810 C   0  0  0  0  0  0  0  0  0  0  0  0
  187.3300  176.8540  141.2830 C   0  0  0  0  0  3  0  0  0  0  0  0
  185.8140  178.6640  141.9600 N   0  0  0  0  0  0  0  0  0  0  0  0
  186.8070  177.4710  143.5530 C   0  0  0  0  0  0  0  0  0  0  0  0
  185.8000  178.6740  145.5750 C   0  0  0  0  0  1  0  0  0  0  0  0
  188.3200  175.6640  143.1830 C   0  0  0  0  0  3  0  0  0  0  0  0
  186.6600  177.6500  142.2080 C   0  0  0  0  0  0  0  0  0  0  0  0
  185.4130  179.1420  143.1360 N   0  0  0  0  0  2  0  0  0  0  0  0
  186.0060  178.4290  144.1220 C   0  0  0  0  0  0  0  0  0  0  0  0
  192.1240  171.3060  137.4640 C   0  0  0  0  0  2  0  0  0  0  0  0
  193.5890  171.3440  137.0710 C   0  0  0  0  0  2  0  0  0  0  0  0
  194.4610  171.0110  138.2690 C   0  0  0  0  0  2  0  0  0  0  0  0
  195.3660  172.1140  138.5540 N   0  0  0  0  0  0  0  0  0  0  0  0
  196.6920  171.5370  138.6830 C   0  0  0  0  0  1  0  0  0  0  0  0
  195.5370  174.3560  137.7800 N   0  0  0  0  0  1  0  0  0  0  0  0
  195.4000  172.9670  137.3770 C   0  0  0  0  0  2  0  0  0  0  0  0
  1 10  1  1  0  0  0
  2 11  1  0  0  0  0
  3  7  1  0  0  0  0
  4 38  1  0  0  0  0
  4  1  1  0  0  0  0
  5  8  1  0  0  0  0
  6  5  1  0  0  0  0
  6  4  1  0  0  0  0
  7 27  1  6  0  0  0
  7 11  1  0  0  0  0
  9 10  2  0  0  0  0
 10  2  1  0  0  0  0
 12  8  1  6  0  0  0
 12  1  1  0  0  0  0
 12  3  1  0  0  0  0
 13 15  1  0  0  0  0
 14 18  2  0  0  0  0
 15 16  2  0  0  0  0
 16 19  1  0  0  0  0
 17  2  1  6  0  0  0
 17 14  1  0  0  0  0
 17 13  1  0  0  0  0
 18 16  1  0  0  0  0
 19 20  1  0  0  0  0
 20 22  1  0  0  0  0
 21 20  2  0  0  0  0
 23 24  2  0  0  0  0
 24 25  1  0  0  0  0
 24 22  1  0  0  0  0
 26 25  1  0  0  0  0
 27 29  1  0  0  0  0
 29 34  1  0  0  0  0
 30 29  2  0  0  0  0
 30 35  1  0  0  0  0
 31 35  2  0  0  0  0
 31 36  1  0  0  0  0
 32 28  1  0  0  0  0
 32 37  2  0  0  0  0
 34 28  2  0  0  0  0
 35 32  1  0  0  0  0
 36 37  1  0  0  0  0
 37 33  1  0  0  0  0
 39 38  1  0  0  0  0
 39 40  1  0  0  0  0
 40 41  1  0  0  0  0
 41 42  1  0  0  0  0
 44 43  1  0  0  0  0
 44 41  1  0  0  0  0
M  END
>  <MODEL>
8

>  <REMARK>
 VINA RESULT:      -6.5      3.214      6.434
  Name = 
  13 active torsions:
  status: ('A' for Active; 'I' for Inactive)
    1  A    between atoms: O_3  and  C_12
    2  A    between atoms: O_3  and  C_29
    3  A    between atoms: N_6  and  C_30
    4  A    between atoms: C_9  and  C_16
    5  A    between atoms: C_9  and  C_19
    6  A    between atoms: N_13  and  C_16
    7  A    between atoms: N_15  and  C_19
    8  A    between atoms: N_15  and  C_40
    9  A    between atoms: C_17  and  C_22
   10  A    between atoms: C_21  and  O_32
   11  A    between atoms: C_22  and  O_39
   12  A    between atoms: C_31  and  O_32
   13  A    between atoms: C_31  and  O_39
                            x       y       z     vdW  Elec       q    Type
                         _______ _______ _______ _____ _____    ______ ____

>  <TORSDO>
F 13

$$$$
=
 OpenBabel11042417043D

 44 48  0  0  1  0  0  0  0  0999 V2000
  192.0190  173.1800  142.7430 C   0  0  1  0  0  3  0  0  0  0  0  0
  190.5980  175.2960  142.7760 N   0  0  0  0  0  0  0  0  0  0  0  0
  192.6060  174.0910  145.0070 C   0  0  0  0  0  2  0  0  0  0  0  0
  192.1880  171.9830  141.8930 N   0  0  0  0  0  0  0  0  0  0  0  0
  193.8400  171.4790  143.5480 O   0  0  0  0  0  0  0  0  0  0  0  0
  193.1020  170.9770  142.4650 C   0  0  0  0  0  2  0  0  0  0  0  0
  191.6810  175.3130  145.0090 C   0  0  1  0  0  3  0  0  0  0  0  0
  192.8970  171.6700  144.5640 C   0  0  0  0  0  2  0  0  0  0  0  0
  189.8140  173.3160  141.8140 O   0  0  0  0  0  0  0  0  0  0  0  0
  190.7570  173.9220  142.3950 C   0  0  0  0  0  0  0  0  0  0  0  0
  191.5870  175.9640  143.6270 C   0  0  0  0  0  2  0  0  0  0  0  0
  192.0380  172.8900  144.2540 C   0  0  2  0  0  3  0  0  0  0  0  0
  189.6350  177.5550  142.5380 C   0  0  0  0  0  2  0  0  0  0  0  0
  188.1560  175.5380  142.7100 C   0  0  0  0  0  3  0  0  0  0  0  0
  188.3920  178.3020  142.1360 C   0  0  0  0  0  3  0  0  0  0  0  0
  187.1790  177.7330  142.2410 C   0  0  0  0  0  0  0  0  0  0  0  0
  189.4830  176.0640  142.2260 C   0  0  2  0  0  3  0  0  0  0  0  0
  187.0760  176.3250  142.6770 C   0  0  0  0  0  3  0  0  0  0  0  0
  185.9940  178.4270  141.9470 O   0  0  0  0  0  0  0  0  0  0  0  0
  184.8960  178.5950  142.8030 C   0  0  0  0  0  0  0  0  0  0  0  0
  185.0670  179.3540  143.8810 C   0  0  0  0  0  2  0  0  0  0  0  0
  183.6640  177.9800  142.5170 O   0  0  0  0  0  0  0  0  0  0  0  0
  183.1860  178.2750  140.2590 O   0  0  0  0  0  0  0  0  0  0  0  0
  182.7980  178.2880  141.4570 C   0  0  0  0  0  0  0  0  0  0  0  0
  181.3940  178.6740  141.7610 C   0  0  0  0  0  2  0  0  0  0  0  0
  180.5190  178.4320  140.5480 C   0  0  0  0  0  1  0  0  0  0  0  0
  190.3870  174.9950  145.5210 O   0  0  0  0  0  0  0  0  0  0  0  0
  189.1620  178.0200  147.3550 C   0  0  0  0  0  3  0  0  0  0  0  0
  189.5310  175.9420  146.0900 C   0  0  0  0  0  0  0  0  0  0  0  0
  188.1390  175.7600  145.9560 C   0  0  0  0  0  3  0  0  0  0  0  0
  185.9600  176.7410  146.5240 N   0  0  0  0  0  0  0  0  0  0  0  0
  187.7980  177.7960  147.1990 C   0  0  0  0  0  0  0  0  0  0  0  0
  186.6640  179.7620  148.3820 C   0  0  0  0  0  1  0  0  0  0  0  0
  190.0340  177.0720  146.7880 C   0  0  0  0  0  3  0  0  0  0  0  0
  187.3040  176.7140  146.5290 C   0  0  0  0  0  0  0  0  0  0  0  0
  185.5840  177.8330  147.1850 N   0  0  0  0  0  2  0  0  0  0  0  0
  186.6880  178.4920  147.6060 C   0  0  0  0  0  0  0  0  0  0  0  0
  192.7970  172.4290  140.6480 C   0  0  0  0  0  2  0  0  0  0  0  0
  192.3050  171.5640  139.5020 C   0  0  0  0  0  2  0  0  0  0  0  0
  191.1220  172.2270  138.8180 C   0  0  0  0  0  2  0  0  0  0  0  0
  189.9140  171.4430  139.0320 N   0  0  0  0  0  0  0  0  0  0  0  0
  188.8050  172.2630  138.5780 C   0  0  0  0  0  1  0  0  0  0  0  0
  190.1570  170.7490  136.7710 N   0  0  0  0  0  1  0  0  0  0  0  0
  189.9730  170.2970  138.1390 C   0  0  0  0  0  2  0  0  0  0  0  0
  1 10  1  6  0  0  0
  1 12  1  0  0  0  0
  2 11  1  0  0  0  0
  3  7  1  0  0  0  0
  4  6  1  0  0  0  0
  4  1  1  0  0  0  0
  5  8  1  0  0  0  0
  6  5  1  0  0  0  0
  7 27  1  6  0  0  0
  9 10  2  0  0  0  0
 10  2  1  0  0  0  0
 11  7  1  0  0  0  0
 12  8  1  6  0  0  0
 12  3  1  0  0  0  0
 15 16  2  0  0  0  0
 15 13  1  0  0  0  0
 16 18  1  0  0  0  0
 17 13  1  1  0  0  0
 17 14  1  0  0  0  0
 17  2  1  0  0  0  0
 18 14  2  0  0  0  0
 19 16  1  0  0  0  0
 19 20  1  0  0  0  0
 20 21  2  0  0  0  0
 22 20  1  0  0  0  0
 23 24  2  0  0  0  0
 24 25  1  0  0  0  0
 24 22  1  0  0  0  0
 26 25  1  0  0  0  0
 27 29  1  0  0  0  0
 29 34  1  0  0  0  0
 30 29  2  0  0  0  0
 30 35  1  0  0  0  0
 31 35  2  0  0  0  0
 31 36  1  0  0  0  0
 32 28  1  0  0  0  0
 32 37  2  0  0  0  0
 34 28  2  0  0  0  0
 35 32  1  0  0  0  0
 36 37  1  0  0  0  0
 37 33  1  0  0  0  0
 38  4  1  0  0  0  0
 39 38  1  0  0  0  0
 40 41  1  0  0  0  0
 40 39  1  0  0  0  0
 42 41  1  0  0  0  0
 43 44  1  0  0  0  0
 44 41  1  0  0  0  0
M  END
>  <MODEL>
9

>  <REMARK>
 VINA RESULT:      -6.5      2.952      4.058
  Name = 
  13 active torsions:
  status: ('A' for Active; 'I' for Inactive)
    1  A    between atoms: O_3  and  C_12
    2  A    between atoms: O_3  and  C_29
    3  A    between atoms: N_6  and  C_30
    4  A    between atoms: C_9  and  C_16
    5  A    between atoms: C_9  and  C_19
    6  A    between atoms: N_13  and  C_16
    7  A    between atoms: N_15  and  C_19
    8  A    between atoms: N_15  and  C_40
    9  A    between atoms: C_17  and  C_22
   10  A    between atoms: C_21  and  O_32
   11  A    between atoms: C_22  and  O_39
   12  A    between atoms: C_31  and  O_32
   13  A    between atoms: C_31  and  O_39
                            x       y       z     vdW  Elec       q    Type
                         _______ _______ _______ _____ _____    ______ ____

>  <TORSDO>
F 13

$$$$
