=
 OpenBabel11042414043D

 31 33  0  0  1  0  0  0  0  0999 V2000
  188.9840  173.1350  141.6050 C   0  0  0  0  0  2  0  0  0  0  0  0
  189.3840  173.9280  142.8210 C   0  0  0  0  0  3  0  0  0  0  0  0
  192.4320  172.2520  143.7340 N   0  0  0  0  0  0  0  0  0  0  0  0
  191.1450  171.9840  141.7740 N   0  0  0  0  0  0  0  0  0  0  0  0
  191.3910  172.5980  143.0400 C   0  0  0  0  0  0  0  0  0  0  0  0
  190.7840  170.7170  139.1470 C   0  0  0  0  0  0  0  0  0  0  0  0
  190.8360  174.4520  144.7500 C   0  0  1  0  0  3  0  0  0  0  0  0
  189.8700  171.6040  139.8040 N   0  0  0  0  0  2  0  0  0  0  0  0
  192.7340  172.8080  145.0540 C   0  0  2  0  0  3  0  0  0  0  0  0
  190.0760  172.2380  141.0730 C   0  0  0  0  0  0  0  0  0  0  0  0
  191.8970  170.4290  139.6620 O   0  0  0  0  0  0  0  0  0  0  0  0
  190.4130  170.1310  137.8340 C   0  0  0  0  0  1  0  0  0  0  0  0
  190.5020  173.6750  143.5050 C   0  0  0  0  0  0  0  0  0  0  0  0
  192.3110  174.2850  145.1450 C   0  0  2  0  0  3  0  0  0  0  0  0
  196.7730  172.3310  145.8060 C   0  0  0  0  0  1  0  0  0  0  0  0
  194.1680  172.6400  145.3210 C   0  0  0  0  0  0  0  0  0  0  0  0
  195.3450  172.5010  145.5400 C   0  0  0  0  0  0  0  0  0  0  0  0
  190.5480  175.8360  144.5550 O   0  0  0  0  0  0  0  0  0  0  0  0
  188.7630  176.1230  146.2050 C   0  0  0  0  0  3  0  0  0  0  0  0
  188.7250  177.3480  144.1170 C   0  0  0  0  0  3  0  0  0  0  0  0
  186.9550  177.6650  145.7410 C   0  0  0  0  0  0  0  0  0  0  0  0
  189.3520  176.4300  144.9660 C   0  0  0  0  0  0  0  0  0  0  0  0
  187.5280  177.9600  144.5000 C   0  0  0  0  0  3  0  0  0  0  0  0
  187.5670  176.7360  146.5870 C   0  0  0  0  0  3  0  0  0  0  0  0
  184.4070  177.3450  146.5830 O   0  0  0  0  0  0  0  0  0  0  0  0
  184.7570  179.3820  144.8190 C   0  0  0  0  0  1  0  0  0  0  0  0
  185.6420  179.4420  147.5370 O   0  0  0  0  0  1  0  0  0  0  0  0
  185.4030  178.4180  146.2120 P   0  0  2  0  0  0  0  0  0  0  0  0
  192.5090  174.8160  146.5600 C   0  0  0  0  0  2  0  0  0  0  0  0
  194.5920  176.1080  146.2400 C   0  0  0  0  0  1  0  0  0  0  0  0
  193.1060  176.2080  146.5130 C   0  0  0  0  0  2  0  0  0  0  0  0
  1  2  1  0  0  0  0
  2 13  2  0  0  0  0
  3  9  1  0  0  0  0
  4  5  1  0  0  0  0
  5 13  1  0  0  0  0
  5  3  2  0  0  0  0
  6 11  2  0  0  0  0
  6  8  1  0  0  0  0
  7 18  1  6  0  0  0
  7 14  1  0  0  0  0
  8 10  1  0  0  0  0
  9 14  1  0  0  0  0
  9 16  1  6  0  0  0
 10  1  1  0  0  0  0
 10  4  2  0  0  0  0
 12  6  1  0  0  0  0
 13  7  1  0  0  0  0
 14 29  1  1  0  0  0
 16 17  3  0  0  0  0
 17 15  1  0  0  0  0
 18 22  1  0  0  0  0
 19 24  1  0  0  0  0
 20 23  2  0  0  0  0
 20 22  1  0  0  0  0
 21 28  1  0  0  0  0
 21 24  2  0  0  0  0
 22 19  2  0  0  0  0
 23 21  1  0  0  0  0
 28 26  1  6  0  0  0
 28 25  2  0  0  0  0
 28 27  1  0  0  0  0
 30 31  1  0  0  0  0
 31 29  1  0  0  0  0
M  END
>  <MODEL>
1

>  <REMARK>
 VINA RESULT:      -7.2      0.000      0.000
  Name = 
  6 active torsions:
  status: ('A' for Active; 'I' for Inactive)
    1  A    between atoms: O_1  and  C_19
    2  A    between atoms: O_1  and  C_21
    3  A    between atoms: C_12  and  C_25
    4  A    between atoms: C_16  and  P_17
    5  A    between atoms: C_18  and  C_30
    6  A    between atoms: C_18  and  C_31
                            x       y       z     vdW  Elec       q    Type
                         _______ _______ _______ _____ _____    ______ ____

>  <TORSDO>
F 6

$$$$
=
 OpenBabel11042414043D

 31 33  0  0  1  0  0  0  0  0999 V2000
  188.8660  172.3590  139.4280 C   0  0  0  0  0  2  0  0  0  0  0  0
  188.9310  173.2370  140.6510 C   0  0  0  0  0  3  0  0  0  0  0  0
  191.5300  171.5900  142.5130 N   0  0  0  0  0  0  0  0  0  0  0  0
  190.8460  171.1930  140.2890 N   0  0  0  0  0  0  0  0  0  0  0  0
  190.7430  171.8980  141.5280 C   0  0  0  0  0  0  0  0  0  0  0  0
  191.2040  169.7360  137.7630 C   0  0  0  0  0  0  0  0  0  0  0  0
  189.7900  173.8850  142.8750 C   0  0  1  0  0  3  0  0  0  0  0  0
  190.1730  170.6830  138.0670 N   0  0  0  0  0  2  0  0  0  0  0  0
  191.4630  172.2400  143.8220 C   0  0  2  0  0  3  0  0  0  0  0  0
  190.0320  171.4080  139.2950 C   0  0  0  0  0  0  0  0  0  0  0  0
  192.1130  169.4710  138.5930 O   0  0  0  0  0  0  0  0  0  0  0  0
  191.2020  169.0560  136.4410 C   0  0  0  0  0  1  0  0  0  0  0  0
  189.7970  173.0210  141.6430 C   0  0  0  0  0  0  0  0  0  0  0  0
  191.0850  173.7270  143.6870 C   0  0  2  0  0  3  0  0  0  0  0  0
  195.0990  171.7640  145.7350 C   0  0  0  0  0  1  0  0  0  0  0  0
  192.7540  172.0720  144.5010 C   0  0  0  0  0  0  0  0  0  0  0  0
  193.8140  171.9330  145.0580 C   0  0  0  0  0  0  0  0  0  0  0  0
  189.6200  175.2540  142.5110 O   0  0  0  0  0  0  0  0  0  0  0  0
  187.2170  175.7160  142.5410 C   0  0  0  0  0  3  0  0  0  0  0  0
  188.7630  177.1310  143.7530 C   0  0  0  0  0  3  0  0  0  0  0  0
  186.3860  177.6000  143.8150 C   0  0  0  0  0  0  0  0  0  0  0  0
  188.5320  176.0240  142.9310 C   0  0  0  0  0  0  0  0  0  0  0  0
  187.6950  177.9190  144.1900 C   0  0  0  0  0  3  0  0  0  0  0  0
  186.1500  176.5040  142.9790 C   0  0  0  0  0  3  0  0  0  0  0  0
  185.4660  180.0780  144.3750 O   0  0  0  0  0  1  0  0  0  0  0  0
  184.4970  178.1280  146.0020 C   0  0  0  0  0  1  0  0  0  0  0  0
  183.7300  178.4670  143.2680 O   0  0  0  0  0  0  0  0  0  0  0  0
  185.0260  178.6330  144.3420 P   0  0  2  0  0  0  0  0  0  0  0  0
  190.8900  174.3600  145.0590 C   0  0  0  0  0  2  0  0  0  0  0  0
  189.1840  174.7570  146.8040 C   0  0  0  0  0  1  0  0  0  0  0  0
  189.6370  173.8110  145.7100 C   0  0  0  0  0  2  0  0  0  0  0  0
  1  2  1  0  0  0  0
  2 13  2  0  0  0  0
  3  9  1  0  0  0  0
  4  5  1  0  0  0  0
  5 13  1  0  0  0  0
  5  3  2  0  0  0  0
  6  8  1  0  0  0  0
  6 11  2  0  0  0  0
  7 18  1  6  0  0  0
  7 14  1  0  0  0  0
  8 10  1  0  0  0  0
  9 16  1  6  0  0  0
 10  1  1  0  0  0  0
 10  4  2  0  0  0  0
 12  6  1  0  0  0  0
 13  7  1  0  0  0  0
 14  9  1  0  0  0  0
 14 29  1  1  0  0  0
 16 17  3  0  0  0  0
 17 15  1  0  0  0  0
 18 22  1  0  0  0  0
 19 22  2  0  0  0  0
 19 24  1  0  0  0  0
 20 23  2  0  0  0  0
 21 23  1  0  0  0  0
 21 28  1  0  0  0  0
 22 20  1  0  0  0  0
 24 21  2  0  0  0  0
 27 28  2  0  0  0  0
 28 25  1  0  0  0  0
 28 26  1  1  0  0  0
 29 31  1  0  0  0  0
 31 30  1  0  0  0  0
M  END
>  <MODEL>
2

>  <REMARK>
 VINA RESULT:      -6.9      1.820      2.576
  Name = 
  6 active torsions:
  status: ('A' for Active; 'I' for Inactive)
    1  A    between atoms: O_1  and  C_19
    2  A    between atoms: O_1  and  C_21
    3  A    between atoms: C_12  and  C_25
    4  A    between atoms: C_16  and  P_17
    5  A    between atoms: C_18  and  C_30
    6  A    between atoms: C_18  and  C_31
                            x       y       z     vdW  Elec       q    Type
                         _______ _______ _______ _____ _____    ______ ____

>  <TORSDO>
F 6

$$$$
=
 OpenBabel11042414043D

 31 33  0  0  1  0  0  0  0  0999 V2000
  188.9080  173.4310  141.2240 C   0  0  0  0  0  2  0  0  0  0  0  0
  189.3710  174.5400  142.1330 C   0  0  0  0  0  3  0  0  0  0  0  0
  192.9200  173.9580  142.1320 N   0  0  0  0  0  0  0  0  0  0  0  0
  191.2720  172.9530  140.7730 N   0  0  0  0  0  0  0  0  0  0  0  0
  191.6690  173.8630  141.8010 C   0  0  0  0  0  0  0  0  0  0  0  0
  190.5820  171.1130  138.5900 C   0  0  0  0  0  0  0  0  0  0  0  0
  191.0780  175.8230  143.3770 C   0  0  1  0  0  3  0  0  0  0  0  0
  189.6670  171.8450  139.4150 N   0  0  0  0  0  2  0  0  0  0  0  0
  193.4020  174.8390  143.1960 C   0  0  2  0  0  3  0  0  0  0  0  0
  190.0230  172.7630  140.4560 C   0  0  0  0  0  0  0  0  0  0  0  0
  191.8270  171.2430  138.7210 O   0  0  0  0  0  0  0  0  0  0  0  0
  190.0490  170.1850  137.5580 C   0  0  0  0  0  1  0  0  0  0  0  0
  190.6600  174.7410  142.4170 C   0  0  0  0  0  0  0  0  0  0  0  0
  192.5770  176.1380  143.2590 C   0  0  2  0  0  3  0  0  0  0  0  0
  197.4150  175.6190  142.5720 C   0  0  0  0  0  1  0  0  0  0  0  0
  194.8260  175.1150  142.9740 C   0  0  0  0  0  0  0  0  0  0  0  0
  195.9960  175.3420  142.7920 C   0  0  0  0  0  0  0  0  0  0  0  0
  190.3210  177.0080  143.1370 O   0  0  0  0  0  0  0  0  0  0  0  0
  188.0350  177.8810  143.1570 C   0  0  0  0  0  3  0  0  0  0  0  0
  189.0510  177.0290  145.1830 C   0  0  0  0  0  3  0  0  0  0  0  0
  186.7780  177.8700  145.2270 C   0  0  0  0  0  0  0  0  0  0  0  0
  189.1360  177.3060  143.8150 C   0  0  0  0  0  0  0  0  0  0  0  0
  187.8780  177.3130  145.8880 C   0  0  0  0  0  3  0  0  0  0  0  0
  186.8630  178.1640  143.8630 C   0  0  0  0  0  3  0  0  0  0  0  0
  184.6700  177.0050  146.6810 O   0  0  0  0  0  0  0  0  0  0  0  0
  184.1160  179.0970  145.0360 C   0  0  0  0  0  1  0  0  0  0  0  0
  185.6730  179.3010  147.4260 O   0  0  0  0  0  1  0  0  0  0  0  0
  185.2940  178.2700  146.1400 P   0  0  2  0  0  0  0  0  0  0  0  0
  193.0000  176.9870  144.4510 C   0  0  0  0  0  2  0  0  0  0  0  0
  194.0620  176.2530  146.5590 C   0  0  0  0  0  1  0  0  0  0  0  0
  192.7900  176.2160  145.7390 C   0  0  0  0  0  2  0  0  0  0  0  0
  1  2  1  0  0  0  0
  2 13  2  0  0  0  0
  3  9  1  0  0  0  0
  4  5  1  0  0  0  0
  5  3  2  0  0  0  0
  5 13  1  0  0  0  0
  6 11  2  0  0  0  0
  6  8  1  0  0  0  0
  7 18  1  6  0  0  0
  8 10  1  0  0  0  0
  9 16  1  6  0  0  0
  9 14  1  0  0  0  0
 10  4  2  0  0  0  0
 10  1  1  0  0  0  0
 12  6  1  0  0  0  0
 13  7  1  0  0  0  0
 14  7  1  0  0  0  0
 14 29  1  1  0  0  0
 15 17  1  0  0  0  0
 17 16  3  0  0  0  0
 18 22  1  0  0  0  0
 19 22  2  0  0  0  0
 19 24  1  0  0  0  0
 20 23  2  0  0  0  0
 21 23  1  0  0  0  0
 21 28  1  0  0  0  0
 22 20  1  0  0  0  0
 24 21  2  0  0  0  0
 28 26  1  6  0  0  0
 28 25  2  0  0  0  0
 28 27  1  0  0  0  0
 29 31  1  0  0  0  0
 31 30  1  0  0  0  0
M  END
>  <MODEL>
3

>  <REMARK>
 VINA RESULT:      -6.7      1.762      2.049
  Name = 
  6 active torsions:
  status: ('A' for Active; 'I' for Inactive)
    1  A    between atoms: O_1  and  C_19
    2  A    between atoms: O_1  and  C_21
    3  A    between atoms: C_12  and  C_25
    4  A    between atoms: C_16  and  P_17
    5  A    between atoms: C_18  and  C_30
    6  A    between atoms: C_18  and  C_31
                            x       y       z     vdW  Elec       q    Type
                         _______ _______ _______ _____ _____    ______ ____

>  <TORSDO>
F 6

$$$$
=
 OpenBabel11042414043D

 31 33  0  0  1  0  0  0  0  0999 V2000
  188.1920  176.6260  146.0140 C   0  0  0  0  0  2  0  0  0  0  0  0
  189.3640  175.9600  145.3420 C   0  0  0  0  0  3  0  0  0  0  0  0
  187.8920  175.0500  142.1900 N   0  0  0  0  0  0  0  0  0  0  0  0
  186.9880  176.4210  143.8860 N   0  0  0  0  0  0  0  0  0  0  0  0
  188.0340  175.6050  143.3550 C   0  0  0  0  0  0  0  0  0  0  0  0
  184.8100  178.1450  144.8410 C   0  0  0  0  0  0  0  0  0  0  0  0
  190.4700  174.7580  143.4890 C   0  0  1  0  0  3  0  0  0  0  0  0
  185.9780  177.7540  145.5740 N   0  0  0  0  0  2  0  0  0  0  0  0
  188.9010  174.1740  141.5930 C   0  0  2  0  0  3  0  0  0  0  0  0
  187.0460  176.9370  145.0810 C   0  0  0  0  0  0  0  0  0  0  0  0
  184.6400  177.7890  143.6460 O   0  0  0  0  0  0  0  0  0  0  0  0
  183.7830  178.9890  145.5050 C   0  0  0  0  0  1  0  0  0  0  0  0
  189.2950  175.4690  144.1030 C   0  0  0  0  0  0  0  0  0  0  0  0
  190.3240  174.6290  141.9650 C   0  0  2  0  0  3  0  0  0  0  0  0
  188.3530  174.1090  137.4940 C   0  0  0  0  0  1  0  0  0  0  0  0
  188.7050  174.1510  140.1380 C   0  0  0  0  0  0  0  0  0  0  0  0
  188.5460  174.1320  138.9430 C   0  0  0  0  0  0  0  0  0  0  0  0
  191.6780  175.4540  143.7950 O   0  0  0  0  0  0  0  0  0  0  0  0
  192.7970  173.7990  145.2080 C   0  0  0  0  0  3  0  0  0  0  0  0
  194.0700  175.1900  143.6900 C   0  0  0  0  0  3  0  0  0  0  0  0
  195.2000  173.5460  145.0640 C   0  0  0  0  0  0  0  0  0  0  0  0
  192.8380  174.8100  144.2330 C   0  0  0  0  0  0  0  0  0  0  0  0
  195.2470  174.5640  144.1060 C   0  0  0  0  0  3  0  0  0  0  0  0
  193.9740  173.1730  145.6240 C   0  0  0  0  0  3  0  0  0  0  0  0
  197.2700  173.5410  146.8020 O   0  0  0  0  0  1  0  0  0  0  0  0
  197.9240  172.7780  144.2770 C   0  0  0  0  0  1  0  0  0  0  0  0
  196.4020  171.1790  146.0940 O   0  0  0  0  0  0  0  0  0  0  0  0
  196.7120  172.7740  145.6250 P   0  0  2  0  0  0  0  0  0  0  0  0
  191.3590  173.6380  141.4490 C   0  0  0  0  0  2  0  0  0  0  0  0
  192.5360  171.6100  142.2330 C   0  0  0  0  0  1  0  0  0  0  0  0
  191.1930  172.3030  142.1480 C   0  0  0  0  0  2  0  0  0  0  0  0
  2  1  1  0  0  0  0
  3  5  2  0  0  0  0
  4 10  2  0  0  0  0
  5  4  1  0  0  0  0
  5 13  1  0  0  0  0
  6 12  1  0  0  0  0
  6  8  1  0  0  0  0
  7 18  1  6  0  0  0
  7 13  1  0  0  0  0
  9 16  1  6  0  0  0
  9 14  1  0  0  0  0
  9  3  1  0  0  0  0
 10  8  1  0  0  0  0
 10  1  1  0  0  0  0
 11  6  2  0  0  0  0
 13  2  2  0  0  0  0
 14 29  1  1  0  0  0
 14  7  1  0  0  0  0
 15 17  1  0  0  0  0
 17 16  3  0  0  0  0
 18 22  1  0  0  0  0
 19 24  1  0  0  0  0
 20 23  2  0  0  0  0
 20 22  1  0  0  0  0
 21 24  2  0  0  0  0
 21 28  1  0  0  0  0
 22 19  2  0  0  0  0
 23 21  1  0  0  0  0
 28 26  1  6  0  0  0
 28 27  2  0  0  0  0
 28 25  1  0  0  0  0
 29 31  1  0  0  0  0
 31 30  1  0  0  0  0
M  END
>  <MODEL>
4

>  <REMARK>
 VINA RESULT:      -6.7      3.988      8.378
  Name = 
  6 active torsions:
  status: ('A' for Active; 'I' for Inactive)
    1  A    between atoms: O_1  and  C_19
    2  A    between atoms: O_1  and  C_21
    3  A    between atoms: C_12  and  C_25
    4  A    between atoms: C_16  and  P_17
    5  A    between atoms: C_18  and  C_30
    6  A    between atoms: C_18  and  C_31
                            x       y       z     vdW  Elec       q    Type
                         _______ _______ _______ _____ _____    ______ ____

>  <TORSDO>
F 6

$$$$
=
 OpenBabel11042414043D

 31 33  0  0  1  0  0  0  0  0999 V2000
  192.7440  175.6470  145.4430 C   0  0  0  0  0  2  0  0  0  0  0  0
  191.5000  175.5890  144.5960 C   0  0  0  0  0  3  0  0  0  0  0  0
  192.7500  173.8580  141.7020 N   0  0  0  0  0  0  0  0  0  0  0  0
  193.8220  174.2060  143.7750 N   0  0  0  0  0  0  0  0  0  0  0  0
  192.7020  174.3530  142.9000 C   0  0  0  0  0  0  0  0  0  0  0  0
  196.1490  173.7700  145.5160 C   0  0  0  0  0  0  0  0  0  0  0  0
  190.2280  175.0120  142.5580 C   0  0  1  0  0  3  0  0  0  0  0  0
  194.9980  174.5730  145.8080 N   0  0  0  0  0  2  0  0  0  0  0  0
  191.6590  173.9960  140.7360 C   0  0  2  0  0  3  0  0  0  0  0  0
  193.8570  174.7490  144.9590 C   0  0  0  0  0  0  0  0  0  0  0  0
  196.2350  173.1200  144.4410 O   0  0  0  0  0  0  0  0  0  0  0  0
  197.2590  173.7030  146.5010 C   0  0  0  0  0  1  0  0  0  0  0  0
  191.4750  174.9960  143.4000 C   0  0  0  0  0  0  0  0  0  0  0  0
  190.2880  173.9650  141.4350 C   0  0  2  0  0  3  0  0  0  0  0  0
  191.9930  170.9930  137.9120 C   0  0  0  0  0  1  0  0  0  0  0  0
  191.7780  172.9310  139.7330 C   0  0  0  0  0  0  0  0  0  0  0  0
  191.8750  172.0550  138.9090 C   0  0  0  0  0  0  0  0  0  0  0  0
  189.0830  174.7700  143.3750 O   0  0  0  0  0  0  0  0  0  0  0  0
  186.9450  175.7630  142.7220 C   0  0  0  0  0  3  0  0  0  0  0  0
  188.1840  176.6310  144.6120 C   0  0  0  0  0  3  0  0  0  0  0  0
  186.0590  177.6210  143.9980 C   0  0  0  0  0  0  0  0  0  0  0  0
  188.0690  175.7120  143.5630 C   0  0  0  0  0  0  0  0  0  0  0  0
  187.1860  177.5840  144.8270 C   0  0  0  0  0  3  0  0  0  0  0  0
  185.9470  176.7170  142.9380 C   0  0  0  0  0  3  0  0  0  0  0  0
  185.4100  180.2430  144.0900 O   0  0  0  0  0  1  0  0  0  0  0  0
  184.1210  178.7030  145.9220 C   0  0  0  0  0  1  0  0  0  0  0  0
  183.5630  178.6680  143.1170 O   0  0  0  0  0  0  0  0  0  0  0  0
  184.8030  178.8680  144.2500 P   0  0  2  0  0  0  0  0  0  0  0  0
  189.1690  174.2400  140.4390 C   0  0  0  0  0  2  0  0  0  0  0  0
  188.1840  172.5100  138.9740 C   0  0  0  0  0  1  0  0  0  0  0  0
  188.2200  173.0600  140.3850 C   0  0  0  0  0  2  0  0  0  0  0  0
  2  1  1  0  0  0  0
  3  5  2  0  0  0  0
  4 10  2  0  0  0  0
  5 13  1  0  0  0  0
  5  4  1  0  0  0  0
  6  8  1  0  0  0  0
  6 12  1  0  0  0  0
  7 18  1  1  0  0  0
  7 13  1  0  0  0  0
  9 16  1  6  0  0  0
  9 14  1  0  0  0  0
  9  3  1  0  0  0  0
 10  1  1  0  0  0  0
 10  8  1  0  0  0  0
 11  6  2  0  0  0  0
 13  2  2  0  0  0  0
 14 29  1  6  0  0  0
 14  7  1  0  0  0  0
 15 17  1  0  0  0  0
 17 16  3  0  0  0  0
 18 22  1  0  0  0  0
 19 24  2  0  0  0  0
 19 22  1  0  0  0  0
 20 23  1  0  0  0  0
 21 28  1  0  0  0  0
 21 23  2  0  0  0  0
 22 20  2  0  0  0  0
 24 21  1  0  0  0  0
 25 28  1  0  0  0  0
 27 28  2  0  0  0  0
 28 26  1  1  0  0  0
 30 31  1  0  0  0  0
 31 29  1  0  0  0  0
M  END
>  <MODEL>
5

>  <REMARK>
 VINA RESULT:      -6.5      2.408      5.649
  Name = 
  6 active torsions:
  status: ('A' for Active; 'I' for Inactive)
    1  A    between atoms: O_1  and  C_19
    2  A    between atoms: O_1  and  C_21
    3  A    between atoms: C_12  and  C_25
    4  A    between atoms: C_16  and  P_17
    5  A    between atoms: C_18  and  C_30
    6  A    between atoms: C_18  and  C_31
                            x       y       z     vdW  Elec       q    Type
                         _______ _______ _______ _____ _____    ______ ____

>  <TORSDO>
F 6

$$$$
=
 OpenBabel11042414043D

 31 33  0  0  1  0  0  0  0  0999 V2000
  189.0940  173.1750  140.7270 C   0  0  0  0  0  2  0  0  0  0  0  0
  189.3930  174.2970  141.6870 C   0  0  0  0  0  3  0  0  0  0  0  0
  192.9620  173.9740  141.9920 N   0  0  0  0  0  0  0  0  0  0  0  0
  191.5170  172.8790  140.4800 N   0  0  0  0  0  0  0  0  0  0  0  0
  191.7550  173.7950  141.5510 C   0  0  0  0  0  0  0  0  0  0  0  0
  191.1580  171.0360  138.2200 C   0  0  0  0  0  0  0  0  0  0  0  0
  190.8850  175.6760  143.0930 C   0  0  1  0  0  3  0  0  0  0  0  0
  190.1230  171.6840  138.9710 N   0  0  0  0  0  2  0  0  0  0  0  0
  193.2820  174.8670  143.1060 C   0  0  2  0  0  3  0  0  0  0  0  0
  190.3180  172.6050  140.0520 C   0  0  0  0  0  0  0  0  0  0  0  0
  192.3750  171.2540  138.4630 O   0  0  0  0  0  0  0  0  0  0  0  0
  190.7880  170.0930  137.1340 C   0  0  0  0  0  1  0  0  0  0  0  0
  190.6330  174.5850  142.0870 C   0  0  0  0  0  0  0  0  0  0  0  0
  192.3610  176.1010  143.1130 C   0  0  2  0  0  3  0  0  0  0  0  0
  197.2660  175.9480  142.8480 C   0  0  0  0  0  1  0  0  0  0  0  0
  194.6960  175.2500  143.0140 C   0  0  0  0  0  0  0  0  0  0  0  0
  195.8580  175.5650  142.9390 C   0  0  0  0  0  0  0  0  0  0  0  0
  190.0660  176.8080  142.8030 O   0  0  0  0  0  0  0  0  0  0  0  0
  189.1430  177.4550  144.9740 C   0  0  0  0  0  3  0  0  0  0  0  0
  187.7210  177.3100  143.0200 C   0  0  0  0  0  3  0  0  0  0  0  0
  186.7840  177.9720  145.1550 C   0  0  0  0  0  0  0  0  0  0  0  0
  188.9870  177.1920  143.6030 C   0  0  0  0  0  0  0  0  0  0  0  0
  186.6220  177.6950  143.7940 C   0  0  0  0  0  3  0  0  0  0  0  0
  188.0440  177.8390  145.7470 C   0  0  0  0  0  3  0  0  0  0  0  0
  184.5070  179.4070  145.3950 O   0  0  0  0  0  0  0  0  0  0  0  0
  185.9410  179.1880  147.6930 C   0  0  0  0  0  1  0  0  0  0  0  0
  184.4610  177.0450  146.5140 O   0  0  0  0  0  1  0  0  0  0  0  0
  185.3700  178.4240  146.1510 P   0  0  2  0  0  0  0  0  0  0  0  0
  192.6150  176.9550  144.3490 C   0  0  0  0  0  2  0  0  0  0  0  0
  193.6310  176.3980  146.5320 C   0  0  0  0  0  1  0  0  0  0  0  0
  192.4720  176.1130  145.6000 C   0  0  0  0  0  2  0  0  0  0  0  0
  1  2  1  0  0  0  0
  2 13  2  0  0  0  0
  3  9  1  0  0  0  0
  4  5  1  0  0  0  0
  5  3  2  0  0  0  0
  5 13  1  0  0  0  0
  6 11  2  0  0  0  0
  6  8  1  0  0  0  0
  7 18  1  6  0  0  0
  7 14  1  0  0  0  0
  8 10  1  0  0  0  0
  9 16  1  6  0  0  0
  9 14  1  0  0  0  0
 10  4  2  0  0  0  0
 10  1  1  0  0  0  0
 12  6  1  0  0  0  0
 13  7  1  0  0  0  0
 14 29  1  1  0  0  0
 15 17  1  0  0  0  0
 17 16  3  0  0  0  0
 18 22  1  0  0  0  0
 19 24  1  0  0  0  0
 20 22  1  0  0  0  0
 20 23  2  0  0  0  0
 21 24  2  0  0  0  0
 21 28  1  0  0  0  0
 22 19  2  0  0  0  0
 23 21  1  0  0  0  0
 25 28  2  0  0  0  0
 28 27  1  0  0  0  0
 28 26  1  1  0  0  0
 29 31  1  0  0  0  0
 31 30  1  0  0  0  0
M  END
>  <MODEL>
6

>  <REMARK>
 VINA RESULT:      -6.4      1.918      2.175
  Name = 
  6 active torsions:
  status: ('A' for Active; 'I' for Inactive)
    1  A    between atoms: O_1  and  C_19
    2  A    between atoms: O_1  and  C_21
    3  A    between atoms: C_12  and  C_25
    4  A    between atoms: C_16  and  P_17
    5  A    between atoms: C_18  and  C_30
    6  A    between atoms: C_18  and  C_31
                            x       y       z     vdW  Elec       q    Type
                         _______ _______ _______ _____ _____    ______ ____

>  <TORSDO>
F 6

$$$$
=
 OpenBabel11042414043D

 31 33  0  0  1  0  0  0  0  0999 V2000
  186.3150  176.0560  142.7730 C   0  0  0  0  0  2  0  0  0  0  0  0
  187.5540  175.3470  142.2900 C   0  0  0  0  0  3  0  0  0  0  0  0
  190.0630  176.9440  144.3130 N   0  0  0  0  0  0  0  0  0  0  0  0
  187.7150  177.1110  144.4910 N   0  0  0  0  0  0  0  0  0  0  0  0
  188.8940  176.5920  143.8710 C   0  0  0  0  0  0  0  0  0  0  0  0
  185.3610  178.1710  145.8930 C   0  0  0  0  0  0  0  0  0  0  0  0
  189.9860  174.9150  142.2390 C   0  0  1  0  0  3  0  0  0  0  0  0
  185.3630  177.3870  144.6930 N   0  0  0  0  0  2  0  0  0  0  0  0
  191.3150  176.4850  143.7110 C   0  0  2  0  0  3  0  0  0  0  0  0
  186.5200  176.8520  144.0390 C   0  0  0  0  0  0  0  0  0  0  0  0
  186.4330  178.4460  146.4940 O   0  0  0  0  0  0  0  0  0  0  0  0
  184.0700  178.6640  146.4380 C   0  0  0  0  0  1  0  0  0  0  0  0
  188.7650  175.6010  142.7900 C   0  0  0  0  0  0  0  0  0  0  0  0
  191.1870  175.0420  143.1890 C   0  0  2  0  0  3  0  0  0  0  0  0
  194.3390  176.8250  146.5130 C   0  0  0  0  0  1  0  0  0  0  0  0
  192.3890  176.6040  144.7050 C   0  0  0  0  0  0  0  0  0  0  0  0
  193.2710  176.7040  145.5220 C   0  0  0  0  0  0  0  0  0  0  0  0
  189.7080  173.5350  142.0040 O   0  0  0  0  0  0  0  0  0  0  0  0
  190.4110  171.6110  140.6670 C   0  0  0  0  0  3  0  0  0  0  0  0
  189.5980  173.6260  139.6000 C   0  0  0  0  0  3  0  0  0  0  0  0
  190.2710  171.7270  138.2530 C   0  0  0  0  0  0  0  0  0  0  0  0
  189.9060  172.9180  140.7660 C   0  0  0  0  0  0  0  0  0  0  0  0
  189.7840  173.0350  138.3470 C   0  0  0  0  0  3  0  0  0  0  0  0
  190.5960  171.0200  139.4140 C   0  0  0  0  0  3  0  0  0  0  0  0
  190.5510  169.4820  136.7740 O   0  0  0  0  0  1  0  0  0  0  0  0
  192.1460  171.5420  135.9990 C   0  0  0  0  0  1  0  0  0  0  0  0
  189.3190  171.4570  135.5840 O   0  0  0  0  0  0  0  0  0  0  0  0
  190.5460  170.9880  136.6480 P   0  0  2  0  0  0  0  0  0  0  0  0
  192.4510  174.6220  142.4500 C   0  0  0  0  0  2  0  0  0  0  0  0
  192.3280  173.0210  144.3300 C   0  0  0  0  0  1  0  0  0  0  0  0
  192.9320  173.2800  142.9660 C   0  0  0  0  0  2  0  0  0  0  0  0
  1 10  1  0  0  0  0
  2  1  1  0  0  0  0
  2 13  2  0  0  0  0
  5  3  2  0  0  0  0
  5  4  1  0  0  0  0
  6 12  1  0  0  0  0
  6 11  2  0  0  0  0
  7 18  1  1  0  0  0
  7 13  1  0  0  0  0
  7 14  1  0  0  0  0
  8  6  1  0  0  0  0
  9  3  1  0  0  0  0
  9 16  1  1  0  0  0
 10  4  2  0  0  0  0
 10  8  1  0  0  0  0
 13  5  1  0  0  0  0
 14 29  1  6  0  0  0
 14  9  1  0  0  0  0
 16 17  3  0  0  0  0
 17 15  1  0  0  0  0
 19 22  1  0  0  0  0
 20 22  2  0  0  0  0
 21 23  2  0  0  0  0
 21 24  1  0  0  0  0
 22 18  1  0  0  0  0
 23 20  1  0  0  0  0
 24 19  2  0  0  0  0
 27 28  2  0  0  0  0
 28 26  1  6  0  0  0
 28 25  1  0  0  0  0
 28 21  1  0  0  0  0
 29 31  1  0  0  0  0
 31 30  1  0  0  0  0
M  END
>  <MODEL>
7

>  <REMARK>
 VINA RESULT:      -6.4      3.778      8.106
  Name = 
  6 active torsions:
  status: ('A' for Active; 'I' for Inactive)
    1  A    between atoms: O_1  and  C_19
    2  A    between atoms: O_1  and  C_21
    3  A    between atoms: C_12  and  C_25
    4  A    between atoms: C_16  and  P_17
    5  A    between atoms: C_18  and  C_30
    6  A    between atoms: C_18  and  C_31
                            x       y       z     vdW  Elec       q    Type
                         _______ _______ _______ _____ _____    ______ ____

>  <TORSDO>
F 6

$$$$
=
 OpenBabel11042414043D

 31 33  0  0  1  0  0  0  0  0999 V2000
  188.0670  176.6220  146.4470 C   0  0  0  0  0  2  0  0  0  0  0  0
  189.0910  175.5300  146.2820 C   0  0  0  0  0  3  0  0  0  0  0  0
  188.6230  174.6980  142.8150 N   0  0  0  0  0  0  0  0  0  0  0  0
  187.7100  176.5100  144.0210 N   0  0  0  0  0  0  0  0  0  0  0  0
  188.5230  175.3370  143.9400 C   0  0  0  0  0  0  0  0  0  0  0  0
  186.0800  178.9540  144.0520 C   0  0  0  0  0  0  0  0  0  0  0  0
  190.2940  173.7890  145.0070 C   0  0  1  0  0  3  0  0  0  0  0  0
  186.6960  178.3200  145.1800 N   0  0  0  0  0  2  0  0  0  0  0  0
  189.4060  173.4720  142.6590 C   0  0  2  0  0  3  0  0  0  0  0  0
  187.5140  177.1440  145.1420 C   0  0  0  0  0  0  0  0  0  0  0  0
  186.2350  178.5040  142.8860 O   0  0  0  0  0  0  0  0  0  0  0  0
  185.2460  180.1650  144.2630 C   0  0  0  0  0  1  0  0  0  0  0  0
  189.3020  174.9160  145.1160 C   0  0  0  0  0  0  0  0  0  0  0  0
  190.6650  173.4990  143.5440 C   0  0  2  0  0  3  0  0  0  0  0  0
  190.3690  173.0020  138.6640 C   0  0  0  0  0  1  0  0  0  0  0  0
  189.7470  173.3050  141.2400 C   0  0  0  0  0  0  0  0  0  0  0  0
  190.0280  173.1690  140.0760 C   0  0  0  0  0  0  0  0  0  0  0  0
  191.4730  174.1010  145.7450 O   0  0  0  0  0  0  0  0  0  0  0  0
  193.8980  174.0300  145.4240 C   0  0  0  0  0  3  0  0  0  0  0  0
  192.5450  175.6670  144.2620 C   0  0  0  0  0  3  0  0  0  0  0  0
  194.9420  175.6060  143.9110 C   0  0  0  0  0  0  0  0  0  0  0  0
  192.6390  174.5900  145.1490 C   0  0  0  0  0  0  0  0  0  0  0  0
  193.6920  176.1770  143.6480 C   0  0  0  0  0  3  0  0  0  0  0  0
  195.0440  174.5400  144.8090 C   0  0  0  0  0  3  0  0  0  0  0  0
  196.8290  177.5410  143.8880 O   0  0  0  0  0  1  0  0  0  0  0  0
  196.0660  176.6890  141.4220 C   0  0  0  0  0  1  0  0  0  0  0  0
  197.6680  175.1550  143.2260 O   0  0  0  0  0  0  0  0  0  0  0  0
  196.4130  176.2860  143.1560 P   0  0  2  0  0  0  0  0  0  0  0  0
  191.4020  172.1670  143.4740 C   0  0  0  0  0  2  0  0  0  0  0  0
  193.6580  171.2880  142.9750 C   0  0  0  0  0  1  0  0  0  0  0  0
  192.5990  172.2850  142.5520 C   0  0  0  0  0  2  0  0  0  0  0  0
  2  1  1  0  0  0  0
  3  5  2  0  0  0  0
  4 10  2  0  0  0  0
  5  4  1  0  0  0  0
  5 13  1  0  0  0  0
  6 12  1  0  0  0  0
  6  8  1  0  0  0  0
  7 13  1  0  0  0  0
  7 18  1  1  0  0  0
  9 16  1  6  0  0  0
  9  3  1  0  0  0  0
  9 14  1  0  0  0  0
 10  8  1  0  0  0  0
 10  1  1  0  0  0  0
 11  6  2  0  0  0  0
 13  2  2  0  0  0  0
 14 29  1  1  0  0  0
 14  7  1  0  0  0  0
 15 17  1  0  0  0  0
 17 16  3  0  0  0  0
 20 22  2  0  0  0  0
 21 24  1  0  0  0  0
 22 19  1  0  0  0  0
 22 18  1  0  0  0  0
 23 21  2  0  0  0  0
 23 20  1  0  0  0  0
 24 19  2  0  0  0  0
 28 26  1  6  0  0  0
 28 27  2  0  0  0  0
 28 25  1  0  0  0  0
 28 21  1  0  0  0  0
 31 30  1  0  0  0  0
 31 29  1  0  0  0  0
M  END
>  <MODEL>
8

>  <REMARK>
 VINA RESULT:      -5.9      3.835      7.661
  Name = 
  6 active torsions:
  status: ('A' for Active; 'I' for Inactive)
    1  A    between atoms: O_1  and  C_19
    2  A    between atoms: O_1  and  C_21
    3  A    between atoms: C_12  and  C_25
    4  A    between atoms: C_16  and  P_17
    5  A    between atoms: C_18  and  C_30
    6  A    between atoms: C_18  and  C_31
                            x       y       z     vdW  Elec       q    Type
                         _______ _______ _______ _____ _____    ______ ____

>  <TORSDO>
F 6

$$$$
=
 OpenBabel11042414043D

 31 33  0  0  1  0  0  0  0  0999 V2000
  191.7000  173.3320  140.5450 C   0  0  0  0  0  2  0  0  0  0  0  0
  191.6010  173.9110  141.9320 C   0  0  0  0  0  3  0  0  0  0  0  0
  188.5670  175.8180  141.6400 N   0  0  0  0  0  0  0  0  0  0  0  0
  189.4750  174.2700  140.1070 N   0  0  0  0  0  0  0  0  0  0  0  0
  189.5140  174.9810  141.3460 C   0  0  0  0  0  0  0  0  0  0  0  0
  189.2490  172.8010  137.5730 C   0  0  0  0  0  0  0  0  0  0  0  0
  190.5570  175.3010  143.6870 C   0  0  1  0  0  3  0  0  0  0  0  0
  190.3570  172.7770  138.4820 N   0  0  0  0  0  2  0  0  0  0  0  0
  188.5520  176.6100  142.8700 C   0  0  2  0  0  3  0  0  0  0  0  0
  190.4370  173.4770  139.7300 C   0  0  0  0  0  0  0  0  0  0  0  0
  188.2090  173.4630  137.8290 O   0  0  0  0  0  0  0  0  0  0  0  0
  189.3290  172.0270  136.3070 C   0  0  0  0  0  1  0  0  0  0  0  0
  190.5880  174.6930  142.3110 C   0  0  0  0  0  0  0  0  0  0  0  0
  189.1570  175.8210  144.0470 C   0  0  2  0  0  3  0  0  0  0  0  0
  184.6620  177.7710  143.6590 C   0  0  0  0  0  1  0  0  0  0  0  0
  187.1710  177.0230  143.1510 C   0  0  0  0  0  0  0  0  0  0  0  0
  186.0370  177.3620  143.3810 C   0  0  0  0  0  0  0  0  0  0  0  0
  190.9710  174.3390  144.6560 O   0  0  0  0  0  0  0  0  0  0  0  0
  193.2710  175.0660  145.0680 C   0  0  0  0  0  3  0  0  0  0  0  0
  192.7100  172.7120  145.0190 C   0  0  0  0  0  3  0  0  0  0  0  0
  194.9910  173.4060  145.4480 C   0  0  0  0  0  0  0  0  0  0  0  0
  192.3130  174.0490  144.9160 C   0  0  0  0  0  0  0  0  0  0  0  0
  194.0440  172.3900  145.2800 C   0  0  0  0  0  3  0  0  0  0  0  0
  194.6050  174.7440  145.3300 C   0  0  0  0  0  3  0  0  0  0  0  0
  197.2310  173.7880  146.9130 O   0  0  0  0  0  1  0  0  0  0  0  0
  197.6790  173.3830  144.2630 C   0  0  0  0  0  1  0  0  0  0  0  0
  196.8450  171.3400  146.0810 O   0  0  0  0  0  0  0  0  0  0  0  0
  196.7060  172.9910  145.7410 P   0  0  2  0  0  0  0  0  0  0  0  0
  189.2570  176.6980  145.2880 C   0  0  0  0  0  2  0  0  0  0  0  0
  187.3240  176.9440  146.8100 C   0  0  0  0  0  1  0  0  0  0  0  0
  188.4970  176.0630  146.4350 C   0  0  0  0  0  2  0  0  0  0  0  0
  1  2  1  0  0  0  0
  2 13  2  0  0  0  0
  3  9  1  0  0  0  0
  4  5  1  0  0  0  0
  5  3  2  0  0  0  0
  5 13  1  0  0  0  0
  6 11  2  0  0  0  0
  6  8  1  0  0  0  0
  7 14  1  0  0  0  0
  7 18  1  1  0  0  0
  8 10  1  0  0  0  0
  9 16  1  1  0  0  0
  9 14  1  0  0  0  0
 10  4  2  0  0  0  0
 10  1  1  0  0  0  0
 12  6  1  0  0  0  0
 13  7  1  0  0  0  0
 14 29  1  1  0  0  0
 16 17  3  0  0  0  0
 17 15  1  0  0  0  0
 18 22  1  0  0  0  0
 19 24  1  0  0  0  0
 20 23  2  0  0  0  0
 21 28  1  0  0  0  0
 22 20  1  0  0  0  0
 22 19  2  0  0  0  0
 23 21  1  0  0  0  0
 24 21  2  0  0  0  0
 28 26  1  6  0  0  0
 28 27  2  0  0  0  0
 28 25  1  0  0  0  0
 29 31  1  0  0  0  0
 31 30  1  0  0  0  0
M  END
>  <MODEL>
9

>  <REMARK>
 VINA RESULT:      -5.9      3.603      7.303
  Name = 
  6 active torsions:
  status: ('A' for Active; 'I' for Inactive)
    1  A    between atoms: O_1  and  C_19
    2  A    between atoms: O_1  and  C_21
    3  A    between atoms: C_12  and  C_25
    4  A    between atoms: C_16  and  P_17
    5  A    between atoms: C_18  and  C_30
    6  A    between atoms: C_18  and  C_31
                            x       y       z     vdW  Elec       q    Type
                         _______ _______ _______ _____ _____    ______ ____

>  <TORSDO>
F 6

$$$$
