=
 OpenBabel11042418323D

 37 38  0  0  1  0  0  0  0  0999 V2000
  189.9610  174.6290  145.0830 C   0  0  0  0  0  2  0  0  0  0  0  0
  191.2400  175.6050  146.9440 C   0  0  0  0  0  1  0  0  0  0  0  0
  189.0930  174.5170  147.4120 C   0  0  0  0  0  1  0  0  0  0  0  0
  189.8370  175.3850  146.4080 C   0  0  0  0  0  0  0  0  0  0  0  0
  189.7230  177.6670  145.2030 C   0  0  0  0  0  1  0  0  0  0  0  0
  189.0870  176.7260  146.2220 C   0  0  1  0  0  3  0  0  0  0  0  0
  186.6050  177.2280  146.7140 C   0  0  0  0  0  0  0  0  0  0  0  0
  187.6490  176.5690  145.9870 N   0  0  0  0  0  2  0  0  0  0  0  0
  186.8700  177.9750  147.6910 O   0  0  0  0  0  0  0  0  0  0  0  0
  185.1800  176.9840  146.3460 C   0  0  0  0  0  2  0  0  0  0  0  0
  184.3740  178.2780  146.3700 C   0  0  0  0  0  2  0  0  0  0  0  0
  184.6860  179.1570  145.1680 C   0  0  0  0  0  2  0  0  0  0  0  0
  184.4010  177.8680  141.7540 O   0  0  0  0  0  0  0  0  0  0  0  0
  184.9350  178.3580  142.7840 C   0  0  0  0  0  0  0  0  0  0  0  0
  184.1430  178.5650  143.9540 N   0  0  0  0  0  2  0  0  0  0  0  0
  186.3820  178.7330  142.7560 C   0  0  0  0  0  2  0  0  0  0  0  0
  187.6200  177.7490  140.9890 O   0  0  0  0  0  0  0  0  0  0  0  0
  187.2290  177.5600  142.2950 C   0  0  0  0  0  3  0  0  0  0  0  0
  188.4890  178.0120  141.9770 O   0  0  0  0  0  0  0  0  0  0  0  0
  191.6360  173.9560  144.7990 S   0  0  0  0  0  0  0  0  0  0  0  0
  191.8690  174.9570  143.2870 C   0  0  2  0  0  3  0  0  0  0  0  0
  189.7360  172.8570  140.8330 C   0  0  0  0  0  0  0  0  0  0  0  0
  191.6020  172.6580  142.2690 C   0  0  0  0  0  2  0  0  0  0  0  0
  189.8250  174.5190  141.4690 S   0  0  0  0  0  0  0  0  0  0  0  0
  188.7460  172.5110  139.7730 C   0  0  0  0  0  1  0  0  0  0  0  0
  190.6610  172.0250  141.3090 C   0  0  0  0  0  0  0  0  0  0  0  0
  191.5250  174.1610  142.0260 C   0  0  1  0  0  3  0  0  0  0  0  0
  190.4480  169.6850  141.7400 O   0  0  0  0  0  0  0  0  0  0  0  0
  190.8080  170.5980  140.9460 C   0  0  0  0  0  0  0  0  0  0  0  0
  191.3660  170.2680  139.7090 O   0  0  0  0  0  0  0  0  0  0  0  0
  190.0620  169.2420  137.9790 C   0  0  0  0  0  1  0  0  0  0  0  0
  191.0920  169.0310  139.0690 C   0  0  0  0  0  2  0  0  0  0  0  0
  193.3000  175.4880  143.2300 C   0  0  0  0  0  2  0  0  0  0  0  0
  193.5180  176.4320  144.2370 O   0  0  0  0  0  0  0  0  0  0  0  0
  196.2130  177.0790  144.0470 O   0  0  0  0  0  0  0  0  0  0  0  0
  195.5130  175.1800  145.7070 O   0  0  0  0  0  0  0  0  0  0  0  0
  195.1380  176.2240  144.6810 P   0  0  0  0  0  0  0  0  0  0  0  0
  1  4  1  0  0  0  0
  4  2  1  0  0  0  0
  4  3  1  0  0  0  0
  6  5  1  6  0  0  0
  6  4  1  0  0  0  0
  7  9  2  0  0  0  0
  8  6  1  0  0  0  0
  8  7  1  0  0  0  0
 10 11  1  0  0  0  0
 10  7  1  0  0  0  0
 12 11  1  0  0  0  0
 13 14  2  0  0  0  0
 14 15  1  0  0  0  0
 15 12  1  0  0  0  0
 16 14  1  0  0  0  0
 17 19  1  0  0  0  0
 17 18  1  0  0  0  0
 18 16  1  0  0  0  0
 19 18  1  0  0  0  0
 20  1  1  0  0  0  0
 21 33  1  6  0  0  0
 21 20  1  0  0  0  0
 22 26  2  0  0  0  0
 22 24  1  0  0  0  0
 24 27  1  0  0  0  0
 25 22  1  0  0  0  0
 26 23  1  0  0  0  0
 27 23  1  0  0  0  0
 27 21  1  1  0  0  0
 29 26  1  0  0  0  0
 29 28  2  0  0  0  0
 30 29  1  0  0  0  0
 31 32  1  0  0  0  0
 32 30  1  0  0  0  0
 33 34  1  0  0  0  0
 34 37  1  0  0  0  0
 35 37  2  0  0  0  0
 37 36  2  0  0  0  0
M  END
>  <MODEL>
1

>  <REMARK>
 VINA RESULT:      -5.9      0.000      0.000
  Name = 
  18 active torsions:
  status: ('A' for Active; 'I' for Inactive)
    1  A    between atoms: C_1  and  C_28
    2  A    between atoms: S_4  and  C_13
    3  A    between atoms: S_4  and  C_34
    4  A    between atoms: C_6  and  C_10
    5  A    between atoms: C_6  and  C_22
    6  A    between atoms: N_7  and  C_32
    7  A    between atoms: C_9  and  C_21
    8  A    between atoms: C_9  and  N_31
    9  A    between atoms: O_11  and  C_36
   10  A    between atoms: O_11  and  C_37
   11  A    between atoms: C_13  and  C_30
   12  A    between atoms: C_21  and  C_28
   13  A    between atoms: C_24  and  C_36
   14  A    between atoms: C_25  and  C_34
   15  A    between atoms: P_26  and  O_33
   16  A    between atoms: C_30  and  C_32
   17  A    between atoms: O_33  and  C_35
   18  A    between atoms: C_34  and  C_35
                            x       y       z     vdW  Elec       q    Type
                         _______ _______ _______ _____ _____    ______ ____

>  <TORSDO>
F 18

$$$$
=
 OpenBabel11042418323D

 37 38  0  0  1  0  0  0  0  0999 V2000
  189.7190  174.6570  144.7960 C   0  0  0  0  0  2  0  0  0  0  0  0
  191.1640  175.8110  146.4180 C   0  0  0  0  0  1  0  0  0  0  0  0
  189.1050  174.7370  147.2060 C   0  0  0  0  0  1  0  0  0  0  0  0
  189.7170  175.5250  146.0570 C   0  0  0  0  0  0  0  0  0  0  0  0
  189.4080  177.6790  144.6660 C   0  0  0  0  0  1  0  0  0  0  0  0
  188.9210  176.8330  145.8390 C   0  0  1  0  0  3  0  0  0  0  0  0
  186.5120  177.2830  146.6450 C   0  0  0  0  0  0  0  0  0  0  0  0
  187.4690  176.6380  145.7960 N   0  0  0  0  0  2  0  0  0  0  0  0
  186.8830  178.0520  147.5700 O   0  0  0  0  0  0  0  0  0  0  0  0
  185.0580  176.9990  146.4700 C   0  0  0  0  0  2  0  0  0  0  0  0
  184.2500  178.2900  146.3850 C   0  0  0  0  0  2  0  0  0  0  0  0
  184.6820  179.1460  145.2030 C   0  0  0  0  0  2  0  0  0  0  0  0
  183.7870  178.0360  141.8330 O   0  0  0  0  0  0  0  0  0  0  0  0
  184.5070  178.2850  142.8340 C   0  0  0  0  0  0  0  0  0  0  0  0
  183.9050  178.8050  144.0200 N   0  0  0  0  0  2  0  0  0  0  0  0
  185.9820  178.0520  142.7560 C   0  0  0  0  0  2  0  0  0  0  0  0
  187.8060  177.8590  141.2520 O   0  0  0  0  0  0  0  0  0  0  0  0
  186.4350  177.9720  141.3090 C   0  0  0  0  0  3  0  0  0  0  0  0
  187.0520  176.7610  141.0960 O   0  0  0  0  0  0  0  0  0  0  0  0
  191.2890  173.7560  144.5510 S   0  0  0  0  0  0  0  0  0  0  0  0
  191.6260  174.6110  142.9700 C   0  0  2  0  0  3  0  0  0  0  0  0
  192.0000  173.3740  139.3210 C   0  0  0  0  0  0  0  0  0  0  0  0
  190.3370  173.8780  140.9220 C   0  0  0  0  0  2  0  0  0  0  0  0
  193.0230  173.8570  140.6980 S   0  0  0  0  0  0  0  0  0  0  0  0
  192.6240  172.8510  138.0710 C   0  0  0  0  0  1  0  0  0  0  0  0
  190.6900  173.4340  139.5480 C   0  0  0  0  0  0  0  0  0  0  0  0
  191.5720  173.6440  141.7850 C   0  0  1  0  0  3  0  0  0  0  0  0
  189.1510  171.9210  138.5230 O   0  0  0  0  0  0  0  0  0  0  0  0
  189.6280  173.0880  138.5770 C   0  0  0  0  0  0  0  0  0  0  0  0
  189.1620  174.0740  137.7030 O   0  0  0  0  0  0  0  0  0  0  0  0
  190.4680  174.8010  135.8300 C   0  0  0  0  0  1  0  0  0  0  0  0
  189.3020  173.9550  136.2960 C   0  0  0  0  0  2  0  0  0  0  0  0
  192.9760  175.3210  143.0400 C   0  0  0  0  0  2  0  0  0  0  0  0
  193.7330  174.8420  144.1120 O   0  0  0  0  0  0  0  0  0  0  0  0
  194.2940  177.2730  145.3330 O   0  0  0  0  0  0  0  0  0  0  0  0
  196.2130  176.0850  144.0070 O   0  0  0  0  0  0  0  0  0  0  0  0
  194.7850  176.1110  144.4990 P   0  0  0  0  0  0  0  0  0  0  0  0
  1  4  1  0  0  0  0
  4  2  1  0  0  0  0
  4  3  1  0  0  0  0
  6  5  1  6  0  0  0
  6  4  1  0  0  0  0
  7  9  2  0  0  0  0
  8  6  1  0  0  0  0
  8  7  1  0  0  0  0
 10  7  1  0  0  0  0
 11 10  1  0  0  0  0
 12 11  1  0  0  0  0
 13 14  2  0  0  0  0
 14 15  1  0  0  0  0
 15 12  1  0  0  0  0
 16 14  1  0  0  0  0
 17 18  1  0  0  0  0
 18 16  1  0  0  0  0
 19 17  1  0  0  0  0
 19 18  1  0  0  0  0
 20  1  1  0  0  0  0
 21 33  1  1  0  0  0
 21 20  1  0  0  0  0
 22 26  2  0  0  0  0
 22 24  1  0  0  0  0
 23 27  1  0  0  0  0
 24 27  1  0  0  0  0
 25 22  1  0  0  0  0
 26 23  1  0  0  0  0
 27 21  1  1  0  0  0
 28 29  2  0  0  0  0
 29 26  1  0  0  0  0
 30 29  1  0  0  0  0
 31 32  1  0  0  0  0
 32 30  1  0  0  0  0
 33 34  1  0  0  0  0
 34 37  1  0  0  0  0
 36 37  2  0  0  0  0
 37 35  2  0  0  0  0
M  END
>  <MODEL>
2

>  <REMARK>
 VINA RESULT:      -5.8      1.835      2.289
  Name = 
  18 active torsions:
  status: ('A' for Active; 'I' for Inactive)
    1  A    between atoms: C_1  and  C_28
    2  A    between atoms: S_4  and  C_13
    3  A    between atoms: S_4  and  C_34
    4  A    between atoms: C_6  and  C_10
    5  A    between atoms: C_6  and  C_22
    6  A    between atoms: N_7  and  C_32
    7  A    between atoms: C_9  and  C_21
    8  A    between atoms: C_9  and  N_31
    9  A    between atoms: O_11  and  C_36
   10  A    between atoms: O_11  and  C_37
   11  A    between atoms: C_13  and  C_30
   12  A    between atoms: C_21  and  C_28
   13  A    between atoms: C_24  and  C_36
   14  A    between atoms: C_25  and  C_34
   15  A    between atoms: P_26  and  O_33
   16  A    between atoms: C_30  and  C_32
   17  A    between atoms: O_33  and  C_35
   18  A    between atoms: C_34  and  C_35
                            x       y       z     vdW  Elec       q    Type
                         _______ _______ _______ _____ _____    ______ ____

>  <TORSDO>
F 18

$$$$
=
 OpenBabel11042418323D

 37 38  0  0  1  0  0  0  0  0999 V2000
  189.7970  174.3060  140.5780 C   0  0  0  0  0  2  0  0  0  0  0  0
  190.1090  173.2930  138.3580 C   0  0  0  0  0  1  0  0  0  0  0  0
  188.1260  172.7020  139.6720 C   0  0  0  0  0  1  0  0  0  0  0  0
  189.6100  173.0220  139.7660 C   0  0  0  0  0  0  0  0  0  0  0  0
  190.6910  170.6980  139.4470 C   0  0  0  0  0  1  0  0  0  0  0  0
  190.3610  171.8330  140.4120 C   0  0  1  0  0  3  0  0  0  0  0  0
  191.7450  171.9580  142.5850 C   0  0  0  0  0  0  0  0  0  0  0  0
  191.5340  172.2330  141.1950 N   0  0  0  0  0  2  0  0  0  0  0  0
  190.8630  171.3790  143.2710 O   0  0  0  0  0  0  0  0  0  0  0  0
  193.0040  172.4130  143.2450 C   0  0  0  0  0  2  0  0  0  0  0  0
  192.9160  172.2670  144.7610 C   0  0  0  0  0  2  0  0  0  0  0  0
  193.8770  173.2100  145.4720 C   0  0  0  0  0  2  0  0  0  0  0  0
  193.6890  176.8510  145.1600 O   0  0  0  0  0  0  0  0  0  0  0  0
  194.1860  175.6950  145.1380 C   0  0  0  0  0  0  0  0  0  0  0  0
  193.3610  174.5710  145.4460 N   0  0  0  0  0  2  0  0  0  0  0  0
  195.6340  175.5220  144.8080 C   0  0  0  0  0  2  0  0  0  0  0  0
  196.7990  177.0980  143.4730 O   0  0  0  0  0  0  0  0  0  0  0  0
  195.9290  176.0330  143.4090 C   0  0  0  0  0  3  0  0  0  0  0  0
  197.2720  175.8850  143.1490 O   0  0  0  0  0  0  0  0  0  0  0  0
  188.4350  174.6110  141.7560 S   0  0  0  0  0  0  0  0  0  0  0  0
  189.0780  176.2650  142.1960 C   0  0  2  0  0  3  0  0  0  0  0  0
  188.8840  175.3620  145.9550 C   0  0  0  0  0  0  0  0  0  0  0  0
  188.1000  176.9750  144.4180 C   0  0  0  0  0  2  0  0  0  0  0  0
  189.6410  174.7640  144.4570 S   0  0  0  0  0  0  0  0  0  0  0  0
  189.1850  174.7060  147.2610 C   0  0  0  0  0  1  0  0  0  0  0  0
  188.1390  176.4550  145.8100 C   0  0  0  0  0  0  0  0  0  0  0  0
  189.3150  176.3940  143.7030 C   0  0  1  0  0  3  0  0  0  0  0  0
  187.9250  178.1210  147.5090 O   0  0  0  0  0  0  0  0  0  0  0  0
  187.4050  177.1520  146.8890 C   0  0  0  0  0  0  0  0  0  0  0  0
  186.1220  176.7140  147.2280 O   0  0  0  0  0  0  0  0  0  0  0  0
  184.4350  178.3490  146.7510 C   0  0  0  0  0  1  0  0  0  0  0  0
  184.9970  176.9850  146.4070 C   0  0  0  0  0  2  0  0  0  0  0  0
  188.1230  177.3460  141.6950 C   0  0  0  0  0  2  0  0  0  0  0  0
  187.0000  176.7730  141.0910 O   0  0  0  0  0  0  0  0  0  0  0  0
  185.7560  178.8230  142.4930 O   0  0  0  0  0  0  0  0  0  0  0  0
  184.7020  178.0640  140.2200 O   0  0  0  0  0  0  0  0  0  0  0  0
  185.7770  177.9280  141.2740 P   0  0  0  0  0  0  0  0  0  0  0  0
  1 20  1  0  0  0  0
  2  4  1  0  0  0  0
  3  4  1  0  0  0  0
  4  6  1  0  0  0  0
  4  1  1  0  0  0  0
  6  5  1  6  0  0  0
  6  8  1  0  0  0  0
  7 10  1  0  0  0  0
  7  9  2  0  0  0  0
  8  7  1  0  0  0  0
 10 11  1  0  0  0  0
 11 12  1  0  0  0  0
 14 13  2  0  0  0  0
 14 15  1  0  0  0  0
 15 12  1  0  0  0  0
 16 14  1  0  0  0  0
 18 17  1  0  0  0  0
 18 16  1  0  0  0  0
 19 18  1  0  0  0  0
 19 17  1  0  0  0  0
 20 21  1  0  0  0  0
 21 33  1  1  0  0  0
 22 25  1  0  0  0  0
 23 26  1  0  0  0  0
 24 22  1  0  0  0  0
 26 22  2  0  0  0  0
 26 29  1  0  0  0  0
 27 21  1  6  0  0  0
 27 23  1  0  0  0  0
 27 24  1  0  0  0  0
 29 30  1  0  0  0  0
 29 28  2  0  0  0  0
 32 31  1  0  0  0  0
 32 30  1  0  0  0  0
 34 37  1  0  0  0  0
 34 33  1  0  0  0  0
 36 37  2  0  0  0  0
 37 35  2  0  0  0  0
M  END
>  <MODEL>
3

>  <REMARK>
 VINA RESULT:      -5.5      3.089      8.851
  Name = 
  18 active torsions:
  status: ('A' for Active; 'I' for Inactive)
    1  A    between atoms: C_1  and  C_28
    2  A    between atoms: S_4  and  C_13
    3  A    between atoms: S_4  and  C_34
    4  A    between atoms: C_6  and  C_10
    5  A    between atoms: C_6  and  C_22
    6  A    between atoms: N_7  and  C_32
    7  A    between atoms: C_9  and  C_21
    8  A    between atoms: C_9  and  N_31
    9  A    between atoms: O_11  and  C_36
   10  A    between atoms: O_11  and  C_37
   11  A    between atoms: C_13  and  C_30
   12  A    between atoms: C_21  and  C_28
   13  A    between atoms: C_24  and  C_36
   14  A    between atoms: C_25  and  C_34
   15  A    between atoms: P_26  and  O_33
   16  A    between atoms: C_30  and  C_32
   17  A    between atoms: O_33  and  C_35
   18  A    between atoms: C_34  and  C_35
                            x       y       z     vdW  Elec       q    Type
                         _______ _______ _______ _____ _____    ______ ____

>  <TORSDO>
F 18

$$$$
=
 OpenBabel11042418323D

 37 38  0  0  1  0  0  0  0  0999 V2000
  192.3020  176.7480  144.8130 C   0  0  0  0  0  2  0  0  0  0  0  0
  192.1810  175.3310  146.8200 C   0  0  0  0  0  1  0  0  0  0  0  0
  194.0950  176.8370  146.5350 C   0  0  0  0  0  1  0  0  0  0  0  0
  193.1340  175.9190  145.7940 C   0  0  0  0  0  0  0  0  0  0  0  0
  193.6940  173.4050  145.6040 C   0  0  0  0  0  1  0  0  0  0  0  0
  193.9290  174.8110  145.0620 C   0  0  1  0  0  3  0  0  0  0  0  0
  194.7370  175.4370  142.6940 C   0  0  0  0  0  0  0  0  0  0  0  0
  193.7950  174.8570  143.6040 N   0  0  0  0  0  2  0  0  0  0  0  0
  195.7640  176.0290  143.1170 O   0  0  0  0  0  0  0  0  0  0  0  0
  194.4730  175.3890  141.2260 C   0  0  0  0  0  2  0  0  0  0  0  0
  193.7800  174.0880  140.8320 C   0  0  0  0  0  2  0  0  0  0  0  0
  193.1450  174.1870  139.4530 C   0  0  0  0  0  2  0  0  0  0  0  0
  191.0820  171.2630  138.6860 O   0  0  0  0  0  0  0  0  0  0  0  0
  191.3760  172.4240  139.0740 C   0  0  0  0  0  0  0  0  0  0  0  0
  192.7290  172.8710  138.9920 N   0  0  0  0  0  2  0  0  0  0  0  0
  190.3050  173.3060  139.6330 C   0  0  0  0  0  2  0  0  0  0  0  0
  188.0690  173.0550  138.8830 O   0  0  0  0  0  0  0  0  0  0  0  0
  189.2750  173.6370  138.5670 C   0  0  0  0  0  3  0  0  0  0  0  0
  188.2530  174.3600  139.1360 O   0  0  0  0  0  0  0  0  0  0  0  0
  190.5420  176.8630  145.2880 S   0  0  0  0  0  0  0  0  0  0  0  0
  189.9760  176.4310  143.6050 C   0  0  2  0  0  3  0  0  0  0  0  0
  186.6340  177.9420  142.3660 C   0  0  0  0  0  0  0  0  0  0  0  0
  187.9370  177.7420  144.3270 C   0  0  0  0  0  2  0  0  0  0  0  0
  188.0120  177.0040  141.7350 S   0  0  0  0  0  0  0  0  0  0  0  0
  185.4610  178.2330  141.4910 C   0  0  0  0  0  1  0  0  0  0  0  0
  186.7130  178.2550  143.6570 C   0  0  0  0  0  0  0  0  0  0  0  0
  188.4620  176.6040  143.4580 C   0  0  1  0  0  3  0  0  0  0  0  0
  185.5310  180.2560  144.2120 O   0  0  0  0  0  0  0  0  0  0  0  0
  185.7080  179.0240  144.4230 C   0  0  0  0  0  0  0  0  0  0  0  0
  184.9550  178.3690  145.4020 O   0  0  0  0  0  0  0  0  0  0  0  0
  185.8490  177.4590  147.4310 C   0  0  0  0  0  1  0  0  0  0  0  0
  185.1360  178.6280  146.7850 C   0  0  0  0  0  2  0  0  0  0  0  0
  190.4030  175.0060  143.2620 C   0  0  0  0  0  2  0  0  0  0  0  0
  189.3470  174.1110  143.4570 O   0  0  0  0  0  0  0  0  0  0  0  0
  189.5300  171.9390  145.1780 O   0  0  0  0  0  0  0  0  0  0  0  0
  191.2990  172.1470  143.2590 O   0  0  0  0  0  0  0  0  0  0  0  0
  190.0850  172.6810  143.9820 P   0  0  0  0  0  0  0  0  0  0  0  0
  1 20  1  0  0  0  0
  1  4  1  0  0  0  0
  4  3  1  0  0  0  0
  4  2  1  0  0  0  0
  6  5  1  1  0  0  0
  6  4  1  0  0  0  0
  7  9  2  0  0  0  0
  7  8  1  0  0  0  0
  8  6  1  0  0  0  0
 10  7  1  0  0  0  0
 11 10  1  0  0  0  0
 12 11  1  0  0  0  0
 13 14  2  0  0  0  0
 14 16  1  0  0  0  0
 15 14  1  0  0  0  0
 15 12  1  0  0  0  0
 17 19  1  0  0  0  0
 18 17  1  0  0  0  0
 18 19  1  0  0  0  0
 18 16  1  0  0  0  0
 21 33  1  1  0  0  0
 21 20  1  0  0  0  0
 22 26  2  0  0  0  0
 24 22  1  0  0  0  0
 24 27  1  0  0  0  0
 25 22  1  0  0  0  0
 26 23  1  0  0  0  0
 26 29  1  0  0  0  0
 27 21  1  6  0  0  0
 27 23  1  0  0  0  0
 28 29  2  0  0  0  0
 29 30  1  0  0  0  0
 30 32  1  0  0  0  0
 32 31  1  0  0  0  0
 33 34  1  0  0  0  0
 34 37  1  0  0  0  0
 36 37  2  0  0  0  0
 37 35  2  0  0  0  0
M  END
>  <MODEL>
4

>  <REMARK>
 VINA RESULT:      -5.5      3.251      7.963
  Name = 
  18 active torsions:
  status: ('A' for Active; 'I' for Inactive)
    1  A    between atoms: C_1  and  C_28
    2  A    between atoms: S_4  and  C_13
    3  A    between atoms: S_4  and  C_34
    4  A    between atoms: C_6  and  C_10
    5  A    between atoms: C_6  and  C_22
    6  A    between atoms: N_7  and  C_32
    7  A    between atoms: C_9  and  C_21
    8  A    between atoms: C_9  and  N_31
    9  A    between atoms: O_11  and  C_36
   10  A    between atoms: O_11  and  C_37
   11  A    between atoms: C_13  and  C_30
   12  A    between atoms: C_21  and  C_28
   13  A    between atoms: C_24  and  C_36
   14  A    between atoms: C_25  and  C_34
   15  A    between atoms: P_26  and  O_33
   16  A    between atoms: C_30  and  C_32
   17  A    between atoms: O_33  and  C_35
   18  A    between atoms: C_34  and  C_35
                            x       y       z     vdW  Elec       q    Type
                         _______ _______ _______ _____ _____    ______ ____

>  <TORSDO>
F 18

$$$$
=
 OpenBabel11042418323D

 37 38  0  0  1  0  0  0  0  0999 V2000
  189.4330  174.6230  141.5670 C   0  0  0  0  0  2  0  0  0  0  0  0
  188.4050  172.5320  142.3580 C   0  0  0  0  0  1  0  0  0  0  0  0
  190.0690  173.6530  143.7690 C   0  0  0  0  0  1  0  0  0  0  0  0
  189.7010  173.3230  142.3290 C   0  0  0  0  0  0  0  0  0  0  0  0
  191.3570  173.0950  140.3600 C   0  0  0  0  0  1  0  0  0  0  0  0
  190.8430  172.5110  141.6720 C   0  0  1  0  0  3  0  0  0  0  0  0
  192.5610  170.9120  142.7430 C   0  0  0  0  0  0  0  0  0  0  0  0
  191.9430  172.1950  142.5880 N   0  0  0  0  0  2  0  0  0  0  0  0
  192.1360  169.9090  142.1120 O   0  0  0  0  0  0  0  0  0  0  0  0
  193.6900  170.7460  143.7050 C   0  0  0  0  0  2  0  0  0  0  0  0
  193.5330  171.6740  144.9060 C   0  0  0  0  0  2  0  0  0  0  0  0
  194.7740  172.5270  145.1220 C   0  0  0  0  0  2  0  0  0  0  0  0
  195.1780  174.9430  142.4030 O   0  0  0  0  0  0  0  0  0  0  0  0
  194.8140  174.4750  143.5130 C   0  0  0  0  0  0  0  0  0  0  0  0
  195.1880  173.1440  143.8700 N   0  0  0  0  0  2  0  0  0  0  0  0
  193.9800  175.3130  144.4280 C   0  0  0  0  0  2  0  0  0  0  0  0
  194.0780  177.0400  146.0510 O   0  0  0  0  0  0  0  0  0  0  0  0
  194.8600  176.2050  145.2860 C   0  0  0  0  0  3  0  0  0  0  0  0
  194.6080  175.9440  146.6130 O   0  0  0  0  0  0  0  0  0  0  0  0
  187.7390  175.2600  141.8160 S   0  0  0  0  0  0  0  0  0  0  0  0
  188.3240  176.9840  141.9780 C   0  0  2  0  0  3  0  0  0  0  0  0
  189.7320  176.9970  145.5830 C   0  0  0  0  0  0  0  0  0  0  0  0
  187.7890  176.4000  144.3800 C   0  0  0  0  0  2  0  0  0  0  0  0
  190.2260  177.4620  143.9360 S   0  0  0  0  0  0  0  0  0  0  0  0
  190.6220  177.2910  146.7440 C   0  0  0  0  0  1  0  0  0  0  0  0
  188.5110  176.4750  145.6770 C   0  0  0  0  0  0  0  0  0  0  0  0
  188.4700  177.3940  143.4450 C   0  0  1  0  0  3  0  0  0  0  0  0
  188.3200  175.0240  147.5640 O   0  0  0  0  0  0  0  0  0  0  0  0
  187.8630  176.0090  146.9220 C   0  0  0  0  0  0  0  0  0  0  0  0
  186.7200  176.6710  147.3790 O   0  0  0  0  0  0  0  0  0  0  0  0
  185.1220  178.4560  147.4610 C   0  0  0  0  0  1  0  0  0  0  0  0
  186.5780  178.0790  147.2790 C   0  0  0  0  0  2  0  0  0  0  0  0
  187.3800  177.9260  141.2340 C   0  0  0  0  0  2  0  0  0  0  0  0
  186.5780  178.6340  142.1320 O   0  0  0  0  0  0  0  0  0  0  0  0
  183.9370  178.0850  142.7960 O   0  0  0  0  0  0  0  0  0  0  0  0
  184.6280  177.9580  140.2750 O   0  0  0  0  0  0  0  0  0  0  0  0
  184.9920  178.2120  141.7190 P   0  0  0  0  0  0  0  0  0  0  0  0
  1 20  1  0  0  0  0
  1  4  1  0  0  0  0
  4  2  1  0  0  0  0
  4  3  1  0  0  0  0
  6  5  1  6  0  0  0
  6  4  1  0  0  0  0
  6  8  1  0  0  0  0
  7 10  1  0  0  0  0
  8  7  1  0  0  0  0
  9  7  2  0  0  0  0
 10 11  1  0  0  0  0
 11 12  1  0  0  0  0
 13 14  2  0  0  0  0
 14 15  1  0  0  0  0
 14 16  1  0  0  0  0
 15 12  1  0  0  0  0
 16 18  1  0  0  0  0
 17 19  1  0  0  0  0
 18 17  1  0  0  0  0
 18 19  1  0  0  0  0
 20 21  1  0  0  0  0
 21 33  1  1  0  0  0
 22 26  2  0  0  0  0
 22 25  1  0  0  0  0
 23 26  1  0  0  0  0
 24 22  1  0  0  0  0
 26 29  1  0  0  0  0
 27 21  1  6  0  0  0
 27 24  1  0  0  0  0
 27 23  1  0  0  0  0
 29 30  1  0  0  0  0
 29 28  2  0  0  0  0
 32 30  1  0  0  0  0
 32 31  1  0  0  0  0
 33 34  1  0  0  0  0
 36 37  2  0  0  0  0
 37 34  1  0  0  0  0
 37 35  2  0  0  0  0
M  END
>  <MODEL>
5

>  <REMARK>
 VINA RESULT:      -5.5      3.403      8.892
  Name = 
  18 active torsions:
  status: ('A' for Active; 'I' for Inactive)
    1  A    between atoms: C_1  and  C_28
    2  A    between atoms: S_4  and  C_13
    3  A    between atoms: S_4  and  C_34
    4  A    between atoms: C_6  and  C_10
    5  A    between atoms: C_6  and  C_22
    6  A    between atoms: N_7  and  C_32
    7  A    between atoms: C_9  and  C_21
    8  A    between atoms: C_9  and  N_31
    9  A    between atoms: O_11  and  C_36
   10  A    between atoms: O_11  and  C_37
   11  A    between atoms: C_13  and  C_30
   12  A    between atoms: C_21  and  C_28
   13  A    between atoms: C_24  and  C_36
   14  A    between atoms: C_25  and  C_34
   15  A    between atoms: P_26  and  O_33
   16  A    between atoms: C_30  and  C_32
   17  A    between atoms: O_33  and  C_35
   18  A    between atoms: C_34  and  C_35
                            x       y       z     vdW  Elec       q    Type
                         _______ _______ _______ _____ _____    ______ ____

>  <TORSDO>
F 18

$$$$
=
 OpenBabel11042418323D

 37 38  0  0  1  0  0  0  0  0999 V2000
  190.6800  174.9430  143.8230 C   0  0  0  0  0  2  0  0  0  0  0  0
  192.7060  176.3140  143.5640 C   0  0  0  0  0  1  0  0  0  0  0  0
  192.1080  175.4740  145.7890 C   0  0  0  0  0  1  0  0  0  0  0  0
  191.5380  176.0210  144.4880 C   0  0  0  0  0  0  0  0  0  0  0  0
  190.7380  178.3310  143.6540 C   0  0  0  0  0  1  0  0  0  0  0  0
  190.7130  177.2980  144.7770 C   0  0  1  0  0  3  0  0  0  0  0  0
  188.8350  177.2650  146.5450 C   0  0  0  0  0  0  0  0  0  0  0  0
  189.3450  177.0260  145.2280 N   0  0  0  0  0  2  0  0  0  0  0  0
  189.5860  177.6890  147.4620 O   0  0  0  0  0  0  0  0  0  0  0  0
  187.4080  176.9560  146.8530 C   0  0  0  0  0  2  0  0  0  0  0  0
  186.5650  176.9190  145.5820 C   0  0  0  0  0  2  0  0  0  0  0  0
  185.9060  178.2630  145.3070 C   0  0  0  0  0  2  0  0  0  0  0  0
  183.6110  178.0910  142.4610 O   0  0  0  0  0  0  0  0  0  0  0  0
  184.6920  178.2310  143.0910 C   0  0  0  0  0  0  0  0  0  0  0  0
  184.7010  178.0820  144.5120 N   0  0  0  0  0  2  0  0  0  0  0  0
  185.9410  178.5710  142.3440 C   0  0  0  0  0  2  0  0  0  0  0  0
  187.5390  177.7050  140.8200 O   0  0  0  0  0  0  0  0  0  0  0  0
  186.4890  177.3460  141.6330 C   0  0  0  0  0  3  0  0  0  0  0  0
  187.7970  177.1510  142.0140 O   0  0  0  0  0  0  0  0  0  0  0  0
  190.9130  173.2880  144.5610 S   0  0  0  0  0  0  0  0  0  0  0  0
  191.1340  172.5010  142.9260 C   0  0  2  0  0  3  0  0  0  0  0  0
  194.6260  171.2020  143.9760 C   0  0  0  0  0  0  0  0  0  0  0  0
  193.6110  173.0040  142.8340 C   0  0  0  0  0  2  0  0  0  0  0  0
  192.9130  170.7290  144.0990 S   0  0  0  0  0  0  0  0  0  0  0  0
  195.6940  170.2890  144.4770 C   0  0  0  0  0  1  0  0  0  0  0  0
  194.8470  172.3490  143.3370 C   0  0  0  0  0  0  0  0  0  0  0  0
  192.5410  171.9200  142.7670 C   0  0  1  0  0  3  0  0  0  0  0  0
  196.9120  172.5680  142.1580 O   0  0  0  0  0  0  0  0  0  0  0  0
  196.1710  172.9650  143.0990 C   0  0  0  0  0  0  0  0  0  0  0  0
  196.6010  173.9930  143.9410 O   0  0  0  0  0  0  0  0  0  0  0  0
  197.0160  173.5120  146.2530 C   0  0  0  0  0  1  0  0  0  0  0  0
  196.0800  174.1570  145.2510 C   0  0  0  0  0  2  0  0  0  0  0  0
  190.8260  173.5060  141.8180 C   0  0  0  0  0  2  0  0  0  0  0  0
  190.4310  172.8500  140.6500 O   0  0  0  0  0  0  0  0  0  0  0  0
  188.0270  173.7320  141.7260 O   0  0  0  0  0  0  0  0  0  0  0  0
  187.9830  172.6040  139.3640 O   0  0  0  0  0  0  0  0  0  0  0  0
  188.7540  173.0700  140.5760 P   0  0  0  0  0  0  0  0  0  0  0  0
  1  4  1  0  0  0  0
  1 20  1  0  0  0  0
  2  4  1  0  0  0  0
  4  6  1  0  0  0  0
  4  3  1  0  0  0  0
  6  5  1  6  0  0  0
  6  8  1  0  0  0  0
  7 10  1  0  0  0  0
  7  9  2  0  0  0  0
  8  7  1  0  0  0  0
 11 10  1  0  0  0  0
 12 11  1  0  0  0  0
 13 14  2  0  0  0  0
 14 15  1  0  0  0  0
 15 12  1  0  0  0  0
 16 14  1  0  0  0  0
 17 18  1  0  0  0  0
 17 19  1  0  0  0  0
 18 19  1  0  0  0  0
 18 16  1  0  0  0  0
 21 33  1  6  0  0  0
 21 20  1  0  0  0  0
 22 24  1  0  0  0  0
 22 25  1  0  0  0  0
 23 26  1  0  0  0  0
 26 22  2  0  0  0  0
 27 23  1  0  0  0  0
 27 21  1  1  0  0  0
 27 24  1  0  0  0  0
 28 29  2  0  0  0  0
 29 26  1  0  0  0  0
 29 30  1  0  0  0  0
 30 32  1  0  0  0  0
 32 31  1  0  0  0  0
 34 33  1  0  0  0  0
 36 37  2  0  0  0  0
 37 34  1  0  0  0  0
 37 35  2  0  0  0  0
M  END
>  <MODEL>
6

>  <REMARK>
 VINA RESULT:      -5.4      2.849      5.037
  Name = 
  18 active torsions:
  status: ('A' for Active; 'I' for Inactive)
    1  A    between atoms: C_1  and  C_28
    2  A    between atoms: S_4  and  C_13
    3  A    between atoms: S_4  and  C_34
    4  A    between atoms: C_6  and  C_10
    5  A    between atoms: C_6  and  C_22
    6  A    between atoms: N_7  and  C_32
    7  A    between atoms: C_9  and  C_21
    8  A    between atoms: C_9  and  N_31
    9  A    between atoms: O_11  and  C_36
   10  A    between atoms: O_11  and  C_37
   11  A    between atoms: C_13  and  C_30
   12  A    between atoms: C_21  and  C_28
   13  A    between atoms: C_24  and  C_36
   14  A    between atoms: C_25  and  C_34
   15  A    between atoms: P_26  and  O_33
   16  A    between atoms: C_30  and  C_32
   17  A    between atoms: O_33  and  C_35
   18  A    between atoms: C_34  and  C_35
                            x       y       z     vdW  Elec       q    Type
                         _______ _______ _______ _____ _____    ______ ____

>  <TORSDO>
F 18

$$$$
=
 OpenBabel11042418323D

 37 38  0  0  1  0  0  0  0  0999 V2000
  189.7660  175.5630  144.3610 C   0  0  0  0  0  2  0  0  0  0  0  0
  191.1420  174.1040  145.7860 C   0  0  0  0  0  1  0  0  0  0  0  0
  189.0310  174.9870  146.6680 C   0  0  0  0  0  1  0  0  0  0  0  0
  190.2340  175.3210  145.7980 C   0  0  0  0  0  0  0  0  0  0  0  0
  190.2720  177.1970  147.5730 C   0  0  0  0  0  1  0  0  0  0  0  0
  190.9620  176.5620  146.3700 C   0  0  1  0  0  3  0  0  0  0  0  0
  193.4560  176.6750  145.7220 C   0  0  0  0  0  0  0  0  0  0  0  0
  192.3890  176.3440  146.6190 N   0  0  0  0  0  2  0  0  0  0  0  0
  193.2170  177.1410  144.5770 O   0  0  0  0  0  0  0  0  0  0  0  0
  194.8690  176.4120  146.1240 C   0  0  0  0  0  2  0  0  0  0  0  0
  195.1850  174.9200  146.0890 C   0  0  0  0  0  2  0  0  0  0  0  0
  194.8630  174.3100  144.7320 C   0  0  0  0  0  2  0  0  0  0  0  0
  197.9410  173.5770  142.8930 O   0  0  0  0  0  0  0  0  0  0  0  0
  196.9710  174.2420  143.3410 C   0  0  0  0  0  0  0  0  0  0  0  0
  196.0250  173.6100  144.2050 N   0  0  0  0  0  2  0  0  0  0  0  0
  196.8160  175.6760  142.9460 C   0  0  0  0  0  2  0  0  0  0  0  0
  194.9560  176.1390  141.5490 O   0  0  0  0  0  0  0  0  0  0  0  0
  196.2860  175.7850  141.5270 C   0  0  0  0  0  3  0  0  0  0  0  0
  195.8790  177.0790  141.2960 O   0  0  0  0  0  0  0  0  0  0  0  0
  189.5700  177.3350  143.9620 S   0  0  0  0  0  0  0  0  0  0  0  0
  188.3860  176.9830  142.6150 C   0  0  2  0  0  3  0  0  0  0  0  0
  185.0120  178.3980  143.8800 C   0  0  0  0  0  0  0  0  0  0  0  0
  186.8740  177.1550  144.6350 C   0  0  0  0  0  2  0  0  0  0  0  0
  185.9800  178.3380  142.3850 S   0  0  0  0  0  0  0  0  0  0  0  0
  183.6520  179.0090  143.8690 C   0  0  0  0  0  1  0  0  0  0  0  0
  185.5610  177.7870  144.9270 C   0  0  0  0  0  0  0  0  0  0  0  0
  186.9420  176.9740  143.1220 C   0  0  1  0  0  3  0  0  0  0  0  0
  184.4670  176.6090  146.6940 O   0  0  0  0  0  0  0  0  0  0  0  0
  184.9680  177.6900  146.2800 C   0  0  0  0  0  0  0  0  0  0  0  0
  184.9590  178.8230  147.0980 O   0  0  0  0  0  0  0  0  0  0  0  0
  186.9790  178.8500  148.3890 C   0  0  0  0  0  1  0  0  0  0  0  0
  186.1370  179.5710  147.3560 C   0  0  0  0  0  2  0  0  0  0  0  0
  188.7410  175.6590  141.9420 C   0  0  0  0  0  2  0  0  0  0  0  0
  187.5990  174.8780  141.7520 O   0  0  0  0  0  0  0  0  0  0  0  0
  188.6550  172.4890  142.6970 O   0  0  0  0  0  0  0  0  0  0  0  0
  188.2390  172.7230  140.1230 O   0  0  0  0  0  0  0  0  0  0  0  0
  188.1840  173.3080  141.5150 P   0  0  0  0  0  0  0  0  0  0  0  0
  1  4  1  0  0  0  0
  2  4  1  0  0  0  0
  4  6  1  0  0  0  0
  4  3  1  0  0  0  0
  6  8  1  0  0  0  0
  6  5  1  1  0  0  0
  7 10  1  0  0  0  0
  7  8  1  0  0  0  0
  9  7  2  0  0  0  0
 11 10  1  0  0  0  0
 12 11  1  0  0  0  0
 13 14  2  0  0  0  0
 14 15  1  0  0  0  0
 15 12  1  0  0  0  0
 16 14  1  0  0  0  0
 18 17  1  0  0  0  0
 18 16  1  0  0  0  0
 19 18  1  0  0  0  0
 19 17  1  0  0  0  0
 20  1  1  0  0  0  0
 21 33  1  1  0  0  0
 21 20  1  0  0  0  0
 22 26  2  0  0  0  0
 23 26  1  0  0  0  0
 24 27  1  0  0  0  0
 24 22  1  0  0  0  0
 25 22  1  0  0  0  0
 26 29  1  0  0  0  0
 27 21  1  6  0  0  0
 27 23  1  0  0  0  0
 29 28  2  0  0  0  0
 29 30  1  0  0  0  0
 30 32  1  0  0  0  0
 32 31  1  0  0  0  0
 34 33  1  0  0  0  0
 36 37  2  0  0  0  0
 37 34  1  0  0  0  0
 37 35  2  0  0  0  0
M  END
>  <MODEL>
7

>  <REMARK>
 VINA RESULT:      -5.3      3.819      8.705
  Name = 
  18 active torsions:
  status: ('A' for Active; 'I' for Inactive)
    1  A    between atoms: C_1  and  C_28
    2  A    between atoms: S_4  and  C_13
    3  A    between atoms: S_4  and  C_34
    4  A    between atoms: C_6  and  C_10
    5  A    between atoms: C_6  and  C_22
    6  A    between atoms: N_7  and  C_32
    7  A    between atoms: C_9  and  C_21
    8  A    between atoms: C_9  and  N_31
    9  A    between atoms: O_11  and  C_36
   10  A    between atoms: O_11  and  C_37
   11  A    between atoms: C_13  and  C_30
   12  A    between atoms: C_21  and  C_28
   13  A    between atoms: C_24  and  C_36
   14  A    between atoms: C_25  and  C_34
   15  A    between atoms: P_26  and  O_33
   16  A    between atoms: C_30  and  C_32
   17  A    between atoms: O_33  and  C_35
   18  A    between atoms: C_34  and  C_35
                            x       y       z     vdW  Elec       q    Type
                         _______ _______ _______ _____ _____    ______ ____

>  <TORSDO>
F 18

$$$$
=
 OpenBabel11042418323D

 37 38  0  0  1  0  0  0  0  0999 V2000
  191.3240  174.6660  145.4630 C   0  0  0  0  0  2  0  0  0  0  0  0
  191.7190  177.0240  144.8830 C   0  0  0  0  0  1  0  0  0  0  0  0
  193.1880  175.9340  146.5170 C   0  0  0  0  0  1  0  0  0  0  0  0
  191.7500  176.0240  146.0250 C   0  0  0  0  0  0  0  0  0  0  0  0
  191.5490  177.1880  148.3230 C   0  0  0  0  0  1  0  0  0  0  0  0
  190.8290  176.4670  147.1870 C   0  0  1  0  0  3  0  0  0  0  0  0
  188.2880  176.7430  146.8360 C   0  0  0  0  0  0  0  0  0  0  0  0
  189.6410  177.2050  146.7480 N   0  0  0  0  0  2  0  0  0  0  0  0
  188.0260  175.5880  147.2630 O   0  0  0  0  0  0  0  0  0  0  0  0
  187.1750  177.6180  146.3650 C   0  0  0  0  0  2  0  0  0  0  0  0
  186.1420  176.8210  145.5750 C   0  0  0  0  0  2  0  0  0  0  0  0
  185.8180  177.4860  144.2450 C   0  0  0  0  0  2  0  0  0  0  0  0
  188.7540  177.9720  142.1150 O   0  0  0  0  0  0  0  0  0  0  0  0
  187.7000  177.4470  142.5610 C   0  0  0  0  0  0  0  0  0  0  0  0
  187.0210  178.0570  143.6590 N   0  0  0  0  0  2  0  0  0  0  0  0
  187.1900  176.1830  141.9450 C   0  0  0  0  0  2  0  0  0  0  0  0
  187.9780  174.0520  141.2640 O   0  0  0  0  0  0  0  0  0  0  0  0
  188.1460  175.0340  142.2130 C   0  0  0  0  0  3  0  0  0  0  0  0
  189.0070  174.9050  141.1480 O   0  0  0  0  0  0  0  0  0  0  0  0
  191.6260  174.5090  143.6680 S   0  0  0  0  0  0  0  0  0  0  0  0
  192.4920  172.9120  143.8720 C   0  0  2  0  0  3  0  0  0  0  0  0
  196.0650  173.8690  145.0110 C   0  0  0  0  0  0  0  0  0  0  0  0
  194.4030  174.5160  143.4620 C   0  0  0  0  0  2  0  0  0  0  0  0
  194.7990  172.6740  145.3880 S   0  0  0  0  0  0  0  0  0  0  0  0
  197.3940  173.7910  145.6830 C   0  0  0  0  0  1  0  0  0  0  0  0
  195.7520  174.7330  144.0480 C   0  0  0  0  0  0  0  0  0  0  0  0
  194.0110  173.0800  143.7930 C   0  0  1  0  0  3  0  0  0  0  0  0
  196.3660  177.0280  143.8070 O   0  0  0  0  0  0  0  0  0  0  0  0
  196.6200  175.8200  143.5460 C   0  0  0  0  0  0  0  0  0  0  0  0
  197.7290  175.4940  142.7610 O   0  0  0  0  0  0  0  0  0  0  0  0
  196.8380  175.7010  140.5460 C   0  0  0  0  0  1  0  0  0  0  0  0
  197.5970  174.8220  141.5190 C   0  0  0  0  0  2  0  0  0  0  0  0
  191.9940  171.9140  142.8290 C   0  0  0  0  0  2  0  0  0  0  0  0
  191.3030  172.5690  141.8060 O   0  0  0  0  0  0  0  0  0  0  0  0
  191.5590  172.5390  139.0400 O   0  0  0  0  0  0  0  0  0  0  0  0
  193.3820  171.3120  140.4620 O   0  0  0  0  0  0  0  0  0  0  0  0
  192.1110  172.1250  140.3860 P   0  0  0  0  0  0  0  0  0  0  0  0
  1  4  1  0  0  0  0
  2  4  1  0  0  0  0
  4  3  1  0  0  0  0
  4  6  1  0  0  0  0
  6  5  1  1  0  0  0
  7  9  2  0  0  0  0
  8  7  1  0  0  0  0
  8  6  1  0  0  0  0
 10  7  1  0  0  0  0
 11 10  1  0  0  0  0
 12 11  1  0  0  0  0
 13 14  2  0  0  0  0
 14 15  1  0  0  0  0
 15 12  1  0  0  0  0
 16 18  1  0  0  0  0
 16 14  1  0  0  0  0
 17 18  1  0  0  0  0
 19 17  1  0  0  0  0
 19 18  1  0  0  0  0
 20 21  1  0  0  0  0
 20  1  1  0  0  0  0
 21 33  1  6  0  0  0
 22 24  1  0  0  0  0
 22 25  1  0  0  0  0
 23 27  1  0  0  0  0
 23 26  1  0  0  0  0
 26 22  2  0  0  0  0
 27 21  1  1  0  0  0
 27 24  1  0  0  0  0
 29 28  2  0  0  0  0
 29 26  1  0  0  0  0
 30 29  1  0  0  0  0
 31 32  1  0  0  0  0
 32 30  1  0  0  0  0
 34 33  1  0  0  0  0
 35 37  2  0  0  0  0
 37 36  2  0  0  0  0
 37 34  1  0  0  0  0
M  END
>  <MODEL>
8

>  <REMARK>
 VINA RESULT:      -5.3      2.728      5.335
  Name = 
  18 active torsions:
  status: ('A' for Active; 'I' for Inactive)
    1  A    between atoms: C_1  and  C_28
    2  A    between atoms: S_4  and  C_13
    3  A    between atoms: S_4  and  C_34
    4  A    between atoms: C_6  and  C_10
    5  A    between atoms: C_6  and  C_22
    6  A    between atoms: N_7  and  C_32
    7  A    between atoms: C_9  and  C_21
    8  A    between atoms: C_9  and  N_31
    9  A    between atoms: O_11  and  C_36
   10  A    between atoms: O_11  and  C_37
   11  A    between atoms: C_13  and  C_30
   12  A    between atoms: C_21  and  C_28
   13  A    between atoms: C_24  and  C_36
   14  A    between atoms: C_25  and  C_34
   15  A    between atoms: P_26  and  O_33
   16  A    between atoms: C_30  and  C_32
   17  A    between atoms: O_33  and  C_35
   18  A    between atoms: C_34  and  C_35
                            x       y       z     vdW  Elec       q    Type
                         _______ _______ _______ _____ _____    ______ ____

>  <TORSDO>
F 18

$$$$
=
 OpenBabel11042418323D

 37 38  0  0  1  0  0  0  0  0999 V2000
  192.0200  170.8380  143.6050 C   0  0  0  0  0  2  0  0  0  0  0  0
  190.8760  170.0840  141.5620 C   0  0  0  0  0  1  0  0  0  0  0  0
  191.9500  172.2880  141.5840 C   0  0  0  0  0  1  0  0  0  0  0  0
  191.1580  171.2990  142.4270 C   0  0  0  0  0  0  0  0  0  0  0  0
  189.6830  171.9920  144.4310 C   0  0  0  0  0  1  0  0  0  0  0  0
  189.8470  171.9620  142.9140 C   0  0  1  0  0  3  0  0  0  0  0  0
  188.3190  173.7780  141.9040 C   0  0  0  0  0  0  0  0  0  0  0  0
  189.5960  173.2770  142.3180 N   0  0  0  0  0  2  0  0  0  0  0  0
  187.2890  173.0590  141.9740 O   0  0  0  0  0  0  0  0  0  0  0  0
  188.2150  175.1510  141.3300 C   0  0  0  0  0  2  0  0  0  0  0  0
  188.2110  176.2100  142.4290 C   0  0  0  0  0  2  0  0  0  0  0  0
  186.8450  176.3270  143.0900 C   0  0  0  0  0  2  0  0  0  0  0  0
  185.8540  179.6710  144.1980 O   0  0  0  0  0  0  0  0  0  0  0  0
  186.2780  178.4880  144.2690 C   0  0  0  0  0  0  0  0  0  0  0  0
  186.3940  177.7110  143.0770 N   0  0  0  0  0  2  0  0  0  0  0  0
  186.6320  177.9120  145.6030 C   0  0  0  0  0  2  0  0  0  0  0  0
  185.7910  177.6710  147.8080 O   0  0  0  0  0  0  0  0  0  0  0  0
  185.4060  177.8410  146.4970 C   0  0  0  0  0  3  0  0  0  0  0  0
  185.4330  178.8930  147.3830 O   0  0  0  0  0  0  0  0  0  0  0  0
  193.8060  171.1060  143.3300 S   0  0  0  0  0  0  0  0  0  0  0  0
  193.9900  172.0350  144.8940 C   0  0  2  0  0  3  0  0  0  0  0  0
  194.0010  175.8070  145.7590 C   0  0  0  0  0  0  0  0  0  0  0  0
  192.5730  174.1300  144.9070 C   0  0  0  0  0  2  0  0  0  0  0  0
  195.1040  174.4090  145.7890 S   0  0  0  0  0  0  0  0  0  0  0  0
  194.5020  177.1660  146.1190 C   0  0  0  0  0  1  0  0  0  0  0  0
  192.7750  175.5450  145.3120 C   0  0  0  0  0  0  0  0  0  0  0  0
  193.9600  173.5460  144.6590 C   0  0  1  0  0  3  0  0  0  0  0  0
  191.3260  176.9710  144.0580 O   0  0  0  0  0  0  0  0  0  0  0  0
  191.6730  176.5240  145.1860 C   0  0  0  0  0  0  0  0  0  0  0  0
  191.0210  176.9620  146.3420 O   0  0  0  0  0  0  0  0  0  0  0  0
  189.3100  175.3440  146.7880 C   0  0  0  0  0  1  0  0  0  0  0  0
  190.5370  176.0550  147.3190 C   0  0  0  0  0  2  0  0  0  0  0  0
  195.2750  171.6130  145.6020 C   0  0  0  0  0  2  0  0  0  0  0  0
  195.1470  170.3290  146.1380 O   0  0  0  0  0  0  0  0  0  0  0  0
  197.2110  168.9090  147.3380 O   0  0  0  0  0  0  0  0  0  0  0  0
  197.6380  169.9480  144.9740 O   0  0  0  0  0  0  0  0  0  0  0  0
  196.7200  169.7060  146.1490 P   0  0  0  0  0  0  0  0  0  0  0  0
  2  4  1  0  0  0  0
  3  4  1  0  0  0  0
  4  6  1  0  0  0  0
  4  1  1  0  0  0  0
  6  5  1  1  0  0  0
  7  9  2  0  0  0  0
  7  8  1  0  0  0  0
  8  6  1  0  0  0  0
 10  7  1  0  0  0  0
 10 11  1  0  0  0  0
 11 12  1  0  0  0  0
 13 14  2  0  0  0  0
 14 16  1  0  0  0  0
 15 12  1  0  0  0  0
 15 14  1  0  0  0  0
 16 18  1  0  0  0  0
 18 19  1  0  0  0  0
 18 17  1  0  0  0  0
 19 17  1  0  0  0  0
 20  1  1  0  0  0  0
 20 21  1  0  0  0  0
 21 33  1  6  0  0  0
 22 24  1  0  0  0  0
 22 25  1  0  0  0  0
 23 26  1  0  0  0  0
 26 22  2  0  0  0  0
 27 21  1  1  0  0  0
 27 23  1  0  0  0  0
 27 24  1  0  0  0  0
 28 29  2  0  0  0  0
 29 26  1  0  0  0  0
 29 30  1  0  0  0  0
 30 32  1  0  0  0  0
 31 32  1  0  0  0  0
 33 34  1  0  0  0  0
 34 37  1  0  0  0  0
 36 37  2  0  0  0  0
 37 35  2  0  0  0  0
M  END
>  <MODEL>
9

>  <REMARK>
 VINA RESULT:      -5.3      3.215      6.416
  Name = 
  18 active torsions:
  status: ('A' for Active; 'I' for Inactive)
    1  A    between atoms: C_1  and  C_28
    2  A    between atoms: S_4  and  C_13
    3  A    between atoms: S_4  and  C_34
    4  A    between atoms: C_6  and  C_10
    5  A    between atoms: C_6  and  C_22
    6  A    between atoms: N_7  and  C_32
    7  A    between atoms: C_9  and  C_21
    8  A    between atoms: C_9  and  N_31
    9  A    between atoms: O_11  and  C_36
   10  A    between atoms: O_11  and  C_37
   11  A    between atoms: C_13  and  C_30
   12  A    between atoms: C_21  and  C_28
   13  A    between atoms: C_24  and  C_36
   14  A    between atoms: C_25  and  C_34
   15  A    between atoms: P_26  and  O_33
   16  A    between atoms: C_30  and  C_32
   17  A    between atoms: O_33  and  C_35
   18  A    between atoms: C_34  and  C_35
                            x       y       z     vdW  Elec       q    Type
                         _______ _______ _______ _____ _____    ______ ____

>  <TORSDO>
F 18

$$$$
