=
 OpenBabel11042418333D

 37 41  0  0  1  0  0  0  0  0999 V2000
  191.2410  174.4420  142.0310 C   0  0  0  0  0  0  0  0  0  0  0  0
  188.8620  175.4790  142.2040 C   0  0  1  0  0  3  0  0  0  0  0  0
  189.9080  174.6210  141.5580 C   0  0  0  0  0  0  0  0  0  0  0  0
  189.4930  173.8250  140.4740 C   0  0  0  0  0  3  0  0  0  0  0  0
  186.8060  176.8710  143.4510 C   0  0  2  0  0  3  0  0  0  0  0  0
  191.5450  176.2650  145.3970 C   0  0  2  0  0  3  0  0  0  0  0  0
  190.8060  178.1800  143.8090 C   0  0  0  0  0  2  0  0  0  0  0  0
  192.0670  173.4970  141.4110 C   0  0  0  0  0  3  0  0  0  0  0  0
  190.3460  177.3440  142.7470 O   0  0  0  0  0  0  0  0  0  0  0  0
  191.5930  172.7300  140.3440 C   0  0  0  0  0  0  0  0  0  0  0  0
  186.5700  175.6540  142.9000 N   0  0  0  0  0  0  0  0  0  0  0  0
  187.5600  174.9630  142.2840 C   0  0  0  0  0  3  0  0  0  0  0  0
  188.0510  177.4080  143.3710 N   0  0  0  0  0  0  0  0  0  0  0  0
  189.0790  176.7570  142.7630 C   0  0  0  0  0  0  0  0  0  0  0  0
  191.2330  175.0770  144.4770 C   0  0  0  0  0  2  0  0  0  0  0  0
  191.8900  175.2400  143.1140 C   0  0  0  0  0  2  0  0  0  0  0  0
  190.6470  177.4910  145.1730 C   0  0  0  0  0  2  0  0  0  0  0  0
  190.3250  172.9200  139.8980 N   0  0  0  0  0  0  0  0  0  0  0  0
  185.7280  177.5900  144.1610 C   0  0  0  0  0  0  0  0  0  0  0  0
  184.6350  178.2850  147.5940 F   0  0  0  0  0  0  0  0  0  0  0  0
  183.7630  179.0250  144.1200 C   0  0  0  0  0  3  0  0  0  0  0  0
  183.7150  179.0080  145.5160 C   0  0  0  0  0  3  0  0  0  0  0  0
  184.7670  178.3210  143.4440 C   0  0  0  0  0  3  0  0  0  0  0  0
  185.6720  177.5830  145.5660 C   0  0  0  0  0  3  0  0  0  0  0  0
  184.6700  178.2860  146.2390 C   0  0  0  0  0  0  0  0  0  0  0  0
  193.4930  171.1370  140.4390 O   0  0  0  0  0  1  0  0  0  0  0  0
  192.4470  171.7110  139.7240 C   0  0  0  0  0  0  0  0  0  0  0  0
  192.2240  171.3270  138.5450 O   0  0  0  0  0  0  0  0  0  0  0  0
  193.0220  176.6320  145.4480 C   0  0  0  0  0  2  0  0  0  0  0  0
  193.7490  175.6670  146.3630 C   0  0  0  0  0  2  0  0  0  0  0  0
  194.4830  173.4870  145.3640 C   0  0  0  0  0  0  0  0  0  0  0  0
  196.5550  173.3500  144.1300 C   0  0  0  0  0  3  0  0  0  0  0  0
  195.4060  172.7380  144.6350 C   0  0  0  0  0  3  0  0  0  0  0  0
  193.3680  172.8900  145.8560 F   0  0  0  0  0  0  0  0  0  0  0  0
  195.8520  175.4270  145.0830 N   0  0  0  0  0  0  0  0  0  0  0  0
  196.7640  174.7120  144.3690 C   0  0  0  0  0  3  0  0  0  0  0  0
  194.7240  174.8500  145.5840 C   0  0  0  0  0  0  0  0  0  0  0  0
  1 16  1  0  0  0  0
  2 12  1  1  0  0  0
  2 14  1  0  0  0  0
  3  1  1  0  0  0  0
  3  2  1  0  0  0  0
  4  3  2  0  0  0  0
  5 19  1  1  0  0  0
  6 29  1  6  0  0  0
  7 17  1  0  0  0  0
  8  1  2  0  0  0  0
  9 14  1  0  0  0  0
  9  7  1  0  0  0  0
 10  8  1  0  0  0  0
 11  5  1  0  0  0  0
 12 11  2  0  0  0  0
 13  5  1  0  0  0  0
 14 13  2  0  0  0  0
 15  6  1  0  0  0  0
 16 15  1  0  0  0  0
 17  6  1  0  0  0  0
 18 10  2  0  0  0  0
 18  4  1  0  0  0  0
 19 24  1  0  0  0  0
 21 22  2  0  0  0  0
 22 25  1  0  0  0  0
 23 21  1  0  0  0  0
 23 19  2  0  0  0  0
 24 25  2  0  0  0  0
 25 20  1  0  0  0  0
 27 10  1  0  0  0  0
 27 26  1  0  0  0  0
 28 27  2  0  0  0  0
 29 30  1  0  0  0  0
 31 37  1  0  0  0  0
 31 34  1  0  0  0  0
 32 36  2  0  0  0  0
 32 33  1  0  0  0  0
 33 31  2  0  0  0  0
 35 37  2  0  0  0  0
 36 35  1  0  0  0  0
 37 30  1  0  0  0  0
M  END
>  <MODEL>
1

>  <REMARK>
 VINA RESULT:      -8.2      0.000      0.000
  Name = 
  5 active torsions:
  status: ('A' for Active; 'I' for Inactive)
    1  A    between atoms: C_3  and  C_7
    2  A    between atoms: C_10  and  C_25
    3  A    between atoms: CA_16  and  C_21
    4  A    between atoms: C_22  and  C_25
    5  A    between atoms: C_22  and  C_36
                            x       y       z     vdW  Elec       q    Type
                         _______ _______ _______ _____ _____    ______ ____

>  <TORSDO>
F 5

$$$$
=
 OpenBabel11042418333D

 37 41  0  0  1  0  0  0  0  0999 V2000
  193.3520  174.8830  143.6180 C   0  0  0  0  0  0  0  0  0  0  0  0
  191.4170  176.1880  144.7670 C   0  0  1  0  0  3  0  0  0  0  0  0
  192.8620  175.9050  144.4830 C   0  0  0  0  0  0  0  0  0  0  0  0
  193.8000  176.8120  145.0100 C   0  0  0  0  0  3  0  0  0  0  0  0
  188.7680  176.9150  145.1800 C   0  0  2  0  0  3  0  0  0  0  0  0
  190.3290  173.2370  141.9180 C   0  0  2  0  0  3  0  0  0  0  0  0
  189.7930  172.8860  144.4320 C   0  0  0  0  0  2  0  0  0  0  0  0
  194.7210  174.8270  143.3310 C   0  0  0  0  0  3  0  0  0  0  0  0
  190.7180  173.8520  144.9330 O   0  0  0  0  0  0  0  0  0  0  0  0
  195.6020  175.7640  143.8790 C   0  0  0  0  0  0  0  0  0  0  0  0
  189.7190  177.8680  145.0070 N   0  0  0  0  0  0  0  0  0  0  0  0
  191.0160  177.5310  144.8080 C   0  0  0  0  0  3  0  0  0  0  0  0
  189.1280  175.6050  145.1680 N   0  0  0  0  0  0  0  0  0  0  0  0
  190.4170  175.2140  144.9740 C   0  0  0  0  0  0  0  0  0  0  0  0
  191.4520  174.2720  142.0690 C   0  0  0  0  0  2  0  0  0  0  0  0
  192.5320  173.7850  143.0230 C   0  0  0  0  0  2  0  0  0  0  0  0
  189.2790  173.2750  143.0370 C   0  0  0  0  0  2  0  0  0  0  0  0
  195.1220  176.7240  144.7090 N   0  0  0  0  0  0  0  0  0  0  0  0
  187.3510  177.2980  145.3470 C   0  0  0  0  0  0  0  0  0  0  0  0
  184.9270  179.6790  143.9630 F   0  0  0  0  0  0  0  0  0  0  0  0
  185.1760  176.9460  146.3810 C   0  0  0  0  0  3  0  0  0  0  0  0
  184.6390  177.9860  145.6170 C   0  0  0  0  0  3  0  0  0  0  0  0
  186.5260  176.6010  146.2450 C   0  0  0  0  0  3  0  0  0  0  0  0
  186.7990  178.3390  144.5820 C   0  0  0  0  0  3  0  0  0  0  0  0
  185.4520  178.6830  144.7170 C   0  0  0  0  0  0  0  0  0  0  0  0
  197.7550  174.5480  143.6730 O   0  0  0  0  0  1  0  0  0  0  0  0
  197.0290  175.7270  143.5420 C   0  0  0  0  0  0  0  0  0  0  0  0
  197.6050  176.7600  143.1080 O   0  0  0  0  0  0  0  0  0  0  0  0
  190.8270  171.8240  141.6400 C   0  0  0  0  0  2  0  0  0  0  0  0
  190.0560  171.2390  140.4740 C   0  0  0  0  0  2  0  0  0  0  0  0
  188.8120  172.7750  138.9300 C   0  0  0  0  0  0  0  0  0  0  0  0
  189.9960  173.9990  137.2170 C   0  0  0  0  0  3  0  0  0  0  0  0
  188.8020  173.6740  137.8640 C   0  0  0  0  0  3  0  0  0  0  0  0
  187.6500  172.4590  139.5570 F   0  0  0  0  0  0  0  0  0  0  0  0
  191.1790  172.5350  138.6910 N   0  0  0  0  0  0  0  0  0  0  0  0
  191.1890  173.4100  137.6490 C   0  0  0  0  0  3  0  0  0  0  0  0
  190.0260  172.2040  139.3370 C   0  0  0  0  0  0  0  0  0  0  0  0
  1  3  1  0  0  0  0
  2 12  1  6  0  0  0
  2 14  1  0  0  0  0
  3  2  1  0  0  0  0
  3  4  2  0  0  0  0
  5 19  1  6  0  0  0
  6 29  1  1  0  0  0
  6 15  1  0  0  0  0
  6 17  1  0  0  0  0
  7  9  1  0  0  0  0
  8  1  2  0  0  0  0
  8 10  1  0  0  0  0
  9 14  1  0  0  0  0
 10 18  2  0  0  0  0
 11  5  1  0  0  0  0
 12 11  2  0  0  0  0
 13  5  1  0  0  0  0
 14 13  2  0  0  0  0
 15 16  1  0  0  0  0
 16  1  1  0  0  0  0
 17  7  1  0  0  0  0
 18  4  1  0  0  0  0
 19 23  1  0  0  0  0
 20 25  1  0  0  0  0
 22 21  1  0  0  0  0
 23 21  2  0  0  0  0
 24 25  1  0  0  0  0
 24 19  2  0  0  0  0
 25 22  2  0  0  0  0
 27 26  1  0  0  0  0
 27 10  1  0  0  0  0
 28 27  2  0  0  0  0
 30 29  1  0  0  0  0
 31 37  1  0  0  0  0
 31 34  1  0  0  0  0
 32 36  2  0  0  0  0
 32 33  1  0  0  0  0
 33 31  2  0  0  0  0
 35 37  2  0  0  0  0
 36 35  1  0  0  0  0
 37 30  1  0  0  0  0
M  END
>  <MODEL>
2

>  <REMARK>
 VINA RESULT:      -8.1      2.867      5.808
  Name = 
  5 active torsions:
  status: ('A' for Active; 'I' for Inactive)
    1  A    between atoms: C_3  and  C_7
    2  A    between atoms: C_10  and  C_25
    3  A    between atoms: CA_16  and  C_21
    4  A    between atoms: C_22  and  C_25
    5  A    between atoms: C_22  and  C_36
                            x       y       z     vdW  Elec       q    Type
                         _______ _______ _______ _____ _____    ______ ____

>  <TORSDO>
F 5

$$$$
=
 OpenBabel11042418333D

 37 41  0  0  1  0  0  0  0  0999 V2000
  192.8960  174.5040  144.3070 C   0  0  0  0  0  0  0  0  0  0  0  0
  190.9250  175.7270  145.4830 C   0  0  1  0  0  3  0  0  0  0  0  0
  192.3450  175.2550  145.3860 C   0  0  0  0  0  0  0  0  0  0  0  0
  193.2320  175.7080  146.3800 C   0  0  0  0  0  3  0  0  0  0  0  0
  188.3770  176.8220  145.6410 C   0  0  2  0  0  3  0  0  0  0  0  0
  190.2060  174.2150  141.5830 C   0  0  2  0  0  3  0  0  0  0  0  0
  189.0150  173.1610  143.6340 C   0  0  0  0  0  2  0  0  0  0  0  0
  194.2740  174.2560  144.2790 C   0  0  0  0  0  3  0  0  0  0  0  0
  189.9050  173.6790  144.6240 O   0  0  0  0  0  0  0  0  0  0  0  0
  195.1050  174.7420  145.2920 C   0  0  0  0  0  0  0  0  0  0  0  0
  189.4570  177.5510  146.0190 N   0  0  0  0  0  0  0  0  0  0  0  0
  190.7070  177.0310  145.9520 C   0  0  0  0  0  3  0  0  0  0  0  0
  188.5520  175.5480  145.2030 N   0  0  0  0  0  0  0  0  0  0  0  0
  189.7850  174.9790  145.1190 C   0  0  0  0  0  0  0  0  0  0  0  0
  191.3810  174.8730  142.3190 C   0  0  0  0  0  2  0  0  0  0  0  0
  192.1140  173.8740  143.2020 C   0  0  0  0  0  2  0  0  0  0  0  0
  188.9230  174.0980  142.4190 C   0  0  0  0  0  2  0  0  0  0  0  0
  194.5630  175.4460  146.3190 N   0  0  0  0  0  0  0  0  0  0  0  0
  187.0260  177.4200  145.6750 C   0  0  0  0  0  0  0  0  0  0  0  0
  185.1230  180.0950  144.0360 F   0  0  0  0  0  0  0  0  0  0  0  0
  184.7430  177.4350  146.5170 C   0  0  0  0  0  3  0  0  0  0  0  0
  184.4390  178.5190  145.6890 C   0  0  0  0  0  3  0  0  0  0  0  0
  186.0300  176.8860  146.5080 C   0  0  0  0  0  3  0  0  0  0  0  0
  186.7080  178.5080  144.8430 C   0  0  0  0  0  3  0  0  0  0  0  0
  185.4230  179.0560  144.8530 C   0  0  0  0  0  0  0  0  0  0  0  0
  197.1900  173.7840  146.2330 O   0  0  0  0  0  1  0  0  0  0  0  0
  196.5530  174.5170  145.2370 C   0  0  0  0  0  0  0  0  0  0  0  0
  197.2300  174.9640  144.2740 O   0  0  0  0  0  0  0  0  0  0  0  0
  190.5670  172.9070  140.8920 C   0  0  0  0  0  2  0  0  0  0  0  0
  189.3620  172.3930  140.1290 C   0  0  0  0  0  2  0  0  0  0  0  0
  188.8220  173.8780  138.1810 C   0  0  0  0  0  0  0  0  0  0  0  0
  189.7040  173.3790  135.9890 C   0  0  0  0  0  3  0  0  0  0  0  0
  188.9380  174.1910  136.8270 C   0  0  0  0  0  3  0  0  0  0  0  0
  188.0760  174.6680  138.9940 F   0  0  0  0  0  0  0  0  0  0  0  0
  190.2170  171.9650  137.8470 N   0  0  0  0  0  0  0  0  0  0  0  0
  190.3430  172.2550  136.5240 C   0  0  0  0  0  3  0  0  0  0  0  0
  189.4760  172.7440  138.6830 C   0  0  0  0  0  0  0  0  0  0  0  0
  1  3  1  0  0  0  0
  2 12  1  6  0  0  0
  3  2  1  0  0  0  0
  3  4  2  0  0  0  0
  5 19  1  6  0  0  0
  5 11  1  0  0  0  0
  6 29  1  1  0  0  0
  6 15  1  0  0  0  0
  6 17  1  0  0  0  0
  7  9  1  0  0  0  0
  8  1  2  0  0  0  0
  8 10  1  0  0  0  0
  9 14  1  0  0  0  0
 10 18  2  0  0  0  0
 12 11  2  0  0  0  0
 13  5  1  0  0  0  0
 14 13  2  0  0  0  0
 14  2  1  0  0  0  0
 15 16  1  0  0  0  0
 16  1  1  0  0  0  0
 17  7  1  0  0  0  0
 18  4  1  0  0  0  0
 19 23  1  0  0  0  0
 20 25  1  0  0  0  0
 22 21  1  0  0  0  0
 23 21  2  0  0  0  0
 24 25  1  0  0  0  0
 24 19  2  0  0  0  0
 25 22  2  0  0  0  0
 27 10  1  0  0  0  0
 27 26  1  0  0  0  0
 28 27  2  0  0  0  0
 30 29  1  0  0  0  0
 31 37  1  0  0  0  0
 31 34  1  0  0  0  0
 32 36  2  0  0  0  0
 32 33  1  0  0  0  0
 33 31  2  0  0  0  0
 35 37  2  0  0  0  0
 36 35  1  0  0  0  0
 37 30  1  0  0  0  0
M  END
>  <MODEL>
3

>  <REMARK>
 VINA RESULT:      -8.0      3.009      6.124
  Name = 
  5 active torsions:
  status: ('A' for Active; 'I' for Inactive)
    1  A    between atoms: C_3  and  C_7
    2  A    between atoms: C_10  and  C_25
    3  A    between atoms: CA_16  and  C_21
    4  A    between atoms: C_22  and  C_25
    5  A    between atoms: C_22  and  C_36
                            x       y       z     vdW  Elec       q    Type
                         _______ _______ _______ _____ _____    ______ ____

>  <TORSDO>
F 5

$$$$
=
 OpenBabel11042418333D

 37 41  0  0  1  0  0  0  0  0999 V2000
  190.7590  174.3570  141.3470 C   0  0  0  0  0  0  0  0  0  0  0  0
  188.5710  175.5030  142.1640 C   0  0  1  0  0  3  0  0  0  0  0  0
  189.3910  174.7210  141.1810 C   0  0  0  0  0  0  0  0  0  0  0  0
  188.7100  174.1920  140.0680 C   0  0  0  0  0  3  0  0  0  0  0  0
  186.9270  176.7560  144.0190 C   0  0  2  0  0  3  0  0  0  0  0  0
  191.8410  175.4370  144.8690 C   0  0  2  0  0  3  0  0  0  0  0  0
  191.0440  177.6800  143.8360 C   0  0  0  0  0  2  0  0  0  0  0  0
  191.3580  173.5010  140.4150 C   0  0  0  0  0  3  0  0  0  0  0  0
  190.3180  177.1100  142.7460 O   0  0  0  0  0  0  0  0  0  0  0  0
  190.6250  173.0000  139.3350 C   0  0  0  0  0  0  0  0  0  0  0  0
  186.4690  175.6950  143.3080 N   0  0  0  0  0  0  0  0  0  0  0  0
  187.2560  175.0750  142.3960 C   0  0  0  0  0  3  0  0  0  0  0  0
  188.1890  177.2090  143.8020 N   0  0  0  0  0  0  0  0  0  0  0  0
  189.0190  176.6230  142.8970 C   0  0  0  0  0  0  0  0  0  0  0  0
  191.2470  174.4840  143.8220 C   0  0  0  0  0  2  0  0  0  0  0  0
  191.6690  174.8720  142.4130 C   0  0  0  0  0  2  0  0  0  0  0  0
  191.0540  176.7430  145.0540 C   0  0  0  0  0  2  0  0  0  0  0  0
  189.3260  173.3650  139.1850 N   0  0  0  0  0  0  0  0  0  0  0  0
  186.0730  177.3910  145.0440 C   0  0  0  0  0  0  0  0  0  0  0  0
  185.9400  177.8140  148.6860 F   0  0  0  0  0  0  0  0  0  0  0  0
  184.1540  178.7650  145.6390 C   0  0  0  0  0  3  0  0  0  0  0  0
  184.4850  178.6500  146.9920 C   0  0  0  0  0  3  0  0  0  0  0  0
  184.9460  178.1400  144.6680 C   0  0  0  0  0  3  0  0  0  0  0  0
  186.3980  177.2850  146.4070 C   0  0  0  0  0  3  0  0  0  0  0  0
  185.6080  177.9090  147.3760 C   0  0  0  0  0  0  0  0  0  0  0  0
  191.1460  170.6960  138.5790 O   0  0  0  0  0  1  0  0  0  0  0  0
  191.2430  172.0700  138.3850 C   0  0  0  0  0  0  0  0  0  0  0  0
  191.8470  172.5070  137.3690 O   0  0  0  0  0  0  0  0  0  0  0  0
  193.3350  175.6810  144.7020 C   0  0  0  0  0  2  0  0  0  0  0  0
  194.0570  175.2680  145.9690 C   0  0  0  0  0  2  0  0  0  0  0  0
  194.7320  172.8920  145.5370 C   0  0  0  0  0  0  0  0  0  0  0  0
  197.0430  172.3450  145.0910 C   0  0  0  0  0  3  0  0  0  0  0  0
  195.7150  171.9440  145.2520 C   0  0  0  0  0  3  0  0  0  0  0  0
  193.4430  172.5000  145.6950 F   0  0  0  0  0  0  0  0  0  0  0  0
  196.3950  174.6100  145.5030 N   0  0  0  0  0  0  0  0  0  0  0  0
  197.3670  173.7000  145.2240 C   0  0  0  0  0  3  0  0  0  0  0  0
  195.0940  174.2400  145.6630 C   0  0  0  0  0  0  0  0  0  0  0  0
  1 16  1  0  0  0  0
  2 12  1  1  0  0  0
  2 14  1  0  0  0  0
  3  1  1  0  0  0  0
  3  2  1  0  0  0  0
  4  3  2  0  0  0  0
  5 19  1  1  0  0  0
  6 29  1  6  0  0  0
  6 17  1  0  0  0  0
  7 17  1  0  0  0  0
  8  1  2  0  0  0  0
  9 14  1  0  0  0  0
  9  7  1  0  0  0  0
 10  8  1  0  0  0  0
 11  5  1  0  0  0  0
 12 11  2  0  0  0  0
 13  5  1  0  0  0  0
 14 13  2  0  0  0  0
 15  6  1  0  0  0  0
 16 15  1  0  0  0  0
 18 10  2  0  0  0  0
 18  4  1  0  0  0  0
 19 24  1  0  0  0  0
 21 22  2  0  0  0  0
 22 25  1  0  0  0  0
 23 19  2  0  0  0  0
 23 21  1  0  0  0  0
 24 25  2  0  0  0  0
 25 20  1  0  0  0  0
 27 26  1  0  0  0  0
 27 10  1  0  0  0  0
 28 27  2  0  0  0  0
 29 30  1  0  0  0  0
 31 37  1  0  0  0  0
 31 34  1  0  0  0  0
 32 36  2  0  0  0  0
 32 33  1  0  0  0  0
 33 31  2  0  0  0  0
 35 37  2  0  0  0  0
 36 35  1  0  0  0  0
 37 30  1  0  0  0  0
M  END
>  <MODEL>
4

>  <REMARK>
 VINA RESULT:      -8.0      1.076      1.182
  Name = 
  5 active torsions:
  status: ('A' for Active; 'I' for Inactive)
    1  A    between atoms: C_3  and  C_7
    2  A    between atoms: C_10  and  C_25
    3  A    between atoms: CA_16  and  C_21
    4  A    between atoms: C_22  and  C_25
    5  A    between atoms: C_22  and  C_36
                            x       y       z     vdW  Elec       q    Type
                         _______ _______ _______ _____ _____    ______ ____

>  <TORSDO>
F 5

$$$$
=
 OpenBabel11042418333D

 37 41  0  0  1  0  0  0  0  0999 V2000
  188.5610  176.7330  144.1400 C   0  0  0  0  0  0  0  0  0  0  0  0
  188.5420  174.8610  142.3340 C   0  0  1  0  0  3  0  0  0  0  0  0
  187.8990  175.9300  143.1660 C   0  0  0  0  0  0  0  0  0  0  0  0
  186.5640  176.2540  142.8590 C   0  0  0  0  0  3  0  0  0  0  0  0
  189.6970  173.0180  140.6060 C   0  0  2  0  0  3  0  0  0  0  0  0
  192.3060  175.8980  143.9990 C   0  0  2  0  0  3  0  0  0  0  0  0
  191.2530  173.5780  144.4930 C   0  0  0  0  0  2  0  0  0  0  0  0
  187.8700  177.7930  144.7380 C   0  0  0  0  0  3  0  0  0  0  0  0
  189.9170  173.9240  144.1250 O   0  0  0  0  0  0  0  0  0  0  0  0
  186.5470  178.0700  144.3830 C   0  0  0  0  0  0  0  0  0  0  0  0
  188.7680  173.8940  140.1480 N   0  0  0  0  0  0  0  0  0  0  0  0
  188.1920  174.7970  140.9780 C   0  0  0  0  0  3  0  0  0  0  0  0
  190.0430  173.0390  141.9200 N   0  0  0  0  0  0  0  0  0  0  0  0
  189.4920  173.9250  142.7950 C   0  0  0  0  0  0  0  0  0  0  0  0
  191.0270  176.6450  143.5970 C   0  0  0  0  0  2  0  0  0  0  0  0
  189.9440  176.5040  144.6560 C   0  0  0  0  0  2  0  0  0  0  0  0
  192.2820  174.3930  143.6940 C   0  0  0  0  0  2  0  0  0  0  0  0
  185.9260  177.2900  143.4620 N   0  0  0  0  0  0  0  0  0  0  0  0
  190.3510  172.0720  139.6790 C   0  0  0  0  0  0  0  0  0  0  0  0
  189.5320  170.0430  136.7330 F   0  0  0  0  0  0  0  0  0  0  0  0
  192.3460  170.9140  138.9020 C   0  0  0  0  0  3  0  0  0  0  0  0
  191.6080  170.3220  137.8730 C   0  0  0  0  0  3  0  0  0  0  0  0
  191.7210  171.7880  139.8000 C   0  0  0  0  0  3  0  0  0  0  0  0
  189.6200  171.4740  138.6380 C   0  0  0  0  0  3  0  0  0  0  0  0
  190.2430  170.6020  137.7430 C   0  0  0  0  0  0  0  0  0  0  0  0
  185.6130  179.2560  146.3530 O   0  0  0  0  0  1  0  0  0  0  0  0
  185.8400  179.2080  144.9810 C   0  0  0  0  0  0  0  0  0  0  0  0
  185.4530  180.1650  144.2590 O   0  0  0  0  0  0  0  0  0  0  0  0
  192.7700  176.1930  145.4190 C   0  0  0  0  0  2  0  0  0  0  0  0
  194.1250  176.8700  145.3750 C   0  0  0  0  0  2  0  0  0  0  0  0
  195.9730  175.8680  144.0070 C   0  0  0  0  0  0  0  0  0  0  0  0
  197.2070  173.9650  144.8380 C   0  0  0  0  0  3  0  0  0  0  0  0
  196.9770  174.9140  143.8400 C   0  0  0  0  0  3  0  0  0  0  0  0
  195.7490  176.7890  143.0360 F   0  0  0  0  0  0  0  0  0  0  0  0
  195.4450  174.9230  146.1390 N   0  0  0  0  0  0  0  0  0  0  0  0
  196.4200  173.9850  145.9940 C   0  0  0  0  0  3  0  0  0  0  0  0
  195.2040  175.8580  145.1790 C   0  0  0  0  0  0  0  0  0  0  0  0
  1 16  1  0  0  0  0
  1  8  1  0  0  0  0
  2 12  1  6  0  0  0
  2 14  1  0  0  0  0
  2  3  1  0  0  0  0
  3  1  2  0  0  0  0
  4  3  1  0  0  0  0
  4 18  2  0  0  0  0
  5 19  1  6  0  0  0
  5 13  1  0  0  0  0
  6 29  1  1  0  0  0
  9  7  1  0  0  0  0
 10  8  2  0  0  0  0
 10 27  1  0  0  0  0
 11  5  1  0  0  0  0
 11 12  2  0  0  0  0
 13 14  2  0  0  0  0
 14  9  1  0  0  0  0
 15  6  1  0  0  0  0
 15 16  1  0  0  0  0
 17  6  1  0  0  0  0
 17  7  1  0  0  0  0
 18 10  1  0  0  0  0
 19 23  1  0  0  0  0
 20 25  1  0  0  0  0
 21 23  2  0  0  0  0
 22 21  1  0  0  0  0
 24 19  2  0  0  0  0
 25 22  2  0  0  0  0
 25 24  1  0  0  0  0
 27 26  1  0  0  0  0
 28 27  2  0  0  0  0
 30 29  1  0  0  0  0
 31 37  1  0  0  0  0
 32 36  2  0  0  0  0
 33 31  2  0  0  0  0
 33 32  1  0  0  0  0
 34 31  1  0  0  0  0
 36 35  1  0  0  0  0
 37 30  1  0  0  0  0
 37 35  2  0  0  0  0
M  END
>  <MODEL>
5

>  <REMARK>
 VINA RESULT:      -7.9      3.042      7.122
  Name = 
  5 active torsions:
  status: ('A' for Active; 'I' for Inactive)
    1  A    between atoms: C_3  and  C_7
    2  A    between atoms: C_10  and  C_25
    3  A    between atoms: CA_16  and  C_21
    4  A    between atoms: C_22  and  C_25
    5  A    between atoms: C_22  and  C_36
                            x       y       z     vdW  Elec       q    Type
                         _______ _______ _______ _____ _____    ______ ____

>  <TORSDO>
F 5

$$$$
=
 OpenBabel11042418333D

 37 41  0  0  1  0  0  0  0  0999 V2000
  188.5630  176.7170  145.4790 C   0  0  0  0  0  0  0  0  0  0  0  0
  188.1970  175.5100  143.2040 C   0  0  1  0  0  3  0  0  0  0  0  0
  187.7270  176.2300  144.4320 C   0  0  0  0  0  0  0  0  0  0  0  0
  186.3610  176.5680  144.4830 C   0  0  0  0  0  3  0  0  0  0  0  0
  189.0000  174.3630  140.8040 C   0  0  2  0  0  3  0  0  0  0  0  0
  192.2110  176.1530  144.4230 C   0  0  2  0  0  3  0  0  0  0  0  0
  191.2420  173.7470  144.3300 C   0  0  0  0  0  2  0  0  0  0  0  0
  188.0020  177.5000  146.4950 C   0  0  0  0  0  3  0  0  0  0  0  0
  189.8650  174.1250  144.3320 O   0  0  0  0  0  0  0  0  0  0  0  0
  186.6400  177.8100  146.4850 C   0  0  0  0  0  0  0  0  0  0  0  0
  188.0110  175.2930  140.8200 N   0  0  0  0  0  0  0  0  0  0  0  0
  187.6050  175.8590  141.9820 C   0  0  0  0  0  3  0  0  0  0  0  0
  189.5790  173.9870  141.9740 N   0  0  0  0  0  0  0  0  0  0  0  0
  189.2060  174.5240  143.1680 C   0  0  0  0  0  0  0  0  0  0  0  0
  190.8870  176.9250  144.5110 C   0  0  0  0  0  2  0  0  0  0  0  0
  190.0140  176.4050  145.6430 C   0  0  0  0  0  2  0  0  0  0  0  0
  192.1170  174.8210  143.6640 C   0  0  0  0  0  2  0  0  0  0  0  0
  185.8540  177.3290  145.4870 N   0  0  0  0  0  0  0  0  0  0  0  0
  189.4650  173.7900  139.5240 C   0  0  0  0  0  0  0  0  0  0  0  0
  192.3760  172.0240  138.1570 F   0  0  0  0  0  0  0  0  0  0  0  0
  189.0650  173.2390  137.1870 C   0  0  0  0  0  3  0  0  0  0  0  0
  190.3270  172.6440  137.1070 C   0  0  0  0  0  3  0  0  0  0  0  0
  188.6340  173.8080  138.3920 C   0  0  0  0  0  3  0  0  0  0  0  0
  190.7310  173.1860  139.4320 C   0  0  0  0  0  3  0  0  0  0  0  0
  191.1600  172.6180  138.2300 C   0  0  0  0  0  0  0  0  0  0  0  0
  186.8910  179.3820  148.3880 O   0  0  0  0  0  1  0  0  0  0  0  0
  186.0640  178.6650  147.5280 C   0  0  0  0  0  0  0  0  0  0  0  0
  184.8150  178.7790  147.6380 O   0  0  0  0  0  0  0  0  0  0  0  0
  192.9290  176.0070  145.7580 C   0  0  0  0  0  2  0  0  0  0  0  0
  194.2810  176.6860  145.6790 C   0  0  0  0  0  2  0  0  0  0  0  0
  195.9550  175.8060  144.0320 C   0  0  0  0  0  0  0  0  0  0  0  0
  197.2850  173.8620  144.5700 C   0  0  0  0  0  3  0  0  0  0  0  0
  196.9340  174.8780  143.6770 C   0  0  0  0  0  3  0  0  0  0  0  0
  195.6130  176.7910  143.1630 F   0  0  0  0  0  0  0  0  0  0  0  0
  195.6890  174.7050  146.1380 N   0  0  0  0  0  0  0  0  0  0  0  0
  196.6420  173.7910  145.8100 C   0  0  0  0  0  3  0  0  0  0  0  0
  195.3320  175.7040  145.2830 C   0  0  0  0  0  0  0  0  0  0  0  0
  1 16  1  0  0  0  0
  1  8  1  0  0  0  0
  2 12  1  6  0  0  0
  2  3  1  0  0  0  0
  3  4  1  0  0  0  0
  3  1  2  0  0  0  0
  4 18  2  0  0  0  0
  5 19  1  6  0  0  0
  5 11  1  0  0  0  0
  5 13  1  0  0  0  0
  6 15  1  0  0  0  0
  6 29  1  1  0  0  0
  7  9  1  0  0  0  0
 10  8  2  0  0  0  0
 10 27  1  0  0  0  0
 11 12  2  0  0  0  0
 13 14  2  0  0  0  0
 14  2  1  0  0  0  0
 14  9  1  0  0  0  0
 15 16  1  0  0  0  0
 17  7  1  0  0  0  0
 17  6  1  0  0  0  0
 18 10  1  0  0  0  0
 20 25  1  0  0  0  0
 21 23  1  0  0  0  0
 22 21  2  0  0  0  0
 22 25  1  0  0  0  0
 23 19  2  0  0  0  0
 24 19  1  0  0  0  0
 25 24  2  0  0  0  0
 27 28  2  0  0  0  0
 27 26  1  0  0  0  0
 30 29  1  0  0  0  0
 31 37  1  0  0  0  0
 32 36  2  0  0  0  0
 33 31  2  0  0  0  0
 33 32  1  0  0  0  0
 34 31  1  0  0  0  0
 36 35  1  0  0  0  0
 37 30  1  0  0  0  0
 37 35  2  0  0  0  0
M  END
>  <MODEL>
6

>  <REMARK>
 VINA RESULT:      -7.9      3.166      6.888
  Name = 
  5 active torsions:
  status: ('A' for Active; 'I' for Inactive)
    1  A    between atoms: C_3  and  C_7
    2  A    between atoms: C_10  and  C_25
    3  A    between atoms: CA_16  and  C_21
    4  A    between atoms: C_22  and  C_25
    5  A    between atoms: C_22  and  C_36
                            x       y       z     vdW  Elec       q    Type
                         _______ _______ _______ _____ _____    ______ ____

>  <TORSDO>
F 5

$$$$
=
 OpenBabel11042418333D

 37 41  0  0  1  0  0  0  0  0999 V2000
  190.0920  173.6280  140.9350 C   0  0  0  0  0  0  0  0  0  0  0  0
  188.4420  175.3390  141.9930 C   0  0  1  0  0  3  0  0  0  0  0  0
  188.9840  174.5220  140.8580 C   0  0  0  0  0  0  0  0  0  0  0  0
  188.2500  174.5420  139.6570 C   0  0  0  0  0  3  0  0  0  0  0  0
  187.2450  176.7190  144.0850 C   0  0  2  0  0  3  0  0  0  0  0  0
  191.1990  173.4480  144.6070 C   0  0  2  0  0  3  0  0  0  0  0  0
  191.4040  175.9850  144.1040 C   0  0  0  0  0  2  0  0  0  0  0  0
  190.3980  172.8200  139.8340 C   0  0  0  0  0  3  0  0  0  0  0  0
  190.6120  175.9810  142.9160 O   0  0  0  0  0  0  0  0  0  0  0  0
  189.6240  172.8780  138.6710 C   0  0  0  0  0  0  0  0  0  0  0  0
  186.4810  176.0920  143.1550 N   0  0  0  0  0  0  0  0  0  0  0  0
  187.0480  175.4180  142.1260 C   0  0  0  0  0  3  0  0  0  0  0  0
  188.5980  176.6800  143.9720 N   0  0  0  0  0  0  0  0  0  0  0  0
  189.2170  176.0180  142.9560 C   0  0  0  0  0  0  0  0  0  0  0  0
  190.3790  173.0400  143.3750 C   0  0  0  0  0  2  0  0  0  0  0  0
  191.0350  173.5160  142.0880 C   0  0  0  0  0  2  0  0  0  0  0  0
  190.9540  174.8880  145.0810 C   0  0  0  0  0  2  0  0  0  0  0  0
  188.5790  173.7430  138.6090 N   0  0  0  0  0  0  0  0  0  0  0  0
  186.6110  177.4090  145.2280 C   0  0  0  0  0  0  0  0  0  0  0  0
  183.4390  179.0400  146.0860 F   0  0  0  0  0  0  0  0  0  0  0  0
  186.6720  178.1490  147.5460 C   0  0  0  0  0  3  0  0  0  0  0  0
  185.3800  178.6650  147.4200 C   0  0  0  0  0  3  0  0  0  0  0  0
  187.2850  177.5200  146.4550 C   0  0  0  0  0  3  0  0  0  0  0  0
  185.3110  177.9290  145.1140 C   0  0  0  0  0  3  0  0  0  0  0  0
  184.7000  178.5560  146.2020 C   0  0  0  0  0  0  0  0  0  0  0  0
  189.6660  170.6340  137.6140 O   0  0  0  0  0  1  0  0  0  0  0  0
  189.9210  172.0000  137.5350 C   0  0  0  0  0  0  0  0  0  0  0  0
  190.3880  172.4780  136.4670 O   0  0  0  0  0  0  0  0  0  0  0  0
  192.6820  173.1210  144.4950 C   0  0  0  0  0  2  0  0  0  0  0  0
  193.4110  173.6670  145.7070 C   0  0  0  0  0  2  0  0  0  0  0  0
  195.4430  174.8760  144.8730 C   0  0  0  0  0  0  0  0  0  0  0  0
  197.6130  173.8180  144.9680 C   0  0  0  0  0  3  0  0  0  0  0  0
  196.8170  174.9160  144.6340 C   0  0  0  0  0  3  0  0  0  0  0  0
  194.6710  175.9430  144.5460 F   0  0  0  0  0  0  0  0  0  0  0  0
  195.6730  172.6690  145.7630 N   0  0  0  0  0  0  0  0  0  0  0  0
  197.0150  172.6890  145.5370 C   0  0  0  0  0  3  0  0  0  0  0  0
  194.8780  173.7280  145.4450 C   0  0  0  0  0  0  0  0  0  0  0  0
  1 16  1  0  0  0  0
  2 12  1  1  0  0  0
  2 14  1  0  0  0  0
  3  1  1  0  0  0  0
  3  2  1  0  0  0  0
  4  3  2  0  0  0  0
  5 19  1  1  0  0  0
  6 29  1  6  0  0  0
  6 17  1  0  0  0  0
  7 17  1  0  0  0  0
  8  1  2  0  0  0  0
  9 14  1  0  0  0  0
  9  7  1  0  0  0  0
 10  8  1  0  0  0  0
 11  5  1  0  0  0  0
 12 11  2  0  0  0  0
 13  5  1  0  0  0  0
 14 13  2  0  0  0  0
 15  6  1  0  0  0  0
 16 15  1  0  0  0  0
 18 10  2  0  0  0  0
 18  4  1  0  0  0  0
 19 23  1  0  0  0  0
 20 25  1  0  0  0  0
 22 21  1  0  0  0  0
 23 21  2  0  0  0  0
 24 19  2  0  0  0  0
 24 25  1  0  0  0  0
 25 22  2  0  0  0  0
 27 26  1  0  0  0  0
 27 10  1  0  0  0  0
 28 27  2  0  0  0  0
 29 30  1  0  0  0  0
 31 37  1  0  0  0  0
 32 36  2  0  0  0  0
 33 31  2  0  0  0  0
 33 32  1  0  0  0  0
 34 31  1  0  0  0  0
 36 35  1  0  0  0  0
 37 30  1  0  0  0  0
 37 35  2  0  0  0  0
M  END
>  <MODEL>
7

>  <REMARK>
 VINA RESULT:      -7.8      1.781      2.399
  Name = 
  5 active torsions:
  status: ('A' for Active; 'I' for Inactive)
    1  A    between atoms: C_3  and  C_7
    2  A    between atoms: C_10  and  C_25
    3  A    between atoms: CA_16  and  C_21
    4  A    between atoms: C_22  and  C_25
    5  A    between atoms: C_22  and  C_36
                            x       y       z     vdW  Elec       q    Type
                         _______ _______ _______ _____ _____    ______ ____

>  <TORSDO>
F 5

$$$$
=
 OpenBabel11042418333D

 37 41  0  0  1  0  0  0  0  0999 V2000
  187.9870  176.6070  144.7070 C   0  0  0  0  0  0  0  0  0  0  0  0
  190.3670  176.1400  145.6470 C   0  0  1  0  0  3  0  0  0  0  0  0
  189.0000  176.7560  145.6980 C   0  0  0  0  0  0  0  0  0  0  0  0
  188.6510  177.4220  146.8880 C   0  0  0  0  0  3  0  0  0  0  0  0
  192.8330  174.8660  145.7340 C   0  0  2  0  0  3  0  0  0  0  0  0
  189.2620  174.1030  142.0910 C   0  0  2  0  0  3  0  0  0  0  0  0
  191.1020  175.9310  142.0320 C   0  0  0  0  0  2  0  0  0  0  0  0
  186.7070  177.1180  144.9550 C   0  0  0  0  0  3  0  0  0  0  0  0
  190.7540  176.5540  143.2690 O   0  0  0  0  0  0  0  0  0  0  0  0
  186.4190  177.7620  146.1610 C   0  0  0  0  0  0  0  0  0  0  0  0
  192.0760  174.9640  146.8560 N   0  0  0  0  0  0  0  0  0  0  0  0
  190.8720  175.5860  146.8320 C   0  0  0  0  0  3  0  0  0  0  0  0
  192.3820  175.4110  144.5750 N   0  0  0  0  0  0  0  0  0  0  0  0
  191.1810  176.0480  144.4980 C   0  0  0  0  0  0  0  0  0  0  0  0
  188.5610  174.5300  143.3880 C   0  0  0  0  0  2  0  0  0  0  0  0
  188.1790  176.0020  143.3550 C   0  0  0  0  0  2  0  0  0  0  0  0
  190.7610  174.4330  142.0430 C   0  0  0  0  0  2  0  0  0  0  0  0
  187.3980  177.9050  147.0900 N   0  0  0  0  0  0  0  0  0  0  0  0
  194.1220  174.1420  145.7660 C   0  0  0  0  0  0  0  0  0  0  0  0
  195.3840  170.6980  145.7050 F   0  0  0  0  0  0  0  0  0  0  0  0
  196.5550  174.1620  145.7820 C   0  0  0  0  0  3  0  0  0  0  0  0
  196.5720  172.7650  145.7620 C   0  0  0  0  0  3  0  0  0  0  0  0
  195.3350  174.8490  145.7810 C   0  0  0  0  0  3  0  0  0  0  0  0
  194.1500  172.7370  145.7420 C   0  0  0  0  0  3  0  0  0  0  0  0
  195.3680  172.0530  145.7430 C   0  0  0  0  0  0  0  0  0  0  0  0
  184.1800  178.5030  145.3900 O   0  0  0  0  0  0  0  0  0  0  0  0
  185.0660  178.2580  146.4340 C   0  0  0  0  0  0  0  0  0  0  0  0
  184.6850  178.4430  147.6210 O   0  0  0  0  0  1  0  0  0  0  0  0
  188.5340  174.5380  140.8260 C   0  0  0  0  0  2  0  0  0  0  0  0
  188.4010  173.3530  139.8900 C   0  0  0  0  0  2  0  0  0  0  0  0
  190.4040  173.2900  138.3830 C   0  0  0  0  0  0  0  0  0  0  0  0
  190.2760  174.2020  136.1500 C   0  0  0  0  0  3  0  0  0  0  0  0
  191.0090  173.5730  137.1580 C   0  0  0  0  0  3  0  0  0  0  0  0
  191.1180  172.6800  139.3620 F   0  0  0  0  0  0  0  0  0  0  0  0
  188.3680  174.2610  137.5890 N   0  0  0  0  0  0  0  0  0  0  0  0
  188.9410  174.5440  136.3880 C   0  0  0  0  0  3  0  0  0  0  0  0
  189.0640  173.6460  138.5860 C   0  0  0  0  0  0  0  0  0  0  0  0
  1  8  2  0  0  0  0
  1  3  1  0  0  0  0
  2  3  1  0  0  0  0
  2 12  1  6  0  0  0
  3  4  2  0  0  0  0
  4 18  1  0  0  0  0
  5 19  1  6  0  0  0
  5 11  1  0  0  0  0
  6 29  1  6  0  0  0
  6 15  1  0  0  0  0
  7 17  1  0  0  0  0
  7  9  1  0  0  0  0
  8 10  1  0  0  0  0
  9 14  1  0  0  0  0
 10 27  1  0  0  0  0
 10 18  2  0  0  0  0
 12 11  2  0  0  0  0
 13  5  1  0  0  0  0
 14 13  2  0  0  0  0
 14  2  1  0  0  0  0
 16 15  1  0  0  0  0
 16  1  1  0  0  0  0
 17  6  1  0  0  0  0
 19 23  1  0  0  0  0
 20 25  1  0  0  0  0
 22 21  1  0  0  0  0
 23 21  2  0  0  0  0
 24 25  1  0  0  0  0
 24 19  2  0  0  0  0
 25 22  2  0  0  0  0
 26 27  2  0  0  0  0
 27 28  1  0  0  0  0
 30 29  1  0  0  0  0
 31 37  1  0  0  0  0
 31 34  1  0  0  0  0
 32 36  2  0  0  0  0
 32 33  1  0  0  0  0
 33 31  2  0  0  0  0
 35 37  2  0  0  0  0
 36 35  1  0  0  0  0
 37 30  1  0  0  0  0
M  END
>  <MODEL>
8

>  <REMARK>
 VINA RESULT:      -7.6      3.219      8.754
  Name = 
  5 active torsions:
  status: ('A' for Active; 'I' for Inactive)
    1  A    between atoms: C_3  and  C_7
    2  A    between atoms: C_10  and  C_25
    3  A    between atoms: CA_16  and  C_21
    4  A    between atoms: C_22  and  C_25
    5  A    between atoms: C_22  and  C_36
                            x       y       z     vdW  Elec       q    Type
                         _______ _______ _______ _____ _____    ______ ____

>  <TORSDO>
F 5

$$$$
=
 OpenBabel11042418333D

 37 41  0  0  1  0  0  0  0  0999 V2000
  189.0730  174.6240  141.6750 C   0  0  0  0  0  0  0  0  0  0  0  0
  191.2340  173.2650  142.1770 C   0  0  1  0  0  3  0  0  0  0  0  0
  190.1270  173.7470  141.2860 C   0  0  0  0  0  0  0  0  0  0  0  0
  190.2210  173.4120  139.9220 C   0  0  0  0  0  3  0  0  0  0  0  0
  193.4300  172.4980  143.6940 C   0  0  2  0  0  3  0  0  0  0  0  0
  189.7690  175.7710  145.2730 C   0  0  2  0  0  3  0  0  0  0  0  0
  189.6920  173.1900  145.5330 C   0  0  0  0  0  2  0  0  0  0  0  0
  188.1910  175.1080  140.7020 C   0  0  0  0  0  3  0  0  0  0  0  0
  189.8390  172.8810  144.1470 O   0  0  0  0  0  0  0  0  0  0  0  0
  188.3420  174.7450  139.3610 C   0  0  0  0  0  0  0  0  0  0  0  0
  193.5900  172.8580  142.3960 N   0  0  0  0  0  0  0  0  0  0  0  0
  192.5290  173.2310  141.6400 C   0  0  0  0  0  3  0  0  0  0  0  0
  192.1850  172.4990  144.2380 N   0  0  0  0  0  0  0  0  0  0  0  0
  191.0870  172.8630  143.5210 C   0  0  0  0  0  0  0  0  0  0  0  0
  189.8670  175.8400  143.7430 C   0  0  0  0  0  2  0  0  0  0  0  0
  188.7610  175.0350  143.0770 C   0  0  0  0  0  2  0  0  0  0  0  0
  190.3920  174.5110  145.8900 C   0  0  0  0  0  2  0  0  0  0  0  0
  189.3440  173.9010  139.0080 N   0  0  0  0  0  0  0  0  0  0  0  0
  194.6040  172.1410  144.5180 C   0  0  0  0  0  0  0  0  0  0  0  0
  197.2570  173.7840  146.4470 F   0  0  0  0  0  0  0  0  0  0  0  0
  196.0050  170.4580  145.5810 C   0  0  0  0  0  3  0  0  0  0  0  0
  196.7980  171.4650  146.1390 C   0  0  0  0  0  3  0  0  0  0  0  0
  194.9100  170.7950  144.7760 C   0  0  0  0  0  3  0  0  0  0  0  0
  195.4070  173.1440  145.0870 C   0  0  0  0  0  3  0  0  0  0  0  0
  196.4990  172.8080  145.8900 C   0  0  0  0  0  0  0  0  0  0  0  0
  186.5930  176.3500  138.6370 O   0  0  0  0  0  1  0  0  0  0  0  0
  187.4420  175.2880  138.3380 C   0  0  0  0  0  0  0  0  0  0  0  0
  187.4470  174.8140  137.1710 O   0  0  0  0  0  0  0  0  0  0  0  0
  188.3730  176.0490  145.8130 C   0  0  0  0  0  2  0  0  0  0  0  0
  188.2120  177.5380  146.0490 C   0  0  0  0  0  2  0  0  0  0  0  0
  186.2800  178.3160  144.6530 C   0  0  0  0  0  0  0  0  0  0  0  0
  184.1130  178.6660  145.6610 C   0  0  0  0  0  3  0  0  0  0  0  0
  184.9400  178.6850  144.5360 C   0  0  0  0  0  3  0  0  0  0  0  0
  187.0830  178.3370  143.5590 F   0  0  0  0  0  0  0  0  0  0  0  0
  185.9570  177.9240  146.9890 N   0  0  0  0  0  0  0  0  0  0  0  0
  184.6470  178.2790  146.8950 C   0  0  0  0  0  3  0  0  0  0  0  0
  186.7810  177.9340  145.9050 C   0  0  0  0  0  0  0  0  0  0  0  0
  1 16  1  0  0  0  0
  2 12  1  1  0  0  0
  2 14  1  0  0  0  0
  3  1  1  0  0  0  0
  3  2  1  0  0  0  0
  4  3  2  0  0  0  0
  5 13  1  0  0  0  0
  5 19  1  1  0  0  0
  6 29  1  6  0  0  0
  6 17  1  0  0  0  0
  7 17  1  0  0  0  0
  8  1  2  0  0  0  0
  9  7  1  0  0  0  0
 10  8  1  0  0  0  0
 11  5  1  0  0  0  0
 12 11  2  0  0  0  0
 14  9  1  0  0  0  0
 14 13  2  0  0  0  0
 15  6  1  0  0  0  0
 16 15  1  0  0  0  0
 18 10  2  0  0  0  0
 18  4  1  0  0  0  0
 19 23  2  0  0  0  0
 19 24  1  0  0  0  0
 21 22  2  0  0  0  0
 23 21  1  0  0  0  0
 24 25  2  0  0  0  0
 25 22  1  0  0  0  0
 25 20  1  0  0  0  0
 27 26  1  0  0  0  0
 27 10  1  0  0  0  0
 28 27  2  0  0  0  0
 29 30  1  0  0  0  0
 31 37  1  0  0  0  0
 32 36  2  0  0  0  0
 33 31  2  0  0  0  0
 33 32  1  0  0  0  0
 34 31  1  0  0  0  0
 36 35  1  0  0  0  0
 37 30  1  0  0  0  0
 37 35  2  0  0  0  0
M  END
>  <MODEL>
9

>  <REMARK>
 VINA RESULT:      -7.5      2.734      8.356
  Name = 
  5 active torsions:
  status: ('A' for Active; 'I' for Inactive)
    1  A    between atoms: C_3  and  C_7
    2  A    between atoms: C_10  and  C_25
    3  A    between atoms: CA_16  and  C_21
    4  A    between atoms: C_22  and  C_25
    5  A    between atoms: C_22  and  C_36
                            x       y       z     vdW  Elec       q    Type
                         _______ _______ _______ _____ _____    ______ ____

>  <TORSDO>
F 5

$$$$
