=
 OpenBabel11042413503D

 25 29  0  0  1  0  0  0  0  0999 V2000
  187.1610  177.0580  145.3630 C   0  0  0  0  0  0  0  0  0  0  0  0
  188.1290  177.0110  146.7300 S   0  0  0  0  0  0  0  0  0  0  0  0
  184.1800  178.9100  145.0700 O   0  0  0  0  0  0  0  0  0  0  0  0
  185.9790  177.7350  145.1160 C   0  0  0  0  0  0  0  0  0  0  0  0
  189.2910  175.9800  146.0410 C   0  0  0  0  0  0  0  0  0  0  0  0
  187.1260  176.2170  143.1160 N   0  0  0  0  0  0  0  0  0  0  0  0
  187.7220  176.2900  144.3490 C   0  0  0  0  0  0  0  0  0  0  0  0
  188.9290  175.6750  144.7140 C   0  0  0  0  0  0  0  0  0  0  0  0
  184.2710  178.3800  143.8760 N   0  0  0  0  0  0  0  0  0  0  0  0
  185.3900  177.6460  143.8930 C   0  0  0  0  0  0  0  0  0  0  0  0
  185.9530  176.8840  142.8610 C   0  0  0  0  0  3  0  0  0  0  0  0
  185.1810  178.5620  145.8700 C   0  0  0  0  0  3  0  0  0  0  0  0
  189.8970  171.3150  142.6350 N   0  0  0  0  0  1  0  0  0  0  0  0
  192.6460  175.0920  141.4750 N   0  0  0  0  0  1  0  0  0  0  0  0
  190.2030  172.6960  142.7900 C   0  0  0  0  0  0  0  0  0  0  0  0
  189.4370  173.4850  143.6480 C   0  0  0  0  0  3  0  0  0  0  0  0
  189.7420  174.8440  143.8000 C   0  0  0  0  0  0  0  0  0  0  0  0
  191.5590  174.5600  142.2240 C   0  0  0  0  0  0  0  0  0  0  0  0
  191.2390  173.2440  142.1030 N   0  0  0  0  0  0  0  0  0  0  0  0
  191.1110  176.7110  143.1560 F   0  0  0  0  0  0  0  0  0  0  0  0
  190.8150  175.3880  143.0740 C   0  0  0  0  0  0  0  0  0  0  0  0
  192.9920  175.7130  146.6190 C   0  0  0  0  0  1  0  0  0  0  0  0
  190.9760  176.5730  147.7520 C   0  0  0  0  0  2  0  0  0  0  0  0
  190.5350  175.5270  146.7440 C   0  0  2  0  0  3  0  0  0  0  0  0
  191.6910  176.4600  146.4240 C   0  0  2  0  0  3  0  0  0  0  0  0
  1  2  1  0  0  0  0
  3 12  1  0  0  0  0
  4  1  1  0  0  0  0
  4 12  2  0  0  0  0
  5  2  1  0  0  0  0
  6  7  1  0  0  0  0
  7  8  1  0  0  0  0
  7  1  2  0  0  0  0
  8  5  2  0  0  0  0
  9 10  2  0  0  0  0
  9  3  1  0  0  0  0
 10  4  1  0  0  0  0
 11  6  2  0  0  0  0
 11 10  1  0  0  0  0
 13 15  1  0  0  0  0
 14 18  1  0  0  0  0
 15 16  1  0  0  0  0
 16 17  2  0  0  0  0
 17  8  1  0  0  0  0
 18 21  2  0  0  0  0
 19 18  1  0  0  0  0
 19 15  2  0  0  0  0
 21 20  1  0  0  0  0
 21 17  1  0  0  0  0
 24  5  1  6  0  0  0
 24 23  1  0  0  0  0
 25 22  1  1  0  0  0
 25 24  1  0  0  0  0
 25 23  1  0  0  0  0
M  END
>  <MODEL>
1

>  <REMARK>
 VINA RESULT:      -7.0      0.000      0.000
  Name = 
  2 active torsions:
  status: ('A' for Active; 'I' for Inactive)
    1  A    between atoms: C_11  and  C_12
    2  A    between atoms: C_13  and  C_17
                            x       y       z     vdW  Elec       q    Type
                         _______ _______ _______ _____ _____    ______ ____

>  <TORSDO>
F 2

$$$$
=
 OpenBabel11042413503D

 25 29  0  0  1  0  0  0  0  0999 V2000
  185.9680  177.2330  142.9440 C   0  0  0  0  0  0  0  0  0  0  0  0
  186.0890  177.0610  144.6060 S   0  0  0  0  0  0  0  0  0  0  0  0
  183.2190  178.6520  141.2620 O   0  0  0  0  0  0  0  0  0  0  0  0
  184.9580  177.7660  142.1620 C   0  0  0  0  0  0  0  0  0  0  0  0
  187.6380  176.3650  144.5610 C   0  0  0  0  0  0  0  0  0  0  0  0
  187.2720  176.8520  140.9660 N   0  0  0  0  0  0  0  0  0  0  0  0
  187.1230  176.7680  142.3270 C   0  0  0  0  0  0  0  0  0  0  0  0
  188.0810  176.2770  143.2270 C   0  0  0  0  0  0  0  0  0  0  0  0
  184.0210  178.3850  140.2620 N   0  0  0  0  0  0  0  0  0  0  0  0
  185.1090  177.8330  140.8120 C   0  0  0  0  0  0  0  0  0  0  0  0
  186.2750  177.3780  140.1820 C   0  0  0  0  0  3  0  0  0  0  0  0
  183.7240  178.3040  142.4400 C   0  0  0  0  0  3  0  0  0  0  0  0
  190.8820  172.7020  141.3160 N   0  0  0  0  0  1  0  0  0  0  0  0
  192.9950  176.7850  142.7400 N   0  0  0  0  0  1  0  0  0  0  0  0
  190.7680  174.0020  141.8830 C   0  0  0  0  0  0  0  0  0  0  0  0
  189.5170  174.4880  142.2630 C   0  0  0  0  0  3  0  0  0  0  0  0
  189.4100  175.7670  142.8230 C   0  0  0  0  0  0  0  0  0  0  0  0
  191.8070  176.0160  142.5910 C   0  0  0  0  0  0  0  0  0  0  0  0
  191.8770  174.7680  142.0550 N   0  0  0  0  0  0  0  0  0  0  0  0
  190.5020  177.8060  143.4770 F   0  0  0  0  0  0  0  0  0  0  0  0
  190.5710  176.5420  142.9840 C   0  0  0  0  0  0  0  0  0  0  0  0
  190.2910  176.7270  147.1950 C   0  0  0  0  0  1  0  0  0  0  0  0
  187.8330  176.6320  147.0120 C   0  0  0  0  0  2  0  0  0  0  0  0
  188.4190  175.9690  145.7790 C   0  0  2  0  0  3  0  0  0  0  0  0
  189.0950  177.1850  146.3900 C   0  0  2  0  0  3  0  0  0  0  0  0
  1  2  1  0  0  0  0
  3 12  1  0  0  0  0
  4 12  2  0  0  0  0
  4  1  1  0  0  0  0
  5  2  1  0  0  0  0
  6  7  1  0  0  0  0
  7  1  2  0  0  0  0
  7  8  1  0  0  0  0
  8  5  2  0  0  0  0
  9 10  2  0  0  0  0
  9  3  1  0  0  0  0
 10  4  1  0  0  0  0
 11 10  1  0  0  0  0
 11  6  2  0  0  0  0
 13 15  1  0  0  0  0
 15 19  2  0  0  0  0
 15 16  1  0  0  0  0
 16 17  2  0  0  0  0
 17 21  1  0  0  0  0
 17  8  1  0  0  0  0
 18 14  1  0  0  0  0
 18 21  2  0  0  0  0
 19 18  1  0  0  0  0
 21 20  1  0  0  0  0
 24  5  1  6  0  0  0
 24 25  1  0  0  0  0
 24 23  1  0  0  0  0
 25 23  1  0  0  0  0
 25 22  1  1  0  0  0
M  END
>  <MODEL>
2

>  <REMARK>
 VINA RESULT:      -6.9      1.957      2.534
  Name = 
  2 active torsions:
  status: ('A' for Active; 'I' for Inactive)
    1  A    between atoms: C_11  and  C_12
    2  A    between atoms: C_13  and  C_17
                            x       y       z     vdW  Elec       q    Type
                         _______ _______ _______ _____ _____    ______ ____

>  <TORSDO>
F 2

$$$$
=
 OpenBabel11042413503D

 25 29  0  0  1  0  0  0  0  0999 V2000
  186.8970  176.8740  145.2170 C   0  0  0  0  0  0  0  0  0  0  0  0
  187.7340  176.3430  146.5680 S   0  0  0  0  0  0  0  0  0  0  0  0
  183.9950  178.8660  145.3020 O   0  0  0  0  0  0  0  0  0  0  0  0
  185.7580  177.6520  145.1080 C   0  0  0  0  0  0  0  0  0  0  0  0
  188.9330  175.5310  145.6780 C   0  0  0  0  0  0  0  0  0  0  0  0
  187.0520  176.8010  142.8230 N   0  0  0  0  0  0  0  0  0  0  0  0
  187.5330  176.4450  144.0580 C   0  0  0  0  0  0  0  0  0  0  0  0
  188.6890  175.6870  144.3000 C   0  0  0  0  0  0  0  0  0  0  0  0
  184.1840  178.7440  144.0110 N   0  0  0  0  0  0  0  0  0  0  0  0
  185.2810  177.9890  143.8800 C   0  0  0  0  0  0  0  0  0  0  0  0
  185.9220  177.5720  142.7060 C   0  0  0  0  0  3  0  0  0  0  0  0
  184.9110  178.2310  146.0230 C   0  0  0  0  0  3  0  0  0  0  0  0
  193.0020  175.6910  141.9190 N   0  0  0  0  0  1  0  0  0  0  0  0
  189.5720  172.6350  140.4850 N   0  0  0  0  0  1  0  0  0  0  0  0
  191.6880  175.1710  142.0770 C   0  0  0  0  0  0  0  0  0  0  0  0
  190.8590  175.6680  143.0830 C   0  0  0  0  0  3  0  0  0  0  0  0
  189.5650  175.1540  143.2330 C   0  0  0  0  0  0  0  0  0  0  0  0
  189.9920  173.6680  141.3700 C   0  0  0  0  0  0  0  0  0  0  0  0
  191.2410  174.1920  141.2480 N   0  0  0  0  0  0  0  0  0  0  0  0
  187.8990  173.5790  142.5120 F   0  0  0  0  0  0  0  0  0  0  0  0
  189.1280  174.1370  142.3670 C   0  0  0  0  0  0  0  0  0  0  0  0
  192.5040  175.0990  146.7570 C   0  0  0  0  0  1  0  0  0  0  0  0
  190.2490  175.2200  147.7490 C   0  0  0  0  0  2  0  0  0  0  0  0
  190.0980  174.8150  146.2930 C   0  0  2  0  0  3  0  0  0  0  0  0
  191.1700  175.8110  146.7060 C   0  0  2  0  0  3  0  0  0  0  0  0
  1  2  1  0  0  0  0
  3 12  1  0  0  0  0
  4  1  1  0  0  0  0
  4 12  2  0  0  0  0
  5  2  1  0  0  0  0
  6  7  1  0  0  0  0
  7  8  1  0  0  0  0
  7  1  2  0  0  0  0
  8  5  2  0  0  0  0
  9  3  1  0  0  0  0
 10  9  2  0  0  0  0
 10  4  1  0  0  0  0
 11  6  2  0  0  0  0
 11 10  1  0  0  0  0
 13 15  1  0  0  0  0
 14 18  1  0  0  0  0
 15 16  1  0  0  0  0
 16 17  2  0  0  0  0
 17  8  1  0  0  0  0
 18 21  2  0  0  0  0
 19 18  1  0  0  0  0
 19 15  2  0  0  0  0
 21 20  1  0  0  0  0
 21 17  1  0  0  0  0
 24  5  1  6  0  0  0
 24 25  1  0  0  0  0
 24 23  1  0  0  0  0
 25 22  1  1  0  0  0
 25 23  1  0  0  0  0
M  END
>  <MODEL>
3

>  <REMARK>
 VINA RESULT:      -6.9      1.299      2.011
  Name = 
  2 active torsions:
  status: ('A' for Active; 'I' for Inactive)
    1  A    between atoms: C_11  and  C_12
    2  A    between atoms: C_13  and  C_17
                            x       y       z     vdW  Elec       q    Type
                         _______ _______ _______ _____ _____    ______ ____

>  <TORSDO>
F 2

$$$$
=
 OpenBabel11042413503D

 25 29  0  0  1  0  0  0  0  0999 V2000
  186.4190  177.0420  142.9260 C   0  0  0  0  0  0  0  0  0  0  0  0
  186.5690  176.8550  144.5840 S   0  0  0  0  0  0  0  0  0  0  0  0
  183.7090  178.6100  141.3150 O   0  0  0  0  0  0  0  0  0  0  0  0
  185.4200  177.6300  142.1700 C   0  0  0  0  0  0  0  0  0  0  0  0
  188.0790  176.0800  144.5000 C   0  0  0  0  0  0  0  0  0  0  0  0
  187.6540  176.6030  140.9160 N   0  0  0  0  0  0  0  0  0  0  0  0
  187.5340  176.5200  142.2800 C   0  0  0  0  0  0  0  0  0  0  0  0
  188.4850  175.9750  143.1550 C   0  0  0  0  0  0  0  0  0  0  0  0
  184.4730  178.3070  140.2950 N   0  0  0  0  0  0  0  0  0  0  0  0
  185.5430  177.6960  140.8170 C   0  0  0  0  0  0  0  0  0  0  0  0
  186.6680  177.1840  140.1580 C   0  0  0  0  0  3  0  0  0  0  0  0
  184.2220  178.2300  142.4790 C   0  0  0  0  0  3  0  0  0  0  0  0
  193.3350  176.4370  142.4230 N   0  0  0  0  0  1  0  0  0  0  0  0
  191.2240  172.2450  141.3570 N   0  0  0  0  0  1  0  0  0  0  0  0
  192.1550  175.6460  142.3640 C   0  0  0  0  0  0  0  0  0  0  0  0
  190.9360  176.1820  142.7790 C   0  0  0  0  0  3  0  0  0  0  0  0
  189.7760  175.4000  142.7180 C   0  0  0  0  0  0  0  0  0  0  0  0
  191.1090  173.5810  141.8350 C   0  0  0  0  0  0  0  0  0  0  0  0
  192.2160  174.3680  141.9040 N   0  0  0  0  0  0  0  0  0  0  0  0
  188.7730  173.2740  142.2140 F   0  0  0  0  0  0  0  0  0  0  0  0
  189.8660  174.0800  142.2430 C   0  0  0  0  0  0  0  0  0  0  0  0
  190.7520  176.3360  147.1250 C   0  0  0  0  0  1  0  0  0  0  0  0
  188.2920  176.2600  146.9580 C   0  0  0  0  0  2  0  0  0  0  0  0
  188.8660  175.6370  145.6970 C   0  0  2  0  0  3  0  0  0  0  0  0
  189.5530  176.8280  146.3450 C   0  0  2  0  0  3  0  0  0  0  0  0
  1  2  1  0  0  0  0
  3 12  1  0  0  0  0
  4 12  2  0  0  0  0
  4  1  1  0  0  0  0
  5  2  1  0  0  0  0
  6  7  1  0  0  0  0
  7  1  2  0  0  0  0
  7  8  1  0  0  0  0
  8  5  2  0  0  0  0
  9 10  2  0  0  0  0
  9  3  1  0  0  0  0
 10  4  1  0  0  0  0
 11 10  1  0  0  0  0
 11  6  2  0  0  0  0
 14 18  1  0  0  0  0
 15 13  1  0  0  0  0
 15 16  1  0  0  0  0
 17 16  2  0  0  0  0
 17  8  1  0  0  0  0
 18 19  1  0  0  0  0
 18 21  2  0  0  0  0
 19 15  2  0  0  0  0
 20 21  1  0  0  0  0
 21 17  1  0  0  0  0
 24  5  1  6  0  0  0
 24 25  1  0  0  0  0
 24 23  1  0  0  0  0
 25 23  1  0  0  0  0
 25 22  1  1  0  0  0
M  END
>  <MODEL>
4

>  <REMARK>
 VINA RESULT:      -6.7      2.058      2.939
  Name = 
  2 active torsions:
  status: ('A' for Active; 'I' for Inactive)
    1  A    between atoms: C_11  and  C_12
    2  A    between atoms: C_13  and  C_17
                            x       y       z     vdW  Elec       q    Type
                         _______ _______ _______ _____ _____    ______ ____

>  <TORSDO>
F 2

$$$$
=
 OpenBabel11042413503D

 25 29  0  0  1  0  0  0  0  0999 V2000
  186.3790  177.4740  144.5050 C   0  0  0  0  0  0  0  0  0  0  0  0
  186.4920  177.3440  142.8380 S   0  0  0  0  0  0  0  0  0  0  0  0
  183.6910  178.9560  146.2310 O   0  0  0  0  0  0  0  0  0  0  0  0
  185.3920  178.0250  145.3030 C   0  0  0  0  0  0  0  0  0  0  0  0
  187.9820  176.5270  142.8640 C   0  0  0  0  0  0  0  0  0  0  0  0
  187.5830  176.8240  146.4770 N   0  0  0  0  0  0  0  0  0  0  0  0
  187.4810  176.8800  145.1100 C   0  0  0  0  0  0  0  0  0  0  0  0
  188.3970  176.3360  144.1960 C   0  0  0  0  0  0  0  0  0  0  0  0
  184.4450  178.5580  147.2250 N   0  0  0  0  0  0  0  0  0  0  0  0
  185.5080  177.9750  146.6570 C   0  0  0  0  0  0  0  0  0  0  0  0
  186.6090  177.3690  147.2770 C   0  0  0  0  0  3  0  0  0  0  0  0
  184.2040  178.6650  145.0410 C   0  0  0  0  0  3  0  0  0  0  0  0
  190.9170  172.1260  144.6380 N   0  0  0  0  0  1  0  0  0  0  0  0
  193.0110  176.2320  146.0250 N   0  0  0  0  0  1  0  0  0  0  0  0
  190.8470  173.5370  144.8010 C   0  0  0  0  0  0  0  0  0  0  0  0
  189.6910  174.2250  144.4270 C   0  0  0  0  0  3  0  0  0  0  0  0
  189.6260  175.6140  144.5910 C   0  0  0  0  0  0  0  0  0  0  0  0
  191.8750  175.5650  145.4880 C   0  0  0  0  0  0  0  0  0  0  0  0
  191.9040  174.2150  145.3200 N   0  0  0  0  0  0  0  0  0  0  0  0
  190.7280  177.6440  145.2530 F   0  0  0  0  0  0  0  0  0  0  0  0
  190.7350  176.2920  145.1240 C   0  0  0  0  0  0  0  0  0  0  0  0
  189.2610  173.9620  140.4380 C   0  0  0  0  0  1  0  0  0  0  0  0
  187.7150  175.8840  140.4910 C   0  0  0  0  0  2  0  0  0  0  0  0
  188.6970  176.0420  141.6390 C   0  0  2  0  0  3  0  0  0  0  0  0
  188.1910  174.6630  141.2460 C   0  0  2  0  0  3  0  0  0  0  0  0
  1  7  2  0  0  0  0
  1  4  1  0  0  0  0
  2  5  1  0  0  0  0
  2  1  1  0  0  0  0
  3  9  1  0  0  0  0
  4 10  1  0  0  0  0
  5  8  2  0  0  0  0
  6 11  2  0  0  0  0
  7  6  1  0  0  0  0
  8 17  1  0  0  0  0
  8  7  1  0  0  0  0
 10  9  2  0  0  0  0
 10 11  1  0  0  0  0
 12  4  2  0  0  0  0
 12  3  1  0  0  0  0
 13 15  1  0  0  0  0
 15 19  1  0  0  0  0
 16 17  1  0  0  0  0
 16 15  2  0  0  0  0
 17 21  2  0  0  0  0
 18 14  1  0  0  0  0
 19 18  2  0  0  0  0
 21 20  1  0  0  0  0
 21 18  1  0  0  0  0
 23 25  1  0  0  0  0
 23 24  1  0  0  0  0
 24  5  1  1  0  0  0
 25 22  1  6  0  0  0
 25 24  1  0  0  0  0
M  END
>  <MODEL>
5

>  <REMARK>
 VINA RESULT:      -6.6      2.374      3.735
  Name = 
  2 active torsions:
  status: ('A' for Active; 'I' for Inactive)
    1  A    between atoms: C_11  and  C_12
    2  A    between atoms: C_13  and  C_17
                            x       y       z     vdW  Elec       q    Type
                         _______ _______ _______ _____ _____    ______ ____

>  <TORSDO>
F 2

$$$$
=
 OpenBabel11042413503D

 25 29  0  0  1  0  0  0  0  0999 V2000
  194.0080  176.1290  144.0910 C   0  0  0  0  0  0  0  0  0  0  0  0
  193.5000  176.2410  145.6830 S   0  0  0  0  0  0  0  0  0  0  0  0
  197.3690  175.9360  143.0590 O   0  0  0  0  0  0  0  0  0  0  0  0
  195.2800  176.0470  143.5520 C   0  0  0  0  0  0  0  0  0  0  0  0
  191.8440  176.2530  145.3000 C   0  0  0  0  0  0  0  0  0  0  0  0
  193.0830  175.9470  141.8840 N   0  0  0  0  0  0  0  0  0  0  0  0
  192.9110  176.0870  143.2370 C   0  0  0  0  0  0  0  0  0  0  0  0
  191.6780  176.1520  143.9050 C   0  0  0  0  0  0  0  0  0  0  0  0
  196.7440  175.8540  141.9110 N   0  0  0  0  0  0  0  0  0  0  0  0
  195.4400  175.9220  142.2070 C   0  0  0  0  0  0  0  0  0  0  0  0
  194.3410  175.8660  141.3400 C   0  0  0  0  0  3  0  0  0  0  0  0
  196.5440  176.0540  144.0930 C   0  0  0  0  0  3  0  0  0  0  0  0
  187.9940  173.4890  142.0080 N   0  0  0  0  0  1  0  0  0  0  0  0
  187.7040  178.2900  141.8370 N   0  0  0  0  0  1  0  0  0  0  0  0
  188.5690  174.7570  142.2980 C   0  0  0  0  0  0  0  0  0  0  0  0
  189.8040  174.8300  142.9430 C   0  0  0  0  0  3  0  0  0  0  0  0
  190.3670  176.0810  143.2250 C   0  0  0  0  0  0  0  0  0  0  0  0
  188.4310  177.1260  142.2120 C   0  0  0  0  0  0  0  0  0  0  0  0
  187.9140  175.8960  141.9490 N   0  0  0  0  0  0  0  0  0  0  0  0
  190.1570  178.4740  143.1590 F   0  0  0  0  0  0  0  0  0  0  0  0
  189.6680  177.2440  142.8580 C   0  0  0  0  0  0  0  0  0  0  0  0
  188.9410  174.9180  147.2730 C   0  0  0  0  0  1  0  0  0  0  0  0
  191.2350  175.7460  147.6430 C   0  0  0  0  0  2  0  0  0  0  0  0
  190.7450  176.3030  146.3190 C   0  0  2  0  0  3  0  0  0  0  0  0
  190.3600  174.8980  146.7480 C   0  0  2  0  0  3  0  0  0  0  0  0
  1  2  1  0  0  0  0
  3 12  1  0  0  0  0
  4  1  1  0  0  0  0
  4 12  2  0  0  0  0
  5  2  1  0  0  0  0
  6  7  1  0  0  0  0
  7  8  1  0  0  0  0
  7  1  2  0  0  0  0
  8  5  2  0  0  0  0
  9 10  2  0  0  0  0
  9  3  1  0  0  0  0
 10  4  1  0  0  0  0
 11  6  2  0  0  0  0
 11 10  1  0  0  0  0
 13 15  1  0  0  0  0
 14 18  1  0  0  0  0
 15 16  1  0  0  0  0
 16 17  2  0  0  0  0
 17  8  1  0  0  0  0
 18 21  2  0  0  0  0
 19 18  1  0  0  0  0
 19 15  2  0  0  0  0
 21 20  1  0  0  0  0
 21 17  1  0  0  0  0
 24  5  1  6  0  0  0
 24 25  1  0  0  0  0
 24 23  1  0  0  0  0
 25 22  1  1  0  0  0
 25 23  1  0  0  0  0
M  END
>  <MODEL>
6

>  <REMARK>
 VINA RESULT:      -6.6      3.802      6.470
  Name = 
  2 active torsions:
  status: ('A' for Active; 'I' for Inactive)
    1  A    between atoms: C_11  and  C_12
    2  A    between atoms: C_13  and  C_17
                            x       y       z     vdW  Elec       q    Type
                         _______ _______ _______ _____ _____    ______ ____

>  <TORSDO>
F 2

$$$$
=
 OpenBabel11042413503D

 25 29  0  0  1  0  0  0  0  0999 V2000
  191.0200  175.5920  144.4390 C   0  0  0  0  0  0  0  0  0  0  0  0
  190.3160  175.0950  143.0020 S   0  0  0  0  0  0  0  0  0  0  0  0
  194.3550  174.9570  145.3730 O   0  0  0  0  0  0  0  0  0  0  0  0
  192.3020  175.4130  144.9260 C   0  0  0  0  0  0  0  0  0  0  0  0
  188.8080  175.8030  143.3340 C   0  0  0  0  0  0  0  0  0  0  0  0
  190.4770  176.8730  146.3940 N   0  0  0  0  0  0  0  0  0  0  0  0
  190.1080  176.3220  145.1940 C   0  0  0  0  0  0  0  0  0  0  0  0
  188.8520  176.4540  144.5820 C   0  0  0  0  0  0  0  0  0  0  0  0
  193.9330  175.6630  146.3930 N   0  0  0  0  0  0  0  0  0  0  0  0
  192.6540  175.9530  146.1240 C   0  0  0  0  0  0  0  0  0  0  0  0
  191.7470  176.7000  146.8860 C   0  0  0  0  0  3  0  0  0  0  0  0
  193.4190  174.7690  144.4490 C   0  0  0  0  0  3  0  0  0  0  0  0
  185.5630  180.1080  144.2610 N   0  0  0  0  0  1  0  0  0  0  0  0
  185.5710  177.3420  148.2000 N   0  0  0  0  0  1  0  0  0  0  0  0
  186.1220  179.0200  144.9870 C   0  0  0  0  0  0  0  0  0  0  0  0
  187.1800  178.2900  144.4430 C   0  0  0  0  0  3  0  0  0  0  0  0
  187.7280  177.2210  145.1620 C   0  0  0  0  0  0  0  0  0  0  0  0
  186.1320  177.6560  146.9300 C   0  0  0  0  0  0  0  0  0  0  0  0
  185.6250  178.6910  146.2080 N   0  0  0  0  0  0  0  0  0  0  0  0
  187.6650  175.8370  147.1260 F   0  0  0  0  0  0  0  0  0  0  0  0
  187.1930  176.8980  146.4200 C   0  0  0  0  0  0  0  0  0  0  0  0
  186.4620  177.1810  140.7450 C   0  0  0  0  0  1  0  0  0  0  0  0
  188.0950  175.3500  141.0090 C   0  0  0  0  0  2  0  0  0  0  0  0
  187.6400  175.7740  142.3940 C   0  0  2  0  0  3  0  0  0  0  0  0
  187.8210  176.8090  141.2960 C   0  0  2  0  0  3  0  0  0  0  0  0
  1  4  1  0  0  0  0
  1  7  2  0  0  0  0
  2  5  1  0  0  0  0
  2  1  1  0  0  0  0
  3  9  1  0  0  0  0
  4 10  1  0  0  0  0
  5  8  2  0  0  0  0
  6 11  2  0  0  0  0
  7  6  1  0  0  0  0
  8 17  1  0  0  0  0
  8  7  1  0  0  0  0
 10  9  2  0  0  0  0
 10 11  1  0  0  0  0
 12  4  2  0  0  0  0
 12  3  1  0  0  0  0
 13 15  1  0  0  0  0
 15 19  1  0  0  0  0
 16 15  2  0  0  0  0
 16 17  1  0  0  0  0
 17 21  2  0  0  0  0
 18 14  1  0  0  0  0
 19 18  2  0  0  0  0
 21 18  1  0  0  0  0
 21 20  1  0  0  0  0
 23 25  1  0  0  0  0
 23 24  1  0  0  0  0
 24  5  1  1  0  0  0
 25 22  1  6  0  0  0
 25 24  1  0  0  0  0
M  END
>  <MODEL>
7

>  <REMARK>
 VINA RESULT:      -6.5      3.709      7.049
  Name = 
  2 active torsions:
  status: ('A' for Active; 'I' for Inactive)
    1  A    between atoms: C_11  and  C_12
    2  A    between atoms: C_13  and  C_17
                            x       y       z     vdW  Elec       q    Type
                         _______ _______ _______ _____ _____    ______ ____

>  <TORSDO>
F 2

$$$$
=
 OpenBabel11042413503D

 25 29  0  0  1  0  0  0  0  0999 V2000
  186.6940  177.2340  144.5730 C   0  0  0  0  0  0  0  0  0  0  0  0
  186.6210  176.9160  142.9290 S   0  0  0  0  0  0  0  0  0  0  0  0
  184.0630  178.5880  146.4810 O   0  0  0  0  0  0  0  0  0  0  0  0
  185.7470  177.7580  145.4350 C   0  0  0  0  0  0  0  0  0  0  0  0
  188.1980  176.2910  142.8380 C   0  0  0  0  0  0  0  0  0  0  0  0
  188.2050  176.9770  146.4200 N   0  0  0  0  0  0  0  0  0  0  0  0
  187.9310  176.8540  145.0820 C   0  0  0  0  0  0  0  0  0  0  0  0
  188.7940  176.3150  144.1140 C   0  0  0  0  0  0  0  0  0  0  0  0
  184.9780  178.4060  147.4000 N   0  0  0  0  0  0  0  0  0  0  0  0
  186.0330  177.8880  146.7580 C   0  0  0  0  0  0  0  0  0  0  0  0
  187.2720  177.4970  147.2830 C   0  0  0  0  0  3  0  0  0  0  0  0
  184.4620  178.2160  145.2700 C   0  0  0  0  0  3  0  0  0  0  0  0
  193.5370  177.1230  145.1730 N   0  0  0  0  0  1  0  0  0  0  0  0
  191.9910  172.5800  144.8050 N   0  0  0  0  0  1  0  0  0  0  0  0
  192.4710  176.2130  144.9300 C   0  0  0  0  0  0  0  0  0  0  0  0
  191.1920  176.6960  144.6520 C   0  0  0  0  0  3  0  0  0  0  0  0
  190.1470  175.7970  144.4120 C   0  0  0  0  0  0  0  0  0  0  0  0
  191.7060  173.9730  144.7440 C   0  0  0  0  0  0  0  0  0  0  0  0
  192.7000  174.8740  144.9680 N   0  0  0  0  0  0  0  0  0  0  0  0
  189.4100  173.5120  144.2840 F   0  0  0  0  0  0  0  0  0  0  0  0
  190.4080  174.4160  144.4630 C   0  0  0  0  0  0  0  0  0  0  0  0
  189.2800  173.6140  140.4370 C   0  0  0  0  0  1  0  0  0  0  0  0
  187.7520  175.5490  140.5210 C   0  0  0  0  0  2  0  0  0  0  0  0
  188.8170  175.7480  141.5850 C   0  0  2  0  0  3  0  0  0  0  0  0
  188.2770  174.3580  141.2910 C   0  0  2  0  0  3  0  0  0  0  0  0
  1  7  2  0  0  0  0
  1  4  1  0  0  0  0
  2  1  1  0  0  0  0
  3  9  1  0  0  0  0
  4 10  1  0  0  0  0
  5  2  1  0  0  0  0
  5  8  2  0  0  0  0
  6 11  2  0  0  0  0
  7  6  1  0  0  0  0
  8 17  1  0  0  0  0
  8  7  1  0  0  0  0
 10 11  1  0  0  0  0
 10  9  2  0  0  0  0
 12  4  2  0  0  0  0
 12  3  1  0  0  0  0
 15 19  1  0  0  0  0
 15 13  1  0  0  0  0
 16 15  2  0  0  0  0
 17 21  2  0  0  0  0
 17 16  1  0  0  0  0
 18 14  1  0  0  0  0
 18 19  2  0  0  0  0
 20 21  1  0  0  0  0
 21 18  1  0  0  0  0
 23 25  1  0  0  0  0
 23 24  1  0  0  0  0
 24  5  1  1  0  0  0
 25 22  1  6  0  0  0
 25 24  1  0  0  0  0
M  END
>  <MODEL>
8

>  <REMARK>
 VINA RESULT:      -6.5      2.498      4.140
  Name = 
  2 active torsions:
  status: ('A' for Active; 'I' for Inactive)
    1  A    between atoms: C_11  and  C_12
    2  A    between atoms: C_13  and  C_17
                            x       y       z     vdW  Elec       q    Type
                         _______ _______ _______ _____ _____    ______ ____

>  <TORSDO>
F 2

$$$$
=
 OpenBabel11042413503D

 25 29  0  0  1  0  0  0  0  0999 V2000
  186.4620  177.8840  144.7400 C   0  0  0  0  0  0  0  0  0  0  0  0
  185.9840  178.5510  143.2790 S   0  0  0  0  0  0  0  0  0  0  0  0
  184.9110  178.5020  147.8400 O   0  0  0  0  0  0  0  0  0  0  0  0
  185.9490  178.0390  146.0150 C   0  0  0  0  0  0  0  0  0  0  0  0
  187.1710  177.7500  142.3650 C   0  0  0  0  0  0  0  0  0  0  0  0
  188.0710  176.3230  145.5990 N   0  0  0  0  0  0  0  0  0  0  0  0
  187.5370  177.0230  144.5470 C   0  0  0  0  0  0  0  0  0  0  0  0
  187.9500  176.9320  143.2080 C   0  0  0  0  0  0  0  0  0  0  0  0
  185.8400  177.6460  148.1850 N   0  0  0  0  0  0  0  0  0  0  0  0
  186.4930  177.3500  147.0540 C   0  0  0  0  0  0  0  0  0  0  0  0
  187.5680  176.4720  146.8680 C   0  0  0  0  0  3  0  0  0  0  0  0
  184.9200  178.7830  146.5420 C   0  0  0  0  0  3  0  0  0  0  0  0
  192.7510  176.1040  142.4810 N   0  0  0  0  0  1  0  0  0  0  0  0
  189.5980  172.6920  141.2220 N   0  0  0  0  0  1  0  0  0  0  0  0
  191.4020  175.6640  142.3880 C   0  0  0  0  0  0  0  0  0  0  0  0
  190.3680  176.4890  142.8330 C   0  0  0  0  0  3  0  0  0  0  0  0
  189.0410  176.0520  142.7390 C   0  0  0  0  0  0  0  0  0  0  0  0
  189.8430  173.9850  141.7650 C   0  0  0  0  0  0  0  0  0  0  0  0
  191.1200  174.4410  141.8670 N   0  0  0  0  0  0  0  0  0  0  0  0
  187.5070  174.3020  142.1380 F   0  0  0  0  0  0  0  0  0  0  0  0
  188.7770  174.7810  142.2010 C   0  0  0  0  0  0  0  0  0  0  0  0
  187.0480  176.5450  138.8100 C   0  0  0  0  0  1  0  0  0  0  0  0
  185.9710  178.2300  140.2560 C   0  0  0  0  0  2  0  0  0  0  0  0
  187.3090  177.8670  140.8770 C   0  0  2  0  0  3  0  0  0  0  0  0
  186.4710  176.8040  140.1850 C   0  0  2  0  0  3  0  0  0  0  0  0
  1  4  1  0  0  0  0
  2  1  1  0  0  0  0
  3  9  1  0  0  0  0
  4 12  2  0  0  0  0
  4 10  1  0  0  0  0
  5  8  2  0  0  0  0
  5  2  1  0  0  0  0
  6 11  2  0  0  0  0
  7  1  2  0  0  0  0
  7  6  1  0  0  0  0
  8  7  1  0  0  0  0
 10  9  2  0  0  0  0
 11 10  1  0  0  0  0
 12  3  1  0  0  0  0
 14 18  1  0  0  0  0
 15 13  1  0  0  0  0
 15 16  1  0  0  0  0
 17 16  2  0  0  0  0
 17  8  1  0  0  0  0
 18 19  1  0  0  0  0
 18 21  2  0  0  0  0
 19 15  2  0  0  0  0
 20 21  1  0  0  0  0
 21 17  1  0  0  0  0
 23 24  1  0  0  0  0
 24  5  1  1  0  0  0
 25 22  1  6  0  0  0
 25 23  1  0  0  0  0
 25 24  1  0  0  0  0
M  END
>  <MODEL>
9

>  <REMARK>
 VINA RESULT:      -6.4      2.584      4.532
  Name = 
  2 active torsions:
  status: ('A' for Active; 'I' for Inactive)
    1  A    between atoms: C_11  and  C_12
    2  A    between atoms: C_13  and  C_17
                            x       y       z     vdW  Elec       q    Type
                         _______ _______ _______ _____ _____    ______ ____

>  <TORSDO>
F 2

$$$$
