=
 OpenBabel11042418503D

 26 29  0  0  1  0  0  0  0  0999 V2000
  194.5550  177.1050  146.4820 C   0  0  0  0  0  1  0  0  0  0  0  0
  192.6080  175.5830  146.3400 C   0  0  0  0  0  0  0  0  0  0  0  0
  196.1920  174.5910  145.4810 C   0  0  0  0  0  1  0  0  0  0  0  0
  192.7300  173.6250  144.8600 C   0  0  0  0  0  0  0  0  0  0  0  0
  191.9830  174.5940  145.6270 C   0  0  0  0  0  0  0  0  0  0  0  0
  190.6250  174.4540  145.8460 C   0  0  0  0  0  0  0  0  0  0  0  0
  194.7490  174.9570  145.1920 C   0  0  1  0  0  3  0  0  0  0  0  0
  194.0180  173.7580  144.7290 N   0  0  0  0  0  0  0  0  0  0  0  0
  194.1050  175.6560  146.4190 C   0  0  1  0  0  3  0  0  0  0  0  0
  190.1390  175.3890  146.7540 C   0  0  0  0  0  0  0  0  0  0  0  0
  191.4460  176.3210  147.3170 S   0  0  0  0  0  0  0  0  0  0  0  0
  190.7440  172.3260  144.5000 C   0  0  0  0  0  3  0  0  0  0  0  0
  192.0360  172.4780  144.3540 N   0  0  0  0  0  0  0  0  0  0  0  0
  189.8460  173.3460  145.1910 C   0  0  0  0  0  2  0  0  0  0  0  0
  188.7840  175.4300  147.2200 N   0  0  0  0  0  2  0  0  0  0  0  0
  186.6810  177.1450  144.6660 C   0  0  0  0  0  3  0  0  0  0  0  0
  185.5640  177.5240  145.4150 C   0  0  0  0  0  0  0  0  0  0  0  0
  187.7320  176.4510  145.2730 C   0  0  0  0  0  3  0  0  0  0  0  0
  187.6770  176.1270  146.6330 C   0  0  0  0  0  0  0  0  0  0  0  0
  185.5090  177.2150  146.7810 C   0  0  0  0  0  3  0  0  0  0  0  0
  186.5610  176.5210  147.3850 C   0  0  0  0  0  3  0  0  0  0  0  0
  184.4580  178.2800  144.7490 C   0  0  1  0  0  3  0  0  0  0  0  0
  183.7230  179.0080  145.6870 O   0  0  0  0  0  1  0  0  0  0  0  0
  184.9840  179.1870  143.6860 C   0  0  0  0  0  0  0  0  0  0  0  0
  184.8590  178.8670  142.4750 O   0  0  0  0  0  0  0  0  0  0  0  0
  185.6390  180.3650  144.0240 O   0  0  0  0  0  1  0  0  0  0  0  0
  2  9  1  0  0  0  0
  2 11  1  0  0  0  0
  4  5  1  0  0  0  0
  5  6  1  0  0  0  0
  5  2  2  0  0  0  0
  6 10  2  0  0  0  0
  7  3  1  1  0  0  0
  7  9  1  0  0  0  0
  8  4  2  0  0  0  0
  8  7  1  0  0  0  0
  9  1  1  6  0  0  0
 10 15  1  0  0  0  0
 10 11  1  0  0  0  0
 12 14  1  0  0  0  0
 13 12  2  0  0  0  0
 13  4  1  0  0  0  0
 14  6  1  0  0  0  0
 16 18  2  0  0  0  0
 16 17  1  0  0  0  0
 17 20  2  0  0  0  0
 18 19  1  0  0  0  0
 19 15  1  0  0  0  0
 19 21  2  0  0  0  0
 20 21  1  0  0  0  0
 22 17  1  0  0  0  0
 22 23  1  1  0  0  0
 24 26  1  0  0  0  0
 24 22  1  0  0  0  0
 25 24  2  0  0  0  0
M  END
>  <MODEL>
1

>  <REMARK>
 VINA RESULT:      -7.8      0.000      0.000
  Name = 
  4 active torsions:
  status: ('A' for Active; 'I' for Inactive)
    1  A    between atoms: N_4  and  C_16
    2  A    between atoms: N_4  and  C_19
    3  A    between atoms: C_10  and  C_11
    4  A    between atoms: C_11  and  C_14
                            x       y       z     vdW  Elec       q    Type
                         _______ _______ _______ _____ _____    ______ ____

>  <TORSDO>
F 4

$$$$
=
 OpenBabel11042418503D

 26 29  0  0  1  0  0  0  0  0999 V2000
  186.4490  177.4820  141.0780 C   0  0  0  0  0  1  0  0  0  0  0  0
  186.3910  177.1830  143.5340 C   0  0  0  0  0  0  0  0  0  0  0  0
  183.3920  178.2200  141.4130 C   0  0  0  0  0  1  0  0  0  0  0  0
  184.6500  178.3330  144.8350 C   0  0  0  0  0  0  0  0  0  0  0  0
  185.9260  177.6630  144.7310 C   0  0  0  0  0  0  0  0  0  0  0  0
  186.6420  177.2910  145.8530 C   0  0  0  0  0  0  0  0  0  0  0  0
  184.5280  178.4210  142.3980 C   0  0  1  0  0  3  0  0  0  0  0  0
  183.9770  178.6090  143.7570 N   0  0  0  0  0  0  0  0  0  0  0  0
  185.5580  177.2650  142.2890 C   0  0  1  0  0  3  0  0  0  0  0  0
  187.7440  176.5020  145.5360 C   0  0  0  0  0  0  0  0  0  0  0  0
  187.7450  176.2280  143.8570 S   0  0  0  0  0  0  0  0  0  0  0  0
  184.7780  178.2800  147.2310 C   0  0  0  0  0  3  0  0  0  0  0  0
  184.1150  178.5750  146.1410 N   0  0  0  0  0  0  0  0  0  0  0  0
  186.1780  177.6780  147.2310 C   0  0  0  0  0  2  0  0  0  0  0  0
  188.6210  175.9180  146.5080 N   0  0  0  0  0  2  0  0  0  0  0  0
  192.2290  176.5180  147.2180 C   0  0  0  0  0  3  0  0  0  0  0  0
  192.8520  175.6350  146.3320 C   0  0  0  0  0  0  0  0  0  0  0  0
  190.8350  176.5970  147.2690 C   0  0  0  0  0  3  0  0  0  0  0  0
  190.0470  175.7930  146.4370 C   0  0  0  0  0  0  0  0  0  0  0  0
  192.0690  174.8360  145.4860 C   0  0  0  0  0  3  0  0  0  0  0  0
  190.6750  174.9170  145.5390 C   0  0  0  0  0  3  0  0  0  0  0  0
  194.3460  175.5780  146.2830 C   0  0  1  0  0  3  0  0  0  0  0  0
  194.7800  174.3120  145.8830 O   0  0  0  0  0  1  0  0  0  0  0  0
  194.8990  176.6270  145.3750 C   0  0  0  0  0  0  0  0  0  0  0  0
  195.3280  176.3040  144.2370 O   0  0  0  0  0  0  0  0  0  0  0  0
  194.9710  177.9510  145.7890 O   0  0  0  0  0  1  0  0  0  0  0  0
  2 11  1  0  0  0  0
  2  5  2  0  0  0  0
  4 13  1  0  0  0  0
  5  4  1  0  0  0  0
  5  6  1  0  0  0  0
  6 14  1  0  0  0  0
  7  3  1  6  0  0  0
  7  8  1  0  0  0  0
  8  4  2  0  0  0  0
  9  1  1  6  0  0  0
  9  7  1  0  0  0  0
  9  2  1  0  0  0  0
 10  6  2  0  0  0  0
 10 15  1  0  0  0  0
 11 10  1  0  0  0  0
 13 12  2  0  0  0  0
 14 12  1  0  0  0  0
 16 18  1  0  0  0  0
 17 16  2  0  0  0  0
 19 15  1  0  0  0  0
 19 18  2  0  0  0  0
 20 21  2  0  0  0  0
 20 17  1  0  0  0  0
 21 19  1  0  0  0  0
 22 23  1  6  0  0  0
 22 17  1  0  0  0  0
 24 26  1  0  0  0  0
 24 22  1  0  0  0  0
 25 24  2  0  0  0  0
M  END
>  <MODEL>
2

>  <REMARK>
 VINA RESULT:      -7.8      4.279      8.444
  Name = 
  4 active torsions:
  status: ('A' for Active; 'I' for Inactive)
    1  A    between atoms: N_4  and  C_16
    2  A    between atoms: N_4  and  C_19
    3  A    between atoms: C_10  and  C_11
    4  A    between atoms: C_11  and  C_14
                            x       y       z     vdW  Elec       q    Type
                         _______ _______ _______ _____ _____    ______ ____

>  <TORSDO>
F 4

$$$$
=
 OpenBabel11042418503D

 26 29  0  0  1  0  0  0  0  0999 V2000
  186.3270  176.9560  147.6800 C   0  0  0  0  0  1  0  0  0  0  0  0
  187.7580  177.5530  145.7510 C   0  0  0  0  0  0  0  0  0  0  0  0
  184.0580  178.4410  146.0520 C   0  0  0  0  0  1  0  0  0  0  0  0
  186.7020  178.0060  143.5770 C   0  0  0  0  0  0  0  0  0  0  0  0
  187.8470  177.6620  144.3870 C   0  0  0  0  0  0  0  0  0  0  0  0
  189.1240  177.6270  143.8590 C   0  0  0  0  0  0  0  0  0  0  0  0
  185.2630  177.6860  145.5230 C   0  0  1  0  0  3  0  0  0  0  0  0
  185.5250  178.0910  144.1260 N   0  0  0  0  0  0  0  0  0  0  0  0
  186.4790  177.8640  146.4720 C   0  0  1  0  0  3  0  0  0  0  0  0
  190.0950  177.4550  144.8400 C   0  0  0  0  0  0  0  0  0  0  0  0
  189.3280  177.4290  146.3580 S   0  0  0  0  0  0  0  0  0  0  0  0
  188.1050  178.2910  141.6510 C   0  0  0  0  0  3  0  0  0  0  0  0
  186.9200  178.3530  142.2040 N   0  0  0  0  0  0  0  0  0  0  0  0
  189.3580  177.8290  142.3860 C   0  0  0  0  0  2  0  0  0  0  0  0
  191.5060  177.4530  144.5850 N   0  0  0  0  0  2  0  0  0  0  0  0
  194.0940  175.2690  146.1380 C   0  0  0  0  0  3  0  0  0  0  0  0
  194.2770  174.2900  145.1580 C   0  0  0  0  0  0  0  0  0  0  0  0
  193.1740  176.3020  145.9380 C   0  0  0  0  0  3  0  0  0  0  0  0
  192.4260  176.3680  144.7580 C   0  0  0  0  0  0  0  0  0  0  0  0
  193.5400  174.3580  143.9670 C   0  0  0  0  0  3  0  0  0  0  0  0
  192.6210  175.3920  143.7690 C   0  0  0  0  0  3  0  0  0  0  0  0
  195.2780  173.2020  145.3860 C   0  0  1  0  0  3  0  0  0  0  0  0
  195.3170  172.3300  144.2960 O   0  0  0  0  0  1  0  0  0  0  0  0
  196.6360  173.7630  145.6520 C   0  0  0  0  0  0  0  0  0  0  0  0
  197.1920  173.5530  146.7620 O   0  0  0  0  0  1  0  0  0  0  0  0
  197.2770  174.5400  144.6950 O   0  0  0  0  0  0  0  0  0  0  0  0
  2 11  1  0  0  0  0
  2  9  1  0  0  0  0
  4  8  2  0  0  0  0
  4  5  1  0  0  0  0
  5  2  2  0  0  0  0
  6  5  1  0  0  0  0
  6 10  2  0  0  0  0
  7  3  1  1  0  0  0
  7  9  1  0  0  0  0
  8  7  1  0  0  0  0
  9  1  1  1  0  0  0
 10 11  1  0  0  0  0
 12 13  2  0  0  0  0
 12 14  1  0  0  0  0
 13  4  1  0  0  0  0
 14  6  1  0  0  0  0
 15 19  1  0  0  0  0
 15 10  1  0  0  0  0
 17 22  1  0  0  0  0
 17 16  2  0  0  0  0
 18 16  1  0  0  0  0
 19 18  2  0  0  0  0
 20 17  1  0  0  0  0
 21 20  2  0  0  0  0
 21 19  1  0  0  0  0
 22 23  1  6  0  0  0
 22 24  1  0  0  0  0
 24 25  1  0  0  0  0
 26 24  2  0  0  0  0
M  END
>  <MODEL>
3

>  <REMARK>
 VINA RESULT:      -7.4      5.051      8.741
  Name = 
  4 active torsions:
  status: ('A' for Active; 'I' for Inactive)
    1  A    between atoms: N_4  and  C_16
    2  A    between atoms: N_4  and  C_19
    3  A    between atoms: C_10  and  C_11
    4  A    between atoms: C_11  and  C_14
                            x       y       z     vdW  Elec       q    Type
                         _______ _______ _______ _____ _____    ______ ____

>  <TORSDO>
F 4

$$$$
=
 OpenBabel11042418503D

 26 29  0  0  1  0  0  0  0  0999 V2000
  185.2870  178.3100  146.8200 C   0  0  0  0  0  1  0  0  0  0  0  0
  187.1810  177.2420  145.6380 C   0  0  0  0  0  0  0  0  0  0  0  0
  185.1500  180.1660  144.2630 C   0  0  0  0  0  1  0  0  0  0  0  0
  187.3280  177.4420  143.1930 C   0  0  0  0  0  0  0  0  0  0  0  0
  187.6730  176.7980  144.4390 C   0  0  0  0  0  0  0  0  0  0  0  0
  188.6680  175.8410  144.5070 C   0  0  0  0  0  0  0  0  0  0  0  0
  185.6100  178.7240  144.3620 C   0  0  1  0  0  3  0  0  0  0  0  0
  186.4290  178.3840  143.1800 N   0  0  0  0  0  0  0  0  0  0  0  0
  186.3200  178.4680  145.7190 C   0  0  1  0  0  3  0  0  0  0  0  0
  188.9650  175.4850  145.8190 C   0  0  0  0  0  0  0  0  0  0  0  0
  188.0210  176.4400  146.8630 S   0  0  0  0  0  0  0  0  0  0  0  0
  188.9910  176.1630  142.0290 C   0  0  0  0  0  3  0  0  0  0  0  0
  188.0710  177.0940  142.0190 N   0  0  0  0  0  0  0  0  0  0  0  0
  189.3510  175.3440  143.2620 C   0  0  0  0  0  2  0  0  0  0  0  0
  190.0040  174.5680  146.1880 N   0  0  0  0  0  2  0  0  0  0  0  0
  193.5350  173.9320  145.1860 C   0  0  0  0  0  3  0  0  0  0  0  0
  194.2040  175.0100  145.7720 C   0  0  0  0  0  0  0  0  0  0  0  0
  192.1510  173.8020  145.3270 C   0  0  0  0  0  3  0  0  0  0  0  0
  191.4200  174.7480  146.0530 C   0  0  0  0  0  0  0  0  0  0  0  0
  193.4790  175.9550  146.5130 C   0  0  0  0  0  3  0  0  0  0  0  0
  192.0950  175.8220  146.6520 C   0  0  0  0  0  3  0  0  0  0  0  0
  195.6890  175.1210  145.6220 C   0  0  1  0  0  3  0  0  0  0  0  0
  196.3230  173.9880  146.1370 O   0  0  0  0  0  1  0  0  0  0  0  0
  196.0750  175.3290  144.1950 C   0  0  0  0  0  0  0  0  0  0  0  0
  196.8760  174.5310  143.6420 O   0  0  0  0  0  1  0  0  0  0  0  0
  195.5820  176.4150  143.4820 O   0  0  0  0  0  0  0  0  0  0  0  0
  2  9  1  0  0  0  0
  2 11  1  0  0  0  0
  4  5  1  0  0  0  0
  5  6  1  0  0  0  0
  5  2  2  0  0  0  0
  6 10  2  0  0  0  0
  7  3  1  6  0  0  0
  7  9  1  0  0  0  0
  8  4  2  0  0  0  0
  8  7  1  0  0  0  0
  9  1  1  1  0  0  0
 10 15  1  0  0  0  0
 10 11  1  0  0  0  0
 12 14  1  0  0  0  0
 13 12  2  0  0  0  0
 13  4  1  0  0  0  0
 14  6  1  0  0  0  0
 16 18  2  0  0  0  0
 16 17  1  0  0  0  0
 17 20  2  0  0  0  0
 18 19  1  0  0  0  0
 19 15  1  0  0  0  0
 19 21  2  0  0  0  0
 20 21  1  0  0  0  0
 22 17  1  0  0  0  0
 22 23  1  6  0  0  0
 24 22  1  0  0  0  0
 25 24  1  0  0  0  0
 26 24  2  0  0  0  0
M  END
>  <MODEL>
4

>  <REMARK>
 VINA RESULT:      -7.2      4.603      8.112
  Name = 
  4 active torsions:
  status: ('A' for Active; 'I' for Inactive)
    1  A    between atoms: N_4  and  C_16
    2  A    between atoms: N_4  and  C_19
    3  A    between atoms: C_10  and  C_11
    4  A    between atoms: C_11  and  C_14
                            x       y       z     vdW  Elec       q    Type
                         _______ _______ _______ _____ _____    ______ ____

>  <TORSDO>
F 4

$$$$
=
 OpenBabel11042418503D

 26 29  0  0  1  0  0  0  0  0999 V2000
  193.9510  174.6580  141.1010 C   0  0  0  0  0  1  0  0  0  0  0  0
  192.9980  175.3610  143.2750 C   0  0  0  0  0  0  0  0  0  0  0  0
  196.1980  176.7850  141.7590 C   0  0  0  0  0  1  0  0  0  0  0  0
  194.4750  176.3880  144.9500 C   0  0  0  0  0  0  0  0  0  0  0  0
  193.2570  175.7090  144.5750 C   0  0  0  0  0  0  0  0  0  0  0  0
  192.2080  175.5600  145.4640 C   0  0  0  0  0  0  0  0  0  0  0  0
  195.3720  175.9520  142.7210 C   0  0  1  0  0  3  0  0  0  0  0  0
  195.4140  176.5640  144.0660 N   0  0  0  0  0  0  0  0  0  0  0  0
  193.9370  175.7390  142.1680 C   0  0  1  0  0  3  0  0  0  0  0  0
  191.0700  175.0440  144.8520 C   0  0  0  0  0  0  0  0  0  0  0  0
  191.3880  174.8610  143.1910 S   0  0  0  0  0  0  0  0  0  0  0  0
  193.6150  176.7920  147.1530 C   0  0  0  0  0  3  0  0  0  0  0  0
  194.5650  176.9470  146.2660 N   0  0  0  0  0  0  0  0  0  0  0  0
  192.3410  175.9950  146.8980 C   0  0  0  0  0  2  0  0  0  0  0  0
  189.8150  174.8530  145.5180 N   0  0  0  0  0  2  0  0  0  0  0  0
  187.1190  177.0290  146.8890 C   0  0  0  0  0  3  0  0  0  0  0  0
  186.4940  177.4880  145.7260 C   0  0  0  0  0  0  0  0  0  0  0  0
  188.2140  176.1660  146.8050 C   0  0  0  0  0  3  0  0  0  0  0  0
  188.7000  175.7530  145.5590 C   0  0  0  0  0  0  0  0  0  0  0  0
  186.9670  177.0680  144.4740 C   0  0  0  0  0  3  0  0  0  0  0  0
  188.0630  176.2040  144.3940 C   0  0  0  0  0  3  0  0  0  0  0  0
  185.3130  178.3990  145.8390 C   0  0  1  0  0  3  0  0  0  0  0  0
  185.5220  179.3580  146.8320 O   0  0  0  0  0  1  0  0  0  0  0  0
  185.0110  179.0600  144.5340 C   0  0  0  0  0  0  0  0  0  0  0  0
  185.5660  180.1510  144.2440 O   0  0  0  0  0  1  0  0  0  0  0  0
  184.0970  178.4940  143.6530 O   0  0  0  0  0  0  0  0  0  0  0  0
  2  5  2  0  0  0  0
  4 13  1  0  0  0  0
  5  4  1  0  0  0  0
  5  6  1  0  0  0  0
  6 14  1  0  0  0  0
  7  3  1  6  0  0  0
  7  8  1  0  0  0  0
  8  4  2  0  0  0  0
  9  1  1  6  0  0  0
  9  7  1  0  0  0  0
  9  2  1  0  0  0  0
 10  6  2  0  0  0  0
 10 15  1  0  0  0  0
 11  2  1  0  0  0  0
 11 10  1  0  0  0  0
 13 12  2  0  0  0  0
 14 12  1  0  0  0  0
 15 19  1  0  0  0  0
 17 22  1  0  0  0  0
 17 16  2  0  0  0  0
 18 16  1  0  0  0  0
 19 18  2  0  0  0  0
 20 17  1  0  0  0  0
 21 20  2  0  0  0  0
 21 19  1  0  0  0  0
 22 23  1  1  0  0  0
 24 22  1  0  0  0  0
 25 24  1  0  0  0  0
 26 24  2  0  0  0  0
M  END
>  <MODEL>
5

>  <REMARK>
 VINA RESULT:      -7.1      2.211      3.258
  Name = 
  4 active torsions:
  status: ('A' for Active; 'I' for Inactive)
    1  A    between atoms: N_4  and  C_16
    2  A    between atoms: N_4  and  C_19
    3  A    between atoms: C_10  and  C_11
    4  A    between atoms: C_11  and  C_14
                            x       y       z     vdW  Elec       q    Type
                         _______ _______ _______ _____ _____    ______ ____

>  <TORSDO>
F 4

$$$$
=
 OpenBabel11042418503D

 26 29  0  0  1  0  0  0  0  0999 V2000
  185.7890  179.6060  143.8940 C   0  0  0  0  0  1  0  0  0  0  0  0
  187.2730  177.6850  144.3810 C   0  0  0  0  0  0  0  0  0  0  0  0
  184.0660  178.4770  146.2940 C   0  0  0  0  0  1  0  0  0  0  0  0
  187.2220  176.6760  146.6230 C   0  0  0  0  0  0  0  0  0  0  0  0
  187.8630  176.9170  145.3510 C   0  0  0  0  0  0  0  0  0  0  0  0
  188.9980  176.2250  144.9700 C   0  0  0  0  0  0  0  0  0  0  0  0
  185.5650  178.3860  146.0800 C   0  0  1  0  0  3  0  0  0  0  0  0
  186.1190  177.3020  146.9180 N   0  0  0  0  0  0  0  0  0  0  0  0
  185.8960  178.2490  144.5690 C   0  0  1  0  0  3  0  0  0  0  0  0
  189.3450  176.4730  143.6460 C   0  0  0  0  0  0  0  0  0  0  0  0
  188.1700  177.4980  142.9640 S   0  0  0  0  0  0  0  0  0  0  0  0
  188.8650  175.0180  147.1780 C   0  0  0  0  0  3  0  0  0  0  0  0
  187.7680  175.6660  147.4790 N   0  0  0  0  0  0  0  0  0  0  0  0
  189.6810  175.2770  145.9170 C   0  0  0  0  0  2  0  0  0  0  0  0
  190.4350  175.8350  142.9660 N   0  0  0  0  0  2  0  0  0  0  0  0
  193.6880  176.7890  144.5100 C   0  0  0  0  0  3  0  0  0  0  0  0
  194.4840  175.6760  144.2260 C   0  0  0  0  0  0  0  0  0  0  0  0
  192.3550  176.8260  144.0940 C   0  0  0  0  0  3  0  0  0  0  0  0
  191.8010  175.7500  143.3910 C   0  0  0  0  0  0  0  0  0  0  0  0
  193.9390  174.6000  143.5100 C   0  0  0  0  0  3  0  0  0  0  0  0
  192.6060  174.6400  143.0940 C   0  0  0  0  0  3  0  0  0  0  0  0
  195.9130  175.6640  144.6680 C   0  0  1  0  0  3  0  0  0  0  0  0
  196.2150  174.4750  145.3350 O   0  0  0  0  0  1  0  0  0  0  0  0
  196.8390  175.8610  143.5130 C   0  0  0  0  0  0  0  0  0  0  0  0
  196.6250  176.7910  142.6930 O   0  0  0  0  0  0  0  0  0  0  0  0
  197.9170  175.0060  143.3210 O   0  0  0  0  0  1  0  0  0  0  0  0
  2  9  1  0  0  0  0
  2  5  2  0  0  0  0
  4  8  2  0  0  0  0
  4 13  1  0  0  0  0
  5  4  1  0  0  0  0
  6  5  1  0  0  0  0
  6 14  1  0  0  0  0
  7  3  1  6  0  0  0
  7  8  1  0  0  0  0
  9  1  1  6  0  0  0
  9  7  1  0  0  0  0
 10  6  2  0  0  0  0
 11 10  1  0  0  0  0
 11  2  1  0  0  0  0
 12 13  2  0  0  0  0
 14 12  1  0  0  0  0
 15 19  1  0  0  0  0
 15 10  1  0  0  0  0
 17 16  1  0  0  0  0
 17 22  1  0  0  0  0
 18 16  2  0  0  0  0
 19 18  1  0  0  0  0
 20 17  2  0  0  0  0
 21 19  2  0  0  0  0
 21 20  1  0  0  0  0
 22 23  1  6  0  0  0
 24 22  1  0  0  0  0
 25 24  2  0  0  0  0
 26 24  1  0  0  0  0
M  END
>  <MODEL>
6

>  <REMARK>
 VINA RESULT:      -7.0      4.716      8.457
  Name = 
  4 active torsions:
  status: ('A' for Active; 'I' for Inactive)
    1  A    between atoms: N_4  and  C_16
    2  A    between atoms: N_4  and  C_19
    3  A    between atoms: C_10  and  C_11
    4  A    between atoms: C_11  and  C_14
                            x       y       z     vdW  Elec       q    Type
                         _______ _______ _______ _____ _____    ______ ____

>  <TORSDO>
F 4

$$$$
=
 OpenBabel11042418503D

 26 29  0  0  1  0  0  0  0  0999 V2000
  192.1650  170.8850  143.8780 C   0  0  0  0  0  1  0  0  0  0  0  0
  192.2510  173.1890  144.7780 C   0  0  0  0  0  0  0  0  0  0  0  0
  195.2070  171.3880  143.1710 C   0  0  0  0  0  1  0  0  0  0  0  0
  194.4220  174.1300  145.4450 C   0  0  0  0  0  0  0  0  0  0  0  0
  192.9780  174.1120  145.4840 C   0  0  0  0  0  0  0  0  0  0  0  0
  192.2560  175.1390  146.0640 C   0  0  0  0  0  0  0  0  0  0  0  0
  194.3920  171.9680  144.3110 C   0  0  1  0  0  3  0  0  0  0  0  0
  195.0630  173.1760  144.8340 N   0  0  0  0  0  0  0  0  0  0  0  0
  192.9220  172.2020  143.8690 C   0  0  1  0  0  3  0  0  0  0  0  0
  190.8900  175.0160  145.8340 C   0  0  0  0  0  0  0  0  0  0  0  0
  190.6310  173.6590  144.8410 S   0  0  0  0  0  0  0  0  0  0  0  0
  194.4620  176.2400  146.5880 C   0  0  0  0  0  3  0  0  0  0  0  0
  195.1020  175.2660  145.9910 N   0  0  0  0  0  0  0  0  0  0  0  0
  192.9510  176.2610  146.7850 C   0  0  0  0  0  2  0  0  0  0  0  0
  189.9130  175.9760  146.2580 N   0  0  0  0  0  2  0  0  0  0  0  0
  188.1660  177.7410  143.4800 C   0  0  0  0  0  3  0  0  0  0  0  0
  186.8370  177.7250  143.9130 C   0  0  0  0  0  0  0  0  0  0  0  0
  189.1680  177.1570  144.2600 C   0  0  0  0  0  3  0  0  0  0  0  0
  188.8530  176.5480  145.4800 C   0  0  0  0  0  0  0  0  0  0  0  0
  186.5170  177.1290  145.1420 C   0  0  0  0  0  3  0  0  0  0  0  0
  187.5210  176.5450  145.9200 C   0  0  0  0  0  3  0  0  0  0  0  0
  185.7840  178.3700  143.0700 C   0  0  1  0  0  3  0  0  0  0  0  0
  184.9470  177.4070  142.5020 O   0  0  0  0  0  1  0  0  0  0  0  0
  184.9830  179.3520  143.8610 C   0  0  0  0  0  0  0  0  0  0  0  0
  185.4930  180.4570  144.1840 O   0  0  0  0  0  0  0  0  0  0  0  0
  183.6910  179.0430  144.2680 O   0  0  0  0  0  1  0  0  0  0  0  0
  2 11  1  0  0  0  0
  2  5  2  0  0  0  0
  4  5  1  0  0  0  0
  4 13  1  0  0  0  0
  5  6  1  0  0  0  0
  6 14  1  0  0  0  0
  7  3  1  6  0  0  0
  7  8  1  0  0  0  0
  8  4  2  0  0  0  0
  9  1  1  1  0  0  0
  9  7  1  0  0  0  0
  9  2  1  0  0  0  0
 10  6  2  0  0  0  0
 10 15  1  0  0  0  0
 11 10  1  0  0  0  0
 12 14  1  0  0  0  0
 13 12  2  0  0  0  0
 16 17  2  0  0  0  0
 16 18  1  0  0  0  0
 17 20  1  0  0  0  0
 18 19  2  0  0  0  0
 19 21  1  0  0  0  0
 19 15  1  0  0  0  0
 20 21  2  0  0  0  0
 22 23  1  1  0  0  0
 22 24  1  0  0  0  0
 22 17  1  0  0  0  0
 24 25  2  0  0  0  0
 24 26  1  0  0  0  0
M  END
>  <MODEL>
7

>  <REMARK>
 VINA RESULT:      -6.7      1.649      3.153
  Name = 
  4 active torsions:
  status: ('A' for Active; 'I' for Inactive)
    1  A    between atoms: N_4  and  C_16
    2  A    between atoms: N_4  and  C_19
    3  A    between atoms: C_10  and  C_11
    4  A    between atoms: C_11  and  C_14
                            x       y       z     vdW  Elec       q    Type
                         _______ _______ _______ _____ _____    ______ ____

>  <TORSDO>
F 4

$$$$
=
 OpenBabel11042418503D

 26 29  0  0  1  0  0  0  0  0999 V2000
  185.9000  178.8140  144.8530 C   0  0  0  0  0  1  0  0  0  0  0  0
  187.7730  177.2300  144.5260 C   0  0  0  0  0  0  0  0  0  0  0  0
  185.3400  178.2920  141.7840 C   0  0  0  0  0  1  0  0  0  0  0  0
  187.6700  175.6270  142.6650 C   0  0  0  0  0  0  0  0  0  0  0  0
  188.1930  176.0660  143.9380 C   0  0  0  0  0  0  0  0  0  0  0  0
  189.2810  175.4470  144.5260 C   0  0  0  0  0  0  0  0  0  0  0  0
  185.9490  177.3540  142.8080 C   0  0  1  0  0  3  0  0  0  0  0  0
  186.6850  176.2750  142.1140 N   0  0  0  0  0  0  0  0  0  0  0  0
  186.8050  178.1440  143.8340 C   0  0  1  0  0  3  0  0  0  0  0  0
  189.7330  176.1340  145.6480 C   0  0  0  0  0  0  0  0  0  0  0  0
  188.8000  177.5440  145.8280 S   0  0  0  0  0  0  0  0  0  0  0  0
  189.3380  173.9070  142.5320 C   0  0  0  0  0  3  0  0  0  0  0  0
  188.3320  174.5490  141.9930 N   0  0  0  0  0  0  0  0  0  0  0  0
  189.8920  174.2140  143.9180 C   0  0  0  0  0  2  0  0  0  0  0  0
  190.8890  175.7580  146.4100 N   0  0  0  0  0  2  0  0  0  0  0  0
  194.2750  174.3660  145.7180 C   0  0  0  0  0  3  0  0  0  0  0  0
  194.9250  175.4570  145.1340 C   0  0  0  0  0  0  0  0  0  0  0  0
  192.9440  174.4780  146.1290 C   0  0  0  0  0  3  0  0  0  0  0  0
  192.2470  175.6800  145.9590 C   0  0  0  0  0  0  0  0  0  0  0  0
  194.2370  176.6680  144.9740 C   0  0  0  0  0  3  0  0  0  0  0  0
  192.9060  176.7780  145.3860 C   0  0  0  0  0  3  0  0  0  0  0  0
  196.3550  175.3200  144.7170 C   0  0  1  0  0  3  0  0  0  0  0  0
  196.7750  173.9920  144.8230 O   0  0  0  0  0  1  0  0  0  0  0  0
  196.5650  175.8210  143.3260 C   0  0  0  0  0  0  0  0  0  0  0  0
  197.1990  176.8920  143.1380 O   0  0  0  0  0  1  0  0  0  0  0  0
  196.0380  175.1310  142.2410 O   0  0  0  0  0  0  0  0  0  0  0  0
  2 11  1  0  0  0  0
  4  5  1  0  0  0  0
  5  6  1  0  0  0  0
  5  2  2  0  0  0  0
  6 10  2  0  0  0  0
  7  3  1  6  0  0  0
  7  9  1  0  0  0  0
  8  4  2  0  0  0  0
  8  7  1  0  0  0  0
  9  2  1  0  0  0  0
  9  1  1  1  0  0  0
 10 11  1  0  0  0  0
 10 15  1  0  0  0  0
 12 14  1  0  0  0  0
 13 12  2  0  0  0  0
 13  4  1  0  0  0  0
 14  6  1  0  0  0  0
 16 18  1  0  0  0  0
 17 16  2  0  0  0  0
 19 18  2  0  0  0  0
 19 15  1  0  0  0  0
 20 17  1  0  0  0  0
 20 21  2  0  0  0  0
 21 19  1  0  0  0  0
 22 23  1  6  0  0  0
 22 17  1  0  0  0  0
 24 22  1  0  0  0  0
 25 24  1  0  0  0  0
 26 24  2  0  0  0  0
M  END
>  <MODEL>
8

>  <REMARK>
 VINA RESULT:      -6.7      4.703      8.112
  Name = 
  4 active torsions:
  status: ('A' for Active; 'I' for Inactive)
    1  A    between atoms: N_4  and  C_16
    2  A    between atoms: N_4  and  C_19
    3  A    between atoms: C_10  and  C_11
    4  A    between atoms: C_11  and  C_14
                            x       y       z     vdW  Elec       q    Type
                         _______ _______ _______ _____ _____    ______ ____

>  <TORSDO>
F 4

$$$$
=
 OpenBabel11042418503D

 26 29  0  0  1  0  0  0  0  0999 V2000
  193.6660  171.3270  143.0500 C   0  0  0  0  0  1  0  0  0  0  0  0
  192.9700  173.3440  144.3060 C   0  0  0  0  0  0  0  0  0  0  0  0
  196.2300  173.0390  142.3450 C   0  0  0  0  0  1  0  0  0  0  0  0
  194.6870  174.9370  145.0510 C   0  0  0  0  0  0  0  0  0  0  0  0
  193.3620  174.3670  145.1290 C   0  0  0  0  0  0  0  0  0  0  0  0
  192.3650  174.9530  145.8860 C   0  0  0  0  0  0  0  0  0  0  0  0
  195.3610  173.1030  143.5870 C   0  0  1  0  0  3  0  0  0  0  0  0
  195.5800  174.3920  144.2770 N   0  0  0  0  0  0  0  0  0  0  0  0
  193.8760  172.8210  143.2310 C   0  0  1  0  0  3  0  0  0  0  0  0
  191.1270  174.3540  145.6800 C   0  0  0  0  0  0  0  0  0  0  0  0
  191.3030  173.1500  144.4900 S   0  0  0  0  0  0  0  0  0  0  0  0
  194.0420  176.7250  146.5160 C   0  0  0  0  0  3  0  0  0  0  0  0
  194.9430  176.1600  145.7520 N   0  0  0  0  0  0  0  0  0  0  0  0
  192.6540  176.1450  146.7580 C   0  0  0  0  0  2  0  0  0  0  0  0
  189.9040  174.8030  146.2800 N   0  0  0  0  0  2  0  0  0  0  0  0
  187.1320  177.2900  146.2280 C   0  0  0  0  0  3  0  0  0  0  0  0
  187.2130  177.7920  144.9260 C   0  0  0  0  0  0  0  0  0  0  0  0
  188.0280  176.3100  146.6620 C   0  0  0  0  0  3  0  0  0  0  0  0
  189.0170  175.8210  145.8010 C   0  0  0  0  0  0  0  0  0  0  0  0
  188.1930  177.2970  144.0540 C   0  0  0  0  0  3  0  0  0  0  0  0
  189.0880  176.3160  144.4910 C   0  0  0  0  0  3  0  0  0  0  0  0
  186.2340  178.8300  144.4780 C   0  0  1  0  0  3  0  0  0  0  0  0
  186.5550  179.2930  143.2000 O   0  0  0  0  0  1  0  0  0  0  0  0
  184.8370  178.3030  144.5030 C   0  0  0  0  0  0  0  0  0  0  0  0
  184.4390  177.5450  143.5800 O   0  0  0  0  0  0  0  0  0  0  0  0
  183.9640  178.6690  145.5200 O   0  0  0  0  0  1  0  0  0  0  0  0
  2 11  1  0  0  0  0
  2  5  2  0  0  0  0
  4  5  1  0  0  0  0
  4 13  1  0  0  0  0
  5  6  1  0  0  0  0
  6 14  1  0  0  0  0
  7  3  1  6  0  0  0
  7  8  1  0  0  0  0
  8  4  2  0  0  0  0
  9  1  1  1  0  0  0
  9  7  1  0  0  0  0
  9  2  1  0  0  0  0
 10  6  2  0  0  0  0
 10 15  1  0  0  0  0
 11 10  1  0  0  0  0
 12 14  1  0  0  0  0
 13 12  2  0  0  0  0
 16 18  1  0  0  0  0
 17 16  2  0  0  0  0
 19 15  1  0  0  0  0
 19 18  2  0  0  0  0
 20 21  2  0  0  0  0
 20 17  1  0  0  0  0
 21 19  1  0  0  0  0
 22 23  1  6  0  0  0
 22 24  1  0  0  0  0
 22 17  1  0  0  0  0
 24 26  1  0  0  0  0
 25 24  2  0  0  0  0
M  END
>  <MODEL>
9

>  <REMARK>
 VINA RESULT:      -6.6      1.813      3.262
  Name = 
  4 active torsions:
  status: ('A' for Active; 'I' for Inactive)
    1  A    between atoms: N_4  and  C_16
    2  A    between atoms: N_4  and  C_19
    3  A    between atoms: C_10  and  C_11
    4  A    between atoms: C_11  and  C_14
                            x       y       z     vdW  Elec       q    Type
                         _______ _______ _______ _____ _____    ______ ____

>  <TORSDO>
F 4

$$$$
