=
 OpenBabel11042414473D

 28 31  0  0  1  0  0  0  0  0999 V2000
  188.3240  176.6960  144.4550 C   0  0  1  0  0  0  0  0  0  0  0  0
  188.7260  178.0240  144.2780 O   0  0  0  0  0  1  0  0  0  0  0  0
  190.7160  176.4530  145.1340 N   0  0  0  0  0  0  0  0  0  0  0  0
  189.5610  175.8470  144.7360 C   0  0  0  0  0  0  0  0  0  0  0  0
  193.0160  176.4150  145.7650 C   0  0  0  0  0  3  0  0  0  0  0  0
  191.8820  174.3560  145.1580 C   0  0  0  0  0  0  0  0  0  0  0  0
  194.1890  174.3320  145.7910 N   0  0  0  0  0  0  0  0  0  0  0  0
  194.1830  175.6790  145.9830 C   0  0  0  0  0  3  0  0  0  0  0  0
  189.5530  174.4600  144.5190 C   0  0  0  0  0  3  0  0  0  0  0  0
  191.8590  175.7520  145.3520 C   0  0  0  0  0  0  0  0  0  0  0  0
  190.6620  172.2360  144.5020 C   0  0  0  0  0  1  0  0  0  0  0  0
  190.7090  173.7090  144.7350 C   0  0  0  0  0  0  0  0  0  0  0  0
  193.0760  173.6610  145.3880 C   0  0  0  0  0  3  0  0  0  0  0  0
  184.2490  178.2880  146.2910 C   0  0  0  0  0  1  0  0  0  0  0  0
  185.7440  178.1930  146.0310 C   0  0  2  0  0  3  0  0  0  0  0  0
  187.8130  177.4870  146.8310 C   0  0  0  0  0  2  0  0  0  0  0  0
  186.0450  177.0520  145.2680 O   0  0  0  0  0  0  0  0  0  0  0  0
  186.5700  178.1670  147.3000 C   0  0  2  0  0  3  0  0  0  0  0  0
  187.3440  176.6470  145.6490 C   0  0  1  0  0  3  0  0  0  0  0  0
  185.9630  177.3710  148.2780 O   0  0  0  0  0  1  0  0  0  0  0  0
  187.5510  176.2800  143.1730 C   0  0  2  0  0  3  0  0  0  0  0  0
  187.9040  175.5800  140.9240 O   0  0  0  0  0  1  0  0  0  0  0  0
  188.3140  176.5130  141.8800 C   0  0  1  0  0  3  0  0  0  0  0  0
  187.1710  177.4510  142.2800 C   0  0  1  0  0  3  0  0  0  0  0  0
  185.9810  177.1490  141.5910 O   0  0  0  0  0  0  0  0  0  0  0  0
  184.6510  178.5820  140.3220 O   0  0  0  0  0  1  0  0  0  0  0  0
  185.1510  178.2920  141.5970 C   0  0  1  0  0  3  0  0  0  0  0  0
  184.0260  178.1940  142.6190 C   0  0  0  0  0  1  0  0  0  0  0  0
  1  2  1  6  0  0  0
  1  4  1  0  0  0  0
  3 10  1  0  0  0  0
  4  3  2  0  0  0  0
  5  8  1  0  0  0  0
  6 10  1  0  0  0  0
  6 13  2  0  0  0  0
  7  8  2  0  0  0  0
  9 12  2  0  0  0  0
  9  4  1  0  0  0  0
 10  5  2  0  0  0  0
 11 12  1  0  0  0  0
 12  6  1  0  0  0  0
 13  7  1  0  0  0  0
 15 14  1  1  0  0  0
 15 18  1  0  0  0  0
 16 18  1  0  0  0  0
 17 19  1  0  0  0  0
 17 15  1  0  0  0  0
 18 20  1  1  0  0  0
 19  1  1  6  0  0  0
 19 16  1  0  0  0  0
 21  1  1  1  0  0  0
 23 22  1  6  0  0  0
 23 24  1  0  0  0  0
 23 21  1  0  0  0  0
 24 25  1  6  0  0  0
 24 21  1  0  0  0  0
 25 27  1  0  0  0  0
 26 27  1  0  0  0  0
 27 28  1  1  0  0  0
M  END
>  <MODEL>
1

>  <REMARK>
 VINA RESULT:      -7.3      0.000      0.000
  Name = 
  5 active torsions:
  status: ('A' for Active; 'I' for Inactive)
    1  A    between atoms: C_2  and  C_8
    2  A    between atoms: C_5  and  O_12
    3  A    between atoms: C_6  and  C_8
    4  A    between atoms: C_8  and  C_22
    5  A    between atoms: O_12  and  C_18
                            x       y       z     vdW  Elec       q    Type
                         _______ _______ _______ _____ _____    ______ ____

>  <TORSDO>
F 5

$$$$
=
 OpenBabel11042414473D

 28 31  0  0  1  0  0  0  0  0999 V2000
  190.2180  176.9610  143.7410 C   0  0  1  0  0  0  0  0  0  0  0  0
  190.5740  177.6180  142.5580 O   0  0  0  0  0  1  0  0  0  0  0  0
  188.4830  177.3940  145.4870 N   0  0  0  0  0  0  0  0  0  0  0  0
  188.8370  177.4510  144.1710 C   0  0  0  0  0  0  0  0  0  0  0  0
  186.9350  177.7010  147.2750 C   0  0  0  0  0  3  0  0  0  0  0  0
  186.2880  178.2300  144.9960 C   0  0  0  0  0  0  0  0  0  0  0  0
  184.7450  178.5330  146.8000 N   0  0  0  0  0  0  0  0  0  0  0  0
  185.6640  178.0920  147.7010 C   0  0  0  0  0  3  0  0  0  0  0  0
  187.8970  177.8890  143.2240 C   0  0  0  0  0  3  0  0  0  0  0  0
  187.2510  177.7710  145.9180 C   0  0  0  0  0  0  0  0  0  0  0  0
  185.6510  178.7530  142.6020 C   0  0  0  0  0  1  0  0  0  0  0  0
  186.6230  178.2860  143.6330 C   0  0  0  0  0  0  0  0  0  0  0  0
  185.0260  178.6100  145.4710 C   0  0  0  0  0  3  0  0  0  0  0  0
  190.0030  173.5590  140.4430 C   0  0  0  0  0  1  0  0  0  0  0  0
  189.5220  174.5320  141.5060 C   0  0  2  0  0  3  0  0  0  0  0  0
  188.8310  174.8150  143.7110 C   0  0  0  0  0  2  0  0  0  0  0  0
  190.6100  175.1570  142.1380 O   0  0  0  0  0  0  0  0  0  0  0  0
  188.6480  173.8830  142.5600 C   0  0  2  0  0  3  0  0  0  0  0  0
  190.1970  175.4420  143.4590 C   0  0  1  0  0  3  0  0  0  0  0  0
  189.1450  172.6250  142.9170 O   0  0  0  0  0  1  0  0  0  0  0  0
  191.3400  177.2490  144.7760 C   0  0  2  0  0  3  0  0  0  0  0  0
  193.7110  177.2710  145.0030 O   0  0  0  0  0  1  0  0  0  0  0  0
  192.6450  176.5190  144.5040 C   0  0  1  0  0  3  0  0  0  0  0  0
  191.7150  176.0450  145.6250 C   0  0  1  0  0  3  0  0  0  0  0  0
  192.1550  176.4790  146.8900 O   0  0  0  0  0  0  0  0  0  0  0  0
  190.3990  177.4000  148.1140 O   0  0  0  0  0  1  0  0  0  0  0  0
  191.1310  176.2410  147.8330 C   0  0  1  0  0  3  0  0  0  0  0  0
  190.2120  175.0970  147.4230 C   0  0  0  0  0  1  0  0  0  0  0  0
  1  2  1  6  0  0  0
  1  4  1  0  0  0  0
  3 10  1  0  0  0  0
  4  3  2  0  0  0  0
  5  8  1  0  0  0  0
  6 13  2  0  0  0  0
  6 10  1  0  0  0  0
  7  8  2  0  0  0  0
  9 12  2  0  0  0  0
  9  4  1  0  0  0  0
 10  5  2  0  0  0  0
 11 12  1  0  0  0  0
 12  6  1  0  0  0  0
 13  7  1  0  0  0  0
 15 14  1  6  0  0  0
 15 17  1  0  0  0  0
 15 18  1  0  0  0  0
 17 19  1  0  0  0  0
 18 20  1  1  0  0  0
 18 16  1  0  0  0  0
 19 16  1  0  0  0  0
 19  1  1  6  0  0  0
 21  1  1  6  0  0  0
 21 24  1  0  0  0  0
 23 21  1  0  0  0  0
 23 22  1  1  0  0  0
 23 24  1  0  0  0  0
 24 25  1  1  0  0  0
 25 27  1  0  0  0  0
 27 28  1  6  0  0  0
 27 26  1  0  0  0  0
M  END
>  <MODEL>
2

>  <REMARK>
 VINA RESULT:      -7.1      2.861      6.790
  Name = 
  5 active torsions:
  status: ('A' for Active; 'I' for Inactive)
    1  A    between atoms: C_2  and  C_8
    2  A    between atoms: C_5  and  O_12
    3  A    between atoms: C_6  and  C_8
    4  A    between atoms: C_8  and  C_22
    5  A    between atoms: O_12  and  C_18
                            x       y       z     vdW  Elec       q    Type
                         _______ _______ _______ _____ _____    ______ ____

>  <TORSDO>
F 5

$$$$
=
 OpenBabel11042414473D

 28 31  0  0  1  0  0  0  0  0999 V2000
  188.3130  176.8210  144.5170 C   0  0  1  0  0  0  0  0  0  0  0  0
  188.6490  178.1730  144.3850 O   0  0  0  0  0  1  0  0  0  0  0  0
  189.6580  174.7240  144.3160 N   0  0  0  0  0  0  0  0  0  0  0  0
  189.5960  176.0210  144.7330 C   0  0  0  0  0  0  0  0  0  0  0  0
  190.7770  172.6320  144.0730 C   0  0  0  0  0  3  0  0  0  0  0  0
  191.8750  174.4810  145.2010 C   0  0  0  0  0  0  0  0  0  0  0  0
  192.9860  172.3760  144.9520 N   0  0  0  0  0  0  0  0  0  0  0  0
  191.9130  171.8520  144.2980 C   0  0  0  0  0  3  0  0  0  0  0  0
  190.6870  176.5740  145.4230 C   0  0  0  0  0  3  0  0  0  0  0  0
  190.7560  173.9520  144.5250 C   0  0  0  0  0  0  0  0  0  0  0  0
  192.9750  176.4310  146.3830 C   0  0  0  0  0  1  0  0  0  0  0  0
  191.8320  175.8090  145.6530 C   0  0  0  0  0  0  0  0  0  0  0  0
  192.9920  173.6590  145.4030 C   0  0  0  0  0  3  0  0  0  0  0  0
  184.1490  178.0220  146.4460 C   0  0  0  0  0  1  0  0  0  0  0  0
  185.6390  178.0670  146.1540 C   0  0  2  0  0  3  0  0  0  0  0  0
  187.7820  177.5560  146.9070 C   0  0  0  0  0  2  0  0  0  0  0  0
  186.0290  176.9610  145.3800 O   0  0  0  0  0  0  0  0  0  0  0  0
  186.4920  178.1160  147.4050 C   0  0  2  0  0  3  0  0  0  0  0  0
  187.3680  176.6780  145.7320 C   0  0  1  0  0  3  0  0  0  0  0  0
  185.9830  177.2650  148.3920 O   0  0  0  0  0  1  0  0  0  0  0  0
  187.5270  176.4200  143.2380 C   0  0  2  0  0  3  0  0  0  0  0  0
  187.8460  175.9100  140.9340 O   0  0  0  0  0  1  0  0  0  0  0  0
  188.2090  176.8120  141.9370 C   0  0  1  0  0  3  0  0  0  0  0  0
  187.0020  177.6070  142.4450 C   0  0  1  0  0  3  0  0  0  0  0  0
  185.8160  177.2400  141.7810 O   0  0  0  0  0  0  0  0  0  0  0  0
  184.4640  178.5810  140.4370 O   0  0  0  0  0  1  0  0  0  0  0  0
  184.9600  178.3620  141.7270 C   0  0  1  0  0  3  0  0  0  0  0  0
  183.8290  178.2850  142.7440 C   0  0  0  0  0  1  0  0  0  0  0  0
  1  2  1  6  0  0  0
  1  4  1  0  0  0  0
  3 10  2  0  0  0  0
  3  4  1  0  0  0  0
  4  9  2  0  0  0  0
  5  8  2  0  0  0  0
  5 10  1  0  0  0  0
  6 13  1  0  0  0  0
  6 12  2  0  0  0  0
  7 13  2  0  0  0  0
  8  7  1  0  0  0  0
  9 12  1  0  0  0  0
 10  6  1  0  0  0  0
 12 11  1  0  0  0  0
 15 14  1  1  0  0  0
 15 18  1  0  0  0  0
 16 18  1  0  0  0  0
 17 19  1  0  0  0  0
 17 15  1  0  0  0  0
 18 20  1  1  0  0  0
 19  1  1  6  0  0  0
 19 16  1  0  0  0  0
 21  1  1  1  0  0  0
 23 22  1  6  0  0  0
 23 24  1  0  0  0  0
 23 21  1  0  0  0  0
 24 25  1  6  0  0  0
 24 21  1  0  0  0  0
 26 27  1  0  0  0  0
 27 25  1  0  0  0  0
 27 28  1  1  0  0  0
M  END
>  <MODEL>
3

>  <REMARK>
 VINA RESULT:      -7.0      0.768      1.901
  Name = 
  5 active torsions:
  status: ('A' for Active; 'I' for Inactive)
    1  A    between atoms: C_2  and  C_8
    2  A    between atoms: C_5  and  O_12
    3  A    between atoms: C_6  and  C_8
    4  A    between atoms: C_8  and  C_22
    5  A    between atoms: O_12  and  C_18
                            x       y       z     vdW  Elec       q    Type
                         _______ _______ _______ _____ _____    ______ ____

>  <TORSDO>
F 5

$$$$
=
 OpenBabel11042414473D

 28 31  0  0  1  0  0  0  0  0999 V2000
  190.0150  175.5810  144.9740 C   0  0  1  0  0  0  0  0  0  0  0  0
  189.7730  174.5200  145.8530 O   0  0  0  0  0  1  0  0  0  0  0  0
  188.0770  176.6570  146.1270 N   0  0  0  0  0  0  0  0  0  0  0  0
  188.7990  176.5050  144.9800 C   0  0  0  0  0  0  0  0  0  0  0  0
  186.2560  177.5600  147.3750 C   0  0  0  0  0  3  0  0  0  0  0  0
  186.5060  178.0940  145.0200 C   0  0  0  0  0  0  0  0  0  0  0  0
  184.6830  178.9920  146.2830 N   0  0  0  0  0  0  0  0  0  0  0  0
  185.1090  178.3550  147.4080 C   0  0  0  0  0  3  0  0  0  0  0  0
  188.3670  177.1420  143.8060 C   0  0  0  0  0  3  0  0  0  0  0  0
  186.9600  177.4280  146.1770 C   0  0  0  0  0  0  0  0  0  0  0  0
  186.7980  178.6110  142.5580 C   0  0  0  0  0  1  0  0  0  0  0  0
  187.2240  177.9430  143.8230 C   0  0  0  0  0  0  0  0  0  0  0  0
  185.3500  178.8800  145.1020 C   0  0  0  0  0  3  0  0  0  0  0  0
  194.6560  176.3390  144.3480 C   0  0  0  0  0  1  0  0  0  0  0  0
  193.3850  175.7380  144.9240 C   0  0  2  0  0  3  0  0  0  0  0  0
  191.8890  175.7000  146.7070 C   0  0  0  0  0  2  0  0  0  0  0  0
  192.2520  176.4190  144.4480 O   0  0  0  0  0  0  0  0  0  0  0  0
  193.3570  175.7380  146.4390 C   0  0  2  0  0  3  0  0  0  0  0  0
  191.2750  176.3310  145.4640 C   0  0  1  0  0  3  0  0  0  0  0  0
  193.8770  176.9320  146.9500 O   0  0  0  0  0  1  0  0  0  0  0  0
  190.3280  174.9590  143.5850 C   0  0  2  0  0  3  0  0  0  0  0  0
  189.2780  173.8530  141.7550 O   0  0  0  0  0  1  0  0  0  0  0  0
  189.3530  173.8780  143.1500 C   0  0  1  0  0  3  0  0  0  0  0  0
  190.7510  173.5000  143.6480 C   0  0  1  0  0  3  0  0  0  0  0  0
  191.6280  173.2180  142.5830 O   0  0  0  0  0  0  0  0  0  0  0  0
  193.9450  173.0360  142.7490 O   0  0  0  0  0  1  0  0  0  0  0  0
  192.7130  172.4600  143.0770 C   0  0  1  0  0  3  0  0  0  0  0  0
  192.6100  172.1970  144.5740 C   0  0  0  0  0  1  0  0  0  0  0  0
  1  4  1  0  0  0  0
  1  2  1  1  0  0  0
  3 10  1  0  0  0  0
  4  3  2  0  0  0  0
  5  8  1  0  0  0  0
  6 13  2  0  0  0  0
  6 10  1  0  0  0  0
  7  8  2  0  0  0  0
  9 12  2  0  0  0  0
  9  4  1  0  0  0  0
 10  5  2  0  0  0  0
 11 12  1  0  0  0  0
 12  6  1  0  0  0  0
 13  7  1  0  0  0  0
 15 14  1  1  0  0  0
 15 18  1  0  0  0  0
 17 15  1  0  0  0  0
 17 19  1  0  0  0  0
 18 16  1  0  0  0  0
 18 20  1  6  0  0  0
 19  1  1  6  0  0  0
 19 16  1  0  0  0  0
 21 24  1  0  0  0  0
 21  1  1  1  0  0  0
 23 22  1  6  0  0  0
 23 21  1  0  0  0  0
 23 24  1  0  0  0  0
 24 25  1  6  0  0  0
 25 27  1  0  0  0  0
 26 27  1  0  0  0  0
 27 28  1  1  0  0  0
M  END
>  <MODEL>
4

>  <REMARK>
 VINA RESULT:      -6.9      2.863      6.935
  Name = 
  5 active torsions:
  status: ('A' for Active; 'I' for Inactive)
    1  A    between atoms: C_2  and  C_8
    2  A    between atoms: C_5  and  O_12
    3  A    between atoms: C_6  and  C_8
    4  A    between atoms: C_8  and  C_22
    5  A    between atoms: O_12  and  C_18
                            x       y       z     vdW  Elec       q    Type
                         _______ _______ _______ _____ _____    ______ ____

>  <TORSDO>
F 5

$$$$
=
 OpenBabel11042414473D

 28 31  0  0  1  0  0  0  0  0999 V2000
  190.3530  175.3580  145.2040 C   0  0  1  0  0  0  0  0  0  0  0  0
  190.2410  174.3610  146.1790 O   0  0  0  0  0  1  0  0  0  0  0  0
  188.6890  176.8250  144.0550 N   0  0  0  0  0  0  0  0  0  0  0  0
  189.0630  176.1740  145.1930 C   0  0  0  0  0  0  0  0  0  0  0  0
  187.2300  178.2460  142.8130 C   0  0  0  0  0  3  0  0  0  0  0  0
  186.7740  177.7690  145.1490 C   0  0  0  0  0  0  0  0  0  0  0  0
  185.3180  179.1930  143.8920 N   0  0  0  0  0  0  0  0  0  0  0  0
  186.0840  179.0430  142.7780 C   0  0  0  0  0  3  0  0  0  0  0  0
  188.2940  176.3290  146.3570 C   0  0  0  0  0  3  0  0  0  0  0  0
  187.5770  177.6040  144.0020 C   0  0  0  0  0  0  0  0  0  0  0  0
  186.3460  177.2560  147.5920 C   0  0  0  0  0  1  0  0  0  0  0  0
  187.1440  177.1200  146.3380 C   0  0  0  0  0  0  0  0  0  0  0  0
  185.6350  178.5790  145.0650 C   0  0  0  0  0  3  0  0  0  0  0  0
  194.8930  176.4120  144.3200 C   0  0  0  0  0  1  0  0  0  0  0  0
  193.6950  175.7730  145.0020 C   0  0  2  0  0  3  0  0  0  0  0  0
  192.2670  175.7960  146.8400 C   0  0  0  0  0  2  0  0  0  0  0  0
  192.4950  176.3120  144.5090 O   0  0  0  0  0  0  0  0  0  0  0  0
  193.7170  175.9220  146.5100 C   0  0  2  0  0  3  0  0  0  0  0  0
  191.5620  176.2490  145.5680 C   0  0  1  0  0  3  0  0  0  0  0  0
  194.1530  177.1980  146.8810 O   0  0  0  0  0  1  0  0  0  0  0  0
  190.6610  174.6440  143.8580 C   0  0  2  0  0  3  0  0  0  0  0  0
  189.6190  173.3590  142.1460 O   0  0  0  0  0  1  0  0  0  0  0  0
  189.7240  173.4930  143.5320 C   0  0  1  0  0  3  0  0  0  0  0  0
  191.1480  173.2130  144.0200 C   0  0  1  0  0  3  0  0  0  0  0  0
  192.0120  172.8880  142.9570 O   0  0  0  0  0  0  0  0  0  0  0  0
  194.3380  173.0120  143.0180 O   0  0  0  0  0  1  0  0  0  0  0  0
  193.2020  172.3450  143.4900 C   0  0  1  0  0  3  0  0  0  0  0  0
  193.1900  172.2890  145.0120 C   0  0  0  0  0  1  0  0  0  0  0  0
  1  2  1  1  0  0  0
  3  4  1  0  0  0  0
  4  1  1  0  0  0  0
  4  9  2  0  0  0  0
  5 10  1  0  0  0  0
  6 12  2  0  0  0  0
  7 13  2  0  0  0  0
  8  5  2  0  0  0  0
  8  7  1  0  0  0  0
 10  3  2  0  0  0  0
 10  6  1  0  0  0  0
 12  9  1  0  0  0  0
 12 11  1  0  0  0  0
 13  6  1  0  0  0  0
 15 14  1  6  0  0  0
 15 18  1  0  0  0  0
 17 15  1  0  0  0  0
 17 19  1  0  0  0  0
 18 16  1  0  0  0  0
 18 20  1  6  0  0  0
 19  1  1  6  0  0  0
 19 16  1  0  0  0  0
 21 24  1  0  0  0  0
 21  1  1  1  0  0  0
 23 22  1  6  0  0  0
 23 21  1  0  0  0  0
 23 24  1  0  0  0  0
 24 25  1  6  0  0  0
 25 27  1  0  0  0  0
 26 27  1  0  0  0  0
 27 28  1  1  0  0  0
M  END
>  <MODEL>
5

>  <REMARK>
 VINA RESULT:      -6.9      2.981      7.046
  Name = 
  5 active torsions:
  status: ('A' for Active; 'I' for Inactive)
    1  A    between atoms: C_2  and  C_8
    2  A    between atoms: C_5  and  O_12
    3  A    between atoms: C_6  and  C_8
    4  A    between atoms: C_8  and  C_22
    5  A    between atoms: O_12  and  C_18
                            x       y       z     vdW  Elec       q    Type
                         _______ _______ _______ _____ _____    ______ ____

>  <TORSDO>
F 5

$$$$
=
 OpenBabel11042414473D

 28 31  0  0  1  0  0  0  0  0999 V2000
  190.4690  176.7320  143.7340 C   0  0  1  0  0  0  0  0  0  0  0  0
  190.8380  177.4050  142.5640 O   0  0  0  0  0  1  0  0  0  0  0  0
  188.1510  177.4390  143.1230 N   0  0  0  0  0  0  0  0  0  0  0  0
  189.0490  177.1520  144.1080 C   0  0  0  0  0  0  0  0  0  0  0  0
  186.0030  178.1380  142.3580 C   0  0  0  0  0  3  0  0  0  0  0  0
  186.4750  178.0280  144.7360 C   0  0  0  0  0  0  0  0  0  0  0  0
  184.3250  178.7280  143.9550 N   0  0  0  0  0  0  0  0  0  0  0  0
  184.7110  178.5730  142.6590 C   0  0  0  0  0  3  0  0  0  0  0  0
  188.6730  177.3210  145.4510 C   0  0  0  0  0  3  0  0  0  0  0  0
  186.8900  177.8620  143.3990 C   0  0  0  0  0  0  0  0  0  0  0  0
  187.0180  177.9130  147.2070 C   0  0  0  0  0  1  0  0  0  0  0  0
  187.3850  177.7520  145.7700 C   0  0  0  0  0  0  0  0  0  0  0  0
  185.1700  178.4680  144.9890 C   0  0  0  0  0  3  0  0  0  0  0  0
  190.1850  173.2980  140.4750 C   0  0  0  0  0  1  0  0  0  0  0  0
  189.7400  174.2400  141.5800 C   0  0  2  0  0  3  0  0  0  0  0  0
  189.2540  174.4870  143.8440 C   0  0  0  0  0  2  0  0  0  0  0  0
  190.8350  174.9500  142.1000 O   0  0  0  0  0  0  0  0  0  0  0  0
  189.0290  173.5340  142.7160 C   0  0  2  0  0  3  0  0  0  0  0  0
  190.5350  175.2140  143.4550 C   0  0  1  0  0  3  0  0  0  0  0  0
  189.6530  172.3200  143.0220 O   0  0  0  0  0  1  0  0  0  0  0  0
  191.5340  177.0780  144.8120 C   0  0  2  0  0  3  0  0  0  0  0  0
  193.8890  177.2240  145.1300 O   0  0  0  0  0  1  0  0  0  0  0  0
  192.8840  176.4180  144.5900 C   0  0  1  0  0  3  0  0  0  0  0  0
  191.9380  175.8930  145.6750 C   0  0  1  0  0  3  0  0  0  0  0  0
  192.3060  176.3480  146.9550 O   0  0  0  0  0  0  0  0  0  0  0  0
  190.5340  177.2180  148.1940 O   0  0  0  0  0  1  0  0  0  0  0  0
  191.2550  176.0670  147.8560 C   0  0  1  0  0  3  0  0  0  0  0  0
  190.3290  174.9680  147.3500 C   0  0  0  0  0  1  0  0  0  0  0  0
  1  2  1  6  0  0  0
  1  4  1  0  0  0  0
  3 10  2  0  0  0  0
  3  4  1  0  0  0  0
  4  9  2  0  0  0  0
  5  8  2  0  0  0  0
  5 10  1  0  0  0  0
  6 13  1  0  0  0  0
  6 12  2  0  0  0  0
  7 13  2  0  0  0  0
  8  7  1  0  0  0  0
  9 12  1  0  0  0  0
 10  6  1  0  0  0  0
 12 11  1  0  0  0  0
 15 14  1  6  0  0  0
 15 17  1  0  0  0  0
 15 18  1  0  0  0  0
 17 19  1  0  0  0  0
 18 20  1  1  0  0  0
 18 16  1  0  0  0  0
 19  1  1  6  0  0  0
 19 16  1  0  0  0  0
 21  1  1  6  0  0  0
 21 24  1  0  0  0  0
 23 21  1  0  0  0  0
 23 22  1  1  0  0  0
 23 24  1  0  0  0  0
 24 25  1  1  0  0  0
 25 27  1  0  0  0  0
 27 28  1  6  0  0  0
 27 26  1  0  0  0  0
M  END
>  <MODEL>
6

>  <REMARK>
 VINA RESULT:      -6.8      2.990      6.994
  Name = 
  5 active torsions:
  status: ('A' for Active; 'I' for Inactive)
    1  A    between atoms: C_2  and  C_8
    2  A    between atoms: C_5  and  O_12
    3  A    between atoms: C_6  and  C_8
    4  A    between atoms: C_8  and  C_22
    5  A    between atoms: O_12  and  C_18
                            x       y       z     vdW  Elec       q    Type
                         _______ _______ _______ _____ _____    ______ ____

>  <TORSDO>
F 5

$$$$
=
 OpenBabel11042414473D

 28 31  0  0  1  0  0  0  0  0999 V2000
  190.1180  175.3580  144.9000 C   0  0  1  0  0  0  0  0  0  0  0  0
  189.4720  174.2480  145.4540 O   0  0  0  0  0  1  0  0  0  0  0  0
  192.1640  173.9410  145.1260 N   0  0  0  0  0  0  0  0  0  0  0  0
  191.6230  175.1920  145.0960 C   0  0  0  0  0  0  0  0  0  0  0  0
  193.9980  172.4340  145.3620 C   0  0  0  0  0  3  0  0  0  0  0  0
  194.3500  174.8280  145.5610 C   0  0  0  0  0  0  0  0  0  0  0  0
  196.1820  173.3050  145.7960 N   0  0  0  0  0  0  0  0  0  0  0  0
  195.3610  172.2390  145.5900 C   0  0  0  0  0  3  0  0  0  0  0  0
  192.4510  176.3040  145.3220 C   0  0  0  0  0  3  0  0  0  0  0  0
  193.4880  173.7330  145.3460 C   0  0  0  0  0  0  0  0  0  0  0  0
  194.6680  177.3310  145.7780 C   0  0  0  0  0  1  0  0  0  0  0  0
  193.8170  176.1270  145.5480 C   0  0  0  0  0  0  0  0  0  0  0  0
  195.7110  174.5820  145.7870 C   0  0  0  0  0  3  0  0  0  0  0  0
  186.9380  176.6720  141.6340 C   0  0  0  0  0  1  0  0  0  0  0  0
  187.6820  175.7670  142.6020 C   0  0  2  0  0  3  0  0  0  0  0  0
  189.2660  174.0800  142.8570 C   0  0  0  0  0  2  0  0  0  0  0  0
  188.8090  176.4200  143.1270 O   0  0  0  0  0  0  0  0  0  0  0  0
  188.1180  174.4570  141.9790 C   0  0  2  0  0  3  0  0  0  0  0  0
  189.7650  175.4150  143.3960 C   0  0  1  0  0  3  0  0  0  0  0  0
  188.5930  174.6540  140.6780 O   0  0  0  0  0  1  0  0  0  0  0  0
  189.5260  176.6190  145.5880 C   0  0  2  0  0  3  0  0  0  0  0  0
  189.6860  177.9040  147.5870 O   0  0  0  0  0  1  0  0  0  0  0  0
  189.5980  176.5950  147.1050 C   0  0  1  0  0  3  0  0  0  0  0  0
  188.2660  176.3440  146.3920 C   0  0  1  0  0  3  0  0  0  0  0  0
  187.4480  177.4900  146.3910 O   0  0  0  0  0  0  0  0  0  0  0  0
  185.2640  176.6780  146.3750 O   0  0  0  0  0  1  0  0  0  0  0  0
  186.3000  177.2270  145.6110 C   0  0  1  0  0  3  0  0  0  0  0  0
  185.8240  178.4510  144.8390 C   0  0  0  0  0  1  0  0  0  0  0  0
  1  4  1  0  0  0  0
  1  2  1  1  0  0  0
  3 10  1  0  0  0  0
  4  3  2  0  0  0  0
  4  9  1  0  0  0  0
  5  8  1  0  0  0  0
  6 13  2  0  0  0  0
  8  7  2  0  0  0  0
  9 12  2  0  0  0  0
 10  5  2  0  0  0  0
 10  6  1  0  0  0  0
 12  6  1  0  0  0  0
 12 11  1  0  0  0  0
 13  7  1  0  0  0  0
 15 14  1  6  0  0  0
 15 17  1  0  0  0  0
 16 19  1  0  0  0  0
 17 19  1  0  0  0  0
 18 20  1  6  0  0  0
 18 15  1  0  0  0  0
 18 16  1  0  0  0  0
 19  1  1  1  0  0  0
 21  1  1  6  0  0  0
 21 24  1  0  0  0  0
 21 23  1  0  0  0  0
 23 22  1  1  0  0  0
 24 25  1  1  0  0  0
 24 23  1  0  0  0  0
 27 28  1  1  0  0  0
 27 26  1  0  0  0  0
 27 25  1  0  0  0  0
M  END
>  <MODEL>
7

>  <REMARK>
 VINA RESULT:      -6.8      2.018      4.595
  Name = 
  5 active torsions:
  status: ('A' for Active; 'I' for Inactive)
    1  A    between atoms: C_2  and  C_8
    2  A    between atoms: C_5  and  O_12
    3  A    between atoms: C_6  and  C_8
    4  A    between atoms: C_8  and  C_22
    5  A    between atoms: O_12  and  C_18
                            x       y       z     vdW  Elec       q    Type
                         _______ _______ _______ _____ _____    ______ ____

>  <TORSDO>
F 5

$$$$
=
 OpenBabel11042414473D

 28 31  0  0  1  0  0  0  0  0999 V2000
  189.5230  175.9300  144.1810 C   0  0  1  0  0  0  0  0  0  0  0  0
  190.3830  176.5970  143.3020 O   0  0  0  0  0  1  0  0  0  0  0  0
  187.5130  176.7310  145.4320 N   0  0  0  0  0  0  0  0  0  0  0  0
  188.2110  176.7070  144.2610 C   0  0  0  0  0  0  0  0  0  0  0  0
  185.6420  177.3690  146.7660 C   0  0  0  0  0  3  0  0  0  0  0  0
  185.7550  178.0200  144.4300 C   0  0  0  0  0  0  0  0  0  0  0  0
  183.8830  178.6530  145.7800 N   0  0  0  0  0  0  0  0  0  0  0  0
  184.4140  178.0260  146.8650 C   0  0  0  0  0  3  0  0  0  0  0  0
  187.6720  177.3360  143.1270 C   0  0  0  0  0  3  0  0  0  0  0  0
  186.3180  177.3660  145.5460 C   0  0  0  0  0  0  0  0  0  0  0  0
  185.9070  178.6630  141.9860 C   0  0  0  0  0  1  0  0  0  0  0  0
  186.4470  178.0000  143.2090 C   0  0  0  0  0  0  0  0  0  0  0  0
  184.5200  178.6650  144.5780 C   0  0  0  0  0  3  0  0  0  0  0  0
  191.2300  171.5270  143.7350 C   0  0  0  0  0  1  0  0  0  0  0  0
  190.9130  172.9660  143.3660 C   0  0  2  0  0  3  0  0  0  0  0  0
  189.5540  174.4010  142.1340 C   0  0  0  0  0  2  0  0  0  0  0  0
  190.0600  173.5490  144.3190 O   0  0  0  0  0  0  0  0  0  0  0  0
  190.2840  173.1060  141.9940 C   0  0  2  0  0  3  0  0  0  0  0  0
  189.2840  174.5070  143.6300 C   0  0  1  0  0  3  0  0  0  0  0  0
  189.3530  172.0880  141.7630 O   0  0  0  0  0  1  0  0  0  0  0  0
  190.2680  175.8090  145.5400 C   0  0  2  0  0  3  0  0  0  0  0  0
  190.6050  176.9640  147.5950 O   0  0  0  0  0  1  0  0  0  0  0  0
  190.5690  177.1390  146.2090 C   0  0  1  0  0  3  0  0  0  0  0  0
  191.6860  176.3560  145.5120 C   0  0  1  0  0  3  0  0  0  0  0  0
  192.4810  175.6470  146.4330 O   0  0  0  0  0  0  0  0  0  0  0  0
  193.4020  175.1650  144.3460 O   0  0  0  0  0  1  0  0  0  0  0  0
  193.5350  175.0190  145.7320 C   0  0  1  0  0  3  0  0  0  0  0  0
  194.9080  175.4820  146.2030 C   0  0  0  0  0  1  0  0  0  0  0  0
  1  2  1  6  0  0  0
  1  4  1  0  0  0  0
  3 10  1  0  0  0  0
  4  3  2  0  0  0  0
  5  8  1  0  0  0  0
  6 13  2  0  0  0  0
  6 10  1  0  0  0  0
  7  8  2  0  0  0  0
  9 12  2  0  0  0  0
  9  4  1  0  0  0  0
 10  5  2  0  0  0  0
 11 12  1  0  0  0  0
 12  6  1  0  0  0  0
 13  7  1  0  0  0  0
 15 14  1  1  0  0  0
 15 17  1  0  0  0  0
 16 19  1  0  0  0  0
 18 20  1  1  0  0  0
 18 16  1  0  0  0  0
 18 15  1  0  0  0  0
 19  1  1  1  0  0  0
 19 17  1  0  0  0  0
 21  1  1  6  0  0  0
 21 23  1  0  0  0  0
 23 22  1  1  0  0  0
 24 21  1  0  0  0  0
 24 23  1  0  0  0  0
 24 25  1  1  0  0  0
 26 27  1  0  0  0  0
 27 28  1  1  0  0  0
 27 25  1  0  0  0  0
M  END
>  <MODEL>
8

>  <REMARK>
 VINA RESULT:      -6.7      2.836      7.394
  Name = 
  5 active torsions:
  status: ('A' for Active; 'I' for Inactive)
    1  A    between atoms: C_2  and  C_8
    2  A    between atoms: C_5  and  O_12
    3  A    between atoms: C_6  and  C_8
    4  A    between atoms: C_8  and  C_22
    5  A    between atoms: O_12  and  C_18
                            x       y       z     vdW  Elec       q    Type
                         _______ _______ _______ _____ _____    ______ ____

>  <TORSDO>
F 5

$$$$
=
 OpenBabel11042414473D

 28 31  0  0  1  0  0  0  0  0999 V2000
  190.1120  176.7330  144.6680 C   0  0  1  0  0  0  0  0  0  0  0  0
  190.8280  177.9280  144.5300 O   0  0  0  0  0  1  0  0  0  0  0  0
  187.9350  177.9070  144.3100 N   0  0  0  0  0  0  0  0  0  0  0  0
  188.6820  177.0690  145.0850 C   0  0  0  0  0  0  0  0  0  0  0  0
  185.9460  179.1310  143.8300 C   0  0  0  0  0  3  0  0  0  0  0  0
  186.1020  177.8020  145.8550 C   0  0  0  0  0  0  0  0  0  0  0  0
  184.1120  179.0360  145.3610 N   0  0  0  0  0  0  0  0  0  0  0  0
  184.6520  179.5030  144.2030 C   0  0  0  0  0  3  0  0  0  0  0  0
  188.1470  176.5900  146.2920 C   0  0  0  0  0  3  0  0  0  0  0  0
  186.6750  178.2770  144.6570 C   0  0  0  0  0  0  0  0  0  0  0  0
  186.3160  176.4150  147.9630 C   0  0  0  0  0  1  0  0  0  0  0  0
  186.8550  176.9480  146.6780 C   0  0  0  0  0  0  0  0  0  0  0  0
  184.8020  178.2030  146.1870 C   0  0  0  0  0  3  0  0  0  0  0  0
  188.3530  173.1790  142.0650 C   0  0  0  0  0  1  0  0  0  0  0  0
  189.3130  173.9270  142.9760 C   0  0  2  0  0  3  0  0  0  0  0  0
  191.3280  175.0790  143.1470 C   0  0  0  0  0  2  0  0  0  0  0  0
  188.9380  175.2760  143.0950 O   0  0  0  0  0  0  0  0  0  0  0  0
  190.7530  173.8560  142.5120 C   0  0  2  0  0  3  0  0  0  0  0  0
  190.1290  176.0050  143.3050 C   0  0  1  0  0  3  0  0  0  0  0  0
  190.8400  173.9880  141.1220 O   0  0  0  0  0  1  0  0  0  0  0  0
  190.8810  175.8590  145.6980 C   0  0  2  0  0  3  0  0  0  0  0  0
  191.1340  175.5230  148.0420 O   0  0  0  0  0  1  0  0  0  0  0  0
  191.0660  176.5120  147.0570 C   0  0  1  0  0  3  0  0  0  0  0  0
  192.2420  176.4180  146.0800 C   0  0  1  0  0  3  0  0  0  0  0  0
  193.1100  175.3580  146.4060 O   0  0  0  0  0  0  0  0  0  0  0  0
  195.0270  174.9590  145.1420 O   0  0  0  0  0  1  0  0  0  0  0  0
  194.4370  175.7560  146.1290 C   0  0  1  0  0  3  0  0  0  0  0  0
  194.5420  177.2350  145.7770 C   0  0  0  0  0  1  0  0  0  0  0  0
  1  2  1  6  0  0  0
  1  4  1  0  0  0  0
  3 10  2  0  0  0  0
  3  4  1  0  0  0  0
  4  9  2  0  0  0  0
  5  8  2  0  0  0  0
  5 10  1  0  0  0  0
  6 13  1  0  0  0  0
  6 12  2  0  0  0  0
  7 13  2  0  0  0  0
  8  7  1  0  0  0  0
  9 12  1  0  0  0  0
 10  6  1  0  0  0  0
 12 11  1  0  0  0  0
 15 14  1  6  0  0  0
 15 17  1  0  0  0  0
 16 19  1  0  0  0  0
 17 19  1  0  0  0  0
 18 20  1  6  0  0  0
 18 15  1  0  0  0  0
 18 16  1  0  0  0  0
 19  1  1  1  0  0  0
 21  1  1  6  0  0  0
 21 24  1  0  0  0  0
 21 23  1  0  0  0  0
 23 22  1  1  0  0  0
 24 25  1  1  0  0  0
 24 23  1  0  0  0  0
 26 27  1  0  0  0  0
 27 28  1  6  0  0  0
 27 25  1  0  0  0  0
M  END
>  <MODEL>
9

>  <REMARK>
 VINA RESULT:      -6.7      2.948      7.292
  Name = 
  5 active torsions:
  status: ('A' for Active; 'I' for Inactive)
    1  A    between atoms: C_2  and  C_8
    2  A    between atoms: C_5  and  O_12
    3  A    between atoms: C_6  and  C_8
    4  A    between atoms: C_8  and  C_22
    5  A    between atoms: O_12  and  C_18
                            x       y       z     vdW  Elec       q    Type
                         _______ _______ _______ _____ _____    ______ ____

>  <TORSDO>
F 5

$$$$
