=
 OpenBabel11042414493D

 28 31  0  0  1  0  0  0  0  0999 V2000
  190.0970  178.0740  144.2050 C   0  0  0  0  0  3  0  0  0  0  0  0
  189.2810  174.1310  142.8470 O   0  0  0  0  0  0  0  0  0  0  0  0
  187.1240  175.1310  142.3640 C   0  0  0  0  0  2  0  0  0  0  0  0
  189.0160  177.5330  143.6390 C   0  0  0  0  0  0  0  0  0  0  0  0
  191.9770  176.6240  143.3270 C   0  0  0  0  0  0  0  0  0  0  0  0
  187.8430  176.3110  141.7260 C   0  0  0  0  0  2  0  0  0  0  0  0
  191.4930  177.7740  143.8320 C   0  0  0  0  0  3  0  0  0  0  0  0
  188.0140  173.9060  142.2310 C   0  0  0  0  0  2  0  0  0  0  0  0
  191.1700  175.4400  143.1890 N   0  0  0  0  0  0  0  0  0  0  0  0
  189.9210  175.3770  142.8330 C   0  0  0  0  0  0  0  0  0  0  0  0
  189.1610  176.6200  142.4500 C   0  0  2  0  0  3  0  0  0  0  0  0
  186.8790  178.8230  143.4960 C   0  0  0  0  0  3  0  0  0  0  0  0
  187.6810  176.4300  146.2640 C   0  0  0  0  0  0  0  0  0  0  0  0
  185.9590  177.6730  145.8470 C   0  0  0  0  0  0  0  0  0  0  0  0
  186.7640  176.2360  147.2390 N   0  0  0  0  0  0  0  0  0  0  0  0
  185.1320  178.5840  145.1930 C   0  0  0  0  0  0  0  0  0  0  0  0
  185.6050  179.1640  144.0020 C   0  0  0  0  0  3  0  0  0  0  0  0
  185.7050  177.0000  146.9840 N   0  0  0  0  0  2  0  0  0  0  0  0
  183.8800  178.9120  145.6950 O   0  0  0  0  0  1  0  0  0  0  0  0
  187.6960  177.9000  144.1770 C   0  0  0  0  0  0  0  0  0  0  0  0
  187.1930  177.3450  145.3590 C   0  0  0  0  0  0  0  0  0  0  0  0
  188.9570  175.7810  146.1920 N   0  0  0  0  0  0  0  0  0  0  0  0
  191.2050  175.3190  146.9710 C   0  0  0  0  0  1  0  0  0  0  0  0
  190.0060  175.8520  147.1660 C   0  0  0  0  0  3  0  0  0  0  0  0
  193.3830  176.4910  143.0690 N   0  0  0  0  0  2  0  0  0  0  0  0
  195.8160  176.0410  143.5420 C   0  0  0  0  0  1  0  0  0  0  0  0
  194.4170  176.1960  144.0170 C   0  0  0  0  0  0  0  0  0  0  0  0
  194.1670  176.0790  145.2460 O   0  0  0  0  0  0  0  0  0  0  0  0
  4 20  1  0  0  0  0
  4  1  2  0  0  0  0
  5  7  2  0  0  0  0
  6  3  1  0  0  0  0
  7  1  1  0  0  0  0
  8  3  1  0  0  0  0
  8  2  1  0  0  0  0
  9  5  1  0  0  0  0
 10  2  1  0  0  0  0
 10  9  2  0  0  0  0
 11  6  1  1  0  0  0
 11 10  1  0  0  0  0
 11  4  1  0  0  0  0
 12 17  2  0  0  0  0
 12 20  1  0  0  0  0
 13 15  2  0  0  0  0
 14 18  1  0  0  0  0
 16 19  1  0  0  0  0
 16 14  2  0  0  0  0
 17 16  1  0  0  0  0
 18 15  1  0  0  0  0
 20 21  2  0  0  0  0
 21 14  1  0  0  0  0
 21 13  1  0  0  0  0
 22 13  1  0  0  0  0
 22 24  2  0  0  0  0
 23 24  1  0  0  0  0
 25  5  1  0  0  0  0
 25 27  1  0  0  0  0
 26 27  1  0  0  0  0
 27 28  2  0  0  0  0
M  END
>  <MODEL>
1

>  <REMARK>
 VINA RESULT:      -7.7      0.000      0.000
  Name = 
  4 active torsions:
  status: ('A' for Active; 'I' for Inactive)
    1  A    between atoms: N_3  and  C_15
    2  A    between atoms: C_5  and  N_19
    3  A    between atoms: C_9  and  C_22
    4  A    between atoms: C_14  and  N_19
                            x       y       z     vdW  Elec       q    Type
                         _______ _______ _______ _____ _____    ______ ____

>  <TORSDO>
F 4

$$$$
=
 OpenBabel11042414493D

 28 31  0  0  1  0  0  0  0  0999 V2000
  189.6400  177.6930  142.6730 C   0  0  0  0  0  3  0  0  0  0  0  0
  189.0750  173.8760  140.8950 O   0  0  0  0  0  0  0  0  0  0  0  0
  190.4740  173.2000  142.7570 C   0  0  0  0  0  2  0  0  0  0  0  0
  190.0520  176.4740  143.0310 C   0  0  0  0  0  0  0  0  0  0  0  0
  187.5350  177.2110  141.3550 C   0  0  0  0  0  0  0  0  0  0  0  0
  189.6080  174.0430  143.6810 C   0  0  0  0  0  2  0  0  0  0  0  0
  188.3170  178.0110  142.1020 C   0  0  0  0  0  3  0  0  0  0  0  0
  189.6190  172.7510  141.5840 C   0  0  0  0  0  2  0  0  0  0  0  0
  187.9650  175.9160  140.8960 N   0  0  0  0  0  0  0  0  0  0  0  0
  188.6770  175.0470  141.5500 C   0  0  0  0  0  0  0  0  0  0  0  0
  189.1010  175.3070  142.9720 C   0  0  2  0  0  3  0  0  0  0  0  0
  192.4930  176.1130  142.6280 C   0  0  0  0  0  3  0  0  0  0  0  0
  190.9990  176.6120  146.0270 C   0  0  0  0  0  0  0  0  0  0  0  0
  193.0280  176.2880  145.3440 C   0  0  0  0  0  0  0  0  0  0  0  0
  191.8200  176.6110  147.1020 N   0  0  0  0  0  0  0  0  0  0  0  0
  194.0960  176.0760  144.4760 C   0  0  0  0  0  0  0  0  0  0  0  0
  193.8180  175.9880  143.1000 C   0  0  0  0  0  3  0  0  0  0  0  0
  193.0680  176.4120  146.6840 N   0  0  0  0  0  2  0  0  0  0  0  0
  195.3970  175.9560  144.9470 O   0  0  0  0  0  1  0  0  0  0  0  0
  191.4290  176.3260  143.5270 C   0  0  0  0  0  0  0  0  0  0  0  0
  191.7440  176.4070  144.8880 C   0  0  0  0  0  0  0  0  0  0  0  0
  189.5790  176.7980  146.0750 N   0  0  0  0  0  0  0  0  0  0  0  0
  188.9390  174.7670  147.2340 C   0  0  0  0  0  1  0  0  0  0  0  0
  188.6330  175.9680  146.7600 C   0  0  0  0  0  3  0  0  0  0  0  0
  186.2910  177.7080  140.8370 N   0  0  0  0  0  2  0  0  0  0  0  0
  183.8720  178.4110  140.8330 C   0  0  0  0  0  1  0  0  0  0  0  0
  185.0400  177.8110  141.5290 C   0  0  0  0  0  0  0  0  0  0  0  0
  184.9060  177.3910  142.7090 O   0  0  0  0  0  0  0  0  0  0  0  0
  1  4  2  0  0  0  0
  2 10  1  0  0  0  0
  2  8  1  0  0  0  0
  3  6  1  0  0  0  0
  4 20  1  0  0  0  0
  5  7  2  0  0  0  0
  7  1  1  0  0  0  0
  8  3  1  0  0  0  0
  9  5  1  0  0  0  0
  9 10  2  0  0  0  0
 10 11  1  0  0  0  0
 11  4  1  0  0  0  0
 11  6  1  6  0  0  0
 12 17  2  0  0  0  0
 12 20  1  0  0  0  0
 13 22  1  0  0  0  0
 13 15  2  0  0  0  0
 14 18  1  0  0  0  0
 16 19  1  0  0  0  0
 16 14  2  0  0  0  0
 17 16  1  0  0  0  0
 18 15  1  0  0  0  0
 20 21  2  0  0  0  0
 21 14  1  0  0  0  0
 21 13  1  0  0  0  0
 22 24  2  0  0  0  0
 24 23  1  0  0  0  0
 25  5  1  0  0  0  0
 25 27  1  0  0  0  0
 26 27  1  0  0  0  0
 27 28  2  0  0  0  0
M  END
>  <MODEL>
2

>  <REMARK>
 VINA RESULT:      -7.3      2.322      6.095
  Name = 
  4 active torsions:
  status: ('A' for Active; 'I' for Inactive)
    1  A    between atoms: N_3  and  C_15
    2  A    between atoms: C_5  and  N_19
    3  A    between atoms: C_9  and  C_22
    4  A    between atoms: C_14  and  N_19
                            x       y       z     vdW  Elec       q    Type
                         _______ _______ _______ _____ _____    ______ ____

>  <TORSDO>
F 4

$$$$
=
 OpenBabel11042414493D

 28 31  0  0  1  0  0  0  0  0999 V2000
  190.4120  177.9620  144.0280 C   0  0  0  0  0  3  0  0  0  0  0  0
  189.8690  173.7860  143.4700 O   0  0  0  0  0  0  0  0  0  0  0  0
  187.8470  174.5590  142.3760 C   0  0  0  0  0  2  0  0  0  0  0  0
  189.4590  177.2640  143.4060 C   0  0  0  0  0  0  0  0  0  0  0  0
  192.4240  176.4350  143.8700 C   0  0  0  0  0  0  0  0  0  0  0  0
  188.6760  175.5980  141.6340 C   0  0  0  0  0  2  0  0  0  0  0  0
  191.8530  177.6470  144.0020 C   0  0  0  0  0  3  0  0  0  0  0  0
  188.7450  173.3750  142.6940 C   0  0  0  0  0  2  0  0  0  0  0  0
  191.6580  175.2170  143.8550 N   0  0  0  0  0  0  0  0  0  0  0  0
  190.5010  175.0230  143.2940 C   0  0  0  0  0  0  0  0  0  0  0  0
  189.8300  176.1160  142.5040 C   0  0  2  0  0  3  0  0  0  0  0  0
  187.4230  178.4850  142.6220 C   0  0  0  0  0  3  0  0  0  0  0  0
  187.5760  176.5350  145.8170 C   0  0  0  0  0  0  0  0  0  0  0  0
  186.0030  177.6760  144.8640 C   0  0  0  0  0  0  0  0  0  0  0  0
  186.4680  176.4710  146.5910 N   0  0  0  0  0  0  0  0  0  0  0  0
  185.3500  178.4680  143.9220 C   0  0  0  0  0  0  0  0  0  0  0  0
  186.0760  178.8750  142.7880 C   0  0  0  0  0  3  0  0  0  0  0  0
  185.5000  177.1720  146.0070 N   0  0  0  0  0  2  0  0  0  0  0  0
  184.0250  178.8460  144.0910 O   0  0  0  0  0  1  0  0  0  0  0  0
  188.0610  177.6840  143.5900 C   0  0  0  0  0  0  0  0  0  0  0  0
  187.3080  177.3000  144.7050 C   0  0  0  0  0  0  0  0  0  0  0  0
  188.8280  175.9020  146.1150 N   0  0  0  0  0  0  0  0  0  0  0  0
  190.9050  175.6600  147.3410 C   0  0  0  0  0  1  0  0  0  0  0  0
  189.7880  176.3310  147.0890 C   0  0  0  0  0  3  0  0  0  0  0  0
  193.8530  176.3090  143.9180 N   0  0  0  0  0  2  0  0  0  0  0  0
  196.2150  176.1200  143.0630 C   0  0  0  0  0  1  0  0  0  0  0  0
  194.7520  176.1810  142.8080 C   0  0  0  0  0  0  0  0  0  0  0  0
  194.3290  176.1040  141.6250 O   0  0  0  0  0  0  0  0  0  0  0  0
  3  8  1  0  0  0  0
  4 20  1  0  0  0  0
  4  1  2  0  0  0  0
  5 25  1  0  0  0  0
  5  7  2  0  0  0  0
  6  3  1  0  0  0  0
  7  1  1  0  0  0  0
  8  2  1  0  0  0  0
  9  5  1  0  0  0  0
 10  2  1  0  0  0  0
 10  9  2  0  0  0  0
 11  6  1  1  0  0  0
 11 10  1  0  0  0  0
 11  4  1  0  0  0  0
 12 17  2  0  0  0  0
 12 20  1  0  0  0  0
 13 22  1  0  0  0  0
 13 15  2  0  0  0  0
 14 18  1  0  0  0  0
 16 19  1  0  0  0  0
 16 14  2  0  0  0  0
 17 16  1  0  0  0  0
 18 15  1  0  0  0  0
 20 21  2  0  0  0  0
 21 14  1  0  0  0  0
 21 13  1  0  0  0  0
 22 24  2  0  0  0  0
 24 23  1  0  0  0  0
 27 26  1  0  0  0  0
 27 25  1  0  0  0  0
 28 27  2  0  0  0  0
M  END
>  <MODEL>
3

>  <REMARK>
 VINA RESULT:      -7.3      1.088      1.117
  Name = 
  4 active torsions:
  status: ('A' for Active; 'I' for Inactive)
    1  A    between atoms: N_3  and  C_15
    2  A    between atoms: C_5  and  N_19
    3  A    between atoms: C_9  and  C_22
    4  A    between atoms: C_14  and  N_19
                            x       y       z     vdW  Elec       q    Type
                         _______ _______ _______ _____ _____    ______ ____

>  <TORSDO>
F 4

$$$$
=
 OpenBabel11042414493D

 28 31  0  0  1  0  0  0  0  0999 V2000
  189.8720  174.7790  146.5870 C   0  0  0  0  0  3  0  0  0  0  0  0
  190.6140  178.2900  144.3120 O   0  0  0  0  0  0  0  0  0  0  0  0
  191.9860  176.7440  143.0430 C   0  0  0  0  0  2  0  0  0  0  0  0
  190.5930  174.9890  145.4840 C   0  0  0  0  0  0  0  0  0  0  0  0
  188.1240  176.6050  146.4730 C   0  0  0  0  0  0  0  0  0  0  0  0
  190.8330  175.7500  143.0560 C   0  0  0  0  0  2  0  0  0  0  0  0
  188.5680  175.4030  146.8840 C   0  0  0  0  0  3  0  0  0  0  0  0
  191.4050  178.1450  143.1330 C   0  0  0  0  0  2  0  0  0  0  0  0
  188.9550  177.5320  145.7510 N   0  0  0  0  0  0  0  0  0  0  0  0
  189.8330  177.2520  144.8340 C   0  0  0  0  0  0  0  0  0  0  0  0
  190.0380  175.8340  144.3670 C   0  0  2  0  0  3  0  0  0  0  0  0
  193.0630  174.9660  145.8680 C   0  0  0  0  0  3  0  0  0  0  0  0
  191.1840  172.1540  144.2560 C   0  0  0  0  0  0  0  0  0  0  0  0
  193.2760  172.4430  144.7330 C   0  0  0  0  0  0  0  0  0  0  0  0
  191.8700  171.0550  143.8690 N   0  0  0  0  0  0  0  0  0  0  0  0
  194.4360  173.0500  145.2090 C   0  0  0  0  0  0  0  0  0  0  0  0
  194.3220  174.3290  145.7830 C   0  0  0  0  0  3  0  0  0  0  0  0
  193.1560  171.2310  144.1610 N   0  0  0  0  0  2  0  0  0  0  0  0
  195.6690  172.4170  145.1240 O   0  0  0  0  0  1  0  0  0  0  0  0
  191.9050  174.3310  145.3780 C   0  0  0  0  0  0  0  0  0  0  0  0
  192.0580  173.0600  144.8130 C   0  0  0  0  0  0  0  0  0  0  0  0
  189.7700  172.3390  144.1080 N   0  0  0  0  0  2  0  0  0  0  0  0
  188.4020  173.1090  142.2610 C   0  0  0  0  0  2  0  0  0  0  0  0
  189.0030  172.1250  142.9160 C   0  0  0  0  0  3  0  0  0  0  0  0
  186.8380  177.0780  146.9030 N   0  0  0  0  0  2  0  0  0  0  0  0
  184.4080  177.7230  146.7410 C   0  0  0  0  0  1  0  0  0  0  0  0
  185.6710  177.2800  146.0950 C   0  0  0  0  0  0  0  0  0  0  0  0
  185.6960  177.1030  144.8490 O   0  0  0  0  0  0  0  0  0  0  0  0
  1  7  1  0  0  0  0
  2 10  1  0  0  0  0
  3  6  1  0  0  0  0
  3  8  1  0  0  0  0
  4  1  2  0  0  0  0
  5  7  2  0  0  0  0
  5 25  1  0  0  0  0
  8  2  1  0  0  0  0
  9  5  1  0  0  0  0
 10  9  2  0  0  0  0
 11  6  1  6  0  0  0
 11 10  1  0  0  0  0
 11  4  1  0  0  0  0
 13 21  1  0  0  0  0
 14 21  2  0  0  0  0
 14 16  1  0  0  0  0
 15 18  1  0  0  0  0
 15 13  2  0  0  0  0
 16 17  2  0  0  0  0
 17 12  1  0  0  0  0
 18 14  1  0  0  0  0
 19 16  1  0  0  0  0
 20  4  1  0  0  0  0
 20 12  2  0  0  0  0
 21 20  1  0  0  0  0
 22 13  1  0  0  0  0
 23 24  2  0  0  0  0
 24 22  1  0  0  0  0
 27 26  1  0  0  0  0
 27 25  1  0  0  0  0
 28 27  2  0  0  0  0
M  END
>  <MODEL>
4

>  <REMARK>
 VINA RESULT:      -7.1      2.597      7.190
  Name = 
  4 active torsions:
  status: ('A' for Active; 'I' for Inactive)
    1  A    between atoms: N_3  and  C_15
    2  A    between atoms: C_5  and  N_19
    3  A    between atoms: C_9  and  C_22
    4  A    between atoms: C_14  and  N_19
                            x       y       z     vdW  Elec       q    Type
                         _______ _______ _______ _____ _____    ______ ____

>  <TORSDO>
F 4

$$$$
=
 OpenBabel11042414493D

 28 31  0  0  1  0  0  0  0  0999 V2000
  191.1660  176.9940  143.3790 C   0  0  0  0  0  3  0  0  0  0  0  0
  188.5980  175.1460  146.2150 O   0  0  0  0  0  0  0  0  0  0  0  0
  190.5970  175.2900  147.5820 C   0  0  0  0  0  2  0  0  0  0  0  0
  191.3560  176.6360  144.6510 C   0  0  0  0  0  0  0  0  0  0  0  0
  188.6690  177.3930  143.2740 C   0  0  0  0  0  0  0  0  0  0  0  0
  190.7670  176.7350  147.1350 C   0  0  0  0  0  2  0  0  0  0  0  0
  189.9280  177.5860  142.8370 C   0  0  0  0  0  3  0  0  0  0  0  0
  189.1170  174.9490  147.5290 C   0  0  0  0  0  2  0  0  0  0  0  0
  188.3450  176.4430  144.3050 N   0  0  0  0  0  0  0  0  0  0  0  0
  189.0350  176.1760  145.3730 C   0  0  0  0  0  0  0  0  0  0  0  0
  190.3010  176.9300  145.6850 C   0  0  2  0  0  3  0  0  0  0  0  0
  193.7120  176.7790  145.4760 C   0  0  0  0  0  3  0  0  0  0  0  0
  192.0340  173.5670  144.5260 C   0  0  0  0  0  0  0  0  0  0  0  0
  194.0140  174.0290  145.2670 C   0  0  0  0  0  0  0  0  0  0  0  0
  192.7290  172.4130  144.6450 N   0  0  0  0  0  0  0  0  0  0  0  0
  195.0940  174.7760  145.7320 C   0  0  0  0  0  0  0  0  0  0  0  0
  194.9350  176.1690  145.8350 C   0  0  0  0  0  3  0  0  0  0  0  0
  193.9470  172.6950  145.1000 N   0  0  0  0  0  2  0  0  0  0  0  0
  196.2930  174.1700  146.0850 O   0  0  0  0  0  1  0  0  0  0  0  0
  192.6340  176.0000  145.0080 C   0  0  0  0  0  0  0  0  0  0  0  0
  192.8310  174.6180  144.9170 C   0  0  0  0  0  0  0  0  0  0  0  0
  190.6800  173.6700  144.0650 N   0  0  0  0  0  2  0  0  0  0  0  0
  188.9390  173.4900  142.3880 C   0  0  0  0  0  2  0  0  0  0  0  0
  190.2240  173.5110  142.7150 C   0  0  0  0  0  3  0  0  0  0  0  0
  187.5710  178.0160  142.5890 N   0  0  0  0  0  2  0  0  0  0  0  0
  185.7080  178.2850  140.9140 C   0  0  0  0  0  1  0  0  0  0  0  0
  186.8630  177.5150  141.4470 C   0  0  0  0  0  0  0  0  0  0  0  0
  187.2060  176.4460  140.8780 O   0  0  0  0  0  0  0  0  0  0  0  0
  1  4  2  0  0  0  0
  2  8  1  0  0  0  0
  4 20  1  0  0  0  0
  4 11  1  0  0  0  0
  5  9  1  0  0  0  0
  6  3  1  0  0  0  0
  7  5  2  0  0  0  0
  7  1  1  0  0  0  0
  8  3  1  0  0  0  0
  9 10  2  0  0  0  0
 10 11  1  0  0  0  0
 10  2  1  0  0  0  0
 11  6  1  1  0  0  0
 12 17  1  0  0  0  0
 13 15  2  0  0  0  0
 13 21  1  0  0  0  0
 14 16  1  0  0  0  0
 15 18  1  0  0  0  0
 16 17  2  0  0  0  0
 16 19  1  0  0  0  0
 18 14  1  0  0  0  0
 20 12  2  0  0  0  0
 21 20  1  0  0  0  0
 21 14  2  0  0  0  0
 22 13  1  0  0  0  0
 23 24  2  0  0  0  0
 24 22  1  0  0  0  0
 25  5  1  0  0  0  0
 26 27  1  0  0  0  0
 27 25  1  0  0  0  0
 28 27  2  0  0  0  0
M  END
>  <MODEL>
5

>  <REMARK>
 VINA RESULT:      -7.1      2.624      6.800
  Name = 
  4 active torsions:
  status: ('A' for Active; 'I' for Inactive)
    1  A    between atoms: N_3  and  C_15
    2  A    between atoms: C_5  and  N_19
    3  A    between atoms: C_9  and  C_22
    4  A    between atoms: C_14  and  N_19
                            x       y       z     vdW  Elec       q    Type
                         _______ _______ _______ _____ _____    ______ ____

>  <TORSDO>
F 4

$$$$
=
 OpenBabel11042414493D

 28 31  0  0  1  0  0  0  0  0999 V2000
  190.0830  177.5540  144.3910 C   0  0  0  0  0  3  0  0  0  0  0  0
  188.4570  174.2890  142.2120 O   0  0  0  0  0  0  0  0  0  0  0  0
  190.5850  173.2930  142.8150 C   0  0  0  0  0  2  0  0  0  0  0  0
  190.5520  176.3300  144.1390 C   0  0  0  0  0  0  0  0  0  0  0  0
  187.5750  177.2290  144.2830 C   0  0  0  0  0  0  0  0  0  0  0  0
  190.3810  173.7820  144.2410 C   0  0  0  0  0  2  0  0  0  0  0  0
  188.6770  177.8800  144.6990 C   0  0  0  0  0  3  0  0  0  0  0  0
  189.2180  173.0830  142.1850 C   0  0  0  0  0  2  0  0  0  0  0  0
  187.6290  176.1440  143.3380 N   0  0  0  0  0  0  0  0  0  0  0  0
  188.5280  175.2080  143.2660 C   0  0  0  0  0  0  0  0  0  0  0  0
  189.6490  175.1320  144.2700 C   0  0  2  0  0  3  0  0  0  0  0  0
  192.3710  176.0980  142.4390 C   0  0  0  0  0  3  0  0  0  0  0  0
  192.9840  176.2430  146.1320 C   0  0  0  0  0  0  0  0  0  0  0  0
  194.3050  176.0570  144.4270 C   0  0  0  0  0  0  0  0  0  0  0  0
  194.2590  176.1810  146.5800 N   0  0  0  0  0  0  0  0  0  0  0  0
  194.7220  175.9620  143.1010 C   0  0  0  0  0  0  0  0  0  0  0  0
  193.7370  175.9830  142.0980 C   0  0  0  0  0  3  0  0  0  0  0  0
  195.0720  176.0660  145.5330 N   0  0  0  0  0  2  0  0  0  0  0  0
  196.0670  175.8510  142.7740 O   0  0  0  0  0  1  0  0  0  0  0  0
  191.9750  176.1920  143.7880 C   0  0  0  0  0  0  0  0  0  0  0  0
  192.9830  176.1660  144.7580 C   0  0  0  0  0  0  0  0  0  0  0  0
  191.8240  176.3700  146.9630 N   0  0  0  0  0  2  0  0  0  0  0  0
  189.9010  175.0560  147.6360 C   0  0  0  0  0  2  0  0  0  0  0  0
  191.1970  175.3250  147.7180 C   0  0  0  0  0  3  0  0  0  0  0  0
  186.2750  177.7210  144.6410 N   0  0  0  0  0  2  0  0  0  0  0  0
  184.2520  178.1550  146.0790 C   0  0  0  0  0  1  0  0  0  0  0  0
  185.5750  177.5090  145.8740 C   0  0  0  0  0  0  0  0  0  0  0  0
  186.0500  176.7770  146.7820 O   0  0  0  0  0  0  0  0  0  0  0  0
  1  7  1  0  0  0  0
  2 10  1  0  0  0  0
  3  6  1  0  0  0  0
  4 11  1  0  0  0  0
  4  1  2  0  0  0  0
  5 25  1  0  0  0  0
  5  7  2  0  0  0  0
  8  2  1  0  0  0  0
  8  3  1  0  0  0  0
  9  5  1  0  0  0  0
 10  9  2  0  0  0  0
 10 11  1  0  0  0  0
 11  6  1  6  0  0  0
 12 20  1  0  0  0  0
 13 15  2  0  0  0  0
 13 22  1  0  0  0  0
 14 21  1  0  0  0  0
 14 18  1  0  0  0  0
 16 14  2  0  0  0  0
 17 12  2  0  0  0  0
 17 16  1  0  0  0  0
 18 15  1  0  0  0  0
 19 16  1  0  0  0  0
 20  4  1  0  0  0  0
 20 21  2  0  0  0  0
 21 13  1  0  0  0  0
 22 24  1  0  0  0  0
 23 24  2  0  0  0  0
 25 27  1  0  0  0  0
 27 26  1  0  0  0  0
 27 28  2  0  0  0  0
M  END
>  <MODEL>
6

>  <REMARK>
 VINA RESULT:      -7.1      1.964      6.414
  Name = 
  4 active torsions:
  status: ('A' for Active; 'I' for Inactive)
    1  A    between atoms: N_3  and  C_15
    2  A    between atoms: C_5  and  N_19
    3  A    between atoms: C_9  and  C_22
    4  A    between atoms: C_14  and  N_19
                            x       y       z     vdW  Elec       q    Type
                         _______ _______ _______ _____ _____    ______ ____

>  <TORSDO>
F 4

$$$$
=
 OpenBabel11042414493D

 28 31  0  0  1  0  0  0  0  0999 V2000
  189.7610  178.0070  142.9810 C   0  0  0  0  0  3  0  0  0  0  0  0
  189.3630  173.8410  143.7110 O   0  0  0  0  0  0  0  0  0  0  0  0
  187.7080  174.0560  141.9500 C   0  0  0  0  0  2  0  0  0  0  0  0
  189.0040  177.0710  142.4040 C   0  0  0  0  0  0  0  0  0  0  0  0
  191.7340  176.6810  143.8480 C   0  0  0  0  0  0  0  0  0  0  0  0
  188.7100  174.8680  141.1430 C   0  0  0  0  0  2  0  0  0  0  0  0
  191.1550  177.8200  143.4250 C   0  0  0  0  0  3  0  0  0  0  0  0
  188.4830  173.1130  142.8560 C   0  0  0  0  0  2  0  0  0  0  0  0
  190.9930  175.4620  144.0410 N   0  0  0  0  0  0  0  0  0  0  0  0
  190.0250  175.0050  143.3030 C   0  0  0  0  0  0  0  0  0  0  0  0
  189.5950  175.7300  142.0550 C   0  0  2  0  0  3  0  0  0  0  0  0
  187.2270  177.6600  140.7470 C   0  0  0  0  0  3  0  0  0  0  0  0
  186.6030  177.2980  144.4230 C   0  0  0  0  0  0  0  0  0  0  0  0
  185.3140  177.7810  142.7530 C   0  0  0  0  0  0  0  0  0  0  0  0
  185.3460  177.4820  144.8890 N   0  0  0  0  0  0  0  0  0  0  0  0
  184.9100  178.0320  141.4430 C   0  0  0  0  0  0  0  0  0  0  0  0
  185.8850  177.9700  140.4310 C   0  0  0  0  0  3  0  0  0  0  0  0
  184.5520  177.7790  143.8630 N   0  0  0  0  0  2  0  0  0  0  0  0
  183.5890  178.3340  141.1400 O   0  0  0  0  0  1  0  0  0  0  0  0
  187.6090  177.4100  142.0800 C   0  0  0  0  0  0  0  0  0  0  0  0
  186.6120  177.4830  143.0600 C   0  0  0  0  0  0  0  0  0  0  0  0
  187.7400  176.9630  145.2300 N   0  0  0  0  0  2  0  0  0  0  0  0
  188.6720  175.3970  146.8280 C   0  0  0  0  0  2  0  0  0  0  0  0
  187.7230  176.2530  146.4750 C   0  0  0  0  0  3  0  0  0  0  0  0
  193.0980  176.6940  144.2940 N   0  0  0  0  0  2  0  0  0  0  0  0
  195.0380  176.5610  145.8960 C   0  0  0  0  0  1  0  0  0  0  0  0
  193.5740  176.5850  145.6420 C   0  0  0  0  0  0  0  0  0  0  0  0
  192.7780  176.5220  146.6160 O   0  0  0  0  0  0  0  0  0  0  0  0
  1  7  1  0  0  0  0
  3  8  1  0  0  0  0
  4  1  2  0  0  0  0
  5  9  1  0  0  0  0
  5 25  1  0  0  0  0
  6  3  1  0  0  0  0
  7  5  2  0  0  0  0
  8  2  1  0  0  0  0
 10  2  1  0  0  0  0
 10  9  2  0  0  0  0
 11  6  1  1  0  0  0
 11  4  1  0  0  0  0
 11 10  1  0  0  0  0
 12 20  1  0  0  0  0
 13 15  2  0  0  0  0
 13 22  1  0  0  0  0
 14 21  1  0  0  0  0
 14 18  1  0  0  0  0
 16 14  2  0  0  0  0
 17 12  2  0  0  0  0
 17 16  1  0  0  0  0
 18 15  1  0  0  0  0
 19 16  1  0  0  0  0
 20  4  1  0  0  0  0
 20 21  2  0  0  0  0
 21 13  1  0  0  0  0
 22 24  1  0  0  0  0
 24 23  2  0  0  0  0
 25 27  1  0  0  0  0
 27 26  1  0  0  0  0
 27 28  2  0  0  0  0
M  END
>  <MODEL>
7

>  <REMARK>
 VINA RESULT:      -7.0      1.828      2.315
  Name = 
  4 active torsions:
  status: ('A' for Active; 'I' for Inactive)
    1  A    between atoms: N_3  and  C_15
    2  A    between atoms: C_5  and  N_19
    3  A    between atoms: C_9  and  C_22
    4  A    between atoms: C_14  and  N_19
                            x       y       z     vdW  Elec       q    Type
                         _______ _______ _______ _____ _____    ______ ____

>  <TORSDO>
F 4

$$$$
=
 OpenBabel11042414493D

 28 31  0  0  1  0  0  0  0  0999 V2000
  189.3200  173.9440  145.2330 C   0  0  0  0  0  3  0  0  0  0  0  0
  191.4780  176.7000  142.8250 O   0  0  0  0  0  0  0  0  0  0  0  0
  190.2590  178.2930  144.1880 C   0  0  0  0  0  2  0  0  0  0  0  0
  189.3690  175.2780  145.2340 C   0  0  0  0  0  0  0  0  0  0  0  0
  191.5730  173.2970  144.2810 C   0  0  0  0  0  0  0  0  0  0  0  0
  190.6380  177.4880  145.4230 C   0  0  0  0  0  2  0  0  0  0  0  0
  190.4720  173.0490  145.0140 C   0  0  0  0  0  3  0  0  0  0  0  0
  191.3360  178.0850  143.1360 C   0  0  0  0  0  2  0  0  0  0  0  0
  191.7180  174.4840  143.4800 N   0  0  0  0  0  0  0  0  0  0  0  0
  191.3290  175.6880  143.7810 C   0  0  0  0  0  0  0  0  0  0  0  0
  190.6940  175.9860  145.1140 C   0  0  2  0  0  3  0  0  0  0  0  0
  187.6890  176.4210  146.6910 C   0  0  0  0  0  3  0  0  0  0  0  0
  187.3790  176.1650  142.9660 C   0  0  0  0  0  0  0  0  0  0  0  0
  186.1330  177.0710  144.4870 C   0  0  0  0  0  0  0  0  0  0  0  0
  186.3080  176.7310  142.3650 N   0  0  0  0  0  0  0  0  0  0  0  0
  185.6950  177.4790  145.7450 C   0  0  0  0  0  0  0  0  0  0  0  0
  186.4880  177.1460  146.8580 C   0  0  0  0  0  3  0  0  0  0  0  0
  185.5410  177.2880  143.2980 N   0  0  0  0  0  2  0  0  0  0  0  0
  184.5150  178.1930  145.9020 O   0  0  0  0  0  1  0  0  0  0  0  0
  188.1100  176.0190  145.4080 C   0  0  0  0  0  0  0  0  0  0  0  0
  187.2940  176.3670  144.3250 C   0  0  0  0  0  0  0  0  0  0  0  0
  188.4330  175.4680  142.2880 N   0  0  0  0  0  2  0  0  0  0  0  0
  187.8230  173.1390  142.0060 C   0  0  0  0  0  2  0  0  0  0  0  0
  188.3000  174.2720  141.5090 C   0  0  0  0  0  3  0  0  0  0  0  0
  192.5780  172.2830  144.1350 N   0  0  0  0  0  2  0  0  0  0  0  0
  194.6820  170.9850  144.6250 C   0  0  0  0  0  1  0  0  0  0  0  0
  193.7910  172.1450  144.8880 C   0  0  0  0  0  0  0  0  0  0  0  0
  194.1230  172.9930  145.7580 O   0  0  0  0  0  0  0  0  0  0  0  0
  1  4  2  0  0  0  0
  2  8  1  0  0  0  0
  2 10  1  0  0  0  0
  3  6  1  0  0  0  0
  4 20  1  0  0  0  0
  5  7  2  0  0  0  0
  7  1  1  0  0  0  0
  8  3  1  0  0  0  0
  9 10  2  0  0  0  0
  9  5  1  0  0  0  0
 10 11  1  0  0  0  0
 11  4  1  0  0  0  0
 11  6  1  6  0  0  0
 12 17  1  0  0  0  0
 13 21  1  0  0  0  0
 14 16  1  0  0  0  0
 15 13  2  0  0  0  0
 15 18  1  0  0  0  0
 16 19  1  0  0  0  0
 16 17  2  0  0  0  0
 18 14  1  0  0  0  0
 20 12  2  0  0  0  0
 21 14  2  0  0  0  0
 21 20  1  0  0  0  0
 22 13  1  0  0  0  0
 24 23  2  0  0  0  0
 24 22  1  0  0  0  0
 25  5  1  0  0  0  0
 25 27  1  0  0  0  0
 26 27  1  0  0  0  0
 27 28  2  0  0  0  0
M  END
>  <MODEL>
8

>  <REMARK>
 VINA RESULT:      -6.9      2.497      3.891
  Name = 
  4 active torsions:
  status: ('A' for Active; 'I' for Inactive)
    1  A    between atoms: N_3  and  C_15
    2  A    between atoms: C_5  and  N_19
    3  A    between atoms: C_9  and  C_22
    4  A    between atoms: C_14  and  N_19
                            x       y       z     vdW  Elec       q    Type
                         _______ _______ _______ _____ _____    ______ ____

>  <TORSDO>
F 4

$$$$
=
 OpenBabel11042414493D

 28 31  0  0  1  0  0  0  0  0999 V2000
  189.3160  174.6580  146.4810 C   0  0  0  0  0  3  0  0  0  0  0  0
  190.5830  177.8770  144.0150 O   0  0  0  0  0  0  0  0  0  0  0  0
  191.4060  176.0420  142.6590 C   0  0  0  0  0  2  0  0  0  0  0  0
  189.9350  174.6830  145.2980 C   0  0  0  0  0  0  0  0  0  0  0  0
  188.0360  176.8400  146.4930 C   0  0  0  0  0  0  0  0  0  0  0  0
  190.0640  175.3450  142.8330 C   0  0  0  0  0  2  0  0  0  0  0  0
  188.2350  175.5710  146.8950 C   0  0  0  0  0  3  0  0  0  0  0  0
  191.1790  177.5410  142.7630 C   0  0  0  0  0  2  0  0  0  0  0  0
  188.9710  177.5410  145.6520 N   0  0  0  0  0  0  0  0  0  0  0  0
  189.6490  177.0550  144.6560 C   0  0  0  0  0  0  0  0  0  0  0  0
  189.4660  175.6250  144.2190 C   0  0  2  0  0  3  0  0  0  0  0  0
  190.7910  172.4790  144.4850 C   0  0  0  0  0  3  0  0  0  0  0  0
  192.9730  175.1360  145.9720 C   0  0  0  0  0  0  0  0  0  0  0  0
  193.3880  173.1640  145.1820 C   0  0  0  0  0  0  0  0  0  0  0  0
  194.3020  174.9050  146.0670 N   0  0  0  0  0  0  0  0  0  0  0  0
  193.1700  171.9160  144.6030 C   0  0  0  0  0  0  0  0  0  0  0  0
  191.8510  171.5740  144.2530 C   0  0  0  0  0  3  0  0  0  0  0  0
  194.5590  173.6930  145.5820 N   0  0  0  0  0  2  0  0  0  0  0  0
  194.2170  171.0330  144.3760 O   0  0  0  0  0  1  0  0  0  0  0  0
  191.0380  173.7360  145.0730 C   0  0  0  0  0  0  0  0  0  0  0  0
  192.3620  174.0390  145.4100 C   0  0  0  0  0  0  0  0  0  0  0  0
  192.3130  176.3370  146.3930 N   0  0  0  0  0  2  0  0  0  0  0  0
  191.2130  177.1660  148.3880 C   0  0  0  0  0  2  0  0  0  0  0  0
  192.3220  176.8980  147.7120 C   0  0  0  0  0  3  0  0  0  0  0  0
  186.9520  177.6040  147.0440 N   0  0  0  0  0  2  0  0  0  0  0  0
  184.6240  178.5420  147.2630 C   0  0  0  0  0  1  0  0  0  0  0  0
  185.6300  177.7500  146.5080 C   0  0  0  0  0  0  0  0  0  0  0  0
  185.3080  177.2340  145.4060 O   0  0  0  0  0  0  0  0  0  0  0  0
  1  7  1  0  0  0  0
  2 10  1  0  0  0  0
  3  8  1  0  0  0  0
  3  6  1  0  0  0  0
  4  1  2  0  0  0  0
  5  7  2  0  0  0  0
  5 25  1  0  0  0  0
  8  2  1  0  0  0  0
  9  5  1  0  0  0  0
 10  9  2  0  0  0  0
 11  6  1  6  0  0  0
 11 10  1  0  0  0  0
 11  4  1  0  0  0  0
 12 20  1  0  0  0  0
 13 15  2  0  0  0  0
 13 22  1  0  0  0  0
 14 21  1  0  0  0  0
 14 18  1  0  0  0  0
 16 14  2  0  0  0  0
 17 12  2  0  0  0  0
 17 16  1  0  0  0  0
 18 15  1  0  0  0  0
 19 16  1  0  0  0  0
 20  4  1  0  0  0  0
 20 21  2  0  0  0  0
 21 13  1  0  0  0  0
 22 24  1  0  0  0  0
 24 23  2  0  0  0  0
 27 25  1  0  0  0  0
 27 26  1  0  0  0  0
 28 27  2  0  0  0  0
M  END
>  <MODEL>
9

>  <REMARK>
 VINA RESULT:      -6.9      2.684      6.873
  Name = 
  4 active torsions:
  status: ('A' for Active; 'I' for Inactive)
    1  A    between atoms: N_3  and  C_15
    2  A    between atoms: C_5  and  N_19
    3  A    between atoms: C_9  and  C_22
    4  A    between atoms: C_14  and  N_19
                            x       y       z     vdW  Elec       q    Type
                         _______ _______ _______ _____ _____    ______ ____

>  <TORSDO>
F 4

$$$$
