=
 OpenBabel11042416253D

 38 43  0  0  1  0  0  0  0  0999 V2000
  188.6150  176.5780  144.6080 C   0  0  0  0  0  0  0  0  0  0  0  0
  189.6220  172.7520  141.4630 C   0  0  0  0  0  0  0  0  0  0  0  0
  189.9380  172.3210  142.7730 C   0  0  0  0  0  3  0  0  0  0  0  0
  188.3730  177.4130  145.8340 C   0  0  0  0  0  2  0  0  0  0  0  0
  189.7820  171.8800  140.3940 O   0  0  0  0  0  1  0  0  0  0  0  0
  187.6620  178.4030  143.2280 C   0  0  0  0  0  2  0  0  0  0  0  0
  189.7730  173.2310  143.8220 C   0  0  0  0  0  0  0  0  0  0  0  0
  189.3270  174.4810  143.5690 C   0  0  0  0  0  0  0  0  0  0  0  0
  186.2390  178.4960  143.8130 C   0  0  2  0  0  3  0  0  0  0  0  0
  185.9300  177.5150  144.9590 C   0  0  0  0  0  2  0  0  0  0  0  0
  189.5450  174.4540  145.8760 C   0  0  2  0  0  3  0  0  0  0  0  0
  189.1340  174.0620  141.2320 C   0  0  0  0  0  3  0  0  0  0  0  0
  189.9750  173.0690  145.2950 C   0  0  0  0  0  2  0  0  0  0  0  0
  189.1820  175.2630  144.7120 N   0  0  0  0  0  0  0  0  0  0  0  0
  188.2770  177.0410  143.3740 C   0  0  0  0  0  0  0  0  0  0  0  0
  188.9780  174.9360  142.3190 C   0  0  0  0  0  0  0  0  0  0  0  0
  188.4670  176.2400  142.2190 O   0  0  0  0  0  0  0  0  0  0  0  0
  186.8840  177.6210  146.1560 C   0  0  0  0  0  2  0  0  0  0  0  0
  182.8830  178.2690  142.0730 C   0  0  0  0  0  3  0  0  0  0  0  0
  183.8570  178.3780  143.0700 C   0  0  0  0  0  3  0  0  0  0  0  0
  185.2140  178.3740  142.7310 C   0  0  0  0  0  0  0  0  0  0  0  0
  184.6180  178.1510  140.3880 C   0  0  0  0  0  3  0  0  0  0  0  0
  185.5920  178.2600  141.3830 C   0  0  0  0  0  3  0  0  0  0  0  0
  183.2630  178.1550  140.7330 C   0  0  0  0  0  0  0  0  0  0  0  0
  182.3180  178.0490  139.7680 F   0  0  0  0  0  0  0  0  0  0  0  0
  191.7790  175.6200  145.8890 N   0  0  0  0  0  2  0  0  0  0  0  0
  190.6640  175.1300  147.8820 O   0  0  0  0  0  0  0  0  0  0  0  0
  190.6780  175.0840  146.6210 C   0  0  0  0  0  0  0  0  0  0  0  0
  192.9190  176.2320  146.5540 C   0  0  0  0  0  2  0  0  0  0  0  0
  193.9250  174.7920  144.8020 C   0  0  0  0  0  2  0  0  0  0  0  0
  194.8510  176.9210  145.2510 N   0  0  0  0  0  2  0  0  0  0  0  0
  194.2080  175.7850  145.8890 C   0  0  1  0  0  3  0  0  0  0  0  0
  195.5470  176.4270  144.1290 N   0  0  0  0  0  2  0  0  0  0  0  0
  194.9250  175.1640  143.7400 C   0  0  2  0  0  3  0  0  0  0  0  0
  194.2700  175.2600  142.3590 C   0  0  1  0  0  3  0  0  0  0  0  0
  192.7500  175.3190  142.4420 C   0  0  0  0  0  1  0  0  0  0  0  0
  195.4830  175.8680  140.6110 C   0  0  0  0  0  1  0  0  0  0  0  0
  194.7490  176.3820  141.6810 O   0  0  0  0  0  0  0  0  0  0  0  0
  1 14  1  0  0  0  0
  1  4  1  0  0  0  0
  2  3  1  0  0  0  0
  3  7  2  0  0  0  0
  4 18  1  0  0  0  0
  5  2  1  0  0  0  0
  6 15  1  0  0  0  0
  6  9  1  0  0  0  0
  7 13  1  0  0  0  0
  8  7  1  0  0  0  0
  8 14  1  0  0  0  0
  9 21  1  6  0  0  0
  9 10  1  0  0  0  0
 10 18  1  0  0  0  0
 11 28  1  6  0  0  0
 12  2  2  0  0  0  0
 12 16  1  0  0  0  0
 13 11  1  0  0  0  0
 14 11  1  0  0  0  0
 15  1  2  0  0  0  0
 16  8  2  0  0  0  0
 17 16  1  0  0  0  0
 17 15  1  0  0  0  0
 19 20  1  0  0  0  0
 21 20  2  0  0  0  0
 22 24  1  0  0  0  0
 22 23  2  0  0  0  0
 23 21  1  0  0  0  0
 24 19  2  0  0  0  0
 25 24  1  0  0  0  0
 26 29  1  0  0  0  0
 26 28  1  0  0  0  0
 28 27  2  0  0  0  0
 30 32  1  0  0  0  0
 31 32  1  0  0  0  0
 32 29  1  6  0  0  0
 33 31  1  0  0  0  0
 34 35  1  6  0  0  0
 34 33  1  0  0  0  0
 34 30  1  0  0  0  0
 35 36  1  1  0  0  0
 37 38  1  0  0  0  0
 38 35  1  0  0  0  0
M  END
>  <MODEL>
1

>  <REMARK>
 VINA RESULT:      -8.6      0.000      0.000
  Name = 
  6 active torsions:
  status: ('A' for Active; 'I' for Inactive)
    1  A    between atoms: C_10  and  O_26
    2  A    between atoms: C_10  and  C_36
    3  A    between atoms: C_14  and  C_15
    4  A    between atoms: C_18  and  C_33
    5  A    between atoms: C_19  and  C_20
    6  A    between atoms: C_19  and  N_24
                            x       y       z     vdW  Elec       q    Type
                         _______ _______ _______ _____ _____    ______ ____

>  <TORSDO>
F 6

$$$$
=
 OpenBabel11042416253D

 38 43  0  0  1  0  0  0  0  0999 V2000
  188.5810  176.6290  144.5630 C   0  0  0  0  0  0  0  0  0  0  0  0
  189.6280  172.8180  141.4130 C   0  0  0  0  0  0  0  0  0  0  0  0
  189.9520  172.3910  142.7220 C   0  0  0  0  0  3  0  0  0  0  0  0
  188.3320  177.4610  145.7910 C   0  0  0  0  0  2  0  0  0  0  0  0
  189.7970  171.9500  140.3430 O   0  0  0  0  0  1  0  0  0  0  0  0
  187.6030  178.4440  143.1880 C   0  0  0  0  0  2  0  0  0  0  0  0
  189.7780  173.2970  143.7720 C   0  0  0  0  0  0  0  0  0  0  0  0
  189.3160  174.5420  143.5220 C   0  0  0  0  0  0  0  0  0  0  0  0
  186.1810  178.5190  143.7760 C   0  0  2  0  0  3  0  0  0  0  0  0
  185.8860  177.5340  144.9210 C   0  0  0  0  0  2  0  0  0  0  0  0
  189.5390  174.5160  145.8280 C   0  0  2  0  0  3  0  0  0  0  0  0
  189.1240  174.1230  141.1840 C   0  0  0  0  0  3  0  0  0  0  0  0
  189.9850  173.1370  145.2450 C   0  0  0  0  0  2  0  0  0  0  0  0
  189.1640  175.3210  144.6660 N   0  0  0  0  0  0  0  0  0  0  0  0
  188.2360  177.0890  143.3310 C   0  0  0  0  0  0  0  0  0  0  0  0
  188.9600  174.9940  142.2730 C   0  0  0  0  0  0  0  0  0  0  0  0
  188.4330  176.2910  142.1750 O   0  0  0  0  0  0  0  0  0  0  0  0
  186.8410  177.6500  146.1160 C   0  0  0  0  0  2  0  0  0  0  0  0
  182.8240  178.2760  142.0400 C   0  0  0  0  0  3  0  0  0  0  0  0
  183.7980  178.3960  143.0350 C   0  0  0  0  0  3  0  0  0  0  0  0
  185.1560  178.3860  142.6950 C   0  0  0  0  0  0  0  0  0  0  0  0
  184.5580  178.1360  140.3550 C   0  0  0  0  0  3  0  0  0  0  0  0
  185.5320  178.2560  141.3490 C   0  0  0  0  0  3  0  0  0  0  0  0
  183.2030  178.1460  140.7010 C   0  0  0  0  0  0  0  0  0  0  0  0
  182.2570  178.0300  139.7380 F   0  0  0  0  0  0  0  0  0  0  0  0
  191.7690  175.6910  145.8390 N   0  0  0  0  0  2  0  0  0  0  0  0
  190.6470  175.2180  147.8310 O   0  0  0  0  0  0  0  0  0  0  0  0
  190.6660  175.1590  146.5710 C   0  0  0  0  0  0  0  0  0  0  0  0
  192.9030  176.3160  146.5020 C   0  0  0  0  0  2  0  0  0  0  0  0
  195.0490  175.1070  146.2120 C   0  0  0  0  0  2  0  0  0  0  0  0
  193.7800  175.7230  144.3140 N   0  0  0  0  0  2  0  0  0  0  0  0
  194.1490  176.1650  145.6490 C   0  0  1  0  0  3  0  0  0  0  0  0
  194.8460  174.9420  143.8270 N   0  0  0  0  0  2  0  0  0  0  0  0
  195.5900  174.4360  144.9770 C   0  0  2  0  0  3  0  0  0  0  0  0
  195.5010  172.9110  145.0810 C   0  0  1  0  0  3  0  0  0  0  0  0
  196.6990  172.3080  145.8030 C   0  0  0  0  0  1  0  0  0  0  0  0
  193.6350  171.7500  144.8220 C   0  0  0  0  0  1  0  0  0  0  0  0
  194.3230  172.5460  145.7370 O   0  0  0  0  0  0  0  0  0  0  0  0
  1 14  1  0  0  0  0
  1  4  1  0  0  0  0
  2  3  1  0  0  0  0
  3  7  2  0  0  0  0
  4 18  1  0  0  0  0
  5  2  1  0  0  0  0
  6 15  1  0  0  0  0
  6  9  1  0  0  0  0
  7 13  1  0  0  0  0
  8  7  1  0  0  0  0
  8 14  1  0  0  0  0
  9 21  1  6  0  0  0
  9 10  1  0  0  0  0
 10 18  1  0  0  0  0
 11 28  1  6  0  0  0
 12  2  2  0  0  0  0
 12 16  1  0  0  0  0
 13 11  1  0  0  0  0
 14 11  1  0  0  0  0
 15  1  2  0  0  0  0
 16  8  2  0  0  0  0
 17 16  1  0  0  0  0
 17 15  1  0  0  0  0
 19 20  1  0  0  0  0
 21 20  2  0  0  0  0
 22 24  1  0  0  0  0
 22 23  2  0  0  0  0
 23 21  1  0  0  0  0
 24 19  2  0  0  0  0
 25 24  1  0  0  0  0
 26 29  1  0  0  0  0
 26 28  1  0  0  0  0
 28 27  2  0  0  0  0
 31 32  1  0  0  0  0
 32 30  1  0  0  0  0
 32 29  1  1  0  0  0
 33 31  1  0  0  0  0
 33 34  1  0  0  0  0
 34 35  1  1  0  0  0
 34 30  1  0  0  0  0
 35 38  1  0  0  0  0
 35 36  1  1  0  0  0
 37 38  1  0  0  0  0
M  END
>  <MODEL>
2

>  <REMARK>
 VINA RESULT:      -8.5      1.509      1.866
  Name = 
  6 active torsions:
  status: ('A' for Active; 'I' for Inactive)
    1  A    between atoms: C_10  and  O_26
    2  A    between atoms: C_10  and  C_36
    3  A    between atoms: C_14  and  C_15
    4  A    between atoms: C_18  and  C_33
    5  A    between atoms: C_19  and  C_20
    6  A    between atoms: C_19  and  N_24
                            x       y       z     vdW  Elec       q    Type
                         _______ _______ _______ _____ _____    ______ ____

>  <TORSDO>
F 6

$$$$
=
 OpenBabel11042416253D

 38 43  0  0  1  0  0  0  0  0999 V2000
  188.6250  176.6100  144.6710 C   0  0  0  0  0  0  0  0  0  0  0  0
  189.6300  172.7740  141.5370 C   0  0  0  0  0  0  0  0  0  0  0  0
  189.9490  172.3490  142.8480 C   0  0  0  0  0  3  0  0  0  0  0  0
  188.3850  177.4490  145.8940 C   0  0  0  0  0  2  0  0  0  0  0  0
  189.7890  171.8990  140.4710 O   0  0  0  0  0  1  0  0  0  0  0  0
  187.6670  178.4290  143.2870 C   0  0  0  0  0  2  0  0  0  0  0  0
  189.7860  173.2610  143.8940 C   0  0  0  0  0  0  0  0  0  0  0  0
  189.3370  174.5100  143.6380 C   0  0  0  0  0  0  0  0  0  0  0  0
  186.2450  178.5220  143.8750 C   0  0  2  0  0  3  0  0  0  0  0  0
  185.9400  177.5450  145.0240 C   0  0  0  0  0  2  0  0  0  0  0  0
  189.5610  174.4920  145.9440 C   0  0  2  0  0  3  0  0  0  0  0  0
  189.1400  174.0830  141.3030 C   0  0  0  0  0  3  0  0  0  0  0  0
  189.9910  173.1050  145.3680 C   0  0  0  0  0  2  0  0  0  0  0  0
  189.1940  175.2960  144.7790 N   0  0  0  0  0  0  0  0  0  0  0  0
  188.2840  177.0680  143.4360 C   0  0  0  0  0  0  0  0  0  0  0  0
  188.9850  174.9600  142.3870 C   0  0  0  0  0  0  0  0  0  0  0  0
  188.4730  176.2630  142.2840 O   0  0  0  0  0  0  0  0  0  0  0  0
  186.8970  177.6560  146.2190 C   0  0  0  0  0  2  0  0  0  0  0  0
  184.6930  178.1550  140.4400 C   0  0  0  0  0  3  0  0  0  0  0  0
  185.6360  178.2780  141.4640 C   0  0  0  0  0  3  0  0  0  0  0  0
  185.2180  178.3950  142.7950 C   0  0  0  0  0  0  0  0  0  0  0  0
  182.9050  178.2620  142.0700 C   0  0  0  0  0  3  0  0  0  0  0  0
  183.8470  178.3860  143.0950 C   0  0  0  0  0  3  0  0  0  0  0  0
  183.3280  178.1470  140.7430 C   0  0  0  0  0  0  0  0  0  0  0  0
  182.4150  178.0270  139.7490 F   0  0  0  0  0  0  0  0  0  0  0  0
  191.8160  175.6170  145.9520 N   0  0  0  0  0  2  0  0  0  0  0  0
  190.6640  175.2140  147.9430 O   0  0  0  0  0  0  0  0  0  0  0  0
  190.6940  175.1260  146.6840 C   0  0  0  0  0  0  0  0  0  0  0  0
  192.9570  176.2310  146.6120 C   0  0  0  0  0  2  0  0  0  0  0  0
  193.9340  174.2810  145.4290 C   0  0  0  0  0  2  0  0  0  0  0  0
  194.9610  176.4040  145.2490 N   0  0  0  0  0  2  0  0  0  0  0  0
  194.2390  175.5470  146.1740 C   0  0  1  0  0  3  0  0  0  0  0  0
  195.6620  175.5600  144.3640 N   0  0  0  0  0  2  0  0  0  0  0  0
  194.9840  174.2670  144.3510 C   0  0  2  0  0  3  0  0  0  0  0  0
  194.3760  173.9620  142.9780 C   0  0  1  0  0  3  0  0  0  0  0  0
  194.6470  172.5320  142.5290 C   0  0  0  0  0  1  0  0  0  0  0  0
  192.7780  175.1560  142.0190 C   0  0  0  0  0  1  0  0  0  0  0  0
  192.9990  174.1950  143.0050 O   0  0  0  0  0  0  0  0  0  0  0  0
  1 14  1  0  0  0  0
  1  4  1  0  0  0  0
  2  3  1  0  0  0  0
  3  7  2  0  0  0  0
  4 18  1  0  0  0  0
  5  2  1  0  0  0  0
  6 15  1  0  0  0  0
  6  9  1  0  0  0  0
  7 13  1  0  0  0  0
  8  7  1  0  0  0  0
  8 14  1  0  0  0  0
  9 21  1  6  0  0  0
  9 10  1  0  0  0  0
 10 18  1  0  0  0  0
 11 28  1  6  0  0  0
 12  2  2  0  0  0  0
 12 16  1  0  0  0  0
 13 11  1  0  0  0  0
 14 11  1  0  0  0  0
 15  1  2  0  0  0  0
 16  8  2  0  0  0  0
 17 16  1  0  0  0  0
 17 15  1  0  0  0  0
 19 24  2  0  0  0  0
 19 20  1  0  0  0  0
 20 21  2  0  0  0  0
 21 23  1  0  0  0  0
 22 23  2  0  0  0  0
 24 22  1  0  0  0  0
 25 24  1  0  0  0  0
 26 29  1  0  0  0  0
 26 28  1  0  0  0  0
 28 27  2  0  0  0  0
 30 32  1  0  0  0  0
 31 32  1  0  0  0  0
 32 29  1  6  0  0  0
 33 31  1  0  0  0  0
 34 35  1  6  0  0  0
 34 33  1  0  0  0  0
 34 30  1  0  0  0  0
 35 36  1  1  0  0  0
 35 38  1  0  0  0  0
 37 38  1  0  0  0  0
M  END
>  <MODEL>
3

>  <REMARK>
 VINA RESULT:      -8.4      0.810      1.252
  Name = 
  6 active torsions:
  status: ('A' for Active; 'I' for Inactive)
    1  A    between atoms: C_10  and  O_26
    2  A    between atoms: C_10  and  C_36
    3  A    between atoms: C_14  and  C_15
    4  A    between atoms: C_18  and  C_33
    5  A    between atoms: C_19  and  C_20
    6  A    between atoms: C_19  and  N_24
                            x       y       z     vdW  Elec       q    Type
                         _______ _______ _______ _____ _____    ______ ____

>  <TORSDO>
F 6

$$$$
=
 OpenBabel11042416253D

 38 43  0  0  1  0  0  0  0  0999 V2000
  190.4170  175.1040  144.7540 C   0  0  0  0  0  0  0  0  0  0  0  0
  188.7780  173.7180  140.1790 C   0  0  0  0  0  0  0  0  0  0  0  0
  189.5330  172.6430  140.7060 C   0  0  0  0  0  3  0  0  0  0  0  0
  191.0050  175.1060  146.1380 C   0  0  0  0  0  2  0  0  0  0  0  0
  188.1830  173.5950  138.9310 O   0  0  0  0  0  1  0  0  0  0  0  0
  189.4700  177.3500  145.2010 C   0  0  0  0  0  2  0  0  0  0  0  0
  190.1250  172.8070  141.9610 C   0  0  0  0  0  0  0  0  0  0  0  0
  189.9700  173.9690  142.6350 C   0  0  0  0  0  0  0  0  0  0  0  0
  188.5640  177.0480  146.4100 C   0  0  2  0  0  3  0  0  0  0  0  0
  188.5660  175.5850  146.8880 C   0  0  0  0  0  2  0  0  0  0  0  0
  191.2120  172.6710  144.0980 C   0  0  2  0  0  3  0  0  0  0  0  0
  188.6150  174.9150  140.9190 C   0  0  0  0  0  3  0  0  0  0  0  0
  190.9320  171.8610  142.7920 C   0  0  0  0  0  2  0  0  0  0  0  0
  190.5880  173.9760  143.8830 N   0  0  0  0  0  0  0  0  0  0  0  0
  189.6880  176.1620  144.3090 C   0  0  0  0  0  0  0  0  0  0  0  0
  189.2220  175.0290  142.1790 C   0  0  0  0  0  0  0  0  0  0  0  0
  189.0980  176.1470  143.0190 O   0  0  0  0  0  0  0  0  0  0  0  0
  189.9530  175.0430  147.2570 C   0  0  0  0  0  2  0  0  0  0  0  0
  185.6020  178.7320  144.7560 C   0  0  0  0  0  3  0  0  0  0  0  0
  186.9020  178.2920  145.0190 C   0  0  0  0  0  3  0  0  0  0  0  0
  187.1660  177.5110  146.1500 C   0  0  0  0  0  0  0  0  0  0  0  0
  184.8170  177.6110  146.7530 C   0  0  0  0  0  3  0  0  0  0  0  0
  186.1160  177.1710  147.0180 C   0  0  0  0  0  3  0  0  0  0  0  0
  184.5600  178.3920  145.6220 C   0  0  0  0  0  0  0  0  0  0  0  0
  183.3000  178.8190  145.3650 F   0  0  0  0  0  0  0  0  0  0  0  0
  193.3720  173.9030  143.6880 N   0  0  0  0  0  2  0  0  0  0  0  0
  193.3100  171.9960  145.0340 O   0  0  0  0  0  0  0  0  0  0  0  0
  192.6830  172.8220  144.3140 C   0  0  0  0  0  0  0  0  0  0  0  0
  194.8050  174.0970  143.8450 C   0  0  0  0  0  2  0  0  0  0  0  0
  196.6370  175.4530  142.8660 C   0  0  0  0  0  2  0  0  0  0  0  0
  194.4120  175.7780  142.1350 N   0  0  0  0  0  2  0  0  0  0  0  0
  195.2050  175.4600  143.3110 C   0  0  1  0  0  3  0  0  0  0  0  0
  195.2120  176.5820  141.3000 N   0  0  0  0  0  2  0  0  0  0  0  0
  196.6090  176.3200  141.6360 C   0  0  2  0  0  3  0  0  0  0  0  0
  197.3570  175.6660  140.4700 C   0  0  1  0  0  3  0  0  0  0  0  0
  197.9410  174.3100  140.8450 C   0  0  0  0  0  1  0  0  0  0  0  0
  197.3460  175.2710  138.2930 C   0  0  0  0  0  1  0  0  0  0  0  0
  196.5020  175.5250  139.3750 O   0  0  0  0  0  0  0  0  0  0  0  0
  1  4  1  0  0  0  0
  2  3  2  0  0  0  0
  2 12  1  0  0  0  0
  3  7  1  0  0  0  0
  4 18  1  0  0  0  0
  5  2  1  0  0  0  0
  6  9  1  0  0  0  0
  7  8  2  0  0  0  0
  7 13  1  0  0  0  0
  8 14  1  0  0  0  0
  9 21  1  6  0  0  0
  9 10  1  0  0  0  0
 10 18  1  0  0  0  0
 11 28  1  6  0  0  0
 12 16  2  0  0  0  0
 13 11  1  0  0  0  0
 14 11  1  0  0  0  0
 14  1  1  0  0  0  0
 15  1  2  0  0  0  0
 15  6  1  0  0  0  0
 16  8  1  0  0  0  0
 16 17  1  0  0  0  0
 17 15  1  0  0  0  0
 19 20  2  0  0  0  0
 19 24  1  0  0  0  0
 20 21  1  0  0  0  0
 21 23  2  0  0  0  0
 22 23  1  0  0  0  0
 24 22  2  0  0  0  0
 25 24  1  0  0  0  0
 26 29  1  0  0  0  0
 26 28  1  0  0  0  0
 28 27  2  0  0  0  0
 30 32  1  0  0  0  0
 31 32  1  0  0  0  0
 32 29  1  6  0  0  0
 33 34  1  0  0  0  0
 33 31  1  0  0  0  0
 34 35  1  6  0  0  0
 34 30  1  0  0  0  0
 35 36  1  1  0  0  0
 37 38  1  0  0  0  0
 38 35  1  0  0  0  0
M  END
>  <MODEL>
4

>  <REMARK>
 VINA RESULT:      -8.3      2.485      3.524
  Name = 
  6 active torsions:
  status: ('A' for Active; 'I' for Inactive)
    1  A    between atoms: C_10  and  O_26
    2  A    between atoms: C_10  and  C_36
    3  A    between atoms: C_14  and  C_15
    4  A    between atoms: C_18  and  C_33
    5  A    between atoms: C_19  and  C_20
    6  A    between atoms: C_19  and  N_24
                            x       y       z     vdW  Elec       q    Type
                         _______ _______ _______ _____ _____    ______ ____

>  <TORSDO>
F 6

$$$$
=
 OpenBabel11042416253D

 38 43  0  0  1  0  0  0  0  0999 V2000
  190.3450  174.8820  144.7540 C   0  0  0  0  0  0  0  0  0  0  0  0
  188.6880  173.4260  140.2070 C   0  0  0  0  0  0  0  0  0  0  0  0
  189.3910  172.3370  140.7740 C   0  0  0  0  0  3  0  0  0  0  0  0
  190.9200  174.9020  146.1430 C   0  0  0  0  0  2  0  0  0  0  0  0
  188.1000  173.2900  138.9570 O   0  0  0  0  0  1  0  0  0  0  0  0
  189.4920  177.1800  145.1220 C   0  0  0  0  0  2  0  0  0  0  0  0
  189.9780  172.5140  142.0300 C   0  0  0  0  0  0  0  0  0  0  0  0
  189.8680  173.7020  142.6660 C   0  0  0  0  0  0  0  0  0  0  0  0
  188.5630  176.9540  146.3310 C   0  0  2  0  0  3  0  0  0  0  0  0
  188.4970  175.5080  146.8540 C   0  0  0  0  0  2  0  0  0  0  0  0
  191.0390  172.3980  144.1820 C   0  0  2  0  0  3  0  0  0  0  0  0
  188.5700  174.6520  140.9090 C   0  0  0  0  0  3  0  0  0  0  0  0
  190.7360  171.5600  142.8980 C   0  0  0  0  0  2  0  0  0  0  0  0
  190.4740  173.7210  143.9200 N   0  0  0  0  0  0  0  0  0  0  0  0
  189.6660  175.9560  144.2690 C   0  0  0  0  0  0  0  0  0  0  0  0
  189.1700  174.7780  142.1710 C   0  0  0  0  0  0  0  0  0  0  0  0
  189.0870  175.9270  142.9750 O   0  0  0  0  0  0  0  0  0  0  0  0
  189.8560  174.9180  147.2530 C   0  0  0  0  0  2  0  0  0  0  0  0
  184.8440  177.5980  146.6500 C   0  0  0  0  0  3  0  0  0  0  0  0
  186.1360  177.1250  146.8990 C   0  0  0  0  0  3  0  0  0  0  0  0
  187.1880  177.4680  146.0420 C   0  0  0  0  0  0  0  0  0  0  0  0
  185.6470  178.7620  144.6840 C   0  0  0  0  0  3  0  0  0  0  0  0
  186.9380  178.2910  144.9320 C   0  0  0  0  0  3  0  0  0  0  0  0
  184.6000  178.4160  145.5430 C   0  0  0  0  0  0  0  0  0  0  0  0
  183.3470  178.8730  145.3030 F   0  0  0  0  0  0  0  0  0  0  0  0
  193.3970  172.3990  143.2920 N   0  0  0  0  0  2  0  0  0  0  0  0
  192.9710  172.6410  145.5750 O   0  0  0  0  0  0  0  0  0  0  0  0
  192.5140  172.4920  144.4080 C   0  0  0  0  0  0  0  0  0  0  0  0
  194.8420  172.4680  143.4460 C   0  0  0  0  0  2  0  0  0  0  0  0
  194.3580  174.8830  143.1440 C   0  0  0  0  0  2  0  0  0  0  0  0
  196.5630  174.1750  143.6240 N   0  0  0  0  0  2  0  0  0  0  0  0
  195.3580  173.7910  142.9080 C   0  0  1  0  0  3  0  0  0  0  0  0
  196.5950  175.5840  143.6540 N   0  0  0  0  0  2  0  0  0  0  0  0
  195.2270  176.0640  143.4830 C   0  0  2  0  0  3  0  0  0  0  0  0
  194.7230  176.7920  144.7340 C   0  0  1  0  0  3  0  0  0  0  0  0
  193.2480  177.1580  144.6370 C   0  0  0  0  0  1  0  0  0  0  0  0
  194.0980  176.5340  146.8410 C   0  0  0  0  0  1  0  0  0  0  0  0
  194.9400  176.0010  145.8640 O   0  0  0  0  0  0  0  0  0  0  0  0
  1  4  1  0  0  0  0
  2  3  2  0  0  0  0
  2 12  1  0  0  0  0
  3  7  1  0  0  0  0
  4 18  1  0  0  0  0
  5  2  1  0  0  0  0
  6  9  1  0  0  0  0
  7  8  2  0  0  0  0
  7 13  1  0  0  0  0
  8 14  1  0  0  0  0
  9 21  1  6  0  0  0
  9 10  1  0  0  0  0
 10 18  1  0  0  0  0
 11 28  1  6  0  0  0
 12 16  2  0  0  0  0
 13 11  1  0  0  0  0
 14 11  1  0  0  0  0
 14  1  1  0  0  0  0
 15  1  2  0  0  0  0
 15  6  1  0  0  0  0
 16  8  1  0  0  0  0
 16 17  1  0  0  0  0
 17 15  1  0  0  0  0
 19 20  1  0  0  0  0
 21 20  2  0  0  0  0
 22 23  2  0  0  0  0
 22 24  1  0  0  0  0
 23 21  1  0  0  0  0
 24 19  2  0  0  0  0
 25 24  1  0  0  0  0
 26 29  1  0  0  0  0
 26 28  1  0  0  0  0
 28 27  2  0  0  0  0
 30 34  1  0  0  0  0
 31 33  1  0  0  0  0
 32 30  1  0  0  0  0
 32 29  1  1  0  0  0
 32 31  1  0  0  0  0
 34 33  1  0  0  0  0
 34 35  1  1  0  0  0
 35 36  1  6  0  0  0
 35 38  1  0  0  0  0
 38 37  1  0  0  0  0
M  END
>  <MODEL>
5

>  <REMARK>
 VINA RESULT:      -8.2      2.392      3.489
  Name = 
  6 active torsions:
  status: ('A' for Active; 'I' for Inactive)
    1  A    between atoms: C_10  and  O_26
    2  A    between atoms: C_10  and  C_36
    3  A    between atoms: C_14  and  C_15
    4  A    between atoms: C_18  and  C_33
    5  A    between atoms: C_19  and  C_20
    6  A    between atoms: C_19  and  N_24
                            x       y       z     vdW  Elec       q    Type
                         _______ _______ _______ _____ _____    ______ ____

>  <TORSDO>
F 6

$$$$
=
 OpenBabel11042416253D

 38 43  0  0  1  0  0  0  0  0999 V2000
  190.2640  175.0470  144.7890 C   0  0  0  0  0  0  0  0  0  0  0  0
  188.6680  173.7250  140.1790 C   0  0  0  0  0  0  0  0  0  0  0  0
  189.3880  172.6300  140.7120 C   0  0  0  0  0  3  0  0  0  0  0  0
  190.8290  175.0270  146.1820 C   0  0  0  0  0  2  0  0  0  0  0  0
  188.0920  173.6240  138.9200 O   0  0  0  0  0  1  0  0  0  0  0  0
  189.3640  177.3130  145.2330 C   0  0  0  0  0  2  0  0  0  0  0  0
  189.9630  172.7730  141.9780 C   0  0  0  0  0  0  0  0  0  0  0  0
  189.8250  173.9340  142.6560 C   0  0  0  0  0  0  0  0  0  0  0  0
  188.4310  177.0260  146.4250 C   0  0  2  0  0  3  0  0  0  0  0  0
  188.3890  175.5610  146.8950 C   0  0  0  0  0  2  0  0  0  0  0  0
  191.0100  172.5980  144.1320 C   0  0  2  0  0  3  0  0  0  0  0  0
  188.5220  174.9220  140.9230 C   0  0  0  0  0  3  0  0  0  0  0  0
  190.7320  171.8020  142.8170 C   0  0  0  0  0  2  0  0  0  0  0  0
  190.4210  173.9190  143.9140 N   0  0  0  0  0  0  0  0  0  0  0  0
  189.5680  176.1250  144.3370 C   0  0  0  0  0  0  0  0  0  0  0  0
  189.1110  175.0150  142.1940 C   0  0  0  0  0  0  0  0  0  0  0  0
  189.0000  176.1310  143.0380 O   0  0  0  0  0  0  0  0  0  0  0  0
  189.7570  174.9830  147.2830 C   0  0  0  0  0  2  0  0  0  0  0  0
  184.6840  177.5170  146.6820 C   0  0  0  0  0  3  0  0  0  0  0  0
  185.9830  177.0620  146.9250 C   0  0  0  0  0  3  0  0  0  0  0  0
  187.0490  177.5250  146.1440 C   0  0  0  0  0  0  0  0  0  0  0  0
  185.5060  178.9040  144.8750 C   0  0  0  0  0  3  0  0  0  0  0  0
  186.8050  178.4490  145.1160 C   0  0  0  0  0  3  0  0  0  0  0  0
  184.4460  178.4380  145.6570 C   0  0  0  0  0  0  0  0  0  0  0  0
  183.1860  178.8780  145.4230 F   0  0  0  0  0  0  0  0  0  0  0  0
  193.1840  173.8470  143.8700 N   0  0  0  0  0  2  0  0  0  0  0  0
  193.0950  171.8090  145.0060 O   0  0  0  0  0  0  0  0  0  0  0  0
  192.4810  172.7120  144.3740 C   0  0  0  0  0  0  0  0  0  0  0  0
  194.6170  174.0110  144.0580 C   0  0  0  0  0  2  0  0  0  0  0  0
  195.4680  174.1610  141.7330 C   0  0  0  0  0  2  0  0  0  0  0  0
  194.1890  175.9330  142.6350 N   0  0  0  0  0  2  0  0  0  0  0  0
  195.1780  174.9280  142.9880 C   0  0  1  0  0  3  0  0  0  0  0  0
  194.3930  176.2570  141.2780 N   0  0  0  0  0  2  0  0  0  0  0  0
  195.0760  175.1290  140.6500 C   0  0  2  0  0  3  0  0  0  0  0  0
  194.1990  174.4600  139.5870 C   0  0  1  0  0  3  0  0  0  0  0  0
  192.8190  174.0960  140.1200 C   0  0  0  0  0  1  0  0  0  0  0  0
  193.1670  174.6460  137.6380 C   0  0  0  0  0  1  0  0  0  0  0  0
  194.0700  175.2980  138.4780 O   0  0  0  0  0  0  0  0  0  0  0  0
  1  4  1  0  0  0  0
  2  3  2  0  0  0  0
  2 12  1  0  0  0  0
  3  7  1  0  0  0  0
  4 18  1  0  0  0  0
  5  2  1  0  0  0  0
  6  9  1  0  0  0  0
  7  8  2  0  0  0  0
  7 13  1  0  0  0  0
  8 14  1  0  0  0  0
  9 21  1  6  0  0  0
  9 10  1  0  0  0  0
 10 18  1  0  0  0  0
 11 28  1  6  0  0  0
 12 16  2  0  0  0  0
 13 11  1  0  0  0  0
 14 11  1  0  0  0  0
 14  1  1  0  0  0  0
 15  1  2  0  0  0  0
 15  6  1  0  0  0  0
 16  8  1  0  0  0  0
 16 17  1  0  0  0  0
 17 15  1  0  0  0  0
 19 20  1  0  0  0  0
 21 20  2  0  0  0  0
 22 23  2  0  0  0  0
 22 24  1  0  0  0  0
 23 21  1  0  0  0  0
 24 19  2  0  0  0  0
 25 24  1  0  0  0  0
 26 29  1  0  0  0  0
 26 28  1  0  0  0  0
 28 27  2  0  0  0  0
 30 32  1  0  0  0  0
 31 32  1  0  0  0  0
 32 29  1  1  0  0  0
 33 31  1  0  0  0  0
 34 35  1  6  0  0  0
 34 33  1  0  0  0  0
 34 30  1  0  0  0  0
 35 36  1  1  0  0  0
 37 38  1  0  0  0  0
 38 35  1  0  0  0  0
M  END
>  <MODEL>
6

>  <REMARK>
 VINA RESULT:      -8.1      2.486      3.362
  Name = 
  6 active torsions:
  status: ('A' for Active; 'I' for Inactive)
    1  A    between atoms: C_10  and  O_26
    2  A    between atoms: C_10  and  C_36
    3  A    between atoms: C_14  and  C_15
    4  A    between atoms: C_18  and  C_33
    5  A    between atoms: C_19  and  C_20
    6  A    between atoms: C_19  and  N_24
                            x       y       z     vdW  Elec       q    Type
                         _______ _______ _______ _____ _____    ______ ____

>  <TORSDO>
F 6

$$$$
=
 OpenBabel11042416253D

 38 43  0  0  1  0  0  0  0  0999 V2000
  189.7570  174.3750  144.0210 C   0  0  0  0  0  0  0  0  0  0  0  0
  187.3450  177.1270  140.5360 C   0  0  0  0  0  0  0  0  0  0  0  0
  188.0420  178.0230  141.3800 C   0  0  0  0  0  3  0  0  0  0  0  0
  190.6620  173.9270  145.1350 C   0  0  0  0  0  2  0  0  0  0  0  0
  186.6100  177.6190  139.4660 O   0  0  0  0  0  1  0  0  0  0  0  0
  189.3220  171.9960  143.4780 C   0  0  0  0  0  2  0  0  0  0  0  0
  188.7630  177.4910  142.4530 C   0  0  0  0  0  0  0  0  0  0  0  0
  188.7780  176.1560  142.6620 C   0  0  0  0  0  0  0  0  0  0  0  0
  190.7460  171.5080  143.1490 C   0  0  2  0  0  3  0  0  0  0  0  0
  191.8530  172.5710  143.2680 C   0  0  0  0  0  2  0  0  0  0  0  0
  190.1690  176.9660  144.3280 C   0  0  2  0  0  3  0  0  0  0  0  0
  187.3980  175.7300  140.7670 C   0  0  0  0  0  3  0  0  0  0  0  0
  189.6220  178.1590  143.4790 C   0  0  0  0  0  2  0  0  0  0  0  0
  189.5620  175.7700  143.7460 N   0  0  0  0  0  0  0  0  0  0  0  0
  189.1240  173.4640  143.2330 C   0  0  0  0  0  0  0  0  0  0  0  0
  188.1430  175.2430  141.8530 C   0  0  0  0  0  0  0  0  0  0  0  0
  188.3010  173.8820  142.1560 O   0  0  0  0  0  0  0  0  0  0  0  0
  191.9450  173.2350  144.6490 C   0  0  0  0  0  2  0  0  0  0  0  0
  190.7990  171.0900  139.3850 C   0  0  0  0  0  3  0  0  0  0  0  0
  190.7610  171.6710  140.6550 C   0  0  0  0  0  3  0  0  0  0  0  0
  190.7840  170.8650  141.7990 C   0  0  0  0  0  0  0  0  0  0  0  0
  190.8860  168.8890  140.3920 C   0  0  0  0  0  3  0  0  0  0  0  0
  190.8480  169.4690  141.6620 C   0  0  0  0  0  3  0  0  0  0  0  0
  190.8620  169.7000  139.2530 C   0  0  0  0  0  0  0  0  0  0  0  0
  190.8990  169.1380  138.0200 F   0  0  0  0  0  0  0  0  0  0  0  0
  188.4220  177.4740  146.0720 N   0  0  0  0  0  2  0  0  0  0  0  0
  190.6110  176.9380  146.6810 O   0  0  0  0  0  0  0  0  0  0  0  0
  189.7670  177.1160  145.7600 C   0  0  0  0  0  0  0  0  0  0  0  0
  187.9700  177.6490  147.4430 C   0  0  0  0  0  2  0  0  0  0  0  0
  185.9180  178.9820  147.0380 C   0  0  0  0  0  2  0  0  0  0  0  0
  185.9270  176.6640  146.5710 N   0  0  0  0  0  2  0  0  0  0  0  0
  186.4530  177.6580  147.4920 C   0  0  1  0  0  3  0  0  0  0  0  0
  184.6860  177.1460  146.1070 N   0  0  0  0  0  2  0  0  0  0  0  0
  184.6850  178.5980  146.2650 C   0  0  2  0  0  3  0  0  0  0  0  0
  184.6250  179.3120  144.9110 C   0  0  1  0  0  3  0  0  0  0  0  0
  185.9900  179.4000  144.2410 C   0  0  0  0  0  1  0  0  0  0  0  0
  184.4580  178.3830  142.9090 C   0  0  0  0  0  1  0  0  0  0  0  0
  183.7270  178.6570  144.0660 O   0  0  0  0  0  0  0  0  0  0  0  0
  1  4  1  0  0  0  0
  2 12  2  0  0  0  0
  2  3  1  0  0  0  0
  3  7  2  0  0  0  0
  5  2  1  0  0  0  0
  7  8  1  0  0  0  0
  7 13  1  0  0  0  0
  8 14  1  0  0  0  0
  9 21  1  6  0  0  0
  9 10  1  0  0  0  0
  9  6  1  0  0  0  0
 10 18  1  0  0  0  0
 11 28  1  1  0  0  0
 12 16  1  0  0  0  0
 13 11  1  0  0  0  0
 14  1  1  0  0  0  0
 14 11  1  0  0  0  0
 15  6  1  0  0  0  0
 15  1  2  0  0  0  0
 16 17  1  0  0  0  0
 16  8  2  0  0  0  0
 17 15  1  0  0  0  0
 18  4  1  0  0  0  0
 19 20  1  0  0  0  0
 20 21  2  0  0  0  0
 22 23  2  0  0  0  0
 23 21  1  0  0  0  0
 24 19  2  0  0  0  0
 24 22  1  0  0  0  0
 25 24  1  0  0  0  0
 26 29  1  0  0  0  0
 28 26  1  0  0  0  0
 28 27  2  0  0  0  0
 30 32  1  0  0  0  0
 31 32  1  0  0  0  0
 32 29  1  6  0  0  0
 33 34  1  0  0  0  0
 33 31  1  0  0  0  0
 34 35  1  6  0  0  0
 34 30  1  0  0  0  0
 35 36  1  6  0  0  0
 37 38  1  0  0  0  0
 38 35  1  0  0  0  0
M  END
>  <MODEL>
7

>  <REMARK>
 VINA RESULT:      -8.0      3.432      7.695
  Name = 
  6 active torsions:
  status: ('A' for Active; 'I' for Inactive)
    1  A    between atoms: C_10  and  O_26
    2  A    between atoms: C_10  and  C_36
    3  A    between atoms: C_14  and  C_15
    4  A    between atoms: C_18  and  C_33
    5  A    between atoms: C_19  and  C_20
    6  A    between atoms: C_19  and  N_24
                            x       y       z     vdW  Elec       q    Type
                         _______ _______ _______ _____ _____    ______ ____

>  <TORSDO>
F 6

$$$$
=
 OpenBabel11042416253D

 38 43  0  0  1  0  0  0  0  0999 V2000
  188.9120  176.2890  144.1140 C   0  0  0  0  0  0  0  0  0  0  0  0
  189.3270  172.6160  140.6670 C   0  0  0  0  0  0  0  0  0  0  0  0
  189.7860  172.0980  141.9010 C   0  0  0  0  0  3  0  0  0  0  0  0
  188.8680  177.0610  145.4030 C   0  0  0  0  0  2  0  0  0  0  0  0
  189.3080  171.8030  139.5420 O   0  0  0  0  0  1  0  0  0  0  0  0
  187.8780  178.2290  142.9690 C   0  0  0  0  0  2  0  0  0  0  0  0
  189.8000  172.9500  143.0090 C   0  0  0  0  0  0  0  0  0  0  0  0
  189.3850  174.2300  142.8830 C   0  0  0  0  0  0  0  0  0  0  0  0
  186.5480  178.3440  143.7380 C   0  0  2  0  0  3  0  0  0  0  0  0
  186.3410  177.3120  144.8600 C   0  0  0  0  0  2  0  0  0  0  0  0
  189.8940  174.0600  145.1370 C   0  0  2  0  0  3  0  0  0  0  0  0
  188.8760  173.9560  140.5710 C   0  0  0  0  0  3  0  0  0  0  0  0
  190.1810  172.6940  144.4330 C   0  0  0  0  0  2  0  0  0  0  0  0
  189.4250  174.9490  144.0750 N   0  0  0  0  0  0  0  0  0  0  0  0
  188.4420  176.8370  142.9610 C   0  0  0  0  0  0  0  0  0  0  0  0
  188.9020  174.7700  141.7140 C   0  0  0  0  0  0  0  0  0  0  0  0
  188.4440  176.0970  141.7510 O   0  0  0  0  0  0  0  0  0  0  0  0
  187.4440  177.3090  145.9270 C   0  0  0  0  0  2  0  0  0  0  0  0
  184.5610  178.2910  140.5140 C   0  0  0  0  0  3  0  0  0  0  0  0
  185.6300  178.3100  141.4140 C   0  0  0  0  0  3  0  0  0  0  0  0
  185.3880  178.3270  142.7920 C   0  0  0  0  0  0  0  0  0  0  0  0
  182.9990  178.3020  142.3640 C   0  0  0  0  0  3  0  0  0  0  0  0
  184.0670  178.3220  143.2650 C   0  0  0  0  0  3  0  0  0  0  0  0
  183.2460  178.2860  140.9880 C   0  0  0  0  0  0  0  0  0  0  0  0
  182.2110  178.2670  140.1140 F   0  0  0  0  0  0  0  0  0  0  0  0
  192.3150  174.7390  144.9600 N   0  0  0  0  0  2  0  0  0  0  0  0
  191.1580  174.9150  146.9810 O   0  0  0  0  0  0  0  0  0  0  0  0
  191.1420  174.5990  145.7600 C   0  0  0  0  0  0  0  0  0  0  0  0
  193.5640  175.2430  145.5090 C   0  0  0  0  0  2  0  0  0  0  0  0
  194.9100  174.1690  143.7230 C   0  0  0  0  0  2  0  0  0  0  0  0
  195.9350  174.7760  145.7660 N   0  0  0  0  0  2  0  0  0  0  0  0
  194.6920  174.2750  145.2030 C   0  0  1  0  0  3  0  0  0  0  0  0
  196.9780  174.3320  144.9280 N   0  0  0  0  0  2  0  0  0  0  0  0
  196.4070  174.0600  143.6120 C   0  0  2  0  0  3  0  0  0  0  0  0
  196.9620  175.0120  142.5490 C   0  0  1  0  0  3  0  0  0  0  0  0
  196.5520  174.6090  141.1380 C   0  0  0  0  0  1  0  0  0  0  0  0
  196.0630  176.7900  141.5840 C   0  0  0  0  0  1  0  0  0  0  0  0
  196.5370  176.3170  142.8080 O   0  0  0  0  0  0  0  0  0  0  0  0
  1  4  1  0  0  0  0
  2  3  1  0  0  0  0
  3  7  2  0  0  0  0
  4 18  1  0  0  0  0
  5  2  1  0  0  0  0
  6  9  1  0  0  0  0
  7 13  1  0  0  0  0
  8  7  1  0  0  0  0
  8 14  1  0  0  0  0
  9 21  1  6  0  0  0
  9 10  1  0  0  0  0
 10 18  1  0  0  0  0
 11 28  1  6  0  0  0
 12  2  2  0  0  0  0
 12 16  1  0  0  0  0
 13 11  1  0  0  0  0
 14  1  1  0  0  0  0
 14 11  1  0  0  0  0
 15  6  1  0  0  0  0
 15  1  2  0  0  0  0
 16 17  1  0  0  0  0
 16  8  2  0  0  0  0
 17 15  1  0  0  0  0
 19 24  2  0  0  0  0
 19 20  1  0  0  0  0
 20 21  2  0  0  0  0
 21 23  1  0  0  0  0
 22 23  2  0  0  0  0
 24 22  1  0  0  0  0
 25 24  1  0  0  0  0
 26 29  1  0  0  0  0
 26 28  1  0  0  0  0
 28 27  2  0  0  0  0
 30 32  1  0  0  0  0
 32 29  1  6  0  0  0
 32 31  1  0  0  0  0
 33 31  1  0  0  0  0
 34 35  1  6  0  0  0
 34 30  1  0  0  0  0
 34 33  1  0  0  0  0
 35 36  1  6  0  0  0
 35 38  1  0  0  0  0
 37 38  1  0  0  0  0
M  END
>  <MODEL>
8

>  <REMARK>
 VINA RESULT:      -7.7      1.126      1.561
  Name = 
  6 active torsions:
  status: ('A' for Active; 'I' for Inactive)
    1  A    between atoms: C_10  and  O_26
    2  A    between atoms: C_10  and  C_36
    3  A    between atoms: C_14  and  C_15
    4  A    between atoms: C_18  and  C_33
    5  A    between atoms: C_19  and  C_20
    6  A    between atoms: C_19  and  N_24
                            x       y       z     vdW  Elec       q    Type
                         _______ _______ _______ _____ _____    ______ ____

>  <TORSDO>
F 6

$$$$
=
 OpenBabel11042416253D

 38 43  0  0  1  0  0  0  0  0999 V2000
  191.1850  174.8560  143.9430 C   0  0  0  0  0  0  0  0  0  0  0  0
  191.5480  177.3240  148.3380 C   0  0  0  0  0  0  0  0  0  0  0  0
  190.1890  177.3470  147.9470 C   0  0  0  0  0  3  0  0  0  0  0  0
  190.6640  174.1510  142.7220 C   0  0  0  0  0  2  0  0  0  0  0  0
  191.9310  177.9160  149.5340 O   0  0  0  0  0  1  0  0  0  0  0  0
  193.4510  174.0020  143.4140 C   0  0  0  0  0  2  0  0  0  0  0  0
  189.8440  176.7500  146.7310 C   0  0  0  0  0  0  0  0  0  0  0  0
  190.7970  176.1760  145.9650 C   0  0  0  0  0  0  0  0  0  0  0  0
  193.2080  172.4820  143.4630 C   0  0  2  0  0  3  0  0  0  0  0  0
  191.7650  172.0530  143.7860 C   0  0  0  0  0  2  0  0  0  0  0  0
  188.8500  175.7680  144.7770 C   0  0  2  0  0  3  0  0  0  0  0  0
  192.5230  176.6950  147.5240 C   0  0  0  0  0  3  0  0  0  0  0  0
  188.5120  176.5740  146.0720 C   0  0  0  0  0  2  0  0  0  0  0  0
  190.3020  175.5950  144.8000 N   0  0  0  0  0  0  0  0  0  0  0  0
  192.5020  174.7850  144.2760 C   0  0  0  0  0  0  0  0  0  0  0  0
  192.1250  176.1020  146.3150 C   0  0  0  0  0  0  0  0  0  0  0  0
  192.9910  175.4160  145.4480 O   0  0  0  0  0  0  0  0  0  0  0  0
  190.7090  172.6180  142.8270 C   0  0  0  0  0  2  0  0  0  0  0  0
  194.7710  169.9080  145.7610 C   0  0  0  0  0  3  0  0  0  0  0  0
  193.8830  170.5430  144.8870 C   0  0  0  0  0  3  0  0  0  0  0  0
  194.1700  171.8230  144.4000 C   0  0  0  0  0  0  0  0  0  0  0  0
  196.2410  171.8300  145.6660 C   0  0  0  0  0  3  0  0  0  0  0  0
  195.3550  172.4650  144.7930 C   0  0  0  0  0  3  0  0  0  0  0  0
  195.9490  170.5510  146.1500 C   0  0  0  0  0  0  0  0  0  0  0  0
  196.8080  169.9340  146.9970 F   0  0  0  0  0  0  0  0  0  0  0  0
  187.1600  176.2600  142.9740 N   0  0  0  0  0  2  0  0  0  0  0  0
  189.1980  177.3960  143.0570 O   0  0  0  0  0  0  0  0  0  0  0  0
  188.4310  176.5310  143.5620 C   0  0  0  0  0  0  0  0  0  0  0  0
  186.6990  176.9560  141.7830 C   0  0  0  0  0  2  0  0  0  0  0  0
  184.7600  177.5460  143.2130 C   0  0  0  0  0  2  0  0  0  0  0  0
  186.4230  179.1640  142.7580 N   0  0  0  0  0  2  0  0  0  0  0  0
  185.7120  178.0430  142.1670 C   0  0  1  0  0  3  0  0  0  0  0  0
  185.5540  179.7580  143.6960 N   0  0  0  0  0  2  0  0  0  0  0  0
  184.5780  178.7490  144.0990 C   0  0  2  0  0  3  0  0  0  0  0  0
  184.7220  178.3840  145.5800 C   0  0  1  0  0  3  0  0  0  0  0  0
  185.1850  176.9470  145.7800 C   0  0  0  0  0  1  0  0  0  0  0  0
  185.6600  178.8420  147.5310 C   0  0  0  0  0  1  0  0  0  0  0  0
  185.6170  179.2590  146.2000 O   0  0  0  0  0  0  0  0  0  0  0  0
  1 15  2  0  0  0  0
  1 14  1  0  0  0  0
  2  5  1  0  0  0  0
  3  2  1  0  0  0  0
  4 18  1  0  0  0  0
  4  1  1  0  0  0  0
  6  9  1  0  0  0  0
  6 15  1  0  0  0  0
  7  3  2  0  0  0  0
  8 16  2  0  0  0  0
  8  7  1  0  0  0  0
  9 10  1  0  0  0  0
  9 21  1  1  0  0  0
 11 28  1  6  0  0  0
 11 14  1  0  0  0  0
 11 13  1  0  0  0  0
 12  2  2  0  0  0  0
 13  7  1  0  0  0  0
 14  8  1  0  0  0  0
 15 17  1  0  0  0  0
 16 12  1  0  0  0  0
 17 16  1  0  0  0  0
 18 10  1  0  0  0  0
 19 24  1  0  0  0  0
 20 19  2  0  0  0  0
 21 23  2  0  0  0  0
 21 20  1  0  0  0  0
 22 24  2  0  0  0  0
 23 22  1  0  0  0  0
 24 25  1  0  0  0  0
 26 28  1  0  0  0  0
 27 28  2  0  0  0  0
 29 26  1  0  0  0  0
 30 34  1  0  0  0  0
 31 33  1  0  0  0  0
 32 29  1  1  0  0  0
 32 31  1  0  0  0  0
 32 30  1  0  0  0  0
 33 34  1  0  0  0  0
 34 35  1  1  0  0  0
 35 36  1  6  0  0  0
 35 38  1  0  0  0  0
 38 37  1  0  0  0  0
M  END
>  <MODEL>
9

>  <REMARK>
 VINA RESULT:      -7.7      4.035      9.250
  Name = 
  6 active torsions:
  status: ('A' for Active; 'I' for Inactive)
    1  A    between atoms: C_10  and  O_26
    2  A    between atoms: C_10  and  C_36
    3  A    between atoms: C_14  and  C_15
    4  A    between atoms: C_18  and  C_33
    5  A    between atoms: C_19  and  C_20
    6  A    between atoms: C_19  and  N_24
                            x       y       z     vdW  Elec       q    Type
                         _______ _______ _______ _____ _____    ______ ____

>  <TORSDO>
F 6

$$$$
