=
 OpenBabel11042416243D

 38 40  0  0  1  0  0  0  0  0999 V2000
  190.5970  176.5320  146.8080 C   0  0  0  0  0  3  0  0  0  0  0  0
  191.0980  175.3380  146.4800 C   0  0  0  0  0  0  0  0  0  0  0  0
  188.1590  177.3050  146.1210 C   0  0  0  0  0  0  0  0  0  0  0  0
  189.2730  176.9610  146.4310 C   0  0  0  0  0  0  0  0  0  0  0  0
  186.8280  177.6980  145.7550 C   0  0  0  0  0  0  0  0  0  0  0  0
  186.6480  178.6700  144.6150 C   0  0  0  0  0  2  0  0  0  0  0  0
  184.3860  177.6710  146.2480 C   0  0  0  0  0  2  0  0  0  0  0  0
  185.8130  177.3090  146.5330 C   0  0  0  0  0  3  0  0  0  0  0  0
  184.2930  178.9890  145.4880 C   0  0  0  0  0  2  0  0  0  0  0  0
  185.1850  178.9510  144.2460 C   0  0  2  0  0  3  0  0  0  0  0  0
  185.3790  177.0000  142.8860 O   0  0  0  0  0  1  0  0  0  0  0  0
  184.6770  177.9890  143.2160 C   0  0  0  0  0  0  0  0  0  0  0  0
  183.4500  178.1970  142.5950 O   0  0  0  0  0  0  0  0  0  0  0  0
  192.4270  175.0210  146.9040 N   0  0  0  0  0  2  0  0  0  0  0  0
  193.5680  174.9730  146.0010 C   0  0  0  0  0  2  0  0  0  0  0  0
  194.3770  176.6000  145.9160 S   0  0  0  0  0  0  0  0  0  0  0  0
  195.0320  176.2830  144.2530 C   0  0  0  0  0  2  0  0  0  0  0  0
  194.0890  175.3800  143.4800 C   0  0  0  0  0  2  0  0  0  0  0  0
  192.4470  176.9100  142.7840 O   0  0  0  0  0  0  0  0  0  0  0  0
  193.3540  176.1660  142.4500 C   0  0  0  0  0  3  0  0  0  0  0  0
  190.2910  174.3410  145.7010 C   0  0  0  0  0  2  0  0  0  0  0  0
  190.5550  174.5030  144.2810 N   0  0  0  0  0  2  0  0  0  0  0  0
  189.0170  176.6670  142.6560 N   0  0  0  0  0  1  0  0  0  0  0  0
  189.4500  171.8630  143.2140 O   0  0  0  0  0  0  0  0  0  0  0  0
  189.1650  175.2670  142.4570 C   0  0  0  0  0  0  0  0  0  0  0  0
  189.1850  174.7390  141.2740 N   0  0  0  0  0  0  0  0  0  0  0  0
  189.3520  173.3600  141.3870 N   0  0  0  0  0  0  0  0  0  0  0  0
  189.3960  173.0380  142.7640 C   0  0  0  0  0  0  0  0  0  0  0  0
  189.3030  174.2760  143.5820 C   0  0  1  0  0  3  0  0  0  0  0  0
  189.1810  172.4260  140.2860 C   0  0  0  0  0  2  0  0  0  0  0  0
  189.6880  170.3040  138.0440 C   0  0  0  0  0  2  0  0  0  0  0  0
  190.1380  171.2330  136.9100 C   0  0  2  0  0  3  0  0  0  0  0  0
  190.5450  170.5350  139.2870 C   0  0  0  0  0  2  0  0  0  0  0  0
  190.5340  172.0050  139.7220 C   0  0  1  0  0  3  0  0  0  0  0  0
  190.9650  172.9220  138.5750 C   0  0  0  0  0  2  0  0  0  0  0  0
  190.1110  172.7090  137.3270 C   0  0  0  0  0  2  0  0  0  0  0  0
  189.4640  170.9860  135.6930 O   0  0  0  0  0  0  0  0  0  0  0  0
  189.5130  172.1440  134.8970 C   0  0  0  0  0  1  0  0  0  0  0  0
  2  1  2  0  0  0  0
  2 14  1  0  0  0  0
  3  4  3  0  0  0  0
  4  1  1  0  0  0  0
  5  3  1  0  0  0  0
  5  8  2  0  0  0  0
  6  5  1  0  0  0  0
  7  8  1  0  0  0  0
  9  7  1  0  0  0  0
 10 12  1  6  0  0  0
 10  6  1  0  0  0  0
 10  9  1  0  0  0  0
 11 12  1  0  0  0  0
 13 12  2  0  0  0  0
 15 14  1  0  0  0  0
 16 15  1  0  0  0  0
 17 16  1  0  0  0  0
 18 17  1  0  0  0  0
 20 19  2  0  0  0  0
 20 18  1  0  0  0  0
 21  2  1  0  0  0  0
 22 21  1  0  0  0  0
 25 23  1  0  0  0  0
 25 29  1  0  0  0  0
 26 27  1  0  0  0  0
 26 25  2  0  0  0  0
 27 28  1  0  0  0  0
 28 24  2  0  0  0  0
 28 29  1  0  0  0  0
 29 22  1  6  0  0  0
 30 27  1  0  0  0  0
 31 33  1  0  0  0  0
 32 37  1  6  0  0  0
 32 36  1  0  0  0  0
 32 31  1  0  0  0  0
 33 34  1  0  0  0  0
 34 30  1  6  0  0  0
 35 34  1  0  0  0  0
 36 35  1  0  0  0  0
 38 37  1  0  0  0  0
M  END
>  <MODEL>
1

>  <REMARK>
 VINA RESULT:      -6.4      0.000      0.000
  Name = 
  15 active torsions:
  status: ('A' for Active; 'I' for Inactive)
    1  A    between atoms: N_1  and  C_22
    2  A    between atoms: N_1  and  C_28
    3  A    between atoms: C_3  and  C_4
    4  A    between atoms: C_3  and  C_19
    5  A    between atoms: S_7  and  C_19
    6  A    between atoms: S_7  and  C_22
    7  A    between atoms: C_9  and  C_30
    8  A    between atoms: C_11  and  O_18
    9  A    between atoms: C_14  and  C_31
   10  A    between atoms: N_20  and  C_29
   11  A    between atoms: C_23  and  C_29
   12  A    between atoms: C_28  and  C_36
   13  A    between atoms: C_32  and  C_37
   14  A    between atoms: C_33  and  N_35
   15  A    between atoms: N_35  and  C_36
                            x       y       z     vdW  Elec       q    Type
                         _______ _______ _______ _____ _____    ______ ____

>  <TORSDO>
F 15

$$$$
=
 OpenBabel11042416243D

 38 40  0  0  1  0  0  0  0  0999 V2000
  187.5900  175.9210  140.5040 C   0  0  0  0  0  3  0  0  0  0  0  0
  188.1180  174.6940  140.4930 C   0  0  0  0  0  0  0  0  0  0  0  0
  186.6200  177.0440  142.6980 C   0  0  0  0  0  0  0  0  0  0  0  0
  187.0590  176.5400  141.6930 C   0  0  0  0  0  0  0  0  0  0  0  0
  186.1020  177.6290  143.9020 C   0  0  0  0  0  0  0  0  0  0  0  0
  185.9250  176.7500  145.1150 C   0  0  0  0  0  2  0  0  0  0  0  0
  185.0850  179.5910  145.0510 C   0  0  0  0  0  2  0  0  0  0  0  0
  185.6540  178.8880  143.8550 C   0  0  0  0  0  3  0  0  0  0  0  0
  184.4580  178.6020  146.0260 C   0  0  0  0  0  2  0  0  0  0  0  0
  185.4530  177.4940  146.3730 C   0  0  2  0  0  3  0  0  0  0  0  0
  186.4100  178.8820  148.0600 O   0  0  0  0  0  1  0  0  0  0  0  0
  186.6050  178.0030  147.1830 C   0  0  0  0  0  0  0  0  0  0  0  0
  187.8950  177.5390  146.9520 O   0  0  0  0  0  0  0  0  0  0  0  0
  188.6090  174.1800  139.2520 N   0  0  0  0  0  2  0  0  0  0  0  0
  188.6660  172.7590  138.9380 C   0  0  0  0  0  2  0  0  0  0  0  0
  190.1880  172.3740  138.0200 S   0  0  0  0  0  0  0  0  0  0  0  0
  191.1000  171.9630  139.5350 C   0  0  0  0  0  2  0  0  0  0  0  0
  191.2280  170.4590  139.6790 C   0  0  0  0  0  2  0  0  0  0  0  0
  190.2890  170.8380  141.8000 O   0  0  0  0  0  0  0  0  0  0  0  0
  190.8210  170.0370  141.0490 C   0  0  0  0  0  3  0  0  0  0  0  0
  188.2120  173.8750  141.7460 C   0  0  0  0  0  2  0  0  0  0  0  0
  189.5090  174.0840  142.3700 N   0  0  0  0  0  2  0  0  0  0  0  0
  189.4720  172.1670  144.8220 N   0  0  0  0  0  1  0  0  0  0  0  0
  189.9520  176.8430  143.6030 O   0  0  0  0  0  0  0  0  0  0  0  0
  189.9000  173.5170  144.6870 C   0  0  0  0  0  0  0  0  0  0  0  0
  190.8770  174.0020  145.3860 N   0  0  0  0  0  0  0  0  0  0  0  0
  191.0780  175.3360  145.0340 N   0  0  0  0  0  0  0  0  0  0  0  0
  190.1050  175.6830  144.0670 C   0  0  0  0  0  0  0  0  0  0  0  0
  189.2650  174.5000  143.7390 C   0  0  1  0  0  3  0  0  0  0  0  0
  191.9230  176.2560  145.7790 C   0  0  0  0  0  2  0  0  0  0  0  0
  194.9590  175.8240  146.3960 C   0  0  0  0  0  2  0  0  0  0  0  0
  195.2970  174.7980  145.3080 C   0  0  2  0  0  3  0  0  0  0  0  0
  194.3260  177.0660  145.7720 C   0  0  0  0  0  2  0  0  0  0  0  0
  193.0980  176.7170  144.9240 C   0  0  1  0  0  3  0  0  0  0  0  0
  193.4460  175.6770  143.8560 C   0  0  0  0  0  2  0  0  0  0  0  0
  194.0710  174.4240  144.4640 C   0  0  0  0  0  2  0  0  0  0  0  0
  195.9950  173.6740  145.8040 O   0  0  0  0  0  0  0  0  0  0  0  0
  197.3710  173.8490  145.5760 C   0  0  0  0  0  1  0  0  0  0  0  0
  1  4  1  0  0  0  0
  2  1  2  0  0  0  0
  2 21  1  0  0  0  0
  3  5  1  0  0  0  0
  4  3  3  0  0  0  0
  5  6  1  0  0  0  0
  6 10  1  0  0  0  0
  7  9  1  0  0  0  0
  8  5  2  0  0  0  0
  8  7  1  0  0  0  0
  9 10  1  0  0  0  0
 10 12  1  6  0  0  0
 12 11  1  0  0  0  0
 13 12  2  0  0  0  0
 14  2  1  0  0  0  0
 15 14  1  0  0  0  0
 16 15  1  0  0  0  0
 16 17  1  0  0  0  0
 17 18  1  0  0  0  0
 18 20  1  0  0  0  0
 20 19  2  0  0  0  0
 21 22  1  0  0  0  0
 24 28  2  0  0  0  0
 25 23  1  0  0  0  0
 25 26  2  0  0  0  0
 27 26  1  0  0  0  0
 27 30  1  0  0  0  0
 28 27  1  0  0  0  0
 29 22  1  6  0  0  0
 29 28  1  0  0  0  0
 29 25  1  0  0  0  0
 32 37  1  1  0  0  0
 32 31  1  0  0  0  0
 33 31  1  0  0  0  0
 34 33  1  0  0  0  0
 34 30  1  1  0  0  0
 35 36  1  0  0  0  0
 35 34  1  0  0  0  0
 36 32  1  0  0  0  0
 38 37  1  0  0  0  0
M  END
>  <MODEL>
2

>  <REMARK>
 VINA RESULT:      -6.1      2.835      6.728
  Name = 
  15 active torsions:
  status: ('A' for Active; 'I' for Inactive)
    1  A    between atoms: N_1  and  C_22
    2  A    between atoms: N_1  and  C_28
    3  A    between atoms: C_3  and  C_4
    4  A    between atoms: C_3  and  C_19
    5  A    between atoms: S_7  and  C_19
    6  A    between atoms: S_7  and  C_22
    7  A    between atoms: C_9  and  C_30
    8  A    between atoms: C_11  and  O_18
    9  A    between atoms: C_14  and  C_31
   10  A    between atoms: N_20  and  C_29
   11  A    between atoms: C_23  and  C_29
   12  A    between atoms: C_28  and  C_36
   13  A    between atoms: C_32  and  C_37
   14  A    between atoms: C_33  and  N_35
   15  A    between atoms: N_35  and  C_36
                            x       y       z     vdW  Elec       q    Type
                         _______ _______ _______ _____ _____    ______ ____

>  <TORSDO>
F 15

$$$$
=
 OpenBabel11042416243D

 38 40  0  0  1  0  0  0  0  0999 V2000
  190.8010  176.7120  145.3500 C   0  0  0  0  0  3  0  0  0  0  0  0
  191.2400  175.5550  144.8480 C   0  0  0  0  0  0  0  0  0  0  0  0
  188.2520  177.4320  145.2730 C   0  0  0  0  0  0  0  0  0  0  0  0
  189.4160  177.1130  145.3110 C   0  0  0  0  0  0  0  0  0  0  0  0
  186.8650  177.7960  145.2220 C   0  0  0  0  0  0  0  0  0  0  0  0
  186.4400  178.8950  144.2800 C   0  0  0  0  0  2  0  0  0  0  0  0
  184.5670  177.5720  146.1580 C   0  0  0  0  0  2  0  0  0  0  0  0
  186.0320  177.2540  146.1170 C   0  0  0  0  0  3  0  0  0  0  0  0
  184.2910  178.9700  145.6170 C   0  0  0  0  0  2  0  0  0  0  0  0
  184.9250  179.1410  144.2360 C   0  0  2  0  0  3  0  0  0  0  0  0
  184.8800  177.3370  142.6750 O   0  0  0  0  0  0  0  0  0  0  0  0
  184.2550  178.2940  143.1980 C   0  0  0  0  0  0  0  0  0  0  0  0
  182.9590  178.5760  142.7810 O   0  0  0  0  0  1  0  0  0  0  0  0
  192.6380  175.2650  144.9390 N   0  0  0  0  0  2  0  0  0  0  0  0
  193.4450  175.5630  146.1140 C   0  0  0  0  0  2  0  0  0  0  0  0
  195.1970  175.2000  145.7860 S   0  0  0  0  0  0  0  0  0  0  0  0
  195.0710  175.7270  144.0540 C   0  0  0  0  0  2  0  0  0  0  0  0
  196.2520  176.6040  143.6840 C   0  0  0  0  0  2  0  0  0  0  0  0
  197.0670  174.6330  142.6970 O   0  0  0  0  0  0  0  0  0  0  0  0
  197.2400  175.8260  142.8860 C   0  0  0  0  0  3  0  0  0  0  0  0
  190.3000  174.5720  144.2160 C   0  0  0  0  0  2  0  0  0  0  0  0
  190.2500  174.7970  142.7810 N   0  0  0  0  0  2  0  0  0  0  0  0
  188.0430  176.6440  141.5940 N   0  0  0  0  0  1  0  0  0  0  0  0
  189.4780  172.0100  141.7980 O   0  0  0  0  0  0  0  0  0  0  0  0
  188.4120  175.3030  141.2950 C   0  0  0  0  0  0  0  0  0  0  0  0
  188.3010  174.8100  140.1020 N   0  0  0  0  0  0  0  0  0  0  0  0
  188.7450  173.4890  140.1060 N   0  0  0  0  0  0  0  0  0  0  0  0
  189.1170  173.1580  141.4310 C   0  0  0  0  0  0  0  0  0  0  0  0
  188.9520  174.3400  142.3190 C   0  0  1  0  0  3  0  0  0  0  0  0
  188.5420  172.5580  139.0080 C   0  0  0  0  0  2  0  0  0  0  0  0
  191.4920  171.5390  138.7930 C   0  0  0  0  0  2  0  0  0  0  0  0
  191.3320  170.5330  137.6470 C   0  0  2  0  0  3  0  0  0  0  0  0
  190.9720  172.9110  138.3680 C   0  0  0  0  0  2  0  0  0  0  0  0
  189.5220  172.8430  137.8740 C   0  0  1  0  0  3  0  0  0  0  0  0
  189.3720  171.8200  136.7450 C   0  0  0  0  0  2  0  0  0  0  0  0
  189.8810  170.4400  137.1580 C   0  0  0  0  0  2  0  0  0  0  0  0
  191.9040  169.2730  137.9330 O   0  0  0  0  0  0  0  0  0  0  0  0
  191.6650  168.9540  139.2810 C   0  0  0  0  0  1  0  0  0  0  0  0
  2 14  1  0  0  0  0
  2  1  2  0  0  0  0
  3  4  3  0  0  0  0
  4  1  1  0  0  0  0
  5  3  1  0  0  0  0
  5  8  2  0  0  0  0
  6  5  1  0  0  0  0
  8  7  1  0  0  0  0
  9  7  1  0  0  0  0
 10 12  1  6  0  0  0
 10  6  1  0  0  0  0
 10  9  1  0  0  0  0
 11 12  2  0  0  0  0
 13 12  1  0  0  0  0
 14 15  1  0  0  0  0
 16 15  1  0  0  0  0
 17 16  1  0  0  0  0
 18 17  1  0  0  0  0
 19 20  2  0  0  0  0
 20 18  1  0  0  0  0
 21  2  1  0  0  0  0
 22 21  1  0  0  0  0
 25 23  1  0  0  0  0
 25 29  1  0  0  0  0
 26 27  1  0  0  0  0
 26 25  2  0  0  0  0
 27 28  1  0  0  0  0
 28 24  2  0  0  0  0
 28 29  1  0  0  0  0
 29 22  1  6  0  0  0
 30 27  1  0  0  0  0
 32 37  1  1  0  0  0
 32 31  1  0  0  0  0
 33 31  1  0  0  0  0
 34 33  1  0  0  0  0
 34 30  1  1  0  0  0
 35 36  1  0  0  0  0
 35 34  1  0  0  0  0
 36 32  1  0  0  0  0
 37 38  1  0  0  0  0
M  END
>  <MODEL>
3

>  <REMARK>
 VINA RESULT:      -6.0      1.583      2.083
  Name = 
  15 active torsions:
  status: ('A' for Active; 'I' for Inactive)
    1  A    between atoms: N_1  and  C_22
    2  A    between atoms: N_1  and  C_28
    3  A    between atoms: C_3  and  C_4
    4  A    between atoms: C_3  and  C_19
    5  A    between atoms: S_7  and  C_19
    6  A    between atoms: S_7  and  C_22
    7  A    between atoms: C_9  and  C_30
    8  A    between atoms: C_11  and  O_18
    9  A    between atoms: C_14  and  C_31
   10  A    between atoms: N_20  and  C_29
   11  A    between atoms: C_23  and  C_29
   12  A    between atoms: C_28  and  C_36
   13  A    between atoms: C_32  and  C_37
   14  A    between atoms: C_33  and  N_35
   15  A    between atoms: N_35  and  C_36
                            x       y       z     vdW  Elec       q    Type
                         _______ _______ _______ _____ _____    ______ ____

>  <TORSDO>
F 15

$$$$
=
 OpenBabel11042416243D

 38 40  0  0  1  0  0  0  0  0999 V2000
  187.9880  175.4860  140.8940 C   0  0  0  0  0  3  0  0  0  0  0  0
  188.8220  174.4680  141.1230 C   0  0  0  0  0  0  0  0  0  0  0  0
  186.8160  176.8620  142.8290 C   0  0  0  0  0  0  0  0  0  0  0  0
  187.3580  176.2400  141.9490 C   0  0  0  0  0  0  0  0  0  0  0  0
  186.1560  177.5950  143.8720 C   0  0  0  0  0  0  0  0  0  0  0  0
  185.7900  176.8720  145.1440 C   0  0  0  0  0  2  0  0  0  0  0  0
  185.0500  179.6950  144.6290 C   0  0  0  0  0  2  0  0  0  0  0  0
  185.7560  178.8450  143.6150 C   0  0  0  0  0  3  0  0  0  0  0  0
  184.2680  178.8400  145.6180 C   0  0  0  0  0  2  0  0  0  0  0  0
  185.1740  177.7690  146.2280 C   0  0  2  0  0  3  0  0  0  0  0  0
  187.3330  177.7850  147.2430 O   0  0  0  0  0  0  0  0  0  0  0  0
  186.2200  178.3580  147.1230 C   0  0  0  0  0  0  0  0  0  0  0  0
  185.9620  179.5140  147.8510 O   0  0  0  0  0  1  0  0  0  0  0  0
  189.3850  173.7880  139.9970 N   0  0  0  0  0  2  0  0  0  0  0  0
  188.6030  172.9730  139.0780 C   0  0  0  0  0  2  0  0  0  0  0  0
  189.2550  173.1250  137.3860 S   0  0  0  0  0  0  0  0  0  0  0  0
  190.6080  171.9600  137.7100 C   0  0  0  0  0  2  0  0  0  0  0  0
  190.3870  170.6710  136.9420 C   0  0  0  0  0  2  0  0  0  0  0  0
  190.3590  168.6850  138.1980 O   0  0  0  0  0  0  0  0  0  0  0  0
  189.7300  169.6580  137.8160 C   0  0  0  0  0  3  0  0  0  0  0  0
  189.1770  174.0490  142.5190 C   0  0  0  0  0  2  0  0  0  0  0  0
  188.5610  172.7660  142.8150 N   0  0  0  0  0  2  0  0  0  0  0  0
  190.7110  170.9090  141.5400 N   0  0  0  0  0  1  0  0  0  0  0  0
  189.6300  173.3000  145.6260 O   0  0  0  0  0  0  0  0  0  0  0  0
  190.7390  171.7210  142.7080 C   0  0  0  0  0  0  0  0  0  0  0  0
  191.8250  172.2910  143.1230 N   0  0  0  0  0  0  0  0  0  0  0  0
  191.5500  173.0260  144.2740 N   0  0  0  0  0  0  0  0  0  0  0  0
  190.1830  172.8430  144.5910 C   0  0  0  0  0  0  0  0  0  0  0  0
  189.5300  171.9870  143.5660 C   0  0  1  0  0  3  0  0  0  0  0  0
  192.5690  173.5940  145.1410 C   0  0  0  0  0  2  0  0  0  0  0  0
  194.8810  175.6010  145.7840 C   0  0  0  0  0  2  0  0  0  0  0  0
  195.1010  176.1930  144.3860 C   0  0  2  0  0  3  0  0  0  0  0  0
  193.4160  175.7430  146.1920 C   0  0  0  0  0  2  0  0  0  0  0  0
  192.4730  175.1160  145.1580 C   0  0  1  0  0  3  0  0  0  0  0  0
  192.7180  175.7010  143.7650 C   0  0  0  0  0  2  0  0  0  0  0  0
  194.1770  175.5600  143.3380 C   0  0  0  0  0  2  0  0  0  0  0  0
  196.4590  176.2030  143.9960 O   0  0  0  0  0  0  0  0  0  0  0  0
  196.5530  176.6440  142.6650 C   0  0  0  0  0  1  0  0  0  0  0  0
  1  2  2  0  0  0  0
  1  4  1  0  0  0  0
  2 21  1  0  0  0  0
  3  5  1  0  0  0  0
  4  3  3  0  0  0  0
  5  6  1  0  0  0  0
  6 10  1  0  0  0  0
  7  9  1  0  0  0  0
  8  5  2  0  0  0  0
  8  7  1  0  0  0  0
  9 10  1  0  0  0  0
 10 12  1  6  0  0  0
 12 11  2  0  0  0  0
 12 13  1  0  0  0  0
 14  2  1  0  0  0  0
 15 14  1  0  0  0  0
 16 17  1  0  0  0  0
 16 15  1  0  0  0  0
 18 17  1  0  0  0  0
 18 20  1  0  0  0  0
 20 19  2  0  0  0  0
 21 22  1  0  0  0  0
 23 25  1  0  0  0  0
 25 26  2  0  0  0  0
 25 29  1  0  0  0  0
 26 27  1  0  0  0  0
 27 28  1  0  0  0  0
 27 30  1  0  0  0  0
 28 24  2  0  0  0  0
 29 22  1  6  0  0  0
 29 28  1  0  0  0  0
 31 33  1  0  0  0  0
 32 37  1  6  0  0  0
 32 31  1  0  0  0  0
 34 30  1  6  0  0  0
 34 33  1  0  0  0  0
 35 34  1  0  0  0  0
 36 35  1  0  0  0  0
 36 32  1  0  0  0  0
 38 37  1  0  0  0  0
M  END
>  <MODEL>
4

>  <REMARK>
 VINA RESULT:      -6.0      2.863      6.639
  Name = 
  15 active torsions:
  status: ('A' for Active; 'I' for Inactive)
    1  A    between atoms: N_1  and  C_22
    2  A    between atoms: N_1  and  C_28
    3  A    between atoms: C_3  and  C_4
    4  A    between atoms: C_3  and  C_19
    5  A    between atoms: S_7  and  C_19
    6  A    between atoms: S_7  and  C_22
    7  A    between atoms: C_9  and  C_30
    8  A    between atoms: C_11  and  O_18
    9  A    between atoms: C_14  and  C_31
   10  A    between atoms: N_20  and  C_29
   11  A    between atoms: C_23  and  C_29
   12  A    between atoms: C_28  and  C_36
   13  A    between atoms: C_32  and  C_37
   14  A    between atoms: C_33  and  N_35
   15  A    between atoms: N_35  and  C_36
                            x       y       z     vdW  Elec       q    Type
                         _______ _______ _______ _____ _____    ______ ____

>  <TORSDO>
F 15

$$$$
=
 OpenBabel11042416243D

 38 40  0  0  1  0  0  0  0  0999 V2000
  194.6530  171.9320  144.3440 C   0  0  0  0  0  3  0  0  0  0  0  0
  195.2880  172.7360  145.2000 C   0  0  0  0  0  0  0  0  0  0  0  0
  192.2940  172.5210  143.2930 C   0  0  0  0  0  0  0  0  0  0  0  0
  193.3650  172.2450  143.7760 C   0  0  0  0  0  0  0  0  0  0  0  0
  191.0280  172.8630  142.7110 C   0  0  0  0  0  0  0  0  0  0  0  0
  190.9490  174.0670  141.8060 C   0  0  0  0  0  2  0  0  0  0  0  0
  188.5700  172.4770  142.5770 C   0  0  0  0  0  2  0  0  0  0  0  0
  189.9420  172.1940  143.1130 C   0  0  0  0  0  3  0  0  0  0  0  0
  188.4410  173.9280  142.1280 C   0  0  0  0  0  2  0  0  0  0  0  0
  189.5720  174.2880  141.1630 C   0  0  2  0  0  3  0  0  0  0  0  0
  190.4790  173.1520  139.2720 O   0  0  0  0  0  1  0  0  0  0  0  0
  189.4470  173.5710  139.8550 C   0  0  0  0  0  0  0  0  0  0  0  0
  188.2030  173.3930  139.2580 O   0  0  0  0  0  0  0  0  0  0  0  0
  196.5610  172.3190  145.7030 N   0  0  0  0  0  2  0  0  0  0  0  0
  197.1520  171.0200  145.4140 C   0  0  0  0  0  2  0  0  0  0  0  0
  196.6560  169.8050  146.6730 S   0  0  0  0  0  0  0  0  0  0  0  0
  196.0400  168.6370  145.4270 C   0  0  0  0  0  2  0  0  0  0  0  0
  194.5330  168.5090  145.5260 C   0  0  0  0  0  2  0  0  0  0  0  0
  192.7440  168.5490  144.0030 O   0  0  0  0  0  0  0  0  0  0  0  0
  193.9380  168.3650  144.1680 C   0  0  0  0  0  3  0  0  0  0  0  0
  194.6990  174.0500  145.6190 C   0  0  0  0  0  2  0  0  0  0  0  0
  195.6800  175.1070  145.4310 N   0  0  0  0  0  2  0  0  0  0  0  0
  194.8050  175.6280  142.4890 N   0  0  0  0  0  1  0  0  0  0  0  0
  193.8780  176.9510  147.0680 O   0  0  0  0  0  0  0  0  0  0  0  0
  194.1900  175.9580  143.7280 C   0  0  0  0  0  0  0  0  0  0  0  0
  192.9030  176.0070  143.8650 N   0  0  0  0  0  0  0  0  0  0  0  0
  192.5910  176.3420  145.1810 N   0  0  0  0  0  0  0  0  0  0  0  0
  193.8060  176.5480  145.8780 C   0  0  0  0  0  0  0  0  0  0  0  0
  194.9610  176.2850  144.9790 C   0  0  1  0  0  3  0  0  0  0  0  0
  191.2610  176.7180  145.6330 C   0  0  0  0  0  2  0  0  0  0  0  0
  188.7270  175.3790  146.8860 C   0  0  0  0  0  2  0  0  0  0  0  0
  187.6420  176.2940  146.3060 C   0  0  2  0  0  3  0  0  0  0  0  0
  189.5940  174.8110  145.7630 C   0  0  0  0  0  2  0  0  0  0  0  0
  190.1950  175.9190  144.8910 C   0  0  1  0  0  3  0  0  0  0  0  0
  189.1030  176.8370  144.3360 C   0  0  0  0  0  2  0  0  0  0  0  0
  188.2330  177.4200  145.4480 C   0  0  0  0  0  2  0  0  0  0  0  0
  186.7300  176.7580  147.2810 O   0  0  0  0  0  0  0  0  0  0  0  0
  185.4800  176.9780  146.6750 C   0  0  0  0  0  1  0  0  0  0  0  0
  1  2  2  0  0  0  0
  2 21  1  0  0  0  0
  2 14  1  0  0  0  0
  3  4  3  0  0  0  0
  4  1  1  0  0  0  0
  5  8  2  0  0  0  0
  5  3  1  0  0  0  0
  6  5  1  0  0  0  0
  7  8  1  0  0  0  0
  9  7  1  0  0  0  0
 10 12  1  6  0  0  0
 10  6  1  0  0  0  0
 10  9  1  0  0  0  0
 11 12  1  0  0  0  0
 13 12  2  0  0  0  0
 15 14  1  0  0  0  0
 15 16  1  0  0  0  0
 17 18  1  0  0  0  0
 17 16  1  0  0  0  0
 19 20  2  0  0  0  0
 20 18  1  0  0  0  0
 22 21  1  0  0  0  0
 23 25  1  0  0  0  0
 25 26  2  0  0  0  0
 25 29  1  0  0  0  0
 26 27  1  0  0  0  0
 27 30  1  0  0  0  0
 27 28  1  0  0  0  0
 28 24  2  0  0  0  0
 29 22  1  1  0  0  0
 29 28  1  0  0  0  0
 32 31  1  0  0  0  0
 32 37  1  1  0  0  0
 33 31  1  0  0  0  0
 34 30  1  1  0  0  0
 34 33  1  0  0  0  0
 35 34  1  0  0  0  0
 35 36  1  0  0  0  0
 36 32  1  0  0  0  0
 38 37  1  0  0  0  0
M  END
>  <MODEL>
5

>  <REMARK>
 VINA RESULT:      -6.0      3.492      7.574
  Name = 
  15 active torsions:
  status: ('A' for Active; 'I' for Inactive)
    1  A    between atoms: N_1  and  C_22
    2  A    between atoms: N_1  and  C_28
    3  A    between atoms: C_3  and  C_4
    4  A    between atoms: C_3  and  C_19
    5  A    between atoms: S_7  and  C_19
    6  A    between atoms: S_7  and  C_22
    7  A    between atoms: C_9  and  C_30
    8  A    between atoms: C_11  and  O_18
    9  A    between atoms: C_14  and  C_31
   10  A    between atoms: N_20  and  C_29
   11  A    between atoms: C_23  and  C_29
   12  A    between atoms: C_28  and  C_36
   13  A    between atoms: C_32  and  C_37
   14  A    between atoms: C_33  and  N_35
   15  A    between atoms: N_35  and  C_36
                            x       y       z     vdW  Elec       q    Type
                         _______ _______ _______ _____ _____    ______ ____

>  <TORSDO>
F 15

$$$$
=
 OpenBabel11042416243D

 38 40  0  0  1  0  0  0  0  0999 V2000
  188.1890  175.2940  140.9300 C   0  0  0  0  0  3  0  0  0  0  0  0
  189.0380  174.3160  141.2550 C   0  0  0  0  0  0  0  0  0  0  0  0
  186.9390  176.7900  142.7240 C   0  0  0  0  0  0  0  0  0  0  0  0
  187.5170  176.1100  141.9110 C   0  0  0  0  0  0  0  0  0  0  0  0
  186.2370  177.5950  143.6820 C   0  0  0  0  0  0  0  0  0  0  0  0
  185.6790  176.9300  144.9160 C   0  0  0  0  0  2  0  0  0  0  0  0
  185.2410  179.7950  144.2950 C   0  0  0  0  0  2  0  0  0  0  0  0
  185.9750  178.8690  143.3720 C   0  0  0  0  0  3  0  0  0  0  0  0
  184.2890  179.0260  145.2040 C   0  0  0  0  0  2  0  0  0  0  0  0
  185.0310  177.8960  145.9180 C   0  0  2  0  0  3  0  0  0  0  0  0
  185.7380  179.4180  147.6130 O   0  0  0  0  0  1  0  0  0  0  0  0
  186.0220  178.4130  146.9140 C   0  0  0  0  0  0  0  0  0  0  0  0
  187.2700  177.8130  147.0510 O   0  0  0  0  0  0  0  0  0  0  0  0
  189.6430  173.5660  140.1960 N   0  0  0  0  0  2  0  0  0  0  0  0
  191.0830  173.4560  140.0120 C   0  0  0  0  0  2  0  0  0  0  0  0
  191.4760  172.0430  138.9360 S   0  0  0  0  0  0  0  0  0  0  0  0
  193.2510  172.1460  139.3050 C   0  0  0  0  0  2  0  0  0  0  0  0
  193.4980  173.1410  140.4220 C   0  0  0  0  0  2  0  0  0  0  0  0
  195.5840  172.9010  141.4780 O   0  0  0  0  0  0  0  0  0  0  0  0
  194.9580  173.4060  140.5610 C   0  0  0  0  0  3  0  0  0  0  0  0
  189.3680  174.0110  142.6860 C   0  0  0  0  0  2  0  0  0  0  0  0
  188.7590  172.7480  143.0690 N   0  0  0  0  0  2  0  0  0  0  0  0
  190.9160  170.6410  142.2950 N   0  0  0  0  0  1  0  0  0  0  0  0
  189.6860  173.7790  145.7910 O   0  0  0  0  0  0  0  0  0  0  0  0
  190.9050  171.6570  143.2910 C   0  0  0  0  0  0  0  0  0  0  0  0
  191.9840  172.2720  143.6570 N   0  0  0  0  0  0  0  0  0  0  0  0
  191.6690  173.2160  144.6330 N   0  0  0  0  0  0  0  0  0  0  0  0
  190.2810  173.1250  144.8950 C   0  0  0  0  0  0  0  0  0  0  0  0
  189.6590  172.1040  144.0090 C   0  0  1  0  0  3  0  0  0  0  0  0
  192.6560  173.9160  145.4390 C   0  0  0  0  0  2  0  0  0  0  0  0
  194.8970  176.0720  145.7780 C   0  0  0  0  0  2  0  0  0  0  0  0
  195.0470  176.5170  144.3180 C   0  0  2  0  0  3  0  0  0  0  0  0
  193.4410  176.1970  146.2220 C   0  0  0  0  0  2  0  0  0  0  0  0
  192.4940  175.4250  145.2960 C   0  0  1  0  0  3  0  0  0  0  0  0
  192.6680  175.8650  143.8400 C   0  0  0  0  0  2  0  0  0  0  0  0
  194.1180  175.7370  143.3780 C   0  0  0  0  0  2  0  0  0  0  0  0
  196.3900  176.5390  143.8810 O   0  0  0  0  0  0  0  0  0  0  0  0
  196.4210  176.4080  142.4820 C   0  0  0  0  0  1  0  0  0  0  0  0
  1  2  2  0  0  0  0
  1  4  1  0  0  0  0
  2 21  1  0  0  0  0
  3  5  1  0  0  0  0
  4  3  3  0  0  0  0
  5  6  1  0  0  0  0
  6 10  1  0  0  0  0
  7  9  1  0  0  0  0
  8  5  2  0  0  0  0
  8  7  1  0  0  0  0
  9 10  1  0  0  0  0
 10 12  1  1  0  0  0
 12 13  2  0  0  0  0
 12 11  1  0  0  0  0
 14  2  1  0  0  0  0
 15 14  1  0  0  0  0
 16 17  1  0  0  0  0
 16 15  1  0  0  0  0
 17 18  1  0  0  0  0
 18 20  1  0  0  0  0
 20 19  2  0  0  0  0
 21 22  1  0  0  0  0
 23 25  1  0  0  0  0
 25 26  2  0  0  0  0
 25 29  1  0  0  0  0
 26 27  1  0  0  0  0
 27 28  1  0  0  0  0
 27 30  1  0  0  0  0
 28 24  2  0  0  0  0
 29 22  1  6  0  0  0
 29 28  1  0  0  0  0
 31 33  1  0  0  0  0
 32 37  1  6  0  0  0
 32 31  1  0  0  0  0
 34 30  1  6  0  0  0
 34 33  1  0  0  0  0
 35 34  1  0  0  0  0
 36 35  1  0  0  0  0
 36 32  1  0  0  0  0
 38 37  1  0  0  0  0
M  END
>  <MODEL>
6

>  <REMARK>
 VINA RESULT:      -5.9      3.255      6.085
  Name = 
  15 active torsions:
  status: ('A' for Active; 'I' for Inactive)
    1  A    between atoms: N_1  and  C_22
    2  A    between atoms: N_1  and  C_28
    3  A    between atoms: C_3  and  C_4
    4  A    between atoms: C_3  and  C_19
    5  A    between atoms: S_7  and  C_19
    6  A    between atoms: S_7  and  C_22
    7  A    between atoms: C_9  and  C_30
    8  A    between atoms: C_11  and  O_18
    9  A    between atoms: C_14  and  C_31
   10  A    between atoms: N_20  and  C_29
   11  A    between atoms: C_23  and  C_29
   12  A    between atoms: C_28  and  C_36
   13  A    between atoms: C_32  and  C_37
   14  A    between atoms: C_33  and  N_35
   15  A    between atoms: N_35  and  C_36
                            x       y       z     vdW  Elec       q    Type
                         _______ _______ _______ _____ _____    ______ ____

>  <TORSDO>
F 15

$$$$
=
 OpenBabel11042416243D

 38 40  0  0  1  0  0  0  0  0999 V2000
  187.9470  175.1150  141.7780 C   0  0  0  0  0  3  0  0  0  0  0  0
  187.6010  175.8640  142.8290 C   0  0  0  0  0  0  0  0  0  0  0  0
  190.3860  174.1400  141.4370 C   0  0  0  0  0  0  0  0  0  0  0  0
  189.2720  174.5770  141.5970 C   0  0  0  0  0  0  0  0  0  0  0  0
  191.7140  173.6350  141.2370 C   0  0  0  0  0  0  0  0  0  0  0  0
  192.3480  173.7870  139.8760 C   0  0  0  0  0  2  0  0  0  0  0  0
  193.6530  172.3350  142.1060 C   0  0  0  0  0  2  0  0  0  0  0  0
  192.2750  172.9170  142.2150 C   0  0  0  0  0  3  0  0  0  0  0  0
  194.0190  172.0510  140.6540 C   0  0  0  0  0  2  0  0  0  0  0  0
  193.8010  173.2980  139.7960 C   0  0  2  0  0  3  0  0  0  0  0  0
  194.3610  175.5640  140.2910 O   0  0  0  0  0  1  0  0  0  0  0  0
  194.7740  174.3870  140.1280 C   0  0  0  0  0  0  0  0  0  0  0  0
  196.1350  174.1190  140.2260 O   0  0  0  0  0  0  0  0  0  0  0  0
  186.2570  176.3500  142.9020 N   0  0  0  0  0  2  0  0  0  0  0  0
  185.7570  177.4510  142.0910 C   0  0  0  0  0  2  0  0  0  0  0  0
  184.3850  178.2890  142.9420 S   0  0  0  0  0  0  0  0  0  0  0  0
  185.4990  179.4580  143.7700 C   0  0  0  0  0  2  0  0  0  0  0  0
  185.5650  179.1590  145.2550 C   0  0  0  0  0  2  0  0  0  0  0  0
  184.0760  177.8420  146.5090 O   0  0  0  0  0  0  0  0  0  0  0  0
  184.2130  178.8020  145.7680 C   0  0  0  0  0  3  0  0  0  0  0  0
  188.5830  176.1810  143.9180 C   0  0  0  0  0  2  0  0  0  0  0  0
  188.6070  177.6160  144.1510 N   0  0  0  0  0  2  0  0  0  0  0  0
  189.2940  177.4770  147.1840 N   0  0  0  0  0  1  0  0  0  0  0  0
  191.3350  177.5320  142.7770 O   0  0  0  0  0  0  0  0  0  0  0  0
  190.0770  177.2110  146.0260 C   0  0  0  0  0  0  0  0  0  0  0  0
  191.0120  176.3140  146.0210 N   0  0  0  0  0  0  0  0  0  0  0  0
  191.5970  176.2660  144.7560 N   0  0  0  0  0  0  0  0  0  0  0  0
  190.9780  177.2520  143.9520 C   0  0  0  0  0  0  0  0  0  0  0  0
  189.9040  177.9380  144.7190 C   0  0  1  0  0  3  0  0  0  0  0  0
  192.8280  175.5530  144.4550 C   0  0  0  0  0  2  0  0  0  0  0  0
  195.3310  174.6780  146.1150 C   0  0  0  0  0  2  0  0  0  0  0  0
  196.3770  174.6320  144.9940 C   0  0  2  0  0  3  0  0  0  0  0  0
  194.6530  176.0460  146.1480 C   0  0  0  0  0  2  0  0  0  0  0  0
  194.0430  176.4130  144.7900 C   0  0  1  0  0  3  0  0  0  0  0  0
  195.0930  176.3430  143.6790 C   0  0  0  0  0  2  0  0  0  0  0  0
  195.7740  174.9770  143.6260 C   0  0  0  0  0  2  0  0  0  0  0  0
  197.1270  173.4340  144.9850 O   0  0  0  0  0  0  0  0  0  0  0  0
  196.8170  172.6880  146.1360 C   0  0  0  0  0  1  0  0  0  0  0  0
  1  2  2  0  0  0  0
  2 14  1  0  0  0  0
  2 21  1  0  0  0  0
  3  4  3  0  0  0  0
  4  1  1  0  0  0  0
  5  3  1  0  0  0  0
  5  8  2  0  0  0  0
  6  5  1  0  0  0  0
  7  8  1  0  0  0  0
  9  7  1  0  0  0  0
 10  6  1  0  0  0  0
 10 12  1  1  0  0  0
 10  9  1  0  0  0  0
 12 13  2  0  0  0  0
 12 11  1  0  0  0  0
 15 14  1  0  0  0  0
 15 16  1  0  0  0  0
 16 17  1  0  0  0  0
 17 18  1  0  0  0  0
 18 20  1  0  0  0  0
 20 19  2  0  0  0  0
 21 22  1  0  0  0  0
 24 28  2  0  0  0  0
 25 23  1  0  0  0  0
 26 25  2  0  0  0  0
 27 26  1  0  0  0  0
 28 29  1  0  0  0  0
 28 27  1  0  0  0  0
 29 22  1  6  0  0  0
 29 25  1  0  0  0  0
 30 27  1  0  0  0  0
 31 33  1  0  0  0  0
 32 37  1  6  0  0  0
 32 31  1  0  0  0  0
 34 30  1  6  0  0  0
 34 33  1  0  0  0  0
 35 34  1  0  0  0  0
 36 35  1  0  0  0  0
 36 32  1  0  0  0  0
 37 38  1  0  0  0  0
M  END
>  <MODEL>
7

>  <REMARK>
 VINA RESULT:      -5.9      3.510      8.687
  Name = 
  15 active torsions:
  status: ('A' for Active; 'I' for Inactive)
    1  A    between atoms: N_1  and  C_22
    2  A    between atoms: N_1  and  C_28
    3  A    between atoms: C_3  and  C_4
    4  A    between atoms: C_3  and  C_19
    5  A    between atoms: S_7  and  C_19
    6  A    between atoms: S_7  and  C_22
    7  A    between atoms: C_9  and  C_30
    8  A    between atoms: C_11  and  O_18
    9  A    between atoms: C_14  and  C_31
   10  A    between atoms: N_20  and  C_29
   11  A    between atoms: C_23  and  C_29
   12  A    between atoms: C_28  and  C_36
   13  A    between atoms: C_32  and  C_37
   14  A    between atoms: C_33  and  N_35
   15  A    between atoms: N_35  and  C_36
                            x       y       z     vdW  Elec       q    Type
                         _______ _______ _______ _____ _____    ______ ____

>  <TORSDO>
F 15

$$$$
=
 OpenBabel11042416243D

 38 40  0  0  1  0  0  0  0  0999 V2000
  188.0180  175.5380  140.9840 C   0  0  0  0  0  3  0  0  0  0  0  0
  188.5690  174.3310  141.1380 C   0  0  0  0  0  0  0  0  0  0  0  0
  186.7520  176.8200  142.9260 C   0  0  0  0  0  0  0  0  0  0  0  0
  187.3360  176.2330  142.0470 C   0  0  0  0  0  0  0  0  0  0  0  0
  186.0470  177.5240  143.9580 C   0  0  0  0  0  0  0  0  0  0  0  0
  185.7540  176.8070  145.2530 C   0  0  0  0  0  2  0  0  0  0  0  0
  184.7880  179.5490  144.6790 C   0  0  0  0  0  2  0  0  0  0  0  0
  185.5470  178.7320  143.6770 C   0  0  0  0  0  3  0  0  0  0  0  0
  184.0860  178.6590  145.6990 C   0  0  0  0  0  2  0  0  0  0  0  0
  185.0810  177.6790  146.3220 C   0  0  2  0  0  3  0  0  0  0  0  0
  185.7480  179.3870  147.8490 O   0  0  0  0  0  1  0  0  0  0  0  0
  186.0860  178.3710  147.1890 C   0  0  0  0  0  0  0  0  0  0  0  0
  187.4010  177.9230  147.2490 O   0  0  0  0  0  0  0  0  0  0  0  0
  189.2160  173.7340  140.0100 N   0  0  0  0  0  2  0  0  0  0  0  0
  189.2890  172.2960  139.7950 C   0  0  0  0  0  2  0  0  0  0  0  0
  191.0240  171.7520  139.7350 S   0  0  0  0  0  0  0  0  0  0  0  0
  191.6480  173.4560  139.7620 C   0  0  0  0  0  2  0  0  0  0  0  0
  192.6470  173.6680  138.6410 C   0  0  0  0  0  2  0  0  0  0  0  0
  192.4880  174.0620  136.3290 O   0  0  0  0  0  0  0  0  0  0  0  0
  191.9530  174.1660  137.4210 C   0  0  0  0  0  3  0  0  0  0  0  0
  188.5280  173.6170  142.4560 C   0  0  0  0  0  2  0  0  0  0  0  0
  189.8730  173.5220  143.0010 N   0  0  0  0  0  2  0  0  0  0  0  0
  189.6940  173.6320  146.1070 N   0  0  0  0  0  1  0  0  0  0  0  0
  191.5250  175.9860  142.2740 O   0  0  0  0  0  0  0  0  0  0  0  0
  190.5330  174.3180  145.1860 C   0  0  0  0  0  0  0  0  0  0  0  0
  191.7460  174.6620  145.4850 N   0  0  0  0  0  0  0  0  0  0  0  0
  192.3260  175.3040  144.3920 N   0  0  0  0  0  0  0  0  0  0  0  0
  191.3540  175.3830  143.3660 C   0  0  0  0  0  0  0  0  0  0  0  0
  190.0980  174.7140  143.7990 C   0  0  1  0  0  3  0  0  0  0  0  0
  193.5830  176.0320  144.4480 C   0  0  0  0  0  2  0  0  0  0  0  0
  194.7380  174.6270  141.9030 C   0  0  0  0  0  2  0  0  0  0  0  0
  196.0690  175.3780  141.7790 C   0  0  2  0  0  3  0  0  0  0  0  0
  194.6050  174.0160  143.2970 C   0  0  0  0  0  2  0  0  0  0  0  0
  194.7640  175.0690  144.3990 C   0  0  1  0  0  3  0  0  0  0  0  0
  196.0870  175.8240  144.2500 C   0  0  0  0  0  2  0  0  0  0  0  0
  196.2320  176.4490  142.8650 C   0  0  0  0  0  2  0  0  0  0  0  0
  196.3090  175.8660  140.4750 O   0  0  0  0  0  0  0  0  0  0  0  0
  197.6540  175.6340  140.1360 C   0  0  0  0  0  1  0  0  0  0  0  0
  1  2  2  0  0  0  0
  1  4  1  0  0  0  0
  2 21  1  0  0  0  0
  3  5  1  0  0  0  0
  4  3  3  0  0  0  0
  5  6  1  0  0  0  0
  6 10  1  0  0  0  0
  7  9  1  0  0  0  0
  8  5  2  0  0  0  0
  8  7  1  0  0  0  0
  9 10  1  0  0  0  0
 10 12  1  6  0  0  0
 12 13  2  0  0  0  0
 12 11  1  0  0  0  0
 14  2  1  0  0  0  0
 15 14  1  0  0  0  0
 16 17  1  0  0  0  0
 16 15  1  0  0  0  0
 18 17  1  0  0  0  0
 19 20  2  0  0  0  0
 20 18  1  0  0  0  0
 21 22  1  0  0  0  0
 24 28  2  0  0  0  0
 25 26  2  0  0  0  0
 25 23  1  0  0  0  0
 27 30  1  0  0  0  0
 27 26  1  0  0  0  0
 28 29  1  0  0  0  0
 28 27  1  0  0  0  0
 29 22  1  6  0  0  0
 29 25  1  0  0  0  0
 31 33  1  0  0  0  0
 32 37  1  6  0  0  0
 32 31  1  0  0  0  0
 32 36  1  0  0  0  0
 33 34  1  0  0  0  0
 34 30  1  6  0  0  0
 35 34  1  0  0  0  0
 36 35  1  0  0  0  0
 38 37  1  0  0  0  0
M  END
>  <MODEL>
8

>  <REMARK>
 VINA RESULT:      -5.8      2.783      5.917
  Name = 
  15 active torsions:
  status: ('A' for Active; 'I' for Inactive)
    1  A    between atoms: N_1  and  C_22
    2  A    between atoms: N_1  and  C_28
    3  A    between atoms: C_3  and  C_4
    4  A    between atoms: C_3  and  C_19
    5  A    between atoms: S_7  and  C_19
    6  A    between atoms: S_7  and  C_22
    7  A    between atoms: C_9  and  C_30
    8  A    between atoms: C_11  and  O_18
    9  A    between atoms: C_14  and  C_31
   10  A    between atoms: N_20  and  C_29
   11  A    between atoms: C_23  and  C_29
   12  A    between atoms: C_28  and  C_36
   13  A    between atoms: C_32  and  C_37
   14  A    between atoms: C_33  and  N_35
   15  A    between atoms: N_35  and  C_36
                            x       y       z     vdW  Elec       q    Type
                         _______ _______ _______ _____ _____    ______ ____

>  <TORSDO>
F 15

$$$$
=
 OpenBabel11042416243D

 38 40  0  0  1  0  0  0  0  0999 V2000
  193.5800  172.6610  143.0880 C   0  0  0  0  0  3  0  0  0  0  0  0
  193.1770  172.7810  144.3560 C   0  0  0  0  0  0  0  0  0  0  0  0
  191.9680  172.9630  141.0080 C   0  0  0  0  0  0  0  0  0  0  0  0
  192.6950  172.8230  141.9620 C   0  0  0  0  0  0  0  0  0  0  0  0
  191.1170  173.1350  139.8660 C   0  0  0  0  0  0  0  0  0  0  0  0
  189.6880  172.6600  139.9510 C   0  0  0  0  0  2  0  0  0  0  0  0
  190.8680  173.7730  137.4700 C   0  0  0  0  0  2  0  0  0  0  0  0
  191.6630  173.5670  138.7250 C   0  0  0  0  0  3  0  0  0  0  0  0
  189.6590  172.8450  137.4260 C   0  0  0  0  0  2  0  0  0  0  0  0
  188.8400  172.9760  138.7110 C   0  0  2  0  0  3  0  0  0  0  0  0
  187.6450  174.8300  137.8010 O   0  0  0  0  0  0  0  0  0  0  0  0
  188.1720  174.3120  138.8190 C   0  0  0  0  0  0  0  0  0  0  0  0
  188.1550  175.0020  140.0260 O   0  0  0  0  0  1  0  0  0  0  0  0
  194.1430  172.5930  145.3950 N   0  0  0  0  0  2  0  0  0  0  0  0
  195.5680  172.4300  145.1460 C   0  0  0  0  0  2  0  0  0  0  0  0
  196.5080  173.7580  145.9580 S   0  0  0  0  0  0  0  0  0  0  0  0
  197.0250  174.4780  144.3730 C   0  0  0  0  0  2  0  0  0  0  0  0
  195.9780  175.4530  143.8730 C   0  0  0  0  0  2  0  0  0  0  0  0
  196.0720  176.7540  141.9180 O   0  0  0  0  0  0  0  0  0  0  0  0
  196.1060  175.6340  142.4000 C   0  0  0  0  0  3  0  0  0  0  0  0
  191.7540  173.1170  144.6940 C   0  0  0  0  0  2  0  0  0  0  0  0
  191.6520  174.5270  145.0300 N   0  0  0  0  0  2  0  0  0  0  0  0
  190.9020  175.5900  147.8580 N   0  0  0  0  0  1  0  0  0  0  0  0
  189.1700  175.1080  143.3470 O   0  0  0  0  0  0  0  0  0  0  0  0
  190.3050  175.7980  146.5830 C   0  0  0  0  0  0  0  0  0  0  0  0
  189.7140  176.9080  146.2740 N   0  0  0  0  0  0  0  0  0  0  0  0
  189.2380  176.8290  144.9670 N   0  0  0  0  0  0  0  0  0  0  0  0
  189.5420  175.5390  144.4700 C   0  0  0  0  0  0  0  0  0  0  0  0
  190.2950  174.7630  145.4900 C   0  0  1  0  0  3  0  0  0  0  0  0
  188.3220  177.7900  144.3730 C   0  0  0  0  0  2  0  0  0  0  0  0
  185.7170  179.2560  143.4510 C   0  0  0  0  0  2  0  0  0  0  0  0
  184.9280  178.0580  142.9090 C   0  0  2  0  0  3  0  0  0  0  0  0
  186.1510  178.9940  144.8920 C   0  0  0  0  0  2  0  0  0  0  0  0
  186.9450  177.6890  145.0210 C   0  0  1  0  0  3  0  0  0  0  0  0
  186.1550  176.5060  144.4570 C   0  0  0  0  0  2  0  0  0  0  0  0
  185.7210  176.7480  143.0130 C   0  0  0  0  0  2  0  0  0  0  0  0
  184.3950  178.2830  141.6200 O   0  0  0  0  0  0  0  0  0  0  0  0
  185.4260  178.1790  140.6700 C   0  0  0  0  0  1  0  0  0  0  0  0
  1  2  2  0  0  0  0
  2 21  1  0  0  0  0
  2 14  1  0  0  0  0
  3  4  3  0  0  0  0
  4  1  1  0  0  0  0
  5  6  1  0  0  0  0
  5  3  1  0  0  0  0
  7  8  1  0  0  0  0
  8  5  2  0  0  0  0
  9  7  1  0  0  0  0
  9 10  1  0  0  0  0
 10 12  1  1  0  0  0
 10  6  1  0  0  0  0
 11 12  2  0  0  0  0
 12 13  1  0  0  0  0
 15 14  1  0  0  0  0
 15 16  1  0  0  0  0
 17 16  1  0  0  0  0
 18 17  1  0  0  0  0
 19 20  2  0  0  0  0
 20 18  1  0  0  0  0
 21 22  1  0  0  0  0
 24 28  2  0  0  0  0
 25 23  1  0  0  0  0
 26 25  2  0  0  0  0
 27 26  1  0  0  0  0
 28 27  1  0  0  0  0
 28 29  1  0  0  0  0
 29 22  1  6  0  0  0
 29 25  1  0  0  0  0
 30 27  1  0  0  0  0
 31 33  1  0  0  0  0
 32 37  1  6  0  0  0
 32 36  1  0  0  0  0
 32 31  1  0  0  0  0
 33 34  1  0  0  0  0
 34 30  1  6  0  0  0
 35 34  1  0  0  0  0
 36 35  1  0  0  0  0
 38 37  1  0  0  0  0
M  END
>  <MODEL>
9

>  <REMARK>
 VINA RESULT:      -5.8      2.355      7.065
  Name = 
  15 active torsions:
  status: ('A' for Active; 'I' for Inactive)
    1  A    between atoms: N_1  and  C_22
    2  A    between atoms: N_1  and  C_28
    3  A    between atoms: C_3  and  C_4
    4  A    between atoms: C_3  and  C_19
    5  A    between atoms: S_7  and  C_19
    6  A    between atoms: S_7  and  C_22
    7  A    between atoms: C_9  and  C_30
    8  A    between atoms: C_11  and  O_18
    9  A    between atoms: C_14  and  C_31
   10  A    between atoms: N_20  and  C_29
   11  A    between atoms: C_23  and  C_29
   12  A    between atoms: C_28  and  C_36
   13  A    between atoms: C_32  and  C_37
   14  A    between atoms: C_33  and  N_35
   15  A    between atoms: N_35  and  C_36
                            x       y       z     vdW  Elec       q    Type
                         _______ _______ _______ _____ _____    ______ ____

>  <TORSDO>
F 15

$$$$
