=
 OpenBabel11042418483D

 44 47  0  0  1  0  0  0  0  0999 V2000
  187.1160  177.3260  144.2480 C   0  0  0  0  0  0  0  0  0  0  0  0
  188.0070  176.9710  145.2630 O   0  0  0  0  0  0  0  0  0  0  0  0
  190.3830  173.8080  143.0020 N   0  0  0  0  0  0  0  0  0  0  0  0
  189.9580  174.9110  145.1820 C   0  0  0  0  0  0  0  0  0  0  0  0
  185.4410  178.8730  143.4150 C   0  0  0  0  0  3  0  0  0  0  0  0
  189.3250  177.2400  145.1950 O   0  0  0  0  0  0  0  0  0  0  0  0
  185.9360  176.8560  142.1760 C   0  0  0  0  0  3  0  0  0  0  0  0
  190.1460  173.8040  144.4280 C   0  0  0  0  0  0  0  0  0  0  0  0
  189.9500  174.5540  142.0200 C   0  0  0  0  0  0  0  0  0  0  0  0
  186.3860  178.5120  144.3800 C   0  0  0  0  0  3  0  0  0  0  0  0
  187.6890  175.2590  142.8980 C   0  0  0  0  0  2  0  0  0  0  0  0
  185.2040  178.0440  142.3050 C   0  0  0  0  0  0  0  0  0  0  0  0
  186.8850  176.4900  143.1360 C   0  0  0  0  0  0  0  0  0  0  0  0
  188.9680  175.6750  142.1880 C   0  0  0  0  0  2  0  0  0  0  0  0
  189.8890  176.1760  144.5840 O   0  0  0  0  0  0  0  0  0  0  0  0
  190.2930  172.4710  145.0970 C   0  0  0  0  0  1  0  0  0  0  0  0
  184.1830  178.4090  141.3000 C   0  0  0  0  0  0  0  0  0  0  0  0
  184.5340  178.7550  140.1020 N   0  0  0  0  0  2  0  0  0  0  0  0
  181.5050  178.0300  141.4800 N   0  0  0  0  0  0  0  0  0  0  0  0
  181.7600  178.9710  142.4530 N   0  0  0  0  0  2  0  0  0  0  0  0
  182.7660  178.4560  141.6640 C   0  0  0  0  0  0  0  0  0  0  0  0
  188.4950  175.1930  147.1930 C   0  0  0  0  0  1  0  0  0  0  0  0
  189.8670  174.7800  146.6870 C   0  0  2  0  0  3  0  0  0  0  0  0
  190.6630  176.8520  147.6080 O   0  0  0  0  0  1  0  0  0  0  0  0
  191.0090  175.5150  147.4000 C   0  0  2  0  0  3  0  0  0  0  0  0
  194.8490  177.7360  145.4770 O   0  0  0  0  0  0  0  0  0  0  0  0
  192.7990  174.3450  146.3190 O   0  0  0  0  0  0  0  0  0  0  0  0
  194.0000  176.8150  145.3030 C   0  0  0  0  0  0  0  0  0  0  0  0
  192.9300  176.6800  146.2480 N   0  0  0  0  0  2  0  0  0  0  0  0
  192.2900  175.4570  146.6280 C   0  0  0  0  0  0  0  0  0  0  0  0
  194.1080  175.9590  144.1010 C   0  0  0  0  0  0  0  0  0  0  0  0
  195.0630  175.1450  144.0010 O   0  0  0  0  0  0  0  0  0  0  0  0
  193.1550  176.0870  142.9650 C   0  0  0  0  0  1  0  0  0  0  0  0
  190.4690  174.3020  140.7430 O   0  0  0  0  0  0  0  0  0  0  0  0
  189.9950  173.2530  139.9010 C   0  0  1  0  0  3  0  0  0  0  0  0
  191.0730  171.0810  139.5400 C   0  0  0  0  0  2  0  0  0  0  0  0
  191.6990  171.7260  140.6270 O   0  0  0  0  0  0  0  0  0  0  0  0
  190.3010  171.8940  140.5110 C   0  0  1  0  0  3  0  0  0  0  0  0
  188.4900  173.3760  139.7090 C   0  0  0  0  0  2  0  0  0  0  0  0
  188.1960  174.6010  139.0570 O   0  0  0  0  0  0  0  0  0  0  0  0
  187.9670  174.6600  137.6850 C   0  0  0  0  0  0  0  0  0  0  0  0
  188.6990  173.9870  136.9120 O   0  0  0  0  0  0  0  0  0  0  0  0
  186.9330  175.4490  137.1740 O   0  0  0  0  0  0  0  0  0  0  0  0
  187.1570  176.3980  136.1490 C   0  0  0  0  0  1  0  0  0  0  0  0
  1 10  1  0  0  0  0
  1  2  1  0  0  0  0
  3  8  1  0  0  0  0
  4 23  1  0  0  0  0
  5 10  2  0  0  0  0
  6  2  1  0  0  0  0
  7 12  2  0  0  0  0
  7 13  1  0  0  0  0
  8 16  1  0  0  0  0
  8  4  2  0  0  0  0
  9 14  1  0  0  0  0
  9  3  2  0  0  0  0
 11 13  1  0  0  0  0
 12  5  1  0  0  0  0
 13  1  2  0  0  0  0
 14 11  1  0  0  0  0
 15  4  1  0  0  0  0
 15  6  1  0  0  0  0
 17 21  1  0  0  0  0
 17 12  1  0  0  0  0
 18 17  2  0  0  0  0
 19 21  2  0  0  0  0
 19 20  1  0  0  0  0
 21 20  1  0  0  0  0
 23 22  1  1  0  0  0
 23 25  1  0  0  0  0
 25 24  1  6  0  0  0
 27 30  2  0  0  0  0
 28 26  2  0  0  0  0
 28 29  1  0  0  0  0
 29 30  1  0  0  0  0
 30 25  1  0  0  0  0
 31 28  1  0  0  0  0
 32 31  2  0  0  0  0
 33 31  1  0  0  0  0
 34  9  1  0  0  0  0
 35 39  1  1  0  0  0
 35 34  1  0  0  0  0
 36 38  1  0  0  0  0
 36 37  1  0  0  0  0
 38 35  1  6  0  0  0
 38 37  1  0  0  0  0
 40 39  1  0  0  0  0
 41 40  1  0  0  0  0
 42 41  2  0  0  0  0
 43 41  1  0  0  0  0
 44 43  1  0  0  0  0
M  END
>  <MODEL>
1

>  <REMARK>
 VINA RESULT:      -7.1      0.000      0.000
  Name = 
  13 active torsions:
  status: ('A' for Active; 'I' for Inactive)
    1  A    between atoms: C_7  and  C_37
    2  A    between atoms: C_9  and  O_12
    3  A    between atoms: C_9  and  O_19
    4  A    between atoms: C_11  and  C_20
    5  A    between atoms: O_12  and  C_34
    6  A    between atoms: C_17  and  C_29
    7  A    between atoms: C_17  and  C_44
    8  A    between atoms: C_21  and  O_41
    9  A    between atoms: C_23  and  C_32
   10  A    between atoms: C_23  and  C_34
   11  A    between atoms: C_23  and  O_41
   12  A    between atoms: C_31  and  C_40
   13  A    between atoms: C_37  and  C_40
                            x       y       z     vdW  Elec       q    Type
                         _______ _______ _______ _____ _____    ______ ____

>  <TORSDO>
F 13

$$$$
=
 OpenBabel11042418483D

 44 47  0  0  1  0  0  0  0  0999 V2000
  187.1000  177.3200  144.2970 C   0  0  0  0  0  0  0  0  0  0  0  0
  187.9870  176.9680  145.3160 O   0  0  0  0  0  0  0  0  0  0  0  0
  190.5140  173.9620  143.0050 N   0  0  0  0  0  0  0  0  0  0  0  0
  190.0150  174.9850  145.2080 C   0  0  0  0  0  0  0  0  0  0  0  0
  185.3800  178.8260  143.4800 C   0  0  0  0  0  3  0  0  0  0  0  0
  189.2960  177.2880  145.2770 O   0  0  0  0  0  0  0  0  0  0  0  0
  185.9690  176.8670  142.1930 C   0  0  0  0  0  3  0  0  0  0  0  0
  190.2560  173.9080  144.4260 C   0  0  0  0  0  0  0  0  0  0  0  0
  190.0680  174.7200  142.0370 C   0  0  0  0  0  0  0  0  0  0  0  0
  186.3230  178.4730  144.4500 C   0  0  0  0  0  3  0  0  0  0  0  0
  187.7700  175.3150  142.8980 C   0  0  0  0  0  2  0  0  0  0  0  0
  185.1920  178.0220  142.3440 C   0  0  0  0  0  0  0  0  0  0  0  0
  186.9160  176.5080  143.1570 C   0  0  0  0  0  0  0  0  0  0  0  0
  189.0430  175.7980  142.2210 C   0  0  0  0  0  2  0  0  0  0  0  0
  189.9080  176.2640  144.6450 O   0  0  0  0  0  0  0  0  0  0  0  0
  190.4420  172.5620  145.0590 C   0  0  0  0  0  1  0  0  0  0  0  0
  184.1730  178.3780  141.3330 C   0  0  0  0  0  0  0  0  0  0  0  0
  184.5270  178.7140  140.1320 N   0  0  0  0  0  2  0  0  0  0  0  0
  181.4980  177.9830  141.5250 N   0  0  0  0  0  0  0  0  0  0  0  0
  181.7430  178.9660  142.4590 N   0  0  0  0  0  2  0  0  0  0  0  0
  182.7550  178.4280  141.6920 C   0  0  0  0  0  0  0  0  0  0  0  0
  188.5080  175.1400  147.2000 C   0  0  0  0  0  1  0  0  0  0  0  0
  189.9060  174.8070  146.7070 C   0  0  2  0  0  3  0  0  0  0  0  0
  190.6230  176.9110  147.6220 O   0  0  0  0  0  1  0  0  0  0  0  0
  191.0000  175.5760  147.4600 C   0  0  2  0  0  3  0  0  0  0  0  0
  194.8460  177.8260  145.5850 O   0  0  0  0  0  0  0  0  0  0  0  0
  192.8830  174.4140  146.5380 O   0  0  0  0  0  0  0  0  0  0  0  0
  194.0410  176.8640  145.4290 C   0  0  0  0  0  0  0  0  0  0  0  0
  192.9310  176.7440  146.3290 N   0  0  0  0  0  2  0  0  0  0  0  0
  192.3190  175.5220  146.7540 C   0  0  0  0  0  0  0  0  0  0  0  0
  194.2390  175.9420  144.2890 C   0  0  0  0  0  0  0  0  0  0  0  0
  193.3220  175.7990  143.4390 O   0  0  0  0  0  0  0  0  0  0  0  0
  195.4700  175.1160  144.1590 C   0  0  0  0  0  1  0  0  0  0  0  0
  190.6160  174.5240  140.7630 O   0  0  0  0  0  0  0  0  0  0  0  0
  190.3960  173.3450  139.9910 C   0  0  1  0  0  3  0  0  0  0  0  0
  188.3090  172.7890  138.8330 C   0  0  0  0  0  2  0  0  0  0  0  0
  188.2680  174.1450  139.2200 O   0  0  0  0  0  0  0  0  0  0  0  0
  189.5170  173.6460  138.7880 C   0  0  1  0  0  3  0  0  0  0  0  0
  191.7240  172.7850  139.5020 C   0  0  0  0  0  2  0  0  0  0  0  0
  192.5630  172.5170  140.6140 O   0  0  0  0  0  0  0  0  0  0  0  0
  193.7770  173.1760  140.7860 C   0  0  0  0  0  0  0  0  0  0  0  0
  194.5090  172.8660  141.7640 O   0  0  0  0  0  0  0  0  0  0  0  0
  194.1810  174.1630  139.8830 O   0  0  0  0  0  0  0  0  0  0  0  0
  194.8460  175.3350  140.3100 C   0  0  0  0  0  1  0  0  0  0  0  0
  1 10  1  0  0  0  0
  1  2  1  0  0  0  0
  3  8  1  0  0  0  0
  4 23  1  0  0  0  0
  5 10  2  0  0  0  0
  6  2  1  0  0  0  0
  7 12  2  0  0  0  0
  7 13  1  0  0  0  0
  8 16  1  0  0  0  0
  8  4  2  0  0  0  0
  9 14  1  0  0  0  0
  9  3  2  0  0  0  0
 11 13  1  0  0  0  0
 12  5  1  0  0  0  0
 13  1  2  0  0  0  0
 14 11  1  0  0  0  0
 15  4  1  0  0  0  0
 15  6  1  0  0  0  0
 17 21  1  0  0  0  0
 17 12  1  0  0  0  0
 18 17  2  0  0  0  0
 19 21  2  0  0  0  0
 19 20  1  0  0  0  0
 21 20  1  0  0  0  0
 23 22  1  1  0  0  0
 23 25  1  0  0  0  0
 25 24  1  6  0  0  0
 27 30  2  0  0  0  0
 28 26  2  0  0  0  0
 28 29  1  0  0  0  0
 29 30  1  0  0  0  0
 30 25  1  0  0  0  0
 31 28  1  0  0  0  0
 32 31  2  0  0  0  0
 33 31  1  0  0  0  0
 34  9  1  0  0  0  0
 35 39  1  6  0  0  0
 35 34  1  0  0  0  0
 36 37  1  0  0  0  0
 38 36  1  0  0  0  0
 38 37  1  0  0  0  0
 38 35  1  1  0  0  0
 39 40  1  0  0  0  0
 40 41  1  0  0  0  0
 41 42  2  0  0  0  0
 43 44  1  0  0  0  0
 43 41  1  0  0  0  0
M  END
>  <MODEL>
2

>  <REMARK>
 VINA RESULT:      -7.1      1.183      2.736
  Name = 
  13 active torsions:
  status: ('A' for Active; 'I' for Inactive)
    1  A    between atoms: C_7  and  C_37
    2  A    between atoms: C_9  and  O_12
    3  A    between atoms: C_9  and  O_19
    4  A    between atoms: C_11  and  C_20
    5  A    between atoms: O_12  and  C_34
    6  A    between atoms: C_17  and  C_29
    7  A    between atoms: C_17  and  C_44
    8  A    between atoms: C_21  and  O_41
    9  A    between atoms: C_23  and  C_32
   10  A    between atoms: C_23  and  C_34
   11  A    between atoms: C_23  and  O_41
   12  A    between atoms: C_31  and  C_40
   13  A    between atoms: C_37  and  C_40
                            x       y       z     vdW  Elec       q    Type
                         _______ _______ _______ _____ _____    ______ ____

>  <TORSDO>
F 13

$$$$
=
 OpenBabel11042418483D

 44 47  0  0  1  0  0  0  0  0999 V2000
  187.5370  175.6830  142.7010 C   0  0  0  0  0  0  0  0  0  0  0  0
  188.0260  174.6330  141.9200 O   0  0  0  0  0  0  0  0  0  0  0  0
  192.2810  174.5050  143.5440 N   0  0  0  0  0  0  0  0  0  0  0  0
  190.6900  173.6550  141.8430 C   0  0  0  0  0  0  0  0  0  0  0  0
  185.6280  176.9500  143.5010 C   0  0  0  0  0  3  0  0  0  0  0  0
  188.3620  173.4380  142.4450 O   0  0  0  0  0  0  0  0  0  0  0  0
  187.8670  177.6660  144.0670 C   0  0  0  0  0  3  0  0  0  0  0  0
  191.8980  174.1490  142.1970 C   0  0  0  0  0  0  0  0  0  0  0  0
  191.6360  175.0220  144.5560 C   0  0  0  0  0  0  0  0  0  0  0  0
  186.1540  175.8740  142.7790 C   0  0  0  0  0  3  0  0  0  0  0  0
  189.8770  176.3920  143.3710 C   0  0  0  0  0  2  0  0  0  0  0  0
  186.4810  177.8590  144.1480 C   0  0  0  0  0  0  0  0  0  0  0  0
  188.4000  176.5910  143.3490 C   0  0  0  0  0  0  0  0  0  0  0  0
  190.1950  175.4370  144.5090 C   0  0  0  0  0  2  0  0  0  0  0  0
  189.6630  173.5390  142.7910 O   0  0  0  0  0  0  0  0  0  0  0  0
  193.0030  174.1920  141.1850 C   0  0  0  0  0  1  0  0  0  0  0  0
  185.9270  179.0140  144.8860 C   0  0  0  0  0  0  0  0  0  0  0  0
  185.7250  180.1440  144.2840 N   0  0  0  0  0  2  0  0  0  0  0  0
  186.0410  179.1720  147.5900 N   0  0  0  0  0  0  0  0  0  0  0  0
  184.8500  178.5180  147.3580 N   0  0  0  0  0  2  0  0  0  0  0  0
  185.6670  178.9220  146.3240 C   0  0  0  0  0  0  0  0  0  0  0  0
  189.4510  174.0600  139.7070 C   0  0  0  0  0  1  0  0  0  0  0  0
  190.4640  173.1830  140.4240 C   0  0  2  0  0  3  0  0  0  0  0  0
  190.7740  170.9970  141.3730 O   0  0  0  0  0  1  0  0  0  0  0  0
  190.1090  171.6920  140.3600 C   0  0  2  0  0  3  0  0  0  0  0  0
  193.4220  170.3380  137.1100 O   0  0  0  0  0  0  0  0  0  0  0  0
  189.5660  170.5290  138.3360 O   0  0  0  0  0  0  0  0  0  0  0  0
  192.2710  170.8390  137.2570 C   0  0  0  0  0  0  0  0  0  0  0  0
  191.8120  171.1340  138.5840 N   0  0  0  0  0  2  0  0  0  0  0  0
  190.4570  171.0820  139.0390 C   0  0  0  0  0  0  0  0  0  0  0  0
  191.4700  171.1600  136.0540 C   0  0  0  0  0  0  0  0  0  0  0  0
  191.0940  172.3450  135.8560 O   0  0  0  0  0  0  0  0  0  0  0  0
  191.0290  170.1020  135.1050 C   0  0  0  0  0  1  0  0  0  0  0  0
  192.3360  175.1600  145.7620 O   0  0  0  0  0  0  0  0  0  0  0  0
  192.5400  176.4160  146.4070 C   0  0  1  0  0  3  0  0  0  0  0  0
  190.6520  177.0730  147.8240 C   0  0  0  0  0  2  0  0  0  0  0  0
  190.7600  175.6660  147.8330 O   0  0  0  0  0  0  0  0  0  0  0  0
  191.9700  176.3950  147.8160 C   0  0  1  0  0  3  0  0  0  0  0  0
  194.0280  176.7270  146.4840 C   0  0  0  0  0  2  0  0  0  0  0  0
  194.5140  177.0360  145.1880 O   0  0  0  0  0  0  0  0  0  0  0  0
  195.4910  176.2600  144.5710 C   0  0  0  0  0  0  0  0  0  0  0  0
  196.1920  176.7700  143.6570 O   0  0  0  0  0  0  0  0  0  0  0  0
  195.6960  174.9350  144.9660 O   0  0  0  0  0  0  0  0  0  0  0  0
  195.7220  173.8750  144.0310 C   0  0  0  0  0  1  0  0  0  0  0  0
  1 10  2  0  0  0  0
  1 13  1  0  0  0  0
  2  6  1  0  0  0  0
  2  1  1  0  0  0  0
  3  9  2  0  0  0  0
  4  8  2  0  0  0  0
  4 15  1  0  0  0  0
  5 12  2  0  0  0  0
  6 15  1  0  0  0  0
  7 12  1  0  0  0  0
  8  3  1  0  0  0  0
  9 34  1  0  0  0  0
 10  5  1  0  0  0  0
 11 14  1  0  0  0  0
 12 17  1  0  0  0  0
 13 11  1  0  0  0  0
 13  7  2  0  0  0  0
 14  9  1  0  0  0  0
 16  8  1  0  0  0  0
 17 21  1  0  0  0  0
 18 17  2  0  0  0  0
 20 19  1  0  0  0  0
 21 20  1  0  0  0  0
 21 19  2  0  0  0  0
 23 22  1  1  0  0  0
 23  4  1  0  0  0  0
 25 23  1  0  0  0  0
 25 24  1  1  0  0  0
 26 28  2  0  0  0  0
 27 30  2  0  0  0  0
 28 29  1  0  0  0  0
 29 30  1  0  0  0  0
 30 25  1  0  0  0  0
 31 28  1  0  0  0  0
 32 31  2  0  0  0  0
 33 31  1  0  0  0  0
 34 35  1  0  0  0  0
 35 39  1  1  0  0  0
 36 37  1  0  0  0  0
 38 35  1  6  0  0  0
 38 36  1  0  0  0  0
 38 37  1  0  0  0  0
 40 39  1  0  0  0  0
 41 43  1  0  0  0  0
 41 40  1  0  0  0  0
 42 41  2  0  0  0  0
 44 43  1  0  0  0  0
M  END
>  <MODEL>
3

>  <REMARK>
 VINA RESULT:      -7.0      2.570      7.289
  Name = 
  13 active torsions:
  status: ('A' for Active; 'I' for Inactive)
    1  A    between atoms: C_7  and  C_37
    2  A    between atoms: C_9  and  O_12
    3  A    between atoms: C_9  and  O_19
    4  A    between atoms: C_11  and  C_20
    5  A    between atoms: O_12  and  C_34
    6  A    between atoms: C_17  and  C_29
    7  A    between atoms: C_17  and  C_44
    8  A    between atoms: C_21  and  O_41
    9  A    between atoms: C_23  and  C_32
   10  A    between atoms: C_23  and  C_34
   11  A    between atoms: C_23  and  O_41
   12  A    between atoms: C_31  and  C_40
   13  A    between atoms: C_37  and  C_40
                            x       y       z     vdW  Elec       q    Type
                         _______ _______ _______ _____ _____    ______ ____

>  <TORSDO>
F 13

$$$$
=
 OpenBabel11042418483D

 44 47  0  0  1  0  0  0  0  0999 V2000
  187.7150  175.6370  142.6390 C   0  0  0  0  0  0  0  0  0  0  0  0
  188.2480  174.5500  141.9450 O   0  0  0  0  0  0  0  0  0  0  0  0
  192.6620  175.3130  142.7830 N   0  0  0  0  0  0  0  0  0  0  0  0
  190.9960  173.9640  141.5360 C   0  0  0  0  0  0  0  0  0  0  0  0
  185.7630  176.7370  143.5750 C   0  0  0  0  0  3  0  0  0  0  0  0
  188.8590  173.5230  142.5690 O   0  0  0  0  0  0  0  0  0  0  0  0
  187.9080  177.8520  143.6220 C   0  0  0  0  0  3  0  0  0  0  0  0
  192.1420  174.6790  141.5930 C   0  0  0  0  0  0  0  0  0  0  0  0
  192.1010  175.8980  143.8090 C   0  0  0  0  0  0  0  0  0  0  0  0
  186.3470  175.6400  142.9340 C   0  0  0  0  0  3  0  0  0  0  0  0
  189.9740  176.7780  142.7710 C   0  0  0  0  0  2  0  0  0  0  0  0
  186.5390  177.8560  143.9210 C   0  0  0  0  0  0  0  0  0  0  0  0
  188.5000  176.7570  142.9840 C   0  0  0  0  0  0  0  0  0  0  0  0
  190.6210  176.0880  143.9610 C   0  0  0  0  0  2  0  0  0  0  0  0
  190.1620  173.8670  142.6580 O   0  0  0  0  0  0  0  0  0  0  0  0
  193.0560  174.7060  140.4050 C   0  0  0  0  0  1  0  0  0  0  0  0
  185.9170  179.0290  144.5700 C   0  0  0  0  0  0  0  0  0  0  0  0
  185.7360  180.1290  143.9090 N   0  0  0  0  0  2  0  0  0  0  0  0
  185.8240  179.3330  147.2620 N   0  0  0  0  0  0  0  0  0  0  0  0
  184.7040  178.5790  146.9880 N   0  0  0  0  0  2  0  0  0  0  0  0
  185.5610  178.9910  145.9900 C   0  0  0  0  0  0  0  0  0  0  0  0
  189.4580  173.8810  139.5630 C   0  0  0  0  0  1  0  0  0  0  0  0
  190.6390  173.2290  140.2630 C   0  0  2  0  0  3  0  0  0  0  0  0
  191.3020  171.2760  141.4970 O   0  0  0  0  0  1  0  0  0  0  0  0
  190.4310  171.7270  140.5020 C   0  0  2  0  0  3  0  0  0  0  0  0
  193.3960  169.3810  137.4900 O   0  0  0  0  0  0  0  0  0  0  0  0
  189.6610  170.4900  138.6000 O   0  0  0  0  0  0  0  0  0  0  0  0
  192.3720  170.1200  137.5560 C   0  0  0  0  0  0  0  0  0  0  0  0
  191.9840  170.6440  138.8340 N   0  0  0  0  0  2  0  0  0  0  0  0
  190.6470  170.9200  139.2610 C   0  0  0  0  0  0  0  0  0  0  0  0
  191.6570  170.4670  136.3090 C   0  0  0  0  0  0  0  0  0  0  0  0
  191.1690  169.5510  135.5970 O   0  0  0  0  0  0  0  0  0  0  0  0
  191.5630  171.8730  135.8280 C   0  0  0  0  0  1  0  0  0  0  0  0
  192.9440  176.3390  144.8380 O   0  0  0  0  0  0  0  0  0  0  0  0
  193.1530  175.6060  146.0440 C   0  0  1  0  0  3  0  0  0  0  0  0
  195.2850  174.4530  145.6840 C   0  0  0  0  0  2  0  0  0  0  0  0
  195.4090  175.7870  145.2430 O   0  0  0  0  0  0  0  0  0  0  0  0
  194.6300  175.5720  146.4020 C   0  0  1  0  0  3  0  0  0  0  0  0
  192.3860  176.2530  147.1880 C   0  0  0  0  0  2  0  0  0  0  0  0
  191.4460  175.3270  147.7100 O   0  0  0  0  0  0  0  0  0  0  0  0
  190.1660  175.2080  147.1770 C   0  0  0  0  0  0  0  0  0  0  0  0
  189.8130  174.1100  146.6700 O   0  0  0  0  0  0  0  0  0  0  0  0
  189.2820  176.2900  147.2090 O   0  0  0  0  0  0  0  0  0  0  0  0
  187.9200  176.1490  146.8580 C   0  0  0  0  0  1  0  0  0  0  0  0
  1 10  2  0  0  0  0
  1 13  1  0  0  0  0
  2  6  1  0  0  0  0
  2  1  1  0  0  0  0
  3  9  2  0  0  0  0
  4  8  2  0  0  0  0
  4 15  1  0  0  0  0
  5 12  2  0  0  0  0
  6 15  1  0  0  0  0
  7 12  1  0  0  0  0
  8  3  1  0  0  0  0
  9 14  1  0  0  0  0
  9 34  1  0  0  0  0
 10  5  1  0  0  0  0
 11 13  1  0  0  0  0
 11 14  1  0  0  0  0
 12 17  1  0  0  0  0
 13  7  2  0  0  0  0
 16  8  1  0  0  0  0
 17 21  1  0  0  0  0
 18 17  2  0  0  0  0
 20 19  1  0  0  0  0
 21 20  1  0  0  0  0
 21 19  2  0  0  0  0
 23 22  1  1  0  0  0
 23 25  1  0  0  0  0
 23  4  1  0  0  0  0
 25 24  1  1  0  0  0
 26 28  2  0  0  0  0
 27 30  2  0  0  0  0
 28 29  1  0  0  0  0
 29 30  1  0  0  0  0
 30 25  1  0  0  0  0
 31 28  1  0  0  0  0
 32 31  2  0  0  0  0
 33 31  1  0  0  0  0
 34 35  1  0  0  0  0
 35 39  1  1  0  0  0
 36 38  1  0  0  0  0
 37 36  1  0  0  0  0
 37 38  1  0  0  0  0
 38 35  1  6  0  0  0
 39 40  1  0  0  0  0
 41 43  1  0  0  0  0
 41 40  1  0  0  0  0
 42 41  2  0  0  0  0
 44 43  1  0  0  0  0
M  END
>  <MODEL>
4

>  <REMARK>
 VINA RESULT:      -7.0      2.615      7.040
  Name = 
  13 active torsions:
  status: ('A' for Active; 'I' for Inactive)
    1  A    between atoms: C_7  and  C_37
    2  A    between atoms: C_9  and  O_12
    3  A    between atoms: C_9  and  O_19
    4  A    between atoms: C_11  and  C_20
    5  A    between atoms: O_12  and  C_34
    6  A    between atoms: C_17  and  C_29
    7  A    between atoms: C_17  and  C_44
    8  A    between atoms: C_21  and  O_41
    9  A    between atoms: C_23  and  C_32
   10  A    between atoms: C_23  and  C_34
   11  A    between atoms: C_23  and  O_41
   12  A    between atoms: C_31  and  C_40
   13  A    between atoms: C_37  and  C_40
                            x       y       z     vdW  Elec       q    Type
                         _______ _______ _______ _____ _____    ______ ____

>  <TORSDO>
F 13

$$$$
=
 OpenBabel11042418483D

 44 47  0  0  1  0  0  0  0  0999 V2000
  189.9030  174.5660  141.6910 C   0  0  0  0  0  0  0  0  0  0  0  0
  189.6290  175.1880  142.9110 O   0  0  0  0  0  0  0  0  0  0  0  0
  193.9150  175.9330  144.2670 N   0  0  0  0  0  0  0  0  0  0  0  0
  191.5110  176.0140  144.8700 C   0  0  0  0  0  0  0  0  0  0  0  0
  189.0890  173.7720  139.5470 C   0  0  0  0  0  3  0  0  0  0  0  0
  189.9000  176.4890  143.1360 O   0  0  0  0  0  0  0  0  0  0  0  0
  191.3740  173.3320  140.2010 C   0  0  0  0  0  3  0  0  0  0  0  0
  192.7960  175.6980  145.1500 C   0  0  0  0  0  0  0  0  0  0  0  0
  194.0600  175.8950  142.9680 C   0  0  0  0  0  0  0  0  0  0  0  0
  188.8710  174.4410  140.7550 C   0  0  0  0  0  3  0  0  0  0  0  0
  192.3240  174.1750  142.3310 C   0  0  0  0  0  2  0  0  0  0  0  0
  190.3430  173.2070  139.2620 C   0  0  0  0  0  0  0  0  0  0  0  0
  191.1650  174.0020  141.4110 C   0  0  0  0  0  0  0  0  0  0  0  0
  192.9680  175.5150  142.0130 C   0  0  0  0  0  2  0  0  0  0  0  0
  191.1630  176.5260  143.6130 O   0  0  0  0  0  0  0  0  0  0  0  0
  193.1560  175.2230  146.5250 C   0  0  0  0  0  1  0  0  0  0  0  0
  190.5650  172.4720  137.9980 C   0  0  0  0  0  0  0  0  0  0  0  0
  190.7980  173.1130  136.8960 N   0  0  0  0  0  2  0  0  0  0  0  0
  189.6910  169.9060  137.9650 N   0  0  0  0  0  0  0  0  0  0  0  0
  191.0600  169.7780  137.8730 N   0  0  0  0  0  2  0  0  0  0  0  0
  190.4530  171.0130  137.9570 C   0  0  0  0  0  0  0  0  0  0  0  0
  189.5110  174.7050  145.6110 C   0  0  0  0  0  1  0  0  0  0  0  0
  190.4540  175.8510  145.9390 C   0  0  2  0  0  3  0  0  0  0  0  0
  190.0960  177.6690  147.4700 O   0  0  0  0  0  1  0  0  0  0  0  0
  189.7140  177.1650  146.2250 C   0  0  2  0  0  3  0  0  0  0  0  0
  185.4840  177.5850  143.9240 O   0  0  0  0  0  0  0  0  0  0  0  0
  187.6400  176.3850  147.1360 O   0  0  0  0  0  0  0  0  0  0  0  0
  186.0590  177.6900  145.0440 C   0  0  0  0  0  0  0  0  0  0  0  0
  187.4830  177.5330  145.1030 N   0  0  0  0  0  2  0  0  0  0  0  0
  188.2280  176.9950  146.2010 C   0  0  0  0  0  0  0  0  0  0  0  0
  185.2510  178.0330  146.2350 C   0  0  0  0  0  0  0  0  0  0  0  0
  184.2310  177.3490  146.5130 O   0  0  0  0  0  0  0  0  0  0  0  0
  185.5670  179.2190  147.0770 C   0  0  0  0  0  1  0  0  0  0  0  0
  195.3070  176.2650  142.4490 O   0  0  0  0  0  0  0  0  0  0  0  0
  196.3930  175.3530  142.2970 C   0  0  1  0  0  3  0  0  0  0  0  0
  197.1340  174.5170  140.1160 C   0  0  0  0  0  2  0  0  0  0  0  0
  196.3390  175.6650  139.9180 O   0  0  0  0  0  0  0  0  0  0  0  0
  197.1920  175.6710  141.0440 C   0  0  1  0  0  3  0  0  0  0  0  0
  197.3170  175.4360  143.5030 C   0  0  0  0  0  2  0  0  0  0  0  0
  197.5020  174.1390  144.0480 O   0  0  0  0  0  0  0  0  0  0  0  0
  196.7370  173.6820  145.1170 C   0  0  0  0  0  0  0  0  0  0  0  0
  197.1920  173.7900  146.2870 O   0  0  0  0  0  0  0  0  0  0  0  0
  195.4780  173.1170  144.8960 O   0  0  0  0  0  0  0  0  0  0  0  0
  195.2510  172.1910  143.8520 C   0  0  0  0  0  1  0  0  0  0  0  0
  1  2  1  0  0  0  0
  2  6  1  0  0  0  0
  3  8  1  0  0  0  0
  4  8  2  0  0  0  0
  4 23  1  0  0  0  0
  5 10  1  0  0  0  0
  6 15  1  0  0  0  0
  7 13  2  0  0  0  0
  8 16  1  0  0  0  0
  9  3  2  0  0  0  0
 10  1  2  0  0  0  0
 12  5  2  0  0  0  0
 12  7  1  0  0  0  0
 13  1  1  0  0  0  0
 13 11  1  0  0  0  0
 14 11  1  0  0  0  0
 14  9  1  0  0  0  0
 15  4  1  0  0  0  0
 17 12  1  0  0  0  0
 18 17  2  0  0  0  0
 20 21  1  0  0  0  0
 20 19  1  0  0  0  0
 21 19  2  0  0  0  0
 21 17  1  0  0  0  0
 23 22  1  6  0  0  0
 23 25  1  0  0  0  0
 25 24  1  1  0  0  0
 26 28  2  0  0  0  0
 28 29  1  0  0  0  0
 28 31  1  0  0  0  0
 29 30  1  0  0  0  0
 30 25  1  0  0  0  0
 30 27  2  0  0  0  0
 31 32  2  0  0  0  0
 31 33  1  0  0  0  0
 34  9  1  0  0  0  0
 35 34  1  0  0  0  0
 35 39  1  1  0  0  0
 36 38  1  0  0  0  0
 37 36  1  0  0  0  0
 37 38  1  0  0  0  0
 38 35  1  1  0  0  0
 39 40  1  0  0  0  0
 40 41  1  0  0  0  0
 41 42  2  0  0  0  0
 43 41  1  0  0  0  0
 44 43  1  0  0  0  0
M  END
>  <MODEL>
5

>  <REMARK>
 VINA RESULT:      -6.8      3.197      7.640
  Name = 
  13 active torsions:
  status: ('A' for Active; 'I' for Inactive)
    1  A    between atoms: C_7  and  C_37
    2  A    between atoms: C_9  and  O_12
    3  A    between atoms: C_9  and  O_19
    4  A    between atoms: C_11  and  C_20
    5  A    between atoms: O_12  and  C_34
    6  A    between atoms: C_17  and  C_29
    7  A    between atoms: C_17  and  C_44
    8  A    between atoms: C_21  and  O_41
    9  A    between atoms: C_23  and  C_32
   10  A    between atoms: C_23  and  C_34
   11  A    between atoms: C_23  and  O_41
   12  A    between atoms: C_31  and  C_40
   13  A    between atoms: C_37  and  C_40
                            x       y       z     vdW  Elec       q    Type
                         _______ _______ _______ _____ _____    ______ ____

>  <TORSDO>
F 13

$$$$
=
 OpenBabel11042418483D

 44 47  0  0  1  0  0  0  0  0999 V2000
  190.3460  173.5230  142.0070 C   0  0  0  0  0  0  0  0  0  0  0  0
  190.8920  173.5460  143.2920 O   0  0  0  0  0  0  0  0  0  0  0  0
  188.0530  176.5710  145.1770 N   0  0  0  0  0  0  0  0  0  0  0  0
  190.1130  175.2180  145.4500 C   0  0  0  0  0  0  0  0  0  0  0  0
  190.2210  172.4510  139.8320 C   0  0  0  0  0  3  0  0  0  0  0  0
  190.2340  173.0650  144.3650 O   0  0  0  0  0  0  0  0  0  0  0  0
  189.0390  174.5250  140.2180 C   0  0  0  0  0  3  0  0  0  0  0  0
  189.4350  176.3830  145.5570 C   0  0  0  0  0  0  0  0  0  0  0  0
  187.3090  176.0830  144.2200 C   0  0  0  0  0  0  0  0  0  0  0  0
  190.6990  172.4780  141.1460 C   0  0  0  0  0  3  0  0  0  0  0  0
  189.0340  175.6500  142.4270 C   0  0  0  0  0  2  0  0  0  0  0  0
  189.3900  173.4780  139.3550 C   0  0  0  0  0  0  0  0  0  0  0  0
  189.5110  174.5570  141.5350 C   0  0  0  0  0  0  0  0  0  0  0  0
  187.8090  175.1390  143.1670 C   0  0  0  0  0  2  0  0  0  0  0  0
  189.5160  174.0990  144.8530 O   0  0  0  0  0  0  0  0  0  0  0  0
  190.0660  177.5420  146.2670 C   0  0  0  0  0  1  0  0  0  0  0  0
  188.9100  173.4670  137.9570 C   0  0  0  0  0  0  0  0  0  0  0  0
  187.9880  174.2920  137.5700 N   0  0  0  0  0  2  0  0  0  0  0  0
  189.9280  172.1780  135.8000 N   0  0  0  0  0  0  0  0  0  0  0  0
  189.7140  171.1630  136.7060 N   0  0  0  0  0  2  0  0  0  0  0  0
  189.4150  172.4750  137.0050 C   0  0  0  0  0  0  0  0  0  0  0  0
  191.5030  175.2790  147.5300 C   0  0  0  0  0  1  0  0  0  0  0  0
  191.5110  175.1150  146.0200 C   0  0  2  0  0  3  0  0  0  0  0  0
  192.1500  176.2070  143.9760 O   0  0  0  0  0  1  0  0  0  0  0  0
  192.4900  176.0710  145.3240 C   0  0  2  0  0  3  0  0  0  0  0  0
  196.4680  174.2690  143.2520 O   0  0  0  0  0  0  0  0  0  0  0  0
  194.5570  175.7610  146.4960 O   0  0  0  0  0  0  0  0  0  0  0  0
  195.7520  174.2460  144.2930 C   0  0  0  0  0  0  0  0  0  0  0  0
  194.5160  174.9750  144.2930 N   0  0  0  0  0  2  0  0  0  0  0  0
  193.9070  175.6030  145.4260 C   0  0  0  0  0  0  0  0  0  0  0  0
  196.1830  173.4210  145.4420 C   0  0  0  0  0  0  0  0  0  0  0  0
  197.1690  173.7850  146.1340 O   0  0  0  0  0  0  0  0  0  0  0  0
  195.5280  172.1230  145.7600 C   0  0  0  0  0  1  0  0  0  0  0  0
  185.9550  176.4460  144.2090 O   0  0  0  0  0  0  0  0  0  0  0  0
  185.5090  177.7910  144.0490 C   0  0  1  0  0  3  0  0  0  0  0  0
  184.0770  178.6700  145.8330 C   0  0  0  0  0  2  0  0  0  0  0  0
  184.9130  177.6700  146.3720 O   0  0  0  0  0  0  0  0  0  0  0  0
  185.4820  178.5100  145.3890 C   0  0  1  0  0  3  0  0  0  0  0  0
  186.4400  178.5420  143.1080 C   0  0  0  0  0  2  0  0  0  0  0  0
  185.7370  178.8870  141.9250 O   0  0  0  0  0  0  0  0  0  0  0  0
  185.5850  177.9840  140.8780 C   0  0  0  0  0  0  0  0  0  0  0  0
  186.5490  177.2340  140.5690 O   0  0  0  0  0  0  0  0  0  0  0  0
  184.3750  177.9040  140.1820 O   0  0  0  0  0  0  0  0  0  0  0  0
  183.1500  178.2930  140.7720 C   0  0  0  0  0  1  0  0  0  0  0  0
  1  2  1  0  0  0  0
  2  6  1  0  0  0  0
  3  8  1  0  0  0  0
  4  8  2  0  0  0  0
  4 23  1  0  0  0  0
  5 10  1  0  0  0  0
  6 15  1  0  0  0  0
  7 13  2  0  0  0  0
  8 16  1  0  0  0  0
  9  3  2  0  0  0  0
 10  1  2  0  0  0  0
 11 14  1  0  0  0  0
 12  5  2  0  0  0  0
 12  7  1  0  0  0  0
 13  1  1  0  0  0  0
 13 11  1  0  0  0  0
 14  9  1  0  0  0  0
 15  4  1  0  0  0  0
 17 12  1  0  0  0  0
 18 17  2  0  0  0  0
 19 20  1  0  0  0  0
 19 21  2  0  0  0  0
 20 21  1  0  0  0  0
 21 17  1  0  0  0  0
 23 22  1  1  0  0  0
 25 24  1  6  0  0  0
 25 30  1  0  0  0  0
 25 23  1  0  0  0  0
 26 28  2  0  0  0  0
 28 29  1  0  0  0  0
 28 31  1  0  0  0  0
 29 30  1  0  0  0  0
 30 27  2  0  0  0  0
 31 33  1  0  0  0  0
 31 32  2  0  0  0  0
 34  9  1  0  0  0  0
 35 39  1  6  0  0  0
 35 34  1  0  0  0  0
 36 37  1  0  0  0  0
 38 35  1  6  0  0  0
 38 36  1  0  0  0  0
 38 37  1  0  0  0  0
 40 39  1  0  0  0  0
 41 40  1  0  0  0  0
 42 41  2  0  0  0  0
 43 44  1  0  0  0  0
 43 41  1  0  0  0  0
M  END
>  <MODEL>
6

>  <REMARK>
 VINA RESULT:      -6.8      2.881      6.105
  Name = 
  13 active torsions:
  status: ('A' for Active; 'I' for Inactive)
    1  A    between atoms: C_7  and  C_37
    2  A    between atoms: C_9  and  O_12
    3  A    between atoms: C_9  and  O_19
    4  A    between atoms: C_11  and  C_20
    5  A    between atoms: O_12  and  C_34
    6  A    between atoms: C_17  and  C_29
    7  A    between atoms: C_17  and  C_44
    8  A    between atoms: C_21  and  O_41
    9  A    between atoms: C_23  and  C_32
   10  A    between atoms: C_23  and  C_34
   11  A    between atoms: C_23  and  O_41
   12  A    between atoms: C_31  and  C_40
   13  A    between atoms: C_37  and  C_40
                            x       y       z     vdW  Elec       q    Type
                         _______ _______ _______ _____ _____    ______ ____

>  <TORSDO>
F 13

$$$$
=
 OpenBabel11042418483D

 44 47  0  0  1  0  0  0  0  0999 V2000
  188.8980  176.9780  144.7270 C   0  0  0  0  0  0  0  0  0  0  0  0
  190.0700  176.6870  145.4280 O   0  0  0  0  0  0  0  0  0  0  0  0
  191.7920  173.5600  142.5960 N   0  0  0  0  0  0  0  0  0  0  0  0
  191.9980  174.7040  144.7860 C   0  0  0  0  0  0  0  0  0  0  0  0
  186.9790  178.4330  144.4210 C   0  0  0  0  0  3  0  0  0  0  0  0
  191.2920  177.0060  144.9580 O   0  0  0  0  0  0  0  0  0  0  0  0
  187.1680  176.4050  143.1180 C   0  0  0  0  0  3  0  0  0  0  0  0
  191.9990  173.5860  144.0260 C   0  0  0  0  0  0  0  0  0  0  0  0
  191.0470  174.2610  141.7810 C   0  0  0  0  0  0  0  0  0  0  0  0
  188.1880  178.1370  145.0580 C   0  0  0  0  0  3  0  0  0  0  0  0
  189.1300  174.9000  143.2950 C   0  0  0  0  0  2  0  0  0  0  0  0
  186.4560  177.5660  143.4480 C   0  0  0  0  0  0  0  0  0  0  0  0
  188.3790  176.1040  143.7490 C   0  0  0  0  0  0  0  0  0  0  0  0
  190.1120  175.3460  142.2250 C   0  0  0  0  0  2  0  0  0  0  0  0
  191.6920  175.9490  144.2200 O   0  0  0  0  0  0  0  0  0  0  0  0
  192.4030  172.2780  144.6360 C   0  0  0  0  0  1  0  0  0  0  0  0
  185.1620  177.8630  142.7960 C   0  0  0  0  0  0  0  0  0  0  0  0
  184.0890  178.0210  143.5040 N   0  0  0  0  0  2  0  0  0  0  0  0
  184.3050  177.9800  140.2260 N   0  0  0  0  0  0  0  0  0  0  0  0
  185.6760  177.9190  140.1030 N   0  0  0  0  0  2  0  0  0  0  0  0
  185.0600  177.9090  141.3360 C   0  0  0  0  0  0  0  0  0  0  0  0
  191.1970  174.9680  147.1420 C   0  0  0  0  0  1  0  0  0  0  0  0
  192.3730  174.6110  146.2480 C   0  0  2  0  0  3  0  0  0  0  0  0
  193.3290  176.7860  146.6140 O   0  0  0  0  0  1  0  0  0  0  0  0
  193.6340  175.4240  146.5730 C   0  0  2  0  0  3  0  0  0  0  0  0
  196.8420  177.1630  143.4030 O   0  0  0  0  0  0  0  0  0  0  0  0
  195.2290  174.0490  145.4290 O   0  0  0  0  0  0  0  0  0  0  0  0
  196.0350  176.2180  143.6340 C   0  0  0  0  0  0  0  0  0  0  0  0
  195.1950  176.3010  144.7940 N   0  0  0  0  0  2  0  0  0  0  0  0
  194.7270  175.1970  145.5770 C   0  0  0  0  0  0  0  0  0  0  0  0
  195.9430  175.1010  142.6690 C   0  0  0  0  0  0  0  0  0  0  0  0
  196.8730  174.2550  142.6070 O   0  0  0  0  0  0  0  0  0  0  0  0
  194.8110  174.9900  141.7100 C   0  0  0  0  0  1  0  0  0  0  0  0
  191.1660  173.9950  140.4110 O   0  0  0  0  0  0  0  0  0  0  0  0
  190.3420  173.0560  139.7240 C   0  0  1  0  0  3  0  0  0  0  0  0
  188.2000  173.2180  138.5420 C   0  0  0  0  0  2  0  0  0  0  0  0
  188.5070  174.4750  139.1040 O   0  0  0  0  0  0  0  0  0  0  0  0
  189.5910  173.7300  138.5870 C   0  0  1  0  0  3  0  0  0  0  0  0
  191.1940  171.9330  139.1510 C   0  0  0  0  0  2  0  0  0  0  0  0
  190.8780  170.7160  139.8090 O   0  0  0  0  0  0  0  0  0  0  0  0
  191.2990  170.4600  141.1100 C   0  0  0  0  0  0  0  0  0  0  0  0
  190.4410  170.3990  142.0310 O   0  0  0  0  0  0  0  0  0  0  0  0
  192.6550  170.2670  141.3910 O   0  0  0  0  0  0  0  0  0  0  0  0
  193.0870  169.3540  142.3800 C   0  0  0  0  0  1  0  0  0  0  0  0
  1 10  1  0  0  0  0
  1  2  1  0  0  0  0
  3  8  1  0  0  0  0
  4 23  1  0  0  0  0
  5 10  2  0  0  0  0
  6  2  1  0  0  0  0
  7 12  2  0  0  0  0
  7 13  1  0  0  0  0
  8 16  1  0  0  0  0
  8  4  2  0  0  0  0
  9 14  1  0  0  0  0
  9  3  2  0  0  0  0
 11 13  1  0  0  0  0
 12  5  1  0  0  0  0
 13  1  2  0  0  0  0
 14 11  1  0  0  0  0
 15  4  1  0  0  0  0
 15  6  1  0  0  0  0
 17 12  1  0  0  0  0
 17 18  2  0  0  0  0
 19 21  2  0  0  0  0
 20 19  1  0  0  0  0
 20 21  1  0  0  0  0
 21 17  1  0  0  0  0
 23 25  1  0  0  0  0
 23 22  1  1  0  0  0
 25 24  1  6  0  0  0
 26 28  2  0  0  0  0
 27 30  2  0  0  0  0
 28 29  1  0  0  0  0
 29 30  1  0  0  0  0
 30 25  1  0  0  0  0
 31 28  1  0  0  0  0
 32 31  2  0  0  0  0
 33 31  1  0  0  0  0
 34  9  1  0  0  0  0
 35 39  1  6  0  0  0
 35 34  1  0  0  0  0
 36 38  1  0  0  0  0
 36 37  1  0  0  0  0
 38 37  1  0  0  0  0
 38 35  1  1  0  0  0
 39 40  1  0  0  0  0
 40 41  1  0  0  0  0
 41 43  1  0  0  0  0
 41 42  2  0  0  0  0
 43 44  1  0  0  0  0
M  END
>  <MODEL>
7

>  <REMARK>
 VINA RESULT:      -6.8      1.803      3.526
  Name = 
  13 active torsions:
  status: ('A' for Active; 'I' for Inactive)
    1  A    between atoms: C_7  and  C_37
    2  A    between atoms: C_9  and  O_12
    3  A    between atoms: C_9  and  O_19
    4  A    between atoms: C_11  and  C_20
    5  A    between atoms: O_12  and  C_34
    6  A    between atoms: C_17  and  C_29
    7  A    between atoms: C_17  and  C_44
    8  A    between atoms: C_21  and  O_41
    9  A    between atoms: C_23  and  C_32
   10  A    between atoms: C_23  and  C_34
   11  A    between atoms: C_23  and  O_41
   12  A    between atoms: C_31  and  C_40
   13  A    between atoms: C_37  and  C_40
                            x       y       z     vdW  Elec       q    Type
                         _______ _______ _______ _____ _____    ______ ____

>  <TORSDO>
F 13

$$$$
=
 OpenBabel11042418483D

 44 47  0  0  1  0  0  0  0  0999 V2000
  189.8030  174.8590  142.6200 C   0  0  0  0  0  0  0  0  0  0  0  0
  189.5410  175.9060  143.5070 O   0  0  0  0  0  0  0  0  0  0  0  0
  193.0530  175.2840  146.3430 N   0  0  0  0  0  0  0  0  0  0  0  0
  190.9460  176.5130  145.8980 C   0  0  0  0  0  0  0  0  0  0  0  0
  189.3450  173.7910  140.4890 C   0  0  0  0  0  3  0  0  0  0  0  0
  190.3430  176.9840  143.6080 O   0  0  0  0  0  0  0  0  0  0  0  0
  190.8230  172.7210  142.0750 C   0  0  0  0  0  3  0  0  0  0  0  0
  191.7680  175.8240  146.7220 C   0  0  0  0  0  0  0  0  0  0  0  0
  193.5190  174.7610  145.2390 C   0  0  0  0  0  0  0  0  0  0  0  0
  189.1560  174.8520  141.3800 C   0  0  0  0  0  3  0  0  0  0  0  0
  191.4210  173.7720  144.2400 C   0  0  0  0  0  2  0  0  0  0  0  0
  190.1770  172.7120  140.8320 C   0  0  0  0  0  0  0  0  0  0  0  0
  190.6410  173.7800  142.9700 C   0  0  0  0  0  0  0  0  0  0  0  0
  192.7020  174.5540  143.9990 C   0  0  0  0  0  2  0  0  0  0  0  0
  191.2660  176.6710  144.5430 O   0  0  0  0  0  0  0  0  0  0  0  0
  191.4420  175.7330  148.1820 C   0  0  0  0  0  1  0  0  0  0  0  0
  190.3540  171.5750  139.9040 C   0  0  0  0  0  0  0  0  0  0  0  0
  189.9730  171.6680  138.6690 N   0  0  0  0  0  2  0  0  0  0  0  0
  191.8200  169.3310  140.3080 N   0  0  0  0  0  0  0  0  0  0  0  0
  190.8180  169.2310  141.2490 N   0  0  0  0  0  2  0  0  0  0  0  0
  190.8930  170.3010  140.3830 C   0  0  0  0  0  0  0  0  0  0  0  0
  190.0160  178.0520  147.6390 C   0  0  0  0  0  1  0  0  0  0  0  0
  189.6940  177.1520  146.4580 C   0  0  2  0  0  3  0  0  0  0  0  0
  188.8490  174.9350  146.0700 O   0  0  0  0  0  1  0  0  0  0  0  0
  188.6110  176.1130  146.7810 C   0  0  2  0  0  3  0  0  0  0  0  0
  185.1870  177.1620  143.5340 O   0  0  0  0  0  0  0  0  0  0  0  0
  186.4060  176.8340  147.3830 O   0  0  0  0  0  0  0  0  0  0  0  0
  185.7170  177.5260  144.6220 C   0  0  0  0  0  0  0  0  0  0  0  0
  186.8760  176.8230  145.0910 N   0  0  0  0  0  2  0  0  0  0  0  0
  187.2360  176.6090  146.4590 C   0  0  0  0  0  0  0  0  0  0  0  0
  185.1640  178.7010  145.3320 C   0  0  0  0  0  0  0  0  0  0  0  0
  185.8670  179.7360  145.4630 O   0  0  0  0  0  0  0  0  0  0  0  0
  183.8180  178.6650  145.9660 C   0  0  0  0  0  1  0  0  0  0  0  0
  194.8750  174.4070  145.2170 O   0  0  0  0  0  0  0  0  0  0  0  0
  195.6380  174.3140  144.0160 C   0  0  1  0  0  3  0  0  0  0  0  0
  196.2080  176.3000  142.6990 C   0  0  0  0  0  2  0  0  0  0  0  0
  195.8600  176.7040  144.0050 O   0  0  0  0  0  0  0  0  0  0  0  0
  196.5840  175.4960  143.8860 C   0  0  1  0  0  3  0  0  0  0  0  0
  196.4540  173.0300  144.0140 C   0  0  0  0  0  2  0  0  0  0  0  0
  195.5850  171.9150  144.1390 O   0  0  0  0  0  0  0  0  0  0  0  0
  195.3730  171.2890  145.3640 C   0  0  0  0  0  0  0  0  0  0  0  0
  194.1920  171.1080  145.7640 O   0  0  0  0  0  0  0  0  0  0  0  0
  196.4560  170.8610  146.1360 O   0  0  0  0  0  0  0  0  0  0  0  0
  197.2900  169.7960  145.7230 C   0  0  0  0  0  1  0  0  0  0  0  0
  1 13  1  0  0  0  0
  1  2  1  0  0  0  0
  2  6  1  0  0  0  0
  3  8  1  0  0  0  0
  4 23  1  0  0  0  0
  4  8  2  0  0  0  0
  5 12  2  0  0  0  0
  5 10  1  0  0  0  0
  6 15  1  0  0  0  0
  7 13  2  0  0  0  0
  8 16  1  0  0  0  0
  9  3  2  0  0  0  0
 10  1  2  0  0  0  0
 12  7  1  0  0  0  0
 13 11  1  0  0  0  0
 14 11  1  0  0  0  0
 14  9  1  0  0  0  0
 15  4  1  0  0  0  0
 17 21  1  0  0  0  0
 17 12  1  0  0  0  0
 18 17  2  0  0  0  0
 19 21  2  0  0  0  0
 19 20  1  0  0  0  0
 21 20  1  0  0  0  0
 23 25  1  0  0  0  0
 23 22  1  1  0  0  0
 25 24  1  6  0  0  0
 26 28  2  0  0  0  0
 28 29  1  0  0  0  0
 28 31  1  0  0  0  0
 29 30  1  0  0  0  0
 30 25  1  0  0  0  0
 30 27  2  0  0  0  0
 31 32  2  0  0  0  0
 31 33  1  0  0  0  0
 34  9  1  0  0  0  0
 35 39  1  1  0  0  0
 35 34  1  0  0  0  0
 36 38  1  0  0  0  0
 36 37  1  0  0  0  0
 38 37  1  0  0  0  0
 38 35  1  6  0  0  0
 39 40  1  0  0  0  0
 40 41  1  0  0  0  0
 41 42  2  0  0  0  0
 41 43  1  0  0  0  0
 44 43  1  0  0  0  0
M  END
>  <MODEL>
8

>  <REMARK>
 VINA RESULT:      -6.7      3.232      7.880
  Name = 
  13 active torsions:
  status: ('A' for Active; 'I' for Inactive)
    1  A    between atoms: C_7  and  C_37
    2  A    between atoms: C_9  and  O_12
    3  A    between atoms: C_9  and  O_19
    4  A    between atoms: C_11  and  C_20
    5  A    between atoms: O_12  and  C_34
    6  A    between atoms: C_17  and  C_29
    7  A    between atoms: C_17  and  C_44
    8  A    between atoms: C_21  and  O_41
    9  A    between atoms: C_23  and  C_32
   10  A    between atoms: C_23  and  C_34
   11  A    between atoms: C_23  and  O_41
   12  A    between atoms: C_31  and  C_40
   13  A    between atoms: C_37  and  C_40
                            x       y       z     vdW  Elec       q    Type
                         _______ _______ _______ _____ _____    ______ ____

>  <TORSDO>
F 13

$$$$
=
 OpenBabel11042418483D

 44 47  0  0  1  0  0  0  0  0999 V2000
  190.7690  176.6050  145.0930 C   0  0  0  0  0  0  0  0  0  0  0  0
  192.1620  176.5030  145.0580 O   0  0  0  0  0  0  0  0  0  0  0  0
  192.4910  172.0610  144.1000 N   0  0  0  0  0  0  0  0  0  0  0  0
  193.6950  174.1380  144.7170 C   0  0  0  0  0  0  0  0  0  0  0  0
  188.8000  178.0240  145.1310 C   0  0  0  0  0  3  0  0  0  0  0  0
  192.8390  176.2500  143.9210 O   0  0  0  0  0  0  0  0  0  0  0  0
  188.5580  175.6280  145.3480 C   0  0  0  0  0  3  0  0  0  0  0  0
  193.4540  172.8160  144.8670 C   0  0  0  0  0  0  0  0  0  0  0  0
  191.3150  172.3440  143.6030 C   0  0  0  0  0  0  0  0  0  0  0  0
  190.1870  177.8760  145.0390 C   0  0  0  0  0  3  0  0  0  0  0  0
  190.4980  174.0890  145.2350 C   0  0  0  0  0  2  0  0  0  0  0  0
  187.9730  176.9000  145.2920 C   0  0  0  0  0  0  0  0  0  0  0  0
  189.9450  175.4720  145.2530 C   0  0  0  0  0  0  0  0  0  0  0  0
  190.6250  173.6630  143.7810 C   0  0  0  0  0  2  0  0  0  0  0  0
  192.9250  174.9060  143.8330 O   0  0  0  0  0  0  0  0  0  0  0  0
  194.3390  172.0010  145.7610 C   0  0  0  0  0  1  0  0  0  0  0  0
  186.5080  177.0580  145.4210 C   0  0  0  0  0  0  0  0  0  0  0  0
  185.7260  176.7860  144.4250 N   0  0  0  0  0  2  0  0  0  0  0  0
  185.9370  177.7040  147.9920 N   0  0  0  0  0  0  0  0  0  0  0  0
  184.9620  178.3610  147.2730 N   0  0  0  0  0  2  0  0  0  0  0  0
  185.9240  177.5940  146.6530 C   0  0  0  0  0  0  0  0  0  0  0  0
  194.3160  175.7680  146.5120 C   0  0  0  0  0  1  0  0  0  0  0  0
  194.8330  174.7800  145.4800 C   0  0  2  0  0  3  0  0  0  0  0  0
  195.5570  176.7230  144.2660 O   0  0  0  0  0  1  0  0  0  0  0  0
  195.8820  175.3940  144.5440 C   0  0  2  0  0  3  0  0  0  0  0  0
  195.7900  175.3140  139.7110 O   0  0  0  0  0  0  0  0  0  0  0  0
  196.3890  173.4400  143.2510 O   0  0  0  0  0  0  0  0  0  0  0  0
  195.4810  174.6730  140.7550 C   0  0  0  0  0  0  0  0  0  0  0  0
  195.6720  175.3020  142.0300 N   0  0  0  0  0  2  0  0  0  0  0  0
  196.0020  174.6410  143.2560 C   0  0  0  0  0  0  0  0  0  0  0  0
  194.8760  173.3290  140.6180 C   0  0  0  0  0  0  0  0  0  0  0  0
  193.7170  173.1210  141.0640 O   0  0  0  0  0  0  0  0  0  0  0  0
  195.6330  172.1890  140.0340 C   0  0  0  0  0  1  0  0  0  0  0  0
  190.6890  171.3570  142.8300 O   0  0  0  0  0  0  0  0  0  0  0  0
  191.1210  171.0020  141.5180 C   0  0  1  0  0  3  0  0  0  0  0  0
  192.3060  168.8880  141.1470 C   0  0  0  0  0  2  0  0  0  0  0  0
  191.5710  168.7940  142.3470 O   0  0  0  0  0  0  0  0  0  0  0  0
  190.9660  169.5070  141.2880 C   0  0  1  0  0  3  0  0  0  0  0  0
  190.2990  171.7470  140.4770 C   0  0  0  0  0  2  0  0  0  0  0  0
  189.1020  172.2230  141.0720 O   0  0  0  0  0  0  0  0  0  0  0  0
  188.5500  173.4510  140.7180 C   0  0  0  0  0  0  0  0  0  0  0  0
  188.6080  173.8250  139.5160 O   0  0  0  0  0  0  0  0  0  0  0  0
  187.9350  174.2540  141.6810 O   0  0  0  0  0  0  0  0  0  0  0  0
  188.0240  175.6650  141.6420 C   0  0  0  0  0  1  0  0  0  0  0  0
  1 13  1  0  0  0  0
  2  1  1  0  0  0  0
  3  8  1  0  0  0  0
  4  8  2  0  0  0  0
  4 23  1  0  0  0  0
  5 12  2  0  0  0  0
  6  2  1  0  0  0  0
  8 16  1  0  0  0  0
  9 14  1  0  0  0  0
  9  3  2  0  0  0  0
 10  1  2  0  0  0  0
 10  5  1  0  0  0  0
 11 13  1  0  0  0  0
 12  7  1  0  0  0  0
 12 17  1  0  0  0  0
 13  7  2  0  0  0  0
 14 11  1  0  0  0  0
 15  6  1  0  0  0  0
 15  4  1  0  0  0  0
 17 21  1  0  0  0  0
 18 17  2  0  0  0  0
 20 19  1  0  0  0  0
 21 20  1  0  0  0  0
 21 19  2  0  0  0  0
 23 22  1  1  0  0  0
 25 24  1  6  0  0  0
 25 23  1  0  0  0  0
 26 28  2  0  0  0  0
 27 30  2  0  0  0  0
 28 29  1  0  0  0  0
 29 30  1  0  0  0  0
 30 25  1  0  0  0  0
 31 28  1  0  0  0  0
 31 32  2  0  0  0  0
 33 31  1  0  0  0  0
 34  9  1  0  0  0  0
 35 39  1  6  0  0  0
 35 34  1  0  0  0  0
 36 38  1  0  0  0  0
 36 37  1  0  0  0  0
 38 35  1  1  0  0  0
 38 37  1  0  0  0  0
 39 40  1  0  0  0  0
 41 40  1  0  0  0  0
 41 43  1  0  0  0  0
 42 41  2  0  0  0  0
 44 43  1  0  0  0  0
M  END
>  <MODEL>
9

>  <REMARK>
 VINA RESULT:      -6.7      2.923      4.471
  Name = 
  13 active torsions:
  status: ('A' for Active; 'I' for Inactive)
    1  A    between atoms: C_7  and  C_37
    2  A    between atoms: C_9  and  O_12
    3  A    between atoms: C_9  and  O_19
    4  A    between atoms: C_11  and  C_20
    5  A    between atoms: O_12  and  C_34
    6  A    between atoms: C_17  and  C_29
    7  A    between atoms: C_17  and  C_44
    8  A    between atoms: C_21  and  O_41
    9  A    between atoms: C_23  and  C_32
   10  A    between atoms: C_23  and  C_34
   11  A    between atoms: C_23  and  O_41
   12  A    between atoms: C_31  and  C_40
   13  A    between atoms: C_37  and  C_40
                            x       y       z     vdW  Elec       q    Type
                         _______ _______ _______ _____ _____    ______ ____

>  <TORSDO>
F 13

$$$$
