=
 OpenBabel11042418183D

 35 37  0  0  0  0  0  0  0  0999 V2000
  186.6650  177.7140  142.7770 C   0  0  0  0  0  2  0  0  0  0  0  0
  187.6930  176.8350  143.3390 N   0  0  0  0  0  0  0  0  0  0  0  0
  185.5840  178.0130  143.7880 C   0  0  0  0  0  0  0  0  0  0  0  0
  187.2630  177.6500  145.5450 C   0  0  0  0  0  3  0  0  0  0  0  0
  188.1260  177.0840  144.6960 C   0  0  0  0  0  0  0  0  0  0  0  0
  185.9070  178.0360  145.1060 C   0  0  0  0  0  0  0  0  0  0  0  0
  191.8630  177.1170  144.9990 N   0  0  0  0  0  0  0  0  0  0  0  0
  190.6020  177.4040  144.5810 C   0  0  0  0  0  3  0  0  0  0  0  0
  192.0980  176.2010  145.9760 C   0  0  0  0  0  0  0  0  0  0  0  0
  189.7280  175.7970  146.1570 C   0  0  0  0  0  0  0  0  0  0  0  0
  189.4960  176.7590  145.1560 C   0  0  0  0  0  0  0  0  0  0  0  0
  193.7380  175.8660  146.4840 Cl  0  0  0  0  0  0  0  0  0  0  0  0
  188.7040  175.1020  146.7110 F   0  0  0  0  0  0  0  0  0  0  0  0
  191.0330  175.5210  146.5670 C   0  0  0  0  0  3  0  0  0  0  0  0
  188.6910  174.5810  143.2170 C   0  0  0  0  0  3  0  0  0  0  0  0
  189.0650  173.5030  141.0850 C   0  0  0  0  0  3  0  0  0  0  0  0
  188.0810  175.7100  141.1680 C   0  0  0  0  0  3  0  0  0  0  0  0
  189.1510  173.4730  142.4860 C   0  0  0  0  0  0  0  0  0  0  0  0
  188.1470  175.7020  142.5700 C   0  0  0  0  0  0  0  0  0  0  0  0
  188.5340  174.6160  140.4290 C   0  0  0  0  0  3  0  0  0  0  0  0
  189.8000  172.2850  144.6140 C   0  0  0  0  0  1  0  0  0  0  0  0
  190.1770  171.1700  142.4210 C   0  0  0  0  0  1  0  0  0  0  0  0
  189.7010  172.3280  143.1630 N   0  0  0  0  0  0  0  0  0  0  0  0
  183.4700  179.0690  143.9630 O   0  0  0  0  0  0  0  0  0  0  0  0
  184.2410  178.3610  143.2590 C   0  0  0  0  0  0  0  0  0  0  0  0
  183.8330  177.9430  141.9490 N   0  0  0  0  0  2  0  0  0  0  0  0
  182.3470  177.7860  140.1730 O   0  0  0  0  0  0  0  0  0  0  0  0
  181.5670  178.9770  142.0220 N   0  0  0  0  0  2  0  0  0  0  0  0
  182.5680  178.2190  141.3350 C   0  0  0  0  0  0  0  0  0  0  0  0
  180.2600  179.2560  141.4470 C   0  0  0  0  0  2  0  0  0  0  0  0
  179.2870  178.1430  141.8000 C   0  0  0  0  0  2  0  0  0  0  0  0
  178.2140  178.6620  142.7380 C   0  0  0  0  0  2  0  0  0  0  0  0
  178.1850  177.8920  143.9020 O   0  0  0  0  0  1  0  0  0  0  0  0
  184.9660  178.5040  146.1700 C   0  0  0  0  0  2  0  0  0  0  0  0
  185.7430  179.0360  147.3590 C   0  0  0  0  0  1  0  0  0  0  0  0
  1  2  1  0  0  0  0
  1  3  1  0  0  0  0
  2  5  1  0  0  0  0
  3  6  2  0  0  0  0
  5 11  1  0  0  0  0
  5  4  2  0  0  0  0
  6  4  1  0  0  0  0
  6 34  1  0  0  0  0
  7  9  1  0  0  0  0
  8  7  2  0  0  0  0
  8 11  1  0  0  0  0
  9 12  1  0  0  0  0
  9 14  2  0  0  0  0
 10 14  1  0  0  0  0
 10 13  1  0  0  0  0
 11 10  2  0  0  0  0
 16 18  1  0  0  0  0
 17 19  2  0  0  0  0
 18 23  1  0  0  0  0
 18 15  2  0  0  0  0
 19 15  1  0  0  0  0
 19  2  1  0  0  0  0
 20 16  2  0  0  0  0
 20 17  1  0  0  0  0
 22 23  1  0  0  0  0
 23 21  1  0  0  0  0
 25  3  1  0  0  0  0
 25 24  2  0  0  0  0
 26 25  1  0  0  0  0
 27 29  2  0  0  0  0
 29 26  1  0  0  0  0
 29 28  1  0  0  0  0
 30 31  1  0  0  0  0
 30 28  1  0  0  0  0
 31 32  1  0  0  0  0
 32 33  1  0  0  0  0
 34 35  1  0  0  0  0
M  END
>  <MODEL>
1

>  <REMARK>
 VINA RESULT:      -8.3      0.000      0.000
  Name = 
  8 active torsions:
  status: ('A' for Active; 'I' for Inactive)
    1  A    between atoms: C_2  and  C_34
    2  A    between atoms: N_8  and  C_28
    3  A    between atoms: C_11  and  C_14
    4  A    between atoms: C_12  and  C_32
    5  A    between atoms: C_16  and  C_29
    6  A    between atoms: C_23  and  N_27
    7  A    between atoms: N_30  and  C_31
    8  A    between atoms: C_31  and  C_32
                            x       y       z     vdW  Elec       q    Type
                         _______ _______ _______ _____ _____    ______ ____

>  <TORSDO>
F 8

$$$$
=
 OpenBabel11042418183D

 35 37  0  0  0  0  0  0  0  0999 V2000
  186.7140  177.6560  142.3940 C   0  0  0  0  0  2  0  0  0  0  0  0
  187.7980  176.8780  142.9990 N   0  0  0  0  0  0  0  0  0  0  0  0
  185.7120  178.1010  143.4320 C   0  0  0  0  0  0  0  0  0  0  0  0
  187.5280  178.0180  145.0830 C   0  0  0  0  0  3  0  0  0  0  0  0
  188.3310  177.3330  144.2630 C   0  0  0  0  0  0  0  0  0  0  0  0
  186.1360  178.3270  144.7010 C   0  0  0  0  0  0  0  0  0  0  0  0
  191.3170  176.2380  146.2500 N   0  0  0  0  0  0  0  0  0  0  0  0
  190.0290  176.4720  145.8820 C   0  0  0  0  0  3  0  0  0  0  0  0
  192.3600  176.5920  145.4540 C   0  0  0  0  0  0  0  0  0  0  0  0
  190.8120  177.4740  143.8300 C   0  0  0  0  0  0  0  0  0  0  0  0
  189.7390  177.0880  144.6560 C   0  0  0  0  0  0  0  0  0  0  0  0
  194.0010  176.2690  145.9670 Cl  0  0  0  0  0  0  0  0  0  0  0  0
  190.5960  178.1210  142.6580 F   0  0  0  0  0  0  0  0  0  0  0  0
  192.1250  177.2220  144.2320 C   0  0  0  0  0  3  0  0  0  0  0  0
  188.1840  175.5110  140.9810 C   0  0  0  0  0  3  0  0  0  0  0  0
  188.9720  173.2320  141.1560 C   0  0  0  0  0  3  0  0  0  0  0  0
  188.6090  174.5440  143.1560 C   0  0  0  0  0  3  0  0  0  0  0  0
  188.5670  174.3120  140.3570 C   0  0  0  0  0  0  0  0  0  0  0  0
  188.2080  175.6420  142.3780 C   0  0  0  0  0  0  0  0  0  0  0  0
  188.9920  173.3460  142.5480 C   0  0  0  0  0  3  0  0  0  0  0  0
  189.3990  173.2450  138.2280 C   0  0  0  0  0  1  0  0  0  0  0  0
  187.6570  175.0200  138.1140 C   0  0  0  0  0  1  0  0  0  0  0  0
  188.5420  174.1940  138.9220 N   0  0  0  0  0  0  0  0  0  0  0  0
  183.5320  178.9850  143.7190 O   0  0  0  0  0  0  0  0  0  0  0  0
  184.3250  178.3600  142.9650 C   0  0  0  0  0  0  0  0  0  0  0  0
  183.8980  177.9470  141.6590 N   0  0  0  0  0  2  0  0  0  0  0  0
  182.3580  177.7240  139.9370 O   0  0  0  0  0  0  0  0  0  0  0  0
  181.5650  178.8000  141.8500 N   0  0  0  0  0  2  0  0  0  0  0  0
  182.5920  178.1410  141.1030 C   0  0  0  0  0  0  0  0  0  0  0  0
  180.2180  178.9930  141.3340 C   0  0  0  0  0  2  0  0  0  0  0  0
  179.1960  178.6760  142.4130 C   0  0  0  0  0  2  0  0  0  0  0  0
  178.3630  177.4740  142.0100 C   0  0  0  0  0  2  0  0  0  0  0  0
  178.3500  176.5340  143.0420 O   0  0  0  0  0  1  0  0  0  0  0  0
  185.2740  178.9480  145.7530 C   0  0  0  0  0  2  0  0  0  0  0  0
  184.8410  177.9000  146.7610 C   0  0  0  0  0  1  0  0  0  0  0  0
  1  2  1  0  0  0  0
  1  3  1  0  0  0  0
  2  5  1  0  0  0  0
  3  6  2  0  0  0  0
  5 11  1  0  0  0  0
  5  4  2  0  0  0  0
  6  4  1  0  0  0  0
  6 34  1  0  0  0  0
  8  7  1  0  0  0  0
  9 12  1  0  0  0  0
  9  7  2  0  0  0  0
 10 14  2  0  0  0  0
 10 11  1  0  0  0  0
 11  8  2  0  0  0  0
 13 10  1  0  0  0  0
 14  9  1  0  0  0  0
 15 19  1  0  0  0  0
 16 20  2  0  0  0  0
 18 15  2  0  0  0  0
 18 16  1  0  0  0  0
 19  2  1  0  0  0  0
 19 17  2  0  0  0  0
 20 17  1  0  0  0  0
 21 23  1  0  0  0  0
 22 23  1  0  0  0  0
 23 18  1  0  0  0  0
 25  3  1  0  0  0  0
 25 24  2  0  0  0  0
 26 25  1  0  0  0  0
 27 29  2  0  0  0  0
 29 26  1  0  0  0  0
 29 28  1  0  0  0  0
 30 28  1  0  0  0  0
 30 31  1  0  0  0  0
 32 31  1  0  0  0  0
 32 33  1  0  0  0  0
 34 35  1  0  0  0  0
M  END
>  <MODEL>
2

>  <REMARK>
 VINA RESULT:      -8.3      1.527      2.350
  Name = 
  8 active torsions:
  status: ('A' for Active; 'I' for Inactive)
    1  A    between atoms: C_2  and  C_34
    2  A    between atoms: N_8  and  C_28
    3  A    between atoms: C_11  and  C_14
    4  A    between atoms: C_12  and  C_32
    5  A    between atoms: C_16  and  C_29
    6  A    between atoms: C_23  and  N_27
    7  A    between atoms: N_30  and  C_31
    8  A    between atoms: C_31  and  C_32
                            x       y       z     vdW  Elec       q    Type
                         _______ _______ _______ _____ _____    ______ ____

>  <TORSDO>
F 8

$$$$
=
 OpenBabel11042418183D

 35 37  0  0  0  0  0  0  0  0999 V2000
  186.4620  177.7550  142.2750 C   0  0  0  0  0  2  0  0  0  0  0  0
  187.5740  176.9700  142.8180 N   0  0  0  0  0  0  0  0  0  0  0  0
  185.5070  178.1810  143.3650 C   0  0  0  0  0  0  0  0  0  0  0  0
  187.3970  178.0750  144.9300 C   0  0  0  0  0  3  0  0  0  0  0  0
  188.1630  177.4060  144.0630 C   0  0  0  0  0  0  0  0  0  0  0  0
  185.9880  178.3870  144.6160 C   0  0  0  0  0  0  0  0  0  0  0  0
  191.9070  177.6030  143.9660 N   0  0  0  0  0  0  0  0  0  0  0  0
  190.5970  177.8190  143.6730 C   0  0  0  0  0  3  0  0  0  0  0  0
  192.2830  176.7440  144.9490 C   0  0  0  0  0  0  0  0  0  0  0  0
  189.9660  176.2530  145.3980 C   0  0  0  0  0  0  0  0  0  0  0  0
  189.5880  177.1580  144.3880 C   0  0  0  0  0  0  0  0  0  0  0  0
  193.9810  176.4980  145.2930 Cl  0  0  0  0  0  0  0  0  0  0  0  0
  189.0380  175.5440  146.0860 F   0  0  0  0  0  0  0  0  0  0  0  0
  191.3180  176.0490  145.6780 C   0  0  0  0  0  3  0  0  0  0  0  0
  187.9540  175.6650  140.7580 C   0  0  0  0  0  3  0  0  0  0  0  0
  188.6700  173.3590  140.8620 C   0  0  0  0  0  3  0  0  0  0  0  0
  188.3120  174.6080  142.9020 C   0  0  0  0  0  3  0  0  0  0  0  0
  188.3120  174.4790  140.0970 C   0  0  0  0  0  0  0  0  0  0  0  0
  187.9580  175.7450  142.1580 C   0  0  0  0  0  0  0  0  0  0  0  0
  188.6690  173.4220  142.2570 C   0  0  0  0  0  3  0  0  0  0  0  0
  187.4340  175.2640  137.8660 C   0  0  0  0  0  1  0  0  0  0  0  0
  189.1840  173.4960  137.9430 C   0  0  0  0  0  1  0  0  0  0  0  0
  188.3090  174.4140  138.6580 N   0  0  0  0  0  0  0  0  0  0  0  0
  183.3470  179.0730  143.7550 O   0  0  0  0  0  0  0  0  0  0  0  0
  184.1010  178.4430  142.9650 C   0  0  0  0  0  0  0  0  0  0  0  0
  183.6080  178.0290  141.6830 N   0  0  0  0  0  2  0  0  0  0  0  0
  181.9850  177.8070  140.0380 O   0  0  0  0  0  0  0  0  0  0  0  0
  181.2900  178.8910  141.9850 N   0  0  0  0  0  2  0  0  0  0  0  0
  182.2780  178.2260  141.1900 C   0  0  0  0  0  0  0  0  0  0  0  0
  179.9210  179.0870  141.5340 C   0  0  0  0  0  2  0  0  0  0  0  0
  178.9480  178.6360  142.6120 C   0  0  0  0  0  2  0  0  0  0  0  0
  178.3870  177.2680  142.2730 C   0  0  0  0  0  2  0  0  0  0  0  0
  178.4010  177.0760  140.8900 O   0  0  0  0  0  1  0  0  0  0  0  0
  185.1740  178.9880  145.7170 C   0  0  0  0  0  2  0  0  0  0  0  0
  184.8680  177.9440  146.7740 C   0  0  0  0  0  1  0  0  0  0  0  0
  1  2  1  0  0  0  0
  1  3  1  0  0  0  0
  2  5  1  0  0  0  0
  3  6  2  0  0  0  0
  5 11  1  0  0  0  0
  5  4  2  0  0  0  0
  6  4  1  0  0  0  0
  6 34  1  0  0  0  0
  7  9  1  0  0  0  0
  8  7  2  0  0  0  0
  8 11  1  0  0  0  0
  9 12  1  0  0  0  0
  9 14  2  0  0  0  0
 10 14  1  0  0  0  0
 10 13  1  0  0  0  0
 11 10  2  0  0  0  0
 15 19  1  0  0  0  0
 16 20  2  0  0  0  0
 18 15  2  0  0  0  0
 18 16  1  0  0  0  0
 19  2  1  0  0  0  0
 19 17  2  0  0  0  0
 20 17  1  0  0  0  0
 21 23  1  0  0  0  0
 22 23  1  0  0  0  0
 23 18  1  0  0  0  0
 25  3  1  0  0  0  0
 25 24  2  0  0  0  0
 26 25  1  0  0  0  0
 27 29  2  0  0  0  0
 29 26  1  0  0  0  0
 29 28  1  0  0  0  0
 30 28  1  0  0  0  0
 30 31  1  0  0  0  0
 32 31  1  0  0  0  0
 33 32  1  0  0  0  0
 34 35  1  0  0  0  0
M  END
>  <MODEL>
3

>  <REMARK>
 VINA RESULT:      -8.3      1.400      2.175
  Name = 
  8 active torsions:
  status: ('A' for Active; 'I' for Inactive)
    1  A    between atoms: C_2  and  C_34
    2  A    between atoms: N_8  and  C_28
    3  A    between atoms: C_11  and  C_14
    4  A    between atoms: C_12  and  C_32
    5  A    between atoms: C_16  and  C_29
    6  A    between atoms: C_23  and  N_27
    7  A    between atoms: N_30  and  C_31
    8  A    between atoms: C_31  and  C_32
                            x       y       z     vdW  Elec       q    Type
                         _______ _______ _______ _____ _____    ______ ____

>  <TORSDO>
F 8

$$$$
=
 OpenBabel11042418183D

 35 37  0  0  0  0  0  0  0  0999 V2000
  190.1160  176.3390  142.9820 C   0  0  0  0  0  2  0  0  0  0  0  0
  191.1810  175.3730  143.2640 N   0  0  0  0  0  0  0  0  0  0  0  0
  189.0210  176.2690  144.0190 C   0  0  0  0  0  0  0  0  0  0  0  0
  190.7090  175.4540  145.6060 C   0  0  0  0  0  3  0  0  0  0  0  0
  191.5990  175.2120  144.6380 C   0  0  0  0  0  0  0  0  0  0  0  0
  189.3390  175.9000  145.2860 C   0  0  0  0  0  0  0  0  0  0  0  0
  195.2290  175.4500  145.5460 N   0  0  0  0  0  0  0  0  0  0  0  0
  193.9590  175.8000  145.2100 C   0  0  0  0  0  3  0  0  0  0  0  0
  195.5960  174.1490  145.6820 C   0  0  0  0  0  0  0  0  0  0  0  0
  193.3530  173.4660  145.1220 C   0  0  0  0  0  0  0  0  0  0  0  0
  192.9810  174.8180  144.9980 C   0  0  0  0  0  0  0  0  0  0  0  0
  197.2410  173.7450  146.1180 Cl  0  0  0  0  0  0  0  0  0  0  0  0
  192.4650  172.4700  144.8760 F   0  0  0  0  0  0  0  0  0  0  0  0
  194.6640  173.1330  145.4670 C   0  0  0  0  0  3  0  0  0  0  0  0
  191.1040  173.3020  141.9250 C   0  0  0  0  0  3  0  0  0  0  0  0
  192.6800  172.9230  140.1320 C   0  0  0  0  0  3  0  0  0  0  0  0
  192.7820  174.9670  141.4200 C   0  0  0  0  0  3  0  0  0  0  0  0
  191.5890  172.4790  140.8950 C   0  0  0  0  0  0  0  0  0  0  0  0
  191.6860  174.5500  142.1920 C   0  0  0  0  0  0  0  0  0  0  0  0
  193.2740  174.1590  140.3930 C   0  0  0  0  0  3  0  0  0  0  0  0
  190.8170  170.2090  141.6800 C   0  0  0  0  0  1  0  0  0  0  0  0
  190.4950  170.8610  139.2990 C   0  0  0  0  0  1  0  0  0  0  0  0
  190.9770  171.2030  140.6290 N   0  0  0  0  0  0  0  0  0  0  0  0
  186.8920  175.8730  143.0570 O   0  0  0  0  0  0  0  0  0  0  0  0
  187.6650  176.7080  143.6010 C   0  0  0  0  0  0  0  0  0  0  0  0
  187.2140  178.0470  143.8480 N   0  0  0  0  0  2  0  0  0  0  0  0
  185.6740  179.7820  143.7720 O   0  0  0  0  0  0  0  0  0  0  0  0
  184.9570  177.7720  142.8300 N   0  0  0  0  0  2  0  0  0  0  0  0
  185.9340  178.5820  143.4920 C   0  0  0  0  0  0  0  0  0  0  0  0
  183.6560  178.2820  142.4260 C   0  0  0  0  0  2  0  0  0  0  0  0
  183.5130  178.2050  140.9150 C   0  0  0  0  0  2  0  0  0  0  0  0
  182.0500  178.2820  140.5220 C   0  0  0  0  0  2  0  0  0  0  0  0
  181.2430  178.0350  141.6340 O   0  0  0  0  0  1  0  0  0  0  0  0
  188.3760  175.9790  146.4260 C   0  0  0  0  0  2  0  0  0  0  0  0
  188.6870  174.9040  147.4510 C   0  0  0  0  0  1  0  0  0  0  0  0
  1  2  1  0  0  0  0
  1  3  1  0  0  0  0
  2  5  1  0  0  0  0
  3  6  2  0  0  0  0
  5 11  1  0  0  0  0
  5  4  2  0  0  0  0
  6  4  1  0  0  0  0
  6 34  1  0  0  0  0
  7  9  1  0  0  0  0
  8  7  2  0  0  0  0
  9 12  1  0  0  0  0
 10 14  1  0  0  0  0
 11 10  2  0  0  0  0
 11  8  1  0  0  0  0
 13 10  1  0  0  0  0
 14  9  2  0  0  0  0
 15 19  1  0  0  0  0
 16 20  2  0  0  0  0
 16 18  1  0  0  0  0
 17 19  2  0  0  0  0
 18 15  2  0  0  0  0
 19  2  1  0  0  0  0
 20 17  1  0  0  0  0
 22 23  1  0  0  0  0
 23 18  1  0  0  0  0
 23 21  1  0  0  0  0
 24 25  2  0  0  0  0
 25 26  1  0  0  0  0
 25  3  1  0  0  0  0
 28 29  1  0  0  0  0
 29 27  2  0  0  0  0
 29 26  1  0  0  0  0
 30 28  1  0  0  0  0
 31 30  1  0  0  0  0
 32 31  1  0  0  0  0
 32 33  1  0  0  0  0
 34 35  1  0  0  0  0
M  END
>  <MODEL>
4

>  <REMARK>
 VINA RESULT:      -7.8      2.712      4.070
  Name = 
  8 active torsions:
  status: ('A' for Active; 'I' for Inactive)
    1  A    between atoms: C_2  and  C_34
    2  A    between atoms: N_8  and  C_28
    3  A    between atoms: C_11  and  C_14
    4  A    between atoms: C_12  and  C_32
    5  A    between atoms: C_16  and  C_29
    6  A    between atoms: C_23  and  N_27
    7  A    between atoms: N_30  and  C_31
    8  A    between atoms: C_31  and  C_32
                            x       y       z     vdW  Elec       q    Type
                         _______ _______ _______ _____ _____    ______ ____

>  <TORSDO>
F 8

$$$$
=
 OpenBabel11042418183D

 35 37  0  0  0  0  0  0  0  0999 V2000
  190.1250  176.4310  143.0670 C   0  0  0  0  0  2  0  0  0  0  0  0
  191.1980  175.4690  143.3290 N   0  0  0  0  0  0  0  0  0  0  0  0
  189.0060  176.2930  144.0730 C   0  0  0  0  0  0  0  0  0  0  0  0
  190.6690  175.4270  145.6600 C   0  0  0  0  0  3  0  0  0  0  0  0
  191.5850  175.2460  144.7040 C   0  0  0  0  0  0  0  0  0  0  0  0
  189.2990  175.8670  145.3270 C   0  0  0  0  0  0  0  0  0  0  0  0
  194.5300  173.1440  145.6900 N   0  0  0  0  0  0  0  0  0  0  0  0
  193.2660  173.5140  145.3500 C   0  0  0  0  0  3  0  0  0  0  0  0
  195.5360  174.0530  145.7830 C   0  0  0  0  0  0  0  0  0  0  0  0
  193.9950  175.8090  145.1870 C   0  0  0  0  0  0  0  0  0  0  0  0
  192.9650  174.8560  145.0790 C   0  0  0  0  0  0  0  0  0  0  0  0
  197.1470  173.5320  146.2210 Cl  0  0  0  0  0  0  0  0  0  0  0  0
  193.7530  177.1290  144.9910 F   0  0  0  0  0  0  0  0  0  0  0  0
  195.2840  175.4030  145.5390 C   0  0  0  0  0  3  0  0  0  0  0  0
  192.9460  175.0990  141.6270 C   0  0  0  0  0  3  0  0  0  0  0  0
  192.7950  173.2530  140.0720 C   0  0  0  0  0  3  0  0  0  0  0  0
  191.0660  173.5820  141.7310 C   0  0  0  0  0  3  0  0  0  0  0  0
  193.4850  174.3790  140.5480 C   0  0  0  0  0  0  0  0  0  0  0  0
  191.7420  174.7070  142.2310 C   0  0  0  0  0  0  0  0  0  0  0  0
  191.5920  172.8580  140.6590 C   0  0  0  0  0  3  0  0  0  0  0  0
  195.5470  175.8320  140.5370 C   0  0  0  0  0  1  0  0  0  0  0  0
  195.2020  174.1770  138.7100 C   0  0  0  0  0  1  0  0  0  0  0  0
  194.7250  174.7900  139.9410 N   0  0  0  0  0  0  0  0  0  0  0  0
  186.9160  175.9200  143.0200 O   0  0  0  0  0  0  0  0  0  0  0  0
  187.6540  176.7320  143.6420 C   0  0  0  0  0  0  0  0  0  0  0  0
  187.1660  178.0420  143.9640 N   0  0  0  0  0  2  0  0  0  0  0  0
  185.5900  179.7460  143.9550 O   0  0  0  0  0  0  0  0  0  0  0  0
  184.9470  177.7890  142.8600 N   0  0  0  0  0  2  0  0  0  0  0  0
  185.8850  178.5730  143.6040 C   0  0  0  0  0  0  0  0  0  0  0  0
  183.6470  178.2990  142.4500 C   0  0  0  0  0  2  0  0  0  0  0  0
  183.5410  178.2970  140.9340 C   0  0  0  0  0  2  0  0  0  0  0  0
  182.0860  178.2300  140.5100 C   0  0  0  0  0  2  0  0  0  0  0  0
  181.2680  178.7170  141.5310 O   0  0  0  0  0  1  0  0  0  0  0  0
  188.3080  175.8760  146.4460 C   0  0  0  0  0  2  0  0  0  0  0  0
  188.7220  174.8890  147.5210 C   0  0  0  0  0  1  0  0  0  0  0  0
  1  2  1  0  0  0  0
  1  3  1  0  0  0  0
  2  5  1  0  0  0  0
  3  6  2  0  0  0  0
  5 11  1  0  0  0  0
  5  4  2  0  0  0  0
  6  4  1  0  0  0  0
  6 34  1  0  0  0  0
  7  9  1  0  0  0  0
  8  7  2  0  0  0  0
  9 12  1  0  0  0  0
 10 14  1  0  0  0  0
 11 10  2  0  0  0  0
 11  8  1  0  0  0  0
 13 10  1  0  0  0  0
 14  9  2  0  0  0  0
 15 19  1  0  0  0  0
 16 18  1  0  0  0  0
 16 20  2  0  0  0  0
 17 19  2  0  0  0  0
 18 15  2  0  0  0  0
 19  2  1  0  0  0  0
 20 17  1  0  0  0  0
 22 23  1  0  0  0  0
 23 21  1  0  0  0  0
 23 18  1  0  0  0  0
 24 25  2  0  0  0  0
 25 26  1  0  0  0  0
 25  3  1  0  0  0  0
 28 29  1  0  0  0  0
 29 27  2  0  0  0  0
 29 26  1  0  0  0  0
 30 28  1  0  0  0  0
 31 30  1  0  0  0  0
 32 31  1  0  0  0  0
 32 33  1  0  0  0  0
 34 35  1  0  0  0  0
M  END
>  <MODEL>
5

>  <REMARK>
 VINA RESULT:      -7.7      3.281      4.573
  Name = 
  8 active torsions:
  status: ('A' for Active; 'I' for Inactive)
    1  A    between atoms: C_2  and  C_34
    2  A    between atoms: N_8  and  C_28
    3  A    between atoms: C_11  and  C_14
    4  A    between atoms: C_12  and  C_32
    5  A    between atoms: C_16  and  C_29
    6  A    between atoms: C_23  and  N_27
    7  A    between atoms: N_30  and  C_31
    8  A    between atoms: C_31  and  C_32
                            x       y       z     vdW  Elec       q    Type
                         _______ _______ _______ _____ _____    ______ ____

>  <TORSDO>
F 8

$$$$
=
 OpenBabel11042418183D

 35 37  0  0  0  0  0  0  0  0999 V2000
  192.0130  176.1720  143.6470 C   0  0  0  0  0  2  0  0  0  0  0  0
  192.8880  175.0150  143.4410 N   0  0  0  0  0  0  0  0  0  0  0  0
  190.6940  175.7620  144.2580 C   0  0  0  0  0  0  0  0  0  0  0  0
  191.8640  173.8470  145.2570 C   0  0  0  0  0  3  0  0  0  0  0  0
  192.9400  174.0140  144.4820 C   0  0  0  0  0  0  0  0  0  0  0  0
  190.6580  174.6790  145.0750 C   0  0  0  0  0  0  0  0  0  0  0  0
  195.3490  171.1410  144.4290 N   0  0  0  0  0  0  0  0  0  0  0  0
  194.2390  171.8970  144.2130 C   0  0  0  0  0  3  0  0  0  0  0  0
  196.4020  171.6120  145.1470 C   0  0  0  0  0  0  0  0  0  0  0  0
  195.2300  173.6910  145.4880 C   0  0  0  0  0  0  0  0  0  0  0  0
  194.1520  173.1980  144.7280 C   0  0  0  0  0  0  0  0  0  0  0  0
  197.8100  170.6060  145.3980 Cl  0  0  0  0  0  0  0  0  0  0  0  0
  195.1800  174.9210  146.0570 F   0  0  0  0  0  0  0  0  0  0  0  0
  196.3570  172.8950  145.6950 C   0  0  0  0  0  3  0  0  0  0  0  0
  194.9250  175.2010  142.0600 C   0  0  0  0  0  3  0  0  0  0  0  0
  194.8950  174.6070  139.7160 C   0  0  0  0  0  3  0  0  0  0  0  0
  192.8810  174.4080  141.0410 C   0  0  0  0  0  3  0  0  0  0  0  0
  195.6010  175.0740  140.8350 C   0  0  0  0  0  0  0  0  0  0  0  0
  193.5680  174.8640  142.1770 C   0  0  0  0  0  0  0  0  0  0  0  0
  193.5410  174.2770  139.8180 C   0  0  0  0  0  3  0  0  0  0  0  0
  197.8330  175.5410  141.9150 C   0  0  0  0  0  1  0  0  0  0  0  0
  197.6190  175.6540  139.4380 C   0  0  0  0  0  1  0  0  0  0  0  0
  196.9960  175.4180  140.7310 N   0  0  0  0  0  0  0  0  0  0  0  0
  189.3820  177.6880  144.6860 O   0  0  0  0  0  0  0  0  0  0  0  0
  189.5260  176.6410  143.9980 C   0  0  0  0  0  0  0  0  0  0  0  0
  188.5930  176.3370  142.9510 N   0  0  0  0  0  2  0  0  0  0  0  0
  186.7010  176.7180  141.6610 O   0  0  0  0  0  0  0  0  0  0  0  0
  187.1100  178.3040  143.3240 N   0  0  0  0  0  2  0  0  0  0  0  0
  187.4350  177.1070  142.6090 C   0  0  0  0  0  0  0  0  0  0  0  0
  185.9290  179.1010  143.0270 C   0  0  0  0  0  2  0  0  0  0  0  0
  185.2850  179.5780  144.3180 C   0  0  0  0  0  2  0  0  0  0  0  0
  184.8900  178.3920  145.1770 C   0  0  0  0  0  2  0  0  0  0  0  0
  183.6930  178.6620  145.8440 O   0  0  0  0  0  1  0  0  0  0  0  0
  189.4550  174.3000  145.8780 C   0  0  0  0  0  2  0  0  0  0  0  0
  189.5310  174.9190  147.2610 C   0  0  0  0  0  1  0  0  0  0  0  0
  1  3  1  0  0  0  0
  2  1  1  0  0  0  0
  2  5  1  0  0  0  0
  3  6  2  0  0  0  0
  5 11  1  0  0  0  0
  5  4  2  0  0  0  0
  6  4  1  0  0  0  0
  6 34  1  0  0  0  0
  7  9  1  0  0  0  0
  8  7  2  0  0  0  0
  8 11  1  0  0  0  0
  9 12  1  0  0  0  0
  9 14  2  0  0  0  0
 10 14  1  0  0  0  0
 10 13  1  0  0  0  0
 11 10  2  0  0  0  0
 15 19  1  0  0  0  0
 16 20  2  0  0  0  0
 16 18  1  0  0  0  0
 17 19  2  0  0  0  0
 18 15  2  0  0  0  0
 19  2  1  0  0  0  0
 20 17  1  0  0  0  0
 22 23  1  0  0  0  0
 23 18  1  0  0  0  0
 23 21  1  0  0  0  0
 25  3  1  0  0  0  0
 25 24  2  0  0  0  0
 26 25  1  0  0  0  0
 27 29  2  0  0  0  0
 29 26  1  0  0  0  0
 29 28  1  0  0  0  0
 30 28  1  0  0  0  0
 30 31  1  0  0  0  0
 31 32  1  0  0  0  0
 32 33  1  0  0  0  0
 34 35  1  0  0  0  0
M  END
>  <MODEL>
6

>  <REMARK>
 VINA RESULT:      -7.4      4.412      6.262
  Name = 
  8 active torsions:
  status: ('A' for Active; 'I' for Inactive)
    1  A    between atoms: C_2  and  C_34
    2  A    between atoms: N_8  and  C_28
    3  A    between atoms: C_11  and  C_14
    4  A    between atoms: C_12  and  C_32
    5  A    between atoms: C_16  and  C_29
    6  A    between atoms: C_23  and  N_27
    7  A    between atoms: N_30  and  C_31
    8  A    between atoms: C_31  and  C_32
                            x       y       z     vdW  Elec       q    Type
                         _______ _______ _______ _____ _____    ______ ____

>  <TORSDO>
F 8

$$$$
=
 OpenBabel11042418183D

 35 37  0  0  0  0  0  0  0  0999 V2000
  190.3100  175.0750  145.0540 C   0  0  0  0  0  2  0  0  0  0  0  0
  191.5200  174.4780  144.4820 N   0  0  0  0  0  0  0  0  0  0  0  0
  189.2240  175.2210  144.0140 C   0  0  0  0  0  0  0  0  0  0  0  0
  190.2340  173.3190  142.8330 C   0  0  0  0  0  3  0  0  0  0  0  0
  191.3570  173.3800  143.5560 C   0  0  0  0  0  0  0  0  0  0  0  0
  189.1720  174.3310  142.9910 C   0  0  0  0  0  0  0  0  0  0  0  0
  193.5220  170.4160  144.3240 N   0  0  0  0  0  0  0  0  0  0  0  0
  192.5910  171.3990  144.4490 C   0  0  0  0  0  3  0  0  0  0  0  0
  194.2780  170.2920  143.2010 C   0  0  0  0  0  0  0  0  0  0  0  0
  193.1660  172.2070  142.2480 C   0  0  0  0  0  0  0  0  0  0  0  0
  192.3790  172.3170  143.4100 C   0  0  0  0  0  0  0  0  0  0  0  0
  195.4630  169.0100  143.0830 Cl  0  0  0  0  0  0  0  0  0  0  0  0
  193.0450  173.0980  141.2330 F   0  0  0  0  0  0  0  0  0  0  0  0
  194.1160  171.1900  142.1460 C   0  0  0  0  0  3  0  0  0  0  0  0
  193.6630  175.4400  143.7270 C   0  0  0  0  0  3  0  0  0  0  0  0
  195.3140  176.1980  145.3220 C   0  0  0  0  0  3  0  0  0  0  0  0
  193.2230  175.2640  146.0980 C   0  0  0  0  0  3  0  0  0  0  0  0
  194.9210  176.0080  143.9890 C   0  0  0  0  0  0  0  0  0  0  0  0
  192.8020  175.0720  144.7720 C   0  0  0  0  0  0  0  0  0  0  0  0
  194.4710  175.8260  146.3710 C   0  0  0  0  0  3  0  0  0  0  0  0
  195.3070  176.4470  141.5350 C   0  0  0  0  0  1  0  0  0  0  0  0
  197.1870  176.7250  143.1430 C   0  0  0  0  0  1  0  0  0  0  0  0
  195.7910  176.3860  142.9050 N   0  0  0  0  0  0  0  0  0  0  0  0
  187.6870  176.4000  145.3770 O   0  0  0  0  0  0  0  0  0  0  0  0
  188.2140  176.2860  144.2380 C   0  0  0  0  0  0  0  0  0  0  0  0
  187.8690  177.2060  143.1930 N   0  0  0  0  0  2  0  0  0  0  0  0
  186.7110  179.0030  142.2870 O   0  0  0  0  0  0  0  0  0  0  0  0
  186.1990  178.5050  144.5080 N   0  0  0  0  0  2  0  0  0  0  0  0
  186.9140  178.2690  143.2910 C   0  0  0  0  0  0  0  0  0  0  0  0
  185.2010  179.5550  144.6430 C   0  0  0  0  0  2  0  0  0  0  0  0
  184.0050  179.0400  145.4260 C   0  0  0  0  0  2  0  0  0  0  0  0
  184.4520  178.0200  146.4560 C   0  0  0  0  0  2  0  0  0  0  0  0
  184.8210  178.6660  147.6390 O   0  0  0  0  0  1  0  0  0  0  0  0
  188.0360  174.2680  142.0200 C   0  0  0  0  0  2  0  0  0  0  0  0
  188.5380  174.5180  140.6110 C   0  0  0  0  0  1  0  0  0  0  0  0
  2 19  1  0  0  0  0
  2  1  1  0  0  0  0
  3 25  1  0  0  0  0
  3  1  1  0  0  0  0
  4  6  1  0  0  0  0
  4  5  2  0  0  0  0
  5  2  1  0  0  0  0
  6  3  2  0  0  0  0
  7  8  1  0  0  0  0
  9  7  2  0  0  0  0
 10 11  1  0  0  0  0
 11  5  1  0  0  0  0
 11  8  2  0  0  0  0
 12  9  1  0  0  0  0
 13 10  1  0  0  0  0
 14 10  2  0  0  0  0
 14  9  1  0  0  0  0
 15 18  2  0  0  0  0
 15 19  1  0  0  0  0
 16 20  2  0  0  0  0
 17 20  1  0  0  0  0
 18 16  1  0  0  0  0
 19 17  2  0  0  0  0
 21 23  1  0  0  0  0
 23 22  1  0  0  0  0
 23 18  1  0  0  0  0
 25 24  2  0  0  0  0
 26 29  1  0  0  0  0
 26 25  1  0  0  0  0
 27 29  2  0  0  0  0
 28 30  1  0  0  0  0
 29 28  1  0  0  0  0
 30 31  1  0  0  0  0
 31 32  1  0  0  0  0
 32 33  1  0  0  0  0
 34  6  1  0  0  0  0
 35 34  1  0  0  0  0
M  END
>  <MODEL>
7

>  <REMARK>
 VINA RESULT:      -7.4      3.573      6.419
  Name = 
  8 active torsions:
  status: ('A' for Active; 'I' for Inactive)
    1  A    between atoms: C_2  and  C_34
    2  A    between atoms: N_8  and  C_28
    3  A    between atoms: C_11  and  C_14
    4  A    between atoms: C_12  and  C_32
    5  A    between atoms: C_16  and  C_29
    6  A    between atoms: C_23  and  N_27
    7  A    between atoms: N_30  and  C_31
    8  A    between atoms: C_31  and  C_32
                            x       y       z     vdW  Elec       q    Type
                         _______ _______ _______ _____ _____    ______ ____

>  <TORSDO>
F 8

$$$$
=
 OpenBabel11042418183D

 35 37  0  0  0  0  0  0  0  0999 V2000
  191.6920  176.5310  143.8450 C   0  0  0  0  0  2  0  0  0  0  0  0
  192.5850  175.4040  143.5640 N   0  0  0  0  0  0  0  0  0  0  0  0
  190.4220  176.0710  144.5200 C   0  0  0  0  0  0  0  0  0  0  0  0
  191.6970  174.1680  145.4070 C   0  0  0  0  0  3  0  0  0  0  0  0
  192.7220  174.3820  144.5770 C   0  0  0  0  0  0  0  0  0  0  0  0
  190.4610  174.9700  145.3120 C   0  0  0  0  0  0  0  0  0  0  0  0
  195.1750  171.5520  144.3840 N   0  0  0  0  0  0  0  0  0  0  0  0
  194.0350  172.2810  144.2480 C   0  0  0  0  0  3  0  0  0  0  0  0
  196.2760  172.0610  144.9950 C   0  0  0  0  0  0  0  0  0  0  0  0
  195.0970  174.1270  145.3840 C   0  0  0  0  0  0  0  0  0  0  0  0
  193.9670  173.5940  144.7350 C   0  0  0  0  0  0  0  0  0  0  0  0
  197.7220  171.0870  145.1450 Cl  0  0  0  0  0  0  0  0  0  0  0  0
  195.0730  175.3710  145.9240 F   0  0  0  0  0  0  0  0  0  0  0  0
  196.2540  173.3570  145.5110 C   0  0  0  0  0  3  0  0  0  0  0  0
  192.6550  174.4380  141.2940 C   0  0  0  0  0  3  0  0  0  0  0  0
  194.3940  175.0600  139.7330 C   0  0  0  0  0  3  0  0  0  0  0  0
  194.3530  176.0300  141.9480 C   0  0  0  0  0  3  0  0  0  0  0  0
  193.2430  174.3120  140.0240 C   0  0  0  0  0  0  0  0  0  0  0  0
  193.1960  175.2990  142.2610 C   0  0  0  0  0  0  0  0  0  0  0  0
  194.9470  175.9130  140.6900 C   0  0  0  0  0  3  0  0  0  0  0  0
  191.2420  173.4130  138.7780 C   0  0  0  0  0  1  0  0  0  0  0  0
  193.5090  172.5200  138.2690 C   0  0  0  0  0  1  0  0  0  0  0  0
  192.6730  173.4280  139.0390 N   0  0  0  0  0  0  0  0  0  0  0  0
  189.0550  177.9150  145.1070 O   0  0  0  0  0  0  0  0  0  0  0  0
  189.2180  176.9230  144.3460 C   0  0  0  0  0  0  0  0  0  0  0  0
  188.2700  176.6570  143.3020 N   0  0  0  0  0  2  0  0  0  0  0  0
  186.3360  177.0560  142.0830 O   0  0  0  0  0  0  0  0  0  0  0  0
  186.7300  178.5390  143.8400 N   0  0  0  0  0  2  0  0  0  0  0  0
  187.0790  177.4060  143.0380 C   0  0  0  0  0  0  0  0  0  0  0  0
  185.5150  179.3110  143.6240 C   0  0  0  0  0  2  0  0  0  0  0  0
  184.4210  178.8330  144.5650 C   0  0  0  0  0  2  0  0  0  0  0  0
  184.9510  178.7420  145.9830 C   0  0  0  0  0  2  0  0  0  0  0  0
  184.6990  177.4720  146.5060 O   0  0  0  0  0  1  0  0  0  0  0  0
  189.3150  174.5400  146.1720 C   0  0  0  0  0  2  0  0  0  0  0  0
  189.5760  174.9160  147.6180 C   0  0  0  0  0  1  0  0  0  0  0  0
  1  3  1  0  0  0  0
  2  1  1  0  0  0  0
  2  5  1  0  0  0  0
  3  6  2  0  0  0  0
  5 11  1  0  0  0  0
  5  4  2  0  0  0  0
  6  4  1  0  0  0  0
  6 34  1  0  0  0  0
  7  9  1  0  0  0  0
  8  7  2  0  0  0  0
  8 11  1  0  0  0  0
  9 12  1  0  0  0  0
  9 14  2  0  0  0  0
 10 14  1  0  0  0  0
 10 13  1  0  0  0  0
 11 10  2  0  0  0  0
 15 19  1  0  0  0  0
 16 18  1  0  0  0  0
 16 20  2  0  0  0  0
 17 19  2  0  0  0  0
 18 15  2  0  0  0  0
 19  2  1  0  0  0  0
 20 17  1  0  0  0  0
 21 23  1  0  0  0  0
 22 23  1  0  0  0  0
 23 18  1  0  0  0  0
 25  3  1  0  0  0  0
 25 24  2  0  0  0  0
 26 25  1  0  0  0  0
 27 29  2  0  0  0  0
 29 26  1  0  0  0  0
 29 28  1  0  0  0  0
 30 28  1  0  0  0  0
 30 31  1  0  0  0  0
 31 32  1  0  0  0  0
 32 33  1  0  0  0  0
 34 35  1  0  0  0  0
M  END
>  <MODEL>
8

>  <REMARK>
 VINA RESULT:      -7.4      3.848      5.712
  Name = 
  8 active torsions:
  status: ('A' for Active; 'I' for Inactive)
    1  A    between atoms: C_2  and  C_34
    2  A    between atoms: N_8  and  C_28
    3  A    between atoms: C_11  and  C_14
    4  A    between atoms: C_12  and  C_32
    5  A    between atoms: C_16  and  C_29
    6  A    between atoms: C_23  and  N_27
    7  A    between atoms: N_30  and  C_31
    8  A    between atoms: C_31  and  C_32
                            x       y       z     vdW  Elec       q    Type
                         _______ _______ _______ _____ _____    ______ ____

>  <TORSDO>
F 8

$$$$
=
 OpenBabel11042418183D

 35 37  0  0  0  0  0  0  0  0999 V2000
  191.5910  173.7290  144.2810 C   0  0  0  0  0  2  0  0  0  0  0  0
  190.5980  174.5720  143.6100 N   0  0  0  0  0  0  0  0  0  0  0  0
  192.8970  174.4630  144.4700 C   0  0  0  0  0  0  0  0  0  0  0  0
  191.6090  176.5550  144.4820 C   0  0  0  0  0  3  0  0  0  0  0  0
  190.5110  175.9590  144.0070 C   0  0  0  0  0  0  0  0  0  0  0  0
  192.8760  175.8110  144.6240 C   0  0  0  0  0  0  0  0  0  0  0  0
  187.8470  178.2900  142.7680 N   0  0  0  0  0  0  0  0  0  0  0  0
  189.0100  177.5900  142.8530 C   0  0  0  0  0  3  0  0  0  0  0  0
  186.8800  178.1780  143.7160 C   0  0  0  0  0  0  0  0  0  0  0  0
  188.2530  176.6080  144.9240 C   0  0  0  0  0  0  0  0  0  0  0  0
  189.2420  176.7210  143.9280 C   0  0  0  0  0  0  0  0  0  0  0  0
  185.3980  179.0960  143.5650 Cl  0  0  0  0  0  0  0  0  0  0  0  0
  188.4440  175.8250  146.0150 F   0  0  0  0  0  0  0  0  0  0  0  0
  187.0690  177.3380  144.8140 C   0  0  0  0  0  3  0  0  0  0  0  0
  190.3440  174.0600  141.2090 C   0  0  0  0  0  3  0  0  0  0  0  0
  188.3450  172.9900  140.3720 C   0  0  0  0  0  3  0  0  0  0  0  0
  188.5610  173.4720  142.7320 C   0  0  0  0  0  3  0  0  0  0  0  0
  189.6110  173.5430  140.1280 C   0  0  0  0  0  0  0  0  0  0  0  0
  189.8340  174.0230  142.5160 C   0  0  0  0  0  0  0  0  0  0  0  0
  187.8210  172.9560  141.6660 C   0  0  0  0  0  3  0  0  0  0  0  0
  189.2900  173.7910  137.6380 C   0  0  0  0  0  1  0  0  0  0  0  0
  191.5760  173.4160  138.5510 C   0  0  0  0  0  1  0  0  0  0  0  0
  190.1500  173.5820  138.7930 N   0  0  0  0  0  0  0  0  0  0  0  0
  194.3040  172.9260  145.5970 O   0  0  0  0  0  0  0  0  0  0  0  0
  194.1270  173.6380  144.5710 C   0  0  0  0  0  0  0  0  0  0  0  0
  195.0870  173.6080  143.5050 N   0  0  0  0  0  2  0  0  0  0  0  0
  197.0540  172.9230  142.4810 O   0  0  0  0  0  0  0  0  0  0  0  0
  196.6680  172.0250  144.6000 N   0  0  0  0  0  2  0  0  0  0  0  0
  196.3040  172.8530  143.4910 C   0  0  0  0  0  0  0  0  0  0  0  0
  197.9080  171.2630  144.6380 C   0  0  0  0  0  2  0  0  0  0  0  0
  197.6950  169.9600  145.3900 C   0  0  0  0  0  2  0  0  0  0  0  0
  196.4440  170.0450  146.2440 C   0  0  0  0  0  2  0  0  0  0  0  0
  196.6040  169.2820  147.4020 O   0  0  0  0  0  1  0  0  0  0  0  0
  194.0830  176.6090  145.0040 C   0  0  0  0  0  2  0  0  0  0  0  0
  194.1550  176.7640  146.5120 C   0  0  0  0  0  1  0  0  0  0  0  0
  1  3  1  0  0  0  0
  2  5  1  0  0  0  0
  2  1  1  0  0  0  0
  3 25  1  0  0  0  0
  3  6  2  0  0  0  0
  4  6  1  0  0  0  0
  5  4  2  0  0  0  0
  6 34  1  0  0  0  0
  7  8  2  0  0  0  0
  7  9  1  0  0  0  0
  8 11  1  0  0  0  0
  9 14  2  0  0  0  0
 10 13  1  0  0  0  0
 11  5  1  0  0  0  0
 11 10  2  0  0  0  0
 12  9  1  0  0  0  0
 14 10  1  0  0  0  0
 15 19  1  0  0  0  0
 16 20  2  0  0  0  0
 18 16  1  0  0  0  0
 18 15  2  0  0  0  0
 19 17  2  0  0  0  0
 19  2  1  0  0  0  0
 20 17  1  0  0  0  0
 21 23  1  0  0  0  0
 22 23  1  0  0  0  0
 23 18  1  0  0  0  0
 25 24  2  0  0  0  0
 26 25  1  0  0  0  0
 27 29  2  0  0  0  0
 28 30  1  0  0  0  0
 29 26  1  0  0  0  0
 29 28  1  0  0  0  0
 30 31  1  0  0  0  0
 31 32  1  0  0  0  0
 32 33  1  0  0  0  0
 34 35  1  0  0  0  0
M  END
>  <MODEL>
9

>  <REMARK>
 VINA RESULT:      -7.4      5.725     10.006
  Name = 
  8 active torsions:
  status: ('A' for Active; 'I' for Inactive)
    1  A    between atoms: C_2  and  C_34
    2  A    between atoms: N_8  and  C_28
    3  A    between atoms: C_11  and  C_14
    4  A    between atoms: C_12  and  C_32
    5  A    between atoms: C_16  and  C_29
    6  A    between atoms: C_23  and  N_27
    7  A    between atoms: N_30  and  C_31
    8  A    between atoms: C_31  and  C_32
                            x       y       z     vdW  Elec       q    Type
                         _______ _______ _______ _____ _____    ______ ____

>  <TORSDO>
F 8

$$$$
