=
 OpenBabel11042416223D

 38 43  0  0  1  0  0  0  0  0999 V2000
  190.2430  177.5200  147.9440 C   0  0  0  0  0  3  0  0  0  0  0  0
  191.6570  174.0070  142.7210 C   0  0  1  0  0  3  0  0  0  0  0  0
  189.6860  176.6790  144.3550 C   0  0  0  0  0  0  0  0  0  0  0  0
  190.2400  175.7470  143.4580 C   0  0  0  0  0  0  0  0  0  0  0  0
  191.2280  174.8910  143.8440 C   0  0  0  0  0  0  0  0  0  0  0  0
  190.6880  174.4380  141.5910 C   0  0  0  0  0  3  0  0  0  0  0  0
  191.2080  175.7490  146.0350 C   0  0  0  0  0  0  0  0  0  0  0  0
  191.7000  175.7420  147.3410 C   0  0  0  0  0  3  0  0  0  0  0  0
  191.7020  174.8740  145.1160 N   0  0  0  0  0  0  0  0  0  0  0  0
  189.7170  177.5650  146.6510 C   0  0  0  0  0  3  0  0  0  0  0  0
  190.1940  176.6780  145.6760 C   0  0  0  0  0  0  0  0  0  0  0  0
  189.8790  175.5400  142.1090 N   0  0  0  0  0  0  0  0  0  0  0  0
  191.2130  176.6200  148.2580 N   0  0  0  0  0  0  0  0  0  0  0  0
  195.4300  173.2820  142.1990 C   0  0  0  0  0  3  0  0  0  0  0  0
  195.7500  175.7660  141.9750 C   0  0  2  0  0  3  0  0  0  0  0  0
  196.6110  176.5920  141.2540 O   0  0  0  0  0  1  0  0  0  0  0  0
  193.4420  175.6180  142.5490 O   0  0  0  0  0  0  0  0  0  0  0  0
  196.1330  174.3320  141.7470 C   0  0  0  0  0  3  0  0  0  0  0  0
  194.3160  176.0200  141.5320 C   0  0  0  0  0  2  0  0  0  0  0  0
  193.1100  174.2790  142.2830 C   0  0  1  0  0  3  0  0  0  0  0  0
  194.1530  173.3820  142.9960 C   0  0  1  0  0  3  0  0  0  0  0  0
  193.4170  171.5630  144.5340 C   0  0  0  0  0  3  0  0  0  0  0  0
  193.6570  172.0430  143.3010 N   0  0  0  0  0  0  0  0  0  0  0  0
  193.3710  171.1110  142.4100 N   0  0  0  0  0  0  0  0  0  0  0  0
  192.9620  170.2950  144.4600 N   0  0  0  0  0  0  0  0  0  0  0  0
  192.5120  168.7710  142.5310 C   0  0  0  0  0  1  0  0  0  0  0  0
  192.9500  170.0580  143.1320 C   0  0  0  0  0  0  0  0  0  0  0  0
  188.6250  177.6380  143.9680 C   0  0  0  0  0  3  0  0  0  0  0  0
  187.4210  177.2820  143.5320 C   0  0  0  0  0  3  0  0  0  0  0  0
  186.4220  178.3190  143.1530 C   0  0  1  0  0  3  0  0  0  0  0  0
  186.2470  178.3350  141.7680 O   0  0  0  0  0  1  0  0  0  0  0  0
  184.0810  177.9800  143.1810 O   0  0  0  0  0  0  0  0  0  0  0  0
  185.1120  178.0600  143.8330 C   0  0  0  0  0  0  0  0  0  0  0  0
  185.0580  177.9410  145.3260 C   0  0  0  0  0  0  0  0  0  0  0  0
  185.5470  179.1050  146.1590 C   0  0  0  0  0  2  0  0  0  0  0  0
  184.0520  178.8220  146.0310 C   0  0  0  0  0  2  0  0  0  0  0  0
  185.2080  176.6250  145.9310 N   0  0  0  0  0  2  0  0  0  0  0  0
  186.1670  176.7240  146.8840 O   0  0  0  0  0  1  0  0  0  0  0  0
  1 13  1  0  0  0  0
  2  6  1  6  0  0  0
  2  5  1  0  0  0  0
  3 11  1  0  0  0  0
  4  5  1  0  0  0  0
  4  3  2  0  0  0  0
  5  9  2  0  0  0  0
  6 12  2  0  0  0  0
  7  8  1  0  0  0  0
  8 13  2  0  0  0  0
  9  7  1  0  0  0  0
 10  1  2  0  0  0  0
 11  7  2  0  0  0  0
 11 10  1  0  0  0  0
 12  4  1  0  0  0  0
 15 16  1  6  0  0  0
 18 15  1  0  0  0  0
 18 14  2  0  0  0  0
 19 15  1  0  0  0  0
 19 17  1  0  0  0  0
 20 17  1  1  0  0  0
 20  2  1  0  0  0  0
 20 21  1  0  0  0  0
 21 14  1  6  0  0  0
 21 23  1  0  0  0  0
 23 22  1  0  0  0  0
 24 27  2  0  0  0  0
 24 23  1  0  0  0  0
 25 22  2  0  0  0  0
 26 27  1  0  0  0  0
 27 25  1  0  0  0  0
 28  3  1  0  0  0  0
 29 28  2  0  0  0  0
 30 31  1  6  0  0  0
 30 29  1  0  0  0  0
 30 33  1  0  0  0  0
 32 33  2  0  0  0  0
 33 34  1  0  0  0  0
 34 37  1  0  0  0  0
 34 36  1  0  0  0  0
 34 35  1  0  0  0  0
 36 35  1  0  0  0  0
 37 38  1  0  0  0  0
M  END
>  <MODEL>
1

>  <REMARK>
 VINA RESULT:      -7.3      0.000      0.000
  Name = 
  7 active torsions:
  status: ('A' for Active; 'I' for Inactive)
    1  A    between atoms: N_5  and  C_37
    2  A    between atoms: C_6  and  N_12
    3  A    between atoms: C_6  and  C_15
    4  A    between atoms: C_7  and  C_16
    5  A    between atoms: C_10  and  C_36
    6  A    between atoms: C_13  and  C_15
    7  A    between atoms: C_13  and  C_26
                            x       y       z     vdW  Elec       q    Type
                         _______ _______ _______ _____ _____    ______ ____

>  <TORSDO>
F 7

$$$$
=
 OpenBabel11042416223D

 38 43  0  0  1  0  0  0  0  0999 V2000
  191.4300  171.1540  142.1050 C   0  0  0  0  0  3  0  0  0  0  0  0
  188.8510  176.5220  144.5850 C   0  0  1  0  0  3  0  0  0  0  0  0
  191.8050  174.6230  143.4160 C   0  0  0  0  0  0  0  0  0  0  0  0
  190.9200  175.5890  143.9290 C   0  0  0  0  0  0  0  0  0  0  0  0
  189.5810  175.3500  144.0190 C   0  0  0  0  0  0  0  0  0  0  0  0
  190.0120  177.4990  144.8920 C   0  0  0  0  0  3  0  0  0  0  0  0
  189.8430  173.1790  143.1470 C   0  0  0  0  0  0  0  0  0  0  0  0
  189.2910  171.9590  142.7560 C   0  0  0  0  0  3  0  0  0  0  0  0
  189.0420  174.1590  143.6490 N   0  0  0  0  0  0  0  0  0  0  0  0
  192.0300  172.3570  142.4830 C   0  0  0  0  0  3  0  0  0  0  0  0
  191.2420  173.3890  143.0110 C   0  0  0  0  0  0  0  0  0  0  0  0
  191.2470  176.8710  144.4220 N   0  0  0  0  0  0  0  0  0  0  0  0
  190.0890  170.9820  142.2470 N   0  0  0  0  0  0  0  0  0  0  0  0
  185.6820  178.3590  143.3150 C   0  0  0  0  0  3  0  0  0  0  0  0
  186.2250  177.4580  141.0310 C   0  0  2  0  0  3  0  0  0  0  0  0
  186.0560  177.9100  139.7230 O   0  0  0  0  0  1  0  0  0  0  0  0
  187.8790  176.4020  142.3810 O   0  0  0  0  0  0  0  0  0  0  0  0
  185.5910  178.4360  141.9780 C   0  0  0  0  0  3  0  0  0  0  0  0
  187.7100  177.3050  141.3250 C   0  0  0  0  0  2  0  0  0  0  0  0
  187.8940  177.1650  143.5610 C   0  0  1  0  0  3  0  0  0  0  0  0
  186.4350  177.2880  144.0650 C   0  0  1  0  0  3  0  0  0  0  0  0
  185.8750  176.6500  146.4090 C   0  0  0  0  0  3  0  0  0  0  0  0
  186.3330  177.5290  145.5020 N   0  0  0  0  0  0  0  0  0  0  0  0
  186.6790  178.6460  146.1170 N   0  0  0  0  0  0  0  0  0  0  0  0
  185.9190  177.1880  147.6450 N   0  0  0  0  0  0  0  0  0  0  0  0
  186.6700  179.4170  148.4900 C   0  0  0  0  0  1  0  0  0  0  0  0
  186.4220  178.4200  147.4170 C   0  0  0  0  0  0  0  0  0  0  0  0
  193.2620  174.8530  143.2850 C   0  0  0  0  0  3  0  0  0  0  0  0
  193.8180  175.5890  142.3280 C   0  0  0  0  0  3  0  0  0  0  0  0
  195.2980  175.7520  142.2690 C   0  0  1  0  0  3  0  0  0  0  0  0
  195.6290  176.8390  141.4590 O   0  0  0  0  0  1  0  0  0  0  0  0
  195.8500  177.0490  144.1680 O   0  0  0  0  0  0  0  0  0  0  0  0
  195.8600  175.9440  143.6450 C   0  0  0  0  0  0  0  0  0  0  0  0
  196.4780  174.7850  144.3670 C   0  0  0  0  0  0  0  0  0  0  0  0
  196.8530  173.5570  143.5670 C   0  0  0  0  0  2  0  0  0  0  0  0
  197.9340  174.5120  144.0680 C   0  0  0  0  0  2  0  0  0  0  0  0
  196.1100  174.5460  145.7550 N   0  0  0  0  0  2  0  0  0  0  0  0
  196.7180  173.3990  146.1440 O   0  0  0  0  0  1  0  0  0  0  0  0
  1 13  2  0  0  0  0
  1 10  1  0  0  0  0
  2  6  1  6  0  0  0
  3  4  2  0  0  0  0
  4  5  1  0  0  0  0
  4 12  1  0  0  0  0
  5  2  1  0  0  0  0
  7  9  1  0  0  0  0
  8  7  2  0  0  0  0
  9  5  2  0  0  0  0
 10 11  2  0  0  0  0
 11  7  1  0  0  0  0
 11  3  1  0  0  0  0
 12  6  2  0  0  0  0
 13  8  1  0  0  0  0
 15 16  1  6  0  0  0
 15 19  1  0  0  0  0
 15 18  1  0  0  0  0
 18 14  2  0  0  0  0
 19 17  1  0  0  0  0
 20 17  1  6  0  0  0
 20 21  1  0  0  0  0
 20  2  1  0  0  0  0
 21 14  1  6  0  0  0
 21 23  1  0  0  0  0
 22 25  2  0  0  0  0
 23 24  1  0  0  0  0
 23 22  1  0  0  0  0
 24 27  2  0  0  0  0
 27 25  1  0  0  0  0
 27 26  1  0  0  0  0
 28  3  1  0  0  0  0
 29 28  2  0  0  0  0
 30 31  1  6  0  0  0
 30 29  1  0  0  0  0
 30 33  1  0  0  0  0
 33 32  2  0  0  0  0
 33 34  1  0  0  0  0
 34 37  1  0  0  0  0
 35 36  1  0  0  0  0
 35 34  1  0  0  0  0
 36 34  1  0  0  0  0
 37 38  1  0  0  0  0
M  END
>  <MODEL>
2

>  <REMARK>
 VINA RESULT:      -7.2      2.307      8.861
  Name = 
  7 active torsions:
  status: ('A' for Active; 'I' for Inactive)
    1  A    between atoms: N_5  and  C_37
    2  A    between atoms: C_6  and  N_12
    3  A    between atoms: C_6  and  C_15
    4  A    between atoms: C_7  and  C_16
    5  A    between atoms: C_10  and  C_36
    6  A    between atoms: C_13  and  C_15
    7  A    between atoms: C_13  and  C_26
                            x       y       z     vdW  Elec       q    Type
                         _______ _______ _______ _____ _____    ______ ____

>  <TORSDO>
F 7

$$$$
=
 OpenBabel11042416223D

 38 43  0  0  1  0  0  0  0  0999 V2000
  191.7670  171.2130  142.4450 C   0  0  0  0  0  3  0  0  0  0  0  0
  188.6550  176.4600  144.5430 C   0  0  1  0  0  3  0  0  0  0  0  0
  191.8160  174.6930  143.7810 C   0  0  0  0  0  0  0  0  0  0  0  0
  190.8310  175.6190  144.1690 C   0  0  0  0  0  0  0  0  0  0  0  0
  189.5030  175.3220  144.0830 C   0  0  0  0  0  0  0  0  0  0  0  0
  189.7220  177.4860  144.9970 C   0  0  0  0  0  3  0  0  0  0  0  0
  189.9700  173.1660  143.2610 C   0  0  0  0  0  0  0  0  0  0  0  0
  189.5280  171.9230  142.8060 C   0  0  0  0  0  3  0  0  0  0  0  0
  189.0690  174.1100  143.6500 N   0  0  0  0  0  0  0  0  0  0  0  0
  192.2600  172.4400  142.8940 C   0  0  0  0  0  3  0  0  0  0  0  0
  191.3650  173.4360  143.3100 C   0  0  0  0  0  0  0  0  0  0  0  0
  191.0340  176.9130  144.6950 N   0  0  0  0  0  0  0  0  0  0  0  0
  190.4270  170.9830  142.4100 N   0  0  0  0  0  0  0  0  0  0  0  0
  185.6630  178.2810  142.8800 C   0  0  0  0  0  3  0  0  0  0  0  0
  186.3990  177.2460  140.7090 C   0  0  2  0  0  3  0  0  0  0  0  0
  186.3650  177.6280  139.3690 O   0  0  0  0  0  1  0  0  0  0  0  0
  187.8930  176.2370  142.2660 O   0  0  0  0  0  0  0  0  0  0  0  0
  185.7010  178.2860  141.5380 C   0  0  0  0  0  3  0  0  0  0  0  0
  187.8450  177.0830  141.1520 C   0  0  0  0  0  2  0  0  0  0  0  0
  187.8140  177.0630  143.3990 C   0  0  1  0  0  3  0  0  0  0  0  0
  186.3170  177.2410  143.7540 C   0  0  1  0  0  3  0  0  0  0  0  0
  185.5900  176.7190  146.0810 C   0  0  0  0  0  3  0  0  0  0  0  0
  186.0860  177.5620  145.1600 N   0  0  0  0  0  0  0  0  0  0  0  0
  186.3330  178.7290  145.7290 N   0  0  0  0  0  0  0  0  0  0  0  0
  185.5090  177.3320  147.2800 N   0  0  0  0  0  0  0  0  0  0  0  0
  186.0930  179.6400  148.0390 C   0  0  0  0  0  1  0  0  0  0  0  0
  185.9780  178.5690  147.0150 C   0  0  0  0  0  0  0  0  0  0  0  0
  193.2660  174.9860  143.8420 C   0  0  0  0  0  3  0  0  0  0  0  0
  194.0480  174.6750  144.8720 C   0  0  0  0  0  3  0  0  0  0  0  0
  195.4960  175.0230  144.8490 C   0  0  1  0  0  3  0  0  0  0  0  0
  196.1210  174.5520  146.0050 O   0  0  0  0  0  1  0  0  0  0  0  0
  196.1710  173.2340  143.4570 O   0  0  0  0  0  0  0  0  0  0  0  0
  196.1560  174.4430  143.6350 C   0  0  0  0  0  0  0  0  0  0  0  0
  196.8380  175.3480  142.6540 C   0  0  0  0  0  0  0  0  0  0  0  0
  196.0600  176.5180  142.0930 C   0  0  0  0  0  2  0  0  0  0  0  0
  197.1500  176.7450  143.1390 C   0  0  0  0  0  2  0  0  0  0  0  0
  197.8590  174.7920  141.7780 N   0  0  0  0  0  2  0  0  0  0  0  0
  197.8530  175.5200  140.6340 O   0  0  0  0  0  1  0  0  0  0  0  0
  1 10  1  0  0  0  0
  2  6  1  6  0  0  0
  3 28  1  0  0  0  0
  3  4  2  0  0  0  0
  4 12  1  0  0  0  0
  5  4  1  0  0  0  0
  5  2  1  0  0  0  0
  7 11  1  0  0  0  0
  7  9  1  0  0  0  0
  8  7  2  0  0  0  0
  9  5  2  0  0  0  0
 10 11  2  0  0  0  0
 11  3  1  0  0  0  0
 12  6  2  0  0  0  0
 13  1  2  0  0  0  0
 13  8  1  0  0  0  0
 15 16  1  6  0  0  0
 15 19  1  0  0  0  0
 15 18  1  0  0  0  0
 18 14  2  0  0  0  0
 19 17  1  0  0  0  0
 20 17  1  6  0  0  0
 20 21  1  0  0  0  0
 20  2  1  0  0  0  0
 21 14  1  6  0  0  0
 21 23  1  0  0  0  0
 22 25  2  0  0  0  0
 23 24  1  0  0  0  0
 23 22  1  0  0  0  0
 24 27  2  0  0  0  0
 27 25  1  0  0  0  0
 27 26  1  0  0  0  0
 28 29  2  0  0  0  0
 30 29  1  0  0  0  0
 30 31  1  1  0  0  0
 32 33  2  0  0  0  0
 33 30  1  0  0  0  0
 34 36  1  0  0  0  0
 34 33  1  0  0  0  0
 35 34  1  0  0  0  0
 35 36  1  0  0  0  0
 37 34  1  0  0  0  0
 38 37  1  0  0  0  0
M  END
>  <MODEL>
3

>  <REMARK>
 VINA RESULT:      -7.2      2.307      9.096
  Name = 
  7 active torsions:
  status: ('A' for Active; 'I' for Inactive)
    1  A    between atoms: N_5  and  C_37
    2  A    between atoms: C_6  and  N_12
    3  A    between atoms: C_6  and  C_15
    4  A    between atoms: C_7  and  C_16
    5  A    between atoms: C_10  and  C_36
    6  A    between atoms: C_13  and  C_15
    7  A    between atoms: C_13  and  C_26
                            x       y       z     vdW  Elec       q    Type
                         _______ _______ _______ _____ _____    ______ ____

>  <TORSDO>
F 7

$$$$
=
 OpenBabel11042416223D

 38 43  0  0  1  0  0  0  0  0999 V2000
  190.0690  177.4780  147.5740 C   0  0  0  0  0  3  0  0  0  0  0  0
  192.3330  173.5120  143.0170 C   0  0  1  0  0  3  0  0  0  0  0  0
  189.8080  175.9560  144.1820 C   0  0  0  0  0  0  0  0  0  0  0  0
  190.5680  175.0220  143.4540 C   0  0  0  0  0  0  0  0  0  0  0  0
  191.6970  174.4640  143.9750 C   0  0  0  0  0  0  0  0  0  0  0  0
  191.3330  173.5400  141.8340 C   0  0  0  0  0  3  0  0  0  0  0  0
  191.4340  175.6510  145.9900 C   0  0  0  0  0  0  0  0  0  0  0  0
  191.8760  175.9640  147.2770 C   0  0  0  0  0  3  0  0  0  0  0  0
  192.1250  174.7570  145.2310 N   0  0  0  0  0  0  0  0  0  0  0  0
  189.5860  177.1990  146.2940 C   0  0  0  0  0  3  0  0  0  0  0  0
  190.2640  176.2780  145.4830 C   0  0  0  0  0  0  0  0  0  0  0  0
  190.3000  174.5230  142.1610 N   0  0  0  0  0  0  0  0  0  0  0  0
  191.1910  176.8620  148.0340 N   0  0  0  0  0  0  0  0  0  0  0  0
  196.1970  173.5830  142.7180 C   0  0  0  0  0  3  0  0  0  0  0  0
  195.9670  175.9430  141.8810 C   0  0  2  0  0  3  0  0  0  0  0  0
  196.6650  176.7460  140.9820 O   0  0  0  0  0  1  0  0  0  0  0  0
  193.7190  175.4050  142.4590 O   0  0  0  0  0  0  0  0  0  0  0  0
  196.6750  174.6260  142.0220 C   0  0  0  0  0  3  0  0  0  0  0  0
  194.5450  175.7410  141.3790 C   0  0  0  0  0  2  0  0  0  0  0  0
  193.7130  174.0020  142.5350 C   0  0  1  0  0  3  0  0  0  0  0  0
  194.8820  173.5720  143.4560 C   0  0  1  0  0  3  0  0  0  0  0  0
  194.5260  172.0540  145.4020 C   0  0  0  0  0  3  0  0  0  0  0  0
  194.6800  172.2690  144.0840 N   0  0  0  0  0  0  0  0  0  0  0  0
  194.6180  171.1140  143.4460 N   0  0  0  0  0  0  0  0  0  0  0  0
  194.3560  170.7380  145.6430 N   0  0  0  0  0  0  0  0  0  0  0  0
  194.2800  168.7410  144.1420 C   0  0  0  0  0  1  0  0  0  0  0  0
  194.4190  170.1970  144.4090 C   0  0  0  0  0  0  0  0  0  0  0  0
  188.5870  176.5970  143.6420 C   0  0  0  0  0  3  0  0  0  0  0  0
  188.5930  177.6600  142.8440 C   0  0  0  0  0  3  0  0  0  0  0  0
  187.3110  178.2460  142.3610 C   0  0  1  0  0  3  0  0  0  0  0  0
  187.1180  177.9350  141.0150 O   0  0  0  0  0  1  0  0  0  0  0  0
  185.5710  176.7190  142.8450 O   0  0  0  0  0  0  0  0  0  0  0  0
  186.1620  177.7360  143.1770 C   0  0  0  0  0  0  0  0  0  0  0  0
  185.7070  178.5010  144.3830 C   0  0  0  0  0  0  0  0  0  0  0  0
  185.5370  179.9990  144.2630 C   0  0  0  0  0  2  0  0  0  0  0  0
  184.3140  179.0860  144.3160 C   0  0  0  0  0  2  0  0  0  0  0  0
  186.0710  178.0100  145.7040 N   0  0  0  0  0  2  0  0  0  0  0  0
  185.0600  177.2170  146.1360 O   0  0  0  0  0  1  0  0  0  0  0  0
  1 13  1  0  0  0  0
  2  6  1  6  0  0  0
  2  5  1  0  0  0  0
  3 11  1  0  0  0  0
  4  5  1  0  0  0  0
  4  3  2  0  0  0  0
  5  9  2  0  0  0  0
  6 12  2  0  0  0  0
  7  8  1  0  0  0  0
  8 13  2  0  0  0  0
  9  7  1  0  0  0  0
 10  1  2  0  0  0  0
 11  7  2  0  0  0  0
 11 10  1  0  0  0  0
 12  4  1  0  0  0  0
 15 16  1  6  0  0  0
 15 18  1  0  0  0  0
 18 14  2  0  0  0  0
 19 15  1  0  0  0  0
 19 17  1  0  0  0  0
 20 17  1  1  0  0  0
 20  2  1  0  0  0  0
 20 21  1  0  0  0  0
 21 14  1  6  0  0  0
 21 23  1  0  0  0  0
 22 25  2  0  0  0  0
 23 22  1  0  0  0  0
 24 23  1  0  0  0  0
 24 27  2  0  0  0  0
 26 27  1  0  0  0  0
 27 25  1  0  0  0  0
 28  3  1  0  0  0  0
 29 28  2  0  0  0  0
 30 31  1  6  0  0  0
 30 29  1  0  0  0  0
 30 33  1  0  0  0  0
 32 33  2  0  0  0  0
 33 34  1  0  0  0  0
 34 37  1  0  0  0  0
 35 36  1  0  0  0  0
 35 34  1  0  0  0  0
 36 34  1  0  0  0  0
 37 38  1  0  0  0  0
M  END
>  <MODEL>
4

>  <REMARK>
 VINA RESULT:      -7.0      1.164      1.195
  Name = 
  7 active torsions:
  status: ('A' for Active; 'I' for Inactive)
    1  A    between atoms: N_5  and  C_37
    2  A    between atoms: C_6  and  N_12
    3  A    between atoms: C_6  and  C_15
    4  A    between atoms: C_7  and  C_16
    5  A    between atoms: C_10  and  C_36
    6  A    between atoms: C_13  and  C_15
    7  A    between atoms: C_13  and  C_26
                            x       y       z     vdW  Elec       q    Type
                         _______ _______ _______ _____ _____    ______ ____

>  <TORSDO>
F 7

$$$$
=
 OpenBabel11042416223D

 38 43  0  0  1  0  0  0  0  0999 V2000
  192.5590  177.1750  144.6190 C   0  0  0  0  0  3  0  0  0  0  0  0
  189.3630  172.4820  141.5570 C   0  0  1  0  0  3  0  0  0  0  0  0
  189.3600  175.6670  143.4420 C   0  0  0  0  0  0  0  0  0  0  0  0
  189.0160  174.5030  142.7290 C   0  0  0  0  0  0  0  0  0  0  0  0
  189.9680  173.6320  142.2910 C   0  0  0  0  0  0  0  0  0  0  0  0
  187.8490  172.7800  141.6940 C   0  0  0  0  0  3  0  0  0  0  0  0
  191.6890  174.9310  143.2340 C   0  0  0  0  0  0  0  0  0  0  0  0
  193.0440  175.1410  143.4900 C   0  0  0  0  0  3  0  0  0  0  0  0
  191.2870  173.8260  142.5470 N   0  0  0  0  0  0  0  0  0  0  0  0
  191.1910  177.0100  144.3900 C   0  0  0  0  0  3  0  0  0  0  0  0
  190.7360  175.8820  143.6920 C   0  0  0  0  0  0  0  0  0  0  0  0
  187.7190  174.0610  142.3890 N   0  0  0  0  0  0  0  0  0  0  0  0
  193.4470  176.2480  144.1690 N   0  0  0  0  0  0  0  0  0  0  0  0
  191.1490  171.2710  138.3360 C   0  0  0  0  0  3  0  0  0  0  0  0
  190.6590  173.5360  137.3600 C   0  0  2  0  0  3  0  0  0  0  0  0
  190.3830  174.0250  136.0840 O   0  0  0  0  0  1  0  0  0  0  0  0
  189.8880  173.7890  139.6000 O   0  0  0  0  0  0  0  0  0  0  0  0
  190.9620  172.0680  137.2720 C   0  0  0  0  0  3  0  0  0  0  0  0
  189.4630  173.7870  138.2660 C   0  0  0  0  0  2  0  0  0  0  0  0
  189.7510  172.4700  140.0640 C   0  0  1  0  0  3  0  0  0  0  0  0
  191.0780  171.7240  139.7730 C   0  0  1  0  0  3  0  0  0  0  0  0
  190.7630  169.3700  140.5310 C   0  0  0  0  0  3  0  0  0  0  0  0
  191.3150  170.5890  140.6600 N   0  0  0  0  0  0  0  0  0  0  0  0
  192.1070  170.5970  141.7170 N   0  0  0  0  0  0  0  0  0  0  0  0
  191.1970  168.5550  141.5140 N   0  0  0  0  0  0  0  0  0  0  0  0
  192.7670  168.9030  143.4270 C   0  0  0  0  0  1  0  0  0  0  0  0
  192.0240  169.3530  142.2210 C   0  0  0  0  0  0  0  0  0  0  0  0
  188.3560  176.6460  143.9180 C   0  0  0  0  0  3  0  0  0  0  0  0
  187.7540  177.5370  143.1370 C   0  0  0  0  0  3  0  0  0  0  0  0
  186.7660  178.4940  143.7090 C   0  0  1  0  0  3  0  0  0  0  0  0
  186.3670  179.4110  142.7370 O   0  0  0  0  0  1  0  0  0  0  0  0
  184.8220  177.1660  143.4860 O   0  0  0  0  0  0  0  0  0  0  0  0
  185.5740  177.7600  144.2450 C   0  0  0  0  0  0  0  0  0  0  0  0
  185.2790  177.7880  145.7140 C   0  0  0  0  0  0  0  0  0  0  0  0
  185.5620  179.0610  146.4800 C   0  0  0  0  0  2  0  0  0  0  0  0
  184.1260  178.6650  146.1460 C   0  0  0  0  0  2  0  0  0  0  0  0
  185.3940  176.5540  146.4770 N   0  0  0  0  0  2  0  0  0  0  0  0
  186.6480  176.5100  146.9900 O   0  0  0  0  0  1  0  0  0  0  0  0
  2  6  1  6  0  0  0
  2  5  1  0  0  0  0
  3 11  1  0  0  0  0
  3 28  1  0  0  0  0
  4  3  2  0  0  0  0
  5  9  2  0  0  0  0
  5  4  1  0  0  0  0
  6 12  2  0  0  0  0
  7  8  2  0  0  0  0
  7 11  1  0  0  0  0
  8 13  1  0  0  0  0
  9  7  1  0  0  0  0
 10  1  1  0  0  0  0
 11 10  2  0  0  0  0
 12  4  1  0  0  0  0
 13  1  2  0  0  0  0
 15 16  1  6  0  0  0
 15 19  1  0  0  0  0
 18 15  1  0  0  0  0
 18 14  2  0  0  0  0
 19 17  1  0  0  0  0
 20 17  1  1  0  0  0
 20  2  1  0  0  0  0
 21 14  1  6  0  0  0
 21 20  1  0  0  0  0
 21 23  1  0  0  0  0
 22 23  1  0  0  0  0
 22 25  2  0  0  0  0
 23 24  1  0  0  0  0
 24 27  2  0  0  0  0
 25 27  1  0  0  0  0
 27 26  1  0  0  0  0
 29 30  1  0  0  0  0
 29 28  2  0  0  0  0
 30 31  1  6  0  0  0
 30 33  1  0  0  0  0
 32 33  2  0  0  0  0
 33 34  1  0  0  0  0
 34 36  1  0  0  0  0
 34 37  1  0  0  0  0
 34 35  1  0  0  0  0
 36 35  1  0  0  0  0
 37 38  1  0  0  0  0
M  END
>  <MODEL>
5

>  <REMARK>
 VINA RESULT:      -7.0      2.628      3.668
  Name = 
  7 active torsions:
  status: ('A' for Active; 'I' for Inactive)
    1  A    between atoms: N_5  and  C_37
    2  A    between atoms: C_6  and  N_12
    3  A    between atoms: C_6  and  C_15
    4  A    between atoms: C_7  and  C_16
    5  A    between atoms: C_10  and  C_36
    6  A    between atoms: C_13  and  C_15
    7  A    between atoms: C_13  and  C_26
                            x       y       z     vdW  Elec       q    Type
                         _______ _______ _______ _____ _____    ______ ____

>  <TORSDO>
F 7

$$$$
=
 OpenBabel11042416223D

 38 43  0  0  1  0  0  0  0  0999 V2000
  188.4120  173.2250  140.5900 C   0  0  0  0  0  3  0  0  0  0  0  0
  193.8970  175.0620  143.4460 C   0  0  1  0  0  3  0  0  0  0  0  0
  190.2240  175.3250  143.0810 C   0  0  0  0  0  0  0  0  0  0  0  0
  191.5710  175.4730  143.4590 C   0  0  0  0  0  0  0  0  0  0  0  0
  192.5570  174.7360  142.8750 C   0  0  0  0  0  0  0  0  0  0  0  0
  193.5490  176.1960  144.4420 C   0  0  0  0  0  3  0  0  0  0  0  0
  191.0110  173.6590  141.4650 C   0  0  0  0  0  0  0  0  0  0  0  0
  190.7340  172.7410  140.4520 C   0  0  0  0  0  3  0  0  0  0  0  0
  192.2930  173.8490  141.8810 N   0  0  0  0  0  0  0  0  0  0  0  0
  188.6370  174.1560  141.6060 C   0  0  0  0  0  3  0  0  0  0  0  0
  189.9440  174.3860  142.0590 C   0  0  0  0  0  0  0  0  0  0  0  0
  192.0950  176.3600  144.4240 N   0  0  0  0  0  0  0  0  0  0  0  0
  189.4530  172.5450  140.0400 N   0  0  0  0  0  0  0  0  0  0  0  0
  196.5960  172.4670  144.4530 C   0  0  0  0  0  3  0  0  0  0  0  0
  194.7320  171.0930  145.4350 C   0  0  2  0  0  3  0  0  0  0  0  0
  194.6100  170.2190  146.5130 O   0  0  0  0  0  1  0  0  0  0  0  0
  193.5370  172.8820  144.4110 O   0  0  0  0  0  0  0  0  0  0  0  0
  196.1630  171.5310  145.3130 C   0  0  0  0  0  3  0  0  0  0  0  0
  193.8170  172.2900  145.6480 C   0  0  0  0  0  2  0  0  0  0  0  0
  194.5120  173.8740  144.2140 C   0  0  1  0  0  3  0  0  0  0  0  0
  195.7150  173.2200  143.4890 C   0  0  1  0  0  3  0  0  0  0  0  0
  197.3200  175.1130  143.2490 C   0  0  0  0  0  3  0  0  0  0  0  0
  196.5190  174.1690  142.7240 N   0  0  0  0  0  0  0  0  0  0  0  0
  196.5780  174.2350  141.4060 N   0  0  0  0  0  0  0  0  0  0  0  0
  197.9210  175.8140  142.2670 N   0  0  0  0  0  0  0  0  0  0  0  0
  197.8100  175.6660  139.7740 C   0  0  0  0  0  1  0  0  0  0  0  0
  197.4350  175.2390  141.1470 C   0  0  0  0  0  0  0  0  0  0  0  0
  189.1220  176.0940  143.7040 C   0  0  0  0  0  3  0  0  0  0  0  0
  188.5980  177.2010  143.1860 C   0  0  0  0  0  3  0  0  0  0  0  0
  187.5000  177.9160  143.8940 C   0  0  1  0  0  3  0  0  0  0  0  0
  186.8170  178.7470  143.0050 O   0  0  0  0  0  1  0  0  0  0  0  0
  185.9250  176.1530  143.8150 O   0  0  0  0  0  0  0  0  0  0  0  0
  186.5510  176.9360  144.5150 C   0  0  0  0  0  0  0  0  0  0  0  0
  186.3360  176.9430  145.9980 C   0  0  0  0  0  0  0  0  0  0  0  0
  187.4390  176.4140  146.8880 C   0  0  0  0  0  2  0  0  0  0  0  0
  187.1810  177.9150  146.7900 C   0  0  0  0  0  2  0  0  0  0  0  0
  184.9820  176.7910  146.5130 N   0  0  0  0  0  2  0  0  0  0  0  0
  184.2980  177.9180  146.1950 O   0  0  0  0  0  1  0  0  0  0  0  0
  1 10  1  0  0  0  0
  2 20  1  0  0  0  0
  2  6  1  1  0  0  0
  3  4  2  0  0  0  0
  3 28  1  0  0  0  0
  4 12  1  0  0  0  0
  5  2  1  0  0  0  0
  5  4  1  0  0  0  0
  7  9  1  0  0  0  0
  7 11  1  0  0  0  0
  8  7  2  0  0  0  0
  9  5  2  0  0  0  0
 10 11  2  0  0  0  0
 11  3  1  0  0  0  0
 12  6  2  0  0  0  0
 13  8  1  0  0  0  0
 13  1  2  0  0  0  0
 14 18  2  0  0  0  0
 15 19  1  0  0  0  0
 15 16  1  1  0  0  0
 17 19  1  0  0  0  0
 18 15  1  0  0  0  0
 20 17  1  6  0  0  0
 21 23  1  1  0  0  0
 21 20  1  0  0  0  0
 21 14  1  0  0  0  0
 23 22  1  0  0  0  0
 24 23  1  0  0  0  0
 25 22  2  0  0  0  0
 26 27  1  0  0  0  0
 27 24  2  0  0  0  0
 27 25  1  0  0  0  0
 29 28  2  0  0  0  0
 29 30  1  0  0  0  0
 30 31  1  6  0  0  0
 30 33  1  0  0  0  0
 32 33  2  0  0  0  0
 33 34  1  0  0  0  0
 34 37  1  0  0  0  0
 34 36  1  0  0  0  0
 34 35  1  0  0  0  0
 36 35  1  0  0  0  0
 38 37  1  0  0  0  0
M  END
>  <MODEL>
6

>  <REMARK>
 VINA RESULT:      -6.8      2.545      4.738
  Name = 
  7 active torsions:
  status: ('A' for Active; 'I' for Inactive)
    1  A    between atoms: N_5  and  C_37
    2  A    between atoms: C_6  and  N_12
    3  A    between atoms: C_6  and  C_15
    4  A    between atoms: C_7  and  C_16
    5  A    between atoms: C_10  and  C_36
    6  A    between atoms: C_13  and  C_15
    7  A    between atoms: C_13  and  C_26
                            x       y       z     vdW  Elec       q    Type
                         _______ _______ _______ _____ _____    ______ ____

>  <TORSDO>
F 7

$$$$
=
 OpenBabel11042416223D

 38 43  0  0  1  0  0  0  0  0999 V2000
  190.1410  178.2280  148.4340 C   0  0  0  0  0  3  0  0  0  0  0  0
  191.8640  173.6200  144.2600 C   0  0  1  0  0  3  0  0  0  0  0  0
  189.3590  176.0340  145.5230 C   0  0  0  0  0  0  0  0  0  0  0  0
  190.0580  175.0370  144.8180 C   0  0  0  0  0  0  0  0  0  0  0  0
  191.3330  174.6910  145.1540 C   0  0  0  0  0  0  0  0  0  0  0  0
  190.6400  173.3260  143.3570 C   0  0  0  0  0  3  0  0  0  0  0  0
  191.3570  176.2360  146.9290 C   0  0  0  0  0  0  0  0  0  0  0  0
  192.0190  176.8380  148.0000 C   0  0  0  0  0  3  0  0  0  0  0  0
  191.9770  175.2660  146.2020 N   0  0  0  0  0  0  0  0  0  0  0  0
  189.4360  177.6560  147.3730 C   0  0  0  0  0  3  0  0  0  0  0  0
  190.0360  176.6490  146.6040 C   0  0  0  0  0  0  0  0  0  0  0  0
  189.5850  174.2670  143.7330 N   0  0  0  0  0  0  0  0  0  0  0  0
  191.4030  177.8110  148.7220 N   0  0  0  0  0  0  0  0  0  0  0  0
  195.4170  173.6060  142.7090 C   0  0  0  0  0  3  0  0  0  0  0  0
  195.0660  176.0410  142.1890 C   0  0  2  0  0  3  0  0  0  0  0  0
  195.4800  176.9070  141.1780 O   0  0  0  0  0  1  0  0  0  0  0  0
  193.1020  175.5160  143.4310 O   0  0  0  0  0  0  0  0  0  0  0  0
  195.7020  174.6970  141.9810 C   0  0  0  0  0  3  0  0  0  0  0  0
  193.5490  175.9300  142.1710 C   0  0  0  0  0  2  0  0  0  0  0  0
  193.0380  174.1130  143.3900 C   0  0  1  0  0  3  0  0  0  0  0  0
  194.4160  173.5630  143.8360 C   0  0  1  0  0  3  0  0  0  0  0  0
  194.5890  171.8810  145.6680 C   0  0  0  0  0  3  0  0  0  0  0  0
  194.3530  172.2120  144.3870 N   0  0  0  0  0  0  0  0  0  0  0  0
  194.0530  171.1210  143.7060 N   0  0  0  0  0  0  0  0  0  0  0  0
  194.4410  170.5520  145.8420 N   0  0  0  0  0  0  0  0  0  0  0  0
  193.8330  168.7010  144.2760 C   0  0  0  0  0  1  0  0  0  0  0  0
  194.1100  170.1240  144.6060 C   0  0  0  0  0  0  0  0  0  0  0  0
  187.9800  176.4500  145.1770 C   0  0  0  0  0  3  0  0  0  0  0  0
  186.9600  176.4350  146.0290 C   0  0  0  0  0  3  0  0  0  0  0  0
  185.6030  176.8600  145.5850 C   0  0  1  0  0  3  0  0  0  0  0  0
  184.7330  176.9060  146.6750 O   0  0  0  0  0  1  0  0  0  0  0  0
  186.0500  179.1820  145.5380 O   0  0  0  0  0  0  0  0  0  0  0  0
  185.6650  178.2010  144.9180 C   0  0  0  0  0  0  0  0  0  0  0  0
  185.2140  178.3500  143.4970 C   0  0  0  0  0  0  0  0  0  0  0  0
  186.2410  178.7220  142.4510 C   0  0  0  0  0  2  0  0  0  0  0  0
  185.7010  177.2960  142.5280 C   0  0  0  0  0  2  0  0  0  0  0  0
  183.8540  178.8010  143.2350 N   0  0  0  0  0  2  0  0  0  0  0  0
  183.3990  178.1120  142.1600 O   0  0  0  0  0  1  0  0  0  0  0  0
  1 13  1  0  0  0  0
  2  6  1  6  0  0  0
  2  5  1  0  0  0  0
  3 11  1  0  0  0  0
  4  5  1  0  0  0  0
  4  3  2  0  0  0  0
  5  9  2  0  0  0  0
  6 12  2  0  0  0  0
  7  8  1  0  0  0  0
  8 13  2  0  0  0  0
  9  7  1  0  0  0  0
 10  1  2  0  0  0  0
 11  7  2  0  0  0  0
 11 10  1  0  0  0  0
 12  4  1  0  0  0  0
 15 16  1  6  0  0  0
 18 15  1  0  0  0  0
 18 14  2  0  0  0  0
 19 15  1  0  0  0  0
 19 17  1  0  0  0  0
 20 17  1  1  0  0  0
 20 21  1  0  0  0  0
 20  2  1  0  0  0  0
 21 14  1  6  0  0  0
 21 23  1  0  0  0  0
 22 25  2  0  0  0  0
 23 22  1  0  0  0  0
 24 23  1  0  0  0  0
 24 27  2  0  0  0  0
 26 27  1  0  0  0  0
 27 25  1  0  0  0  0
 28  3  1  0  0  0  0
 28 29  2  0  0  0  0
 30 29  1  0  0  0  0
 30 31  1  1  0  0  0
 33 32  2  0  0  0  0
 33 30  1  0  0  0  0
 34 33  1  0  0  0  0
 35 36  1  0  0  0  0
 35 34  1  0  0  0  0
 36 34  1  0  0  0  0
 37 34  1  0  0  0  0
 38 37  1  0  0  0  0
M  END
>  <MODEL>
7

>  <REMARK>
 VINA RESULT:      -6.6      1.520      2.248
  Name = 
  7 active torsions:
  status: ('A' for Active; 'I' for Inactive)
    1  A    between atoms: N_5  and  C_37
    2  A    between atoms: C_6  and  N_12
    3  A    between atoms: C_6  and  C_15
    4  A    between atoms: C_7  and  C_16
    5  A    between atoms: C_10  and  C_36
    6  A    between atoms: C_13  and  C_15
    7  A    between atoms: C_13  and  C_26
                            x       y       z     vdW  Elec       q    Type
                         _______ _______ _______ _____ _____    ______ ____

>  <TORSDO>
F 7

$$$$
=
 OpenBabel11042416223D

 38 43  0  0  1  0  0  0  0  0999 V2000
  186.5480  177.5410  139.8070 C   0  0  0  0  0  3  0  0  0  0  0  0
  189.8840  173.9220  143.9780 C   0  0  1  0  0  3  0  0  0  0  0  0
  188.5070  174.4660  140.5860 C   0  0  0  0  0  0  0  0  0  0  0  0
  189.1440  173.9620  141.7350 C   0  0  0  0  0  0  0  0  0  0  0  0
  189.1400  174.6520  142.9100 C   0  0  0  0  0  0  0  0  0  0  0  0
  190.2840  172.6160  143.2480 C   0  0  0  0  0  3  0  0  0  0  0  0
  187.8550  176.3840  141.9670 C   0  0  0  0  0  0  0  0  0  0  0  0
  187.2010  177.6100  142.0910 C   0  0  0  0  0  3  0  0  0  0  0  0
  188.4950  175.8410  143.0390 N   0  0  0  0  0  0  0  0  0  0  0  0
  187.1870  176.3110  139.6320 C   0  0  0  0  0  3  0  0  0  0  0  0
  187.8510  175.7150  140.7130 C   0  0  0  0  0  0  0  0  0  0  0  0
  189.8300  172.7350  141.8630 N   0  0  0  0  0  0  0  0  0  0  0  0
  186.5680  178.1570  141.0190 N   0  0  0  0  0  0  0  0  0  0  0  0
  192.0550  176.3400  146.0940 C   0  0  0  0  0  3  0  0  0  0  0  0
  193.6990  176.3320  144.1910 C   0  0  2  0  0  3  0  0  0  0  0  0
  195.0840  176.4370  144.0800 O   0  0  0  0  0  1  0  0  0  0  0  0
  191.9030  175.0480  143.2940 O   0  0  0  0  0  0  0  0  0  0  0  0
  193.3030  176.5050  145.6290 C   0  0  0  0  0  3  0  0  0  0  0  0
  193.2510  174.9760  143.6670 C   0  0  0  0  0  2  0  0  0  0  0  0
  191.1560  174.6720  144.4230 C   0  0  1  0  0  3  0  0  0  0  0  0
  190.8680  175.9510  145.2480 C   0  0  1  0  0  3  0  0  0  0  0  0
  189.4810  174.9270  147.0490 C   0  0  0  0  0  3  0  0  0  0  0  0
  189.6780  175.8460  146.0880 N   0  0  0  0  0  0  0  0  0  0  0  0
  188.6240  176.6410  146.0260 N   0  0  0  0  0  0  0  0  0  0  0  0
  188.2810  175.1150  147.6350 N   0  0  0  0  0  0  0  0  0  0  0  0
  186.4630  176.7890  147.2640 C   0  0  0  0  0  1  0  0  0  0  0  0
  187.7880  176.1820  146.9730 C   0  0  0  0  0  0  0  0  0  0  0  0
  188.5060  173.7550  139.2870 C   0  0  0  0  0  3  0  0  0  0  0  0
  189.5470  173.7080  138.4620 C   0  0  0  0  0  3  0  0  0  0  0  0
  189.4480  172.9780  137.1670 C   0  0  1  0  0  3  0  0  0  0  0  0
  189.3120  173.8840  136.1140 O   0  0  0  0  0  1  0  0  0  0  0  0
  191.4820  172.4130  136.1010 O   0  0  0  0  0  0  0  0  0  0  0  0
  190.6570  172.1190  136.9550 C   0  0  0  0  0  0  0  0  0  0  0  0
  190.8370  170.8710  137.7640 C   0  0  0  0  0  0  0  0  0  0  0  0
  189.6920  169.8850  137.8290 C   0  0  0  0  0  2  0  0  0  0  0  0
  190.9270  169.5780  136.9850 C   0  0  0  0  0  2  0  0  0  0  0  0
  191.7020  170.9110  138.9340 N   0  0  0  0  0  2  0  0  0  0  0  0
  191.0900  170.2040  139.9150 O   0  0  0  0  0  1  0  0  0  0  0  0
  1 13  1  0  0  0  0
  2  6  1  6  0  0  0
  2 20  1  0  0  0  0
  3 11  2  0  0  0  0
  3  4  1  0  0  0  0
  4 12  1  0  0  0  0
  4  5  2  0  0  0  0
  5  9  1  0  0  0  0
  5  2  1  0  0  0  0
  7  8  1  0  0  0  0
  7  9  2  0  0  0  0
 10  1  2  0  0  0  0
 10 11  1  0  0  0  0
 11  7  1  0  0  0  0
 12  6  2  0  0  0  0
 13  8  2  0  0  0  0
 15 16  1  1  0  0  0
 15 18  1  0  0  0  0
 17 19  1  0  0  0  0
 18 14  2  0  0  0  0
 19 15  1  0  0  0  0
 20 17  1  6  0  0  0
 20 21  1  0  0  0  0
 21 23  1  1  0  0  0
 21 14  1  0  0  0  0
 22 25  2  0  0  0  0
 23 22  1  0  0  0  0
 24 23  1  0  0  0  0
 24 27  2  0  0  0  0
 27 26  1  0  0  0  0
 27 25  1  0  0  0  0
 28  3  1  0  0  0  0
 29 28  2  0  0  0  0
 30 31  1  6  0  0  0
 30 29  1  0  0  0  0
 32 33  2  0  0  0  0
 33 30  1  0  0  0  0
 33 34  1  0  0  0  0
 34 35  1  0  0  0  0
 34 37  1  0  0  0  0
 36 34  1  0  0  0  0
 36 35  1  0  0  0  0
 37 38  1  0  0  0  0
M  END
>  <MODEL>
8

>  <REMARK>
 VINA RESULT:      -6.5      3.639      7.506
  Name = 
  7 active torsions:
  status: ('A' for Active; 'I' for Inactive)
    1  A    between atoms: N_5  and  C_37
    2  A    between atoms: C_6  and  N_12
    3  A    between atoms: C_6  and  C_15
    4  A    between atoms: C_7  and  C_16
    5  A    between atoms: C_10  and  C_36
    6  A    between atoms: C_13  and  C_15
    7  A    between atoms: C_13  and  C_26
                            x       y       z     vdW  Elec       q    Type
                         _______ _______ _______ _____ _____    ______ ____

>  <TORSDO>
F 7

$$$$
=
 OpenBabel11042416223D

 38 43  0  0  1  0  0  0  0  0999 V2000
  193.7300  177.1630  145.4560 C   0  0  0  0  0  3  0  0  0  0  0  0
  191.2060  171.5120  143.6350 C   0  0  1  0  0  3  0  0  0  0  0  0
  190.8060  175.1140  144.3850 C   0  0  0  0  0  0  0  0  0  0  0  0
  190.6150  173.7630  144.0410 C   0  0  0  0  0  0  0  0  0  0  0  0
  191.6520  172.8780  144.0410 C   0  0  0  0  0  0  0  0  0  0  0  0
  189.6820  171.7170  143.4560 C   0  0  0  0  0  3  0  0  0  0  0  0
  193.1600  174.5390  144.7510 C   0  0  0  0  0  0  0  0  0  0  0  0
  194.4510  174.9250  145.1140 C   0  0  0  0  0  3  0  0  0  0  0  0
  192.9070  173.2470  144.4040 N   0  0  0  0  0  0  0  0  0  0  0  0
  192.4220  176.8270  145.1020 C   0  0  0  0  0  3  0  0  0  0  0  0
  192.1180  175.5060  144.7440 C   0  0  0  0  0  0  0  0  0  0  0  0
  189.4030  173.1360  143.6810 N   0  0  0  0  0  0  0  0  0  0  0  0
  194.7060  176.2160  145.4550 N   0  0  0  0  0  0  0  0  0  0  0  0
  193.5900  169.5840  141.2610 C   0  0  0  0  0  3  0  0  0  0  0  0
  193.0450  171.3090  139.5140 C   0  0  2  0  0  3  0  0  0  0  0  0
  192.9310  171.3080  138.1250 O   0  0  0  0  0  1  0  0  0  0  0  0
  191.9080  172.1680  141.4230 O   0  0  0  0  0  0  0  0  0  0  0  0
  193.4980  169.9530  139.9740 C   0  0  0  0  0  3  0  0  0  0  0  0
  191.7020  171.6680  140.1320 C   0  0  0  0  0  2  0  0  0  0  0  0
  191.8260  171.0690  142.2950 C   0  0  1  0  0  3  0  0  0  0  0  0
  193.2480  170.4680  142.4350 C   0  0  1  0  0  3  0  0  0  0  0  0
  192.8340  168.5860  144.0160 C   0  0  0  0  0  3  0  0  0  0  0  0
  193.4480  169.7330  143.6800 N   0  0  0  0  0  0  0  0  0  0  0  0
  194.2650  170.0890  144.6560 N   0  0  0  0  0  0  0  0  0  0  0  0
  193.2490  168.1720  145.2310 N   0  0  0  0  0  0  0  0  0  0  0  0
  194.8800  169.1180  146.8710 C   0  0  0  0  0  1  0  0  0  0  0  0
  194.1320  169.1280  145.5870 C   0  0  0  0  0  0  0  0  0  0  0  0
  189.7100  176.1100  144.3780 C   0  0  0  0  0  3  0  0  0  0  0  0
  189.1460  176.5910  143.2750 C   0  0  0  0  0  3  0  0  0  0  0  0
  188.0560  177.6030  143.3660 C   0  0  1  0  0  3  0  0  0  0  0  0
  187.9380  178.2920  142.1590 O   0  0  0  0  0  1  0  0  0  0  0  0
  186.3830  175.9530  143.1010 O   0  0  0  0  0  0  0  0  0  0  0  0
  186.7550  176.9440  143.7130 C   0  0  0  0  0  0  0  0  0  0  0  0
  185.8860  177.5260  144.7850 C   0  0  0  0  0  0  0  0  0  0  0  0
  185.7780  176.7900  146.1020 C   0  0  0  0  0  2  0  0  0  0  0  0
  186.6010  178.0720  146.0010 C   0  0  0  0  0  2  0  0  0  0  0  0
  184.7160  178.3010  144.3980 N   0  0  0  0  0  2  0  0  0  0  0  0
  185.1550  179.5100  143.9680 O   0  0  0  0  0  1  0  0  0  0  0  0
  2  6  1  6  0  0  0
  2  5  1  0  0  0  0
  3 11  1  0  0  0  0
  4  3  2  0  0  0  0
  5  4  1  0  0  0  0
  5  9  2  0  0  0  0
  6 12  2  0  0  0  0
  7  8  1  0  0  0  0
  8 13  2  0  0  0  0
  9  7  1  0  0  0  0
 10  1  2  0  0  0  0
 11  7  2  0  0  0  0
 11 10  1  0  0  0  0
 12  4  1  0  0  0  0
 13  1  1  0  0  0  0
 15 16  1  6  0  0  0
 15 18  1  0  0  0  0
 15 19  1  0  0  0  0
 18 14  2  0  0  0  0
 19 17  1  0  0  0  0
 20 17  1  6  0  0  0
 20 21  1  0  0  0  0
 20  2  1  0  0  0  0
 21 14  1  6  0  0  0
 21 23  1  0  0  0  0
 22 25  2  0  0  0  0
 23 22  1  0  0  0  0
 23 24  1  0  0  0  0
 24 27  2  0  0  0  0
 25 27  1  0  0  0  0
 27 26  1  0  0  0  0
 28  3  1  0  0  0  0
 29 30  1  0  0  0  0
 29 28  2  0  0  0  0
 30 31  1  6  0  0  0
 30 33  1  0  0  0  0
 32 33  2  0  0  0  0
 33 34  1  0  0  0  0
 34 36  1  0  0  0  0
 34 35  1  0  0  0  0
 36 35  1  0  0  0  0
 37 34  1  0  0  0  0
 38 37  1  0  0  0  0
M  END
>  <MODEL>
9

>  <REMARK>
 VINA RESULT:      -6.5      2.602      3.400
  Name = 
  7 active torsions:
  status: ('A' for Active; 'I' for Inactive)
    1  A    between atoms: N_5  and  C_37
    2  A    between atoms: C_6  and  N_12
    3  A    between atoms: C_6  and  C_15
    4  A    between atoms: C_7  and  C_16
    5  A    between atoms: C_10  and  C_36
    6  A    between atoms: C_13  and  C_15
    7  A    between atoms: C_13  and  C_26
                            x       y       z     vdW  Elec       q    Type
                         _______ _______ _______ _____ _____    ______ ____

>  <TORSDO>
F 7

$$$$
