=
 OpenBabel11042418163D

 68 73  0  0  1  0  0  0  0  0999 V2000
  193.2800  175.3190  141.6680 C   0  0  0  0  0  1  0  0  0  0  0  0
  195.1080  174.2640  140.1740 C   0  0  1  0  0  3  0  0  0  0  0  0
  194.4840  174.3820  141.5810 C   0  0  2  0  0  3  0  0  0  0  0  0
  194.2350  173.1420  140.7300 C   0  0  1  0  0  0  0  0  0  0  0  0
  192.9140  173.0140  140.2570 O   0  0  0  0  0  0  0  0  0  0  0  0
  192.2980  172.2270  141.1170 O   0  0  0  0  0  0  0  0  0  0  0  0
  191.2010  171.7220  140.4170 C   0  0  0  0  0  2  0  0  0  0  0  0
  188.7120  174.3870  140.6400 C   0  0  0  0  0  0  0  0  0  0  0  0
  189.5660  173.5350  141.1790 C   0  0  0  0  0  0  0  0  0  0  0  0
  190.2400  172.7870  140.1820 N   0  0  0  0  0  0  0  0  0  0  0  0
  189.7480  173.1630  138.8700 C   0  0  0  0  0  3  0  0  0  0  0  0
  188.6860  174.2330  139.1490 C   0  0  0  0  0  3  0  0  0  0  0  0
  188.6030  176.0970  142.4190 C   0  0  2  0  0  3  0  0  0  0  0  0
  187.7740  176.2270  143.7000 C   0  0  0  0  0  2  0  0  0  0  0  0
  188.0630  176.7410  141.1320 C   0  0  1  0  0  3  0  0  0  0  0  0
  187.7920  175.2760  141.4220 C   0  0  1  0  0  3  0  0  0  0  0  0
  185.9840  177.4660  142.5360 C   0  0  0  0  0  2  0  0  0  0  0  0
  186.9100  177.4800  143.7370 C   0  0  1  0  0  3  0  0  0  0  0  0
  186.8120  177.6390  141.2670 C   0  0  2  0  0  3  0  0  0  0  0  0
  186.4880  177.1120  138.8090 N   0  0  0  0  0  1  0  0  0  0  0  0
  184.7330  177.8750  140.1260 O   0  0  0  0  0  0  0  0  0  0  0  0
  185.9480  177.5510  140.0520 C   0  0  0  0  0  0  0  0  0  0  0  0
  185.6150  176.3980  145.4290 O   0  0  0  0  0  1  0  0  0  0  0  0
  186.1580  177.6400  145.0770 C   0  0  2  0  0  0  0  0  0  0  0  0
  185.0120  178.6640  144.9600 C   0  0  2  0  0  3  0  0  0  0  0  0
  185.5050  179.9500  144.8340 F   0  0  0  0  0  0  0  0  0  0  0  0
  184.0820  178.6090  146.1620 C   0  0  0  0  0  1  0  0  0  0  0  0
  187.0580  178.0700  146.1050 O   0  0  0  0  0  0  0  0  0  0  0  0
  189.3610  177.3320  146.8680 C   0  0  0  0  0  1  0  0  0  0  0  0
  187.3290  176.3540  147.6030 O   0  0  0  0  0  0  0  0  0  0  0  0
  187.8710  177.2220  146.8730 C   0  0  0  0  0  0  0  0  0  0  0  0
  188.9950  172.2130  143.1880 C   0  0  0  0  0  1  0  0  0  0  0  0
  189.8080  173.3740  142.6490 C   0  0  0  0  0  2  0  0  0  0  0  0
  194.9320  171.9030  141.2730 C   0  0  0  0  0  2  0  0  0  0  0  0
  196.3130  172.2490  141.8010 C   0  0  0  0  0  2  0  0  0  0  0  0
  196.8250  171.1490  142.5990 N   0  0  0  0  0  2  0  0  0  0  0  0
  195.7770  170.1450  142.6660 C   0  0  0  0  0  2  0  0  0  0  0  0
  195.7190  169.5440  144.0620 C   0  0  0  0  0  2  0  0  0  0  0  0
  194.3450  169.7330  144.6820 C   0  0  2  0  0  3  0  0  0  0  0  0
  193.4390  170.1740  143.7150 O   0  0  0  0  0  1  0  0  0  0  0  0
  194.4380  170.7630  145.7950 C   0  0  0  0  0  2  0  0  0  0  0  0
  194.3000  172.1060  145.2510 N   0  0  0  0  0  0  0  0  0  0  0  0
  193.0660  175.8400  146.2730 C   0  0  0  0  0  1  0  0  0  0  0  0
  193.4750  174.8030  145.2430 C   0  0  1  0  0  3  0  0  0  0  0  0
  194.9450  174.4830  145.3610 C   0  0  0  0  0  0  0  0  0  0  0  0
  192.6200  173.5370  145.4380 C   0  0  0  0  0  2  0  0  0  0  0  0
  196.5440  172.7290  145.5820 O   0  0  0  0  0  0  0  0  0  0  0  0
  195.8070  175.4020  145.3950 O   0  0  0  0  0  0  0  0  0  0  0  0
  195.3460  173.0740  145.3920 C   0  0  0  0  0  0  0  0  0  0  0  0
  193.1350  172.4870  144.6530 O   0  0  0  0  0  0  0  0  0  0  0  0
  194.4030  175.0650  139.0760 C   0  0  0  0  0  2  0  0  0  0  0  0
  194.8160  174.5470  137.7080 C   0  0  0  0  0  2  0  0  0  0  0  0
  194.7910  173.8650  134.9330 O   0  0  0  0  0  0  0  0  0  0  0  0
  193.6370  174.1820  136.9370 N   0  0  0  0  0  2  0  0  0  0  0  0
  193.7160  173.7430  135.5800 C   0  0  0  0  0  0  0  0  0  0  0  0
  192.5330  173.1010  134.9210 C   0  0  2  0  0  3  0  0  0  0  0  0
  190.0110  173.3830  134.8400 C   0  0  0  0  0  0  0  0  0  0  0  0
  191.2380  175.3000  135.3820 C   0  0  0  0  0  3  0  0  0  0  0  0
  188.9650  174.4170  134.9480 C   0  0  0  0  0  2  0  0  0  0  0  0
  191.3040  173.8710  135.1240 N   0  0  0  0  0  0  0  0  0  0  0  0
  189.7470  175.6630  135.3720 C   0  0  0  0  0  3  0  0  0  0  0  0
  189.7820  172.1880  134.5170 O   0  0  0  0  0  0  0  0  0  0  0  0
  192.3650  171.6400  135.3370 C   0  0  0  0  0  2  0  0  0  0  0  0
  192.5290  171.4920  136.7200 O   0  0  0  0  0  0  0  0  0  0  0  0
  192.8410  169.3510  138.4560 O   0  0  0  0  0  1  0  0  0  0  0  0
  190.2500  169.8220  137.3160 C   0  0  0  0  0  1  0  0  0  0  0  0
  192.4150  169.0120  135.9000 O   0  0  0  0  0  0  0  0  0  0  0  0
  192.0470  169.9030  137.0650 P   0  0  1  0  0  0  0  0  0  0  0  0
  2 51  1  6  0  0  0
  2  4  1  0  0  0  0
  2  3  1  0  0  0  0
  3  1  1  6  0  0  0
  4 34  1  1  0  0  0
  4  3  1  0  0  0  0
  5  4  1  0  0  0  0
  5  6  1  0  0  0  0
  7  6  1  0  0  0  0
  8  9  2  0  0  0  0
  8 16  1  0  0  0  0
  9 33  1  0  0  0  0
 10  7  1  0  0  0  0
 10  9  1  0  0  0  0
 11 12  2  0  0  0  0
 11 10  1  0  0  0  0
 12  8  1  0  0  0  0
 13 14  1  1  0  0  0
 14 18  1  0  0  0  0
 15 19  1  0  0  0  0
 15 16  1  0  0  0  0
 15 13  1  0  0  0  0
 16 13  1  0  0  0  0
 17 18  1  0  0  0  0
 18 24  1  0  0  0  0
 19 17  1  0  0  0  0
 20 22  1  0  0  0  0
 22 21  2  0  0  0  0
 22 19  1  0  0  0  0
 24 23  1  0  0  0  0
 24 28  1  0  0  0  0
 25 24  1  0  0  0  0
 25 27  1  0  0  0  0
 26 25  1  0  0  0  0
 28 31  1  0  0  0  0
 29 31  1  0  0  0  0
 31 30  2  0  0  0  0
 33 32  1  0  0  0  0
 34 35  1  0  0  0  0
 35 36  1  0  0  0  0
 36 37  1  0  0  0  0
 37 38  1  0  0  0  0
 38 39  1  0  0  0  0
 39 41  1  0  0  0  0
 40 39  1  0  0  0  0
 42 49  1  0  0  0  0
 42 41  1  0  0  0  0
 44 45  1  0  0  0  0
 44 46  1  0  0  0  0
 44 43  1  0  0  0  0
 45 49  1  0  0  0  0
 45 48  2  0  0  0  0
 49 47  2  0  0  0  0
 50 42  1  0  0  0  0
 50 46  1  0  0  0  0
 52 51  1  0  0  0  0
 53 55  2  0  0  0  0
 54 52  1  0  0  0  0
 55 54  1  0  0  0  0
 56 60  1  0  0  0  0
 56 63  1  0  0  0  0
 56 55  1  0  0  0  0
 57 59  1  0  0  0  0
 57 60  1  0  0  0  0
 59 61  1  0  0  0  0
 60 58  1  0  0  0  0
 61 58  2  0  0  0  0
 62 57  2  0  0  0  0
 63 64  1  0  0  0  0
 64 68  1  0  0  0  0
 67 68  2  0  0  0  0
 68 66  1  0  0  0  0
 68 65  1  0  0  0  0
M  END
>  <MODEL>
1

>  <REMARK>
 VINA RESULT:      -5.6      0.000      0.000
  Name = 
  27 active torsions:
  status: ('A' for Active; 'I' for Inactive)
    1  A    between atoms: C_5  and  C_20
    2  A    between atoms: C_5  and  N_47
    3  A    between atoms: C_6  and  N_7
    4  A    between atoms: C_6  and  C_23
    5  A    between atoms: O_10  and  O_52
    6  A    between atoms: O_10  and  C_60
    7  A    between atoms: C_11  and  C_56
    8  A    between atoms: C_16  and  C_24
    9  A    between atoms: C_16  and  O_44
   10  A    between atoms: C_18  and  C_29
   11  A    between atoms: C_20  and  C_35
   12  A    between atoms: C_22  and  N_37
   13  A    between atoms: C_22  and  C_40
   14  A    between atoms: C_23  and  C_40
   15  A    between atoms: C_24  and  N_36
   16  A    between atoms: C_24  and  C_54
   17  A    between atoms: C_31  and  C_56
   18  A    between atoms: C_32  and  C_33
   19  A    between atoms: C_34  and  N_37
   20  A    between atoms: C_34  and  C_57
   21  A    between atoms: O_42  and  C_56
   22  A    between atoms: O_42  and  C_62
   23  A    between atoms: O_44  and  P_65
   24  A    between atoms: N_46  and  C_60
   25  A    between atoms: C_50  and  C_67
   26  A    between atoms: O_52  and  C_63
   27  A    between atoms: C_57  and  C_63
                            x       y       z     vdW  Elec       q    Type
                         _______ _______ _______ _____ _____    ______ ____

>  <TORSDO>
F 27

$$$$
=
 OpenBabel11042418163D

 68 73  0  0  1  0  0  0  0  0999 V2000
  193.1540  173.0310  143.4620 C   0  0  0  0  0  1  0  0  0  0  0  0
  191.4480  174.7520  144.3650 C   0  0  1  0  0  3  0  0  0  0  0  0
  192.2650  173.4690  144.6270 C   0  0  2  0  0  3  0  0  0  0  0  0
  192.6870  174.7920  145.2550 C   0  0  1  0  0  0  0  0  0  0  0  0
  193.8790  175.3330  144.7330 O   0  0  0  0  0  0  0  0  0  0  0  0
  194.8270  175.0090  145.5890 O   0  0  0  0  0  0  0  0  0  0  0  0
  196.0200  175.3130  144.9320 C   0  0  0  0  0  2  0  0  0  0  0  0
  196.0670  173.6520  141.6780 C   0  0  0  0  0  0  0  0  0  0  0  0
  195.8340  174.6930  142.4580 C   0  0  0  0  0  0  0  0  0  0  0  0
  196.1960  174.4190  143.8000 N   0  0  0  0  0  0  0  0  0  0  0  0
  196.6760  173.0540  143.9090 C   0  0  0  0  0  3  0  0  0  0  0  0
  196.5760  172.4950  142.4840 C   0  0  0  0  0  3  0  0  0  0  0  0
  196.8690  174.1970  139.4070 C   0  0  2  0  0  3  0  0  0  0  0  0
  196.2520  174.9580  138.2300 C   0  0  0  0  0  2  0  0  0  0  0  0
  196.6780  172.6730  139.4710 C   0  0  1  0  0  3  0  0  0  0  0  0
  195.7290  173.5920  140.2190 C   0  0  1  0  0  3  0  0  0  0  0  0
  195.2700  172.8990  137.2840 C   0  0  0  0  0  2  0  0  0  0  0  0
  196.1190  174.1160  136.9680 C   0  0  1  0  0  3  0  0  0  0  0  0
  196.0360  171.9930  138.2400 C   0  0  2  0  0  3  0  0  0  0  0  0
  195.6330  169.9500  139.6860 N   0  0  0  0  0  1  0  0  0  0  0  0
  194.1180  170.5910  138.0460 O   0  0  0  0  0  0  0  0  0  0  0  0
  195.2040  170.8190  138.6410 C   0  0  0  0  0  0  0  0  0  0  0  0
  194.8130  174.0810  134.9670 O   0  0  0  0  0  1  0  0  0  0  0  0
  195.5850  174.9310  135.7680 C   0  0  2  0  0  0  0  0  0  0  0  0
  196.7370  175.4990  134.9180 C   0  0  2  0  0  3  0  0  0  0  0  0
  197.9220  174.8340  135.1750 F   0  0  0  0  0  0  0  0  0  0  0  0
  196.9420  176.9850  135.1680 C   0  0  0  0  0  1  0  0  0  0  0  0
  194.7700  176.0160  136.2270 O   0  0  0  0  0  0  0  0  0  0  0  0
  192.2700  176.3400  135.9550 C   0  0  0  0  0  1  0  0  0  0  0  0
  193.9060  177.2760  134.5160 O   0  0  0  0  0  0  0  0  0  0  0  0
  193.6840  176.5620  135.5260 C   0  0  0  0  0  0  0  0  0  0  0  0
  196.3780  176.9110  141.5110 C   0  0  0  0  0  1  0  0  0  0  0  0
  195.2670  176.0020  141.9980 C   0  0  0  0  0  2  0  0  0  0  0  0
  192.4790  174.8240  146.7630 C   0  0  0  0  0  2  0  0  0  0  0  0
  191.1340  175.4390  147.1080 C   0  0  0  0  0  2  0  0  0  0  0  0
  191.3030  176.8480  147.4170 N   0  0  0  0  0  2  0  0  0  0  0  0
  189.9890  177.4640  147.3390 C   0  0  0  0  0  2  0  0  0  0  0  0
  189.3980  177.2540  145.9540 C   0  0  0  0  0  2  0  0  0  0  0  0
  188.1090  176.4530  146.0260 C   0  0  2  0  0  3  0  0  0  0  0  0
  187.8230  175.8910  144.7790 O   0  0  0  0  0  1  0  0  0  0  0  0
  186.9730  177.3720  146.4400 C   0  0  0  0  0  2  0  0  0  0  0  0
  186.4850  178.1190  145.2890 N   0  0  0  0  0  0  0  0  0  0  0  0
  185.4890  177.6460  141.3780 C   0  0  0  0  0  1  0  0  0  0  0  0
  185.8150  178.5160  142.5780 C   0  0  1  0  0  3  0  0  0  0  0  0
  184.7120  178.4450  143.6060 C   0  0  0  0  0  0  0  0  0  0  0  0
  187.1570  178.0590  143.1800 C   0  0  0  0  0  2  0  0  0  0  0  0
  184.2150  178.0450  145.9030 O   0  0  0  0  0  0  0  0  0  0  0  0
  183.5080  178.6190  143.2780 O   0  0  0  0  0  0  0  0  0  0  0  0
  185.0840  178.2090  145.0040 C   0  0  0  0  0  0  0  0  0  0  0  0
  187.3650  178.6930  144.4210 O   0  0  0  0  0  0  0  0  0  0  0  0
  191.6830  175.4120  143.0040 C   0  0  0  0  0  2  0  0  0  0  0  0
  190.3700  175.9460  142.4520 C   0  0  0  0  0  2  0  0  0  0  0  0
  191.4370  173.9330  140.7260 O   0  0  0  0  0  0  0  0  0  0  0  0
  189.6110  174.8640  141.8440 N   0  0  0  0  0  2  0  0  0  0  0  0
  190.2330  173.8270  141.0820 C   0  0  0  0  0  0  0  0  0  0  0  0
  189.4700  172.5860  140.7270 C   0  0  2  0  0  3  0  0  0  0  0  0
  190.6660  170.6980  141.9320 C   0  0  0  0  0  0  0  0  0  0  0  0
  191.1240  170.9070  139.6470 C   0  0  0  0  0  3  0  0  0  0  0  0
  191.6810  169.6520  141.7080 C   0  0  0  0  0  2  0  0  0  0  0  0
  190.3160  171.3920  140.7540 N   0  0  0  0  0  0  0  0  0  0  0  0
  191.9380  169.7290  140.2000 C   0  0  0  0  0  3  0  0  0  0  0  0
  190.1670  170.9600  143.0580 O   0  0  0  0  0  0  0  0  0  0  0  0
  188.7280  172.7290  139.3980 C   0  0  0  0  0  2  0  0  0  0  0  0
  189.0360  173.9480  138.7810 O   0  0  0  0  0  0  0  0  0  0  0  0
  191.4410  173.6100  137.4430 O   0  0  0  0  0  1  0  0  0  0  0  0
  189.2590  171.8650  136.7940 C   0  0  0  0  0  1  0  0  0  0  0  0
  189.3040  174.5190  136.2440 O   0  0  0  0  0  0  0  0  0  0  0  0
  189.7550  173.5370  137.3010 P   0  0  1  0  0  0  0  0  0  0  0  0
  2 51  1  6  0  0  0
  2  3  1  0  0  0  0
  2  4  1  0  0  0  0
  3  1  1  6  0  0  0
  3  4  1  0  0  0  0
  4 34  1  1  0  0  0
  5  4  1  0  0  0  0
  5  6  1  0  0  0  0
  7  6  1  0  0  0  0
  8  9  2  0  0  0  0
  8 12  1  0  0  0  0
  9 10  1  0  0  0  0
 10 11  1  0  0  0  0
 10  7  1  0  0  0  0
 12 11  2  0  0  0  0
 13 14  1  6  0  0  0
 13 15  1  0  0  0  0
 13 16  1  0  0  0  0
 15 16  1  0  0  0  0
 16  8  1  0  0  0  0
 17 19  1  0  0  0  0
 18 17  1  0  0  0  0
 18 14  1  0  0  0  0
 19 22  1  0  0  0  0
 19 15  1  0  0  0  0
 21 22  2  0  0  0  0
 22 20  1  0  0  0  0
 23 24  1  0  0  0  0
 24 28  1  0  0  0  0
 24 18  1  0  0  0  0
 25 27  1  0  0  0  0
 25 26  1  0  0  0  0
 25 24  1  0  0  0  0
 30 31  2  0  0  0  0
 31 29  1  0  0  0  0
 31 28  1  0  0  0  0
 32 33  1  0  0  0  0
 33  9  1  0  0  0  0
 34 35  1  0  0  0  0
 35 36  1  0  0  0  0
 37 36  1  0  0  0  0
 38 39  1  0  0  0  0
 38 37  1  0  0  0  0
 39 41  1  0  0  0  0
 40 39  1  0  0  0  0
 42 41  1  0  0  0  0
 43 44  1  0  0  0  0
 44 46  1  0  0  0  0
 44 45  1  0  0  0  0
 45 49  1  0  0  0  0
 46 50  1  0  0  0  0
 48 45  2  0  0  0  0
 49 42  1  0  0  0  0
 49 47  2  0  0  0  0
 50 42  1  0  0  0  0
 52 51  1  0  0  0  0
 53 55  2  0  0  0  0
 54 52  1  0  0  0  0
 55 54  1  0  0  0  0
 56 60  1  0  0  0  0
 56 55  1  0  0  0  0
 57 62  2  0  0  0  0
 58 61  2  0  0  0  0
 58 60  1  0  0  0  0
 59 57  1  0  0  0  0
 60 57  1  0  0  0  0
 61 59  1  0  0  0  0
 63 56  1  0  0  0  0
 64 63  1  0  0  0  0
 66 68  1  0  0  0  0
 67 68  2  0  0  0  0
 68 65  1  0  0  0  0
 68 64  1  0  0  0  0
M  END
>  <MODEL>
2

>  <REMARK>
 VINA RESULT:      -5.2      3.182      9.402
  Name = 
  27 active torsions:
  status: ('A' for Active; 'I' for Inactive)
    1  A    between atoms: C_5  and  C_20
    2  A    between atoms: C_5  and  N_47
    3  A    between atoms: C_6  and  N_7
    4  A    between atoms: C_6  and  C_23
    5  A    between atoms: O_10  and  O_52
    6  A    between atoms: O_10  and  C_60
    7  A    between atoms: C_11  and  C_56
    8  A    between atoms: C_16  and  C_24
    9  A    between atoms: C_16  and  O_44
   10  A    between atoms: C_18  and  C_29
   11  A    between atoms: C_20  and  C_35
   12  A    between atoms: C_22  and  N_37
   13  A    between atoms: C_22  and  C_40
   14  A    between atoms: C_23  and  C_40
   15  A    between atoms: C_24  and  N_36
   16  A    between atoms: C_24  and  C_54
   17  A    between atoms: C_31  and  C_56
   18  A    between atoms: C_32  and  C_33
   19  A    between atoms: C_34  and  N_37
   20  A    between atoms: C_34  and  C_57
   21  A    between atoms: O_42  and  C_56
   22  A    between atoms: O_42  and  C_62
   23  A    between atoms: O_44  and  P_65
   24  A    between atoms: N_46  and  C_60
   25  A    between atoms: C_50  and  C_67
   26  A    between atoms: O_52  and  C_63
   27  A    between atoms: C_57  and  C_63
                            x       y       z     vdW  Elec       q    Type
                         _______ _______ _______ _____ _____    ______ ____

>  <TORSDO>
F 27

$$$$
=
 OpenBabel11042418163D

 68 73  0  0  1  0  0  0  0  0999 V2000
  189.9430  173.9860  146.0240 C   0  0  0  0  0  1  0  0  0  0  0  0
  188.7360  175.9300  144.8190 C   0  0  1  0  0  3  0  0  0  0  0  0
  188.8920  175.0930  146.1080 C   0  0  2  0  0  3  0  0  0  0  0  0
  189.4770  176.4990  146.0270 C   0  0  1  0  0  0  0  0  0  0  0  0
  190.8850  176.5450  145.9960 O   0  0  0  0  0  0  0  0  0  0  0  0
  191.2670  176.6990  147.2480 O   0  0  0  0  0  0  0  0  0  0  0  0
  192.6380  176.4400  147.2380 C   0  0  0  0  0  2  0  0  0  0  0  0
  194.0490  175.2870  144.0710 C   0  0  0  0  0  0  0  0  0  0  0  0
  193.6960  175.1030  145.3310 C   0  0  0  0  0  0  0  0  0  0  0  0
  193.0920  176.2670  145.8680 N   0  0  0  0  0  0  0  0  0  0  0  0
  193.0880  177.3220  144.8710 C   0  0  0  0  0  3  0  0  0  0  0  0
  193.7580  176.6940  143.6430 C   0  0  0  0  0  3  0  0  0  0  0  0
  195.5730  174.9880  142.1500 C   0  0  2  0  0  3  0  0  0  0  0  0
  195.5100  174.1270  140.8850 C   0  0  0  0  0  2  0  0  0  0  0  0
  196.2800  174.4140  143.3890 C   0  0  1  0  0  3  0  0  0  0  0  0
  194.7760  174.2740  143.2370 C   0  0  1  0  0  3  0  0  0  0  0  0
  196.6840  172.2520  141.9820 C   0  0  0  0  0  2  0  0  0  0  0  0
  196.6710  173.1500  140.7600 C   0  0  1  0  0  3  0  0  0  0  0  0
  197.0450  173.0840  143.2070 C   0  0  2  0  0  3  0  0  0  0  0  0
  197.2060  172.8460  145.7260 N   0  0  0  0  0  1  0  0  0  0  0  0
  196.7610  171.0190  144.3630 O   0  0  0  0  0  0  0  0  0  0  0  0
  196.9920  172.2540  144.4480 C   0  0  0  0  0  0  0  0  0  0  0  0
  197.3440  171.1660  139.6110 O   0  0  0  0  0  1  0  0  0  0  0  0
  196.6400  172.3620  139.4310 C   0  0  2  0  0  0  0  0  0  0  0  0
  197.3030  173.1580  138.2900 C   0  0  2  0  0  3  0  0  0  0  0  0
  196.3870  173.9760  137.6550 F   0  0  0  0  0  0  0  0  0  0  0  0
  197.9400  172.2390  137.2590 C   0  0  0  0  0  1  0  0  0  0  0  0
  195.2890  172.0640  139.0610 O   0  0  0  0  0  0  0  0  0  0  0  0
  195.6510  169.5650  138.8390 C   0  0  0  0  0  1  0  0  0  0  0  0
  193.6250  170.6770  138.3060 O   0  0  0  0  0  0  0  0  0  0  0  0
  194.8080  170.7920  138.7150 C   0  0  0  0  0  0  0  0  0  0  0  0
  193.3810  172.6520  145.3050 C   0  0  0  0  0  1  0  0  0  0  0  0
  193.8940  173.8350  146.1030 C   0  0  0  0  0  2  0  0  0  0  0  0
  188.7400  177.4970  146.9070 C   0  0  0  0  0  2  0  0  0  0  0  0
  187.5640  176.8350  147.6040 C   0  0  0  0  0  2  0  0  0  0  0  0
  186.4420  177.7560  147.6580 N   0  0  0  0  0  2  0  0  0  0  0  0
  185.5350  177.3890  146.5840 C   0  0  0  0  0  2  0  0  0  0  0  0
  184.8050  178.6210  146.0750 C   0  0  0  0  0  2  0  0  0  0  0  0
  185.7080  179.4660  145.1910 C   0  0  2  0  0  3  0  0  0  0  0  0
  184.9490  180.1260  144.2220 O   0  0  0  0  0  1  0  0  0  0  0  0
  186.7240  178.5640  144.5120 C   0  0  0  0  0  2  0  0  0  0  0  0
  186.1330  177.9340  143.3390 N   0  0  0  0  0  0  0  0  0  0  0  0
  183.5570  178.6780  140.2860 C   0  0  0  0  0  1  0  0  0  0  0  0
  184.3780  177.7290  141.1410 C   0  0  1  0  0  3  0  0  0  0  0  0
  185.8540  177.9230  140.8890 C   0  0  0  0  0  0  0  0  0  0  0  0
  184.0380  177.9690  142.6240 C   0  0  0  0  0  2  0  0  0  0  0  0
  187.9690  178.3110  141.9170 O   0  0  0  0  0  0  0  0  0  0  0  0
  186.3150  177.9340  139.7170 O   0  0  0  0  0  0  0  0  0  0  0  0
  186.7410  178.0550  142.0480 C   0  0  0  0  0  0  0  0  0  0  0  0
  184.9470  177.2700  143.4420 O   0  0  0  0  0  0  0  0  0  0  0  0
  189.6810  175.5540  143.6750 C   0  0  0  0  0  2  0  0  0  0  0  0
  188.8840  175.0180  142.4970 C   0  0  0  0  0  2  0  0  0  0  0  0
  188.4240  172.2350  142.0380 O   0  0  0  0  0  0  0  0  0  0  0  0
  189.7200  174.1450  141.6880 N   0  0  0  0  0  2  0  0  0  0  0  0
  189.3660  172.7880  141.4090 C   0  0  0  0  0  0  0  0  0  0  0  0
  190.0880  172.0200  140.3440 C   0  0  2  0  0  3  0  0  0  0  0  0
  191.4340  169.9870  141.0510 C   0  0  0  0  0  0  0  0  0  0  0  0
  192.4220  172.0650  141.4730 C   0  0  0  0  0  3  0  0  0  0  0  0
  192.6780  169.6180  141.7530 C   0  0  0  0  0  2  0  0  0  0  0  0
  191.3000  171.3770  140.8540 N   0  0  0  0  0  0  0  0  0  0  0  0
  193.3690  170.9660  141.9720 C   0  0  0  0  0  3  0  0  0  0  0  0
  190.5700  169.1530  140.6730 O   0  0  0  0  0  0  0  0  0  0  0  0
  190.3730  172.8760  139.1110 C   0  0  0  0  0  2  0  0  0  0  0  0
  190.4040  172.0910  137.9520 O   0  0  0  0  0  0  0  0  0  0  0  0
  189.3920  172.1960  135.3720 O   0  0  0  0  0  0  0  0  0  0  0  0
  188.5570  174.1960  137.2510 C   0  0  0  0  0  1  0  0  0  0  0  0
  191.0760  173.9800  136.2730 O   0  0  0  0  0  1  0  0  0  0  0  0
  189.9080  173.1170  136.6960 P   0  0  1  0  0  0  0  0  0  0  0  0
  2 51  1  6  0  0  0
  2  4  1  0  0  0  0
  2  3  1  0  0  0  0
  3  1  1  6  0  0  0
  4  3  1  0  0  0  0
  4 34  1  1  0  0  0
  5  4  1  0  0  0  0
  5  6  1  0  0  0  0
  7  6  1  0  0  0  0
  8  9  2  0  0  0  0
  9 10  1  0  0  0  0
  9 33  1  0  0  0  0
 10  7  1  0  0  0  0
 11 10  1  0  0  0  0
 12  8  1  0  0  0  0
 12 11  2  0  0  0  0
 13 14  1  6  0  0  0
 13 16  1  0  0  0  0
 13 15  1  0  0  0  0
 16 15  1  0  0  0  0
 16  8  1  0  0  0  0
 17 19  1  0  0  0  0
 18 14  1  0  0  0  0
 18 17  1  0  0  0  0
 19 15  1  0  0  0  0
 19 22  1  0  0  0  0
 21 22  2  0  0  0  0
 22 20  1  0  0  0  0
 24 23  1  0  0  0  0
 24 18  1  0  0  0  0
 25 24  1  0  0  0  0
 26 25  1  0  0  0  0
 27 25  1  0  0  0  0
 28 24  1  0  0  0  0
 30 31  2  0  0  0  0
 31 29  1  0  0  0  0
 31 28  1  0  0  0  0
 32 33  1  0  0  0  0
 34 35  1  0  0  0  0
 35 36  1  0  0  0  0
 37 36  1  0  0  0  0
 38 37  1  0  0  0  0
 39 38  1  0  0  0  0
 40 39  1  0  0  0  0
 41 39  1  0  0  0  0
 42 50  1  0  0  0  0
 42 41  1  0  0  0  0
 43 44  1  0  0  0  0
 44 46  1  0  0  0  0
 45 44  1  0  0  0  0
 45 49  1  0  0  0  0
 46 50  1  0  0  0  0
 47 49  2  0  0  0  0
 48 45  2  0  0  0  0
 49 42  1  0  0  0  0
 52 51  1  0  0  0  0
 54 52  1  0  0  0  0
 55 54  1  0  0  0  0
 55 53  2  0  0  0  0
 56 60  1  0  0  0  0
 56 55  1  0  0  0  0
 57 59  1  0  0  0  0
 58 61  2  0  0  0  0
 59 61  1  0  0  0  0
 60 57  1  0  0  0  0
 60 58  1  0  0  0  0
 62 57  2  0  0  0  0
 63 56  1  0  0  0  0
 64 63  1  0  0  0  0
 65 68  2  0  0  0  0
 67 68  1  0  0  0  0
 68 66  1  0  0  0  0
 68 64  1  0  0  0  0
M  END
>  <MODEL>
3

>  <REMARK>
 VINA RESULT:      -5.1      3.170      9.923
  Name = 
  27 active torsions:
  status: ('A' for Active; 'I' for Inactive)
    1  A    between atoms: C_5  and  C_20
    2  A    between atoms: C_5  and  N_47
    3  A    between atoms: C_6  and  N_7
    4  A    between atoms: C_6  and  C_23
    5  A    between atoms: O_10  and  O_52
    6  A    between atoms: O_10  and  C_60
    7  A    between atoms: C_11  and  C_56
    8  A    between atoms: C_16  and  C_24
    9  A    between atoms: C_16  and  O_44
   10  A    between atoms: C_18  and  C_29
   11  A    between atoms: C_20  and  C_35
   12  A    between atoms: C_22  and  N_37
   13  A    between atoms: C_22  and  C_40
   14  A    between atoms: C_23  and  C_40
   15  A    between atoms: C_24  and  N_36
   16  A    between atoms: C_24  and  C_54
   17  A    between atoms: C_31  and  C_56
   18  A    between atoms: C_32  and  C_33
   19  A    between atoms: C_34  and  N_37
   20  A    between atoms: C_34  and  C_57
   21  A    between atoms: O_42  and  C_56
   22  A    between atoms: O_42  and  C_62
   23  A    between atoms: O_44  and  P_65
   24  A    between atoms: N_46  and  C_60
   25  A    between atoms: C_50  and  C_67
   26  A    between atoms: O_52  and  C_63
   27  A    between atoms: C_57  and  C_63
                            x       y       z     vdW  Elec       q    Type
                         _______ _______ _______ _____ _____    ______ ____

>  <TORSDO>
F 27

$$$$
=
 OpenBabel11042418163D

 68 73  0  0  1  0  0  0  0  0999 V2000
  192.4620  174.6840  141.8630 C   0  0  0  0  0  1  0  0  0  0  0  0
  192.3010  176.0270  144.0670 C   0  0  1  0  0  3  0  0  0  0  0  0
  192.3940  174.6430  143.3890 C   0  0  2  0  0  3  0  0  0  0  0  0
  193.6150  175.2500  144.0730 C   0  0  1  0  0  0  0  0  0  0  0  0
  194.6400  175.6470  143.1920 O   0  0  0  0  0  0  0  0  0  0  0  0
  195.7590  175.1750  143.7050 O   0  0  0  0  0  0  0  0  0  0  0  0
  196.5290  174.8030  142.6030 C   0  0  0  0  0  2  0  0  0  0  0  0
  194.9150  172.4870  140.2850 C   0  0  0  0  0  0  0  0  0  0  0  0
  195.5040  173.6340  140.5730 C   0  0  0  0  0  0  0  0  0  0  0  0
  195.9070  173.6750  141.9300 N   0  0  0  0  0  0  0  0  0  0  0  0
  195.5060  172.4510  142.5990 C   0  0  0  0  0  3  0  0  0  0  0  0
  194.8030  171.6300  141.5100 C   0  0  0  0  0  3  0  0  0  0  0  0
  192.9530  172.8370  138.8260 C   0  0  2  0  0  3  0  0  0  0  0  0
  192.0190  171.8830  138.0760 C   0  0  0  0  0  2  0  0  0  0  0  0
  194.1800  173.3910  138.0830 C   0  0  1  0  0  3  0  0  0  0  0  0
  194.3100  172.1540  138.9530 C   0  0  1  0  0  3  0  0  0  0  0  0
  193.4200  171.9500  136.0430 C   0  0  0  0  0  2  0  0  0  0  0  0
  192.0060  172.1090  136.5700 C   0  0  1  0  0  3  0  0  0  0  0  0
  194.2780  173.0950  136.5700 C   0  0  2  0  0  3  0  0  0  0  0  0
  196.5400  174.0740  135.9740 N   0  0  0  0  0  1  0  0  0  0  0  0
  196.1570  171.7830  135.9150 O   0  0  0  0  0  0  0  0  0  0  0  0
  195.7000  172.9340  136.1390 C   0  0  0  0  0  0  0  0  0  0  0  0
  191.4110  171.0300  134.5230 O   0  0  0  0  0  1  0  0  0  0  0  0
  190.9860  171.2020  135.8450 C   0  0  2  0  0  0  0  0  0  0  0  0
  189.5810  171.8340  135.8340 C   0  0  2  0  0  3  0  0  0  0  0  0
  188.7050  171.0880  135.0670 F   0  0  0  0  0  0  0  0  0  0  0  0
  189.6090  173.2600  135.3030 C   0  0  0  0  0  1  0  0  0  0  0  0
  190.9120  169.9240  136.4880 O   0  0  0  0  0  0  0  0  0  0  0  0
  191.8070  168.1940  134.8650 C   0  0  0  0  0  1  0  0  0  0  0  0
  192.4930  168.3900  137.1260 O   0  0  0  0  0  0  0  0  0  0  0  0
  191.7510  168.8330  136.2140 C   0  0  0  0  0  0  0  0  0  0  0  0
  194.9490  175.9780  140.0240 C   0  0  0  0  0  1  0  0  0  0  0  0
  195.7310  174.7510  139.6010 C   0  0  0  0  0  2  0  0  0  0  0  0
  194.0020  174.5190  145.3500 C   0  0  0  0  0  2  0  0  0  0  0  0
  192.9310  174.6880  146.4130 C   0  0  0  0  0  2  0  0  0  0  0  0
  193.2750  175.7970  147.2860 N   0  0  0  0  0  2  0  0  0  0  0  0
  192.0300  176.4350  147.6790 C   0  0  0  0  0  2  0  0  0  0  0  0
  190.9710  175.3820  147.9600 C   0  0  0  0  0  2  0  0  0  0  0  0
  189.6640  175.7220  147.2640 C   0  0  2  0  0  3  0  0  0  0  0  0
  189.3510  174.7370  146.3240 O   0  0  0  0  0  1  0  0  0  0  0  0
  189.8060  177.0620  146.5640 C   0  0  0  0  0  2  0  0  0  0  0  0
  188.4970  177.6680  146.3640 N   0  0  0  0  0  0  0  0  0  0  0  0
  184.5300  176.8440  146.6740 C   0  0  0  0  0  1  0  0  0  0  0  0
  185.6820  177.7050  146.1900 C   0  0  1  0  0  3  0  0  0  0  0  0
  186.3580  178.3970  147.3490 C   0  0  0  0  0  0  0  0  0  0  0  0
  186.6820  176.8210  145.4210 C   0  0  0  0  0  2  0  0  0  0  0  0
  188.4470  178.8120  148.4190 O   0  0  0  0  0  0  0  0  0  0  0  0
  185.6860  179.0370  148.2010 O   0  0  0  0  0  0  0  0  0  0  0  0
  187.8200  178.3380  147.4330 C   0  0  0  0  0  0  0  0  0  0  0  0
  187.8620  177.5450  145.1640 O   0  0  0  0  0  0  0  0  0  0  0  0
  192.3340  177.2260  143.1140 C   0  0  0  0  0  2  0  0  0  0  0  0
  191.0360  178.0090  143.2200 C   0  0  0  0  0  2  0  0  0  0  0  0
  188.8300  178.7150  141.5450 O   0  0  0  0  0  0  0  0  0  0  0  0
  189.9080  177.1480  142.8980 N   0  0  0  0  0  2  0  0  0  0  0  0
  188.8980  177.5280  141.9620 C   0  0  0  0  0  0  0  0  0  0  0  0
  187.9270  176.5120  141.4400 C   0  0  2  0  0  3  0  0  0  0  0  0
  186.0270  177.5740  140.1350 C   0  0  0  0  0  0  0  0  0  0  0  0
  185.6970  177.3740  142.4420 C   0  0  0  0  0  3  0  0  0  0  0  0
  184.7200  178.2280  140.3330 C   0  0  0  0  0  2  0  0  0  0  0  0
  186.5720  177.0510  141.3260 N   0  0  0  0  0  0  0  0  0  0  0  0
  184.4580  178.0410  141.8300 C   0  0  0  0  0  3  0  0  0  0  0  0
  186.6080  177.4960  139.0210 O   0  0  0  0  0  0  0  0  0  0  0  0
  187.9590  175.2170  142.2510 C   0  0  0  0  0  2  0  0  0  0  0  0
  189.1490  174.5130  142.0260 O   0  0  0  0  0  0  0  0  0  0  0  0
  189.9840  172.0390  141.0900 O   0  0  0  0  0  1  0  0  0  0  0  0
  187.2360  172.3580  141.8500 C   0  0  0  0  0  1  0  0  0  0  0  0
  188.3770  173.5720  139.7120 O   0  0  0  0  0  0  0  0  0  0  0  0
  188.7030  173.1470  141.1260 P   0  0  1  0  0  0  0  0  0  0  0  0
  2 51  1  6  0  0  0
  2  4  1  0  0  0  0
  3  1  1  6  0  0  0
  3  2  1  0  0  0  0
  3  4  1  0  0  0  0
  4 34  1  1  0  0  0
  5  6  1  0  0  0  0
  5  4  1  0  0  0  0
  7  6  1  0  0  0  0
  8  9  2  0  0  0  0
  8 12  1  0  0  0  0
  9 10  1  0  0  0  0
 10 11  1  0  0  0  0
 10  7  1  0  0  0  0
 12 11  2  0  0  0  0
 13 14  1  6  0  0  0
 13 16  1  0  0  0  0
 15 13  1  0  0  0  0
 15 16  1  0  0  0  0
 16  8  1  0  0  0  0
 17 19  1  0  0  0  0
 17 18  1  0  0  0  0
 18 14  1  0  0  0  0
 19 15  1  0  0  0  0
 20 22  1  0  0  0  0
 21 22  2  0  0  0  0
 22 19  1  0  0  0  0
 23 24  1  0  0  0  0
 24 28  1  0  0  0  0
 24 18  1  0  0  0  0
 25 24  1  0  0  0  0
 26 25  1  0  0  0  0
 27 25  1  0  0  0  0
 29 31  1  0  0  0  0
 31 28  1  0  0  0  0
 31 30  2  0  0  0  0
 33 32  1  0  0  0  0
 33  9  1  0  0  0  0
 34 35  1  0  0  0  0
 35 36  1  0  0  0  0
 36 37  1  0  0  0  0
 37 38  1  0  0  0  0
 39 38  1  0  0  0  0
 40 39  1  0  0  0  0
 41 39  1  0  0  0  0
 42 41  1  0  0  0  0
 42 49  1  0  0  0  0
 44 43  1  0  0  0  0
 44 45  1  0  0  0  0
 45 49  1  0  0  0  0
 45 48  2  0  0  0  0
 46 44  1  0  0  0  0
 49 47  2  0  0  0  0
 50 46  1  0  0  0  0
 50 42  1  0  0  0  0
 51 52  1  0  0  0  0
 53 55  2  0  0  0  0
 54 52  1  0  0  0  0
 55 54  1  0  0  0  0
 56 55  1  0  0  0  0
 56 63  1  0  0  0  0
 57 59  1  0  0  0  0
 57 60  1  0  0  0  0
 59 61  1  0  0  0  0
 60 56  1  0  0  0  0
 60 58  1  0  0  0  0
 61 58  2  0  0  0  0
 62 57  2  0  0  0  0
 64 63  1  0  0  0  0
 65 68  1  0  0  0  0
 67 68  2  0  0  0  0
 68 66  1  0  0  0  0
 68 64  1  0  0  0  0
M  END
>  <MODEL>
4

>  <REMARK>
 VINA RESULT:      -5.1      2.965      8.872
  Name = 
  27 active torsions:
  status: ('A' for Active; 'I' for Inactive)
    1  A    between atoms: C_5  and  C_20
    2  A    between atoms: C_5  and  N_47
    3  A    between atoms: C_6  and  N_7
    4  A    between atoms: C_6  and  C_23
    5  A    between atoms: O_10  and  O_52
    6  A    between atoms: O_10  and  C_60
    7  A    between atoms: C_11  and  C_56
    8  A    between atoms: C_16  and  C_24
    9  A    between atoms: C_16  and  O_44
   10  A    between atoms: C_18  and  C_29
   11  A    between atoms: C_20  and  C_35
   12  A    between atoms: C_22  and  N_37
   13  A    between atoms: C_22  and  C_40
   14  A    between atoms: C_23  and  C_40
   15  A    between atoms: C_24  and  N_36
   16  A    between atoms: C_24  and  C_54
   17  A    between atoms: C_31  and  C_56
   18  A    between atoms: C_32  and  C_33
   19  A    between atoms: C_34  and  N_37
   20  A    between atoms: C_34  and  C_57
   21  A    between atoms: O_42  and  C_56
   22  A    between atoms: O_42  and  C_62
   23  A    between atoms: O_44  and  P_65
   24  A    between atoms: N_46  and  C_60
   25  A    between atoms: C_50  and  C_67
   26  A    between atoms: O_52  and  C_63
   27  A    between atoms: C_57  and  C_63
                            x       y       z     vdW  Elec       q    Type
                         _______ _______ _______ _____ _____    ______ ____

>  <TORSDO>
F 27

$$$$
=
 OpenBabel11042418163D

 68 73  0  0  1  0  0  0  0  0999 V2000
  191.5810  175.5410  147.8810 C   0  0  0  0  0  1  0  0  0  0  0  0
  192.3290  174.9070  145.4880 C   0  0  1  0  0  3  0  0  0  0  0  0
  191.7050  174.4450  146.8220 C   0  0  2  0  0  3  0  0  0  0  0  0
  190.8250  174.6750  145.5990 C   0  0  1  0  0  0  0  0  0  0  0  0
  189.9720  175.7920  145.6940 O   0  0  0  0  0  0  0  0  0  0  0  0
  188.9330  175.3940  146.4010 O   0  0  0  0  0  0  0  0  0  0  0  0
  188.1720  176.5470  146.5980 C   0  0  0  0  0  2  0  0  0  0  0  0
  186.3260  177.5600  143.6130 C   0  0  0  0  0  0  0  0  0  0  0  0
  186.3910  177.0810  144.8430 C   0  0  0  0  0  0  0  0  0  0  0  0
  187.7270  177.0640  145.3150 N   0  0  0  0  0  0  0  0  0  0  0  0
  188.6210  177.5420  144.2770 C   0  0  0  0  0  3  0  0  0  0  0  0
  187.6990  177.8640  143.0940 C   0  0  0  0  0  3  0  0  0  0  0  0
  184.3930  178.9890  143.0490 C   0  0  2  0  0  3  0  0  0  0  0  0
  182.8790  178.7560  143.0530 C   0  0  0  0  0  2  0  0  0  0  0  0
  185.1670  178.7320  141.7460 C   0  0  1  0  0  3  0  0  0  0  0  0
  185.0680  177.6450  142.8010 C   0  0  1  0  0  3  0  0  0  0  0  0
  182.8870  178.0070  140.6990 C   0  0  0  0  0  2  0  0  0  0  0  0
  182.2330  178.9540  141.6880 C   0  0  1  0  0  3  0  0  0  0  0  0
  184.3320  178.4400  140.4780 C   0  0  2  0  0  3  0  0  0  0  0  0
  184.3120  176.7280  138.6090 N   0  0  0  0  0  1  0  0  0  0  0  0
  186.2870  177.3500  139.6610 O   0  0  0  0  0  0  0  0  0  0  0  0
  185.0390  177.4870  139.5710 C   0  0  0  0  0  0  0  0  0  0  0  0
  180.3770  177.4490  141.6430 O   0  0  0  0  0  1  0  0  0  0  0  0
  180.6950  178.8090  141.7350 C   0  0  2  0  0  0  0  0  0  0  0  0
  180.0240  179.5530  140.5640 C   0  0  2  0  0  3  0  0  0  0  0  0
  179.3830  180.6980  141.0020 F   0  0  0  0  0  0  0  0  0  0  0  0
  179.0180  178.6720  139.8400 C   0  0  0  0  0  1  0  0  0  0  0  0
  180.1840  179.3310  142.9670 O   0  0  0  0  0  0  0  0  0  0  0  0
  178.2390  177.7120  143.1180 C   0  0  0  0  0  1  0  0  0  0  0  0
  178.6240  179.4890  144.6420 O   0  0  0  0  0  0  0  0  0  0  0  0
  179.0180  178.8890  143.6100 C   0  0  0  0  0  0  0  0  0  0  0  0
  184.6630  177.7650  146.4720 C   0  0  0  0  0  1  0  0  0  0  0  0
  185.2160  176.6190  145.6480 C   0  0  0  0  0  2  0  0  0  0  0  0
  190.2620  173.3820  145.0250 C   0  0  0  0  0  2  0  0  0  0  0  0
  190.7010  173.1960  143.5840 C   0  0  0  0  0  2  0  0  0  0  0  0
  190.1440  171.9630  143.0550 N   0  0  0  0  0  2  0  0  0  0  0  0
  189.8170  172.2050  141.6600 C   0  0  0  0  0  2  0  0  0  0  0  0
  190.8730  173.0940  141.0240 C   0  0  0  0  0  2  0  0  0  0  0  0
  190.5040  173.4400  139.5900 C   0  0  2  0  0  3  0  0  0  0  0  0
  189.1530  173.1660  139.3640 O   0  0  0  0  0  1  0  0  0  0  0  0
  191.3550  172.6120  138.6430 C   0  0  0  0  0  2  0  0  0  0  0  0
  191.2460  173.1290  137.2860 N   0  0  0  0  0  0  0  0  0  0  0  0
  188.8600  175.4370  134.9430 C   0  0  0  0  0  1  0  0  0  0  0  0
  189.9890  174.4390  135.1280 C   0  0  1  0  0  3  0  0  0  0  0  0
  191.1760  175.0910  135.7950 C   0  0  0  0  0  0  0  0  0  0  0  0
  189.4760  173.2500  135.9620 C   0  0  0  0  0  2  0  0  0  0  0  0
  192.7270  174.9300  137.5980 O   0  0  0  0  0  0  0  0  0  0  0  0
  191.6450  176.1780  135.3640 O   0  0  0  0  0  0  0  0  0  0  0  0
  191.7930  174.4040  136.9330 C   0  0  0  0  0  0  0  0  0  0  0  0
  190.5570  172.4300  136.3400 O   0  0  0  0  0  0  0  0  0  0  0  0
  192.6880  176.3940  145.4130 C   0  0  0  0  0  2  0  0  0  0  0  0
  194.1890  176.5580  145.2360 C   0  0  0  0  0  2  0  0  0  0  0  0
  195.9600  176.9270  143.0240 O   0  0  0  0  0  0  0  0  0  0  0  0
  194.7070  175.5000  144.3820 N   0  0  0  0  0  2  0  0  0  0  0  0
  195.6790  175.7460  143.3640 C   0  0  0  0  0  0  0  0  0  0  0  0
  196.4000  174.6050  142.7120 C   0  0  2  0  0  3  0  0  0  0  0  0
  195.3050  174.1040  140.4770 C   0  0  0  0  0  0  0  0  0  0  0  0
  197.4240  175.0910  140.3800 C   0  0  0  0  0  3  0  0  0  0  0  0
  195.5770  174.1470  139.0280 C   0  0  0  0  0  2  0  0  0  0  0  0
  196.3370  174.6750  141.2510 N   0  0  0  0  0  0  0  0  0  0  0  0
  196.9320  174.8560  138.9460 C   0  0  0  0  0  3  0  0  0  0  0  0
  194.2660  173.6000  140.9790 O   0  0  0  0  0  0  0  0  0  0  0  0
  195.9250  173.2510  143.2380 C   0  0  0  0  0  2  0  0  0  0  0  0
  196.9800  172.5430  143.8270 O   0  0  0  0  0  0  0  0  0  0  0  0
  196.9510  170.6810  145.8820 O   0  0  0  0  0  1  0  0  0  0  0  0
  197.2320  173.4550  146.5540 C   0  0  0  0  0  1  0  0  0  0  0  0
  194.9850  172.3620  145.5060 O   0  0  0  0  0  0  0  0  0  0  0  0
  196.4900  172.2450  145.4220 P   0  0  1  0  0  0  0  0  0  0  0  0
  2 51  1  1  0  0  0
  2  4  1  0  0  0  0
  2  3  1  0  0  0  0
  3  1  1  1  0  0  0
  4 34  1  6  0  0  0
  4  5  1  0  0  0  0
  4  3  1  0  0  0  0
  5  6  1  0  0  0  0
  6  7  1  0  0  0  0
  8  9  2  0  0  0  0
  9 10  1  0  0  0  0
  9 33  1  0  0  0  0
 10  7  1  0  0  0  0
 11 10  1  0  0  0  0
 12  8  1  0  0  0  0
 12 11  2  0  0  0  0
 13 14  1  6  0  0  0
 15 16  1  0  0  0  0
 15 13  1  0  0  0  0
 16 13  1  0  0  0  0
 16  8  1  0  0  0  0
 17 18  1  0  0  0  0
 18 24  1  0  0  0  0
 18 14  1  0  0  0  0
 19 17  1  0  0  0  0
 19 15  1  0  0  0  0
 20 22  1  0  0  0  0
 22 21  2  0  0  0  0
 22 19  1  0  0  0  0
 23 24  1  0  0  0  0
 24 28  1  0  0  0  0
 25 26  1  0  0  0  0
 25 24  1  0  0  0  0
 27 25  1  0  0  0  0
 28 31  1  0  0  0  0
 29 31  1  0  0  0  0
 31 30  2  0  0  0  0
 33 32  1  0  0  0  0
 35 34  1  0  0  0  0
 36 35  1  0  0  0  0
 37 36  1  0  0  0  0
 38 37  1  0  0  0  0
 39 38  1  0  0  0  0
 40 39  1  0  0  0  0
 41 39  1  0  0  0  0
 42 41  1  0  0  0  0
 43 44  1  0  0  0  0
 44 45  1  0  0  0  0
 44 46  1  0  0  0  0
 45 49  1  0  0  0  0
 46 50  1  0  0  0  0
 48 45  2  0  0  0  0
 49 42  1  0  0  0  0
 49 47  2  0  0  0  0
 50 42  1  0  0  0  0
 52 51  1  0  0  0  0
 53 55  2  0  0  0  0
 54 52  1  0  0  0  0
 55 54  1  0  0  0  0
 56 63  1  0  0  0  0
 56 55  1  0  0  0  0
 57 62  2  0  0  0  0
 57 60  1  0  0  0  0
 58 60  1  0  0  0  0
 59 57  1  0  0  0  0
 60 56  1  0  0  0  0
 61 59  1  0  0  0  0
 61 58  2  0  0  0  0
 63 64  1  0  0  0  0
 64 68  1  0  0  0  0
 68 67  2  0  0  0  0
 68 65  1  0  0  0  0
 68 66  1  0  0  0  0
M  END
>  <MODEL>
5

>  <REMARK>
 VINA RESULT:      -5.1      3.337      7.665
  Name = 
  27 active torsions:
  status: ('A' for Active; 'I' for Inactive)
    1  A    between atoms: C_5  and  C_20
    2  A    between atoms: C_5  and  N_47
    3  A    between atoms: C_6  and  N_7
    4  A    between atoms: C_6  and  C_23
    5  A    between atoms: O_10  and  O_52
    6  A    between atoms: O_10  and  C_60
    7  A    between atoms: C_11  and  C_56
    8  A    between atoms: C_16  and  C_24
    9  A    between atoms: C_16  and  O_44
   10  A    between atoms: C_18  and  C_29
   11  A    between atoms: C_20  and  C_35
   12  A    between atoms: C_22  and  N_37
   13  A    between atoms: C_22  and  C_40
   14  A    between atoms: C_23  and  C_40
   15  A    between atoms: C_24  and  N_36
   16  A    between atoms: C_24  and  C_54
   17  A    between atoms: C_31  and  C_56
   18  A    between atoms: C_32  and  C_33
   19  A    between atoms: C_34  and  N_37
   20  A    between atoms: C_34  and  C_57
   21  A    between atoms: O_42  and  C_56
   22  A    between atoms: O_42  and  C_62
   23  A    between atoms: O_44  and  P_65
   24  A    between atoms: N_46  and  C_60
   25  A    between atoms: C_50  and  C_67
   26  A    between atoms: O_52  and  C_63
   27  A    between atoms: C_57  and  C_63
                            x       y       z     vdW  Elec       q    Type
                         _______ _______ _______ _____ _____    ______ ____

>  <TORSDO>
F 27

$$$$
=
 OpenBabel11042418163D

 68 73  0  0  1  0  0  0  0  0999 V2000
  194.6350  175.2340  141.8880 C   0  0  0  0  0  1  0  0  0  0  0  0
  195.8610  173.3750  140.5730 C   0  0  1  0  0  3  0  0  0  0  0  0
  195.4430  173.9380  141.9490 C   0  0  2  0  0  3  0  0  0  0  0  0
  194.7160  172.7360  141.3560 C   0  0  1  0  0  0  0  0  0  0  0  0
  193.3920  172.9950  140.9520 O   0  0  0  0  0  0  0  0  0  0  0  0
  192.6390  172.7430  142.0040 O   0  0  0  0  0  0  0  0  0  0  0  0
  191.5230  172.0770  141.4930 C   0  0  0  0  0  2  0  0  0  0  0  0
  188.8760  174.5890  141.3340 C   0  0  0  0  0  0  0  0  0  0  0  0
  189.7590  173.8600  141.9930 C   0  0  0  0  0  0  0  0  0  0  0  0
  190.5100  173.0460  141.1090 N   0  0  0  0  0  0  0  0  0  0  0  0
  190.0430  173.2370  139.7490 C   0  0  0  0  0  3  0  0  0  0  0  0
  188.9110  174.2640  139.8710 C   0  0  0  0  0  3  0  0  0  0  0  0
  188.5900  176.4050  142.9830 C   0  0  2  0  0  3  0  0  0  0  0  0
  187.6580  176.5960  144.1840 C   0  0  0  0  0  2  0  0  0  0  0  0
  188.1430  176.9530  141.6180 C   0  0  1  0  0  3  0  0  0  0  0  0
  187.8780  175.5030  141.9820 C   0  0  1  0  0  3  0  0  0  0  0  0
  185.9430  177.7140  142.8030 C   0  0  0  0  0  2  0  0  0  0  0  0
  186.7690  177.8270  144.0700 C   0  0  1  0  0  3  0  0  0  0  0  0
  186.8680  177.8260  141.5950 C   0  0  2  0  0  3  0  0  0  0  0  0
  184.6840  177.7350  140.3100 N   0  0  0  0  0  1  0  0  0  0  0  0
  186.7250  177.3910  139.2560 O   0  0  0  0  0  0  0  0  0  0  0  0
  186.1060  177.6400  140.3240 C   0  0  0  0  0  0  0  0  0  0  0  0
  184.8180  177.1760  145.2870 O   0  0  0  0  0  1  0  0  0  0  0  0
  185.9080  178.0530  145.3330 C   0  0  2  0  0  0  0  0  0  0  0  0
  185.3770  179.4980  145.4000 C   0  0  2  0  0  3  0  0  0  0  0  0
  184.0590  179.5250  145.8210 F   0  0  0  0  0  0  0  0  0  0  0  0
  185.4770  180.1980  144.0530 C   0  0  0  0  0  1  0  0  0  0  0  0
  186.6770  177.7890  146.5130 O   0  0  0  0  0  0  0  0  0  0  0  0
  187.3280  179.1700  148.5370 C   0  0  0  0  0  1  0  0  0  0  0  0
  185.2870  177.9810  148.3270 O   0  0  0  0  0  0  0  0  0  0  0  0
  186.3840  178.2810  147.7940 C   0  0  0  0  0  0  0  0  0  0  0  0
  189.8110  172.4870  144.0470 C   0  0  0  0  0  1  0  0  0  0  0  0
  189.9580  173.8840  143.4770 C   0  0  0  0  0  2  0  0  0  0  0  0
  195.0040  171.4430  142.1050 C   0  0  0  0  0  2  0  0  0  0  0  0
  196.4460  171.4040  142.5790 C   0  0  0  0  0  2  0  0  0  0  0  0
  196.4870  171.1730  144.0130 N   0  0  0  0  0  2  0  0  0  0  0  0
  195.1140  171.1950  144.4890 C   0  0  0  0  0  2  0  0  0  0  0  0
  194.9850  172.1530  145.6620 C   0  0  0  0  0  2  0  0  0  0  0  0
  194.5730  173.5390  145.1940 C   0  0  2  0  0  3  0  0  0  0  0  0
  195.2730  174.5140  145.9080 O   0  0  0  0  0  1  0  0  0  0  0  0
  193.0820  173.7170  145.4190 C   0  0  0  0  0  2  0  0  0  0  0  0
  192.7700  175.1230  145.6370 N   0  0  0  0  0  0  0  0  0  0  0  0
  190.9230  178.2820  143.8700 C   0  0  0  0  0  1  0  0  0  0  0  0
  191.8360  177.6880  144.9270 C   0  0  1  0  0  3  0  0  0  0  0  0
  191.0460  176.8640  145.9150 C   0  0  0  0  0  0  0  0  0  0  0  0
  192.9140  176.8320  144.2360 C   0  0  0  0  0  2  0  0  0  0  0  0
  190.8830  174.7420  146.9890 O   0  0  0  0  0  0  0  0  0  0  0  0
  190.0140  177.3290  146.4670 O   0  0  0  0  0  0  0  0  0  0  0  0
  191.5370  175.5230  146.2450 C   0  0  0  0  0  0  0  0  0  0  0  0
  193.6250  176.0900  145.1990 O   0  0  0  0  0  0  0  0  0  0  0  0
  195.3680  174.1730  139.3620 C   0  0  0  0  0  2  0  0  0  0  0  0
  195.6960  173.4260  138.0800 C   0  0  0  0  0  2  0  0  0  0  0  0
  195.5600  172.1480  135.5270 O   0  0  0  0  0  0  0  0  0  0  0  0
  194.4870  173.2330  137.2940 N   0  0  0  0  0  2  0  0  0  0  0  0
  194.4770  172.4830  136.0770 C   0  0  0  0  0  0  0  0  0  0  0  0
  193.1790  172.0590  135.4590 C   0  0  2  0  0  3  0  0  0  0  0  0
  192.3530  174.4380  135.1330 C   0  0  0  0  0  0  0  0  0  0  0  0
  190.9190  173.0090  136.3050 C   0  0  0  0  0  3  0  0  0  0  0  0
  191.2420  175.3310  135.5100 C   0  0  0  0  0  2  0  0  0  0  0  0
  192.1580  173.1040  135.5500 N   0  0  0  0  0  0  0  0  0  0  0  0
  190.2610  174.3920  136.2170 C   0  0  0  0  0  3  0  0  0  0  0  0
  193.3800  174.8210  134.5130 O   0  0  0  0  0  0  0  0  0  0  0  0
  192.6820  170.7280  136.0220 C   0  0  0  0  0  2  0  0  0  0  0  0
  192.8750  170.6660  137.4080 O   0  0  0  0  0  0  0  0  0  0  0  0
  193.5260  168.7130  139.2670 O   0  0  0  0  0  1  0  0  0  0  0  0
  190.9590  168.5880  137.9920 C   0  0  0  0  0  1  0  0  0  0  0  0
  193.3160  168.1840  136.7160 O   0  0  0  0  0  0  0  0  0  0  0  0
  192.7110  169.0290  137.8150 P   0  0  1  0  0  0  0  0  0  0  0  0
  2 51  1  6  0  0  0
  2  4  1  0  0  0  0
  2  3  1  0  0  0  0
  3  1  1  6  0  0  0
  4  3  1  0  0  0  0
  4 34  1  1  0  0  0
  5  4  1  0  0  0  0
  5  6  1  0  0  0  0
  7  6  1  0  0  0  0
  8 16  1  0  0  0  0
  8  9  2  0  0  0  0
  9 33  1  0  0  0  0
 10  7  1  0  0  0  0
 10  9  1  0  0  0  0
 11 12  2  0  0  0  0
 11 10  1  0  0  0  0
 12  8  1  0  0  0  0
 13 14  1  1  0  0  0
 15 16  1  0  0  0  0
 15 13  1  0  0  0  0
 16 13  1  0  0  0  0
 17 18  1  0  0  0  0
 18 14  1  0  0  0  0
 18 24  1  0  0  0  0
 19 15  1  0  0  0  0
 19 17  1  0  0  0  0
 20 22  1  0  0  0  0
 21 22  2  0  0  0  0
 22 19  1  0  0  0  0
 23 24  1  0  0  0  0
 24 25  1  0  0  0  0
 24 28  1  0  0  0  0
 25 26  1  0  0  0  0
 27 25  1  0  0  0  0
 28 31  1  0  0  0  0
 31 30  2  0  0  0  0
 31 29  1  0  0  0  0
 33 32  1  0  0  0  0
 34 35  1  0  0  0  0
 35 36  1  0  0  0  0
 36 37  1  0  0  0  0
 37 38  1  0  0  0  0
 39 41  1  0  0  0  0
 39 38  1  0  0  0  0
 39 40  1  0  0  0  0
 41 42  1  0  0  0  0
 42 49  1  0  0  0  0
 43 44  1  0  0  0  0
 44 45  1  0  0  0  0
 45 49  1  0  0  0  0
 45 48  2  0  0  0  0
 46 44  1  0  0  0  0
 46 50  1  0  0  0  0
 49 47  2  0  0  0  0
 50 42  1  0  0  0  0
 52 51  1  0  0  0  0
 53 55  2  0  0  0  0
 54 52  1  0  0  0  0
 55 54  1  0  0  0  0
 56 60  1  0  0  0  0
 56 63  1  0  0  0  0
 56 55  1  0  0  0  0
 57 59  1  0  0  0  0
 57 60  1  0  0  0  0
 59 61  1  0  0  0  0
 60 58  1  0  0  0  0
 61 58  2  0  0  0  0
 62 57  2  0  0  0  0
 63 64  1  0  0  0  0
 64 68  1  0  0  0  0
 67 68  2  0  0  0  0
 68 66  1  0  0  0  0
 68 65  1  0  0  0  0
M  END
>  <MODEL>
6

>  <REMARK>
 VINA RESULT:      -5.0      1.589      2.389
  Name = 
  27 active torsions:
  status: ('A' for Active; 'I' for Inactive)
    1  A    between atoms: C_5  and  C_20
    2  A    between atoms: C_5  and  N_47
    3  A    between atoms: C_6  and  N_7
    4  A    between atoms: C_6  and  C_23
    5  A    between atoms: O_10  and  O_52
    6  A    between atoms: O_10  and  C_60
    7  A    between atoms: C_11  and  C_56
    8  A    between atoms: C_16  and  C_24
    9  A    between atoms: C_16  and  O_44
   10  A    between atoms: C_18  and  C_29
   11  A    between atoms: C_20  and  C_35
   12  A    between atoms: C_22  and  N_37
   13  A    between atoms: C_22  and  C_40
   14  A    between atoms: C_23  and  C_40
   15  A    between atoms: C_24  and  N_36
   16  A    between atoms: C_24  and  C_54
   17  A    between atoms: C_31  and  C_56
   18  A    between atoms: C_32  and  C_33
   19  A    between atoms: C_34  and  N_37
   20  A    between atoms: C_34  and  C_57
   21  A    between atoms: O_42  and  C_56
   22  A    between atoms: O_42  and  C_62
   23  A    between atoms: O_44  and  P_65
   24  A    between atoms: N_46  and  C_60
   25  A    between atoms: C_50  and  C_67
   26  A    between atoms: O_52  and  C_63
   27  A    between atoms: C_57  and  C_63
                            x       y       z     vdW  Elec       q    Type
                         _______ _______ _______ _____ _____    ______ ____

>  <TORSDO>
F 27

$$$$
=
 OpenBabel11042418163D

 68 73  0  0  1  0  0  0  0  0999 V2000
  191.2570  175.5950  147.5920 C   0  0  0  0  0  1  0  0  0  0  0  0
  191.8340  175.1740  145.1070 C   0  0  1  0  0  3  0  0  0  0  0  0
  191.3480  174.5850  146.4490 C   0  0  2  0  0  3  0  0  0  0  0  0
  190.3580  174.8490  145.3200 C   0  0  1  0  0  0  0  0  0  0  0  0
  189.4600  175.9060  145.5640 O   0  0  0  0  0  0  0  0  0  0  0  0
  188.8970  175.6400  146.7260 O   0  0  0  0  0  0  0  0  0  0  0  0
  187.8840  176.5900  146.8590 C   0  0  0  0  0  2  0  0  0  0  0  0
  186.1390  177.5510  143.7960 C   0  0  0  0  0  0  0  0  0  0  0  0
  186.1600  177.1300  145.0490 C   0  0  0  0  0  0  0  0  0  0  0  0
  187.4860  177.0660  145.5450 N   0  0  0  0  0  0  0  0  0  0  0  0
  188.4190  177.4460  144.5000 C   0  0  0  0  0  3  0  0  0  0  0  0
  187.5340  177.7570  143.2870 C   0  0  0  0  0  3  0  0  0  0  0  0
  184.2470  179.0190  143.1940 C   0  0  2  0  0  3  0  0  0  0  0  0
  182.7290  178.8170  143.1680 C   0  0  0  0  0  2  0  0  0  0  0  0
  185.0420  178.7460  141.9070 C   0  0  1  0  0  3  0  0  0  0  0  0
  184.9000  177.6610  142.9590 C   0  0  1  0  0  3  0  0  0  0  0  0
  182.7690  178.0680  140.8150 C   0  0  0  0  0  2  0  0  0  0  0  0
  182.1150  179.0280  141.7910 C   0  0  1  0  0  3  0  0  0  0  0  0
  184.2270  178.4710  140.6230 C   0  0  2  0  0  3  0  0  0  0  0  0
  184.2130  176.7780  138.7360 N   0  0  0  0  0  1  0  0  0  0  0  0
  186.1710  177.3250  139.8600 O   0  0  0  0  0  0  0  0  0  0  0  0
  184.9320  177.5040  139.7290 C   0  0  0  0  0  0  0  0  0  0  0  0
  180.2250  177.5890  141.5270 O   0  0  0  0  0  1  0  0  0  0  0  0
  180.5740  178.9150  141.8070 C   0  0  2  0  0  0  0  0  0  0  0  0
  179.9320  179.8280  140.7450 C   0  0  2  0  0  3  0  0  0  0  0  0
  179.2170  180.8550  141.3360 F   0  0  0  0  0  0  0  0  0  0  0  0
  179.0060  179.0530  139.8200 C   0  0  0  0  0  1  0  0  0  0  0  0
  180.0620  179.2760  143.0960 O   0  0  0  0  0  0  0  0  0  0  0  0
  178.5140  179.0460  145.0900 C   0  0  0  0  0  1  0  0  0  0  0  0
  178.1320  178.0420  142.9760 O   0  0  0  0  0  0  0  0  0  0  0  0
  178.8940  178.7570  143.6740 C   0  0  0  0  0  0  0  0  0  0  0  0
  184.6340  177.8740  146.8450 C   0  0  0  0  0  1  0  0  0  0  0  0
  184.9500  176.7700  145.8550 C   0  0  0  0  0  2  0  0  0  0  0  0
  189.8160  173.5690  144.6980 C   0  0  0  0  0  2  0  0  0  0  0  0
  189.1070  173.8650  143.3880 C   0  0  0  0  0  2  0  0  0  0  0  0
  190.0800  174.2390  142.3760 N   0  0  0  0  0  2  0  0  0  0  0  0
  190.7550  173.0220  141.9610 C   0  0  0  0  0  2  0  0  0  0  0  0
  189.8140  172.1600  141.1340 C   0  0  0  0  0  2  0  0  0  0  0  0
  190.4280  171.8210  139.7850 C   0  0  2  0  0  3  0  0  0  0  0  0
  191.4320  172.7390  139.4700 O   0  0  0  0  0  1  0  0  0  0  0  0
  189.3460  171.8670  138.7200 C   0  0  0  0  0  2  0  0  0  0  0  0
  189.7830  171.1560  137.5270 N   0  0  0  0  0  0  0  0  0  0  0  0
  193.0870  170.4710  135.2630 C   0  0  0  0  0  1  0  0  0  0  0  0
  191.5860  170.4320  135.4820 C   0  0  1  0  0  3  0  0  0  0  0  0
  191.2260  169.4170  136.5400 C   0  0  0  0  0  0  0  0  0  0  0  0
  191.0990  171.8370  135.8820 C   0  0  0  0  0  2  0  0  0  0  0  0
  190.0370  169.0650  138.5760 O   0  0  0  0  0  0  0  0  0  0  0  0
  191.6730  168.2400  136.4870 O   0  0  0  0  0  0  0  0  0  0  0  0
  190.3100  169.8260  137.6090 C   0  0  0  0  0  0  0  0  0  0  0  0
  189.7600  171.7750  136.3130 O   0  0  0  0  0  0  0  0  0  0  0  0
  192.1090  176.6800  145.1140 C   0  0  0  0  0  2  0  0  0  0  0  0
  193.5860  176.9400  144.8650 C   0  0  0  0  0  2  0  0  0  0  0  0
  196.2180  176.9180  143.7520 O   0  0  0  0  0  0  0  0  0  0  0  0
  194.1400  175.8900  144.0230 N   0  0  0  0  0  2  0  0  0  0  0  0
  195.5040  175.8920  143.5960 C   0  0  0  0  0  0  0  0  0  0  0  0
  196.1090  174.6640  142.9870 C   0  0  2  0  0  3  0  0  0  0  0  0
  195.4260  174.8730  140.5510 C   0  0  0  0  0  0  0  0  0  0  0  0
  197.7250  174.7460  140.9610 C   0  0  0  0  0  3  0  0  0  0  0  0
  195.9980  174.8690  139.1910 C   0  0  0  0  0  2  0  0  0  0  0  0
  196.4060  174.8420  141.5650 N   0  0  0  0  0  0  0  0  0  0  0  0
  197.5080  174.8580  139.4460 C   0  0  0  0  0  3  0  0  0  0  0  0
  194.1900  174.8900  140.7890 O   0  0  0  0  0  0  0  0  0  0  0  0
  195.2580  173.4190  143.2380 C   0  0  0  0  0  2  0  0  0  0  0  0
  196.0590  172.3280  143.5970 O   0  0  0  0  0  0  0  0  0  0  0  0
  194.3350  172.5960  145.7530 O   0  0  0  0  0  0  0  0  0  0  0  0
  196.2930  170.5010  145.8200 C   0  0  0  0  0  1  0  0  0  0  0  0
  196.8840  173.1440  145.9400 O   0  0  0  0  0  1  0  0  0  0  0  0
  195.9110  172.1920  145.2810 P   0  0  1  0  0  0  0  0  0  0  0  0
  2 51  1  1  0  0  0
  2  4  1  0  0  0  0
  2  3  1  0  0  0  0
  3  1  1  1  0  0  0
  4 34  1  6  0  0  0
  4  5  1  0  0  0  0
  4  3  1  0  0  0  0
  5  6  1  0  0  0  0
  6  7  1  0  0  0  0
  8  9  2  0  0  0  0
  9 10  1  0  0  0  0
  9 33  1  0  0  0  0
 10  7  1  0  0  0  0
 11 10  1  0  0  0  0
 12  8  1  0  0  0  0
 12 11  2  0  0  0  0
 13 14  1  6  0  0  0
 15 16  1  0  0  0  0
 15 13  1  0  0  0  0
 16 13  1  0  0  0  0
 16  8  1  0  0  0  0
 17 18  1  0  0  0  0
 18 24  1  0  0  0  0
 18 14  1  0  0  0  0
 19 17  1  0  0  0  0
 19 15  1  0  0  0  0
 20 22  1  0  0  0  0
 22 21  2  0  0  0  0
 22 19  1  0  0  0  0
 23 24  1  0  0  0  0
 24 28  1  0  0  0  0
 25 26  1  0  0  0  0
 25 24  1  0  0  0  0
 27 25  1  0  0  0  0
 28 31  1  0  0  0  0
 30 31  2  0  0  0  0
 31 29  1  0  0  0  0
 33 32  1  0  0  0  0
 35 34  1  0  0  0  0
 36 35  1  0  0  0  0
 37 36  1  0  0  0  0
 38 37  1  0  0  0  0
 39 38  1  0  0  0  0
 40 39  1  0  0  0  0
 41 39  1  0  0  0  0
 42 49  1  0  0  0  0
 42 41  1  0  0  0  0
 43 44  1  0  0  0  0
 44 46  1  0  0  0  0
 44 45  1  0  0  0  0
 45 49  1  0  0  0  0
 46 50  1  0  0  0  0
 48 45  2  0  0  0  0
 49 47  2  0  0  0  0
 50 42  1  0  0  0  0
 52 51  1  0  0  0  0
 54 52  1  0  0  0  0
 55 53  2  0  0  0  0
 55 54  1  0  0  0  0
 56 63  1  0  0  0  0
 56 55  1  0  0  0  0
 57 62  2  0  0  0  0
 57 60  1  0  0  0  0
 58 60  1  0  0  0  0
 59 61  1  0  0  0  0
 59 57  1  0  0  0  0
 60 56  1  0  0  0  0
 61 58  2  0  0  0  0
 63 64  1  0  0  0  0
 64 68  1  0  0  0  0
 68 65  2  0  0  0  0
 68 66  1  0  0  0  0
 68 67  1  0  0  0  0
M  END
>  <MODEL>
7

>  <REMARK>
 VINA RESULT:      -4.6      3.257      7.820
  Name = 
  27 active torsions:
  status: ('A' for Active; 'I' for Inactive)
    1  A    between atoms: C_5  and  C_20
    2  A    between atoms: C_5  and  N_47
    3  A    between atoms: C_6  and  N_7
    4  A    between atoms: C_6  and  C_23
    5  A    between atoms: O_10  and  O_52
    6  A    between atoms: O_10  and  C_60
    7  A    between atoms: C_11  and  C_56
    8  A    between atoms: C_16  and  C_24
    9  A    between atoms: C_16  and  O_44
   10  A    between atoms: C_18  and  C_29
   11  A    between atoms: C_20  and  C_35
   12  A    between atoms: C_22  and  N_37
   13  A    between atoms: C_22  and  C_40
   14  A    between atoms: C_23  and  C_40
   15  A    between atoms: C_24  and  N_36
   16  A    between atoms: C_24  and  C_54
   17  A    between atoms: C_31  and  C_56
   18  A    between atoms: C_32  and  C_33
   19  A    between atoms: C_34  and  N_37
   20  A    between atoms: C_34  and  C_57
   21  A    between atoms: O_42  and  C_56
   22  A    between atoms: O_42  and  C_62
   23  A    between atoms: O_44  and  P_65
   24  A    between atoms: N_46  and  C_60
   25  A    between atoms: C_50  and  C_67
   26  A    between atoms: O_52  and  C_63
   27  A    between atoms: C_57  and  C_63
                            x       y       z     vdW  Elec       q    Type
                         _______ _______ _______ _____ _____    ______ ____

>  <TORSDO>
F 27

$$$$
=
 OpenBabel11042418163D

 68 73  0  0  1  0  0  0  0  0999 V2000
  196.3980  172.0990  140.6460 C   0  0  0  0  0  1  0  0  0  0  0  0
  195.9980  174.4510  139.6480 C   0  0  1  0  0  3  0  0  0  0  0  0
  196.3780  172.9760  139.3940 C   0  0  2  0  0  3  0  0  0  0  0  0
  194.9900  173.4870  139.0270 C   0  0  1  0  0  0  0  0  0  0  0  0
  193.9500  172.9840  139.8330 O   0  0  0  0  0  0  0  0  0  0  0  0
  193.0070  173.9050  139.8220 O   0  0  0  0  0  0  0  0  0  0  0  0
  192.0840  173.4830  140.7790 C   0  0  0  0  0  2  0  0  0  0  0  0
  190.4140  176.0460  142.7760 C   0  0  0  0  0  0  0  0  0  0  0  0
  190.4130  174.9400  142.0540 C   0  0  0  0  0  0  0  0  0  0  0  0
  191.7230  174.6010  141.6360 N   0  0  0  0  0  0  0  0  0  0  0  0
  192.6620  175.6050  142.1000 C   0  0  0  0  0  3  0  0  0  0  0  0
  191.7980  176.6190  142.8590 C   0  0  0  0  0  3  0  0  0  0  0  0
  187.9550  176.1720  142.5840 C   0  0  2  0  0  3  0  0  0  0  0  0
  186.9750  177.3340  142.3950 C   0  0  0  0  0  2  0  0  0  0  0  0
  188.2790  175.7160  144.0160 C   0  0  1  0  0  3  0  0  0  0  0  0
  189.1820  176.7130  143.3110 C   0  0  1  0  0  3  0  0  0  0  0  0
  186.7010  177.6300  144.8310 C   0  0  0  0  0  2  0  0  0  0  0  0
  185.9570  177.4550  143.5210 C   0  0  1  0  0  3  0  0  0  0  0  0
  187.4440  176.3390  145.1570 C   0  0  2  0  0  3  0  0  0  0  0  0
  188.6550  175.3500  147.1530 N   0  0  0  0  0  1  0  0  0  0  0  0
  188.5860  177.6430  146.7930 O   0  0  0  0  0  0  0  0  0  0  0  0
  188.2560  176.4930  146.4020 C   0  0  0  0  0  0  0  0  0  0  0  0
  185.4230  179.4190  142.2670 O   0  0  0  0  0  1  0  0  0  0  0  0
  184.9200  178.5710  143.2620 C   0  0  2  0  0  0  0  0  0  0  0  0
  184.6600  179.4030  144.5330 C   0  0  2  0  0  3  0  0  0  0  0  0
  185.8470  179.8230  145.1050 F   0  0  0  0  0  0  0  0  0  0  0  0
  183.8670  178.6180  145.5670 C   0  0  0  0  0  1  0  0  0  0  0  0
  183.6810  178.0060  142.8180 O   0  0  0  0  0  0  0  0  0  0  0  0
  181.7160  178.3920  141.2640 C   0  0  0  0  0  1  0  0  0  0  0  0
  183.9400  178.0020  140.5390 O   0  0  0  0  0  0  0  0  0  0  0  0
  183.1620  178.1180  141.5190 C   0  0  0  0  0  0  0  0  0  0  0  0
  188.9590  174.1440  140.2200 C   0  0  0  0  0  1  0  0  0  0  0  0
  189.1950  174.1350  141.7170 C   0  0  0  0  0  2  0  0  0  0  0  0
  194.7670  173.5640  137.5230 C   0  0  0  0  0  2  0  0  0  0  0  0
  194.5120  172.1830  136.9450 C   0  0  0  0  0  2  0  0  0  0  0  0
  193.4700  172.2570  135.9360 N   0  0  0  0  0  2  0  0  0  0  0  0
  192.5150  171.2010  136.2290 C   0  0  0  0  0  2  0  0  0  0  0  0
  191.6930  171.5680  137.4540 C   0  0  0  0  0  2  0  0  0  0  0  0
  190.7590  170.4340  137.8440 C   0  0  2  0  0  3  0  0  0  0  0  0
  189.6090  170.4660  137.0520 O   0  0  0  0  0  1  0  0  0  0  0  0
  190.3720  170.5890  139.3050 C   0  0  0  0  0  2  0  0  0  0  0  0
  191.0910  169.6200  140.1210 N   0  0  0  0  0  0  0  0  0  0  0  0
  194.8140  168.7680  141.5090 C   0  0  0  0  0  1  0  0  0  0  0  0
  193.3670  168.3910  141.2440 C   0  0  1  0  0  3  0  0  0  0  0  0
  192.4380  169.1760  142.1380 C   0  0  0  0  0  0  0  0  0  0  0  0
  193.0450  168.6450  139.7590 C   0  0  0  0  0  2  0  0  0  0  0  0
  190.5100  170.5770  142.1910 O   0  0  0  0  0  0  0  0  0  0  0  0
  192.6330  169.2380  143.3810 O   0  0  0  0  0  0  0  0  0  0  0  0
  191.2770  169.8290  141.5260 C   0  0  0  0  0  0  0  0  0  0  0  0
  191.6590  168.5240  139.5440 O   0  0  0  0  0  0  0  0  0  0  0  0
  195.6580  174.7990  141.0990 C   0  0  0  0  0  2  0  0  0  0  0  0
  196.9340  175.0700  141.8810 C   0  0  0  0  0  2  0  0  0  0  0  0
  195.3400  175.9950  144.0650 O   0  0  0  0  0  0  0  0  0  0  0  0
  196.8530  174.4460  143.1930 N   0  0  0  0  0  2  0  0  0  0  0  0
  195.9470  174.9000  144.2010 C   0  0  0  0  0  0  0  0  0  0  0  0
  195.6840  174.0610  145.4160 C   0  0  2  0  0  3  0  0  0  0  0  0
  195.4920  171.7260  144.4390 C   0  0  0  0  0  0  0  0  0  0  0  0
  197.1520  172.0240  146.0600 C   0  0  0  0  0  3  0  0  0  0  0  0
  196.0430  170.3670  144.5900 C   0  0  0  0  0  2  0  0  0  0  0  0
  196.1440  172.6830  145.2450 N   0  0  0  0  0  0  0  0  0  0  0  0
  197.1800  170.5610  145.5980 C   0  0  0  0  0  3  0  0  0  0  0  0
  194.5290  172.0100  143.6780 O   0  0  0  0  0  0  0  0  0  0  0  0
  194.2200  174.1230  145.8500 C   0  0  0  0  0  2  0  0  0  0  0  0
  193.9440  175.3250  146.5130 O   0  0  0  0  0  0  0  0  0  0  0  0
  191.7540  176.9440  145.9830 O   0  0  0  0  0  0  0  0  0  0  0  0
  191.4960  174.1160  145.5750 C   0  0  0  0  0  1  0  0  0  0  0  0
  191.7950  175.2850  148.0020 O   0  0  0  0  0  1  0  0  0  0  0  0
  192.2530  175.4340  146.5680 P   0  0  1  0  0  0  0  0  0  0  0  0
  2 51  1  1  0  0  0
  3  2  1  0  0  0  0
  3  1  1  1  0  0  0
  4 34  1  6  0  0  0
  4  3  1  0  0  0  0
  4  2  1  0  0  0  0
  4  5  1  0  0  0  0
  6  5  1  0  0  0  0
  6  7  1  0  0  0  0
  7 10  1  0  0  0  0
  8 12  1  0  0  0  0
  8 16  1  0  0  0  0
  9  8  2  0  0  0  0
 10  9  1  0  0  0  0
 10 11  1  0  0  0  0
 11 12  2  0  0  0  0
 13 14  1  1  0  0  0
 13 16  1  0  0  0  0
 13 15  1  0  0  0  0
 14 18  1  0  0  0  0
 15 19  1  0  0  0  0
 16 15  1  0  0  0  0
 17 19  1  0  0  0  0
 18 17  1  0  0  0  0
 19 22  1  0  0  0  0
 22 21  2  0  0  0  0
 22 20  1  0  0  0  0
 23 24  1  0  0  0  0
 24 18  1  0  0  0  0
 24 25  1  0  0  0  0
 25 26  1  0  0  0  0
 25 27  1  0  0  0  0
 28 24  1  0  0  0  0
 29 31  1  0  0  0  0
 30 31  2  0  0  0  0
 31 28  1  0  0  0  0
 32 33  1  0  0  0  0
 33  9  1  0  0  0  0
 35 34  1  0  0  0  0
 36 37  1  0  0  0  0
 36 35  1  0  0  0  0
 37 38  1  0  0  0  0
 38 39  1  0  0  0  0
 39 41  1  0  0  0  0
 40 39  1  0  0  0  0
 41 42  1  0  0  0  0
 42 49  1  0  0  0  0
 44 43  1  0  0  0  0
 44 45  1  0  0  0  0
 45 48  2  0  0  0  0
 46 44  1  0  0  0  0
 49 45  1  0  0  0  0
 49 47  2  0  0  0  0
 50 46  1  0  0  0  0
 50 42  1  0  0  0  0
 51 52  1  0  0  0  0
 52 54  1  0  0  0  0
 53 55  2  0  0  0  0
 54 55  1  0  0  0  0
 55 56  1  0  0  0  0
 56 63  1  0  0  0  0
 57 59  1  0  0  0  0
 57 60  1  0  0  0  0
 59 61  1  0  0  0  0
 60 56  1  0  0  0  0
 60 58  1  0  0  0  0
 61 58  2  0  0  0  0
 62 57  2  0  0  0  0
 63 64  1  0  0  0  0
 64 68  1  0  0  0  0
 65 68  2  0  0  0  0
 66 68  1  0  0  0  0
 68 67  1  0  0  0  0
M  END
>  <MODEL>
8

>  <REMARK>
 VINA RESULT:      -4.5      2.602      7.131
  Name = 
  27 active torsions:
  status: ('A' for Active; 'I' for Inactive)
    1  A    between atoms: C_5  and  C_20
    2  A    between atoms: C_5  and  N_47
    3  A    between atoms: C_6  and  N_7
    4  A    between atoms: C_6  and  C_23
    5  A    between atoms: O_10  and  O_52
    6  A    between atoms: O_10  and  C_60
    7  A    between atoms: C_11  and  C_56
    8  A    between atoms: C_16  and  C_24
    9  A    between atoms: C_16  and  O_44
   10  A    between atoms: C_18  and  C_29
   11  A    between atoms: C_20  and  C_35
   12  A    between atoms: C_22  and  N_37
   13  A    between atoms: C_22  and  C_40
   14  A    between atoms: C_23  and  C_40
   15  A    between atoms: C_24  and  N_36
   16  A    between atoms: C_24  and  C_54
   17  A    between atoms: C_31  and  C_56
   18  A    between atoms: C_32  and  C_33
   19  A    between atoms: C_34  and  N_37
   20  A    between atoms: C_34  and  C_57
   21  A    between atoms: O_42  and  C_56
   22  A    between atoms: O_42  and  C_62
   23  A    between atoms: O_44  and  P_65
   24  A    between atoms: N_46  and  C_60
   25  A    between atoms: C_50  and  C_67
   26  A    between atoms: O_52  and  C_63
   27  A    between atoms: C_57  and  C_63
                            x       y       z     vdW  Elec       q    Type
                         _______ _______ _______ _____ _____    ______ ____

>  <TORSDO>
F 27

$$$$
=
 OpenBabel11042418163D

 68 73  0  0  1  0  0  0  0  0999 V2000
  192.3850  175.1210  142.6750 C   0  0  0  0  0  1  0  0  0  0  0  0
  192.3610  176.8710  144.5790 C   0  0  1  0  0  3  0  0  0  0  0  0
  192.3960  175.3800  144.1810 C   0  0  2  0  0  3  0  0  0  0  0  0
  193.6600  176.0750  144.6740 C   0  0  1  0  0  0  0  0  0  0  0  0
  194.6450  176.2660  143.6850 O   0  0  0  0  0  0  0  0  0  0  0  0
  195.8030  176.0910  144.2910 O   0  0  0  0  0  0  0  0  0  0  0  0
  196.6450  175.5680  143.3090 C   0  0  0  0  0  2  0  0  0  0  0  0
  194.9660  173.2040  141.0860 C   0  0  0  0  0  0  0  0  0  0  0  0
  195.5580  174.3590  141.3350 C   0  0  0  0  0  0  0  0  0  0  0  0
  196.0070  174.4250  142.6770 N   0  0  0  0  0  0  0  0  0  0  0  0
  195.6380  173.2100  143.3790 C   0  0  0  0  0  3  0  0  0  0  0  0
  194.9030  172.3670  142.3290 C   0  0  0  0  0  3  0  0  0  0  0  0
  193.2480  173.8780  139.4460 C   0  0  2  0  0  3  0  0  0  0  0  0
  192.0790  173.1400  138.7870 C   0  0  0  0  0  2  0  0  0  0  0  0
  194.6030  173.8920  138.7200 C   0  0  1  0  0  3  0  0  0  0  0  0
  194.3180  172.8460  139.7830 C   0  0  1  0  0  3  0  0  0  0  0  0
  193.4750  172.4200  136.8820 C   0  0  0  0  0  2  0  0  0  0  0  0
  192.1710  173.0930  137.2680 C   0  0  1  0  0  3  0  0  0  0  0  0
  194.6370  173.3210  137.2850 C   0  0  2  0  0  3  0  0  0  0  0  0
  196.0070  171.2660  136.7080 N   0  0  0  0  0  1  0  0  0  0  0  0
  197.0050  173.3420  137.0080 O   0  0  0  0  0  0  0  0  0  0  0  0
  195.9460  172.6610  136.9940 C   0  0  0  0  0  0  0  0  0  0  0  0
  189.9160  172.3670  137.5790 O   0  0  0  0  0  1  0  0  0  0  0  0
  190.9350  172.4300  136.6210 C   0  0  2  0  0  0  0  0  0  0  0  0
  191.2500  170.9990  136.1430 C   0  0  2  0  0  3  0  0  0  0  0  0
  190.7570  170.7800  134.8690 F   0  0  0  0  0  0  0  0  0  0  0  0
  190.6740  169.9510  137.0820 C   0  0  0  0  0  1  0  0  0  0  0  0
  190.4840  173.2020  135.5020 O   0  0  0  0  0  0  0  0  0  0  0  0
  191.2360  175.5550  134.9280 C   0  0  0  0  0  1  0  0  0  0  0  0
  189.1960  175.0290  136.0190 O   0  0  0  0  0  0  0  0  0  0  0  0
  190.2600  174.5870  135.5150 C   0  0  0  0  0  0  0  0  0  0  0  0
  194.9300  176.6750  140.7430 C   0  0  0  0  0  1  0  0  0  0  0  0
  195.7430  175.4620  140.3380 C   0  0  0  0  0  2  0  0  0  0  0  0
  194.1000  175.5950  146.0500 C   0  0  0  0  0  2  0  0  0  0  0  0
  192.8980  175.2470  146.9090 C   0  0  0  0  0  2  0  0  0  0  0  0
  192.5380  176.3860  147.7360 N   0  0  0  0  0  2  0  0  0  0  0  0
  191.1190  176.2740  148.0250 C   0  0  0  0  0  2  0  0  0  0  0  0
  190.3920  175.6620  146.8370 C   0  0  0  0  0  2  0  0  0  0  0  0
  189.0060  175.1810  147.2340 C   0  0  2  0  0  3  0  0  0  0  0  0
  188.9380  173.7890  147.1410 O   0  0  0  0  0  1  0  0  0  0  0  0
  187.9790  175.8020  146.3040 C   0  0  0  0  0  2  0  0  0  0  0  0
  187.0510  176.6310  147.0610 N   0  0  0  0  0  0  0  0  0  0  0  0
  186.0490  180.5170  147.6980 C   0  0  0  0  0  1  0  0  0  0  0  0
  185.9900  179.0450  148.0620 C   0  0  1  0  0  3  0  0  0  0  0  0
  185.2080  178.2690  147.0310 C   0  0  0  0  0  0  0  0  0  0  0  0
  187.4260  178.5000  148.1860 C   0  0  0  0  0  2  0  0  0  0  0  0
  185.2440  176.3810  145.5760 O   0  0  0  0  0  0  0  0  0  0  0  0
  184.0670  178.6530  146.6590 O   0  0  0  0  0  0  0  0  0  0  0  0
  185.7940  177.0330  146.5040 C   0  0  0  0  0  0  0  0  0  0  0  0
  187.3970  177.0960  148.2950 O   0  0  0  0  0  0  0  0  0  0  0  0
  192.3650  177.8600  143.4100 C   0  0  0  0  0  2  0  0  0  0  0  0
  191.1400  178.7580  143.4860 C   0  0  0  0  0  2  0  0  0  0  0  0
  189.0060  176.8700  143.6970 O   0  0  0  0  0  0  0  0  0  0  0  0
  190.2060  178.4150  142.4250 N   0  0  0  0  0  2  0  0  0  0  0  0
  189.0930  177.5450  142.6370 C   0  0  0  0  0  0  0  0  0  0  0  0
  187.9990  177.4510  141.6160 C   0  0  2  0  0  3  0  0  0  0  0  0
  185.5320  177.9980  141.3730 C   0  0  0  0  0  0  0  0  0  0  0  0
  186.5270  178.6320  143.3930 C   0  0  0  0  0  3  0  0  0  0  0  0
  184.4340  178.6910  142.0710 C   0  0  0  0  0  2  0  0  0  0  0  0
  186.7170  177.9270  142.1360 N   0  0  0  0  0  0  0  0  0  0  0  0
  185.0510  179.0500  143.4260 C   0  0  0  0  0  3  0  0  0  0  0  0
  185.4340  177.5250  140.2100 O   0  0  0  0  0  0  0  0  0  0  0  0
  187.8870  176.0470  141.0230 C   0  0  0  0  0  2  0  0  0  0  0  0
  187.3320  175.1540  141.9480 O   0  0  0  0  0  0  0  0  0  0  0  0
  189.4540  173.7880  143.0990 O   0  0  0  0  0  1  0  0  0  0  0  0
  187.2690  172.2690  142.0260 C   0  0  0  0  0  1  0  0  0  0  0  0
  188.9960  173.7240  140.5260 O   0  0  0  0  0  0  0  0  0  0  0  0
  188.2930  173.7600  141.8650 P   0  0  1  0  0  0  0  0  0  0  0  0
  2 51  1  6  0  0  0
  2  4  1  0  0  0  0
  3  1  1  6  0  0  0
  3  2  1  0  0  0  0
  3  4  1  0  0  0  0
  4 34  1  1  0  0  0
  5  6  1  0  0  0  0
  5  4  1  0  0  0  0
  7  6  1  0  0  0  0
  8  9  2  0  0  0  0
  8 12  1  0  0  0  0
  9 10  1  0  0  0  0
 10  7  1  0  0  0  0
 10 11  1  0  0  0  0
 12 11  2  0  0  0  0
 13 14  1  6  0  0  0
 13 16  1  0  0  0  0
 15 13  1  0  0  0  0
 15 16  1  0  0  0  0
 16  8  1  0  0  0  0
 17 18  1  0  0  0  0
 17 19  1  0  0  0  0
 18 14  1  0  0  0  0
 19 15  1  0  0  0  0
 20 22  1  0  0  0  0
 22 21  2  0  0  0  0
 22 19  1  0  0  0  0
 24 18  1  0  0  0  0
 24 23  1  0  0  0  0
 25 24  1  0  0  0  0
 25 27  1  0  0  0  0
 26 25  1  0  0  0  0
 28 31  1  0  0  0  0
 28 24  1  0  0  0  0
 29 31  1  0  0  0  0
 31 30  2  0  0  0  0
 33 32  1  0  0  0  0
 33  9  1  0  0  0  0
 34 35  1  0  0  0  0
 35 36  1  0  0  0  0
 36 37  1  0  0  0  0
 38 39  1  0  0  0  0
 38 37  1  0  0  0  0
 40 39  1  0  0  0  0
 41 42  1  0  0  0  0
 41 39  1  0  0  0  0
 42 50  1  0  0  0  0
 43 44  1  0  0  0  0
 44 46  1  0  0  0  0
 45 44  1  0  0  0  0
 46 50  1  0  0  0  0
 47 49  2  0  0  0  0
 48 45  2  0  0  0  0
 49 45  1  0  0  0  0
 49 42  1  0  0  0  0
 51 52  1  0  0  0  0
 54 55  1  0  0  0  0
 54 52  1  0  0  0  0
 55 53  2  0  0  0  0
 56 60  1  0  0  0  0
 56 55  1  0  0  0  0
 57 59  1  0  0  0  0
 57 60  1  0  0  0  0
 58 61  2  0  0  0  0
 59 61  1  0  0  0  0
 60 58  1  0  0  0  0
 62 57  2  0  0  0  0
 63 56  1  0  0  0  0
 63 64  1  0  0  0  0
 67 68  2  0  0  0  0
 68 64  1  0  0  0  0
 68 66  1  0  0  0  0
 68 65  1  0  0  0  0
M  END
>  <MODEL>
9

>  <REMARK>
 VINA RESULT:      -4.2      3.205      9.011
  Name = 
  27 active torsions:
  status: ('A' for Active; 'I' for Inactive)
    1  A    between atoms: C_5  and  C_20
    2  A    between atoms: C_5  and  N_47
    3  A    between atoms: C_6  and  N_7
    4  A    between atoms: C_6  and  C_23
    5  A    between atoms: O_10  and  O_52
    6  A    between atoms: O_10  and  C_60
    7  A    between atoms: C_11  and  C_56
    8  A    between atoms: C_16  and  C_24
    9  A    between atoms: C_16  and  O_44
   10  A    between atoms: C_18  and  C_29
   11  A    between atoms: C_20  and  C_35
   12  A    between atoms: C_22  and  N_37
   13  A    between atoms: C_22  and  C_40
   14  A    between atoms: C_23  and  C_40
   15  A    between atoms: C_24  and  N_36
   16  A    between atoms: C_24  and  C_54
   17  A    between atoms: C_31  and  C_56
   18  A    between atoms: C_32  and  C_33
   19  A    between atoms: C_34  and  N_37
   20  A    between atoms: C_34  and  C_57
   21  A    between atoms: O_42  and  C_56
   22  A    between atoms: O_42  and  C_62
   23  A    between atoms: O_44  and  P_65
   24  A    between atoms: N_46  and  C_60
   25  A    between atoms: C_50  and  C_67
   26  A    between atoms: O_52  and  C_63
   27  A    between atoms: C_57  and  C_63
                            x       y       z     vdW  Elec       q    Type
                         _______ _______ _______ _____ _____    ______ ____

>  <TORSDO>
F 27

$$$$
