=
 OpenBabel11042418113D

 25 28  0  0  1  0  0  0  0  0999 V2000
  183.8460  178.4120  143.0630 N   0  0  0  0  0  2  0  0  0  0  0  0
  189.5800  177.2720  143.5240 C   0  0  2  0  0  3  0  0  0  0  0  0
  187.2960  177.7250  143.3240 C   0  0  0  0  0  0  0  0  0  0  0  0
  190.1420  175.9130  143.4330 N   0  0  0  0  0  0  0  0  0  0  0  0
  188.5180  176.2090  141.7860 C   0  0  0  0  0  0  0  0  0  0  0  0
  183.4190  178.2620  140.8140 O   0  0  0  0  0  0  0  0  0  0  0  0
  188.9440  177.5130  144.8650 C   0  0  0  0  0  0  0  0  0  0  0  0
  188.4620  177.3650  142.5840 N   0  0  0  0  0  0  0  0  0  0  0  0
  185.5420  177.9020  141.6000 N   0  0  0  0  0  2  0  0  0  0  0  0
  184.2280  178.1940  141.7760 C   0  0  0  0  0  0  0  0  0  0  0  0
  189.5390  177.4870  145.9740 O   0  0  0  0  0  0  0  0  0  0  0  0
  186.0030  177.9370  142.8580 C   0  0  0  0  0  0  0  0  0  0  0  0
  185.2190  178.3460  145.1200 C   0  0  0  0  0  0  0  0  0  0  0  0
  189.6000  175.3090  142.2080 C   0  0  0  0  0  2  0  0  0  0  0  0
  186.5290  178.1220  145.6040 C   0  0  0  0  0  3  0  0  0  0  0  0
  187.7140  175.9670  140.8490 O   0  0  0  0  0  0  0  0  0  0  0  0
  187.5410  177.8160  144.6740 C   0  0  0  0  0  0  0  0  0  0  0  0
  184.9970  178.2430  143.7330 C   0  0  0  0  0  0  0  0  0  0  0  0
  184.1150  178.6760  146.0620 C   0  0  0  0  0  1  0  0  0  0  0  0
  191.5780  176.0570  143.2350 C   0  0  0  0  0  2  0  0  0  0  0  0
  192.3580  175.4980  144.4240 C   0  0  2  0  0  3  0  0  0  0  0  0
  191.5120  174.7210  145.2200 O   0  0  0  0  0  1  0  0  0  0  0  0
  192.8590  176.3230  146.7330 C   0  0  0  0  0  1  0  0  0  0  0  0
  194.4200  176.7090  144.9290 N   0  0  0  0  0  1  0  0  0  0  0  0
  193.0050  176.6090  145.2500 C   0  0  1  0  0  3  0  0  0  0  0  0
  1 18  1  0  0  0  0
  2  7  1  1  0  0  0
  3 17  1  0  0  0  0
  4  2  1  0  0  0  0
  5 14  1  0  0  0  0
  5  8  1  0  0  0  0
  6 10  2  0  0  0  0
  7 11  2  0  0  0  0
  8  3  1  0  0  0  0
  8  2  1  0  0  0  0
  9 10  1  0  0  0  0
  9 12  1  0  0  0  0
 10  1  1  0  0  0  0
 12  3  2  0  0  0  0
 12 18  1  0  0  0  0
 13 15  1  0  0  0  0
 13 19  1  0  0  0  0
 14  4  1  0  0  0  0
 16  5  2  0  0  0  0
 17  7  1  0  0  0  0
 17 15  2  0  0  0  0
 18 13  2  0  0  0  0
 20  4  1  0  0  0  0
 20 21  1  0  0  0  0
 21 22  1  1  0  0  0
 21 25  1  0  0  0  0
 24 25  1  0  0  0  0
 25 23  1  1  0  0  0
M  END
>  <MODEL>
1

>  <REMARK>
 VINA RESULT:      -7.5      0.000      0.000
  Name = 
  3 active torsions:
  status: ('A' for Active; 'I' for Inactive)
    1  A    between atoms: N_4  and  C_24
    2  A    between atoms: C_10  and  C_11
    3  A    between atoms: C_11  and  C_24
                            x       y       z     vdW  Elec       q    Type
                         _______ _______ _______ _____ _____    ______ ____

>  <TORSDO>
F 3

$$$$
=
 OpenBabel11042418113D

 25 28  0  0  1  0  0  0  0  0999 V2000
  184.4880  178.2000  143.5020 N   0  0  0  0  0  2  0  0  0  0  0  0
  190.1200  177.4080  144.9330 C   0  0  2  0  0  3  0  0  0  0  0  0
  187.8790  177.7240  144.3470 C   0  0  0  0  0  0  0  0  0  0  0  0
  190.8120  176.1150  144.7970 N   0  0  0  0  0  0  0  0  0  0  0  0
  189.4990  176.5120  142.9110 C   0  0  0  0  0  0  0  0  0  0  0  0
  184.4990  178.3180  141.2110 O   0  0  0  0  0  0  0  0  0  0  0  0
  189.2270  177.4270  146.1440 C   0  0  0  0  0  0  0  0  0  0  0  0
  189.1900  177.5460  143.8110 N   0  0  0  0  0  0  0  0  0  0  0  0
  186.4650  178.0050  142.3470 N   0  0  0  0  0  2  0  0  0  0  0  0
  185.1200  178.1810  142.2970 C   0  0  0  0  0  0  0  0  0  0  0  0
  189.6080  177.2960  147.3360 O   0  0  0  0  0  0  0  0  0  0  0  0
  186.6800  177.9070  143.6670 C   0  0  0  0  0  0  0  0  0  0  0  0
  185.4580  177.9600  145.7640 C   0  0  0  0  0  0  0  0  0  0  0  0
  190.5630  175.6400  143.4280 C   0  0  0  0  0  2  0  0  0  0  0  0
  186.6720  177.7650  146.4650 C   0  0  0  0  0  3  0  0  0  0  0  0
  188.9070  176.3400  141.8140 O   0  0  0  0  0  0  0  0  0  0  0  0
  187.8620  177.6540  145.7210 C   0  0  0  0  0  0  0  0  0  0  0  0
  185.5060  178.0250  144.3580 C   0  0  0  0  0  0  0  0  0  0  0  0
  184.1740  178.0870  146.5050 C   0  0  0  0  0  1  0  0  0  0  0  0
  192.2400  176.3820  144.8990 C   0  0  0  0  0  2  0  0  0  0  0  0
  192.9190  175.3950  145.8470 C   0  0  2  0  0  3  0  0  0  0  0  0
  192.0690  175.1070  146.9190 O   0  0  0  0  0  1  0  0  0  0  0  0
  195.3920  175.0120  145.9180 C   0  0  0  0  0  1  0  0  0  0  0  0
  194.5030  177.2560  145.8190 N   0  0  0  0  0  1  0  0  0  0  0  0
  194.2610  175.9250  146.3520 C   0  0  1  0  0  3  0  0  0  0  0  0
  1 18  1  0  0  0  0
  2  7  1  1  0  0  0
  3 17  1  0  0  0  0
  4 20  1  0  0  0  0
  4  2  1  0  0  0  0
  5 14  1  0  0  0  0
  5  8  1  0  0  0  0
  6 10  2  0  0  0  0
  7 11  2  0  0  0  0
  8  3  1  0  0  0  0
  8  2  1  0  0  0  0
  9 12  1  0  0  0  0
 10  9  1  0  0  0  0
 10  1  1  0  0  0  0
 12  3  2  0  0  0  0
 12 18  1  0  0  0  0
 13 15  1  0  0  0  0
 13 19  1  0  0  0  0
 14  4  1  0  0  0  0
 16  5  2  0  0  0  0
 17  7  1  0  0  0  0
 17 15  2  0  0  0  0
 18 13  2  0  0  0  0
 20 21  1  0  0  0  0
 21 25  1  0  0  0  0
 21 22  1  1  0  0  0
 24 25  1  0  0  0  0
 25 23  1  6  0  0  0
M  END
>  <MODEL>
2

>  <REMARK>
 VINA RESULT:      -7.4      1.283      1.425
  Name = 
  3 active torsions:
  status: ('A' for Active; 'I' for Inactive)
    1  A    between atoms: N_4  and  C_24
    2  A    between atoms: C_10  and  C_11
    3  A    between atoms: C_11  and  C_24
                            x       y       z     vdW  Elec       q    Type
                         _______ _______ _______ _____ _____    ______ ____

>  <TORSDO>
F 3

$$$$
=
 OpenBabel11042418113D

 25 28  0  0  1  0  0  0  0  0999 V2000
  184.0780  178.3090  143.4240 N   0  0  0  0  0  2  0  0  0  0  0  0
  189.5830  176.5140  144.3560 C   0  0  2  0  0  3  0  0  0  0  0  0
  187.3910  177.2280  143.9680 C   0  0  0  0  0  0  0  0  0  0  0  0
  189.9980  175.1040  144.2590 N   0  0  0  0  0  0  0  0  0  0  0  0
  188.5810  175.6340  142.4850 C   0  0  0  0  0  0  0  0  0  0  0  0
  183.8530  178.2800  141.1410 O   0  0  0  0  0  0  0  0  0  0  0  0
  188.8520  176.7830  145.6430 C   0  0  0  0  0  0  0  0  0  0  0  0
  188.5760  176.7620  143.3230 N   0  0  0  0  0  0  0  0  0  0  0  0
  185.8400  177.6570  142.1010 N   0  0  0  0  0  2  0  0  0  0  0  0
  184.5550  178.0910  142.1690 C   0  0  0  0  0  0  0  0  0  0  0  0
  189.3320  176.6540  146.7990 O   0  0  0  0  0  0  0  0  0  0  0  0
  186.1800  177.6000  143.3960 C   0  0  0  0  0  0  0  0  0  0  0  0
  185.2340  178.0240  145.5920 C   0  0  0  0  0  0  0  0  0  0  0  0
  189.5120  174.6030  142.9660 C   0  0  0  0  0  2  0  0  0  0  0  0
  186.4590  177.6370  146.1840 C   0  0  0  0  0  3  0  0  0  0  0  0
  187.8480  175.5140  141.4700 O   0  0  0  0  0  0  0  0  0  0  0  0
  187.5150  177.2480  145.3380 C   0  0  0  0  0  0  0  0  0  0  0  0
  185.1350  177.9900  144.1880 C   0  0  0  0  0  0  0  0  0  0  0  0
  184.0880  178.4470  146.4430 C   0  0  0  0  0  1  0  0  0  0  0  0
  191.4530  175.0900  144.1990 C   0  0  0  0  0  2  0  0  0  0  0  0
  192.0080  176.4920  143.9490 C   0  0  2  0  0  3  0  0  0  0  0  0
  192.4710  176.5900  142.6340 O   0  0  0  0  0  1  0  0  0  0  0  0
  192.8680  176.1830  146.2800 C   0  0  0  0  0  1  0  0  0  0  0  0
  194.4030  176.3980  144.4270 N   0  0  0  0  0  1  0  0  0  0  0  0
  193.1180  176.8470  144.9380 C   0  0  1  0  0  3  0  0  0  0  0  0
  1 18  1  0  0  0  0
  2  7  1  1  0  0  0
  3 17  1  0  0  0  0
  4  2  1  0  0  0  0
  5 14  1  0  0  0  0
  5  8  1  0  0  0  0
  6 10  2  0  0  0  0
  7 11  2  0  0  0  0
  8  3  1  0  0  0  0
  8  2  1  0  0  0  0
  9 10  1  0  0  0  0
  9 12  1  0  0  0  0
 10  1  1  0  0  0  0
 12  3  2  0  0  0  0
 12 18  1  0  0  0  0
 13 15  1  0  0  0  0
 13 19  1  0  0  0  0
 14  4  1  0  0  0  0
 16  5  2  0  0  0  0
 17  7  1  0  0  0  0
 17 15  2  0  0  0  0
 18 13  2  0  0  0  0
 20  4  1  0  0  0  0
 21 22  1  6  0  0  0
 21 20  1  0  0  0  0
 21 25  1  0  0  0  0
 24 25  1  0  0  0  0
 25 23  1  1  0  0  0
M  END
>  <MODEL>
3

>  <REMARK>
 VINA RESULT:      -7.2      1.036      1.060
  Name = 
  3 active torsions:
  status: ('A' for Active; 'I' for Inactive)
    1  A    between atoms: N_4  and  C_24
    2  A    between atoms: C_10  and  C_11
    3  A    between atoms: C_11  and  C_24
                            x       y       z     vdW  Elec       q    Type
                         _______ _______ _______ _____ _____    ______ ____

>  <TORSDO>
F 3

$$$$
=
 OpenBabel11042418113D

 25 28  0  0  1  0  0  0  0  0999 V2000
  184.3880  178.4120  145.3560 N   0  0  0  0  0  2  0  0  0  0  0  0
  189.3210  175.5120  144.0730 C   0  0  2  0  0  3  0  0  0  0  0  0
  187.3580  176.6680  144.6000 C   0  0  0  0  0  0  0  0  0  0  0  0
  190.6470  176.1530  144.0410 N   0  0  0  0  0  0  0  0  0  0  0  0
  189.4570  176.8920  145.9050 C   0  0  0  0  0  0  0  0  0  0  0  0
  184.4510  178.6540  147.6360 O   0  0  0  0  0  0  0  0  0  0  0  0
  188.5240  175.8430  142.8400 C   0  0  0  0  0  0  0  0  0  0  0  0
  188.5500  176.1180  145.1600 N   0  0  0  0  0  0  0  0  0  0  0  0
  186.1610  177.5760  146.5540 N   0  0  0  0  0  2  0  0  0  0  0  0
  184.9740  178.2360  146.5710 C   0  0  0  0  0  0  0  0  0  0  0  0
  188.8430  175.5450  141.6600 O   0  0  0  0  0  0  0  0  0  0  0  0
  186.3210  177.3300  145.2460 C   0  0  0  0  0  0  0  0  0  0  0  0
  185.1890  177.6940  143.1290 C   0  0  0  0  0  0  0  0  0  0  0  0
  190.8000  176.8810  145.3090 C   0  0  0  0  0  2  0  0  0  0  0  0
  186.2450  177.0300  142.4610 C   0  0  0  0  0  3  0  0  0  0  0  0
  189.1390  177.5400  146.9350 O   0  0  0  0  0  0  0  0  0  0  0  0
  187.3110  176.5290  143.2320 C   0  0  0  0  0  0  0  0  0  0  0  0
  185.2660  177.8240  144.5290 C   0  0  0  0  0  0  0  0  0  0  0  0
  184.0370  178.2390  142.3590 C   0  0  0  0  0  1  0  0  0  0  0  0
  191.6370  175.0850  144.0440 C   0  0  0  0  0  2  0  0  0  0  0  0
  193.0540  175.6460  144.1490 C   0  0  2  0  0  3  0  0  0  0  0  0
  193.6270  175.7250  142.8760 O   0  0  0  0  0  1  0  0  0  0  0  0
  194.5730  175.6830  146.1390 C   0  0  0  0  0  1  0  0  0  0  0  0
  193.1230  173.7920  145.7400 N   0  0  0  0  0  1  0  0  0  0  0  0
  193.9290  174.8070  145.0810 C   0  0  1  0  0  3  0  0  0  0  0  0
  1 10  1  0  0  0  0
  2  7  1  6  0  0  0
  2  8  1  0  0  0  0
  3  8  1  0  0  0  0
  3 12  1  0  0  0  0
  4 20  1  0  0  0  0
  4  2  1  0  0  0  0
  4 14  1  0  0  0  0
  5 16  2  0  0  0  0
  7 17  1  0  0  0  0
  8  5  1  0  0  0  0
  9 10  1  0  0  0  0
 10  6  2  0  0  0  0
 11  7  2  0  0  0  0
 12  9  1  0  0  0  0
 13 18  1  0  0  0  0
 14  5  1  0  0  0  0
 15 13  2  0  0  0  0
 15 17  1  0  0  0  0
 17  3  2  0  0  0  0
 18 12  2  0  0  0  0
 18  1  1  0  0  0  0
 19 13  1  0  0  0  0
 20 21  1  0  0  0  0
 21 22  1  6  0  0  0
 21 25  1  0  0  0  0
 25 24  1  0  0  0  0
 25 23  1  1  0  0  0
M  END
>  <MODEL>
4

>  <REMARK>
 VINA RESULT:      -6.8      2.157      3.420
  Name = 
  3 active torsions:
  status: ('A' for Active; 'I' for Inactive)
    1  A    between atoms: N_4  and  C_24
    2  A    between atoms: C_10  and  C_11
    3  A    between atoms: C_11  and  C_24
                            x       y       z     vdW  Elec       q    Type
                         _______ _______ _______ _____ _____    ______ ____

>  <TORSDO>
F 3

$$$$
=
 OpenBabel11042418113D

 25 28  0  0  1  0  0  0  0  0999 V2000
  194.8760  175.2530  144.4210 N   0  0  0  0  0  2  0  0  0  0  0  0
  189.6120  177.4070  145.8520 C   0  0  2  0  0  3  0  0  0  0  0  0
  191.7130  176.5450  145.2970 C   0  0  0  0  0  0  0  0  0  0  0  0
  188.4530  176.5560  146.1710 N   0  0  0  0  0  0  0  0  0  0  0  0
  190.3630  175.7080  147.2040 C   0  0  0  0  0  0  0  0  0  0  0  0
  195.7740  174.5820  146.4220 O   0  0  0  0  0  0  0  0  0  0  0  0
  189.8600  177.4610  144.3690 C   0  0  0  0  0  0  0  0  0  0  0  0
  190.8120  176.7570  146.3830 N   0  0  0  0  0  0  0  0  0  0  0  0
  193.6830  175.5180  146.3670 N   0  0  0  0  0  2  0  0  0  0  0  0
  194.8250  175.0910  145.7710 C   0  0  0  0  0  0  0  0  0  0  0  0
  189.0600  177.9120  143.5090 O   0  0  0  0  0  0  0  0  0  0  0  0
  192.9790  175.9710  145.3190 C   0  0  0  0  0  0  0  0  0  0  0  0
  193.1710  176.2180  142.9110 C   0  0  0  0  0  0  0  0  0  0  0  0
  188.8990  175.5890  147.1840 C   0  0  0  0  0  2  0  0  0  0  0  0
  191.8790  176.7950  142.8780 C   0  0  0  0  0  3  0  0  0  0  0  0
  191.1320  174.9460  147.8460 O   0  0  0  0  0  0  0  0  0  0  0  0
  191.1830  176.9430  144.0920 C   0  0  0  0  0  0  0  0  0  0  0  0
  193.6860  175.8170  144.1590 C   0  0  0  0  0  0  0  0  0  0  0  0
  193.9490  176.0420  141.6550 C   0  0  0  0  0  1  0  0  0  0  0  0
  187.4600  177.4100  146.8090 C   0  0  0  0  0  2  0  0  0  0  0  0
  186.1210  177.3430  146.0750 C   0  0  2  0  0  3  0  0  0  0  0  0
  186.2930  176.7220  144.8340 O   0  0  0  0  0  1  0  0  0  0  0  0
  185.7420  179.2490  144.4970 C   0  0  0  0  0  1  0  0  0  0  0  0
  184.0670  178.6650  146.1370 N   0  0  0  0  0  1  0  0  0  0  0  0
  185.5000  178.7290  145.9020 C   0  0  1  0  0  3  0  0  0  0  0  0
  1 10  1  0  0  0  0
  2  7  1  6  0  0  0
  2  4  1  0  0  0  0
  2  8  1  0  0  0  0
  3 12  1  0  0  0  0
  3  8  1  0  0  0  0
  4 20  1  0  0  0  0
  4 14  1  0  0  0  0
  5 16  2  0  0  0  0
  8  5  1  0  0  0  0
 10  9  1  0  0  0  0
 10  6  2  0  0  0  0
 11  7  2  0  0  0  0
 12  9  1  0  0  0  0
 13 18  1  0  0  0  0
 14  5  1  0  0  0  0
 15 13  2  0  0  0  0
 15 17  1  0  0  0  0
 17  7  1  0  0  0  0
 17  3  2  0  0  0  0
 18  1  1  0  0  0  0
 18 12  2  0  0  0  0
 19 13  1  0  0  0  0
 21 22  1  6  0  0  0
 21 20  1  0  0  0  0
 25 23  1  6  0  0  0
 25 21  1  0  0  0  0
 25 24  1  0  0  0  0
M  END
>  <MODEL>
5

>  <REMARK>
 VINA RESULT:      -6.7      2.592      7.711
  Name = 
  3 active torsions:
  status: ('A' for Active; 'I' for Inactive)
    1  A    between atoms: N_4  and  C_24
    2  A    between atoms: C_10  and  C_11
    3  A    between atoms: C_11  and  C_24
                            x       y       z     vdW  Elec       q    Type
                         _______ _______ _______ _____ _____    ______ ____

>  <TORSDO>
F 3

$$$$
=
 OpenBabel11042418113D

 25 28  0  0  1  0  0  0  0  0999 V2000
  184.2200  178.4740  145.3670 N   0  0  0  0  0  2  0  0  0  0  0  0
  188.9980  175.5750  143.5930 C   0  0  2  0  0  3  0  0  0  0  0  0
  187.0990  176.7300  144.3160 C   0  0  0  0  0  0  0  0  0  0  0  0
  190.3220  176.2080  143.4620 N   0  0  0  0  0  0  0  0  0  0  0  0
  189.3040  176.9090  145.4380 C   0  0  0  0  0  0  0  0  0  0  0  0
  184.4830  178.6620  147.6380 O   0  0  0  0  0  0  0  0  0  0  0  0
  188.1000  175.9390  142.4430 C   0  0  0  0  0  0  0  0  0  0  0  0
  188.3300  176.1590  144.7570 N   0  0  0  0  0  0  0  0  0  0  0  0
  186.0830  177.5990  146.3870 N   0  0  0  0  0  2  0  0  0  0  0  0
  184.9080  178.2650  146.5220 C   0  0  0  0  0  0  0  0  0  0  0  0
  188.3130  175.6670  141.2330 O   0  0  0  0  0  0  0  0  0  0  0  0
  186.1270  177.3830  145.0650 C   0  0  0  0  0  0  0  0  0  0  0  0
  184.8180  177.8040  143.0630 C   0  0  0  0  0  0  0  0  0  0  0  0
  190.5900  176.9040  144.7280 C   0  0  0  0  0  2  0  0  0  0  0  0
  185.8070  177.1490  142.2910 C   0  0  0  0  0  3  0  0  0  0  0  0
  189.0830  177.5350  146.5070 O   0  0  0  0  0  0  0  0  0  0  0  0
  186.9320  176.6230  142.9550 C   0  0  0  0  0  0  0  0  0  0  0  0
  185.0180  177.9010  144.4540 C   0  0  0  0  0  0  0  0  0  0  0  0
  183.6090  178.3740  142.4090 C   0  0  0  0  0  1  0  0  0  0  0  0
  191.3000  175.1330  143.3540 C   0  0  0  0  0  2  0  0  0  0  0  0
  190.7270  173.8120  143.8660 C   0  0  2  0  0  3  0  0  0  0  0  0
  191.4090  173.4180  145.0210 O   0  0  0  0  0  1  0  0  0  0  0  0
  189.4940  171.9270  142.7730 C   0  0  0  0  0  1  0  0  0  0  0  0
  191.0100  173.3060  141.4920 N   0  0  0  0  0  1  0  0  0  0  0  0
  190.7900  172.7160  142.8020 C   0  0  1  0  0  3  0  0  0  0  0  0
  1 10  1  0  0  0  0
  2  7  1  6  0  0  0
  2  8  1  0  0  0  0
  3  8  1  0  0  0  0
  3 12  1  0  0  0  0
  4  2  1  0  0  0  0
  4 14  1  0  0  0  0
  5 16  2  0  0  0  0
  7 17  1  0  0  0  0
  8  5  1  0  0  0  0
  9 10  1  0  0  0  0
 10  6  2  0  0  0  0
 11  7  2  0  0  0  0
 12  9  1  0  0  0  0
 13 18  1  0  0  0  0
 14  5  1  0  0  0  0
 15 17  1  0  0  0  0
 15 13  2  0  0  0  0
 17  3  2  0  0  0  0
 18 12  2  0  0  0  0
 18  1  1  0  0  0  0
 19 13  1  0  0  0  0
 20  4  1  0  0  0  0
 20 21  1  0  0  0  0
 21 22  1  1  0  0  0
 24 25  1  0  0  0  0
 25 23  1  6  0  0  0
 25 21  1  0  0  0  0
M  END
>  <MODEL>
6

>  <REMARK>
 VINA RESULT:      -6.6      2.135      3.823
  Name = 
  3 active torsions:
  status: ('A' for Active; 'I' for Inactive)
    1  A    between atoms: N_4  and  C_24
    2  A    between atoms: C_10  and  C_11
    3  A    between atoms: C_11  and  C_24
                            x       y       z     vdW  Elec       q    Type
                         _______ _______ _______ _____ _____    ______ ____

>  <TORSDO>
F 3

$$$$
=
 OpenBabel11042418113D

 25 28  0  0  1  0  0  0  0  0999 V2000
  194.9630  175.6310  143.3000 N   0  0  0  0  0  2  0  0  0  0  0  0
  189.5060  175.6640  145.4480 C   0  0  2  0  0  3  0  0  0  0  0  0
  191.6750  175.6560  144.5780 C   0  0  0  0  0  0  0  0  0  0  0  0
  188.8060  176.8960  145.8520 N   0  0  0  0  0  0  0  0  0  0  0  0
  189.9210  177.2460  143.8340 C   0  0  0  0  0  0  0  0  0  0  0  0
  194.7210  176.3400  141.1320 O   0  0  0  0  0  0  0  0  0  0  0  0
  190.5160  175.2440  146.4810 C   0  0  0  0  0  0  0  0  0  0  0  0
  190.3180  175.9690  144.2690 N   0  0  0  0  0  0  0  0  0  0  0  0
  192.8800  176.1580  142.4860 N   0  0  0  0  0  2  0  0  0  0  0  0
  194.2130  176.0580  142.2490 C   0  0  0  0  0  0  0  0  0  0  0  0
  190.2580  174.9260  147.6700 O   0  0  0  0  0  0  0  0  0  0  0  0
  192.7990  175.7700  143.7670 C   0  0  0  0  0  0  0  0  0  0  0  0
  194.2260  175.0110  145.5790 C   0  0  0  0  0  0  0  0  0  0  0  0
  188.9170  177.8370  144.7290 C   0  0  0  0  0  2  0  0  0  0  0  0
  193.0900  174.9010  146.4140 C   0  0  0  0  0  3  0  0  0  0  0  0
  190.4000  177.8190  142.8220 O   0  0  0  0  0  0  0  0  0  0  0  0
  191.8310  175.2300  145.8760 C   0  0  0  0  0  0  0  0  0  0  0  0
  194.0360  175.4530  144.2550 C   0  0  0  0  0  0  0  0  0  0  0  0
  195.5780  174.6720  146.0990 C   0  0  0  0  0  1  0  0  0  0  0  0
  187.3950  176.5610  145.9870 C   0  0  0  0  0  2  0  0  0  0  0  0
  186.5360  177.8210  146.0850 C   0  0  2  0  0  3  0  0  0  0  0  0
  186.3870  178.1880  147.4250 O   0  0  0  0  0  1  0  0  0  0  0  0
  184.2540  178.7940  145.7460 C   0  0  0  0  0  1  0  0  0  0  0  0
  185.3240  177.5370  143.9810 N   0  0  0  0  0  1  0  0  0  0  0  0
  185.1710  177.6280  145.4240 C   0  0  1  0  0  3  0  0  0  0  0  0
  1 18  1  0  0  0  0
  2  4  1  0  0  0  0
  2  7  1  1  0  0  0
  3 17  1  0  0  0  0
  4 20  1  0  0  0  0
  5  8  1  0  0  0  0
  5 14  1  0  0  0  0
  6 10  2  0  0  0  0
  7 11  2  0  0  0  0
  8  3  1  0  0  0  0
  8  2  1  0  0  0  0
  9 12  1  0  0  0  0
 10  9  1  0  0  0  0
 10  1  1  0  0  0  0
 12 18  1  0  0  0  0
 12  3  2  0  0  0  0
 13 19  1  0  0  0  0
 13 15  1  0  0  0  0
 14  4  1  0  0  0  0
 16  5  2  0  0  0  0
 17 15  2  0  0  0  0
 17  7  1  0  0  0  0
 18 13  2  0  0  0  0
 20 21  1  0  0  0  0
 21 22  1  1  0  0  0
 24 25  1  0  0  0  0
 25 23  1  6  0  0  0
 25 21  1  0  0  0  0
M  END
>  <MODEL>
7

>  <REMARK>
 VINA RESULT:      -6.6      2.543      7.291
  Name = 
  3 active torsions:
  status: ('A' for Active; 'I' for Inactive)
    1  A    between atoms: N_4  and  C_24
    2  A    between atoms: C_10  and  C_11
    3  A    between atoms: C_11  and  C_24
                            x       y       z     vdW  Elec       q    Type
                         _______ _______ _______ _____ _____    ______ ____

>  <TORSDO>
F 3

$$$$
=
 OpenBabel11042418113D

 25 28  0  0  1  0  0  0  0  0999 V2000
  193.8710  173.7000  144.1290 N   0  0  0  0  0  2  0  0  0  0  0  0
  188.7120  175.9240  145.8140 C   0  0  2  0  0  3  0  0  0  0  0  0
  190.7610  175.0280  145.1320 C   0  0  0  0  0  0  0  0  0  0  0  0
  187.9640  176.9140  145.0200 N   0  0  0  0  0  0  0  0  0  0  0  0
  188.8070  175.2520  143.6190 C   0  0  0  0  0  0  0  0  0  0  0  0
  193.3240  172.1630  142.5160 O   0  0  0  0  0  0  0  0  0  0  0  0
  189.8660  176.5620  146.5390 C   0  0  0  0  0  0  0  0  0  0  0  0
  189.3550  174.9910  144.8860 N   0  0  0  0  0  0  0  0  0  0  0  0
  191.6720  173.3700  143.5510 N   0  0  0  0  0  2  0  0  0  0  0  0
  192.9730  173.0330  143.3550 C   0  0  0  0  0  0  0  0  0  0  0  0
  189.7730  177.4630  147.4120 O   0  0  0  0  0  0  0  0  0  0  0  0
  191.7710  174.3060  144.5050 C   0  0  0  0  0  0  0  0  0  0  0  0
  193.4540  175.4360  145.8400 C   0  0  0  0  0  0  0  0  0  0  0  0
  187.8660  176.3800  143.6540 C   0  0  0  0  0  2  0  0  0  0  0  0
  192.4340  176.1820  146.4770 C   0  0  0  0  0  3  0  0  0  0  0  0
  189.1170  174.6150  142.5790 O   0  0  0  0  0  0  0  0  0  0  0  0
  191.0990  175.9470  146.0970 C   0  0  0  0  0  0  0  0  0  0  0  0
  193.0780  174.5040  144.8540 C   0  0  0  0  0  0  0  0  0  0  0  0
  194.8810  175.6450  146.2100 C   0  0  0  0  0  1  0  0  0  0  0  0
  186.6100  176.9550  145.5570 C   0  0  0  0  0  2  0  0  0  0  0  0
  186.4360  178.1240  146.5260 C   0  0  2  0  0  3  0  0  0  0  0  0
  186.1550  177.6390  147.8060 O   0  0  0  0  0  1  0  0  0  0  0  0
  185.6030  179.5430  144.6390 C   0  0  0  0  0  1  0  0  0  0  0  0
  184.0460  178.4290  146.1140 N   0  0  0  0  0  1  0  0  0  0  0  0
  185.3420  179.0860  146.0620 C   0  0  1  0  0  3  0  0  0  0  0  0
  1 18  1  0  0  0  0
  2  7  1  6  0  0  0
  3 17  1  0  0  0  0
  4 20  1  0  0  0  0
  4  2  1  0  0  0  0
  5 14  1  0  0  0  0
  5  8  1  0  0  0  0
  6 10  2  0  0  0  0
  7 11  2  0  0  0  0
  8  3  1  0  0  0  0
  8  2  1  0  0  0  0
  9 12  1  0  0  0  0
 10  9  1  0  0  0  0
 10  1  1  0  0  0  0
 12 18  1  0  0  0  0
 12  3  2  0  0  0  0
 13 19  1  0  0  0  0
 13 15  1  0  0  0  0
 14  4  1  0  0  0  0
 16  5  2  0  0  0  0
 17 15  2  0  0  0  0
 17  7  1  0  0  0  0
 18 13  2  0  0  0  0
 20 21  1  0  0  0  0
 21 22  1  1  0  0  0
 25 23  1  6  0  0  0
 25 24  1  0  0  0  0
 25 21  1  0  0  0  0
M  END
>  <MODEL>
8

>  <REMARK>
 VINA RESULT:      -6.6      2.608      7.097
  Name = 
  3 active torsions:
  status: ('A' for Active; 'I' for Inactive)
    1  A    between atoms: N_4  and  C_24
    2  A    between atoms: C_10  and  C_11
    3  A    between atoms: C_11  and  C_24
                            x       y       z     vdW  Elec       q    Type
                         _______ _______ _______ _____ _____    ______ ____

>  <TORSDO>
F 3

$$$$
=
 OpenBabel11042418113D

 25 28  0  0  1  0  0  0  0  0999 V2000
  185.2130  178.6140  142.4690 N   0  0  0  0  0  2  0  0  0  0  0  0
  190.3490  176.0040  143.5630 C   0  0  2  0  0  3  0  0  0  0  0  0
  188.3030  177.0400  143.1110 C   0  0  0  0  0  0  0  0  0  0  0  0
  190.5070  174.5420  143.6560 N   0  0  0  0  0  0  0  0  0  0  0  0
  189.1380  175.0760  141.8460 C   0  0  0  0  0  0  0  0  0  0  0  0
  184.8990  178.3220  140.2150 O   0  0  0  0  0  0  0  0  0  0  0  0
  189.7260  176.5680  144.8110 C   0  0  0  0  0  0  0  0  0  0  0  0
  189.3620  176.2880  142.5200 N   0  0  0  0  0  0  0  0  0  0  0  0
  186.7810  177.4870  141.2240 N   0  0  0  0  0  2  0  0  0  0  0  0
  185.5960  178.1490  141.2490 C   0  0  0  0  0  0  0  0  0  0  0  0
  190.2200  176.5110  145.9670 O   0  0  0  0  0  0  0  0  0  0  0  0
  187.1550  177.5430  142.5100 C   0  0  0  0  0  0  0  0  0  0  0  0
  186.3820  178.4170  144.6390 C   0  0  0  0  0  0  0  0  0  0  0  0
  189.8910  173.9690  142.4510 C   0  0  0  0  0  2  0  0  0  0  0  0
  187.5420  177.9000  145.2620 C   0  0  0  0  0  3  0  0  0  0  0  0
  188.3570  174.9550  140.8670 O   0  0  0  0  0  0  0  0  0  0  0  0
  188.4810  177.2200  144.4630 C   0  0  0  0  0  0  0  0  0  0  0  0
  186.2250  178.2150  143.2550 C   0  0  0  0  0  0  0  0  0  0  0  0
  185.3610  179.1480  145.4390 C   0  0  0  0  0  1  0  0  0  0  0  0
  191.9340  174.2610  143.5780 C   0  0  0  0  0  2  0  0  0  0  0  0
  192.4210  173.5300  144.8280 C   0  0  2  0  0  3  0  0  0  0  0  0
  193.1550  174.4070  145.6320 O   0  0  0  0  0  1  0  0  0  0  0  0
  194.1940  171.9460  145.6140 C   0  0  0  0  0  1  0  0  0  0  0  0
  192.3820  171.1630  144.2200 N   0  0  0  0  0  1  0  0  0  0  0  0
  193.2550  172.2980  144.4750 C   0  0  1  0  0  3  0  0  0  0  0  0
  1 18  1  0  0  0  0
  2  4  1  0  0  0  0
  2  7  1  1  0  0  0
  3 17  1  0  0  0  0
  5 14  1  0  0  0  0
  5  8  1  0  0  0  0
  6 10  2  0  0  0  0
  7 11  2  0  0  0  0
  8  3  1  0  0  0  0
  8  2  1  0  0  0  0
  9 10  1  0  0  0  0
  9 12  1  0  0  0  0
 10  1  1  0  0  0  0
 12  3  2  0  0  0  0
 12 18  1  0  0  0  0
 13 15  1  0  0  0  0
 13 19  1  0  0  0  0
 14  4  1  0  0  0  0
 16  5  2  0  0  0  0
 17  7  1  0  0  0  0
 17 15  2  0  0  0  0
 18 13  2  0  0  0  0
 20  4  1  0  0  0  0
 20 21  1  0  0  0  0
 21 22  1  1  0  0  0
 24 25  1  0  0  0  0
 25 21  1  0  0  0  0
 25 23  1  1  0  0  0
M  END
>  <MODEL>
9

>  <REMARK>
 VINA RESULT:      -6.5      1.909      2.204
  Name = 
  3 active torsions:
  status: ('A' for Active; 'I' for Inactive)
    1  A    between atoms: N_4  and  C_24
    2  A    between atoms: C_10  and  C_11
    3  A    between atoms: C_11  and  C_24
                            x       y       z     vdW  Elec       q    Type
                         _______ _______ _______ _____ _____    ______ ____

>  <TORSDO>
F 3

$$$$
