=
 OpenBabel11042417263D

 29 31  0  0  1  0  0  0  0  0999 V2000
  189.7770  172.8560  144.7340 C   0  0  0  0  0  3  0  0  0  0  0  0
  190.1400  174.1640  142.7610 N   0  0  0  0  0  0  0  0  0  0  0  0
  190.8380  172.9360  142.6980 C   0  0  0  0  0  0  0  0  0  0  0  0
  190.6800  172.1390  143.8460 N   0  0  0  0  0  0  0  0  0  0  0  0
  191.5050  172.5640  141.6970 O   0  0  0  0  0  0  0  0  0  0  0  0
  189.4220  174.1900  144.0330 C   0  0  2  0  0  3  0  0  0  0  0  0
  188.6610  176.2620  145.2070 C   0  0  0  0  0  3  0  0  0  0  0  0
  188.0550  176.2810  146.4070 C   0  0  0  0  0  0  0  0  0  0  0  0
  189.8560  175.3940  144.8890 C   0  0  1  0  0  3  0  0  0  0  0  0
  190.5470  174.9420  146.1550 C   0  0  0  0  0  0  0  0  0  0  0  0
  191.7500  174.5750  146.1220 O   0  0  0  0  0  0  0  0  0  0  0  0
  188.6320  175.5090  147.5320 C   0  0  0  0  0  3  0  0  0  0  0  0
  189.8080  174.8920  147.4220 C   0  0  0  0  0  3  0  0  0  0  0  0
  186.8410  177.1040  146.6220 C   0  0  0  0  0  0  0  0  0  0  0  0
  186.8810  178.2310  147.4560 C   0  0  0  0  0  3  0  0  0  0  0  0
  184.5830  178.6770  147.0560 C   0  0  0  0  0  3  0  0  0  0  0  0
  184.4920  177.5670  146.2170 C   0  0  0  0  0  3  0  0  0  0  0  0
  185.7650  178.9840  147.6530 N   0  0  0  0  0  0  0  0  0  0  0  0
  185.6250  176.7820  146.0010 C   0  0  0  0  0  3  0  0  0  0  0  0
  189.6680  174.8760  141.5780 C   0  0  0  0  0  2  0  0  0  0  0  0
  187.4740  174.0370  141.6710 O   0  0  0  0  0  0  0  0  0  0  0  0
  188.1820  175.0300  141.6140 C   0  0  0  0  0  0  0  0  0  0  0  0
  187.5790  176.4030  141.5920 C   0  0  2  0  0  3  0  0  0  0  0  0
  188.6020  177.4980  141.8480 C   0  0  0  0  0  1  0  0  0  0  0  0
  186.3140  176.5490  142.4430 C   0  0  0  0  0  2  0  0  0  0  0  0
  185.9620  179.3420  143.0850 O   0  0  0  0  0  1  0  0  0  0  0  0
  185.3600  178.0780  142.1380 P   0  0  0  0  0  0  0  0  0  0  0  0
  183.9170  177.8320  142.5130 O   0  0  0  0  0  1  0  0  0  0  0  0
  185.4400  178.5110  140.5050 O   0  0  0  0  0  0  0  0  0  0  0  0
  2  6  1  0  0  0  0
  3  2  1  0  0  0  0
  3  4  1  0  0  0  0
  4  1  2  0  0  0  0
  5  3  2  0  0  0  0
  6  1  1  1  0  0  0
  6  9  1  0  0  0  0
  7  8  2  0  0  0  0
  8 14  1  0  0  0  0
  8 12  1  0  0  0  0
  9  7  1  1  0  0  0
  9 10  1  0  0  0  0
 10 13  1  0  0  0  0
 11 10  2  0  0  0  0
 13 12  2  0  0  0  0
 14 15  1  0  0  0  0
 15 18  2  0  0  0  0
 16 18  1  0  0  0  0
 17 16  2  0  0  0  0
 19 17  1  0  0  0  0
 19 14  2  0  0  0  0
 20 22  1  0  0  0  0
 20  2  1  0  0  0  0
 22 21  2  0  0  0  0
 23 22  1  0  0  0  0
 23 24  1  1  0  0  0
 23 25  1  0  0  0  0
 27 25  1  0  0  0  0
 27 28  1  0  0  0  0
 27 26  1  0  0  0  0
 29 27  2  0  0  0  0
M  END
>  <MODEL>
1

>  <REMARK>
 VINA RESULT:      -7.1      0.000      0.000
  Name = 
  7 active torsions:
  status: ('A' for Active; 'I' for Inactive)
    1  A    between atoms: C_2  and  C_10
    2  A    between atoms: C_3  and  C_8
    3  A    between atoms: C_3  and  C_24
    4  A    between atoms: P_7  and  C_8
    5  A    between atoms: N_9  and  C_18
    6  A    between atoms: C_18  and  C_24
    7  A    between atoms: C_19  and  C_29
                            x       y       z     vdW  Elec       q    Type
                         _______ _______ _______ _____ _____    ______ ____

>  <TORSDO>
F 7

$$$$
=
 OpenBabel11042417263D

 29 31  0  0  1  0  0  0  0  0999 V2000
  184.3320  178.8000  142.9030 C   0  0  0  0  0  3  0  0  0  0  0  0
  186.4900  177.7720  142.7360 N   0  0  0  0  0  0  0  0  0  0  0  0
  185.7860  177.6890  141.5130 C   0  0  0  0  0  0  0  0  0  0  0  0
  184.4990  178.2540  141.5640 N   0  0  0  0  0  0  0  0  0  0  0  0
  186.2720  177.1940  140.4620 O   0  0  0  0  0  0  0  0  0  0  0  0
  185.6320  178.4820  143.6820 C   0  0  2  0  0  3  0  0  0  0  0  0
  186.6050  176.9600  145.4110 C   0  0  0  0  0  3  0  0  0  0  0  0
  187.2780  177.3720  146.5000 C   0  0  0  0  0  0  0  0  0  0  0  0
  185.3340  177.6140  144.9180 C   0  0  1  0  0  3  0  0  0  0  0  0
  184.6870  178.4290  146.0130 C   0  0  0  0  0  0  0  0  0  0  0  0
  183.4600  178.7050  145.9550 O   0  0  0  0  0  0  0  0  0  0  0  0
  186.7130  178.4470  147.3480 C   0  0  0  0  0  3  0  0  0  0  0  0
  185.4920  178.9340  147.1330 C   0  0  0  0  0  3  0  0  0  0  0  0
  188.5570  176.7270  146.8790 C   0  0  0  0  0  0  0  0  0  0  0  0
  189.6650  177.5020  147.2520 C   0  0  0  0  0  3  0  0  0  0  0  0
  190.9820  175.5570  147.5940 C   0  0  0  0  0  3  0  0  0  0  0  0
  189.9110  174.7410  147.2300 C   0  0  0  0  0  3  0  0  0  0  0  0
  190.8390  176.9080  147.5970 N   0  0  0  0  0  0  0  0  0  0  0  0
  188.6980  175.3310  146.8730 C   0  0  0  0  0  3  0  0  0  0  0  0
  187.9460  177.8050  142.8190 C   0  0  0  0  0  2  0  0  0  0  0  0
  187.8030  175.4640  142.6590 O   0  0  0  0  0  0  0  0  0  0  0  0
  188.4960  176.4230  142.9590 C   0  0  0  0  0  0  0  0  0  0  0  0
  189.8980  176.2310  143.4560 C   0  0  2  0  0  3  0  0  0  0  0  0
  190.6050  177.5460  143.7410 C   0  0  0  0  0  1  0  0  0  0  0  0
  190.7390  175.2650  142.6160 C   0  0  0  0  0  2  0  0  0  0  0  0
  192.2890  173.9930  144.6930 O   0  0  0  0  0  1  0  0  0  0  0  0
  191.1750  173.7020  143.4560 P   0  0  0  0  0  0  0  0  0  0  0  0
  191.8000  172.7670  142.4460 O   0  0  0  0  0  0  0  0  0  0  0  0
  189.7930  172.9710  144.1030 O   0  0  0  0  0  1  0  0  0  0  0  0
  2 20  1  0  0  0  0
  2  6  1  0  0  0  0
  3  4  1  0  0  0  0
  3  2  1  0  0  0  0
  4  1  2  0  0  0  0
  5  3  2  0  0  0  0
  6  1  1  6  0  0  0
  6  9  1  0  0  0  0
  7  8  2  0  0  0  0
  8 14  1  0  0  0  0
  8 12  1  0  0  0  0
  9  7  1  1  0  0  0
  9 10  1  0  0  0  0
 10 13  1  0  0  0  0
 11 10  2  0  0  0  0
 13 12  2  0  0  0  0
 14 15  1  0  0  0  0
 15 18  2  0  0  0  0
 16 18  1  0  0  0  0
 17 16  2  0  0  0  0
 19 14  2  0  0  0  0
 19 17  1  0  0  0  0
 20 22  1  0  0  0  0
 21 22  2  0  0  0  0
 22 23  1  0  0  0  0
 23 24  1  6  0  0  0
 25 27  1  0  0  0  0
 25 23  1  0  0  0  0
 27 29  1  0  0  0  0
 27 26  1  0  0  0  0
 28 27  2  0  0  0  0
M  END
>  <MODEL>
2

>  <REMARK>
 VINA RESULT:      -7.1      2.797      5.864
  Name = 
  7 active torsions:
  status: ('A' for Active; 'I' for Inactive)
    1  A    between atoms: C_2  and  C_10
    2  A    between atoms: C_3  and  C_8
    3  A    between atoms: C_3  and  C_24
    4  A    between atoms: P_7  and  C_8
    5  A    between atoms: N_9  and  C_18
    6  A    between atoms: C_18  and  C_24
    7  A    between atoms: C_19  and  C_29
                            x       y       z     vdW  Elec       q    Type
                         _______ _______ _______ _____ _____    ______ ____

>  <TORSDO>
F 7

$$$$
=
 OpenBabel11042417263D

 29 31  0  0  1  0  0  0  0  0999 V2000
  188.7210  174.2300  140.3530 C   0  0  0  0  0  3  0  0  0  0  0  0
  188.6900  174.0960  142.7440 N   0  0  0  0  0  0  0  0  0  0  0  0
  188.9670  172.8370  142.1630 C   0  0  0  0  0  0  0  0  0  0  0  0
  188.9700  172.8540  140.7560 N   0  0  0  0  0  0  0  0  0  0  0  0
  189.2290  171.8020  142.8320 O   0  0  0  0  0  0  0  0  0  0  0  0
  188.5290  175.0510  141.6510 C   0  0  2  0  0  3  0  0  0  0  0  0
  186.7640  176.0540  143.1110 C   0  0  0  0  0  3  0  0  0  0  0  0
  186.7980  177.3050  143.6020 C   0  0  0  0  0  0  0  0  0  0  0  0
  187.1350  175.7040  141.6880 C   0  0  1  0  0  3  0  0  0  0  0  0
  187.0820  176.9270  140.8010 C   0  0  0  0  0  0  0  0  0  0  0  0
  186.9510  176.7990  139.5560 O   0  0  0  0  0  0  0  0  0  0  0  0
  187.1010  178.4390  142.6980 C   0  0  0  0  0  3  0  0  0  0  0  0
  187.2200  178.2680  141.3820 C   0  0  0  0  0  3  0  0  0  0  0  0
  186.4900  177.5590  145.0290 C   0  0  0  0  0  0  0  0  0  0  0  0
  186.0130  178.8110  145.4450 C   0  0  0  0  0  3  0  0  0  0  0  0
  185.9040  178.0820  147.7020 C   0  0  0  0  0  3  0  0  0  0  0  0
  186.3760  176.8200  147.3400 C   0  0  0  0  0  3  0  0  0  0  0  0
  185.7340  179.0430  146.7560 N   0  0  0  0  0  0  0  0  0  0  0  0
  186.6680  176.5620  146.0000 C   0  0  0  0  0  3  0  0  0  0  0  0
  189.1670  174.4870  144.0660 C   0  0  0  0  0  2  0  0  0  0  0  0
  191.4180  174.7590  143.4440 O   0  0  0  0  0  0  0  0  0  0  0  0
  190.4350  175.2700  143.9570 C   0  0  0  0  0  0  0  0  0  0  0  0
  190.4820  176.6790  144.4700 C   0  0  2  0  0  3  0  0  0  0  0  0
  190.6890  177.7000  143.3630 C   0  0  0  0  0  1  0  0  0  0  0  0
  191.4190  176.8850  145.6640 C   0  0  0  0  0  2  0  0  0  0  0  0
  189.8350  175.3100  147.4930 O   0  0  0  0  0  1  0  0  0  0  0  0
  190.6060  176.8010  147.2980 P   0  0  0  0  0  0  0  0  0  0  0  0
  189.5720  177.9000  147.3820 O   0  0  0  0  0  0  0  0  0  0  0  0
  191.7400  177.0150  148.5350 O   0  0  0  0  0  1  0  0  0  0  0  0
  1  4  2  0  0  0  0
  2 20  1  0  0  0  0
  3  2  1  0  0  0  0
  3  5  2  0  0  0  0
  4  3  1  0  0  0  0
  6  1  1  6  0  0  0
  6  9  1  0  0  0  0
  6  2  1  0  0  0  0
  7  8  2  0  0  0  0
  8 14  1  0  0  0  0
  9  7  1  1  0  0  0
 10 13  1  0  0  0  0
 10  9  1  0  0  0  0
 11 10  2  0  0  0  0
 12  8  1  0  0  0  0
 13 12  2  0  0  0  0
 14 15  2  0  0  0  0
 14 19  1  0  0  0  0
 15 18  1  0  0  0  0
 17 16  1  0  0  0  0
 18 16  2  0  0  0  0
 19 17  2  0  0  0  0
 21 22  2  0  0  0  0
 22 20  1  0  0  0  0
 22 23  1  0  0  0  0
 23 24  1  6  0  0  0
 23 25  1  0  0  0  0
 25 27  1  0  0  0  0
 27 28  2  0  0  0  0
 27 26  1  0  0  0  0
 27 29  1  0  0  0  0
M  END
>  <MODEL>
3

>  <REMARK>
 VINA RESULT:      -7.0      2.540      4.839
  Name = 
  7 active torsions:
  status: ('A' for Active; 'I' for Inactive)
    1  A    between atoms: C_2  and  C_10
    2  A    between atoms: C_3  and  C_8
    3  A    between atoms: C_3  and  C_24
    4  A    between atoms: P_7  and  C_8
    5  A    between atoms: N_9  and  C_18
    6  A    between atoms: C_18  and  C_24
    7  A    between atoms: C_19  and  C_29
                            x       y       z     vdW  Elec       q    Type
                         _______ _______ _______ _____ _____    ______ ____

>  <TORSDO>
F 7

$$$$
=
 OpenBabel11042417263D

 29 31  0  0  1  0  0  0  0  0999 V2000
  193.6590  175.4650  145.6670 C   0  0  0  0  0  3  0  0  0  0  0  0
  192.1530  175.9100  143.8580 N   0  0  0  0  0  0  0  0  0  0  0  0
  193.4940  176.1560  143.4820 C   0  0  0  0  0  0  0  0  0  0  0  0
  194.4190  175.9360  144.5190 N   0  0  0  0  0  0  0  0  0  0  0  0
  193.8400  176.5000  142.3210 O   0  0  0  0  0  0  0  0  0  0  0  0
  192.1690  175.4510  145.2450 C   0  0  2  0  0  3  0  0  0  0  0  0
  190.2960  177.1050  145.3190 C   0  0  0  0  0  3  0  0  0  0  0  0
  188.9910  176.7820  145.3150 C   0  0  0  0  0  0  0  0  0  0  0  0
  191.3330  176.3790  146.1440 C   0  0  1  0  0  3  0  0  0  0  0  0
  190.6830  175.6070  147.2690 C   0  0  0  0  0  0  0  0  0  0  0  0
  191.3540  175.2850  148.2840 O   0  0  0  0  0  0  0  0  0  0  0  0
  188.4900  175.7400  146.2400 C   0  0  0  0  0  3  0  0  0  0  0  0
  189.2770  175.1970  147.1690 C   0  0  0  0  0  3  0  0  0  0  0  0
  188.0450  177.4930  144.4220 C   0  0  0  0  0  0  0  0  0  0  0  0
  188.3130  177.6160  143.0510 C   0  0  0  0  0  3  0  0  0  0  0  0
  186.2990  178.8250  142.7080 C   0  0  0  0  0  3  0  0  0  0  0  0
  185.9860  178.7310  144.0650 C   0  0  0  0  0  3  0  0  0  0  0  0
  187.4450  178.2710  142.2330 N   0  0  0  0  0  0  0  0  0  0  0  0
  186.8630  178.0620  144.9200 C   0  0  0  0  0  3  0  0  0  0  0  0
  191.1190  175.5090  142.9100 C   0  0  0  0  0  2  0  0  0  0  0  0
  192.0010  173.3620  142.5390 O   0  0  0  0  0  0  0  0  0  0  0  0
  191.0180  174.0200  142.8400 C   0  0  0  0  0  0  0  0  0  0  0  0
  189.7110  173.3510  143.1500 C   0  0  2  0  0  3  0  0  0  0  0  0
  189.7220  172.6360  144.4910 C   0  0  0  0  0  1  0  0  0  0  0  0
  189.1590  172.4880  142.0120 C   0  0  0  0  0  2  0  0  0  0  0  0
  188.3110  174.9270  140.7210 O   0  0  0  0  0  1  0  0  0  0  0  0
  188.9100  173.3730  140.4330 P   0  0  0  0  0  0  0  0  0  0  0  0
  187.9060  172.6100  139.6010 O   0  0  0  0  0  1  0  0  0  0  0  0
  190.3660  173.4800  139.5780 O   0  0  0  0  0  0  0  0  0  0  0  0
  2  6  1  0  0  0  0
  3  2  1  0  0  0  0
  3  4  1  0  0  0  0
  4  1  2  0  0  0  0
  5  3  2  0  0  0  0
  6  1  1  1  0  0  0
  6  9  1  0  0  0  0
  8  7  2  0  0  0  0
  8 12  1  0  0  0  0
  9  7  1  6  0  0  0
  9 10  1  0  0  0  0
 10 11  2  0  0  0  0
 12 13  2  0  0  0  0
 13 10  1  0  0  0  0
 14 19  1  0  0  0  0
 14  8  1  0  0  0  0
 15 14  2  0  0  0  0
 16 17  1  0  0  0  0
 17 19  2  0  0  0  0
 18 16  2  0  0  0  0
 18 15  1  0  0  0  0
 20  2  1  0  0  0  0
 21 22  2  0  0  0  0
 22 20  1  0  0  0  0
 22 23  1  0  0  0  0
 23 24  1  1  0  0  0
 25 23  1  0  0  0  0
 27 26  1  0  0  0  0
 27 25  1  0  0  0  0
 28 27  1  0  0  0  0
 29 27  2  0  0  0  0
M  END
>  <MODEL>
4

>  <REMARK>
 VINA RESULT:      -6.9      2.944      4.172
  Name = 
  7 active torsions:
  status: ('A' for Active; 'I' for Inactive)
    1  A    between atoms: C_2  and  C_10
    2  A    between atoms: C_3  and  C_8
    3  A    between atoms: C_3  and  C_24
    4  A    between atoms: P_7  and  C_8
    5  A    between atoms: N_9  and  C_18
    6  A    between atoms: C_18  and  C_24
    7  A    between atoms: C_19  and  C_29
                            x       y       z     vdW  Elec       q    Type
                         _______ _______ _______ _____ _____    ______ ____

>  <TORSDO>
F 7

$$$$
=
 OpenBabel11042417263D

 29 31  0  0  1  0  0  0  0  0999 V2000
  188.6800  174.0950  140.6020 C   0  0  0  0  0  3  0  0  0  0  0  0
  188.7630  174.3200  142.9850 N   0  0  0  0  0  0  0  0  0  0  0  0
  189.0370  172.9920  142.5850 C   0  0  0  0  0  0  0  0  0  0  0  0
  188.9740  172.7980  141.1940 N   0  0  0  0  0  0  0  0  0  0  0  0
  189.3490  172.0730  143.3880 O   0  0  0  0  0  0  0  0  0  0  0  0
  188.5330  175.0990  141.7710 C   0  0  2  0  0  3  0  0  0  0  0  0
  186.7460  176.1260  143.1870 C   0  0  0  0  0  3  0  0  0  0  0  0
  186.7600  177.3930  143.6350 C   0  0  0  0  0  0  0  0  0  0  0  0
  187.1300  175.7340  141.7780 C   0  0  1  0  0  3  0  0  0  0  0  0
  187.0660  176.9250  140.8500 C   0  0  0  0  0  0  0  0  0  0  0  0
  186.9440  176.7540  139.6100 O   0  0  0  0  0  0  0  0  0  0  0  0
  187.0530  178.5000  142.6960 C   0  0  0  0  0  3  0  0  0  0  0  0
  187.1820  178.2870  141.3870 C   0  0  0  0  0  3  0  0  0  0  0  0
  186.4400  177.6910  145.0510 C   0  0  0  0  0  0  0  0  0  0  0  0
  185.8520  178.9130  145.4090 C   0  0  0  0  0  3  0  0  0  0  0  0
  185.8270  178.2940  147.7010 C   0  0  0  0  0  3  0  0  0  0  0  0
  186.4120  177.0650  147.3980 C   0  0  0  0  0  3  0  0  0  0  0  0
  185.5620  179.1860  146.7100 N   0  0  0  0  0  0  0  0  0  0  0  0
  186.7170  176.7660  146.0690 C   0  0  0  0  0  3  0  0  0  0  0  0
  189.2930  174.9110  144.2090 C   0  0  0  0  0  2  0  0  0  0  0  0
  191.5030  174.7660  143.4190 O   0  0  0  0  0  0  0  0  0  0  0  0
  190.6660  175.4560  143.9780 C   0  0  0  0  0  0  0  0  0  0  0  0
  190.9950  176.8490  144.4270 C   0  0  2  0  0  3  0  0  0  0  0  0
  190.4540  177.9120  143.4850 C   0  0  0  0  0  1  0  0  0  0  0  0
  192.4660  177.0620  144.7950 C   0  0  0  0  0  2  0  0  0  0  0  0
  191.7130  176.6820  147.5560 O   0  0  0  0  0  1  0  0  0  0  0  0
  192.9470  176.4100  146.4330 P   0  0  0  0  0  0  0  0  0  0  0  0
  194.1930  177.1290  146.8940 O   0  0  0  0  0  1  0  0  0  0  0  0
  193.2690  174.7520  146.3410 O   0  0  0  0  0  0  0  0  0  0  0  0
  1  4  2  0  0  0  0
  2 20  1  0  0  0  0
  3  2  1  0  0  0  0
  3  5  2  0  0  0  0
  4  3  1  0  0  0  0
  6  1  1  6  0  0  0
  6  9  1  0  0  0  0
  6  2  1  0  0  0  0
  7  8  2  0  0  0  0
  8 14  1  0  0  0  0
  9  7  1  1  0  0  0
 10 13  1  0  0  0  0
 10  9  1  0  0  0  0
 11 10  2  0  0  0  0
 12  8  1  0  0  0  0
 13 12  2  0  0  0  0
 14 15  2  0  0  0  0
 14 19  1  0  0  0  0
 15 18  1  0  0  0  0
 17 16  1  0  0  0  0
 18 16  2  0  0  0  0
 19 17  2  0  0  0  0
 21 22  2  0  0  0  0
 22 20  1  0  0  0  0
 22 23  1  0  0  0  0
 23 24  1  6  0  0  0
 23 25  1  0  0  0  0
 25 27  1  0  0  0  0
 27 28  1  0  0  0  0
 27 26  1  0  0  0  0
 29 27  2  0  0  0  0
M  END
>  <MODEL>
5

>  <REMARK>
 VINA RESULT:      -6.9      2.685      5.220
  Name = 
  7 active torsions:
  status: ('A' for Active; 'I' for Inactive)
    1  A    between atoms: C_2  and  C_10
    2  A    between atoms: C_3  and  C_8
    3  A    between atoms: C_3  and  C_24
    4  A    between atoms: P_7  and  C_8
    5  A    between atoms: N_9  and  C_18
    6  A    between atoms: C_18  and  C_24
    7  A    between atoms: C_19  and  C_29
                            x       y       z     vdW  Elec       q    Type
                         _______ _______ _______ _____ _____    ______ ____

>  <TORSDO>
F 7

$$$$
=
 OpenBabel11042417263D

 29 31  0  0  1  0  0  0  0  0999 V2000
  191.6770  177.7870  143.8990 C   0  0  0  0  0  3  0  0  0  0  0  0
  189.8420  176.2470  143.8670 N   0  0  0  0  0  0  0  0  0  0  0  0
  189.7340  177.1960  142.8240 C   0  0  0  0  0  0  0  0  0  0  0  0
  190.7750  178.1430  142.8150 N   0  0  0  0  0  0  0  0  0  0  0  0
  188.8200  177.1790  141.9580 O   0  0  0  0  0  0  0  0  0  0  0  0
  191.0690  176.5470  144.6010 C   0  0  2  0  0  3  0  0  0  0  0  0
  189.3690  177.3940  146.2270 C   0  0  0  0  0  3  0  0  0  0  0  0
  188.3340  176.6750  146.6940 C   0  0  0  0  0  0  0  0  0  0  0  0
  190.7700  176.8440  146.0810 C   0  0  1  0  0  3  0  0  0  0  0  0
  190.9550  175.6090  146.9330 C   0  0  0  0  0  0  0  0  0  0  0  0
  192.1100  175.2450  147.2750 O   0  0  0  0  0  0  0  0  0  0  0  0
  188.5640  175.3050  147.2070 C   0  0  0  0  0  3  0  0  0  0  0  0
  189.7930  174.8070  147.3340 C   0  0  0  0  0  3  0  0  0  0  0  0
  186.9730  177.2620  146.7390 C   0  0  0  0  0  0  0  0  0  0  0  0
  186.6700  178.2940  147.6390 C   0  0  0  0  0  3  0  0  0  0  0  0
  184.4290  178.3910  146.8600 C   0  0  0  0  0  3  0  0  0  0  0  0
  184.6800  177.3670  145.9460 C   0  0  0  0  0  3  0  0  0  0  0  0
  185.4200  178.8290  147.6810 N   0  0  0  0  0  0  0  0  0  0  0  0
  185.9550  176.8050  145.8880 C   0  0  0  0  0  3  0  0  0  0  0  0
  189.2870  174.9010  143.7810 C   0  0  0  0  0  2  0  0  0  0  0  0
  190.7130  174.1510  142.0690 O   0  0  0  0  0  0  0  0  0  0  0  0
  190.2860  173.9560  143.1970 C   0  0  0  0  0  0  0  0  0  0  0  0
  190.7610  172.7860  144.0060 C   0  0  2  0  0  3  0  0  0  0  0  0
  189.6860  172.2360  144.9290 C   0  0  0  0  0  1  0  0  0  0  0  0
  192.1030  173.0090  144.7090 C   0  0  0  0  0  2  0  0  0  0  0  0
  192.6920  170.2230  144.2390 O   0  0  0  0  0  1  0  0  0  0  0  0
  193.3830  171.7620  144.3280 P   0  0  0  0  0  0  0  0  0  0  0  0
  194.4140  171.7710  145.4330 O   0  0  0  0  0  1  0  0  0  0  0  0
  194.1440  172.1230  142.8610 O   0  0  0  0  0  0  0  0  0  0  0  0
  2  6  1  0  0  0  0
  3  2  1  0  0  0  0
  4  3  1  0  0  0  0
  4  1  2  0  0  0  0
  5  3  2  0  0  0  0
  6  1  1  6  0  0  0
  6  9  1  0  0  0  0
  7  8  2  0  0  0  0
  8 14  1  0  0  0  0
  8 12  1  0  0  0  0
  9  7  1  6  0  0  0
  9 10  1  0  0  0  0
 10 11  2  0  0  0  0
 10 13  1  0  0  0  0
 12 13  2  0  0  0  0
 14 15  1  0  0  0  0
 15 18  2  0  0  0  0
 16 18  1  0  0  0  0
 17 16  2  0  0  0  0
 19 17  1  0  0  0  0
 19 14  2  0  0  0  0
 20  2  1  0  0  0  0
 21 22  2  0  0  0  0
 22 20  1  0  0  0  0
 22 23  1  0  0  0  0
 23 25  1  0  0  0  0
 23 24  1  1  0  0  0
 26 27  1  0  0  0  0
 27 25  1  0  0  0  0
 27 28  1  0  0  0  0
 29 27  2  0  0  0  0
M  END
>  <MODEL>
6

>  <REMARK>
 VINA RESULT:      -6.8      2.892      5.246
  Name = 
  7 active torsions:
  status: ('A' for Active; 'I' for Inactive)
    1  A    between atoms: C_2  and  C_10
    2  A    between atoms: C_3  and  C_8
    3  A    between atoms: C_3  and  C_24
    4  A    between atoms: P_7  and  C_8
    5  A    between atoms: N_9  and  C_18
    6  A    between atoms: C_18  and  C_24
    7  A    between atoms: C_19  and  C_29
                            x       y       z     vdW  Elec       q    Type
                         _______ _______ _______ _____ _____    ______ ____

>  <TORSDO>
F 7

$$$$
=
 OpenBabel11042417263D

 29 31  0  0  1  0  0  0  0  0999 V2000
  189.7410  174.6770  143.1590 C   0  0  0  0  0  3  0  0  0  0  0  0
  189.7140  176.5260  144.6830 N   0  0  0  0  0  0  0  0  0  0  0  0
  190.2990  176.8880  143.4470 C   0  0  0  0  0  0  0  0  0  0  0  0
  190.3650  175.8290  142.5240 N   0  0  0  0  0  0  0  0  0  0  0  0
  190.6880  178.0540  143.1760 O   0  0  0  0  0  0  0  0  0  0  0  0
  189.3170  175.1240  144.5800 C   0  0  2  0  0  3  0  0  0  0  0  0
  191.4890  174.1500  145.3470 C   0  0  0  0  0  3  0  0  0  0  0  0
  192.4440  174.8330  146.0020 C   0  0  0  0  0  0  0  0  0  0  0  0
  190.0140  174.2710  145.6560 C   0  0  1  0  0  3  0  0  0  0  0  0
  189.7980  174.8510  147.0350 C   0  0  0  0  0  0  0  0  0  0  0  0
  188.7100  174.6600  147.6380 O   0  0  0  0  0  0  0  0  0  0  0  0
  192.0780  175.6720  147.1660 C   0  0  0  0  0  3  0  0  0  0  0  0
  190.8420  175.6710  147.6630 C   0  0  0  0  0  3  0  0  0  0  0  0
  193.8630  174.7170  145.5910 C   0  0  0  0  0  0  0  0  0  0  0  0
  194.5320  175.8080  145.0180 C   0  0  0  0  0  3  0  0  0  0  0  0
  196.5290  174.5410  144.8020 C   0  0  0  0  0  3  0  0  0  0  0  0
  195.9090  173.4270  145.3680 C   0  0  0  0  0  3  0  0  0  0  0  0
  195.8350  175.6990  144.6390 N   0  0  0  0  0  0  0  0  0  0  0  0
  194.5740  173.5190  145.7630 C   0  0  0  0  0  3  0  0  0  0  0  0
  189.0240  177.4760  145.5480 C   0  0  0  0  0  2  0  0  0  0  0  0
  186.8350  176.8850  146.1720 O   0  0  0  0  0  0  0  0  0  0  0  0
  187.5470  177.4100  145.3300 C   0  0  0  0  0  0  0  0  0  0  0  0
  186.9550  178.0000  144.0840 C   0  0  2  0  0  3  0  0  0  0  0  0
  185.9420  179.0940  144.3770 C   0  0  0  0  0  1  0  0  0  0  0  0
  186.4490  176.9640  143.0750 C   0  0  0  0  0  2  0  0  0  0  0  0
  185.5970  177.8190  140.4530 O   0  0  0  0  0  0  0  0  0  0  0  0
  186.9320  177.2860  141.3430 P   0  0  0  0  0  0  0  0  0  0  0  0
  187.4420  176.0000  140.7340 O   0  0  0  0  0  1  0  0  0  0  0  0
  188.1560  178.4520  141.2750 O   0  0  0  0  0  1  0  0  0  0  0  0
  2 20  1  0  0  0  0
  3  2  1  0  0  0  0
  4  1  2  0  0  0  0
  4  3  1  0  0  0  0
  5  3  2  0  0  0  0
  6  1  1  6  0  0  0
  6  2  1  0  0  0  0
  6  9  1  0  0  0  0
  7  8  2  0  0  0  0
  8 12  1  0  0  0  0
  9  7  1  6  0  0  0
  9 10  1  0  0  0  0
 10 11  2  0  0  0  0
 10 13  1  0  0  0  0
 12 13  2  0  0  0  0
 14 19  1  0  0  0  0
 14  8  1  0  0  0  0
 15 14  2  0  0  0  0
 16 17  1  0  0  0  0
 17 19  2  0  0  0  0
 18 16  2  0  0  0  0
 18 15  1  0  0  0  0
 22 20  1  0  0  0  0
 22 21  2  0  0  0  0
 23 24  1  1  0  0  0
 23 22  1  0  0  0  0
 25 23  1  0  0  0  0
 26 27  2  0  0  0  0
 27 25  1  0  0  0  0
 28 27  1  0  0  0  0
 29 27  1  0  0  0  0
M  END
>  <MODEL>
7

>  <REMARK>
 VINA RESULT:      -6.8      3.055      5.672
  Name = 
  7 active torsions:
  status: ('A' for Active; 'I' for Inactive)
    1  A    between atoms: C_2  and  C_10
    2  A    between atoms: C_3  and  C_8
    3  A    between atoms: C_3  and  C_24
    4  A    between atoms: P_7  and  C_8
    5  A    between atoms: N_9  and  C_18
    6  A    between atoms: C_18  and  C_24
    7  A    between atoms: C_19  and  C_29
                            x       y       z     vdW  Elec       q    Type
                         _______ _______ _______ _____ _____    ______ ____

>  <TORSDO>
F 7

$$$$
=
 OpenBabel11042417263D

 29 31  0  0  1  0  0  0  0  0999 V2000
  184.9030  177.9010  145.0920 C   0  0  0  0  0  3  0  0  0  0  0  0
  186.8040  177.1940  146.3670 N   0  0  0  0  0  0  0  0  0  0  0  0
  185.8680  177.8790  147.1770 C   0  0  0  0  0  0  0  0  0  0  0  0
  184.7430  178.3410  146.4700 N   0  0  0  0  0  0  0  0  0  0  0  0
  186.0020  178.0310  148.4200 O   0  0  0  0  0  0  0  0  0  0  0  0
  186.2570  177.1530  145.0140 C   0  0  2  0  0  3  0  0  0  0  0  0
  188.1350  176.8140  143.3980 C   0  0  0  0  0  3  0  0  0  0  0  0
  187.9920  176.3360  142.1500 C   0  0  0  0  0  0  0  0  0  0  0  0
  187.2060  177.8360  144.0130 C   0  0  1  0  0  3  0  0  0  0  0  0
  186.4320  178.5720  142.9430 C   0  0  0  0  0  0  0  0  0  0  0  0
  185.9330  179.7020  143.1880 O   0  0  0  0  0  0  0  0  0  0  0  0
  186.9490  176.9000  141.2630 C   0  0  0  0  0  3  0  0  0  0  0  0
  186.2250  177.9590  141.6250 C   0  0  0  0  0  3  0  0  0  0  0  0
  188.9000  175.2790  141.6430 C   0  0  0  0  0  0  0  0  0  0  0  0
  188.5670  174.5410  140.4980 C   0  0  0  0  0  3  0  0  0  0  0  0
  190.5750  173.2830  140.6590 C   0  0  0  0  0  3  0  0  0  0  0  0
  190.9510  173.9890  141.8020 C   0  0  0  0  0  3  0  0  0  0  0  0
  189.4010  173.5690  140.0360 N   0  0  0  0  0  0  0  0  0  0  0  0
  190.1100  174.9890  142.2910 C   0  0  0  0  0  3  0  0  0  0  0  0
  187.7050  176.1690  146.8820 C   0  0  0  0  0  2  0  0  0  0  0  0
  189.3880  177.7610  147.2820 O   0  0  0  0  0  0  0  0  0  0  0  0
  189.1200  176.6500  146.8540 C   0  0  0  0  0  0  0  0  0  0  0  0
  190.1950  175.7570  146.3100 C   0  0  2  0  0  3  0  0  0  0  0  0
  189.6920  174.3570  145.9970 C   0  0  0  0  0  1  0  0  0  0  0  0
  191.4920  175.7640  147.1230 C   0  0  0  0  0  2  0  0  0  0  0  0
  193.8250  174.5650  145.9180 O   0  0  0  0  0  1  0  0  0  0  0  0
  193.0100  176.0290  146.1410 P   0  0  0  0  0  0  0  0  0  0  0  0
  193.9130  176.9810  146.8900 O   0  0  0  0  0  1  0  0  0  0  0  0
  192.6310  176.6980  144.6340 O   0  0  0  0  0  0  0  0  0  0  0  0
  1  4  2  0  0  0  0
  2 20  1  0  0  0  0
  2  3  1  0  0  0  0
  3  5  2  0  0  0  0
  4  3  1  0  0  0  0
  6  1  1  1  0  0  0
  6  2  1  0  0  0  0
  8  7  2  0  0  0  0
  9  7  1  6  0  0  0
  9  6  1  0  0  0  0
 10 11  2  0  0  0  0
 10  9  1  0  0  0  0
 12 13  2  0  0  0  0
 12  8  1  0  0  0  0
 13 10  1  0  0  0  0
 14  8  1  0  0  0  0
 14 19  1  0  0  0  0
 15 14  2  0  0  0  0
 16 17  1  0  0  0  0
 17 19  2  0  0  0  0
 18 15  1  0  0  0  0
 18 16  2  0  0  0  0
 22 20  1  0  0  0  0
 22 21  2  0  0  0  0
 23 24  1  1  0  0  0
 23 22  1  0  0  0  0
 23 25  1  0  0  0  0
 26 27  1  0  0  0  0
 27 28  1  0  0  0  0
 27 25  1  0  0  0  0
 29 27  2  0  0  0  0
M  END
>  <MODEL>
8

>  <REMARK>
 VINA RESULT:      -6.8      2.799      7.431
  Name = 
  7 active torsions:
  status: ('A' for Active; 'I' for Inactive)
    1  A    between atoms: C_2  and  C_10
    2  A    between atoms: C_3  and  C_8
    3  A    between atoms: C_3  and  C_24
    4  A    between atoms: P_7  and  C_8
    5  A    between atoms: N_9  and  C_18
    6  A    between atoms: C_18  and  C_24
    7  A    between atoms: C_19  and  C_29
                            x       y       z     vdW  Elec       q    Type
                         _______ _______ _______ _____ _____    ______ ____

>  <TORSDO>
F 7

$$$$
=
 OpenBabel11042417263D

 29 31  0  0  1  0  0  0  0  0999 V2000
  191.3030  177.9120  143.8590 C   0  0  0  0  0  3  0  0  0  0  0  0
  189.9870  175.9130  143.9510 N   0  0  0  0  0  0  0  0  0  0  0  0
  189.6240  176.7160  142.8450 C   0  0  0  0  0  0  0  0  0  0  0  0
  190.3490  177.9180  142.7600 N   0  0  0  0  0  0  0  0  0  0  0  0
  188.7630  176.3770  141.9900 O   0  0  0  0  0  0  0  0  0  0  0  0
  191.0680  176.6020  144.6500 C   0  0  2  0  0  3  0  0  0  0  0  0
  189.2770  177.4650  146.1670 C   0  0  0  0  0  3  0  0  0  0  0  0
  188.2080  176.7540  146.5690 C   0  0  0  0  0  0  0  0  0  0  0  0
  190.6790  176.9030  146.1090 C   0  0  1  0  0  3  0  0  0  0  0  0
  190.8010  175.6680  146.9720 C   0  0  0  0  0  0  0  0  0  0  0  0
  191.9300  175.2950  147.3860 O   0  0  0  0  0  0  0  0  0  0  0  0
  188.3950  175.3830  147.0960 C   0  0  0  0  0  3  0  0  0  0  0  0
  189.6100  174.8760  147.3010 C   0  0  0  0  0  3  0  0  0  0  0  0
  186.8530  177.3520  146.5280 C   0  0  0  0  0  0  0  0  0  0  0  0
  186.2950  177.9370  147.6750 C   0  0  0  0  0  3  0  0  0  0  0  0
  184.3070  178.4830  146.4980 C   0  0  0  0  0  3  0  0  0  0  0  0
  184.8160  177.9140  145.3300 C   0  0  0  0  0  3  0  0  0  0  0  0
  185.0490  178.4820  147.6360 N   0  0  0  0  0  0  0  0  0  0  0  0
  186.0910  177.3500  145.3490 C   0  0  0  0  0  3  0  0  0  0  0  0
  189.8420  174.4610  143.9650 C   0  0  0  0  0  2  0  0  0  0  0  0
  191.6430  173.1080  144.6390 O   0  0  0  0  0  0  0  0  0  0  0  0
  191.1650  173.7990  143.7530 C   0  0  0  0  0  0  0  0  0  0  0  0
  191.8850  173.9810  142.4500 C   0  0  2  0  0  3  0  0  0  0  0  0
  191.2000  173.2660  141.2960 C   0  0  0  0  0  1  0  0  0  0  0  0
  193.3910  173.7120  142.5180 C   0  0  0  0  0  2  0  0  0  0  0  0
  194.3360  175.5460  144.5360 O   0  0  0  0  0  1  0  0  0  0  0  0
  194.4140  175.1790  142.8890 P   0  0  0  0  0  0  0  0  0  0  0  0
  193.8810  176.3530  142.1020 O   0  0  0  0  0  0  0  0  0  0  0  0
  196.0250  174.9050  142.4480 O   0  0  0  0  0  1  0  0  0  0  0  0
  2 20  1  0  0  0  0
  2  6  1  0  0  0  0
  3  2  1  0  0  0  0
  4  3  1  0  0  0  0
  4  1  2  0  0  0  0
  5  3  2  0  0  0  0
  6  1  1  6  0  0  0
  6  9  1  0  0  0  0
  7  8  2  0  0  0  0
  8 12  1  0  0  0  0
  9  7  1  6  0  0  0
  9 10  1  0  0  0  0
 10 13  1  0  0  0  0
 10 11  2  0  0  0  0
 12 13  2  0  0  0  0
 14  8  1  0  0  0  0
 14 15  1  0  0  0  0
 16 18  1  0  0  0  0
 17 19  1  0  0  0  0
 17 16  2  0  0  0  0
 18 15  2  0  0  0  0
 19 14  2  0  0  0  0
 22 20  1  0  0  0  0
 22 21  2  0  0  0  0
 23 24  1  6  0  0  0
 23 25  1  0  0  0  0
 23 22  1  0  0  0  0
 25 27  1  0  0  0  0
 27 26  1  0  0  0  0
 28 27  2  0  0  0  0
 29 27  1  0  0  0  0
M  END
>  <MODEL>
9

>  <REMARK>
 VINA RESULT:      -6.7      2.841      4.891
  Name = 
  7 active torsions:
  status: ('A' for Active; 'I' for Inactive)
    1  A    between atoms: C_2  and  C_10
    2  A    between atoms: C_3  and  C_8
    3  A    between atoms: C_3  and  C_24
    4  A    between atoms: P_7  and  C_8
    5  A    between atoms: N_9  and  C_18
    6  A    between atoms: C_18  and  C_24
    7  A    between atoms: C_19  and  C_29
                            x       y       z     vdW  Elec       q    Type
                         _______ _______ _______ _____ _____    ______ ____

>  <TORSDO>
F 7

$$$$
