=
 OpenBabel11042419363D

 56 60  0  0  1  0  0  0  0  0999 V2000
  193.0150  171.3420  136.6160 C   0  0  0  0  0  2  0  0  0  0  0  0
  192.0090  170.2950  137.0690 C   0  0  0  0  0  2  0  0  0  0  0  0
  193.0340  172.5690  137.5410 C   0  0  2  0  0  3  0  0  0  0  0  0
  189.5990  169.8790  137.5060 C   0  0  0  0  0  1  0  0  0  0  0  0
  190.4890  172.1850  137.8390 C   0  0  2  0  0  3  0  0  0  0  0  0
  191.8020  172.7100  138.4480 C   0  0  0  0  0  2  0  0  0  0  0  0
  190.6090  170.8950  137.0160 C   0  0  1  0  0  3  0  0  0  0  0  0
  188.2690  175.2100  135.7650 C   0  0  0  0  0  0  0  0  0  0  0  0
  188.0830  175.0570  137.1410 C   0  0  0  0  0  3  0  0  0  0  0  0
  188.8020  174.0750  137.8270 C   0  0  0  0  0  0  0  0  0  0  0  0
  187.5420  176.2080  135.0570 N   0  0  0  0  0  1  0  0  0  0  0  0
  189.1410  174.4060  135.1030 N   0  0  0  0  0  0  0  0  0  0  0  0
  189.7030  173.2520  137.1270 C   0  0  0  0  0  0  0  0  0  0  0  0
  189.8520  173.4410  135.7460 C   0  0  0  0  0  3  0  0  0  0  0  0
  188.3960  173.8090  140.4260 C   0  0  0  0  0  0  0  0  0  0  0  0
  188.5920  173.9150  139.2410 C   0  0  0  0  0  0  0  0  0  0  0  0
  188.1410  173.7160  141.8710 C   0  0  2  0  0  3  0  0  0  0  0  0
  188.1310  175.1050  142.5280 C   0  0  2  0  0  3  0  0  0  0  0  0
  189.7610  177.0120  142.4500 C   0  0  0  0  0  3  0  0  0  0  0  0
  187.1510  176.0520  141.8260 C   0  0  0  0  0  2  0  0  0  0  0  0
  189.5250  175.6970  142.5860 C   0  0  0  0  0  3  0  0  0  0  0  0
  188.6720  178.0000  142.1180 C   0  0  0  0  0  2  0  0  0  0  0  0
  186.3160  178.2860  141.8650 O   0  0  0  0  0  1  0  0  0  0  0  0
  187.2810  177.4470  142.4220 C   0  0  1  0  0  3  0  0  0  0  0  0
  191.2690  170.9350  143.2090 O   0  0  0  0  0  1  0  0  0  0  0  0
  188.9150  172.2230  143.5560 O   0  0  0  0  0  0  0  0  0  0  0  0
  192.6490  171.6510  141.5290 O   0  0  0  0  0  0  0  0  0  0  0  0
  190.4350  172.6260  141.8160 N   0  0  0  0  0  2  0  0  0  0  0  0
  191.4520  171.7070  142.2300 C   0  0  0  0  0  0  0  0  0  0  0  0
  189.1770  172.8190  142.4770 C   0  0  0  0  0  0  0  0  0  0  0  0
  193.2670  173.8480  136.7470 C   0  0  0  0  0  2  0  0  0  0  0  0
  196.8350  174.4090  135.8600 C   0  0  0  0  0  3  0  0  0  0  0  0
  197.3400  175.0540  136.9850 C   0  0  0  0  0  2  0  0  0  0  0  0
  195.5270  174.0490  135.8290 N   0  0  0  0  0  0  0  0  0  0  0  0
  194.6860  174.3070  136.8670 C   0  0  2  0  0  3  0  0  0  0  0  0
  196.5120  175.3150  138.0290 N   0  0  0  0  0  0  0  0  0  0  0  0
  195.1960  174.9710  138.0140 C   0  0  0  0  0  0  0  0  0  0  0  0
  194.3890  174.6070  140.2790 C   0  0  0  0  0  3  0  0  0  0  0  0
  194.4140  175.2850  139.1790 N   0  0  0  0  0  0  0  0  0  0  0  0
  193.5430  175.0500  141.4220 C   0  0  0  0  0  2  0  0  0  0  0  0
  194.2840  176.0480  142.2970 C   0  0  0  0  0  2  0  0  0  0  0  0
  192.6950  176.8110  145.2920 C   0  0  2  0  0  3  0  0  0  0  0  0
  194.8620  176.6090  144.5470 O   0  0  0  0  0  0  0  0  0  0  0  0
  192.6480  176.1770  144.0540 O   0  0  0  0  0  0  0  0  0  0  0  0
  193.9830  175.8370  143.7740 C   0  0  1  0  0  3  0  0  0  0  0  0
  194.1340  176.9030  145.6950 C   0  0  0  0  0  2  0  0  0  0  0  0
  191.7820  176.1540  146.3520 C   0  0  0  0  0  2  0  0  0  0  0  0
  190.3730  175.9190  145.9790 N   0  0  0  0  0  0  0  0  0  0  0  0
  190.1440  177.6310  147.5690 O   0  0  0  0  0  1  0  0  0  0  0  0
  189.4400  176.6820  146.8180 C   0  0  1  0  0  3  0  0  0  0  0  0
  188.4010  177.4060  145.9620 C   0  0  0  0  0  2  0  0  0  0  0  0
  186.3550  178.6190  146.7070 C   0  0  0  0  0  1  0  0  0  0  0  0
  186.1590  176.4140  145.6130 C   0  0  0  0  0  1  0  0  0  0  0  0
  187.0040  177.2560  146.5450 C   0  0  0  0  0  3  0  0  0  0  0  0
  190.0660  174.4900  146.0300 C   0  0  0  0  0  2  0  0  0  0  0  0
  189.1110  174.2460  147.0170 O   0  0  0  0  0  1  0  0  0  0  0  0
  1  2  1  0  0  0  0
  1  3  1  0  0  0  0
  3 31  1  6  0  0  0
  3  6  1  0  0  0  0
  5 13  1  6  0  0  0
  5  6  1  0  0  0  0
  7  2  1  0  0  0  0
  7  4  1  1  0  0  0
  7  5  1  0  0  0  0
  8  9  1  0  0  0  0
  9 10  2  0  0  0  0
 10 16  1  0  0  0  0
 11  8  1  0  0  0  0
 12 14  1  0  0  0  0
 12  8  2  0  0  0  0
 13 10  1  0  0  0  0
 14 13  2  0  0  0  0
 16 15  3  0  0  0  0
 17 15  1  6  0  0  0
 17 30  1  0  0  0  0
 18 17  1  6  0  0  0
 18 21  1  0  0  0  0
 19 21  2  0  0  0  0
 20 24  1  0  0  0  0
 20 18  1  0  0  0  0
 22 24  1  0  0  0  0
 22 19  1  0  0  0  0
 24 23  1  6  0  0  0
 27 29  2  0  0  0  0
 28 29  1  0  0  0  0
 28 30  1  0  0  0  0
 29 25  1  0  0  0  0
 30 26  2  0  0  0  0
 32 33  1  0  0  0  0
 33 36  1  0  0  0  0
 34 32  2  0  0  0  0
 34 35  1  0  0  0  0
 35 31  1  1  0  0  0
 35 37  1  0  0  0  0
 37 36  2  0  0  0  0
 37 39  1  0  0  0  0
 38 40  1  0  0  0  0
 39 38  2  0  0  0  0
 40 41  1  0  0  0  0
 42 46  1  0  0  0  0
 42 47  1  1  0  0  0
 43 46  1  0  0  0  0
 44 42  1  0  0  0  0
 45 41  1  6  0  0  0
 45 44  1  0  0  0  0
 45 43  1  0  0  0  0
 48 55  1  0  0  0  0
 48 47  1  0  0  0  0
 48 50  1  0  0  0  0
 50 49  1  6  0  0  0
 51 54  1  0  0  0  0
 51 50  1  0  0  0  0
 53 54  1  0  0  0  0
 54 52  1  0  0  0  0
 55 56  1  0  0  0  0
M  END
>  <MODEL>
1

>  <REMARK>
 VINA RESULT:      -6.6      0.000      0.000
  Name = 
  17 active torsions:
  status: ('A' for Active; 'I' for Inactive)
    1  A    between atoms: C_2  and  C_31
    2  A    between atoms: C_4  and  C_51
    3  A    between atoms: C_12  and  C_22
    4  A    between atoms: C_12  and  C_43
    5  A    between atoms: C_13  and  C_41
    6  A    between atoms: C_21  and  C_23
    7  A    between atoms: C_21  and  C_45
    8  A    between atoms: C_26  and  C_31
    9  A    between atoms: C_31  and  C_49
   10  A    between atoms: C_32  and  C_33
   11  A    between atoms: C_32  and  C_52
   12  A    between atoms: C_33  and  N_55
   13  A    between atoms: C_35  and  N_55
   14  A    between atoms: C_38  and  C_39
   15  A    between atoms: C_45  and  C_48
   16  A    between atoms: C_47  and  N_54
   17  A    between atoms: C_51  and  N_55
                            x       y       z     vdW  Elec       q    Type
                         _______ _______ _______ _____ _____    ______ ____

>  <TORSDO>
F 17

$$$$
=
 OpenBabel11042419363D

 56 60  0  0  1  0  0  0  0  0999 V2000
  190.5490  171.2720  142.7130 C   0  0  0  0  0  2  0  0  0  0  0  0
  190.9660  170.2960  141.6220 C   0  0  0  0  0  2  0  0  0  0  0  0
  191.5780  172.3950  142.9130 C   0  0  2  0  0  3  0  0  0  0  0  0
  192.7210  168.6770  140.9390 C   0  0  0  0  0  1  0  0  0  0  0  0
  193.3840  170.6260  142.3450 C   0  0  2  0  0  3  0  0  0  0  0  0
  192.9670  172.1080  142.3230 C   0  0  0  0  0  2  0  0  0  0  0  0
  192.2680  169.6190  142.0340 C   0  0  1  0  0  3  0  0  0  0  0  0
  195.5800  169.5430  145.8640 C   0  0  0  0  0  0  0  0  0  0  0  0
  196.2360  170.2320  144.8420 C   0  0  0  0  0  3  0  0  0  0  0  0
  195.5300  170.5910  143.6920 C   0  0  0  0  0  0  0  0  0  0  0  0
  196.2900  169.1730  147.0410 N   0  0  0  0  0  1  0  0  0  0  0  0
  194.2660  169.2220  145.7340 N   0  0  0  0  0  0  0  0  0  0  0  0
  194.1690  170.2540  143.5740 C   0  0  0  0  0  0  0  0  0  0  0  0
  193.5560  169.5570  144.6240 C   0  0  0  0  0  3  0  0  0  0  0  0
  196.7650  171.8860  141.7450 C   0  0  0  0  0  0  0  0  0  0  0  0
  196.2180  171.2880  142.6380 C   0  0  0  0  0  0  0  0  0  0  0  0
  197.3970  172.6280  140.6440 C   0  0  2  0  0  3  0  0  0  0  0  0
  196.8670  174.0680  140.5650 C   0  0  2  0  0  3  0  0  0  0  0  0
  194.5550  175.0220  140.7750 C   0  0  0  0  0  3  0  0  0  0  0  0
  197.1950  174.8600  141.8360 C   0  0  0  0  0  2  0  0  0  0  0  0
  195.3810  174.0930  140.2680 C   0  0  0  0  0  3  0  0  0  0  0  0
  195.0140  176.0550  141.7720 C   0  0  0  0  0  2  0  0  0  0  0  0
  196.9160  176.9930  142.8660 O   0  0  0  0  0  1  0  0  0  0  0  0
  196.5310  176.2280  141.7660 C   0  0  1  0  0  3  0  0  0  0  0  0
  196.7980  170.0260  137.1560 O   0  0  0  0  0  0  0  0  0  0  0  0
  197.6170  172.3390  138.2920 O   0  0  0  0  0  0  0  0  0  0  0  0
  195.5180  168.6040  138.4130 O   0  0  0  0  0  1  0  0  0  0  0  0
  196.4520  170.6280  139.3940 N   0  0  0  0  0  2  0  0  0  0  0  0
  196.2700  169.7620  138.2690 C   0  0  0  0  0  0  0  0  0  0  0  0
  197.1620  171.8750  139.3710 C   0  0  0  0  0  0  0  0  0  0  0  0
  191.6860  172.7810  144.3820 C   0  0  0  0  0  2  0  0  0  0  0  0
  193.9140  175.6420  145.2120 C   0  0  0  0  0  3  0  0  0  0  0  0
  193.1240  176.7490  144.9190 C   0  0  0  0  0  2  0  0  0  0  0  0
  193.4130  174.3960  145.0180 N   0  0  0  0  0  0  0  0  0  0  0  0
  192.1570  174.1940  144.5370 C   0  0  2  0  0  3  0  0  0  0  0  0
  191.8670  176.5620  144.4420 N   0  0  0  0  0  0  0  0  0  0  0  0
  191.3490  175.3210  144.2320 C   0  0  0  0  0  0  0  0  0  0  0  0
  189.6100  175.5930  142.5540 C   0  0  0  0  0  3  0  0  0  0  0  0
  190.0030  175.2390  143.7330 N   0  0  0  0  0  0  0  0  0  0  0  0
  188.1820  175.4430  142.1560 C   0  0  0  0  0  2  0  0  0  0  0  0
  187.7660  176.5400  141.1880 C   0  0  0  0  0  2  0  0  0  0  0  0
  186.0070  178.1540  143.7140 C   0  0  2  0  0  3  0  0  0  0  0  0
  185.9920  178.1260  141.4140 O   0  0  0  0  0  0  0  0  0  0  0  0
  187.1780  177.5240  143.3020 O   0  0  0  0  0  0  0  0  0  0  0  0
  187.2510  177.7710  141.9200 C   0  0  1  0  0  3  0  0  0  0  0  0
  185.3480  178.7190  142.4940 C   0  0  0  0  0  2  0  0  0  0  0  0
  186.2310  179.1840  144.8450 C   0  0  0  0  0  2  0  0  0  0  0  0
  185.7310  178.8310  146.1900 N   0  0  0  0  0  0  0  0  0  0  0  0
  186.5080  178.5010  148.3810 O   0  0  0  0  0  1  0  0  0  0  0  0
  186.7760  178.2340  147.0330 C   0  0  1  0  0  3  0  0  0  0  0  0
  186.8390  176.7190  146.8350 C   0  0  0  0  0  2  0  0  0  0  0  0
  189.2130  177.4160  146.5320 C   0  0  0  0  0  1  0  0  0  0  0  0
  188.6760  175.0980  147.1910 C   0  0  0  0  0  1  0  0  0  0  0  0
  188.2180  176.2810  146.3660 C   0  0  0  0  0  3  0  0  0  0  0  0
  184.5780  177.9380  146.0840 C   0  0  0  0  0  2  0  0  0  0  0  0
  183.4140  178.6870  145.9090 O   0  0  0  0  0  1  0  0  0  0  0  0
  1  3  1  0  0  0  0
  2  7  1  0  0  0  0
  2  1  1  0  0  0  0
  3 31  1  1  0  0  0
  5 13  1  1  0  0  0
  6  5  1  0  0  0  0
  6  3  1  0  0  0  0
  7  4  1  6  0  0  0
  7  5  1  0  0  0  0
  8 11  1  0  0  0  0
  9  8  2  0  0  0  0
 10  9  1  0  0  0  0
 12  8  1  0  0  0  0
 13 10  2  0  0  0  0
 13 14  1  0  0  0  0
 14 12  2  0  0  0  0
 15 16  3  0  0  0  0
 16 10  1  0  0  0  0
 17 15  1  1  0  0  0
 18 17  1  1  0  0  0
 18 20  1  0  0  0  0
 19 22  1  0  0  0  0
 21 18  1  0  0  0  0
 21 19  2  0  0  0  0
 24 22  1  0  0  0  0
 24 20  1  0  0  0  0
 24 23  1  1  0  0  0
 25 29  2  0  0  0  0
 26 30  2  0  0  0  0
 29 27  1  0  0  0  0
 29 28  1  0  0  0  0
 30 28  1  0  0  0  0
 30 17  1  0  0  0  0
 33 32  1  0  0  0  0
 34 32  2  0  0  0  0
 35 31  1  1  0  0  0
 35 34  1  0  0  0  0
 36 33  1  0  0  0  0
 37 36  2  0  0  0  0
 37 35  1  0  0  0  0
 38 39  2  0  0  0  0
 39 37  1  0  0  0  0
 40 38  1  0  0  0  0
 41 40  1  0  0  0  0
 42 47  1  1  0  0  0
 43 45  1  0  0  0  0
 43 46  1  0  0  0  0
 44 42  1  0  0  0  0
 45 41  1  6  0  0  0
 45 44  1  0  0  0  0
 46 42  1  0  0  0  0
 47 48  1  0  0  0  0
 48 50  1  0  0  0  0
 50 49  1  1  0  0  0
 51 50  1  0  0  0  0
 54 52  1  0  0  0  0
 54 51  1  0  0  0  0
 54 53  1  0  0  0  0
 55 48  1  0  0  0  0
 56 55  1  0  0  0  0
M  END
>  <MODEL>
2

>  <REMARK>
 VINA RESULT:      -6.0      3.799      7.945
  Name = 
  17 active torsions:
  status: ('A' for Active; 'I' for Inactive)
    1  A    between atoms: C_2  and  C_31
    2  A    between atoms: C_4  and  C_51
    3  A    between atoms: C_12  and  C_22
    4  A    between atoms: C_12  and  C_43
    5  A    between atoms: C_13  and  C_41
    6  A    between atoms: C_21  and  C_23
    7  A    between atoms: C_21  and  C_45
    8  A    between atoms: C_26  and  C_31
    9  A    between atoms: C_31  and  C_49
   10  A    between atoms: C_32  and  C_33
   11  A    between atoms: C_32  and  C_52
   12  A    between atoms: C_33  and  N_55
   13  A    between atoms: C_35  and  N_55
   14  A    between atoms: C_38  and  C_39
   15  A    between atoms: C_45  and  C_48
   16  A    between atoms: C_47  and  N_54
   17  A    between atoms: C_51  and  N_55
                            x       y       z     vdW  Elec       q    Type
                         _______ _______ _______ _____ _____    ______ ____

>  <TORSDO>
F 17

$$$$
=
 OpenBabel11042419363D

 56 60  0  0  1  0  0  0  0  0999 V2000
  190.7690  175.6380  143.6490 C   0  0  0  0  0  2  0  0  0  0  0  0
  189.3740  175.6660  143.0400 C   0  0  0  0  0  2  0  0  0  0  0  0
  191.8600  175.4060  142.5920 C   0  0  2  0  0  3  0  0  0  0  0  0
  187.7140  174.3350  141.7590 C   0  0  0  0  0  1  0  0  0  0  0  0
  190.1390  173.9000  141.3740 C   0  0  2  0  0  3  0  0  0  0  0  0
  191.3530  174.8390  141.2570 C   0  0  0  0  0  2  0  0  0  0  0  0
  189.0810  174.3100  142.4090 C   0  0  1  0  0  3  0  0  0  0  0  0
  191.2230  169.7690  141.7490 C   0  0  0  0  0  0  0  0  0  0  0  0
  191.4300  170.4160  140.5290 C   0  0  0  0  0  3  0  0  0  0  0  0
  191.0810  171.7620  140.3960 C   0  0  0  0  0  0  0  0  0  0  0  0
  191.5760  168.3980  141.8960 N   0  0  0  0  0  1  0  0  0  0  0  0
  190.6830  170.4480  142.7960 N   0  0  0  0  0  0  0  0  0  0  0  0
  190.5250  172.4510  141.4890 C   0  0  0  0  0  0  0  0  0  0  0  0
  190.3320  171.7580  142.6920 C   0  0  0  0  0  3  0  0  0  0  0  0
  191.4250  172.9490  138.0580 C   0  0  0  0  0  0  0  0  0  0  0  0
  191.2850  172.4150  139.1300 C   0  0  0  0  0  0  0  0  0  0  0  0
  191.5640  173.5820  136.7390 C   0  0  2  0  0  3  0  0  0  0  0  0
  192.6550  174.6640  136.7510 C   0  0  2  0  0  3  0  0  0  0  0  0
  194.6950  174.9770  138.1790 C   0  0  0  0  0  3  0  0  0  0  0  0
  193.6300  174.4930  135.5800 C   0  0  0  0  0  2  0  0  0  0  0  0
  193.3870  174.6940  138.0780 C   0  0  0  0  0  3  0  0  0  0  0  0
  195.5750  175.1800  136.9710 C   0  0  0  0  0  2  0  0  0  0  0  0
  195.5940  175.4230  134.5970 O   0  0  0  0  0  1  0  0  0  0  0  0
  194.7650  175.4980  135.7160 C   0  0  1  0  0  3  0  0  0  0  0  0
  187.8300  175.6350  135.6710 O   0  0  0  0  0  1  0  0  0  0  0  0
  189.1850  173.5210  136.6740 O   0  0  0  0  0  0  0  0  0  0  0  0
  189.0100  177.2180  134.5130 O   0  0  0  0  0  0  0  0  0  0  0  0
  190.1570  175.3680  135.6050 N   0  0  0  0  0  2  0  0  0  0  0  0
  188.9470  176.0570  135.2710 C   0  0  0  0  0  0  0  0  0  0  0  0
  190.2310  174.1370  136.3380 C   0  0  0  0  0  0  0  0  0  0  0  0
  192.9860  174.5460  143.1490 C   0  0  0  0  0  2  0  0  0  0  0  0
  196.1260  176.1330  141.9410 C   0  0  0  0  0  3  0  0  0  0  0  0
  196.6960  176.6280  143.1090 C   0  0  0  0  0  3  0  0  0  0  0  0
  194.9370  175.4810  142.0030 N   0  0  0  0  0  0  0  0  0  0  0  0
  194.2780  175.3010  143.1800 C   0  0  0  0  0  0  0  0  0  0  0  0
  196.0510  176.4530  144.2900 N   0  0  0  0  0  0  0  0  0  0  0  0
  194.8550  175.8100  144.3740 C   0  0  0  0  0  0  0  0  0  0  0  0
  193.2270  176.3070  146.1120 C   0  0  0  0  0  3  0  0  0  0  0  0
  194.2660  175.6700  145.6790 N   0  0  0  0  0  0  0  0  0  0  0  0
  192.7060  176.0590  147.4850 C   0  0  0  0  0  2  0  0  0  0  0  0
  191.4830  176.9170  147.7690 C   0  0  0  0  0  2  0  0  0  0  0  0
  188.1570  176.9800  146.7620 C   0  0  2  0  0  3  0  0  0  0  0  0
  189.7610  175.3780  147.1540 O   0  0  0  0  0  0  0  0  0  0  0  0
  189.3830  177.6360  146.8450 O   0  0  0  0  0  0  0  0  0  0  0  0
  190.3420  176.6080  146.8110 C   0  0  1  0  0  3  0  0  0  0  0  0
  188.4340  175.5090  146.7590 C   0  0  0  0  0  2  0  0  0  0  0  0
  187.2840  177.4620  145.5810 C   0  0  0  0  0  2  0  0  0  0  0  0
  185.8580  177.7280  145.8600 N   0  0  0  0  0  0  0  0  0  0  0  0
  185.6560  179.6420  144.5130 O   0  0  0  0  0  1  0  0  0  0  0  0
  185.1730  178.3430  144.7150 C   0  0  1  0  0  3  0  0  0  0  0  0
  185.4010  177.5310  143.4400 C   0  0  0  0  0  2  0  0  0  0  0  0
  187.0340  178.1450  141.6590 C   0  0  0  0  0  1  0  0  0  0  0  0
  184.6110  178.1970  141.1900 C   0  0  0  0  0  1  0  0  0  0  0  0
  185.6660  178.4380  142.2480 C   0  0  0  0  0  3  0  0  0  0  0  0
  185.7210  178.5610  147.0540 C   0  0  0  0  0  2  0  0  0  0  0  0
  184.3960  178.5520  147.4880 O   0  0  0  0  0  1  0  0  0  0  0  0
  2  1  1  0  0  0  0
  3 31  1  1  0  0  0
  3  1  1  0  0  0  0
  5 13  1  1  0  0  0
  5  7  1  0  0  0  0
  6  5  1  0  0  0  0
  6  3  1  0  0  0  0
  7  4  1  6  0  0  0
  7  2  1  0  0  0  0
  8 11  1  0  0  0  0
  8 12  1  0  0  0  0
  9  8  2  0  0  0  0
 10  9  1  0  0  0  0
 10 13  2  0  0  0  0
 13 14  1  0  0  0  0
 14 12  2  0  0  0  0
 15 16  3  0  0  0  0
 16 10  1  0  0  0  0
 17 15  1  1  0  0  0
 18 17  1  1  0  0  0
 18 21  1  0  0  0  0
 20 24  1  0  0  0  0
 20 18  1  0  0  0  0
 21 19  2  0  0  0  0
 22 19  1  0  0  0  0
 24 23  1  6  0  0  0
 24 22  1  0  0  0  0
 27 29  2  0  0  0  0
 28 30  1  0  0  0  0
 29 28  1  0  0  0  0
 29 25  1  0  0  0  0
 30 26  2  0  0  0  0
 30 17  1  0  0  0  0
 31 35  1  0  0  0  0
 32 34  1  0  0  0  0
 32 33  2  0  0  0  0
 33 36  1  0  0  0  0
 34 35  2  0  0  0  0
 35 37  1  0  0  0  0
 36 37  2  0  0  0  0
 37 39  1  0  0  0  0
 38 40  1  0  0  0  0
 39 38  2  0  0  0  0
 40 41  1  0  0  0  0
 42 47  1  6  0  0  0
 42 44  1  0  0  0  0
 45 44  1  0  0  0  0
 45 43  1  0  0  0  0
 45 41  1  1  0  0  0
 46 42  1  0  0  0  0
 46 43  1  0  0  0  0
 47 48  1  0  0  0  0
 48 55  1  0  0  0  0
 50 49  1  6  0  0  0
 50 48  1  0  0  0  0
 51 50  1  0  0  0  0
 52 54  1  0  0  0  0
 53 54  1  0  0  0  0
 54 51  1  0  0  0  0
 55 56  1  0  0  0  0
M  END
>  <MODEL>
3

>  <REMARK>
 VINA RESULT:      -5.9      2.900      6.765
  Name = 
  17 active torsions:
  status: ('A' for Active; 'I' for Inactive)
    1  A    between atoms: C_2  and  C_31
    2  A    between atoms: C_4  and  C_51
    3  A    between atoms: C_12  and  C_22
    4  A    between atoms: C_12  and  C_43
    5  A    between atoms: C_13  and  C_41
    6  A    between atoms: C_21  and  C_23
    7  A    between atoms: C_21  and  C_45
    8  A    between atoms: C_26  and  C_31
    9  A    between atoms: C_31  and  C_49
   10  A    between atoms: C_32  and  C_33
   11  A    between atoms: C_32  and  C_52
   12  A    between atoms: C_33  and  N_55
   13  A    between atoms: C_35  and  N_55
   14  A    between atoms: C_38  and  C_39
   15  A    between atoms: C_45  and  C_48
   16  A    between atoms: C_47  and  N_54
   17  A    between atoms: C_51  and  N_55
                            x       y       z     vdW  Elec       q    Type
                         _______ _______ _______ _____ _____    ______ ____

>  <TORSDO>
F 17

$$$$
=
 OpenBabel11042419363D

 56 60  0  0  1  0  0  0  0  0999 V2000
  193.8370  169.2320  138.4730 C   0  0  0  0  0  2  0  0  0  0  0  0
  193.0520  168.3490  139.4320 C   0  0  0  0  0  2  0  0  0  0  0  0
  194.2160  170.5820  139.1030 C   0  0  2  0  0  3  0  0  0  0  0  0
  190.9670  168.1970  140.7730 C   0  0  0  0  0  1  0  0  0  0  0  0
  191.9540  170.4490  140.3610 C   0  0  2  0  0  3  0  0  0  0  0  0
  193.4080  170.9570  140.3550 C   0  0  0  0  0  2  0  0  0  0  0  0
  191.7410  169.0420  139.7840 C   0  0  1  0  0  3  0  0  0  0  0  0
  189.1730  173.2810  138.7410 C   0  0  0  0  0  0  0  0  0  0  0  0
  189.5910  173.4240  140.0660 C   0  0  0  0  0  3  0  0  0  0  0  0
  190.4980  172.5080  140.6030 C   0  0  0  0  0  0  0  0  0  0  0  0
  188.2500  174.2100  138.1830 N   0  0  0  0  0  1  0  0  0  0  0  0
  189.6440  172.2540  137.9860 N   0  0  0  0  0  0  0  0  0  0  0  0
  190.9780  171.4520  139.8070 C   0  0  0  0  0  0  0  0  0  0  0  0
  190.5260  171.3470  138.4850 C   0  0  0  0  0  3  0  0  0  0  0  0
  191.2330  172.7560  143.1310 C   0  0  0  0  0  0  0  0  0  0  0  0
  190.9110  172.6550  141.9740 C   0  0  0  0  0  0  0  0  0  0  0  0
  191.5950  172.8560  144.5520 C   0  0  2  0  0  3  0  0  0  0  0  0
  191.0940  174.1740  145.1650 C   0  0  2  0  0  3  0  0  0  0  0  0
  189.2100  174.6850  146.7420 C   0  0  0  0  0  3  0  0  0  0  0  0
  192.0230  174.6640  146.2820 C   0  0  0  0  0  2  0  0  0  0  0  0
  189.6650  174.0470  145.6520 C   0  0  0  0  0  3  0  0  0  0  0  0
  190.1110  175.4940  147.6400 C   0  0  0  0  0  2  0  0  0  0  0  0
  192.3020  176.4060  147.8870 O   0  0  0  0  0  1  0  0  0  0  0  0
  191.4120  175.8900  146.9460 C   0  0  1  0  0  3  0  0  0  0  0  0
  195.8750  172.2340  145.3240 O   0  0  0  0  0  0  0  0  0  0  0  0
  193.8200  173.6630  144.3000 O   0  0  0  0  0  0  0  0  0  0  0  0
  195.4590  170.0890  146.0040 O   0  0  0  0  0  1  0  0  0  0  0  0
  193.6460  171.5180  145.2310 N   0  0  0  0  0  2  0  0  0  0  0  0
  195.0350  171.3130  145.5070 C   0  0  0  0  0  0  0  0  0  0  0  0
  193.0820  172.7130  144.6720 C   0  0  0  0  0  0  0  0  0  0  0  0
  194.1610  171.7000  138.0710 C   0  0  0  0  0  2  0  0  0  0  0  0
  197.6670  172.8630  137.6420 C   0  0  0  0  0  3  0  0  0  0  0  0
  197.6760  174.0840  138.3080 C   0  0  0  0  0  2  0  0  0  0  0  0
  196.5190  172.1410  137.5880 N   0  0  0  0  0  0  0  0  0  0  0  0
  195.3670  172.5810  138.1630 C   0  0  2  0  0  3  0  0  0  0  0  0
  196.5340  174.5330  138.8900 N   0  0  0  0  0  0  0  0  0  0  0  0
  195.3710  173.8290  138.8390 C   0  0  0  0  0  0  0  0  0  0  0  0
  194.2150  174.9230  140.6790 C   0  0  0  0  0  3  0  0  0  0  0  0
  194.2250  174.3930  139.5000 N   0  0  0  0  0  0  0  0  0  0  0  0
  192.9580  175.4870  141.2450 C   0  0  0  0  0  2  0  0  0  0  0  0
  193.2300  176.2400  142.5380 C   0  0  0  0  0  2  0  0  0  0  0  0
  189.9920  177.4780  142.7890 C   0  0  2  0  0  3  0  0  0  0  0  0
  192.0150  177.8490  143.8210 O   0  0  0  0  0  0  0  0  0  0  0  0
  190.8350  176.4290  142.4330 O   0  0  0  0  0  0  0  0  0  0  0  0
  191.9440  176.5530  143.2890 C   0  0  1  0  0  3  0  0  0  0  0  0
  190.6930  178.2780  143.8440 C   0  0  0  0  0  2  0  0  0  0  0  0
  188.5720  177.0150  143.1860 C   0  0  0  0  0  2  0  0  0  0  0  0
  187.4640  177.9670  142.9660 N   0  0  0  0  0  0  0  0  0  0  0  0
  185.6810  176.5450  143.5260 O   0  0  0  0  0  1  0  0  0  0  0  0
  186.3370  177.7310  143.8780 C   0  0  1  0  0  3  0  0  0  0  0  0
  186.8200  177.6140  145.3240 C   0  0  0  0  0  2  0  0  0  0  0  0
  186.1850  177.0320  147.6630 C   0  0  0  0  0  1  0  0  0  0  0  0
  184.7640  178.5540  146.3360 C   0  0  0  0  0  1  0  0  0  0  0  0
  185.6620  177.3370  146.2710 C   0  0  0  0  0  3  0  0  0  0  0  0
  187.0220  177.9170  141.5730 C   0  0  0  0  0  2  0  0  0  0  0  0
  187.4940  176.7520  140.9680 O   0  0  0  0  0  1  0  0  0  0  0  0
  1  3  1  0  0  0  0
  1  2  1  0  0  0  0
  2  7  1  0  0  0  0
  3 31  1  6  0  0  0
  3  6  1  0  0  0  0
  5 13  1  6  0  0  0
  6  5  1  0  0  0  0
  7  5  1  0  0  0  0
  7  4  1  1  0  0  0
  8  9  1  0  0  0  0
  9 10  2  0  0  0  0
 10 16  1  0  0  0  0
 11  8  1  0  0  0  0
 12 14  1  0  0  0  0
 12  8  2  0  0  0  0
 13 10  1  0  0  0  0
 14 13  2  0  0  0  0
 16 15  3  0  0  0  0
 17 15  1  6  0  0  0
 17 30  1  0  0  0  0
 18 17  1  1  0  0  0
 18 21  1  0  0  0  0
 18 20  1  0  0  0  0
 19 22  1  0  0  0  0
 20 24  1  0  0  0  0
 21 19  2  0  0  0  0
 24 22  1  0  0  0  0
 24 23  1  1  0  0  0
 25 29  2  0  0  0  0
 26 30  2  0  0  0  0
 28 29  1  0  0  0  0
 29 27  1  0  0  0  0
 30 28  1  0  0  0  0
 32 33  1  0  0  0  0
 33 36  1  0  0  0  0
 34 32  2  0  0  0  0
 34 35  1  0  0  0  0
 35 31  1  1  0  0  0
 35 37  1  0  0  0  0
 37 36  2  0  0  0  0
 37 39  1  0  0  0  0
 38 40  1  0  0  0  0
 39 38  2  0  0  0  0
 40 41  1  0  0  0  0
 42 47  1  1  0  0  0
 42 46  1  0  0  0  0
 43 46  1  0  0  0  0
 44 42  1  0  0  0  0
 44 45  1  0  0  0  0
 45 41  1  6  0  0  0
 45 43  1  0  0  0  0
 48 47  1  0  0  0  0
 48 50  1  0  0  0  0
 50 49  1  6  0  0  0
 50 51  1  0  0  0  0
 51 54  1  0  0  0  0
 54 53  1  0  0  0  0
 54 52  1  0  0  0  0
 55 48  1  0  0  0  0
 56 55  1  0  0  0  0
M  END
>  <MODEL>
4

>  <REMARK>
 VINA RESULT:      -5.9      2.422      4.034
  Name = 
  17 active torsions:
  status: ('A' for Active; 'I' for Inactive)
    1  A    between atoms: C_2  and  C_31
    2  A    between atoms: C_4  and  C_51
    3  A    between atoms: C_12  and  C_22
    4  A    between atoms: C_12  and  C_43
    5  A    between atoms: C_13  and  C_41
    6  A    between atoms: C_21  and  C_23
    7  A    between atoms: C_21  and  C_45
    8  A    between atoms: C_26  and  C_31
    9  A    between atoms: C_31  and  C_49
   10  A    between atoms: C_32  and  C_33
   11  A    between atoms: C_32  and  C_52
   12  A    between atoms: C_33  and  N_55
   13  A    between atoms: C_35  and  N_55
   14  A    between atoms: C_38  and  C_39
   15  A    between atoms: C_45  and  C_48
   16  A    between atoms: C_47  and  N_54
   17  A    between atoms: C_51  and  N_55
                            x       y       z     vdW  Elec       q    Type
                         _______ _______ _______ _____ _____    ______ ____

>  <TORSDO>
F 17

$$$$
=
 OpenBabel11042419363D

 56 60  0  0  1  0  0  0  0  0999 V2000
  193.3910  170.4130  144.9900 C   0  0  0  0  0  2  0  0  0  0  0  0
  194.8750  170.0950  145.1030 C   0  0  0  0  0  2  0  0  0  0  0  0
  193.0550  171.1700  143.6960 C   0  0  2  0  0  3  0  0  0  0  0  0
  197.1430  171.1010  145.2190 C   0  0  0  0  0  1  0  0  0  0  0  0
  195.3690  172.3090  143.9490 C   0  0  2  0  0  3  0  0  0  0  0  0
  194.2610  171.8190  142.9980 C   0  0  0  0  0  2  0  0  0  0  0  0
  195.6600  171.4000  145.1510 C   0  0  1  0  0  3  0  0  0  0  0  0
  194.9000  176.4070  145.1150 C   0  0  0  0  0  0  0  0  0  0  0  0
  195.4930  176.1170  143.8850 C   0  0  0  0  0  3  0  0  0  0  0  0
  195.6500  174.7850  143.4950 C   0  0  0  0  0  0  0  0  0  0  0  0
  194.7340  177.7610  145.5220 N   0  0  0  0  0  1  0  0  0  0  0  0
  194.4830  175.3980  145.9250 N   0  0  0  0  0  0  0  0  0  0  0  0
  195.2110  173.7520  144.3430 C   0  0  0  0  0  0  0  0  0  0  0  0
  194.6260  174.0930  145.5700 C   0  0  0  0  0  3  0  0  0  0  0  0
  196.7710  174.2480  141.1600 C   0  0  0  0  0  0  0  0  0  0  0  0
  196.2770  174.4960  142.2320 C   0  0  0  0  0  0  0  0  0  0  0  0
  197.3370  173.9370  139.8400 C   0  0  2  0  0  3  0  0  0  0  0  0
  196.8350  174.9190  138.7700 C   0  0  2  0  0  3  0  0  0  0  0  0
  197.7180  175.5280  136.5010 C   0  0  0  0  0  3  0  0  0  0  0  0
  195.6110  174.3680  138.0300 C   0  0  0  0  0  2  0  0  0  0  0  0
  197.9410  175.2950  137.8050 C   0  0  0  0  0  3  0  0  0  0  0  0
  196.3660  175.3290  135.8630 C   0  0  0  0  0  2  0  0  0  0  0  0
  194.0630  174.8730  136.2880 O   0  0  0  0  0  1  0  0  0  0  0  0
  195.2400  175.3110  136.8940 C   0  0  1  0  0  3  0  0  0  0  0  0
  196.1210  169.7540  139.2690 O   0  0  0  0  0  0  0  0  0  0  0  0
  197.8550  171.8010  138.9250 O   0  0  0  0  0  0  0  0  0  0  0  0
  194.0210  170.2410  140.0360 O   0  0  0  0  0  1  0  0  0  0  0  0
  195.7110  171.9850  139.8570 N   0  0  0  0  0  2  0  0  0  0  0  0
  195.3120  170.6200  139.6970 C   0  0  0  0  0  0  0  0  0  0  0  0
  196.9950  172.5180  139.5010 C   0  0  0  0  0  0  0  0  0  0  0  0
  191.9540  172.1940  143.9320 C   0  0  0  0  0  2  0  0  0  0  0  0
  190.0710  171.6380  140.7730 C   0  0  0  0  0  3  0  0  0  0  0  0
  189.8930  172.9280  140.2840 C   0  0  0  0  0  3  0  0  0  0  0  0
  190.7290  171.4550  141.9460 N   0  0  0  0  0  0  0  0  0  0  0  0
  191.2190  172.5010  142.6650 C   0  0  0  0  0  0  0  0  0  0  0  0
  190.3800  173.9800  140.9900 N   0  0  0  0  0  0  0  0  0  0  0  0
  191.0350  173.8190  142.1710 C   0  0  0  0  0  0  0  0  0  0  0  0
  190.8160  176.0500  143.1170 C   0  0  0  0  0  3  0  0  0  0  0  0
  191.5190  175.0030  142.8290 N   0  0  0  0  0  0  0  0  0  0  0  0
  191.4360  177.2090  143.8160 C   0  0  0  0  0  2  0  0  0  0  0  0
  190.8340  177.4000  145.1990 C   0  0  0  0  0  2  0  0  0  0  0  0
  187.4820  177.0730  146.0590 C   0  0  2  0  0  3  0  0  0  0  0  0
  189.4710  176.0850  146.6580 O   0  0  0  0  0  0  0  0  0  0  0  0
  188.4310  177.4520  145.1130 O   0  0  0  0  0  0  0  0  0  0  0  0
  189.5380  176.6200  145.3630 C   0  0  1  0  0  3  0  0  0  0  0  0
  188.1090  176.0320  146.9330 C   0  0  0  0  0  2  0  0  0  0  0  0
  186.1330  176.6460  145.4350 C   0  0  0  0  0  2  0  0  0  0  0  0
  185.0980  177.6890  145.2860 N   0  0  0  0  0  0  0  0  0  0  0  0
  184.7870  179.3300  143.6360 O   0  0  0  0  0  1  0  0  0  0  0  0
  184.7700  177.9510  143.8790 C   0  0  1  0  0  3  0  0  0  0  0  0
  185.7770  177.2760  142.9480 C   0  0  0  0  0  2  0  0  0  0  0  0
  187.7950  177.8960  141.6220 C   0  0  0  0  0  1  0  0  0  0  0  0
  185.5380  178.2490  140.6840 C   0  0  0  0  0  1  0  0  0  0  0  0
  186.3620  178.2690  141.9540 C   0  0  0  0  0  3  0  0  0  0  0  0
  185.5150  178.9180  145.9590 C   0  0  0  0  0  2  0  0  0  0  0  0
  184.9990  178.9480  147.2540 O   0  0  0  0  0  1  0  0  0  0  0  0
  1  2  1  0  0  0  0
  2  7  1  0  0  0  0
  3 31  1  1  0  0  0
  3  1  1  0  0  0  0
  5 13  1  1  0  0  0
  5  7  1  0  0  0  0
  6  3  1  0  0  0  0
  6  5  1  0  0  0  0
  7  4  1  6  0  0  0
  8 11  1  0  0  0  0
  8 12  1  0  0  0  0
  9  8  2  0  0  0  0
 10  9  1  0  0  0  0
 10 13  2  0  0  0  0
 13 14  1  0  0  0  0
 14 12  2  0  0  0  0
 15 16  3  0  0  0  0
 16 10  1  0  0  0  0
 17 15  1  1  0  0  0
 18 17  1  1  0  0  0
 19 21  2  0  0  0  0
 20 18  1  0  0  0  0
 21 18  1  0  0  0  0
 22 19  1  0  0  0  0
 22 24  1  0  0  0  0
 24 23  1  6  0  0  0
 24 20  1  0  0  0  0
 25 29  2  0  0  0  0
 26 30  2  0  0  0  0
 29 28  1  0  0  0  0
 29 27  1  0  0  0  0
 30 17  1  0  0  0  0
 30 28  1  0  0  0  0
 32 34  1  0  0  0  0
 33 32  2  0  0  0  0
 33 36  1  0  0  0  0
 34 35  2  0  0  0  0
 35 31  1  0  0  0  0
 36 37  2  0  0  0  0
 37 35  1  0  0  0  0
 37 39  1  0  0  0  0
 38 40  1  0  0  0  0
 39 38  2  0  0  0  0
 40 41  1  0  0  0  0
 42 47  1  6  0  0  0
 42 46  1  0  0  0  0
 43 46  1  0  0  0  0
 44 45  1  0  0  0  0
 44 42  1  0  0  0  0
 45 41  1  1  0  0  0
 45 43  1  0  0  0  0
 48 47  1  0  0  0  0
 48 55  1  0  0  0  0
 50 49  1  1  0  0  0
 50 48  1  0  0  0  0
 51 50  1  0  0  0  0
 52 54  1  0  0  0  0
 53 54  1  0  0  0  0
 54 51  1  0  0  0  0
 55 56  1  0  0  0  0
M  END
>  <MODEL>
5

>  <REMARK>
 VINA RESULT:      -5.8      3.045      7.835
  Name = 
  17 active torsions:
  status: ('A' for Active; 'I' for Inactive)
    1  A    between atoms: C_2  and  C_31
    2  A    between atoms: C_4  and  C_51
    3  A    between atoms: C_12  and  C_22
    4  A    between atoms: C_12  and  C_43
    5  A    between atoms: C_13  and  C_41
    6  A    between atoms: C_21  and  C_23
    7  A    between atoms: C_21  and  C_45
    8  A    between atoms: C_26  and  C_31
    9  A    between atoms: C_31  and  C_49
   10  A    between atoms: C_32  and  C_33
   11  A    between atoms: C_32  and  C_52
   12  A    between atoms: C_33  and  N_55
   13  A    between atoms: C_35  and  N_55
   14  A    between atoms: C_38  and  C_39
   15  A    between atoms: C_45  and  C_48
   16  A    between atoms: C_47  and  N_54
   17  A    between atoms: C_51  and  N_55
                            x       y       z     vdW  Elec       q    Type
                         _______ _______ _______ _____ _____    ______ ____

>  <TORSDO>
F 17

$$$$
=
 OpenBabel11042419363D

 56 60  0  0  1  0  0  0  0  0999 V2000
  194.2230  172.0870  139.5730 C   0  0  0  0  0  2  0  0  0  0  0  0
  193.3440  170.8890  139.9030 C   0  0  0  0  0  2  0  0  0  0  0  0
  193.5900  173.4140  140.0200 C   0  0  2  0  0  3  0  0  0  0  0  0
  191.1240  169.8530  139.4980 C   0  0  0  0  0  1  0  0  0  0  0  0
  191.3060  172.3390  139.4320 C   0  0  2  0  0  3  0  0  0  0  0  0
  192.0810  173.3430  140.3050 C   0  0  0  0  0  2  0  0  0  0  0  0
  192.0280  171.0150  139.1450 C   0  0  1  0  0  3  0  0  0  0  0  0
  189.6970  174.0890  135.8650 C   0  0  0  0  0  0  0  0  0  0  0  0
  189.0680  174.3400  137.0850 C   0  0  0  0  0  3  0  0  0  0  0  0
  189.5840  173.7760  138.2540 C   0  0  0  0  0  0  0  0  0  0  0  0
  189.1800  174.6600  134.6680 N   0  0  0  0  0  1  0  0  0  0  0  0
  190.8020  173.2980  135.8180 N   0  0  0  0  0  0  0  0  0  0  0  0
  190.7290  172.9610  138.1900 C   0  0  0  0  0  0  0  0  0  0  0  0
  191.3230  172.7350  136.9410 C   0  0  0  0  0  3  0  0  0  0  0  0
  188.3830  174.2660  140.5590 C   0  0  0  0  0  0  0  0  0  0  0  0
  188.9190  174.0280  139.5050 C   0  0  0  0  0  0  0  0  0  0  0  0
  187.7580  174.5820  141.8510 C   0  0  2  0  0  3  0  0  0  0  0  0
  187.4390  176.0810  141.9650 C   0  0  2  0  0  3  0  0  0  0  0  0
  186.4080  177.7070  140.3550 C   0  0  0  0  0  3  0  0  0  0  0  0
  186.2070  176.3290  142.8420 C   0  0  0  0  0  2  0  0  0  0  0  0
  187.2810  176.7160  140.5980 C   0  0  0  0  0  3  0  0  0  0  0  0
  185.4310  178.1980  141.3940 C   0  0  0  0  0  2  0  0  0  0  0  0
  184.8010  178.0590  143.6910 O   0  0  0  0  0  1  0  0  0  0  0  0
  185.8520  177.8100  142.8090 C   0  0  1  0  0  3  0  0  0  0  0  0
  190.3220  172.7860  144.9340 O   0  0  0  0  0  1  0  0  0  0  0  0
  188.6740  174.7370  144.0430 O   0  0  0  0  0  0  0  0  0  0  0  0
  191.1350  171.2860  143.4090 O   0  0  0  0  0  0  0  0  0  0  0  0
  189.5100  172.9730  142.7440 N   0  0  0  0  0  2  0  0  0  0  0  0
  190.3320  172.3660  143.7460 C   0  0  0  0  0  0  0  0  0  0  0  0
  188.6720  174.1200  142.9440 C   0  0  0  0  0  0  0  0  0  0  0  0
  193.8990  174.5280  139.0290 C   0  0  0  0  0  2  0  0  0  0  0  0
  196.9060  173.5820  137.0540 C   0  0  0  0  0  3  0  0  0  0  0  0
  197.9330  174.2570  137.7060 C   0  0  0  0  0  3  0  0  0  0  0  0
  195.6330  173.7050  137.5100 N   0  0  0  0  0  0  0  0  0  0  0  0
  195.3280  174.4770  138.5880 C   0  0  0  0  0  0  0  0  0  0  0  0
  197.6430  175.0280  138.7850 N   0  0  0  0  0  0  0  0  0  0  0  0
  196.3730  175.1710  139.2520 C   0  0  0  0  0  0  0  0  0  0  0  0
  196.2970  175.6270  141.6400 C   0  0  0  0  0  3  0  0  0  0  0  0
  196.1820  176.0040  140.4090 N   0  0  0  0  0  0  0  0  0  0  0  0
  196.0850  176.5960  142.7510 C   0  0  0  0  0  2  0  0  0  0  0  0
  196.0900  175.8920  144.1000 C   0  0  0  0  0  2  0  0  0  0  0  0
  192.9440  176.2500  145.5330 C   0  0  2  0  0  3  0  0  0  0  0  0
  194.7430  174.8350  145.7670 O   0  0  0  0  0  0  0  0  0  0  0  0
  193.7780  176.4590  144.4380 O   0  0  0  0  0  0  0  0  0  0  0  0
  194.7020  175.4000  144.4840 C   0  0  1  0  0  3  0  0  0  0  0  0
  193.4690  175.0610  146.2770 C   0  0  0  0  0  2  0  0  0  0  0  0
  191.4490  176.1490  145.1540 C   0  0  0  0  0  2  0  0  0  0  0  0
  190.5490  177.2010  145.6680 N   0  0  0  0  0  0  0  0  0  0  0  0
  190.1630  175.9180  147.5970 O   0  0  0  0  0  1  0  0  0  0  0  0
  189.5390  176.6680  146.5910 C   0  0  1  0  0  3  0  0  0  0  0  0
  188.7430  177.7980  147.2440 C   0  0  0  0  0  2  0  0  0  0  0  0
  186.4280  178.7150  147.1270 C   0  0  0  0  0  1  0  0  0  0  0  0
  186.9200  176.4710  146.2220 C   0  0  0  0  0  1  0  0  0  0  0  0
  187.2610  177.4600  147.3160 C   0  0  0  0  0  3  0  0  0  0  0  0
  189.9130  177.9110  144.5580 C   0  0  0  0  0  2  0  0  0  0  0  0
  190.8880  178.4250  143.7040 O   0  0  0  0  0  1  0  0  0  0  0  0
  1  2  1  0  0  0  0
  1  3  1  0  0  0  0
  3 31  1  6  0  0  0
  3  6  1  0  0  0  0
  5 13  1  6  0  0  0
  5  6  1  0  0  0  0
  7  5  1  0  0  0  0
  7  4  1  1  0  0  0
  7  2  1  0  0  0  0
  8  9  1  0  0  0  0
  9 10  2  0  0  0  0
 10 16  1  0  0  0  0
 11  8  1  0  0  0  0
 12  8  2  0  0  0  0
 12 14  1  0  0  0  0
 13 10  1  0  0  0  0
 14 13  2  0  0  0  0
 16 15  3  0  0  0  0
 17 15  1  6  0  0  0
 17 30  1  0  0  0  0
 18 17  1  6  0  0  0
 18 20  1  0  0  0  0
 19 21  2  0  0  0  0
 19 22  1  0  0  0  0
 21 18  1  0  0  0  0
 22 24  1  0  0  0  0
 24 20  1  0  0  0  0
 24 23  1  1  0  0  0
 27 29  2  0  0  0  0
 28 30  1  0  0  0  0
 28 29  1  0  0  0  0
 29 25  1  0  0  0  0
 30 26  2  0  0  0  0
 32 34  1  0  0  0  0
 32 33  2  0  0  0  0
 33 36  1  0  0  0  0
 34 35  2  0  0  0  0
 35 31  1  0  0  0  0
 35 37  1  0  0  0  0
 36 37  2  0  0  0  0
 37 39  1  0  0  0  0
 38 40  1  0  0  0  0
 39 38  2  0  0  0  0
 40 41  1  0  0  0  0
 42 47  1  6  0  0  0
 42 46  1  0  0  0  0
 43 46  1  0  0  0  0
 44 45  1  0  0  0  0
 44 42  1  0  0  0  0
 45 41  1  1  0  0  0
 45 43  1  0  0  0  0
 47 48  1  0  0  0  0
 48 50  1  0  0  0  0
 50 51  1  0  0  0  0
 50 49  1  1  0  0  0
 51 54  1  0  0  0  0
 52 54  1  0  0  0  0
 53 54  1  0  0  0  0
 55 48  1  0  0  0  0
 56 55  1  0  0  0  0
M  END
>  <MODEL>
6

>  <REMARK>
 VINA RESULT:      -5.7      1.621      2.177
  Name = 
  17 active torsions:
  status: ('A' for Active; 'I' for Inactive)
    1  A    between atoms: C_2  and  C_31
    2  A    between atoms: C_4  and  C_51
    3  A    between atoms: C_12  and  C_22
    4  A    between atoms: C_12  and  C_43
    5  A    between atoms: C_13  and  C_41
    6  A    between atoms: C_21  and  C_23
    7  A    between atoms: C_21  and  C_45
    8  A    between atoms: C_26  and  C_31
    9  A    between atoms: C_31  and  C_49
   10  A    between atoms: C_32  and  C_33
   11  A    between atoms: C_32  and  C_52
   12  A    between atoms: C_33  and  N_55
   13  A    between atoms: C_35  and  N_55
   14  A    between atoms: C_38  and  C_39
   15  A    between atoms: C_45  and  C_48
   16  A    between atoms: C_47  and  N_54
   17  A    between atoms: C_51  and  N_55
                            x       y       z     vdW  Elec       q    Type
                         _______ _______ _______ _____ _____    ______ ____

>  <TORSDO>
F 17

$$$$
=
 OpenBabel11042419363D

 56 60  0  0  1  0  0  0  0  0999 V2000
  193.9960  175.3170  143.1460 C   0  0  0  0  0  2  0  0  0  0  0  0
  192.9240  176.1450  142.4520 C   0  0  0  0  0  2  0  0  0  0  0  0
  193.3960  174.2170  144.0350 C   0  0  2  0  0  3  0  0  0  0  0  0
  190.9840  177.6490  142.8350 C   0  0  0  0  0  1  0  0  0  0  0  0
  191.4730  175.8840  144.5270 C   0  0  2  0  0  3  0  0  0  0  0  0
  191.9140  174.4140  144.3920 C   0  0  0  0  0  2  0  0  0  0  0  0
  192.0850  176.8550  143.5070 C   0  0  1  0  0  3  0  0  0  0  0  0
  191.7800  177.3500  148.5440 C   0  0  0  0  0  0  0  0  0  0  0  0
  190.5130  177.1710  147.9830 C   0  0  0  0  0  3  0  0  0  0  0  0
  190.4020  176.6930  146.6750 C   0  0  0  0  0  0  0  0  0  0  0  0
  191.9040  177.8360  149.8760 N   0  0  0  0  0  1  0  0  0  0  0  0
  192.8920  177.0630  147.8180 N   0  0  0  0  0  0  0  0  0  0  0  0
  191.5640  176.3980  145.9380 C   0  0  0  0  0  0  0  0  0  0  0  0
  192.8120  176.5980  146.5420 C   0  0  0  0  0  3  0  0  0  0  0  0
  187.9880  176.3660  145.6460 C   0  0  0  0  0  0  0  0  0  0  0  0
  189.0930  176.5270  146.1010 C   0  0  0  0  0  0  0  0  0  0  0  0
  186.6340  176.1450  145.1190 C   0  0  2  0  0  3  0  0  0  0  0  0
  186.5710  176.4190  143.6080 C   0  0  2  0  0  3  0  0  0  0  0  0
  187.2680  178.3970  142.2290 C   0  0  0  0  0  3  0  0  0  0  0  0
  187.6530  175.6420  142.8490 C   0  0  0  0  0  2  0  0  0  0  0  0
  186.6490  177.9040  143.3140 C   0  0  0  0  0  3  0  0  0  0  0  0
  188.0330  177.5250  141.2670 C   0  0  0  0  0  2  0  0  0  0  0  0
  188.5430  175.2720  140.6670 O   0  0  0  0  0  1  0  0  0  0  0  0
  187.6380  176.0550  141.3830 C   0  0  1  0  0  3  0  0  0  0  0  0
  184.1820  178.7330  147.6860 O   0  0  0  0  0  0  0  0  0  0  0  0
  184.4700  176.6720  145.9580 O   0  0  0  0  0  0  0  0  0  0  0  0
  185.9400  180.1760  147.9410 O   0  0  0  0  0  1  0  0  0  0  0  0
  186.1560  178.1920  146.5440 N   0  0  0  0  0  2  0  0  0  0  0  0
  185.3720  179.0300  147.4010 C   0  0  0  0  0  0  0  0  0  0  0  0
  185.6810  177.0100  145.8840 C   0  0  0  0  0  0  0  0  0  0  0  0
  194.2310  174.0160  145.2930 C   0  0  0  0  0  2  0  0  0  0  0  0
  194.8800  170.3890  145.8000 C   0  0  0  0  0  3  0  0  0  0  0  0
  196.1740  170.2320  145.3150 C   0  0  0  0  0  2  0  0  0  0  0  0
  194.3000  171.6150  145.7650 N   0  0  0  0  0  0  0  0  0  0  0  0
  194.9460  172.7020  145.2630 C   0  0  2  0  0  3  0  0  0  0  0  0
  196.8320  171.3080  144.8130 N   0  0  0  0  0  0  0  0  0  0  0  0
  196.2650  172.5440  144.7620 C   0  0  0  0  0  0  0  0  0  0  0  0
  197.0850  173.9850  142.9820 C   0  0  0  0  0  3  0  0  0  0  0  0
  197.0570  173.6160  144.2210 N   0  0  0  0  0  0  0  0  0  0  0  0
  197.9410  175.1250  142.5520 C   0  0  0  0  0  2  0  0  0  0  0  0
  197.5640  175.5960  141.1560 C   0  0  0  0  0  2  0  0  0  0  0  0
  196.0340  173.9070  138.5320 C   0  0  2  0  0  3  0  0  0  0  0  0
  195.4530  175.5480  140.0370 O   0  0  0  0  0  0  0  0  0  0  0  0
  197.0080  173.9170  139.5270 O   0  0  0  0  0  0  0  0  0  0  0  0
  196.4730  174.7300  140.5440 C   0  0  1  0  0  3  0  0  0  0  0  0
  194.9310  174.8180  138.9740 C   0  0  0  0  0  2  0  0  0  0  0  0
  195.5630  172.4850  138.1500 C   0  0  0  0  0  2  0  0  0  0  0  0
  194.1350  172.1680  138.3540 N   0  0  0  0  0  0  0  0  0  0  0  0
  194.8060  171.3870  140.4650 O   0  0  0  0  0  1  0  0  0  0  0  0
  193.9330  171.1510  139.3950 C   0  0  1  0  0  3  0  0  0  0  0  0
  192.4970  171.1800  139.9160 C   0  0  0  0  0  2  0  0  0  0  0  0
  191.6040  173.3930  140.6340 C   0  0  0  0  0  1  0  0  0  0  0  0
  191.5780  171.4810  142.1960 C   0  0  0  0  0  1  0  0  0  0  0  0
  192.3510  172.1500  141.0800 C   0  0  0  0  0  3  0  0  0  0  0  0
  193.5240  171.7480  137.0940 C   0  0  0  0  0  2  0  0  0  0  0  0
  193.3700  172.8490  136.2520 O   0  0  0  0  0  1  0  0  0  0  0  0
  1  3  1  0  0  0  0
  2  1  1  0  0  0  0
  2  7  1  0  0  0  0
  3  6  1  0  0  0  0
  3 31  1  1  0  0  0
  5 13  1  1  0  0  0
  6  5  1  0  0  0  0
  7  4  1  6  0  0  0
  7  5  1  0  0  0  0
  8 11  1  0  0  0  0
  9  8  1  0  0  0  0
 10  9  2  0  0  0  0
 12  8  2  0  0  0  0
 13 14  2  0  0  0  0
 13 10  1  0  0  0  0
 14 12  1  0  0  0  0
 15 16  3  0  0  0  0
 16 10  1  0  0  0  0
 17 15  1  1  0  0  0
 17 30  1  0  0  0  0
 18 17  1  1  0  0  0
 19 21  2  0  0  0  0
 20 18  1  0  0  0  0
 21 18  1  0  0  0  0
 22 24  1  0  0  0  0
 22 19  1  0  0  0  0
 24 23  1  6  0  0  0
 24 20  1  0  0  0  0
 28 29  1  0  0  0  0
 29 25  2  0  0  0  0
 29 27  1  0  0  0  0
 30 26  2  0  0  0  0
 30 28  1  0  0  0  0
 33 32  1  0  0  0  0
 34 32  2  0  0  0  0
 35 31  1  1  0  0  0
 35 34  1  0  0  0  0
 36 33  1  0  0  0  0
 37 36  2  0  0  0  0
 37 35  1  0  0  0  0
 38 39  2  0  0  0  0
 39 37  1  0  0  0  0
 40 38  1  0  0  0  0
 41 40  1  0  0  0  0
 42 47  1  1  0  0  0
 42 46  1  0  0  0  0
 42 44  1  0  0  0  0
 43 45  1  0  0  0  0
 44 45  1  0  0  0  0
 45 41  1  6  0  0  0
 46 43  1  0  0  0  0
 47 48  1  0  0  0  0
 48 50  1  0  0  0  0
 50 51  1  0  0  0  0
 50 49  1  1  0  0  0
 51 54  1  0  0  0  0
 52 54  1  0  0  0  0
 54 53  1  0  0  0  0
 55 48  1  0  0  0  0
 56 55  1  0  0  0  0
M  END
>  <MODEL>
7

>  <REMARK>
 VINA RESULT:      -5.6      3.221      8.488
  Name = 
  17 active torsions:
  status: ('A' for Active; 'I' for Inactive)
    1  A    between atoms: C_2  and  C_31
    2  A    between atoms: C_4  and  C_51
    3  A    between atoms: C_12  and  C_22
    4  A    between atoms: C_12  and  C_43
    5  A    between atoms: C_13  and  C_41
    6  A    between atoms: C_21  and  C_23
    7  A    between atoms: C_21  and  C_45
    8  A    between atoms: C_26  and  C_31
    9  A    between atoms: C_31  and  C_49
   10  A    between atoms: C_32  and  C_33
   11  A    between atoms: C_32  and  C_52
   12  A    between atoms: C_33  and  N_55
   13  A    between atoms: C_35  and  N_55
   14  A    between atoms: C_38  and  C_39
   15  A    between atoms: C_45  and  C_48
   16  A    between atoms: C_47  and  N_54
   17  A    between atoms: C_51  and  N_55
                            x       y       z     vdW  Elec       q    Type
                         _______ _______ _______ _____ _____    ______ ____

>  <TORSDO>
F 17

$$$$
=
 OpenBabel11042419363D

 56 60  0  0  1  0  0  0  0  0999 V2000
  187.1650  175.9350  142.9510 C   0  0  0  0  0  2  0  0  0  0  0  0
  187.0590  174.8430  141.8970 C   0  0  0  0  0  2  0  0  0  0  0  0
  188.4030  176.8220  142.7460 C   0  0  2  0  0  3  0  0  0  0  0  0
  188.2020  172.8570  140.9380 C   0  0  0  0  0  1  0  0  0  0  0  0
  189.5990  174.6850  141.9000 C   0  0  2  0  0  3  0  0  0  0  0  0
  189.4840  176.2190  141.8350 C   0  0  0  0  0  2  0  0  0  0  0  0
  188.2700  173.9240  142.0100 C   0  0  1  0  0  3  0  0  0  0  0  0
  192.4640  173.3390  144.7910 C   0  0  0  0  0  0  0  0  0  0  0  0
  192.8650  173.4990  143.4630 C   0  0  0  0  0  3  0  0  0  0  0  0
  191.9400  173.9380  142.5130 C   0  0  0  0  0  0  0  0  0  0  0  0
  193.3990  172.8940  145.7670 N   0  0  0  0  0  1  0  0  0  0  0  0
  191.1810  173.6070  145.1510 N   0  0  0  0  0  0  0  0  0  0  0  0
  190.6160  174.2130  142.9020 C   0  0  0  0  0  0  0  0  0  0  0  0
  190.2600  174.0330  144.2460 C   0  0  0  0  0  3  0  0  0  0  0  0
  192.7440  174.1970  140.0070 C   0  0  0  0  0  0  0  0  0  0  0  0
  192.3600  174.0840  141.1440 C   0  0  0  0  0  0  0  0  0  0  0  0
  193.2470  174.3260  138.6320 C   0  0  2  0  0  3  0  0  0  0  0  0
  192.5130  173.3720  137.6760 C   0  0  2  0  0  3  0  0  0  0  0  0
  190.7630  171.6180  138.0700 C   0  0  0  0  0  3  0  0  0  0  0  0
  191.4440  174.1070  136.8590 C   0  0  0  0  0  2  0  0  0  0  0  0
  191.9250  172.1920  138.4210 C   0  0  0  0  0  3  0  0  0  0  0  0
  189.8880  172.1680  136.9720 C   0  0  0  0  0  2  0  0  0  0  0  0
  189.7570  173.7700  135.2080 O   0  0  0  0  0  1  0  0  0  0  0  0
  190.6560  173.0980  136.0350 C   0  0  1  0  0  3  0  0  0  0  0  0
  197.5740  173.6980  138.2060 O   0  0  0  0  0  1  0  0  0  0  0  0
  195.1780  173.1130  139.3150 O   0  0  0  0  0  0  0  0  0  0  0  0
  197.7520  175.6260  136.9850 O   0  0  0  0  0  0  0  0  0  0  0  0
  195.6000  174.9170  137.8780 N   0  0  0  0  0  2  0  0  0  0  0  0
  197.0070  174.7100  137.7140 C   0  0  0  0  0  0  0  0  0  0  0  0
  194.7240  174.0780  138.6440 C   0  0  0  0  0  0  0  0  0  0  0  0
  188.9990  177.2450  144.0820 C   0  0  0  0  0  2  0  0  0  0  0  0
  185.8380  178.6450  145.4550 C   0  0  0  0  0  3  0  0  0  0  0  0
  185.9060  178.3070  146.8030 C   0  0  0  0  0  3  0  0  0  0  0  0
  186.8470  178.2780  144.6240 N   0  0  0  0  0  0  0  0  0  0  0  0
  187.9270  177.5800  145.0700 C   0  0  0  0  0  0  0  0  0  0  0  0
  186.9790  177.6150  147.2620 N   0  0  0  0  0  0  0  0  0  0  0  0
  187.9970  177.2300  146.4450 C   0  0  0  0  0  0  0  0  0  0  0  0
  190.2350  177.0110  147.3720 C   0  0  0  0  0  3  0  0  0  0  0  0
  189.0900  176.5100  147.0400 N   0  0  0  0  0  0  0  0  0  0  0  0
  191.2820  176.1560  147.9960 C   0  0  0  0  0  2  0  0  0  0  0  0
  192.6570  176.7930  147.8650 C   0  0  0  0  0  2  0  0  0  0  0  0
  194.6590  177.3750  145.0830 C   0  0  2  0  0  3  0  0  0  0  0  0
  192.5070  176.6650  145.4830 O   0  0  0  0  0  0  0  0  0  0  0  0
  194.5730  177.0590  146.4370 O   0  0  0  0  0  0  0  0  0  0  0  0
  193.3460  176.3840  146.5710 C   0  0  1  0  0  3  0  0  0  0  0  0
  193.3850  176.9270  144.4370 C   0  0  0  0  0  2  0  0  0  0  0  0
  195.9370  176.8300  144.4070 C   0  0  0  0  0  2  0  0  0  0  0  0
  195.8900  175.4480  143.8880 N   0  0  0  0  0  0  0  0  0  0  0  0
  196.3770  174.1450  145.7800 O   0  0  0  0  0  1  0  0  0  0  0  0
  196.8730  174.5740  144.5430 C   0  0  1  0  0  3  0  0  0  0  0  0
  197.1740  173.3480  143.6820 C   0  0  0  0  0  2  0  0  0  0  0  0
  195.7580  171.3060  143.4850 C   0  0  0  0  0  1  0  0  0  0  0  0
  197.9350  171.1970  144.6440 C   0  0  0  0  0  1  0  0  0  0  0  0
  196.7270  172.0670  144.3710 C   0  0  0  0  0  3  0  0  0  0  0  0
  196.0780  175.4440  142.4380 C   0  0  0  0  0  2  0  0  0  0  0  0
  195.9520  176.7410  141.9400 O   0  0  0  0  0  1  0  0  0  0  0  0
  2  7  1  0  0  0  0
  2  1  1  0  0  0  0
  3  1  1  0  0  0  0
  3 31  1  1  0  0  0
  5  7  1  0  0  0  0
  5 13  1  1  0  0  0
  6  5  1  0  0  0  0
  6  3  1  0  0  0  0
  7  4  1  6  0  0  0
  8 12  1  0  0  0  0
  8 11  1  0  0  0  0
  9  8  2  0  0  0  0
 10 13  2  0  0  0  0
 10  9  1  0  0  0  0
 13 14  1  0  0  0  0
 14 12  2  0  0  0  0
 15 16  3  0  0  0  0
 16 10  1  0  0  0  0
 17 30  1  0  0  0  0
 17 15  1  1  0  0  0
 18 21  1  0  0  0  0
 18 17  1  1  0  0  0
 19 21  2  0  0  0  0
 20 18  1  0  0  0  0
 22 19  1  0  0  0  0
 24 23  1  6  0  0  0
 24 20  1  0  0  0  0
 24 22  1  0  0  0  0
 27 29  2  0  0  0  0
 28 30  1  0  0  0  0
 29 28  1  0  0  0  0
 29 25  1  0  0  0  0
 30 26  2  0  0  0  0
 31 35  1  0  0  0  0
 32 33  2  0  0  0  0
 33 36  1  0  0  0  0
 34 35  2  0  0  0  0
 34 32  1  0  0  0  0
 35 37  1  0  0  0  0
 37 39  1  0  0  0  0
 37 36  2  0  0  0  0
 38 40  1  0  0  0  0
 39 38  2  0  0  0  0
 41 40  1  0  0  0  0
 42 47  1  6  0  0  0
 42 44  1  0  0  0  0
 43 45  1  0  0  0  0
 44 45  1  0  0  0  0
 45 41  1  1  0  0  0
 46 42  1  0  0  0  0
 46 43  1  0  0  0  0
 48 47  1  0  0  0  0
 48 50  1  0  0  0  0
 50 49  1  1  0  0  0
 51 54  1  0  0  0  0
 51 50  1  0  0  0  0
 52 54  1  0  0  0  0
 54 53  1  0  0  0  0
 55 48  1  0  0  0  0
 56 55  1  0  0  0  0
M  END
>  <MODEL>
8

>  <REMARK>
 VINA RESULT:      -5.5      2.895      8.464
  Name = 
  17 active torsions:
  status: ('A' for Active; 'I' for Inactive)
    1  A    between atoms: C_2  and  C_31
    2  A    between atoms: C_4  and  C_51
    3  A    between atoms: C_12  and  C_22
    4  A    between atoms: C_12  and  C_43
    5  A    between atoms: C_13  and  C_41
    6  A    between atoms: C_21  and  C_23
    7  A    between atoms: C_21  and  C_45
    8  A    between atoms: C_26  and  C_31
    9  A    between atoms: C_31  and  C_49
   10  A    between atoms: C_32  and  C_33
   11  A    between atoms: C_32  and  C_52
   12  A    between atoms: C_33  and  N_55
   13  A    between atoms: C_35  and  N_55
   14  A    between atoms: C_38  and  C_39
   15  A    between atoms: C_45  and  C_48
   16  A    between atoms: C_47  and  N_54
   17  A    between atoms: C_51  and  N_55
                            x       y       z     vdW  Elec       q    Type
                         _______ _______ _______ _____ _____    ______ ____

>  <TORSDO>
F 17

$$$$
=
 OpenBabel11042419363D

 56 60  0  0  1  0  0  0  0  0999 V2000
  189.3340  176.9580  146.6430 C   0  0  0  0  0  2  0  0  0  0  0  0
  190.1760  176.0060  147.4810 C   0  0  0  0  0  2  0  0  0  0  0  0
  188.7860  176.2860  145.3740 C   0  0  2  0  0  3  0  0  0  0  0  0
  192.2140  174.5860  147.4720 C   0  0  0  0  0  1  0  0  0  0  0  0
  191.0010  174.9410  145.3220 C   0  0  2  0  0  3  0  0  0  0  0  0
  189.5010  174.9860  144.9750 C   0  0  0  0  0  2  0  0  0  0  0  0
  191.3880  175.5690  146.6680 C   0  0  1  0  0  3  0  0  0  0  0  0
  193.4890  176.3170  142.1140 C   0  0  0  0  0  0  0  0  0  0  0  0
  193.5710  174.9810  142.5090 C   0  0  0  0  0  3  0  0  0  0  0  0
  192.7640  174.5210  143.5520 C   0  0  0  0  0  0  0  0  0  0  0  0
  194.3060  176.7960  141.0510 N   0  0  0  0  0  1  0  0  0  0  0  0
  192.6320  177.1620  142.7460 N   0  0  0  0  0  0  0  0  0  0  0  0
  191.8800  175.4080  144.1940 C   0  0  0  0  0  0  0  0  0  0  0  0
  191.8370  176.7410  143.7660 C   0  0  0  0  0  3  0  0  0  0  0  0
  192.9750  171.9870  144.2790 C   0  0  0  0  0  0  0  0  0  0  0  0
  192.8670  173.1450  143.9620 C   0  0  0  0  0  0  0  0  0  0  0  0
  193.1300  170.5690  144.6350 C   0  0  2  0  0  3  0  0  0  0  0  0
  194.6110  170.1940  144.8020 C   0  0  2  0  0  3  0  0  0  0  0  0
  196.6990  171.5840  144.8710 C   0  0  0  0  0  3  0  0  0  0  0  0
  194.9360  169.8220  146.2530 C   0  0  0  0  0  2  0  0  0  0  0  0
  195.5190  171.2970  144.2980 C   0  0  0  0  0  3  0  0  0  0  0  0
  197.1720  170.9070  146.1320 C   0  0  0  0  0  2  0  0  0  0  0  0
  196.7240  169.1500  147.6830 O   0  0  0  0  0  1  0  0  0  0  0  0
  196.4360  169.5950  146.3930 C   0  0  1  0  0  3  0  0  0  0  0  0
  190.7820  168.4160  141.6090 O   0  0  0  0  0  1  0  0  0  0  0  0
  192.6360  168.4950  143.5780 O   0  0  0  0  0  0  0  0  0  0  0  0
  190.0740  170.4030  140.7200 O   0  0  0  0  0  0  0  0  0  0  0  0
  191.6070  170.3680  142.6110 N   0  0  0  0  0  2  0  0  0  0  0  0
  190.8210  169.6750  141.6360 C   0  0  0  0  0  0  0  0  0  0  0  0
  192.4590  169.7420  143.5810 C   0  0  0  0  0  0  0  0  0  0  0  0
  188.7560  177.2640  144.2080 C   0  0  0  0  0  2  0  0  0  0  0  0
  185.4690  179.0010  144.1000 C   0  0  0  0  0  3  0  0  0  0  0  0
  184.7440  178.2420  143.1880 C   0  0  0  0  0  2  0  0  0  0  0  0
  186.7490  178.6530  144.3880 N   0  0  0  0  0  0  0  0  0  0  0  0
  187.3510  177.5820  143.8050 C   0  0  2  0  0  3  0  0  0  0  0  0
  185.3310  177.1680  142.6000 N   0  0  0  0  0  0  0  0  0  0  0  0
  186.6150  176.8080  142.8690 C   0  0  0  0  0  0  0  0  0  0  0  0
  188.0110  175.6480  141.2490 C   0  0  0  0  0  3  0  0  0  0  0  0
  187.1330  175.6460  142.1980 N   0  0  0  0  0  0  0  0  0  0  0  0
  188.4760  174.3690  140.6460 C   0  0  0  0  0  2  0  0  0  0  0  0
  189.9390  174.1090  140.9740 C   0  0  0  0  0  2  0  0  0  0  0  0
  192.1350  173.8000  138.2970 C   0  0  2  0  0  3  0  0  0  0  0  0
  189.8940  173.4420  138.6790 O   0  0  0  0  0  0  0  0  0  0  0  0
  191.9430  173.8220  139.6760 O   0  0  0  0  0  0  0  0  0  0  0  0
  190.6370  173.3360  139.8640 C   0  0  1  0  0  3  0  0  0  0  0  0
  190.8500  173.3530  137.6730 C   0  0  0  0  0  2  0  0  0  0  0  0
  193.3680  172.9760  137.8640 C   0  0  0  0  0  2  0  0  0  0  0  0
  193.1340  171.5810  137.4390 N   0  0  0  0  0  0  0  0  0  0  0  0
  192.1480  169.6000  138.2250 O   0  0  0  0  0  1  0  0  0  0  0  0
  192.9780  170.6700  138.5810 C   0  0  1  0  0  3  0  0  0  0  0  0
  194.3310  170.1160  139.0270 C   0  0  0  0  0  2  0  0  0  0  0  0
  195.8430  169.6560  140.9540 C   0  0  0  0  0  1  0  0  0  0  0  0
  194.5380  171.7510  140.8750 C   0  0  0  0  0  1  0  0  0  0  0  0
  194.5260  170.2770  140.5270 C   0  0  0  0  0  3  0  0  0  0  0  0
  194.2130  171.1310  136.5610 C   0  0  0  0  0  2  0  0  0  0  0  0
  194.6570  172.1920  135.7730 O   0  0  0  0  0  1  0  0  0  0  0  0
  1  2  1  0  0  0  0
  3 31  1  6  0  0  0
  3  1  1  0  0  0  0
  5 13  1  6  0  0  0
  5  7  1  0  0  0  0
  6  5  1  0  0  0  0
  6  3  1  0  0  0  0
  7  4  1  1  0  0  0
  7  2  1  0  0  0  0
  8  9  2  0  0  0  0
  8 12  1  0  0  0  0
  9 10  1  0  0  0  0
 10 16  1  0  0  0  0
 10 13  2  0  0  0  0
 11  8  1  0  0  0  0
 12 14  2  0  0  0  0
 14 13  1  0  0  0  0
 16 15  3  0  0  0  0
 17 15  1  6  0  0  0
 18 17  1  1  0  0  0
 18 20  1  0  0  0  0
 19 22  1  0  0  0  0
 20 24  1  0  0  0  0
 21 18  1  0  0  0  0
 21 19  2  0  0  0  0
 22 24  1  0  0  0  0
 24 23  1  1  0  0  0
 25 29  1  0  0  0  0
 26 30  2  0  0  0  0
 27 29  2  0  0  0  0
 28 30  1  0  0  0  0
 29 28  1  0  0  0  0
 30 17  1  0  0  0  0
 32 34  2  0  0  0  0
 33 32  1  0  0  0  0
 35 31  1  1  0  0  0
 35 34  1  0  0  0  0
 36 37  2  0  0  0  0
 36 33  1  0  0  0  0
 37 35  1  0  0  0  0
 38 39  2  0  0  0  0
 39 37  1  0  0  0  0
 40 41  1  0  0  0  0
 40 38  1  0  0  0  0
 42 47  1  1  0  0  0
 42 44  1  0  0  0  0
 43 45  1  0  0  0  0
 44 45  1  0  0  0  0
 45 41  1  1  0  0  0
 46 42  1  0  0  0  0
 46 43  1  0  0  0  0
 48 47  1  0  0  0  0
 48 50  1  0  0  0  0
 50 49  1  6  0  0  0
 50 51  1  0  0  0  0
 51 54  1  0  0  0  0
 54 53  1  0  0  0  0
 54 52  1  0  0  0  0
 55 48  1  0  0  0  0
 56 55  1  0  0  0  0
M  END
>  <MODEL>
9

>  <REMARK>
 VINA RESULT:      -5.4      3.335      9.531
  Name = 
  17 active torsions:
  status: ('A' for Active; 'I' for Inactive)
    1  A    between atoms: C_2  and  C_31
    2  A    between atoms: C_4  and  C_51
    3  A    between atoms: C_12  and  C_22
    4  A    between atoms: C_12  and  C_43
    5  A    between atoms: C_13  and  C_41
    6  A    between atoms: C_21  and  C_23
    7  A    between atoms: C_21  and  C_45
    8  A    between atoms: C_26  and  C_31
    9  A    between atoms: C_31  and  C_49
   10  A    between atoms: C_32  and  C_33
   11  A    between atoms: C_32  and  C_52
   12  A    between atoms: C_33  and  N_55
   13  A    between atoms: C_35  and  N_55
   14  A    between atoms: C_38  and  C_39
   15  A    between atoms: C_45  and  C_48
   16  A    between atoms: C_47  and  N_54
   17  A    between atoms: C_51  and  N_55
                            x       y       z     vdW  Elec       q    Type
                         _______ _______ _______ _____ _____    ______ ____

>  <TORSDO>
F 17

$$$$
