=
 OpenBabel11042414153D

 45 48  0  0  1  0  0  0  0  0999 V2000
  193.7720  174.7540  141.9010 C   0  0  1  0  0  3  0  0  0  0  0  0
  192.7690  176.8170  143.0610 N   0  0  0  0  0  2  0  0  0  0  0  0
  194.6130  175.1470  140.6890 C   0  0  0  0  0  2  0  0  0  0  0  0
  188.8930  174.8350  142.7950 C   0  0  0  0  0  0  0  0  0  0  0  0
  193.2630  173.5420  139.2950 C   0  0  0  0  0  0  0  0  0  0  0  0
  193.8110  175.8280  142.9670 C   0  0  0  0  0  0  0  0  0  0  0  0
  192.0040  177.0730  144.2510 C   0  0  0  0  0  0  0  0  0  0  0  0
  194.6550  173.9950  139.6800 C   0  0  1  0  0  3  0  0  0  0  0  0
  189.7420  173.7400  140.6920 C   0  0  0  0  0  3  0  0  0  0  0  0
  187.6960  174.5260  142.5460 O   0  0  0  0  0  0  0  0  0  0  0  0
  189.2210  175.8210  143.8960 C   0  0  1  0  0  3  0  0  0  0  0  0
  190.8160  173.4500  139.8390 C   0  0  0  0  0  3  0  0  0  0  0  0
  192.3010  176.4950  145.3880 C   0  0  0  0  0  0  0  0  0  0  0  0
  194.7520  175.8230  143.8070 O   0  0  0  0  0  0  0  0  0  0  0  0
  193.0760  172.9280  138.2070 O   0  0  0  0  0  0  0  0  0  0  0  0
  189.9820  174.3140  141.9480 C   0  0  0  0  0  0  0  0  0  0  0  0
  192.1350  173.7620  140.2220 C   0  0  0  0  0  0  0  0  0  0  0  0
  191.2940  174.5650  142.3340 C   0  0  0  0  0  3  0  0  0  0  0  0
  192.3720  174.3470  141.4790 C   0  0  0  0  0  0  0  0  0  0  0  0
  190.7220  177.8500  144.1750 C   0  0  0  0  0  2  0  0  0  0  0  0
  189.6740  177.1560  143.2990 C   0  0  0  0  0  2  0  0  0  0  0  0
  192.5710  175.9060  146.5220 C   0  0  0  0  0  3  0  0  0  0  0  0
  191.5010  175.7520  147.5440 C   0  0  0  0  0  3  0  0  0  0  0  0
  190.5860  176.9580  147.4940 C   0  0  0  0  0  2  0  0  0  0  0  0
  191.6410  176.8520  148.5770 C   0  0  0  0  0  2  0  0  0  0  0  0
  195.4710  174.3710  138.4750 C   0  0  0  0  0  0  0  0  0  0  0  0
  195.1550  175.3930  137.8060 O   0  0  0  0  0  0  0  0  0  0  0  0
  196.5610  173.5370  138.0410 N   0  0  0  0  0  0  0  0  0  0  0  0
  197.9410  172.5190  139.7920 C   0  0  0  0  0  1  0  0  0  0  0  0
  196.8610  172.2930  138.7420 C   0  0  0  0  0  2  0  0  0  0  0  0
  197.2440  173.8040  136.7810 C   0  0  0  0  0  2  0  0  0  0  0  0
  196.6570  172.9500  135.6710 C   0  0  0  0  0  1  0  0  0  0  0  0
  188.0800  176.0150  144.8820 C   0  0  0  0  0  2  0  0  0  0  0  0
  187.4350  177.2910  144.6230 N   0  0  0  0  0  2  0  0  0  0  0  0
  186.0050  177.0350  144.4900 C   0  0  1  0  0  3  0  0  0  0  0  0
  186.2150  178.0600  146.6920 N   0  0  0  0  0  1  0  0  0  0  0  0
  185.3080  177.3550  145.8040 C   0  0  0  0  0  2  0  0  0  0  0  0
  185.4060  177.8340  143.3210 C   0  0  1  0  0  3  0  0  0  0  0  0
  184.7470  179.1040  143.7660 C   0  0  0  0  0  0  0  0  0  0  0  0
  185.4470  180.1220  144.0070 O   0  0  0  0  0  0  0  0  0  0  0  0
  183.3260  179.1860  143.8660 N   0  0  0  0  0  1  0  0  0  0  0  0
  186.4030  178.1120  142.3420 O   0  0  0  0  0  0  0  0  0  0  0  0
  185.0660  178.0620  140.2390 C   0  0  0  0  0  1  0  0  0  0  0  0
  187.1890  177.0200  140.4620 O   0  0  0  0  0  0  0  0  0  0  0  0
  186.2830  177.7000  141.0120 C   0  0  0  0  0  0  0  0  0  0  0  0
  1  3  1  6  0  0  0
  1  6  1  0  0  0  0
  2  7  1  0  0  0  0
  4 11  1  0  0  0  0
  5  8  1  0  0  0  0
  5 17  1  0  0  0  0
  6  2  1  0  0  0  0
  6 14  2  0  0  0  0
  7 13  2  0  0  0  0
  8 26  1  6  0  0  0
  8  3  1  0  0  0  0
  9 16  1  0  0  0  0
 10  4  2  0  0  0  0
 11 33  1  6  0  0  0
 12 17  1  0  0  0  0
 12  9  2  0  0  0  0
 13 22  2  0  0  0  0
 15  5  2  0  0  0  0
 16 18  2  0  0  0  0
 16  4  1  0  0  0  0
 17 19  2  0  0  0  0
 19  1  1  0  0  0  0
 19 18  1  0  0  0  0
 20  7  1  0  0  0  0
 21 11  1  0  0  0  0
 21 20  1  0  0  0  0
 22 23  1  0  0  0  0
 23 25  1  0  0  0  0
 24 23  1  0  0  0  0
 24 25  1  0  0  0  0
 27 26  2  0  0  0  0
 28 26  1  0  0  0  0
 28 30  1  0  0  0  0
 30 29  1  0  0  0  0
 31 28  1  0  0  0  0
 32 31  1  0  0  0  0
 34 33  1  0  0  0  0
 35 34  1  0  0  0  0
 35 37  1  1  0  0  0
 37 36  1  0  0  0  0
 38 42  1  6  0  0  0
 38 39  1  0  0  0  0
 38 35  1  0  0  0  0
 39 41  1  0  0  0  0
 39 40  2  0  0  0  0
 43 45  1  0  0  0  0
 44 45  2  0  0  0  0
 45 42  1  0  0  0  0
M  END
>  <MODEL>
1

>  <REMARK>
 VINA RESULT:      -6.8      0.000      0.000
  Name = 
  12 active torsions:
  status: ('A' for Active; 'I' for Inactive)
    1  A    between atoms: C_2  and  N_45
    2  A    between atoms: C_4  and  N_26
    3  A    between atoms: C_4  and  C_29
    4  A    between atoms: C_6  and  C_14
    5  A    between atoms: C_6  and  C_19
    6  A    between atoms: C_6  and  O_42
    7  A    between atoms: C_10  and  C_44
    8  A    between atoms: C_12  and  C_18
    9  A    between atoms: C_14  and  N_26
   10  A    between atoms: C_14  and  C_27
   11  A    between atoms: C_35  and  N_45
   12  A    between atoms: O_42  and  C_43
                            x       y       z     vdW  Elec       q    Type
                         _______ _______ _______ _____ _____    ______ ____

>  <TORSDO>
F 12

$$$$
=
 OpenBabel11042414153D

 45 48  0  0  1  0  0  0  0  0999 V2000
  191.3870  173.6210  144.9250 C   0  0  1  0  0  3  0  0  0  0  0  0
  191.2770  176.1890  144.9470 N   0  0  0  0  0  2  0  0  0  0  0  0
  192.8290  173.1220  144.8660 C   0  0  0  0  0  2  0  0  0  0  0  0
  188.4630  175.8980  141.6280 C   0  0  0  0  0  0  0  0  0  0  0  0
  192.2110  171.7210  142.8670 C   0  0  0  0  0  0  0  0  0  0  0  0
  191.2930  174.9390  145.6620 C   0  0  0  0  0  0  0  0  0  0  0  0
  190.2500  177.1860  145.0850 C   0  0  0  0  0  0  0  0  0  0  0  0
  192.8820  171.7320  144.2240 C   0  0  1  0  0  3  0  0  0  0  0  0
  189.6740  173.7950  140.9550 C   0  0  0  0  0  3  0  0  0  0  0  0
  187.8760  175.9890  140.5150 O   0  0  0  0  0  0  0  0  0  0  0  0
  188.4360  177.0500  142.6090 C   0  0  1  0  0  3  0  0  0  0  0  0
  190.6050  172.7940  141.2660 C   0  0  0  0  0  3  0  0  0  0  0  0
  189.3080  177.0700  145.9870 C   0  0  0  0  0  0  0  0  0  0  0  0
  191.1830  174.9310  146.9190 O   0  0  0  0  0  0  0  0  0  0  0  0
  192.5050  170.8300  142.0230 O   0  0  0  0  0  0  0  0  0  0  0  0
  189.2690  174.7030  141.9420 C   0  0  0  0  0  0  0  0  0  0  0  0
  191.1630  172.7150  142.5560 C   0  0  0  0  0  0  0  0  0  0  0  0
  189.7880  174.5780  143.2260 C   0  0  0  0  0  3  0  0  0  0  0  0
  190.7630  173.6350  143.5420 C   0  0  0  0  0  0  0  0  0  0  0  0
  190.1140  178.2790  144.0660 C   0  0  0  0  0  2  0  0  0  0  0  0
  189.8050  177.7340  142.6690 C   0  0  0  0  0  2  0  0  0  0  0  0
  188.3480  176.9550  146.8650 C   0  0  0  0  0  3  0  0  0  0  0  0
  187.0560  177.6580  146.6390 C   0  0  0  0  0  3  0  0  0  0  0  0
  186.7200  178.4870  147.8610 C   0  0  0  0  0  2  0  0  0  0  0  0
  186.0370  177.1530  147.6410 C   0  0  0  0  0  2  0  0  0  0  0  0
  194.2970  171.2330  144.1480 C   0  0  0  0  0  0  0  0  0  0  0  0
  195.1740  171.9350  143.5730 O   0  0  0  0  0  0  0  0  0  0  0  0
  194.6410  169.9340  144.6620 N   0  0  0  0  0  0  0  0  0  0  0  0
  193.0230  168.1660  144.1500 C   0  0  0  0  0  1  0  0  0  0  0  0
  193.6120  169.0670  145.2270 C   0  0  0  0  0  2  0  0  0  0  0  0
  195.9710  169.3750  144.4400 C   0  0  0  0  0  2  0  0  0  0  0  0
  196.8650  169.6490  145.6360 C   0  0  0  0  0  1  0  0  0  0  0  0
  187.3290  178.0520  142.3240 C   0  0  0  0  0  2  0  0  0  0  0  0
  186.0410  177.3920  142.4490 N   0  0  0  0  0  2  0  0  0  0  0  0
  185.0360  178.2940  141.9010 C   0  0  1  0  0  3  0  0  0  0  0  0
  185.5800  177.8030  139.5750 N   0  0  0  0  0  1  0  0  0  0  0  0
  184.5290  177.7440  140.5760 C   0  0  0  0  0  2  0  0  0  0  0  0
  183.8870  178.5150  142.8990 C   0  0  1  0  0  3  0  0  0  0  0  0
  184.3490  179.1300  144.1850 C   0  0  0  0  0  0  0  0  0  0  0  0
  185.1870  180.0700  144.1650 O   0  0  0  0  0  0  0  0  0  0  0  0
  183.8060  178.6970  145.4310 N   0  0  0  0  0  1  0  0  0  0  0  0
  182.8600  179.3100  142.3130 O   0  0  0  0  0  0  0  0  0  0  0  0
  181.0320  177.9630  141.2860 C   0  0  0  0  0  1  0  0  0  0  0  0
  180.7140  179.3730  143.1710 O   0  0  0  0  0  0  0  0  0  0  0  0
  181.5190  178.9200  142.3140 C   0  0  0  0  0  0  0  0  0  0  0  0
  1  3  1  6  0  0  0
  1  6  1  0  0  0  0
  2  7  1  0  0  0  0
  2  6  1  0  0  0  0
  4 16  1  0  0  0  0
  4 11  1  0  0  0  0
  5  8  1  0  0  0  0
  6 14  2  0  0  0  0
  7 13  2  0  0  0  0
  8 26  1  6  0  0  0
  8  3  1  0  0  0  0
  9 12  2  0  0  0  0
  9 16  1  0  0  0  0
 10  4  2  0  0  0  0
 11 33  1  6  0  0  0
 11 21  1  0  0  0  0
 12 17  1  0  0  0  0
 13 22  2  0  0  0  0
 15  5  2  0  0  0  0
 16 18  2  0  0  0  0
 17  5  1  0  0  0  0
 17 19  2  0  0  0  0
 18 19  1  0  0  0  0
 19  1  1  0  0  0  0
 20  7  1  0  0  0  0
 21 20  1  0  0  0  0
 23 22  1  0  0  0  0
 23 25  1  0  0  0  0
 23 24  1  0  0  0  0
 25 24  1  0  0  0  0
 26 28  1  0  0  0  0
 27 26  2  0  0  0  0
 28 30  1  0  0  0  0
 29 30  1  0  0  0  0
 31 28  1  0  0  0  0
 31 32  1  0  0  0  0
 33 34  1  0  0  0  0
 35 37  1  6  0  0  0
 35 34  1  0  0  0  0
 35 38  1  0  0  0  0
 36 37  1  0  0  0  0
 38 42  1  6  0  0  0
 38 39  1  0  0  0  0
 39 41  1  0  0  0  0
 40 39  2  0  0  0  0
 42 45  1  0  0  0  0
 43 45  1  0  0  0  0
 45 44  2  0  0  0  0
M  END
>  <MODEL>
2

>  <REMARK>
 VINA RESULT:      -6.7      3.545      4.669
  Name = 
  12 active torsions:
  status: ('A' for Active; 'I' for Inactive)
    1  A    between atoms: C_2  and  N_45
    2  A    between atoms: C_4  and  N_26
    3  A    between atoms: C_4  and  C_29
    4  A    between atoms: C_6  and  C_14
    5  A    between atoms: C_6  and  C_19
    6  A    between atoms: C_6  and  O_42
    7  A    between atoms: C_10  and  C_44
    8  A    between atoms: C_12  and  C_18
    9  A    between atoms: C_14  and  N_26
   10  A    between atoms: C_14  and  C_27
   11  A    between atoms: C_35  and  N_45
   12  A    between atoms: O_42  and  C_43
                            x       y       z     vdW  Elec       q    Type
                         _______ _______ _______ _____ _____    ______ ____

>  <TORSDO>
F 12

$$$$
=
 OpenBabel11042414153D

 45 48  0  0  1  0  0  0  0  0999 V2000
  190.1680  176.6470  143.5070 C   0  0  1  0  0  3  0  0  0  0  0  0
  192.1600  175.0910  143.9710 N   0  0  0  0  0  2  0  0  0  0  0  0
  189.3480  176.9000  144.7710 C   0  0  0  0  0  2  0  0  0  0  0  0
  190.7840  172.6590  140.6220 C   0  0  0  0  0  0  0  0  0  0  0  0
  187.2860  176.1810  143.5170 C   0  0  0  0  0  0  0  0  0  0  0  0
  191.6280  176.4220  143.8360 C   0  0  0  0  0  0  0  0  0  0  0  0
  193.2880  174.5940  143.2290 C   0  0  0  0  0  0  0  0  0  0  0  0
  187.9010  177.2440  144.4020 C   0  0  1  0  0  3  0  0  0  0  0  0
  188.4520  173.4110  141.2030 C   0  0  0  0  0  3  0  0  0  0  0  0
  190.3650  171.7260  139.8830 O   0  0  0  0  0  0  0  0  0  0  0  0
  192.2420  172.7290  141.0230 C   0  0  1  0  0  3  0  0  0  0  0  0
  187.6120  174.2660  141.9310 C   0  0  0  0  0  3  0  0  0  0  0  0
  193.9950  175.3810  142.4580 C   0  0  0  0  0  0  0  0  0  0  0  0
  192.3900  177.4200  143.9510 O   0  0  0  0  0  0  0  0  0  0  0  0
  186.0310  176.0590  143.4550 O   0  0  0  0  0  0  0  0  0  0  0  0
  189.8350  173.6360  141.1880 C   0  0  0  0  0  0  0  0  0  0  0  0
  188.1530  175.3310  142.6760 C   0  0  0  0  0  0  0  0  0  0  0  0
  190.3470  174.7250  141.8840 C   0  0  0  0  0  3  0  0  0  0  0  0
  189.5430  175.5480  142.6670 C   0  0  0  0  0  0  0  0  0  0  0  0
  193.5570  173.1190  143.1590 C   0  0  0  0  0  2  0  0  0  0  0  0
  192.4100  172.3510  142.4960 C   0  0  0  0  0  2  0  0  0  0  0  0
  194.6930  176.1500  141.6660 C   0  0  0  0  0  3  0  0  0  0  0  0
  195.4580  175.5470  140.5410 C   0  0  0  0  0  3  0  0  0  0  0  0
  196.4750  174.5720  141.0970 C   0  0  0  0  0  2  0  0  0  0  0  0
  196.9140  175.9540  140.6580 C   0  0  0  0  0  2  0  0  0  0  0  0
  187.0790  177.4840  145.6370 C   0  0  0  0  0  0  0  0  0  0  0  0
  187.1870  176.6970  146.6170 O   0  0  0  0  0  0  0  0  0  0  0  0
  186.1230  178.5590  145.6800 N   0  0  0  0  0  0  0  0  0  0  0  0
  184.4940  179.2310  143.9770 C   0  0  0  0  0  1  0  0  0  0  0  0
  185.9100  179.4040  144.5100 C   0  0  0  0  0  2  0  0  0  0  0  0
  185.2050  178.6910  146.8060 C   0  0  0  0  0  2  0  0  0  0  0  0
  185.8640  179.4630  147.9350 C   0  0  0  0  0  1  0  0  0  0  0  0
  193.1470  171.8940  140.1310 C   0  0  0  0  0  2  0  0  0  0  0  0
  193.8520  172.7690  139.2100 N   0  0  0  0  0  2  0  0  0  0  0  0
  193.5010  172.3490  137.8580 C   0  0  1  0  0  3  0  0  0  0  0  0
  193.8580  170.0870  137.0200 N   0  0  0  0  0  1  0  0  0  0  0  0
  193.0240  170.9050  137.8830 C   0  0  0  0  0  2  0  0  0  0  0  0
  192.4460  173.2840  137.2440 C   0  0  1  0  0  3  0  0  0  0  0  0
  193.0490  174.3410  136.3680 C   0  0  0  0  0  0  0  0  0  0  0  0
  193.9190  174.0250  135.5150 O   0  0  0  0  0  0  0  0  0  0  0  0
  192.6060  175.6940  136.4560 N   0  0  0  0  0  1  0  0  0  0  0  0
  191.4750  172.5360  136.5180 O   0  0  0  0  0  0  0  0  0  0  0  0
  189.5780  173.9170  137.3590 C   0  0  0  0  0  1  0  0  0  0  0  0
  189.4430  172.5570  135.4150 O   0  0  0  0  0  0  0  0  0  0  0  0
  190.1550  172.9670  136.3710 C   0  0  0  0  0  0  0  0  0  0  0  0
  1  6  1  0  0  0  0
  1  3  1  1  0  0  0
  4 11  1  0  0  0  0
  4 16  1  0  0  0  0
  5  8  1  0  0  0  0
  6 14  2  0  0  0  0
  6  2  1  0  0  0  0
  7  2  1  0  0  0  0
  8  3  1  0  0  0  0
  8 26  1  1  0  0  0
  9 12  1  0  0  0  0
 10  4  2  0  0  0  0
 11 33  1  6  0  0  0
 11 21  1  0  0  0  0
 12 17  2  0  0  0  0
 13  7  2  0  0  0  0
 15  5  2  0  0  0  0
 16  9  2  0  0  0  0
 16 18  1  0  0  0  0
 17  5  1  0  0  0  0
 18 19  2  0  0  0  0
 19 17  1  0  0  0  0
 19  1  1  0  0  0  0
 20  7  1  0  0  0  0
 21 20  1  0  0  0  0
 22 13  2  0  0  0  0
 23 25  1  0  0  0  0
 23 24  1  0  0  0  0
 23 22  1  0  0  0  0
 25 24  1  0  0  0  0
 26 28  1  0  0  0  0
 26 27  2  0  0  0  0
 28 31  1  0  0  0  0
 29 30  1  0  0  0  0
 30 28  1  0  0  0  0
 31 32  1  0  0  0  0
 34 33  1  0  0  0  0
 35 37  1  1  0  0  0
 35 34  1  0  0  0  0
 36 37  1  0  0  0  0
 38 39  1  6  0  0  0
 38 35  1  0  0  0  0
 39 41  1  0  0  0  0
 40 39  2  0  0  0  0
 42 38  1  0  0  0  0
 44 45  2  0  0  0  0
 45 42  1  0  0  0  0
 45 43  1  0  0  0  0
M  END
>  <MODEL>
3

>  <REMARK>
 VINA RESULT:      -6.5      2.414      9.142
  Name = 
  12 active torsions:
  status: ('A' for Active; 'I' for Inactive)
    1  A    between atoms: C_2  and  N_45
    2  A    between atoms: C_4  and  N_26
    3  A    between atoms: C_4  and  C_29
    4  A    between atoms: C_6  and  C_14
    5  A    between atoms: C_6  and  C_19
    6  A    between atoms: C_6  and  O_42
    7  A    between atoms: C_10  and  C_44
    8  A    between atoms: C_12  and  C_18
    9  A    between atoms: C_14  and  N_26
   10  A    between atoms: C_14  and  C_27
   11  A    between atoms: C_35  and  N_45
   12  A    between atoms: O_42  and  C_43
                            x       y       z     vdW  Elec       q    Type
                         _______ _______ _______ _____ _____    ______ ____

>  <TORSDO>
F 12

$$$$
=
 OpenBabel11042414153D

 45 48  0  0  1  0  0  0  0  0999 V2000
  190.2660  177.1240  143.3240 C   0  0  1  0  0  3  0  0  0  0  0  0
  191.9560  176.2710  145.0630 N   0  0  0  0  0  2  0  0  0  0  0  0
  189.1150  177.8790  143.9860 C   0  0  0  0  0  2  0  0  0  0  0  0
  191.5510  172.3340  143.2320 C   0  0  0  0  0  0  0  0  0  0  0  0
  187.4980  176.3810  142.7680 C   0  0  0  0  0  0  0  0  0  0  0  0
  191.5470  177.2760  144.1150 C   0  0  0  0  0  0  0  0  0  0  0  0
  193.2330  175.6080  145.0360 C   0  0  0  0  0  0  0  0  0  0  0  0
  187.8630  177.8100  143.1050 C   0  0  1  0  0  3  0  0  0  0  0  0
  189.1870  172.9860  142.6590 C   0  0  0  0  0  3  0  0  0  0  0  0
  191.3360  171.1120  143.0010 O   0  0  0  0  0  0  0  0  0  0  0  0
  192.8220  172.7730  143.9270 C   0  0  1  0  0  3  0  0  0  0  0  0
  188.2050  173.9820  142.5700 C   0  0  0  0  0  3  0  0  0  0  0  0
  194.1730  175.9770  144.2030 C   0  0  0  0  0  0  0  0  0  0  0  0
  192.2820  178.2790  143.9040 O   0  0  0  0  0  0  0  0  0  0  0  0
  186.3160  176.0930  142.4300 O   0  0  0  0  0  0  0  0  0  0  0  0
  190.5190  173.3390  142.9170 C   0  0  0  0  0  0  0  0  0  0  0  0
  188.5410  175.3350  142.7710 C   0  0  0  0  0  0  0  0  0  0  0  0
  190.8440  174.6830  143.0590 C   0  0  0  0  0  3  0  0  0  0  0  0
  189.8770  175.6850  143.0410 C   0  0  0  0  0  0  0  0  0  0  0  0
  193.4470  174.3470  145.8190 C   0  0  0  0  0  2  0  0  0  0  0  0
  192.5220  173.2150  145.3610 C   0  0  0  0  0  2  0  0  0  0  0  0
  195.1100  176.3180  143.3600 C   0  0  0  0  0  3  0  0  0  0  0  0
  196.1520  175.3270  142.9770 C   0  0  0  0  0  3  0  0  0  0  0  0
  197.4780  176.0390  142.8070 C   0  0  0  0  0  2  0  0  0  0  0  0
  196.6630  175.6580  141.5890 C   0  0  0  0  0  2  0  0  0  0  0  0
  186.7180  178.5400  143.7490 C   0  0  0  0  0  0  0  0  0  0  0  0
  186.0850  179.4090  143.0880 O   0  0  0  0  0  0  0  0  0  0  0  0
  186.3850  178.3050  145.1290 N   0  0  0  0  0  0  0  0  0  0  0  0
  187.3260  177.9070  147.3560 C   0  0  0  0  0  1  0  0  0  0  0  0
  187.1830  177.3850  145.9330 C   0  0  0  0  0  2  0  0  0  0  0  0
  185.3900  179.1300  145.8040 C   0  0  0  0  0  2  0  0  0  0  0  0
  184.0130  178.5020  145.6800 C   0  0  0  0  0  1  0  0  0  0  0  0
  193.9170  171.7190  143.8920 C   0  0  0  0  0  2  0  0  0  0  0  0
  193.7200  170.7870  144.9880 N   0  0  0  0  0  2  0  0  0  0  0  0
  194.8590  169.8760  144.9950 C   0  0  1  0  0  3  0  0  0  0  0  0
  195.9460  168.5600  143.2540 N   0  0  0  0  0  1  0  0  0  0  0  0
  195.5350  169.8990  143.6320 C   0  0  0  0  0  2  0  0  0  0  0  0
  195.8430  170.2290  146.1220 C   0  0  1  0  0  3  0  0  0  0  0  0
  196.1740  169.0530  146.9910 C   0  0  0  0  0  0  0  0  0  0  0  0
  195.2710  168.5110  147.6820 O   0  0  0  0  0  0  0  0  0  0  0  0
  197.4920  168.5070  147.0000 N   0  0  0  0  0  1  0  0  0  0  0  0
  197.0350  170.7970  145.5870 O   0  0  0  0  0  0  0  0  0  0  0  0
  197.9060  172.7270  144.2720 C   0  0  0  0  0  1  0  0  0  0  0  0
  196.8150  172.9620  146.3690 O   0  0  0  0  0  0  0  0  0  0  0  0
  197.2190  172.1770  145.4700 C   0  0  0  0  0  0  0  0  0  0  0  0
  1  3  1  1  0  0  0
  1  6  1  0  0  0  0
  4 11  1  0  0  0  0
  5 17  1  0  0  0  0
  5  8  1  0  0  0  0
  6  2  1  0  0  0  0
  7  2  1  0  0  0  0
  7 20  1  0  0  0  0
  8 26  1  1  0  0  0
  8  3  1  0  0  0  0
  9 16  1  0  0  0  0
 10  4  2  0  0  0  0
 11 33  1  1  0  0  0
 11 21  1  0  0  0  0
 12  9  2  0  0  0  0
 12 17  1  0  0  0  0
 13  7  2  0  0  0  0
 14  6  2  0  0  0  0
 15  5  2  0  0  0  0
 16 18  2  0  0  0  0
 16  4  1  0  0  0  0
 17 19  2  0  0  0  0
 19 18  1  0  0  0  0
 19  1  1  0  0  0  0
 21 20  1  0  0  0  0
 22 13  2  0  0  0  0
 23 22  1  0  0  0  0
 24 23  1  0  0  0  0
 25 24  1  0  0  0  0
 25 23  1  0  0  0  0
 26 28  1  0  0  0  0
 27 26  2  0  0  0  0
 28 31  1  0  0  0  0
 28 30  1  0  0  0  0
 30 29  1  0  0  0  0
 32 31  1  0  0  0  0
 33 34  1  0  0  0  0
 34 35  1  0  0  0  0
 35 37  1  6  0  0  0
 35 38  1  0  0  0  0
 36 37  1  0  0  0  0
 38 42  1  6  0  0  0
 38 39  1  0  0  0  0
 39 41  1  0  0  0  0
 39 40  2  0  0  0  0
 43 45  1  0  0  0  0
 45 42  1  0  0  0  0
 45 44  2  0  0  0  0
M  END
>  <MODEL>
4

>  <REMARK>
 VINA RESULT:      -6.5      3.929      9.802
  Name = 
  12 active torsions:
  status: ('A' for Active; 'I' for Inactive)
    1  A    between atoms: C_2  and  N_45
    2  A    between atoms: C_4  and  N_26
    3  A    between atoms: C_4  and  C_29
    4  A    between atoms: C_6  and  C_14
    5  A    between atoms: C_6  and  C_19
    6  A    between atoms: C_6  and  O_42
    7  A    between atoms: C_10  and  C_44
    8  A    between atoms: C_12  and  C_18
    9  A    between atoms: C_14  and  N_26
   10  A    between atoms: C_14  and  C_27
   11  A    between atoms: C_35  and  N_45
   12  A    between atoms: O_42  and  C_43
                            x       y       z     vdW  Elec       q    Type
                         _______ _______ _______ _____ _____    ______ ____

>  <TORSDO>
F 12

$$$$
=
 OpenBabel11042414153D

 45 48  0  0  1  0  0  0  0  0999 V2000
  190.3480  176.3660  144.1150 C   0  0  1  0  0  3  0  0  0  0  0  0
  192.1320  174.9520  145.3080 N   0  0  0  0  0  2  0  0  0  0  0  0
  189.1460  176.6310  145.0190 C   0  0  0  0  0  2  0  0  0  0  0  0
  192.0430  172.2870  141.8570 C   0  0  0  0  0  0  0  0  0  0  0  0
  187.6470  175.7350  143.2050 C   0  0  0  0  0  0  0  0  0  0  0  0
  191.6230  176.2420  144.9210 C   0  0  0  0  0  0  0  0  0  0  0  0
  193.4610  174.4860  145.0130 C   0  0  0  0  0  0  0  0  0  0  0  0
  187.8920  176.8720  144.1730 C   0  0  1  0  0  3  0  0  0  0  0  0
  189.6230  172.9290  141.5870 C   0  0  0  0  0  3  0  0  0  0  0  0
  191.9300  171.2970  141.0830 O   0  0  0  0  0  0  0  0  0  0  0  0
  193.2810  172.4600  142.7100 C   0  0  1  0  0  3  0  0  0  0  0  0
  188.5560  173.7680  141.9410 C   0  0  0  0  0  3  0  0  0  0  0  0
  194.3520  175.2750  144.4690 C   0  0  0  0  0  0  0  0  0  0  0  0
  192.2650  177.2870  145.2160 O   0  0  0  0  0  0  0  0  0  0  0  0
  186.4900  175.5380  142.7400 O   0  0  0  0  0  0  0  0  0  0  0  0
  190.9220  173.2330  142.0150 C   0  0  0  0  0  0  0  0  0  0  0  0
  188.7770  174.8970  142.7530 C   0  0  0  0  0  0  0  0  0  0  0  0
  191.1310  174.3820  142.7690 C   0  0  0  0  0  3  0  0  0  0  0  0
  190.0810  175.1930  143.1890 C   0  0  0  0  0  0  0  0  0  0  0  0
  193.7950  173.0280  145.1310 C   0  0  0  0  0  2  0  0  0  0  0  0
  192.9640  172.1630  144.1780 C   0  0  0  0  0  2  0  0  0  0  0  0
  195.2440  176.0440  143.9050 C   0  0  0  0  0  3  0  0  0  0  0  0
  196.3620  175.4330  143.1360 C   0  0  0  0  0  3  0  0  0  0  0  0
  197.5250  176.4020  143.0920 C   0  0  0  0  0  2  0  0  0  0  0  0
  196.6150  176.2580  141.8890 C   0  0  0  0  0  2  0  0  0  0  0  0
  186.6970  177.1230  145.0490 C   0  0  0  0  0  0  0  0  0  0  0  0
  186.4720  176.3560  146.0250 O   0  0  0  0  0  0  0  0  0  0  0  0
  185.7760  178.1850  144.7420 N   0  0  0  0  0  0  0  0  0  0  0  0
  184.9700  178.6150  142.4680 C   0  0  0  0  0  1  0  0  0  0  0  0
  185.9670  179.0050  143.5500 C   0  0  0  0  0  2  0  0  0  0  0  0
  184.5290  178.3250  145.4860 C   0  0  0  0  0  2  0  0  0  0  0  0
  184.8000  178.8970  146.8660 C   0  0  0  0  0  1  0  0  0  0  0  0
  194.4620  171.6370  142.2220 C   0  0  0  0  0  2  0  0  0  0  0  0
  195.5950  172.5160  141.9900 N   0  0  0  0  0  2  0  0  0  0  0  0
  196.0580  172.2780  140.6280 C   0  0  1  0  0  3  0  0  0  0  0  0
  196.7220  170.1060  139.7420 N   0  0  0  0  0  1  0  0  0  0  0  0
  195.5880  170.9080  140.1640 C   0  0  0  0  0  2  0  0  0  0  0  0
  195.5820  173.3910  139.6800 C   0  0  1  0  0  3  0  0  0  0  0  0
  196.7110  174.0440  138.9410 C   0  0  0  0  0  0  0  0  0  0  0  0
  197.8920  173.6480  139.1250 O   0  0  0  0  0  0  0  0  0  0  0  0
  196.4530  175.0760  137.9900 N   0  0  0  0  0  1  0  0  0  0  0  0
  194.6160  172.8880  138.7610 O   0  0  0  0  0  0  0  0  0  0  0  0
  192.3080  172.7250  137.8370 C   0  0  0  0  0  1  0  0  0  0  0  0
  193.0290  174.4980  139.2430 O   0  0  0  0  0  0  0  0  0  0  0  0
  193.3310  173.4240  138.6570 C   0  0  0  0  0  0  0  0  0  0  0  0
  1  6  1  0  0  0  0
  1  3  1  1  0  0  0
  4 16  1  0  0  0  0
  4 11  1  0  0  0  0
  5  8  1  0  0  0  0
  6 14  2  0  0  0  0
  6  2  1  0  0  0  0
  7 20  1  0  0  0  0
  7  2  1  0  0  0  0
  8  3  1  0  0  0  0
  8 26  1  1  0  0  0
  9 12  2  0  0  0  0
  9 16  1  0  0  0  0
 10  4  2  0  0  0  0
 11 33  1  6  0  0  0
 11 21  1  0  0  0  0
 12 17  1  0  0  0  0
 13  7  2  0  0  0  0
 15  5  2  0  0  0  0
 16 18  2  0  0  0  0
 17 19  2  0  0  0  0
 17  5  1  0  0  0  0
 18 19  1  0  0  0  0
 19  1  1  0  0  0  0
 21 20  1  0  0  0  0
 22 13  2  0  0  0  0
 23 22  1  0  0  0  0
 24 23  1  0  0  0  0
 25 24  1  0  0  0  0
 25 23  1  0  0  0  0
 26 27  2  0  0  0  0
 28 26  1  0  0  0  0
 28 31  1  0  0  0  0
 29 30  1  0  0  0  0
 30 28  1  0  0  0  0
 31 32  1  0  0  0  0
 34 33  1  0  0  0  0
 35 37  1  6  0  0  0
 35 34  1  0  0  0  0
 36 37  1  0  0  0  0
 38 42  1  6  0  0  0
 38 35  1  0  0  0  0
 39 40  2  0  0  0  0
 39 38  1  0  0  0  0
 41 39  1  0  0  0  0
 43 45  1  0  0  0  0
 45 42  1  0  0  0  0
 45 44  2  0  0  0  0
M  END
>  <MODEL>
5

>  <REMARK>
 VINA RESULT:      -6.4      2.268      9.300
  Name = 
  12 active torsions:
  status: ('A' for Active; 'I' for Inactive)
    1  A    between atoms: C_2  and  N_45
    2  A    between atoms: C_4  and  N_26
    3  A    between atoms: C_4  and  C_29
    4  A    between atoms: C_6  and  C_14
    5  A    between atoms: C_6  and  C_19
    6  A    between atoms: C_6  and  O_42
    7  A    between atoms: C_10  and  C_44
    8  A    between atoms: C_12  and  C_18
    9  A    between atoms: C_14  and  N_26
   10  A    between atoms: C_14  and  C_27
   11  A    between atoms: C_35  and  N_45
   12  A    between atoms: O_42  and  C_43
                            x       y       z     vdW  Elec       q    Type
                         _______ _______ _______ _____ _____    ______ ____

>  <TORSDO>
F 12

$$$$
=
 OpenBabel11042414153D

 45 48  0  0  1  0  0  0  0  0999 V2000
  192.0910  174.0120  145.6960 C   0  0  1  0  0  3  0  0  0  0  0  0
  191.3110  176.2540  144.7100 N   0  0  0  0  0  2  0  0  0  0  0  0
  193.5940  173.8130  145.5140 C   0  0  0  0  0  2  0  0  0  0  0  0
  188.2750  174.0100  142.5260 C   0  0  0  0  0  0  0  0  0  0  0  0
  193.1190  171.5840  144.4440 C   0  0  0  0  0  0  0  0  0  0  0  0
  191.7460  175.4780  145.8430 C   0  0  0  0  0  0  0  0  0  0  0  0
  190.0830  177.0020  144.6680 C   0  0  0  0  0  0  0  0  0  0  0  0
  193.9300  172.3180  145.4890 C   0  0  1  0  0  3  0  0  0  0  0  0
  189.9030  172.0880  142.4960 C   0  0  0  0  0  3  0  0  0  0  0  0
  187.5490  173.4880  141.6370 O   0  0  0  0  0  0  0  0  0  0  0  0
  188.0700  175.4510  142.9420 C   0  0  1  0  0  3  0  0  0  0  0  0
  191.0970  171.5190  142.9600 C   0  0  0  0  0  3  0  0  0  0  0  0
  189.3270  177.1280  145.7300 C   0  0  0  0  0  0  0  0  0  0  0  0
  191.8030  176.0090  146.9860 O   0  0  0  0  0  0  0  0  0  0  0  0
  193.5290  170.4810  143.9850 O   0  0  0  0  0  0  0  0  0  0  0  0
  189.4010  173.2490  143.1000 C   0  0  0  0  0  0  0  0  0  0  0  0
  191.8150  172.1250  144.0090 C   0  0  0  0  0  0  0  0  0  0  0  0
  190.0930  173.8040  144.1710 C   0  0  0  0  0  3  0  0  0  0  0  0
  191.3140  173.2960  144.6060 C   0  0  0  0  0  0  0  0  0  0  0  0
  189.5340  177.4830  143.3570 C   0  0  0  0  0  2  0  0  0  0  0  0
  189.2050  176.3280  142.4070 C   0  0  0  0  0  2  0  0  0  0  0  0
  188.5510  177.2400  146.7740 C   0  0  0  0  0  3  0  0  0  0  0  0
  187.1010  177.5200  146.5880 C   0  0  0  0  0  3  0  0  0  0  0  0
  186.6540  178.5370  147.6160 C   0  0  0  0  0  2  0  0  0  0  0  0
  186.3480  177.0680  147.8230 C   0  0  0  0  0  2  0  0  0  0  0  0
  195.4060  172.1060  145.2990 C   0  0  0  0  0  0  0  0  0  0  0  0
  196.0670  171.5090  146.1920 O   0  0  0  0  0  0  0  0  0  0  0  0
  196.0770  172.6390  144.1430 N   0  0  0  0  0  0  0  0  0  0  0  0
  195.9110  174.8380  143.0740 C   0  0  0  0  0  1  0  0  0  0  0  0
  195.3410  173.4290  143.1620 C   0  0  0  0  0  2  0  0  0  0  0  0
  197.5310  172.5850  144.0380 C   0  0  0  0  0  2  0  0  0  0  0  0
  197.9410  171.8140  142.7960 C   0  0  0  0  0  1  0  0  0  0  0  0
  186.7100  176.0000  142.5390 C   0  0  0  0  0  2  0  0  0  0  0  0
  186.6950  176.2390  141.1060 N   0  0  0  0  0  2  0  0  0  0  0  0
  186.2630  177.6170  140.9000 C   0  0  1  0  0  3  0  0  0  0  0  0
  186.7280  176.8320  138.6390 N   0  0  0  0  0  1  0  0  0  0  0  0
  186.0710  177.8710  139.4130 C   0  0  0  0  0  2  0  0  0  0  0  0
  184.9830  177.9200  141.6970 C   0  0  1  0  0  3  0  0  0  0  0  0
  185.2500  178.7170  142.9380 C   0  0  0  0  0  0  0  0  0  0  0  0
  186.2560  179.4710  142.9940 O   0  0  0  0  0  0  0  0  0  0  0  0
  184.3430  178.6690  144.0380 N   0  0  0  0  0  1  0  0  0  0  0  0
  184.0290  178.5890  140.8770 O   0  0  0  0  0  0  0  0  0  0  0  0
  181.7330  178.4050  141.8290 C   0  0  0  0  0  1  0  0  0  0  0  0
  182.3460  177.5110  139.7150 O   0  0  0  0  0  0  0  0  0  0  0  0
  182.7130  178.1410  140.7420 C   0  0  0  0  0  0  0  0  0  0  0  0
  1  3  1  6  0  0  0
  1  6  1  0  0  0  0
  2  6  1  0  0  0  0
  4 11  1  0  0  0  0
  4 16  1  0  0  0  0
  5  8  1  0  0  0  0
  6 14  2  0  0  0  0
  7  2  1  0  0  0  0
  7 13  2  0  0  0  0
  8 26  1  6  0  0  0
  8  3  1  0  0  0  0
  9 12  2  0  0  0  0
  9 16  1  0  0  0  0
 10  4  2  0  0  0  0
 11 33  1  6  0  0  0
 12 17  1  0  0  0  0
 13 22  2  0  0  0  0
 15  5  2  0  0  0  0
 16 18  2  0  0  0  0
 17  5  1  0  0  0  0
 17 19  2  0  0  0  0
 18 19  1  0  0  0  0
 19  1  1  0  0  0  0
 20  7  1  0  0  0  0
 21 11  1  0  0  0  0
 21 20  1  0  0  0  0
 23 22  1  0  0  0  0
 23 24  1  0  0  0  0
 23 25  1  0  0  0  0
 24 25  1  0  0  0  0
 26 27  2  0  0  0  0
 28 26  1  0  0  0  0
 29 30  1  0  0  0  0
 30 28  1  0  0  0  0
 31 28  1  0  0  0  0
 32 31  1  0  0  0  0
 34 33  1  0  0  0  0
 35 37  1  6  0  0  0
 35 34  1  0  0  0  0
 35 38  1  0  0  0  0
 36 37  1  0  0  0  0
 38 42  1  6  0  0  0
 38 39  1  0  0  0  0
 39 40  2  0  0  0  0
 39 41  1  0  0  0  0
 44 45  2  0  0  0  0
 45 42  1  0  0  0  0
 45 43  1  0  0  0  0
M  END
>  <MODEL>
6

>  <REMARK>
 VINA RESULT:      -6.3      3.325      4.452
  Name = 
  12 active torsions:
  status: ('A' for Active; 'I' for Inactive)
    1  A    between atoms: C_2  and  N_45
    2  A    between atoms: C_4  and  N_26
    3  A    between atoms: C_4  and  C_29
    4  A    between atoms: C_6  and  C_14
    5  A    between atoms: C_6  and  C_19
    6  A    between atoms: C_6  and  O_42
    7  A    between atoms: C_10  and  C_44
    8  A    between atoms: C_12  and  C_18
    9  A    between atoms: C_14  and  N_26
   10  A    between atoms: C_14  and  C_27
   11  A    between atoms: C_35  and  N_45
   12  A    between atoms: O_42  and  C_43
                            x       y       z     vdW  Elec       q    Type
                         _______ _______ _______ _____ _____    ______ ____

>  <TORSDO>
F 12

$$$$
=
 OpenBabel11042414153D

 45 48  0  0  1  0  0  0  0  0999 V2000
  189.0220  174.6990  143.1030 C   0  0  1  0  0  3  0  0  0  0  0  0
  189.7130  173.8540  140.7760 N   0  0  0  0  0  2  0  0  0  0  0  0
  187.9840  175.8160  143.0090 C   0  0  0  0  0  2  0  0  0  0  0  0
  193.8530  174.4760  141.9980 C   0  0  0  0  0  0  0  0  0  0  0  0
  189.4620  177.2450  144.4630 C   0  0  0  0  0  0  0  0  0  0  0  0
  188.8890  173.7280  141.9510 C   0  0  0  0  0  0  0  0  0  0  0  0
  190.5420  172.8010  140.2550 C   0  0  0  0  0  0  0  0  0  0  0  0
  188.0610  176.7150  144.2470 C   0  0  1  0  0  3  0  0  0  0  0  0
  193.0060  176.3520  143.4490 C   0  0  0  0  0  3  0  0  0  0  0  0
  195.0510  174.8580  142.0970 O   0  0  0  0  0  0  0  0  0  0  0  0
  193.4610  173.4240  140.9830 C   0  0  1  0  0  3  0  0  0  0  0  0
  191.9230  177.0270  144.0280 C   0  0  0  0  0  3  0  0  0  0  0  0
  190.5010  171.5920  140.7570 C   0  0  0  0  0  0  0  0  0  0  0  0
  188.0710  172.7720  142.0470 O   0  0  0  0  0  0  0  0  0  0  0  0
  189.6430  178.2950  145.1410 O   0  0  0  0  0  0  0  0  0  0  0  0
  192.8010  175.1250  142.8030 C   0  0  0  0  0  0  0  0  0  0  0  0
  190.6210  176.4970  143.9350 C   0  0  0  0  0  0  0  0  0  0  0  0
  191.5190  174.5890  142.7690 C   0  0  0  0  0  3  0  0  0  0  0  0
  190.4170  175.2710  143.2770 C   0  0  0  0  0  0  0  0  0  0  0  0
  191.6220  173.1100  139.2600 C   0  0  0  0  0  2  0  0  0  0  0  0
  192.6800  174.0590  139.8290 C   0  0  0  0  0  2  0  0  0  0  0  0
  190.4890  170.3890  141.2640 C   0  0  0  0  0  3  0  0  0  0  0  0
  191.6790  169.5090  141.1020 C   0  0  0  0  0  3  0  0  0  0  0  0
  191.8800  169.2090  139.6320 C   0  0  0  0  0  2  0  0  0  0  0  0
  191.2350  168.1760  140.5330 C   0  0  0  0  0  2  0  0  0  0  0  0
  187.0520  177.8260  144.1630 C   0  0  0  0  0  0  0  0  0  0  0  0
  186.9130  178.4570  143.0790 O   0  0  0  0  0  0  0  0  0  0  0  0
  186.2990  178.2180  145.3240 N   0  0  0  0  0  0  0  0  0  0  0  0
  186.2580  178.5350  147.7540 C   0  0  0  0  0  1  0  0  0  0  0  0
  186.5350  177.5690  146.6100 C   0  0  0  0  0  2  0  0  0  0  0  0
  185.4470  179.4010  145.2920 C   0  0  0  0  0  2  0  0  0  0  0  0
  184.0490  179.0330  144.8280 C   0  0  0  0  0  1  0  0  0  0  0  0
  194.6440  172.6180  140.4710 C   0  0  0  0  0  2  0  0  0  0  0  0
  194.5880  171.2780  141.0290 N   0  0  0  0  0  2  0  0  0  0  0  0
  195.7700  171.1060  141.8660 C   0  0  1  0  0  3  0  0  0  0  0  0
  197.9370  171.3140  140.7680 N   0  0  0  0  0  1  0  0  0  0  0  0
  196.8630  172.0570  141.4010 C   0  0  0  0  0  2  0  0  0  0  0  0
  195.4320  171.3150  143.3510 C   0  0  1  0  0  3  0  0  0  0  0  0
  195.5120  170.0460  144.1460 C   0  0  0  0  0  0  0  0  0  0  0  0
  194.5680  169.7300  144.9160 O   0  0  0  0  0  0  0  0  0  0  0  0
  196.6260  169.1670  143.9970 N   0  0  0  0  0  1  0  0  0  0  0  0
  196.2770  172.3100  143.9230 O   0  0  0  0  0  0  0  0  0  0  0  0
  194.7020  173.4500  145.4820 C   0  0  0  0  0  1  0  0  0  0  0  0
  196.9330  172.8800  146.0650 O   0  0  0  0  0  0  0  0  0  0  0  0
  196.0350  172.8640  145.1820 C   0  0  0  0  0  0  0  0  0  0  0  0
  1  3  1  6  0  0  0
  1 19  1  0  0  0  0
  2  6  1  0  0  0  0
  3  8  1  0  0  0  0
  4 10  2  0  0  0  0
  4 16  1  0  0  0  0
  5 15  2  0  0  0  0
  6 14  2  0  0  0  0
  6  1  1  0  0  0  0
  7 13  2  0  0  0  0
  7  2  1  0  0  0  0
  8 26  1  6  0  0  0
  8  5  1  0  0  0  0
  9 12  1  0  0  0  0
 11 33  1  6  0  0  0
 11  4  1  0  0  0  0
 13 22  2  0  0  0  0
 16  9  2  0  0  0  0
 17 12  2  0  0  0  0
 17  5  1  0  0  0  0
 18 16  1  0  0  0  0
 18 19  2  0  0  0  0
 19 17  1  0  0  0  0
 20 21  1  0  0  0  0
 20  7  1  0  0  0  0
 21 11  1  0  0  0  0
 23 22  1  0  0  0  0
 24 25  1  0  0  0  0
 24 23  1  0  0  0  0
 25 23  1  0  0  0  0
 26 28  1  0  0  0  0
 27 26  2  0  0  0  0
 28 30  1  0  0  0  0
 30 29  1  0  0  0  0
 31 28  1  0  0  0  0
 32 31  1  0  0  0  0
 33 34  1  0  0  0  0
 34 35  1  0  0  0  0
 35 37  1  6  0  0  0
 35 38  1  0  0  0  0
 36 37  1  0  0  0  0
 38 42  1  1  0  0  0
 38 39  1  0  0  0  0
 39 40  2  0  0  0  0
 41 39  1  0  0  0  0
 42 45  1  0  0  0  0
 45 43  1  0  0  0  0
 45 44  2  0  0  0  0
M  END
>  <MODEL>
7

>  <REMARK>
 VINA RESULT:      -6.3      3.049     10.121
  Name = 
  12 active torsions:
  status: ('A' for Active; 'I' for Inactive)
    1  A    between atoms: C_2  and  N_45
    2  A    between atoms: C_4  and  N_26
    3  A    between atoms: C_4  and  C_29
    4  A    between atoms: C_6  and  C_14
    5  A    between atoms: C_6  and  C_19
    6  A    between atoms: C_6  and  O_42
    7  A    between atoms: C_10  and  C_44
    8  A    between atoms: C_12  and  C_18
    9  A    between atoms: C_14  and  N_26
   10  A    between atoms: C_14  and  C_27
   11  A    between atoms: C_35  and  N_45
   12  A    between atoms: O_42  and  C_43
                            x       y       z     vdW  Elec       q    Type
                         _______ _______ _______ _____ _____    ______ ____

>  <TORSDO>
F 12

$$$$
=
 OpenBabel11042414153D

 45 48  0  0  1  0  0  0  0  0999 V2000
  193.8130  172.7750  142.8140 C   0  0  1  0  0  3  0  0  0  0  0  0
  191.3060  172.2300  142.6530 N   0  0  0  0  0  2  0  0  0  0  0  0
  194.5110  171.8990  143.8520 C   0  0  0  0  0  2  0  0  0  0  0  0
  190.5490  176.4930  143.1770 C   0  0  0  0  0  0  0  0  0  0  0  0
  195.4140  173.9870  144.9320 C   0  0  0  0  0  0  0  0  0  0  0  0
  192.6510  172.0460  142.1740 C   0  0  0  0  0  0  0  0  0  0  0  0
  190.2030  172.6380  141.8260 C   0  0  0  0  0  0  0  0  0  0  0  0
  195.7530  172.6140  144.3950 C   0  0  1  0  0  3  0  0  0  0  0  0
  192.6590  176.5670  144.5500 C   0  0  0  0  0  3  0  0  0  0  0  0
  190.1680  177.6220  143.5900 O   0  0  0  0  0  0  0  0  0  0  0  0
  189.6040  175.5950  142.4090 C   0  0  1  0  0  3  0  0  0  0  0  0
  193.8320  175.9340  144.9840 C   0  0  0  0  0  3  0  0  0  0  0  0
  190.3310  172.7480  140.5280 C   0  0  0  0  0  0  0  0  0  0  0  0
  192.8690  171.3010  141.1790 O   0  0  0  0  0  0  0  0  0  0  0  0
  196.1730  174.5420  145.7750 O   0  0  0  0  0  0  0  0  0  0  0  0
  191.8920  175.9930  143.5270 C   0  0  0  0  0  0  0  0  0  0  0  0
  194.2290  174.7050  144.4200 C   0  0  0  0  0  0  0  0  0  0  0  0
  192.3270  174.8080  142.9440 C   0  0  0  0  0  3  0  0  0  0  0  0
  193.4510  174.1270  143.4010 C   0  0  0  0  0  0  0  0  0  0  0  0
  188.9360  173.1450  142.4500 C   0  0  0  0  0  2  0  0  0  0  0  0
  189.1640  174.4140  143.2780 C   0  0  0  0  0  2  0  0  0  0  0  0
  190.4510  172.8860  139.2350 C   0  0  0  0  0  3  0  0  0  0  0  0
  189.5270  173.7930  138.5020 C   0  0  0  0  0  3  0  0  0  0  0  0
  188.1190  173.2420  138.5850 C   0  0  0  0  0  2  0  0  0  0  0  0
  188.9330  173.0470  137.3230 C   0  0  0  0  0  2  0  0  0  0  0  0
  196.4450  171.7680  145.4270 C   0  0  0  0  0  0  0  0  0  0  0  0
  196.8160  172.2930  146.5130 O   0  0  0  0  0  0  0  0  0  0  0  0
  196.7500  170.3880  145.1560 N   0  0  0  0  0  0  0  0  0  0  0  0
  197.6580  169.7760  142.9640 C   0  0  0  0  0  1  0  0  0  0  0  0
  196.4270  169.8030  143.8590 C   0  0  0  0  0  2  0  0  0  0  0  0
  197.5690  169.6130  146.0810 C   0  0  0  0  0  2  0  0  0  0  0  0
  196.7020  168.9980  147.1660 C   0  0  0  0  0  1  0  0  0  0  0  0
  188.4070  176.3370  141.8380 C   0  0  0  0  0  2  0  0  0  0  0  0
  187.3010  176.2580  142.7770 N   0  0  0  0  0  2  0  0  0  0  0  0
  186.6870  177.5790  142.8370 C   0  0  1  0  0  3  0  0  0  0  0  0
  185.4780  178.3060  140.8490 N   0  0  0  0  0  1  0  0  0  0  0  0
  185.3630  177.5570  142.0870 C   0  0  0  0  0  2  0  0  0  0  0  0
  186.5060  178.0380  144.2930 C   0  0  1  0  0  3  0  0  0  0  0  0
  185.4110  179.0500  144.4490 C   0  0  0  0  0  0  0  0  0  0  0  0
  185.5870  180.2300  144.0470 O   0  0  0  0  0  0  0  0  0  0  0  0
  184.1500  178.6740  145.0000 N   0  0  0  0  0  1  0  0  0  0  0  0
  186.2700  176.9210  145.1460 O   0  0  0  0  0  0  0  0  0  0  0  0
  188.2820  176.2640  146.4610 C   0  0  0  0  0  1  0  0  0  0  0  0
  186.2860  177.0890  147.4520 O   0  0  0  0  0  0  0  0  0  0  0  0
  186.8910  176.7840  146.3890 C   0  0  0  0  0  0  0  0  0  0  0  0
  1 19  1  0  0  0  0
  1  3  1  1  0  0  0
  3  8  1  0  0  0  0
  4 16  1  0  0  0  0
  4 10  2  0  0  0  0
  5 15  2  0  0  0  0
  6  2  1  0  0  0  0
  6  1  1  0  0  0  0
  7 20  1  0  0  0  0
  7  2  1  0  0  0  0
  8  5  1  0  0  0  0
  8 26  1  1  0  0  0
  9 12  1  0  0  0  0
 11 33  1  1  0  0  0
 11  4  1  0  0  0  0
 11 21  1  0  0  0  0
 13  7  2  0  0  0  0
 14  6  2  0  0  0  0
 16  9  2  0  0  0  0
 17  5  1  0  0  0  0
 17 12  2  0  0  0  0
 18 19  2  0  0  0  0
 18 16  1  0  0  0  0
 19 17  1  0  0  0  0
 20 21  1  0  0  0  0
 22 13  2  0  0  0  0
 23 24  1  0  0  0  0
 23 22  1  0  0  0  0
 25 23  1  0  0  0  0
 25 24  1  0  0  0  0
 26 27  2  0  0  0  0
 28 26  1  0  0  0  0
 28 31  1  0  0  0  0
 29 30  1  0  0  0  0
 30 28  1  0  0  0  0
 31 32  1  0  0  0  0
 33 34  1  0  0  0  0
 34 35  1  0  0  0  0
 35 37  1  1  0  0  0
 35 38  1  0  0  0  0
 36 37  1  0  0  0  0
 38 39  1  6  0  0  0
 38 42  1  0  0  0  0
 39 41  1  0  0  0  0
 40 39  2  0  0  0  0
 42 45  1  0  0  0  0
 45 43  1  0  0  0  0
 45 44  2  0  0  0  0
M  END
>  <MODEL>
8

>  <REMARK>
 VINA RESULT:      -6.2      3.293      5.951
  Name = 
  12 active torsions:
  status: ('A' for Active; 'I' for Inactive)
    1  A    between atoms: C_2  and  N_45
    2  A    between atoms: C_4  and  N_26
    3  A    between atoms: C_4  and  C_29
    4  A    between atoms: C_6  and  C_14
    5  A    between atoms: C_6  and  C_19
    6  A    between atoms: C_6  and  O_42
    7  A    between atoms: C_10  and  C_44
    8  A    between atoms: C_12  and  C_18
    9  A    between atoms: C_14  and  N_26
   10  A    between atoms: C_14  and  C_27
   11  A    between atoms: C_35  and  N_45
   12  A    between atoms: O_42  and  C_43
                            x       y       z     vdW  Elec       q    Type
                         _______ _______ _______ _____ _____    ______ ____

>  <TORSDO>
F 12

$$$$
=
 OpenBabel11042414153D

 45 48  0  0  1  0  0  0  0  0999 V2000
  190.0200  177.0870  143.3800 C   0  0  1  0  0  3  0  0  0  0  0  0
  191.7380  175.8780  144.8630 N   0  0  0  0  0  2  0  0  0  0  0  0
  188.9490  177.7820  144.2170 C   0  0  0  0  0  2  0  0  0  0  0  0
  191.0140  172.3160  142.4530 C   0  0  0  0  0  0  0  0  0  0  0  0
  187.1900  176.5850  142.8690 C   0  0  0  0  0  0  0  0  0  0  0  0
  191.3440  177.0430  144.1120 C   0  0  0  0  0  0  0  0  0  0  0  0
  192.9700  175.1650  144.6590 C   0  0  0  0  0  0  0  0  0  0  0  0
  187.6550  177.9210  143.4080 C   0  0  1  0  0  3  0  0  0  0  0  0
  188.6690  173.1720  142.1260 C   0  0  0  0  0  3  0  0  0  0  0  0
  190.7160  171.1610  142.0430 O   0  0  0  0  0  0  0  0  0  0  0  0
  192.3400  172.5720  143.1370 C   0  0  1  0  0  3  0  0  0  0  0  0
  187.7440  174.2180  142.2510 C   0  0  0  0  0  3  0  0  0  0  0  0
  193.8900  175.6150  143.8440 C   0  0  0  0  0  0  0  0  0  0  0  0
  192.1270  178.0280  144.0220 O   0  0  0  0  0  0  0  0  0  0  0  0
  185.9790  176.4160  142.5560 O   0  0  0  0  0  0  0  0  0  0  0  0
  190.0300  173.4100  142.3620 C   0  0  0  0  0  0  0  0  0  0  0  0
  188.1680  175.5010  142.6470 C   0  0  0  0  0  0  0  0  0  0  0  0
  190.4400  174.6950  142.6970 C   0  0  0  0  0  3  0  0  0  0  0  0
  189.5340  175.7340  142.8930 C   0  0  0  0  0  0  0  0  0  0  0  0
  193.1460  173.7830  145.2180 C   0  0  0  0  0  2  0  0  0  0  0  0
  192.1340  172.7900  144.6380 C   0  0  0  0  0  2  0  0  0  0  0  0
  194.8050  176.0410  143.0150 C   0  0  0  0  0  3  0  0  0  0  0  0
  195.7670  175.0730  142.4210 C   0  0  0  0  0  3  0  0  0  0  0  0
  197.1530  175.3520  142.9640 C   0  0  0  0  0  2  0  0  0  0  0  0
  196.7730  175.8310  141.5780 C   0  0  0  0  0  2  0  0  0  0  0  0
  186.5860  178.5940  144.2230 C   0  0  0  0  0  0  0  0  0  0  0  0
  185.8740  179.4910  143.6940 O   0  0  0  0  0  0  0  0  0  0  0  0
  186.4190  178.2720  145.6160 N   0  0  0  0  0  0  0  0  0  0  0  0
  186.5450  176.4620  147.2630 C   0  0  0  0  0  1  0  0  0  0  0  0
  187.3120  177.3190  146.2650 C   0  0  0  0  0  2  0  0  0  0  0  0
  185.5020  179.0410  146.4500 C   0  0  0  0  0  2  0  0  0  0  0  0
  184.0640  178.6660  146.1380 C   0  0  0  0  0  1  0  0  0  0  0  0
  193.3680  171.4820  142.8730 C   0  0  0  0  0  2  0  0  0  0  0  0
  194.4990  172.0530  142.1620 N   0  0  0  0  0  2  0  0  0  0  0  0
  194.4390  171.5680  140.7890 C   0  0  1  0  0  3  0  0  0  0  0  0
  194.7890  169.1920  140.3690 N   0  0  0  0  0  1  0  0  0  0  0  0
  193.8070  170.1840  140.7670 C   0  0  0  0  0  2  0  0  0  0  0  0
  193.6780  172.5530  139.8860 C   0  0  1  0  0  3  0  0  0  0  0  0
  194.5830  173.5430  139.2180 C   0  0  0  0  0  0  0  0  0  0  0  0
  195.6600  173.1530  138.6940 O   0  0  0  0  0  0  0  0  0  0  0  0
  194.2100  174.9160  139.1220 N   0  0  0  0  0  1  0  0  0  0  0  0
  192.9100  171.8500  138.9130 O   0  0  0  0  0  0  0  0  0  0  0  0
  190.9570  173.3930  138.7860 C   0  0  0  0  0  1  0  0  0  0  0  0
  190.7640  171.0280  138.6690 O   0  0  0  0  0  0  0  0  0  0  0  0
  191.5300  172.0210  138.7820 C   0  0  0  0  0  0  0  0  0  0  0  0
  1  6  1  0  0  0  0
  1  3  1  1  0  0  0
  4 11  1  0  0  0  0
  5  8  1  0  0  0  0
  6  2  1  0  0  0  0
  7  2  1  0  0  0  0
  7 20  1  0  0  0  0
  8  3  1  0  0  0  0
  8 26  1  1  0  0  0
  9 12  2  0  0  0  0
  9 16  1  0  0  0  0
 10  4  2  0  0  0  0
 11 33  1  1  0  0  0
 11 21  1  0  0  0  0
 12 17  1  0  0  0  0
 13  7  2  0  0  0  0
 14  6  2  0  0  0  0
 15  5  2  0  0  0  0
 16  4  1  0  0  0  0
 16 18  2  0  0  0  0
 17  5  1  0  0  0  0
 17 19  2  0  0  0  0
 18 19  1  0  0  0  0
 19  1  1  0  0  0  0
 21 20  1  0  0  0  0
 22 13  2  0  0  0  0
 23 24  1  0  0  0  0
 23 22  1  0  0  0  0
 25 23  1  0  0  0  0
 25 24  1  0  0  0  0
 26 28  1  0  0  0  0
 27 26  2  0  0  0  0
 28 30  1  0  0  0  0
 28 31  1  0  0  0  0
 30 29  1  0  0  0  0
 32 31  1  0  0  0  0
 34 33  1  0  0  0  0
 35 37  1  1  0  0  0
 35 34  1  0  0  0  0
 36 37  1  0  0  0  0
 38 42  1  6  0  0  0
 38 35  1  0  0  0  0
 39 38  1  0  0  0  0
 40 39  2  0  0  0  0
 41 39  1  0  0  0  0
 44 45  2  0  0  0  0
 45 43  1  0  0  0  0
 45 42  1  0  0  0  0
M  END
>  <MODEL>
9

>  <REMARK>
 VINA RESULT:      -6.2      2.353      8.863
  Name = 
  12 active torsions:
  status: ('A' for Active; 'I' for Inactive)
    1  A    between atoms: C_2  and  N_45
    2  A    between atoms: C_4  and  N_26
    3  A    between atoms: C_4  and  C_29
    4  A    between atoms: C_6  and  C_14
    5  A    between atoms: C_6  and  C_19
    6  A    between atoms: C_6  and  O_42
    7  A    between atoms: C_10  and  C_44
    8  A    between atoms: C_12  and  C_18
    9  A    between atoms: C_14  and  N_26
   10  A    between atoms: C_14  and  C_27
   11  A    between atoms: C_35  and  N_45
   12  A    between atoms: O_42  and  C_43
                            x       y       z     vdW  Elec       q    Type
                         _______ _______ _______ _____ _____    ______ ____

>  <TORSDO>
F 12

$$$$
