=
 OpenBabel11042419443D

 40 45  0  0  1  0  0  0  0  0999 V2000
  189.3960  177.8630  144.6370 C   0  0  0  0  0  2  0  0  0  0  0  0
  185.3750  177.4220  145.1160 O   0  0  0  0  0  1  0  0  0  0  0  0
  186.6120  176.2910  142.6800 N   0  0  0  0  0  2  0  0  0  0  0  0
  188.6430  176.0180  146.3030 C   0  0  0  0  0  2  0  0  0  0  0  0
  188.6030  177.1670  143.6220 N   0  0  0  0  0  0  0  0  0  0  0  0
  187.2730  176.6270  146.2470 C   0  0  0  0  0  3  0  0  0  0  0  0
  187.3680  176.7830  143.7940 C   0  0  0  0  0  0  0  0  0  0  0  0
  189.7510  176.9770  145.8390 C   0  0  1  0  0  3  0  0  0  0  0  0
  186.6810  176.9490  145.0940 C   0  0  0  0  0  0  0  0  0  0  0  0
  191.9760  177.1140  144.7030 C   0  0  0  0  0  2  0  0  0  0  0  0
  192.8380  176.2500  143.7780 C   0  0  0  0  0  2  0  0  0  0  0  0
  193.9890  175.3060  145.8560 C   0  0  0  0  0  2  0  0  0  0  0  0
  192.8890  174.9510  146.8490 C   0  0  0  0  0  2  0  0  0  0  0  0
  191.1000  176.2860  145.6350 C   0  0  1  0  0  3  0  0  0  0  0  0
  193.4970  175.0350  144.4410 C   0  0  2  0  0  3  0  0  0  0  0  0
  191.8320  176.0480  146.9580 C   0  0  0  0  0  2  0  0  0  0  0  0
  195.2720  173.5120  143.9460 O   0  0  0  0  0  0  0  0  0  0  0  0
  194.8910  175.1790  142.3460 N   0  0  0  0  0  2  0  0  0  0  0  0
  194.6040  174.5190  143.5840 C   0  0  0  0  0  0  0  0  0  0  0  0
  195.4550  173.8620  140.3270 C   0  0  0  0  0  2  0  0  0  0  0  0
  196.6640  175.1850  138.5310 C   0  0  2  0  0  3  0  0  0  0  0  0
  197.5440  175.6780  139.6890 C   0  0  0  0  0  2  0  0  0  0  0  0
  195.9660  174.8000  141.4330 C   0  0  1  0  0  3  0  0  0  0  0  0
  195.3280  174.5760  138.9810 C   0  0  0  0  0  2  0  0  0  0  0  0
  196.7110  176.0370  140.9150 C   0  0  0  0  0  2  0  0  0  0  0  0
  197.3760  174.2560  137.7730 O   0  0  0  0  0  1  0  0  0  0  0  0
  188.7520  174.5630  140.1130 N   0  0  0  0  0  2  0  0  0  0  0  0
  187.1830  175.9130  141.4510 N   0  0  0  0  0  2  0  0  0  0  0  0
  187.9090  174.6970  141.2580 C   0  0  0  0  0  0  0  0  0  0  0  0
  187.7860  173.7430  142.0730 O   0  0  0  0  0  0  0  0  0  0  0  0
  191.6230  170.2230  137.4770 N   0  0  0  0  0  0  0  0  0  0  0  0
  189.4350  173.3200  139.7880 C   0  0  1  0  0  3  0  0  0  0  0  0
  189.7700  171.9940  137.6510 C   0  0  0  0  0  2  0  0  0  0  0  0
  189.9420  173.3750  138.3540 C   0  0  2  0  0  3  0  0  0  0  0  0
  192.8960  170.2950  137.9610 C   0  0  0  0  0  3  0  0  0  0  0  0
  193.1070  171.5190  138.6030 C   0  0  0  0  0  3  0  0  0  0  0  0
  191.1070  171.4070  137.8430 C   0  0  0  0  0  0  0  0  0  0  0  0
  190.8640  173.3820  140.3060 C   0  0  0  0  0  2  0  0  0  0  0  0
  191.3950  173.4450  138.8830 C   0  0  1  0  0  3  0  0  0  0  0  0
  191.9430  172.1690  138.4930 N   0  0  0  0  0  0  0  0  0  0  0  0
  3  7  1  0  0  0  0
  5  7  2  0  0  0  0
  5  1  1  0  0  0  0
  6  4  1  0  0  0  0
  7  9  1  0  0  0  0
  8  1  1  6  0  0  0
  8  4  1  0  0  0  0
  9  2  1  0  0  0  0
  9  6  2  0  0  0  0
 11 15  1  0  0  0  0
 11 10  1  0  0  0  0
 12 13  1  0  0  0  0
 13 16  1  0  0  0  0
 14 10  1  6  0  0  0
 14  8  1  0  0  0  0
 14 16  1  0  0  0  0
 15 19  1  6  0  0  0
 15 12  1  0  0  0  0
 18 19  1  0  0  0  0
 19 17  2  0  0  0  0
 20 23  1  0  0  0  0
 21 26  1  1  0  0  0
 21 24  1  0  0  0  0
 21 22  1  0  0  0  0
 22 25  1  0  0  0  0
 23 18  1  6  0  0  0
 24 20  1  0  0  0  0
 25 23  1  0  0  0  0
 27 29  1  0  0  0  0
 28  3  1  0  0  0  0
 29 28  1  0  0  0  0
 29 30  2  0  0  0  0
 31 37  2  0  0  0  0
 31 35  1  0  0  0  0
 32 27  1  1  0  0  0
 32 38  1  0  0  0  0
 33 37  1  0  0  0  0
 34 33  1  6  0  0  0
 34 39  1  0  0  0  0
 34 32  1  0  0  0  0
 35 36  2  0  0  0  0
 37 40  1  0  0  0  0
 39 38  1  1  0  0  0
 40 36  1  0  0  0  0
 40 39  1  0  0  0  0
M  END
>  <MODEL>
1

>  <REMARK>
 VINA RESULT:      -7.6      0.000      0.000
  Name = 
  5 active torsions:
  status: ('A' for Active; 'I' for Inactive)
    1  A    between atoms: N_3  and  C_8
    2  A    between atoms: N_7  and  N_10
    3  A    between atoms: C_24  and  N_31
    4  A    between atoms: C_27  and  C_34
    5  A    between atoms: C_28  and  C_33
                            x       y       z     vdW  Elec       q    Type
                         _______ _______ _______ _____ _____    ______ ____

>  <TORSDO>
F 5

$$$$
=
 OpenBabel11042419443D

 40 45  0  0  1  0  0  0  0  0999 V2000
  194.0870  172.8050  145.7570 C   0  0  0  0  0  2  0  0  0  0  0  0
  197.9410  172.0750  144.6590 O   0  0  0  0  0  1  0  0  0  0  0  0
  195.8230  171.6610  142.6380 N   0  0  0  0  0  2  0  0  0  0  0  0
  195.5410  174.8950  145.2430 C   0  0  0  0  0  2  0  0  0  0  0  0
  194.3950  172.3490  144.4010 N   0  0  0  0  0  0  0  0  0  0  0  0
  196.7350  173.9880  145.2890 C   0  0  0  0  0  3  0  0  0  0  0  0
  195.5980  172.3080  143.8970 C   0  0  0  0  0  0  0  0  0  0  0  0
  194.3100  174.3110  145.9530 C   0  0  1  0  0  3  0  0  0  0  0  0
  196.7670  172.8170  144.6460 C   0  0  0  0  0  0  0  0  0  0  0  0
  192.2230  175.2520  146.9640 C   0  0  0  0  0  2  0  0  0  0  0  0
  190.7120  175.1820  146.7300 C   0  0  0  0  0  2  0  0  0  0  0  0
  190.9170  177.2750  145.2750 C   0  0  0  0  0  2  0  0  0  0  0  0
  192.1030  177.0530  144.3450 C   0  0  0  0  0  2  0  0  0  0  0  0
  193.0260  175.0970  145.6790 C   0  0  1  0  0  3  0  0  0  0  0  0
  190.2020  175.9500  145.5040 C   0  0  2  0  0  3  0  0  0  0  0  0
  193.3120  176.4750  145.0770 C   0  0  0  0  0  2  0  0  0  0  0  0
  188.1190  175.8970  146.6760 O   0  0  0  0  0  0  0  0  0  0  0  0
  188.0160  176.6470  144.4600 N   0  0  0  0  0  2  0  0  0  0  0  0
  188.7270  176.1530  145.6020 C   0  0  0  0  0  0  0  0  0  0  0  0
  186.1460  178.0300  145.3090 C   0  0  0  0  0  2  0  0  0  0  0  0
  184.6630  178.9950  143.4900 C   0  0  2  0  0  3  0  0  0  0  0  0
  184.6820  177.5700  142.9170 C   0  0  0  0  0  2  0  0  0  0  0  0
  186.5720  176.8580  144.4090 C   0  0  1  0  0  3  0  0  0  0  0  0
  185.7870  179.2760  144.4980 C   0  0  0  0  0  2  0  0  0  0  0  0
  186.0820  176.9660  142.9590 C   0  0  0  0  0  2  0  0  0  0  0  0
  183.4250  179.2380  144.0830 O   0  0  0  0  0  1  0  0  0  0  0  0
  192.8160  171.8570  140.3840 N   0  0  0  0  0  2  0  0  0  0  0  0
  194.7950  171.3040  141.7460 N   0  0  0  0  0  2  0  0  0  0  0  0
  194.0570  172.2520  140.9710 C   0  0  0  0  0  0  0  0  0  0  0  0
  194.5080  173.4140  140.7840 O   0  0  0  0  0  0  0  0  0  0  0  0
  189.1550  174.0600  136.4140 N   0  0  0  0  0  0  0  0  0  0  0  0
  192.0630  172.7260  139.4930 C   0  0  1  0  0  3  0  0  0  0  0  0
  190.9270  172.3980  137.2490 C   0  0  0  0  0  2  0  0  0  0  0  0
  191.0390  171.9040  138.7230 C   0  0  2  0  0  3  0  0  0  0  0  0
  188.1690  174.6640  137.1380 C   0  0  0  0  0  3  0  0  0  0  0  0
  188.2220  174.2550  138.4740 C   0  0  0  0  0  3  0  0  0  0  0  0
  189.7700  173.3050  137.3370 C   0  0  0  0  0  0  0  0  0  0  0  0
  190.9460  173.4010  140.2760 C   0  0  0  0  0  2  0  0  0  0  0  0
  189.9050  172.5870  139.5250 C   0  0  1  0  0  3  0  0  0  0  0  0
  189.2500  173.4020  138.5310 N   0  0  0  0  0  0  0  0  0  0  0  0
  1  8  1  0  0  0  0
  3  7  1  0  0  0  0
  4  6  1  0  0  0  0
  5  1  1  0  0  0  0
  7  5  2  0  0  0  0
  7  9  1  0  0  0  0
  8  4  1  6  0  0  0
  9  2  1  0  0  0  0
  9  6  2  0  0  0  0
 11 10  1  0  0  0  0
 12 15  1  0  0  0  0
 13 16  1  0  0  0  0
 13 12  1  0  0  0  0
 14 16  1  1  0  0  0
 14  8  1  0  0  0  0
 14 10  1  0  0  0  0
 15 19  1  1  0  0  0
 15 11  1  0  0  0  0
 18 19  1  0  0  0  0
 19 17  2  0  0  0  0
 21 26  1  1  0  0  0
 21 24  1  0  0  0  0
 22 25  1  0  0  0  0
 22 21  1  0  0  0  0
 23 18  1  6  0  0  0
 23 20  1  0  0  0  0
 24 20  1  0  0  0  0
 25 23  1  0  0  0  0
 27 29  1  0  0  0  0
 28  3  1  0  0  0  0
 29 28  1  0  0  0  0
 30 29  2  0  0  0  0
 31 35  1  0  0  0  0
 31 37  2  0  0  0  0
 32 38  1  0  0  0  0
 32 27  1  1  0  0  0
 33 37  1  0  0  0  0
 34 33  1  6  0  0  0
 34 32  1  0  0  0  0
 34 39  1  0  0  0  0
 35 36  2  0  0  0  0
 36 40  1  0  0  0  0
 37 40  1  0  0  0  0
 39 38  1  1  0  0  0
 40 39  1  0  0  0  0
M  END
>  <MODEL>
2

>  <REMARK>
 VINA RESULT:      -7.5      2.502      7.820
  Name = 
  5 active torsions:
  status: ('A' for Active; 'I' for Inactive)
    1  A    between atoms: N_3  and  C_8
    2  A    between atoms: N_7  and  N_10
    3  A    between atoms: C_24  and  N_31
    4  A    between atoms: C_27  and  C_34
    5  A    between atoms: C_28  and  C_33
                            x       y       z     vdW  Elec       q    Type
                         _______ _______ _______ _____ _____    ______ ____

>  <TORSDO>
F 5

$$$$
=
 OpenBabel11042419443D

 40 45  0  0  1  0  0  0  0  0999 V2000
  189.7270  178.2130  143.6530 C   0  0  0  0  0  2  0  0  0  0  0  0
  185.7290  178.8170  143.1650 O   0  0  0  0  0  1  0  0  0  0  0  0
  187.0350  176.7670  141.4820 N   0  0  0  0  0  2  0  0  0  0  0  0
  188.1870  177.1640  145.4620 C   0  0  0  0  0  2  0  0  0  0  0  0
  188.9770  177.4330  142.6670 N   0  0  0  0  0  0  0  0  0  0  0  0
  187.0800  178.0080  144.9070 C   0  0  0  0  0  3  0  0  0  0  0  0
  187.6750  177.3950  142.6000 C   0  0  0  0  0  0  0  0  0  0  0  0
  189.5860  177.6750  145.0830 C   0  0  1  0  0  3  0  0  0  0  0  0
  186.8300  178.0880  143.5970 C   0  0  0  0  0  0  0  0  0  0  0  0
  191.9680  177.0440  144.6450 C   0  0  0  0  0  2  0  0  0  0  0  0
  192.7540  175.8160  144.1810 C   0  0  0  0  0  2  0  0  0  0  0  0
  193.0690  175.1840  146.6390 C   0  0  0  0  0  2  0  0  0  0  0  0
  191.7090  175.3300  147.3120 C   0  0  0  0  0  2  0  0  0  0  0  0
  190.7010  176.6800  145.4090 C   0  0  1  0  0  3  0  0  0  0  0  0
  192.8750  174.6870  145.2120 C   0  0  2  0  0  3  0  0  0  0  0  0
  191.0000  176.6210  146.9090 C   0  0  0  0  0  2  0  0  0  0  0  0
  195.0730  174.1970  144.4120 O   0  0  0  0  0  0  0  0  0  0  0  0
  193.7470  172.3380  144.9320 N   0  0  0  0  0  2  0  0  0  0  0  0
  193.9690  173.7500  144.8240 C   0  0  0  0  0  0  0  0  0  0  0  0
  195.8240  171.1750  145.6130 C   0  0  0  0  0  2  0  0  0  0  0  0
  195.6520  168.6440  145.5800 C   0  0  2  0  0  3  0  0  0  0  0  0
  195.0200  168.8480  144.1950 C   0  0  0  0  0  2  0  0  0  0  0  0
  194.7170  171.3140  144.5540 C   0  0  1  0  0  3  0  0  0  0  0  0
  195.6610  169.9080  146.4520 C   0  0  0  0  0  2  0  0  0  0  0  0
  194.0170  169.9960  144.1990 C   0  0  0  0  0  2  0  0  0  0  0  0
  196.9530  168.1660  145.4280 O   0  0  0  0  0  1  0  0  0  0  0  0
  189.0880  173.9530  140.0600 N   0  0  0  0  0  2  0  0  0  0  0  0
  187.6990  175.9230  140.5730 N   0  0  0  0  0  2  0  0  0  0  0  0
  188.1200  174.5940  140.8900 C   0  0  0  0  0  0  0  0  0  0  0  0
  187.6220  173.9850  141.8750 O   0  0  0  0  0  0  0  0  0  0  0  0
  191.2950  168.5830  139.4890 N   0  0  0  0  0  0  0  0  0  0  0  0
  189.4840  172.5660  140.2510 C   0  0  1  0  0  3  0  0  0  0  0  0
  189.9800  170.6370  138.6800 C   0  0  0  0  0  2  0  0  0  0  0  0
  190.3260  172.1060  139.0690 C   0  0  2  0  0  3  0  0  0  0  0  0
  192.3830  168.5590  140.3110 C   0  0  0  0  0  3  0  0  0  0  0  0
  192.7390  169.8560  140.6920 C   0  0  0  0  0  3  0  0  0  0  0  0
  191.0300  169.8960  139.4000 C   0  0  0  0  0  0  0  0  0  0  0  0
  190.7070  172.5130  141.1550 C   0  0  0  0  0  2  0  0  0  0  0  0
  191.5700  172.0600  139.9880 C   0  0  1  0  0  3  0  0  0  0  0  0
  191.8480  170.6480  140.0850 N   0  0  0  0  0  0  0  0  0  0  0  0
  2  9  1  0  0  0  0
  3  7  1  0  0  0  0
  5  1  1  0  0  0  0
  6  4  1  0  0  0  0
  7  5  2  0  0  0  0
  7  9  1  0  0  0  0
  8  1  1  6  0  0  0
  8 14  1  0  0  0  0
  8  4  1  0  0  0  0
  9  6  2  0  0  0  0
 11 10  1  0  0  0  0
 11 15  1  0  0  0  0
 12 13  1  0  0  0  0
 14 10  1  6  0  0  0
 14 16  1  0  0  0  0
 15 19  1  6  0  0  0
 15 12  1  0  0  0  0
 16 13  1  0  0  0  0
 17 19  2  0  0  0  0
 19 18  1  0  0  0  0
 20 24  1  0  0  0  0
 21 26  1  6  0  0  0
 21 24  1  0  0  0  0
 22 25  1  0  0  0  0
 22 21  1  0  0  0  0
 23 18  1  1  0  0  0
 23 20  1  0  0  0  0
 25 23  1  0  0  0  0
 27 29  1  0  0  0  0
 28 29  1  0  0  0  0
 28  3  1  0  0  0  0
 29 30  2  0  0  0  0
 31 35  1  0  0  0  0
 32 27  1  6  0  0  0
 32 38  1  0  0  0  0
 33 37  1  0  0  0  0
 34 33  1  1  0  0  0
 34 39  1  0  0  0  0
 34 32  1  0  0  0  0
 35 36  2  0  0  0  0
 37 31  2  0  0  0  0
 37 40  1  0  0  0  0
 39 40  1  0  0  0  0
 39 38  1  1  0  0  0
 40 36  1  0  0  0  0
M  END
>  <MODEL>
3

>  <REMARK>
 VINA RESULT:      -7.5      2.691      3.697
  Name = 
  5 active torsions:
  status: ('A' for Active; 'I' for Inactive)
    1  A    between atoms: N_3  and  C_8
    2  A    between atoms: N_7  and  N_10
    3  A    between atoms: C_24  and  N_31
    4  A    between atoms: C_27  and  C_34
    5  A    between atoms: C_28  and  C_33
                            x       y       z     vdW  Elec       q    Type
                         _______ _______ _______ _____ _____    ______ ____

>  <TORSDO>
F 5

$$$$
=
 OpenBabel11042419443D

 40 45  0  0  1  0  0  0  0  0999 V2000
  195.2750  173.8280  142.0340 C   0  0  0  0  0  2  0  0  0  0  0  0
  197.5410  172.3050  145.0580 O   0  0  0  0  0  1  0  0  0  0  0  0
  195.3850  174.2020  145.7630 N   0  0  0  0  0  2  0  0  0  0  0  0
  194.7200  171.3970  142.7610 C   0  0  0  0  0  2  0  0  0  0  0  0
  195.0180  174.2220  143.4200 N   0  0  0  0  0  0  0  0  0  0  0  0
  196.0150  171.4030  143.5170 C   0  0  0  0  0  3  0  0  0  0  0  0
  195.5330  173.6240  144.4600 C   0  0  0  0  0  0  0  0  0  0  0  0
  194.6530  172.4740  141.6660 C   0  0  1  0  0  3  0  0  0  0  0  0
  196.3700  172.4120  144.3180 C   0  0  0  0  0  0  0  0  0  0  0  0
  192.9120  174.1340  140.9810 C   0  0  0  0  0  2  0  0  0  0  0  0
  191.4370  174.4250  141.2720 C   0  0  0  0  0  2  0  0  0  0  0  0
  190.8320  172.9940  139.2410 C   0  0  0  0  0  2  0  0  0  0  0  0
  191.6570  171.7170  139.3370 C   0  0  0  0  0  2  0  0  0  0  0  0
  193.2510  172.6530  141.0810 C   0  0  1  0  0  3  0  0  0  0  0  0
  190.4380  173.4470  140.6410 C   0  0  2  0  0  3  0  0  0  0  0  0
  193.1130  171.9950  139.7060 C   0  0  0  0  0  2  0  0  0  0  0  0
  188.1910  173.6100  139.8440 O   0  0  0  0  0  0  0  0  0  0  0  0
  188.7660  175.0900  141.5650 N   0  0  0  0  0  2  0  0  0  0  0  0
  189.0690  174.0370  140.6420 C   0  0  0  0  0  0  0  0  0  0  0  0
  187.1890  176.2490  143.0820 C   0  0  0  0  0  2  0  0  0  0  0  0
  186.4670  178.5420  142.2700 C   0  0  2  0  0  3  0  0  0  0  0  0
  186.2350  177.8360  140.9270 C   0  0  0  0  0  2  0  0  0  0  0  0
  187.4790  175.7780  141.6480 C   0  0  1  0  0  3  0  0  0  0  0  0
  187.3670  177.7600  143.2380 C   0  0  0  0  0  2  0  0  0  0  0  0
  187.3770  176.8820  140.5880 C   0  0  0  0  0  2  0  0  0  0  0  0
  185.2370  178.8010  142.8740 O   0  0  0  0  0  1  0  0  0  0  0  0
  192.2790  176.3250  145.8240 N   0  0  0  0  0  2  0  0  0  0  0  0
  194.4760  175.2320  146.0640 N   0  0  0  0  0  2  0  0  0  0  0  0
  193.0670  175.1340  145.8380 C   0  0  0  0  0  0  0  0  0  0  0  0
  192.5230  174.0080  145.6820 O   0  0  0  0  0  0  0  0  0  0  0  0
  186.5440  176.0410  146.8470 N   0  0  0  0  0  0  0  0  0  0  0  0
  190.8290  176.2990  145.7120 C   0  0  1  0  0  3  0  0  0  0  0  0
  188.9700  175.2270  147.0660 C   0  0  0  0  0  2  0  0  0  0  0  0
  190.2110  176.1710  147.0970 C   0  0  2  0  0  3  0  0  0  0  0  0
  186.1000  177.3260  146.7370 C   0  0  0  0  0  3  0  0  0  0  0  0
  187.1760  178.2190  146.7600 C   0  0  0  0  0  3  0  0  0  0  0  0
  187.8730  176.2010  146.9350 C   0  0  0  0  0  0  0  0  0  0  0  0
  190.3080  177.7250  145.6010 C   0  0  0  0  0  2  0  0  0  0  0  0
  189.6880  177.6240  146.9860 C   0  0  1  0  0  3  0  0  0  0  0  0
  188.2600  177.4470  146.8860 N   0  0  0  0  0  0  0  0  0  0  0  0
  1  5  1  0  0  0  0
  3 28  1  0  0  0  0
  4  6  1  0  0  0  0
  5  7  2  0  0  0  0
  6  9  2  0  0  0  0
  7  3  1  0  0  0  0
  8  1  1  1  0  0  0
  8  4  1  0  0  0  0
  9  7  1  0  0  0  0
  9  2  1  0  0  0  0
 10 14  1  0  0  0  0
 10 11  1  0  0  0  0
 12 13  1  0  0  0  0
 12 15  1  0  0  0  0
 13 16  1  0  0  0  0
 14 16  1  6  0  0  0
 14  8  1  0  0  0  0
 15 19  1  6  0  0  0
 15 11  1  0  0  0  0
 17 19  2  0  0  0  0
 19 18  1  0  0  0  0
 20 24  1  0  0  0  0
 21 26  1  1  0  0  0
 21 24  1  0  0  0  0
 22 21  1  0  0  0  0
 23 18  1  1  0  0  0
 23 20  1  0  0  0  0
 25 22  1  0  0  0  0
 25 23  1  0  0  0  0
 27 29  1  0  0  0  0
 29 28  1  0  0  0  0
 30 29  2  0  0  0  0
 31 37  2  0  0  0  0
 32 27  1  1  0  0  0
 32 34  1  0  0  0  0
 34 33  1  6  0  0  0
 35 36  2  0  0  0  0
 35 31  1  0  0  0  0
 36 40  1  0  0  0  0
 37 33  1  0  0  0  0
 38 32  1  0  0  0  0
 39 38  1  6  0  0  0
 39 34  1  0  0  0  0
 40 37  1  0  0  0  0
 40 39  1  0  0  0  0
M  END
>  <MODEL>
4

>  <REMARK>
 VINA RESULT:      -7.3      2.628      9.093
  Name = 
  5 active torsions:
  status: ('A' for Active; 'I' for Inactive)
    1  A    between atoms: N_3  and  C_8
    2  A    between atoms: N_7  and  N_10
    3  A    between atoms: C_24  and  N_31
    4  A    between atoms: C_27  and  C_34
    5  A    between atoms: C_28  and  C_33
                            x       y       z     vdW  Elec       q    Type
                         _______ _______ _______ _____ _____    ______ ____

>  <TORSDO>
F 5

$$$$
=
 OpenBabel11042419443D

 40 45  0  0  1  0  0  0  0  0999 V2000
  193.8170  171.7370  145.2010 C   0  0  0  0  0  2  0  0  0  0  0  0
  196.2250  169.0450  143.3180 O   0  0  0  0  0  1  0  0  0  0  0  0
  193.7590  169.9030  141.9320 N   0  0  0  0  0  2  0  0  0  0  0  0
  195.9560  172.7040  144.0890 C   0  0  0  0  0  2  0  0  0  0  0  0
  193.4540  171.2180  143.8810 N   0  0  0  0  0  0  0  0  0  0  0  0
  196.4440  171.2920  143.9660 C   0  0  0  0  0  3  0  0  0  0  0  0
  194.2620  170.5390  143.1140 C   0  0  0  0  0  0  0  0  0  0  0  0
  194.8480  172.8720  145.1420 C   0  0  1  0  0  3  0  0  0  0  0  0
  195.6740  170.3090  143.4910 C   0  0  0  0  0  0  0  0  0  0  0  0
  192.7290  174.1250  145.5870 C   0  0  0  0  0  2  0  0  0  0  0  0
  191.7590  175.0310  144.8240 C   0  0  0  0  0  2  0  0  0  0  0  0
  193.0920  177.0430  145.6690 C   0  0  0  0  0  2  0  0  0  0  0  0
  194.5660  176.7190  145.4560 C   0  0  0  0  0  2  0  0  0  0  0  0
  194.1620  174.2380  145.0820 C   0  0  1  0  0  3  0  0  0  0  0  0
  192.2750  176.4450  144.5310 C   0  0  2  0  0  3  0  0  0  0  0  0
  194.9140  175.2970  145.8910 C   0  0  0  0  0  2  0  0  0  0  0  0
  191.3510  178.5530  143.8880 O   0  0  0  0  0  0  0  0  0  0  0  0
  189.8130  176.8050  144.1300 N   0  0  0  0  0  2  0  0  0  0  0  0
  191.1400  177.3420  144.1660 C   0  0  0  0  0  0  0  0  0  0  0  0
  187.9620  177.1030  142.5130 C   0  0  0  0  0  2  0  0  0  0  0  0
  185.6530  177.0910  143.5670 C   0  0  2  0  0  3  0  0  0  0  0  0
  186.2690  178.0640  144.5830 C   0  0  0  0  0  2  0  0  0  0  0  0
  188.6120  177.5780  143.8230 C   0  0  1  0  0  3  0  0  0  0  0  0
  186.6900  176.2910  142.7640 C   0  0  0  0  0  2  0  0  0  0  0  0
  187.6570  177.6130  145.0240 C   0  0  0  0  0  2  0  0  0  0  0  0
  184.8230  177.7960  142.6970 O   0  0  0  0  0  1  0  0  0  0  0  0
  190.9060  171.7270  140.2910 N   0  0  0  0  0  2  0  0  0  0  0  0
  192.5030  170.1870  141.3650 N   0  0  0  0  0  2  0  0  0  0  0  0
  192.2530  171.3130  140.5190 C   0  0  0  0  0  0  0  0  0  0  0  0
  193.2080  171.9150  139.9610 O   0  0  0  0  0  0  0  0  0  0  0  0
  188.7640  174.9070  135.8950 N   0  0  0  0  0  0  0  0  0  0  0  0
  190.5650  172.7910  139.3580 C   0  0  1  0  0  3  0  0  0  0  0  0
  189.9320  172.8520  136.9030 C   0  0  0  0  0  2  0  0  0  0  0  0
  189.6020  172.2590  138.3060 C   0  0  2  0  0  3  0  0  0  0  0  0
  187.7790  175.6660  136.4530 C   0  0  0  0  0  3  0  0  0  0  0  0
  187.4410  175.1760  137.7190 C   0  0  0  0  0  3  0  0  0  0  0  0
  188.9890  173.9820  136.8410 C   0  0  0  0  0  0  0  0  0  0  0  0
  189.4550  173.6450  139.9550 C   0  0  0  0  0  2  0  0  0  0  0  0
  188.4730  173.1220  138.9180 C   0  0  1  0  0  3  0  0  0  0  0  0
  188.2390  174.1180  137.9010 N   0  0  0  0  0  0  0  0  0  0  0  0
  2  9  1  0  0  0  0
  3  7  1  0  0  0  0
  5  1  1  0  0  0  0
  6  4  1  0  0  0  0
  7  9  1  0  0  0  0
  7  5  2  0  0  0  0
  8  4  1  6  0  0  0
  8  1  1  0  0  0  0
  9  6  2  0  0  0  0
 11 10  1  0  0  0  0
 13 12  1  0  0  0  0
 13 16  1  0  0  0  0
 14  8  1  0  0  0  0
 14 10  1  1  0  0  0
 14 16  1  0  0  0  0
 15 19  1  1  0  0  0
 15 11  1  0  0  0  0
 15 12  1  0  0  0  0
 17 19  2  0  0  0  0
 18 19  1  0  0  0  0
 20 24  1  0  0  0  0
 20 23  1  0  0  0  0
 21 26  1  6  0  0  0
 21 22  1  0  0  0  0
 22 25  1  0  0  0  0
 23 18  1  1  0  0  0
 23 25  1  0  0  0  0
 24 21  1  0  0  0  0
 27 29  1  0  0  0  0
 28  3  1  0  0  0  0
 29 28  1  0  0  0  0
 30 29  2  0  0  0  0
 31 35  1  0  0  0  0
 31 37  2  0  0  0  0
 32 38  1  0  0  0  0
 32 27  1  1  0  0  0
 34 33  1  6  0  0  0
 34 39  1  0  0  0  0
 34 32  1  0  0  0  0
 35 36  2  0  0  0  0
 36 40  1  0  0  0  0
 37 33  1  0  0  0  0
 37 40  1  0  0  0  0
 39 38  1  1  0  0  0
 40 39  1  0  0  0  0
M  END
>  <MODEL>
5

>  <REMARK>
 VINA RESULT:      -7.2      2.953      7.329
  Name = 
  5 active torsions:
  status: ('A' for Active; 'I' for Inactive)
    1  A    between atoms: N_3  and  C_8
    2  A    between atoms: N_7  and  N_10
    3  A    between atoms: C_24  and  N_31
    4  A    between atoms: C_27  and  C_34
    5  A    between atoms: C_28  and  C_33
                            x       y       z     vdW  Elec       q    Type
                         _______ _______ _______ _____ _____    ______ ____

>  <TORSDO>
F 5

$$$$
=
 OpenBabel11042419443D

 40 45  0  0  1  0  0  0  0  0999 V2000
  190.4530  177.4360  145.4280 C   0  0  0  0  0  2  0  0  0  0  0  0
  186.6990  176.3200  146.5480 O   0  0  0  0  0  1  0  0  0  0  0  0
  187.4850  175.9020  143.7280 N   0  0  0  0  0  2  0  0  0  0  0  0
  190.2720  175.2010  146.7380 C   0  0  0  0  0  2  0  0  0  0  0  0
  189.5340  176.8520  144.4500 N   0  0  0  0  0  0  0  0  0  0  0  0
  188.8690  175.6000  147.0850 C   0  0  0  0  0  3  0  0  0  0  0  0
  188.4110  176.2640  144.7600 C   0  0  0  0  0  0  0  0  0  0  0  0
  191.1490  176.3870  146.3050 C   0  0  1  0  0  3  0  0  0  0  0  0
  188.0100  176.0590  146.1700 C   0  0  0  0  0  0  0  0  0  0  0  0
  192.6040  176.4860  144.2710 C   0  0  0  0  0  2  0  0  0  0  0  0
  193.3210  175.5110  143.3350 C   0  0  0  0  0  2  0  0  0  0  0  0
  195.4030  175.7540  144.8000 C   0  0  0  0  0  2  0  0  0  0  0  0
  194.9430  175.6260  146.2470 C   0  0  0  0  0  2  0  0  0  0  0  0
  192.4850  175.9570  145.6950 C   0  0  1  0  0  3  0  0  0  0  0  0
  194.5660  174.8330  143.9220 C   0  0  2  0  0  3  0  0  0  0  0  0
  193.6780  176.4350  146.5260 C   0  0  0  0  0  2  0  0  0  0  0  0
  195.9160  173.1050  142.9720 O   0  0  0  0  0  0  0  0  0  0  0  0
  195.5820  174.9880  141.6200 N   0  0  0  0  0  2  0  0  0  0  0  0
  195.3940  174.2440  142.8300 C   0  0  0  0  0  0  0  0  0  0  0  0
  195.5180  173.9980  139.3520 C   0  0  0  0  0  2  0  0  0  0  0  0
  196.8150  175.3120  137.6110 C   0  0  2  0  0  3  0  0  0  0  0  0
  197.9290  175.3360  138.6680 C   0  0  0  0  0  2  0  0  0  0  0  0
  196.3950  174.5450  140.4910 C   0  0  1  0  0  3  0  0  0  0  0  0
  195.4280  174.9720  138.1770 C   0  0  0  0  0  2  0  0  0  0  0  0
  197.3800  175.6380  140.0580 C   0  0  0  0  0  2  0  0  0  0  0  0
  197.1510  174.4050  136.6070 O   0  0  0  0  0  1  0  0  0  0  0  0
  188.6200  174.6960  140.3500 N   0  0  0  0  0  2  0  0  0  0  0  0
  187.8100  175.8710  142.3600 N   0  0  0  0  0  2  0  0  0  0  0  0
  187.9430  174.6620  141.6070 C   0  0  0  0  0  0  0  0  0  0  0  0
  187.4450  173.5860  142.0340 O   0  0  0  0  0  0  0  0  0  0  0  0
  189.7260  170.9760  135.9950 N   0  0  0  0  0  0  0  0  0  0  0  0
  188.7000  173.5350  139.4760 C   0  0  1  0  0  3  0  0  0  0  0  0
  188.9570  173.2240  136.9710 C   0  0  0  0  0  2  0  0  0  0  0  0
  189.5520  173.8690  138.2590 C   0  0  2  0  0  3  0  0  0  0  0  0
  190.6900  170.1410  136.4780 C   0  0  0  0  0  3  0  0  0  0  0  0
  191.2610  170.6730  137.6390 C   0  0  0  0  0  3  0  0  0  0  0  0
  189.7470  171.9850  136.8800 C   0  0  0  0  0  0  0  0  0  0  0  0
  189.7810  172.5940  139.9870 C   0  0  0  0  0  2  0  0  0  0  0  0
  190.6540  172.9170  138.7850 C   0  0  1  0  0  3  0  0  0  0  0  0
  190.6230  171.8320  137.8350 N   0  0  0  0  0  0  0  0  0  0  0  0
  3  7  1  0  0  0  0
  4  6  1  0  0  0  0
  5  7  2  0  0  0  0
  5  1  1  0  0  0  0
  7  9  1  0  0  0  0
  8  1  1  6  0  0  0
  8  4  1  0  0  0  0
  9  2  1  0  0  0  0
  9  6  2  0  0  0  0
 11 15  1  0  0  0  0
 11 10  1  0  0  0  0
 12 13  1  0  0  0  0
 13 16  1  0  0  0  0
 14 10  1  6  0  0  0
 14  8  1  0  0  0  0
 14 16  1  0  0  0  0
 15 19  1  6  0  0  0
 15 12  1  0  0  0  0
 18 19  1  0  0  0  0
 19 17  2  0  0  0  0
 20 23  1  0  0  0  0
 21 26  1  6  0  0  0
 21 24  1  0  0  0  0
 21 22  1  0  0  0  0
 22 25  1  0  0  0  0
 23 18  1  1  0  0  0
 24 20  1  0  0  0  0
 25 23  1  0  0  0  0
 27 29  1  0  0  0  0
 28  3  1  0  0  0  0
 29 30  2  0  0  0  0
 29 28  1  0  0  0  0
 31 35  1  0  0  0  0
 31 37  2  0  0  0  0
 32 38  1  0  0  0  0
 32 27  1  1  0  0  0
 34 33  1  6  0  0  0
 34 39  1  0  0  0  0
 34 32  1  0  0  0  0
 35 36  2  0  0  0  0
 36 40  1  0  0  0  0
 37 33  1  0  0  0  0
 37 40  1  0  0  0  0
 39 38  1  1  0  0  0
 40 39  1  0  0  0  0
M  END
>  <MODEL>
6

>  <REMARK>
 VINA RESULT:      -7.1      1.193      1.484
  Name = 
  5 active torsions:
  status: ('A' for Active; 'I' for Inactive)
    1  A    between atoms: N_3  and  C_8
    2  A    between atoms: N_7  and  N_10
    3  A    between atoms: C_24  and  N_31
    4  A    between atoms: C_27  and  C_34
    5  A    between atoms: C_28  and  C_33
                            x       y       z     vdW  Elec       q    Type
                         _______ _______ _______ _____ _____    ______ ____

>  <TORSDO>
F 5

$$$$
=
 OpenBabel11042419443D

 40 45  0  0  1  0  0  0  0  0999 V2000
  188.9730  174.6740  135.8030 C   0  0  0  0  0  2  0  0  0  0  0  0
  185.3380  176.4210  135.2310 O   0  0  0  0  0  1  0  0  0  0  0  0
  186.4600  176.4220  137.9670 N   0  0  0  0  0  2  0  0  0  0  0  0
  189.0020  177.0390  134.7290 C   0  0  0  0  0  2  0  0  0  0  0  0
  188.2570  175.2750  136.9300 N   0  0  0  0  0  0  0  0  0  0  0  0
  187.5260  176.8810  134.5140 C   0  0  0  0  0  3  0  0  0  0  0  0
  187.2110  176.0450  136.8060 C   0  0  0  0  0  0  0  0  0  0  0  0
  189.7280  175.7020  134.9490 C   0  0  1  0  0  3  0  0  0  0  0  0
  186.7050  176.4530  135.4770 C   0  0  0  0  0  0  0  0  0  0  0  0
  191.8520  174.5130  135.5270 C   0  0  0  0  0  2  0  0  0  0  0  0
  192.8160  174.4130  136.7120 C   0  0  0  0  0  2  0  0  0  0  0  0
  194.1900  176.2940  135.6550 C   0  0  0  0  0  2  0  0  0  0  0  0
  193.2050  177.3770  135.2310 C   0  0  0  0  0  2  0  0  0  0  0  0
  191.1680  175.8710  135.4360 C   0  0  1  0  0  3  0  0  0  0  0  0
  193.7000  175.6450  136.9440 C   0  0  2  0  0  3  0  0  0  0  0  0
  191.9780  176.8000  134.5280 C   0  0  0  0  0  2  0  0  0  0  0  0
  196.0230  175.2820  137.3740 O   0  0  0  0  0  0  0  0  0  0  0  0
  194.5950  174.9810  139.2050 N   0  0  0  0  0  2  0  0  0  0  0  0
  194.8480  175.2950  137.8300 C   0  0  0  0  0  0  0  0  0  0  0  0
  196.5870  175.7480  140.4580 C   0  0  0  0  0  2  0  0  0  0  0  0
  196.4580  175.3440  142.9590 C   0  0  2  0  0  3  0  0  0  0  0  0
  196.0010  173.9320  142.5620 C   0  0  0  0  0  2  0  0  0  0  0  0
  195.6200  174.5890  140.1690 C   0  0  1  0  0  3  0  0  0  0  0  0
  196.3390  176.3770  141.8290 C   0  0  0  0  0  2  0  0  0  0  0  0
  194.9880  173.9690  141.4230 C   0  0  0  0  0  2  0  0  0  0  0  0
  197.7740  175.2910  143.4150 O   0  0  0  0  0  1  0  0  0  0  0  0
  187.3100  177.1120  141.5670 N   0  0  0  0  0  2  0  0  0  0  0  0
  186.9240  176.2620  139.2850 N   0  0  0  0  0  2  0  0  0  0  0  0
  186.5330  177.1090  140.3690 C   0  0  0  0  0  0  0  0  0  0  0  0
  185.4980  177.8230  140.2800 O   0  0  0  0  0  0  0  0  0  0  0  0
  184.8280  178.9470  146.5160 N   0  0  0  0  0  0  0  0  0  0  0  0
  186.9160  177.8600  142.7510 C   0  0  1  0  0  3  0  0  0  0  0  0
  184.7920  177.9920  144.1310 C   0  0  0  0  0  2  0  0  0  0  0  0
  185.8940  177.0590  143.5450 C   0  0  2  0  0  3  0  0  0  0  0  0
  185.7730  178.7520  147.4800 C   0  0  0  0  0  3  0  0  0  0  0  0
  186.7900  177.9170  147.0060 C   0  0  0  0  0  3  0  0  0  0  0  0
  185.3060  178.2220  145.4920 C   0  0  0  0  0  0  0  0  0  0  0  0
  187.9500  177.6470  143.8470 C   0  0  0  0  0  2  0  0  0  0  0  0
  186.9490  176.8360  144.6560 C   0  0  1  0  0  3  0  0  0  0  0  0
  186.4350  177.6210  145.7510 N   0  0  0  0  0  0  0  0  0  0  0  0
  1  5  1  0  0  0  0
  2  9  1  0  0  0  0
  3 28  1  0  0  0  0
  6  4  1  0  0  0  0
  6  9  2  0  0  0  0
  7  5  2  0  0  0  0
  7  3  1  0  0  0  0
  8  4  1  1  0  0  0
  8 14  1  0  0  0  0
  8  1  1  0  0  0  0
  9  7  1  0  0  0  0
 10 11  1  0  0  0  0
 11 15  1  0  0  0  0
 12 15  1  0  0  0  0
 13 12  1  0  0  0  0
 14 16  1  6  0  0  0
 14 10  1  0  0  0  0
 15 19  1  1  0  0  0
 16 13  1  0  0  0  0
 17 19  2  0  0  0  0
 19 18  1  0  0  0  0
 20 24  1  0  0  0  0
 21 26  1  6  0  0  0
 22 21  1  0  0  0  0
 23 18  1  6  0  0  0
 23 20  1  0  0  0  0
 23 25  1  0  0  0  0
 24 21  1  0  0  0  0
 25 22  1  0  0  0  0
 28 29  1  0  0  0  0
 29 27  1  0  0  0  0
 30 29  2  0  0  0  0
 31 35  1  0  0  0  0
 32 27  1  6  0  0  0
 32 34  1  0  0  0  0
 32 38  1  0  0  0  0
 33 37  1  0  0  0  0
 34 33  1  1  0  0  0
 34 39  1  0  0  0  0
 36 35  2  0  0  0  0
 37 40  1  0  0  0  0
 37 31  2  0  0  0  0
 39 38  1  6  0  0  0
 39 40  1  0  0  0  0
 40 36  1  0  0  0  0
M  END
>  <MODEL>
7

>  <REMARK>
 VINA RESULT:      -7.0      3.407      8.442
  Name = 
  5 active torsions:
  status: ('A' for Active; 'I' for Inactive)
    1  A    between atoms: N_3  and  C_8
    2  A    between atoms: N_7  and  N_10
    3  A    between atoms: C_24  and  N_31
    4  A    between atoms: C_27  and  C_34
    5  A    between atoms: C_28  and  C_33
                            x       y       z     vdW  Elec       q    Type
                         _______ _______ _______ _____ _____    ______ ____

>  <TORSDO>
F 5

$$$$
=
 OpenBabel11042419443D

 40 45  0  0  1  0  0  0  0  0999 V2000
  187.8500  175.7290  146.0720 C   0  0  0  0  0  2  0  0  0  0  0  0
  191.2300  176.0760  148.3200 O   0  0  0  0  0  1  0  0  0  0  0  0
  191.3600  174.4280  145.8680 N   0  0  0  0  0  2  0  0  0  0  0  0
  189.1580  177.9600  145.8270 C   0  0  0  0  0  2  0  0  0  0  0  0
  189.0810  175.0480  145.6660 N   0  0  0  0  0  0  0  0  0  0  0  0
  189.9260  177.5620  147.0510 C   0  0  0  0  0  3  0  0  0  0  0  0
  190.2540  175.2810  146.1880 C   0  0  0  0  0  0  0  0  0  0  0  0
  187.8230  177.2120  145.6800 C   0  0  1  0  0  3  0  0  0  0  0  0
  190.4520  176.3420  147.2000 C   0  0  0  0  0  0  0  0  0  0  0  0
  186.3710  178.7060  144.2940 C   0  0  0  0  0  2  0  0  0  0  0  0
  185.0860  178.6010  143.4700 C   0  0  0  0  0  2  0  0  0  0  0  0
  186.5330  178.1450  141.4110 C   0  0  0  0  0  2  0  0  0  0  0  0
  187.5700  177.1060  141.8200 C   0  0  0  0  0  2  0  0  0  0  0  0
  187.1690  177.4090  144.3110 C   0  0  1  0  0  3  0  0  0  0  0  0
  185.2230  177.8600  142.1330 C   0  0  2  0  0  3  0  0  0  0  0  0
  188.1970  177.4170  143.1780 C   0  0  0  0  0  2  0  0  0  0  0  0
  184.2360  178.4910  140.0500 O   0  0  0  0  0  0  0  0  0  0  0  0
  182.7340  178.0740  141.7970 N   0  0  0  0  0  2  0  0  0  0  0  0
  184.0560  178.1650  141.2540 C   0  0  0  0  0  0  0  0  0  0  0  0
  180.2950  177.6640  141.6750 C   0  0  0  0  0  2  0  0  0  0  0  0
  178.8940  179.7770  141.5620 C   0  0  2  0  0  3  0  0  0  0  0  0
  179.8970  180.2130  140.4840 C   0  0  0  0  0  2  0  0  0  0  0  0
  181.5100  178.3780  141.0590 C   0  0  1  0  0  3  0  0  0  0  0  0
  179.3950  178.6270  142.4490 C   0  0  0  0  0  2  0  0  0  0  0  0
  181.3320  179.8920  140.8880 C   0  0  0  0  0  2  0  0  0  0  0  0
  177.6910  179.4160  140.9550 O   0  0  0  0  0  1  0  0  0  0  0  0
  190.9820  172.9430  142.4320 N   0  0  0  0  0  2  0  0  0  0  0  0
  191.3600  173.5130  144.8000 N   0  0  0  0  0  2  0  0  0  0  0  0
  191.3460  173.9020  143.4240 C   0  0  0  0  0  0  0  0  0  0  0  0
  191.6780  175.0710  143.0890 O   0  0  0  0  0  0  0  0  0  0  0  0
  190.8280  172.6740  136.6070 N   0  0  0  0  0  0  0  0  0  0  0  0
  191.0510  173.2300  141.0070 C   0  0  1  0  0  3  0  0  0  0  0  0
  191.4850  171.8240  138.9410 C   0  0  0  0  0  2  0  0  0  0  0  0
  190.6100  172.0050  140.2170 C   0  0  2  0  0  3  0  0  0  0  0  0
  189.6970  173.3470  136.2510 C   0  0  0  0  0  3  0  0  0  0  0  0
  188.8710  173.5380  137.3630 C   0  0  0  0  0  3  0  0  0  0  0  0
  190.6470  172.4790  137.9230 C   0  0  0  0  0  0  0  0  0  0  0  0
  189.7900  173.9690  140.5830 C   0  0  0  0  0  2  0  0  0  0  0  0
  189.3250  172.7570  139.7920 C   0  0  1  0  0  3  0  0  0  0  0  0
  189.5270  172.9690  138.3800 N   0  0  0  0  0  0  0  0  0  0  0  0
  3  7  1  0  0  0  0
  4  6  1  0  0  0  0
  5  1  1  0  0  0  0
  5  7  2  0  0  0  0
  6  9  2  0  0  0  0
  7  9  1  0  0  0  0
  8  4  1  6  0  0  0
  8  1  1  0  0  0  0
  9  2  1  0  0  0  0
 10 14  1  0  0  0  0
 11 10  1  0  0  0  0
 12 13  1  0  0  0  0
 12 15  1  0  0  0  0
 13 16  1  0  0  0  0
 14 16  1  6  0  0  0
 14  8  1  0  0  0  0
 15 19  1  6  0  0  0
 15 11  1  0  0  0  0
 17 19  2  0  0  0  0
 19 18  1  0  0  0  0
 20 24  1  0  0  0  0
 21 26  1  6  0  0  0
 21 24  1  0  0  0  0
 22 25  1  0  0  0  0
 22 21  1  0  0  0  0
 23 20  1  0  0  0  0
 23 18  1  1  0  0  0
 25 23  1  0  0  0  0
 27 29  1  0  0  0  0
 28  3  1  0  0  0  0
 29 28  1  0  0  0  0
 30 29  2  0  0  0  0
 31 37  2  0  0  0  0
 32 27  1  1  0  0  0
 34 33  1  6  0  0  0
 34 32  1  0  0  0  0
 35 31  1  0  0  0  0
 35 36  2  0  0  0  0
 36 40  1  0  0  0  0
 37 40  1  0  0  0  0
 37 33  1  0  0  0  0
 38 32  1  0  0  0  0
 39 34  1  0  0  0  0
 39 38  1  1  0  0  0
 40 39  1  0  0  0  0
M  END
>  <MODEL>
8

>  <REMARK>
 VINA RESULT:      -7.0      4.232      9.002
  Name = 
  5 active torsions:
  status: ('A' for Active; 'I' for Inactive)
    1  A    between atoms: N_3  and  C_8
    2  A    between atoms: N_7  and  N_10
    3  A    between atoms: C_24  and  N_31
    4  A    between atoms: C_27  and  C_34
    5  A    between atoms: C_28  and  C_33
                            x       y       z     vdW  Elec       q    Type
                         _______ _______ _______ _____ _____    ______ ____

>  <TORSDO>
F 5

$$$$
=
 OpenBabel11042419443D

 40 45  0  0  1  0  0  0  0  0999 V2000
  187.2410  175.2190  142.7590 C   0  0  0  0  0  2  0  0  0  0  0  0
  186.3660  179.0840  143.7030 O   0  0  0  0  0  1  0  0  0  0  0  0
  188.8490  177.9160  144.8060 N   0  0  0  0  0  2  0  0  0  0  0  0
  187.7200  176.9800  140.9110 C   0  0  0  0  0  2  0  0  0  0  0  0
  188.1370  175.9890  143.6220 N   0  0  0  0  0  0  0  0  0  0  0  0
  186.9100  177.9470  141.7220 C   0  0  0  0  0  3  0  0  0  0  0  0
  188.0600  177.2800  143.7920 C   0  0  0  0  0  0  0  0  0  0  0  0
  187.4410  175.5100  141.2660 C   0  0  1  0  0  3  0  0  0  0  0  0
  187.0900  178.1020  143.0360 C   0  0  0  0  0  0  0  0  0  0  0  0
  188.4050  173.2040  141.3780 C   0  0  0  0  0  2  0  0  0  0  0  0
  189.7840  172.5500  141.4980 C   0  0  0  0  0  2  0  0  0  0  0  0
  189.8640  172.4280  138.9450 C   0  0  0  0  0  2  0  0  0  0  0  0
  189.4240  173.7900  138.4220 C   0  0  0  0  0  2  0  0  0  0  0  0
  188.4480  174.5390  140.6460 C   0  0  1  0  0  3  0  0  0  0  0  0
  190.6520  172.6140  140.2350 C   0  0  2  0  0  3  0  0  0  0  0  0
  188.1920  174.3200  139.1530 C   0  0  0  0  0  2  0  0  0  0  0  0
  192.0530  170.9010  139.3320 O   0  0  0  0  0  0  0  0  0  0  0  0
  192.4990  171.5100  141.5490 N   0  0  0  0  0  2  0  0  0  0  0  0
  191.7640  171.6230  140.3240 C   0  0  0  0  0  0  0  0  0  0  0  0
  194.9460  171.2720  141.8340 C   0  0  0  0  0  2  0  0  0  0  0  0
  195.6260  169.9910  143.9170 C   0  0  2  0  0  3  0  0  0  0  0  0
  194.5620  168.9790  143.4680 C   0  0  0  0  0  2  0  0  0  0  0  0
  193.5840  170.5600  141.7820 C   0  0  1  0  0  3  0  0  0  0  0  0
  195.4870  171.3730  143.2610 C   0  0  0  0  0  2  0  0  0  0  0  0
  193.2880  169.6740  142.9980 C   0  0  0  0  0  2  0  0  0  0  0  0
  196.8940  169.4720  143.6600 O   0  0  0  0  0  1  0  0  0  0  0  0
  191.9180  175.8400  145.4610 N   0  0  0  0  0  2  0  0  0  0  0  0
  189.9300  177.2970  145.4600 N   0  0  0  0  0  2  0  0  0  0  0  0
  191.0630  176.7570  144.7760 C   0  0  0  0  0  0  0  0  0  0  0  0
  191.3210  177.1060  143.5930 O   0  0  0  0  0  0  0  0  0  0  0  0
  197.4300  175.0290  143.7320 N   0  0  0  0  0  0  0  0  0  0  0  0
  193.1490  175.3340  144.8730 C   0  0  1  0  0  3  0  0  0  0  0  0
  195.2930  176.4170  144.0550 C   0  0  0  0  0  2  0  0  0  0  0  0
  194.3090  176.2440  145.2520 C   0  0  2  0  0  3  0  0  0  0  0  0
  197.9100  174.0350  144.5320 C   0  0  0  0  0  3  0  0  0  0  0  0
  197.0630  173.8370  145.6280 C   0  0  0  0  0  3  0  0  0  0  0  0
  196.3090  175.3990  144.3700 C   0  0  0  0  0  0  0  0  0  0  0  0
  193.7120  174.2320  145.7580 C   0  0  0  0  0  2  0  0  0  0  0  0
  194.8760  175.1240  146.1570 C   0  0  1  0  0  3  0  0  0  0  0  0
  196.0770  174.7260  145.4640 N   0  0  0  0  0  0  0  0  0  0  0  0
  1  5  1  0  0  0  0
  3 28  1  0  0  0  0
  4  6  1  0  0  0  0
  5  7  2  0  0  0  0
  6  9  2  0  0  0  0
  7  3  1  0  0  0  0
  8  4  1  1  0  0  0
  8  1  1  0  0  0  0
  9  2  1  0  0  0  0
  9  7  1  0  0  0  0
 10 11  1  0  0  0  0
 12 15  1  0  0  0  0
 13 12  1  0  0  0  0
 13 16  1  0  0  0  0
 14 16  1  6  0  0  0
 14  8  1  0  0  0  0
 14 10  1  0  0  0  0
 15 19  1  1  0  0  0
 15 11  1  0  0  0  0
 17 19  2  0  0  0  0
 19 18  1  0  0  0  0
 20 24  1  0  0  0  0
 21 26  1  6  0  0  0
 22 21  1  0  0  0  0
 23 18  1  1  0  0  0
 23 20  1  0  0  0  0
 23 25  1  0  0  0  0
 24 21  1  0  0  0  0
 25 22  1  0  0  0  0
 29 28  1  0  0  0  0
 29 27  1  0  0  0  0
 30 29  2  0  0  0  0
 31 37  2  0  0  0  0
 31 35  1  0  0  0  0
 32 34  1  0  0  0  0
 32 27  1  1  0  0  0
 32 38  1  0  0  0  0
 33 37  1  0  0  0  0
 34 33  1  6  0  0  0
 34 39  1  0  0  0  0
 35 36  2  0  0  0  0
 37 40  1  0  0  0  0
 39 38  1  6  0  0  0
 40 36  1  0  0  0  0
 40 39  1  0  0  0  0
M  END
>  <MODEL>
9

>  <REMARK>
 VINA RESULT:      -6.9      2.859      6.555
  Name = 
  5 active torsions:
  status: ('A' for Active; 'I' for Inactive)
    1  A    between atoms: N_3  and  C_8
    2  A    between atoms: N_7  and  N_10
    3  A    between atoms: C_24  and  N_31
    4  A    between atoms: C_27  and  C_34
    5  A    between atoms: C_28  and  C_33
                            x       y       z     vdW  Elec       q    Type
                         _______ _______ _______ _____ _____    ______ ____

>  <TORSDO>
F 5

$$$$
