=
 OpenBabel11042419383D

 61 65  0  0  1  0  0  0  0  0999 V2000
  192.0070  175.2500  146.9410 C   0  0  0  0  0  2  0  0  0  0  0  0
  191.6920  175.4960  143.0550 C   0  0  1  0  0  3  0  0  0  0  0  0
  192.2580  175.5400  145.4770 C   0  0  0  0  0  0  0  0  0  0  0  0
  193.5520  173.5500  140.7030 O   0  0  0  0  0  0  0  0  0  0  0  0
  192.3760  174.2580  140.9760 C   0  0  2  0  0  3  0  0  0  0  0  0
  196.5910  175.8880  141.2530 N   0  0  0  0  0  0  0  0  0  0  0  0
  195.2460  176.3860  143.2270 C   0  0  1  0  0  3  0  0  0  0  0  0
  192.0290  174.1310  142.4560 C   0  0  0  0  0  2  0  0  0  0  0  0
  194.7760  175.7580  146.0720 C   0  0  0  0  0  1  0  0  0  0  0  0
  190.6560  175.7280  147.4450 C   0  0  0  0  0  2  0  0  0  0  0  0
  191.3100  175.3670  144.5070 C   0  0  0  0  0  0  0  0  0  0  0  0
  193.9020  176.2450  143.8060 C   0  0  0  0  0  0  0  0  0  0  0  0
  196.3100  176.9710  143.9150 O   0  0  0  0  0  1  0  0  0  0  0  0
  196.6520  175.1360  140.0360 C   0  0  0  0  0  0  0  0  0  0  0  0
  189.5900  174.6640  147.2280 C   0  0  0  0  0  2  0  0  0  0  0  0
  192.8200  176.3480  142.9260 O   0  0  0  0  0  0  0  0  0  0  0  0
  194.2730  174.3420  139.7980 C   0  0  0  0  0  2  0  0  0  0  0  0
  193.6580  175.8920  145.0800 C   0  0  0  0  0  0  0  0  0  0  0  0
  195.3900  175.8770  142.0120 C   0  0  0  0  0  3  0  0  0  0  0  0
  197.5020  175.4660  139.1660 O   0  0  0  0  0  0  0  0  0  0  0  0
  189.8510  175.1180  144.7770 C   0  0  0  0  0  2  0  0  0  0  0  0
  195.7460  173.9300  139.8110 C   0  0  1  0  0  3  0  0  0  0  0  0
  189.6210  174.0470  145.8270 C   0  0  0  0  0  2  0  0  0  0  0  0
  191.3240  173.7390  140.2110 O   0  0  0  0  0  0  0  0  0  0  0  0
  191.3780  172.3530  140.4080 C   0  0  2  0  0  3  0  0  0  0  0  0
  191.5000  171.7100  139.1720 O   0  0  0  0  0  1  0  0  0  0  0  0
  190.2080  171.9330  141.0390 O   0  0  0  0  0  0  0  0  0  0  0  0
  189.1850  172.6410  140.4010 C   0  0  0  0  0  2  0  0  0  0  0  0
  188.3750  172.5920  142.6670 O   0  0  0  0  0  1  0  0  0  0  0  0
  188.1860  173.1830  141.4140 C   0  0  1  0  0  3  0  0  0  0  0  0
  188.1080  175.2520  140.2190 O   0  0  0  0  0  1  0  0  0  0  0  0
  188.2190  174.7090  141.5000 C   0  0  1  0  0  3  0  0  0  0  0  0
  187.1130  175.2630  142.3840 C   0  0  0  0  0  2  0  0  0  0  0  0
  186.7490  176.5440  141.9430 O   0  0  0  0  0  0  0  0  0  0  0  0
  185.9970  177.1460  142.9690 C   0  0  1  0  0  0  0  0  0  0  0  0
  186.7350  177.9270  144.0250 C   0  0  2  0  0  0  0  0  0  0  0  0
  185.8700  179.1280  144.3640 C   0  0  2  0  0  3  0  0  0  0  0  0
  185.7270  179.2400  145.7480 O   0  0  0  0  0  1  0  0  0  0  0  0
  188.2330  178.0860  143.8250 C   0  0  0  0  0  1  0  0  0  0  0  0
  184.6450  177.7880  142.6980 C   0  0  0  0  0  2  0  0  0  0  0  0
  186.2110  176.5290  144.3410 C   0  0  0  0  0  2  0  0  0  0  0  0
  184.5030  178.9160  143.7130 C   0  0  0  0  0  2  0  0  0  0  0  0
  196.0900  173.1340  138.5340 C   0  0  2  0  0  3  0  0  0  0  0  0
  195.6070  172.6180  136.3510 C   0  0  0  0  0  1  0  0  0  0  0  0
  195.3150  173.4960  137.4080 O   0  0  0  0  0  0  0  0  0  0  0  0
  196.1770  171.6130  138.7530 C   0  0  0  0  0  2  0  0  0  0  0  0
  197.3280  171.2960  139.6910 C   0  0  0  0  0  2  0  0  0  0  0  0
  196.9400  171.0980  142.1190 C   0  0  0  0  0  0  0  0  0  0  0  0
  197.5960  172.3120  142.3160 O   0  0  0  0  0  1  0  0  0  0  0  0
  196.8120  170.5850  140.8960 C   0  0  0  0  0  3  0  0  0  0  0  0
  196.3630  170.3560  143.2840 C   0  0  2  0  0  3  0  0  0  0  0  0
  194.9190  170.0000  143.0700 C   0  0  0  0  0  0  0  0  0  0  0  0
  194.1900  170.7160  142.3990 O   0  0  0  0  0  0  0  0  0  0  0  0
  194.3790  168.7490  143.6710 C   0  0  0  0  0  1  0  0  0  0  0  0
  197.5430  170.7640  145.2930 O   0  0  0  0  0  0  0  0  0  0  0  0
  196.5900  171.0810  144.5880 C   0  0  0  0  0  0  0  0  0  0  0  0
  196.3690  173.0110  145.9300 F   0  0  0  0  0  0  0  0  0  0  0  0
  195.2960  172.9430  143.9440 F   0  0  0  0  0  0  0  0  0  0  0  0
  195.6770  172.1960  145.0460 C   0  0  0  0  0  0  0  0  0  0  0  0
  194.4220  171.6690  145.7430 C   0  0  0  0  0  2  0  0  0  0  0  0
  193.2750  172.2510  145.1900 O   0  0  0  0  0  1  0  0  0  0  0  0
  1 10  1  0  0  0  0
  2  8  1  1  0  0  0
  2 11  1  0  0  0  0
  3  1  1  0  0  0  0
  4  5  1  0  0  0  0
  5 24  1  6  0  0  0
  5  8  1  0  0  0  0
  6 19  2  0  0  0  0
  7 12  1  0  0  0  0
  7 13  1  1  0  0  0
 11 21  1  0  0  0  0
 11  3  2  0  0  0  0
 12 18  2  0  0  0  0
 14  6  1  0  0  0  0
 15 10  1  0  0  0  0
 16  2  1  0  0  0  0
 16 12  1  0  0  0  0
 17 22  1  0  0  0  0
 17  4  1  0  0  0  0
 18  3  1  0  0  0  0
 18  9  1  0  0  0  0
 19  7  1  0  0  0  0
 20 14  2  0  0  0  0
 21 23  1  0  0  0  0
 22 43  1  6  0  0  0
 22 14  1  0  0  0  0
 23 15  1  0  0  0  0
 24 25  1  0  0  0  0
 25 26  1  6  0  0  0
 25 27  1  0  0  0  0
 28 27  1  0  0  0  0
 28 30  1  0  0  0  0
 30 32  1  0  0  0  0
 30 29  1  1  0  0  0
 32 31  1  6  0  0  0
 32 33  1  0  0  0  0
 34 33  1  0  0  0  0
 35 34  1  6  0  0  0
 35 36  1  0  0  0  0
 35 41  1  0  0  0  0
 36 39  1  6  0  0  0
 36 41  1  0  0  0  0
 36 37  1  0  0  0  0
 37 38  1  1  0  0  0
 40 35  1  0  0  0  0
 40 42  1  0  0  0  0
 42 37  1  0  0  0  0
 43 46  1  1  0  0  0
 44 45  1  0  0  0  0
 45 43  1  0  0  0  0
 46 47  1  0  0  0  0
 47 50  1  0  0  0  0
 48 49  1  0  0  0  0
 50 48  2  0  0  0  0
 51 48  1  6  0  0  0
 51 56  1  0  0  0  0
 52 51  1  0  0  0  0
 52 54  1  0  0  0  0
 53 52  2  0  0  0  0
 56 59  1  0  0  0  0
 56 55  2  0  0  0  0
 58 59  1  0  0  0  0
 59 60  1  0  0  0  0
 59 57  1  0  0  0  0
 61 60  1  0  0  0  0
M  END
>  <MODEL>
1

>  <REMARK>
 VINA RESULT:      -6.9      0.000      0.000
  Name = 
  19 active torsions:
  status: ('A' for Active; 'I' for Inactive)
    1  A    between atoms: C_1  and  C_59
    2  A    between atoms: C_5  and  O_6
    3  A    between atoms: O_6  and  C_53
    4  A    between atoms: C_13  and  O_43
    5  A    between atoms: C_22  and  C_27
    6  A    between atoms: C_22  and  C_61
    7  A    between atoms: C_28  and  O_52
    8  A    between atoms: C_28  and  C_54
    9  A    between atoms: C_30  and  C_59
   10  A    between atoms: O_31  and  C_57
   11  A    between atoms: C_40  and  C_41
   12  A    between atoms: C_40  and  C_57
   13  A    between atoms: C_41  and  C_56
   14  A    between atoms: O_43  and  C_48
   15  A    between atoms: C_44  and  C_53
   16  A    between atoms: C_44  and  C_54
   17  A    between atoms: C_48  and  O_52
   18  A    between atoms: C_51  and  C_57
   19  A    between atoms: C_59  and  C_61
                            x       y       z     vdW  Elec       q    Type
                         _______ _______ _______ _____ _____    ______ ____

>  <TORSDO>
F 19

$$$$
=
 OpenBabel11042419383D

 61 65  0  0  1  0  0  0  0  0999 V2000
  190.0890  177.3560  145.3970 C   0  0  0  0  0  2  0  0  0  0  0  0
  189.2930  173.8040  143.9780 C   0  0  1  0  0  3  0  0  0  0  0  0
  189.5620  176.2060  144.5650 C   0  0  0  0  0  0  0  0  0  0  0  0
  190.6990  172.4030  141.0050 O   0  0  0  0  0  0  0  0  0  0  0  0
  190.1440  172.1680  142.2680 C   0  0  2  0  0  3  0  0  0  0  0  0
  188.2170  174.5090  138.9040 N   0  0  0  0  0  2  0  0  0  0  0  0
  188.1360  175.6770  141.0440 C   0  0  0  0  0  0  0  0  0  0  0  0
  190.5190  173.3030  143.2160 C   0  0  0  0  0  2  0  0  0  0  0  0
  189.2200  177.9130  142.6380 C   0  0  0  0  0  1  0  0  0  0  0  0
  189.8090  177.2220  146.8850 C   0  0  0  0  0  2  0  0  0  0  0  0
  189.6700  174.8980  144.9440 C   0  0  0  0  0  0  0  0  0  0  0  0
  188.4770  175.5550  142.4700 C   0  0  0  0  0  0  0  0  0  0  0  0
  187.5720  176.8290  140.4960 O   0  0  0  0  0  1  0  0  0  0  0  0
  188.7710  173.3920  138.1980 C   0  0  0  0  0  0  0  0  0  0  0  0
  190.9170  176.4390  147.5760 C   0  0  0  0  0  2  0  0  0  0  0  0
  188.3370  174.2900  143.0480 O   0  0  0  0  0  0  0  0  0  0  0  0
  189.7220  172.0110  140.0790 C   0  0  0  0  0  2  0  0  0  0  0  0
  189.0360  176.5340  143.2020 C   0  0  0  0  0  0  0  0  0  0  0  0
  188.4440  174.6230  140.3010 C   0  0  0  0  0  3  0  0  0  0  0  0
  188.2420  173.0470  137.1080 O   0  0  0  0  0  0  0  0  0  0  0  0
  190.0810  174.4400  146.3170 C   0  0  0  0  0  2  0  0  0  0  0  0
  190.0020  172.6630  138.7240 C   0  0  1  0  0  3  0  0  0  0  0  0
  191.3130  175.1610  146.8340 C   0  0  0  0  0  2  0  0  0  0  0  0
  190.6310  170.9600  142.7810 O   0  0  0  0  0  0  0  0  0  0  0  0
  191.9880  171.1940  143.0370 C   0  0  2  0  0  3  0  0  0  0  0  0
  192.7660  170.4950  142.1080 O   0  0  0  0  0  1  0  0  0  0  0  0
  192.2940  170.7540  144.3240 O   0  0  0  0  0  0  0  0  0  0  0  0
  193.4950  170.0540  144.1870 C   0  0  0  0  0  2  0  0  0  0  0  0
  194.5320  169.7300  146.3340 O   0  0  0  0  0  1  0  0  0  0  0  0
  194.5280  170.5400  145.1950 C   0  0  1  0  0  3  0  0  0  0  0  0
  195.8670  170.3400  143.2260 O   0  0  0  0  0  1  0  0  0  0  0  0
  195.9230  170.6600  144.5830 C   0  0  1  0  0  3  0  0  0  0  0  0
  196.5120  172.0510  144.7530 C   0  0  0  0  0  2  0  0  0  0  0  0
  196.0180  172.9020  143.7540 O   0  0  0  0  0  0  0  0  0  0  0  0
  195.3610  173.9690  144.3950 C   0  0  1  0  0  0  0  0  0  0  0  0
  196.0790  175.2900  144.4880 C   0  0  2  0  0  0  0  0  0  0  0  0
  195.0290  176.3720  144.2990 C   0  0  2  0  0  3  0  0  0  0  0  0
  195.1430  177.3310  145.3060 O   0  0  0  0  0  1  0  0  0  0  0  0
  197.4200  175.3840  143.7780 C   0  0  0  0  0  1  0  0  0  0  0  0
  193.8670  174.2000  144.2340 C   0  0  0  0  0  2  0  0  0  0  0  0
  195.9910  174.3850  145.7130 C   0  0  0  0  0  2  0  0  0  0  0  0
  193.6550  175.7040  144.3650 C   0  0  0  0  0  2  0  0  0  0  0  0
  190.5670  171.6200  137.7350 C   0  0  2  0  0  3  0  0  0  0  0  0
  190.3010  169.3500  137.9350 C   0  0  0  0  0  1  0  0  0  0  0  0
  191.0630  170.4510  138.3580 O   0  0  0  0  0  0  0  0  0  0  0  0
  191.5280  172.2110  136.6890 C   0  0  0  0  0  2  0  0  0  0  0  0
  192.8560  171.4760  136.7410 C   0  0  0  0  0  2  0  0  0  0  0  0
  194.8440  172.4290  137.8480 C   0  0  0  0  0  0  0  0  0  0  0  0
  194.7240  171.4820  138.8640 O   0  0  0  0  0  1  0  0  0  0  0  0
  193.9700  172.4620  136.8430 C   0  0  0  0  0  3  0  0  0  0  0  0
  195.9660  173.4200  137.8720 C   0  0  2  0  0  3  0  0  0  0  0  0
  197.2060  172.8870  137.2140 C   0  0  0  0  0  0  0  0  0  0  0  0
  197.6110  171.7590  137.4600 O   0  0  0  0  0  0  0  0  0  0  0  0
  197.9410  173.7400  136.2390 C   0  0  0  0  0  1  0  0  0  0  0  0
  197.2980  173.6860  139.8080 O   0  0  0  0  0  0  0  0  0  0  0  0
  196.2310  173.9450  139.2610 C   0  0  0  0  0  0  0  0  0  0  0  0
  194.2830  175.2690  139.0890 F   0  0  0  0  0  0  0  0  0  0  0  0
  194.5740  174.0030  140.9360 F   0  0  0  0  0  0  0  0  0  0  0  0
  195.2160  174.7920  139.9970 C   0  0  0  0  0  0  0  0  0  0  0  0
  195.8610  175.9810  140.7100 C   0  0  0  0  0  2  0  0  0  0  0  0
  194.9020  176.9540  141.0060 O   0  0  0  0  0  1  0  0  0  0  0  0
  1 10  1  0  0  0  0
  2  8  1  6  0  0  0
  2 11  1  0  0  0  0
  3 11  2  0  0  0  0
  3  1  1  0  0  0  0
  4  5  1  0  0  0  0
  5 24  1  1  0  0  0
  5  8  1  0  0  0  0
  6 19  1  0  0  0  0
  7 12  1  0  0  0  0
  9 18  1  0  0  0  0
 10 15  1  0  0  0  0
 11 21  1  0  0  0  0
 12 16  1  0  0  0  0
 12 18  2  0  0  0  0
 13  7  1  0  0  0  0
 14 22  1  0  0  0  0
 14  6  1  0  0  0  0
 16  2  1  0  0  0  0
 17  4  1  0  0  0  0
 18  3  1  0  0  0  0
 19  7  2  0  0  0  0
 20 14  2  0  0  0  0
 21 23  1  0  0  0  0
 22 43  1  6  0  0  0
 22 17  1  0  0  0  0
 23 15  1  0  0  0  0
 24 25  1  0  0  0  0
 25 26  1  6  0  0  0
 25 27  1  0  0  0  0
 28 27  1  0  0  0  0
 28 30  1  0  0  0  0
 30 29  1  1  0  0  0
 32 31  1  6  0  0  0
 32 33  1  0  0  0  0
 32 30  1  0  0  0  0
 34 33  1  0  0  0  0
 35 34  1  6  0  0  0
 35 36  1  0  0  0  0
 35 41  1  0  0  0  0
 36 39  1  6  0  0  0
 36 41  1  0  0  0  0
 37 42  1  0  0  0  0
 37 36  1  0  0  0  0
 37 38  1  1  0  0  0
 40 42  1  0  0  0  0
 40 35  1  0  0  0  0
 43 46  1  1  0  0  0
 43 45  1  0  0  0  0
 44 45  1  0  0  0  0
 46 47  1  0  0  0  0
 47 50  1  0  0  0  0
 48 51  1  0  0  0  0
 48 49  1  0  0  0  0
 50 48  2  0  0  0  0
 51 52  1  1  0  0  0
 51 56  1  0  0  0  0
 52 53  2  0  0  0  0
 54 52  1  0  0  0  0
 56 55  2  0  0  0  0
 56 59  1  0  0  0  0
 57 59  1  0  0  0  0
 59 60  1  0  0  0  0
 59 58  1  0  0  0  0
 60 61  1  0  0  0  0
M  END
>  <MODEL>
2

>  <REMARK>
 VINA RESULT:      -6.2      2.569      6.747
  Name = 
  19 active torsions:
  status: ('A' for Active; 'I' for Inactive)
    1  A    between atoms: C_1  and  C_59
    2  A    between atoms: C_5  and  O_6
    3  A    between atoms: O_6  and  C_53
    4  A    between atoms: C_13  and  O_43
    5  A    between atoms: C_22  and  C_27
    6  A    between atoms: C_22  and  C_61
    7  A    between atoms: C_28  and  O_52
    8  A    between atoms: C_28  and  C_54
    9  A    between atoms: C_30  and  C_59
   10  A    between atoms: O_31  and  C_57
   11  A    between atoms: C_40  and  C_41
   12  A    between atoms: C_40  and  C_57
   13  A    between atoms: C_41  and  C_56
   14  A    between atoms: O_43  and  C_48
   15  A    between atoms: C_44  and  C_53
   16  A    between atoms: C_44  and  C_54
   17  A    between atoms: C_48  and  O_52
   18  A    between atoms: C_51  and  C_57
   19  A    between atoms: C_59  and  C_61
                            x       y       z     vdW  Elec       q    Type
                         _______ _______ _______ _____ _____    ______ ____

>  <TORSDO>
F 19

$$$$
=
 OpenBabel11042419383D

 61 65  0  0  1  0  0  0  0  0999 V2000
  191.3220  171.7490  136.9280 C   0  0  0  0  0  2  0  0  0  0  0  0
  189.8020  172.2770  140.4890 C   0  0  1  0  0  3  0  0  0  0  0  0
  191.0360  171.6780  138.4130 C   0  0  0  0  0  0  0  0  0  0  0  0
  191.3170  174.1590  143.1240 O   0  0  0  0  0  0  0  0  0  0  0  0
  190.1340  173.6880  142.5440 C   0  0  2  0  0  3  0  0  0  0  0  0
  193.6490  171.1530  143.8570 N   0  0  0  0  0  2  0  0  0  0  0  0
  192.8770  170.6160  141.6060 C   0  0  0  0  0  0  0  0  0  0  0  0
  190.2930  173.6200  141.0280 C   0  0  0  0  0  2  0  0  0  0  0  0
  193.4650  170.8120  138.7200 C   0  0  0  0  0  1  0  0  0  0  0  0
  190.1080  171.4960  136.0500 C   0  0  0  0  0  2  0  0  0  0  0  0
  189.9230  172.2250  138.9870 C   0  0  0  0  0  0  0  0  0  0  0  0
  191.8550  170.9420  140.5990 C   0  0  0  0  0  0  0  0  0  0  0  0
  193.9030  169.7000  141.3750 O   0  0  0  0  0  1  0  0  0  0  0  0
  193.5390  172.0800  144.9440 C   0  0  0  0  0  0  0  0  0  0  0  0
  189.3470  172.7890  135.7920 C   0  0  0  0  0  2  0  0  0  0  0  0
  190.5720  171.2370  141.0710 O   0  0  0  0  0  0  0  0  0  0  0  0
  191.4970  173.4040  144.2910 C   0  0  0  0  0  2  0  0  0  0  0  0
  192.1070  171.1060  139.2890 C   0  0  0  0  0  0  0  0  0  0  0  0
  192.7790  171.2910  142.7430 C   0  0  0  0  0  3  0  0  0  0  0  0
  193.9700  171.7320  146.0760 O   0  0  0  0  0  0  0  0  0  0  0  0
  188.7320  172.7350  138.2210 C   0  0  0  0  0  2  0  0  0  0  0  0
  192.9600  173.4740  144.7320 C   0  0  1  0  0  3  0  0  0  0  0  0
  189.1200  173.6240  137.0540 C   0  0  0  0  0  2  0  0  0  0  0  0
  189.0780  174.5530  142.8570 O   0  0  0  0  0  0  0  0  0  0  0  0
  189.1520  175.5790  141.9060 C   0  0  2  0  0  3  0  0  0  0  0  0
  189.6580  176.7360  142.5070 O   0  0  0  0  0  1  0  0  0  0  0  0
  187.8760  175.8330  141.4060 O   0  0  0  0  0  0  0  0  0  0  0  0
  187.6360  177.1770  141.7050 C   0  0  0  0  0  2  0  0  0  0  0  0
  186.6830  177.0040  139.5020 O   0  0  0  0  0  1  0  0  0  0  0  0
  186.7880  177.8330  140.6230 C   0  0  1  0  0  3  0  0  0  0  0  0
  184.4240  177.7960  140.2720 O   0  0  0  0  0  1  0  0  0  0  0  0
  185.4140  178.2560  141.1420 C   0  0  1  0  0  3  0  0  0  0  0  0
  185.1390  177.7360  142.5440 C   0  0  0  0  0  2  0  0  0  0  0  0
  185.6730  178.6210  143.4920 O   0  0  0  0  0  0  0  0  0  0  0  0
  185.2780  178.1670  144.7640 C   0  0  1  0  0  0  0  0  0  0  0  0
  186.3530  177.7660  145.7400 C   0  0  2  0  0  0  0  0  0  0  0  0
  185.8880  178.2220  147.1120 C   0  0  2  0  0  3  0  0  0  0  0  0
  186.0070  177.1780  148.0300 O   0  0  0  0  0  1  0  0  0  0  0  0
  187.7880  177.9920  145.2970 C   0  0  0  0  0  1  0  0  0  0  0  0
  184.1080  178.7930  145.5080 C   0  0  0  0  0  2  0  0  0  0  0  0
  185.5500  176.6930  145.0100 C   0  0  0  0  0  2  0  0  0  0  0  0
  184.4240  178.6480  146.9920 C   0  0  0  0  0  2  0  0  0  0  0  0
  193.1040  174.3920  145.9660 C   0  0  2  0  0  3  0  0  0  0  0  0
  191.8850  175.2750  147.6970 C   0  0  0  0  0  1  0  0  0  0  0  0
  191.9170  175.0820  146.3060 O   0  0  0  0  0  0  0  0  0  0  0  0
  194.3480  175.2960  145.9280 C   0  0  0  0  0  2  0  0  0  0  0  0
  195.5290  174.5190  145.3730 C   0  0  0  0  0  2  0  0  0  0  0  0
  196.4640  174.1930  143.1130 C   0  0  0  0  0  0  0  0  0  0  0  0
  196.9270  172.9350  143.4940 O   0  0  0  0  0  1  0  0  0  0  0  0
  195.8170  174.9700  143.9810 C   0  0  0  0  0  3  0  0  0  0  0  0
  196.6850  174.6870  141.7180 C   0  0  2  0  0  3  0  0  0  0  0  0
  196.1390  176.0710  141.5130 C   0  0  0  0  0  0  0  0  0  0  0  0
  196.7090  177.0450  141.9830 O   0  0  0  0  0  0  0  0  0  0  0  0
  194.8960  176.2550  140.7130 C   0  0  0  0  0  1  0  0  0  0  0  0
  195.0020  173.3710  140.7020 O   0  0  0  0  0  0  0  0  0  0  0  0
  196.1820  173.7100  140.6840 C   0  0  0  0  0  0  0  0  0  0  0  0
  197.9370  172.2080  140.1960 F   0  0  0  0  0  0  0  0  0  0  0  0
  196.3150  172.5190  138.6540 F   0  0  0  0  0  0  0  0  0  0  0  0
  197.0920  173.1430  139.6170 C   0  0  0  0  0  0  0  0  0  0  0  0
  197.9400  174.2220  138.9440 C   0  0  0  0  0  2  0  0  0  0  0  0
  197.1330  175.0730  138.1810 O   0  0  0  0  0  1  0  0  0  0  0  0
  1  3  1  0  0  0  0
  2  8  1  1  0  0  0
  2 16  1  0  0  0  0
  3 11  2  0  0  0  0
  3 18  1  0  0  0  0
  4 17  1  0  0  0  0
  5 24  1  6  0  0  0
  5  4  1  0  0  0  0
  6 14  1  0  0  0  0
  7 19  2  0  0  0  0
  8  5  1  0  0  0  0
  9 18  1  0  0  0  0
 10  1  1  0  0  0  0
 11  2  1  0  0  0  0
 12 16  1  0  0  0  0
 12  7  1  0  0  0  0
 13  7  1  0  0  0  0
 14 20  2  0  0  0  0
 15 10  1  0  0  0  0
 15 23  1  0  0  0  0
 17 22  1  0  0  0  0
 18 12  2  0  0  0  0
 19  6  1  0  0  0  0
 21 11  1  0  0  0  0
 22 14  1  0  0  0  0
 22 43  1  1  0  0  0
 23 21  1  0  0  0  0
 25 26  1  1  0  0  0
 25 24  1  0  0  0  0
 27 28  1  0  0  0  0
 27 25  1  0  0  0  0
 30 29  1  6  0  0  0
 30 32  1  0  0  0  0
 30 28  1  0  0  0  0
 32 31  1  6  0  0  0
 32 33  1  0  0  0  0
 33 34  1  0  0  0  0
 35 34  1  6  0  0  0
 35 41  1  0  0  0  0
 35 40  1  0  0  0  0
 35 36  1  0  0  0  0
 36 39  1  6  0  0  0
 36 37  1  0  0  0  0
 37 38  1  1  0  0  0
 40 42  1  0  0  0  0
 41 36  1  0  0  0  0
 42 37  1  0  0  0  0
 43 46  1  6  0  0  0
 43 45  1  0  0  0  0
 45 44  1  0  0  0  0
 47 46  1  0  0  0  0
 48 49  1  0  0  0  0
 48 50  2  0  0  0  0
 50 47  1  0  0  0  0
 51 56  1  6  0  0  0
 51 48  1  0  0  0  0
 52 51  1  0  0  0  0
 52 53  2  0  0  0  0
 54 52  1  0  0  0  0
 56 55  2  0  0  0  0
 58 59  1  0  0  0  0
 59 57  1  0  0  0  0
 59 56  1  0  0  0  0
 60 59  1  0  0  0  0
 61 60  1  0  0  0  0
M  END
>  <MODEL>
3

>  <REMARK>
 VINA RESULT:      -5.8      2.434      6.343
  Name = 
  19 active torsions:
  status: ('A' for Active; 'I' for Inactive)
    1  A    between atoms: C_1  and  C_59
    2  A    between atoms: C_5  and  O_6
    3  A    between atoms: O_6  and  C_53
    4  A    between atoms: C_13  and  O_43
    5  A    between atoms: C_22  and  C_27
    6  A    between atoms: C_22  and  C_61
    7  A    between atoms: C_28  and  O_52
    8  A    between atoms: C_28  and  C_54
    9  A    between atoms: C_30  and  C_59
   10  A    between atoms: O_31  and  C_57
   11  A    between atoms: C_40  and  C_41
   12  A    between atoms: C_40  and  C_57
   13  A    between atoms: C_41  and  C_56
   14  A    between atoms: O_43  and  C_48
   15  A    between atoms: C_44  and  C_53
   16  A    between atoms: C_44  and  C_54
   17  A    between atoms: C_48  and  O_52
   18  A    between atoms: C_51  and  C_57
   19  A    between atoms: C_59  and  C_61
                            x       y       z     vdW  Elec       q    Type
                         _______ _______ _______ _____ _____    ______ ____

>  <TORSDO>
F 19

$$$$
=
 OpenBabel11042419383D

 61 65  0  0  1  0  0  0  0  0999 V2000
  197.0520  173.6780  138.7330 C   0  0  0  0  0  2  0  0  0  0  0  0
  195.2850  172.3960  141.9740 C   0  0  1  0  0  3  0  0  0  0  0  0
  196.5570  173.5210  140.1550 C   0  0  0  0  0  0  0  0  0  0  0  0
  192.4170  173.8930  143.4940 O   0  0  0  0  0  0  0  0  0  0  0  0
  193.1620  172.7280  143.2810 C   0  0  2  0  0  3  0  0  0  0  0  0
  194.7170  176.6000  145.0410 N   0  0  0  0  0  2  0  0  0  0  0  0
  196.1470  175.7160  143.2730 C   0  0  0  0  0  0  0  0  0  0  0  0
  193.8060  172.7730  141.8980 C   0  0  0  0  0  2  0  0  0  0  0  0
  197.0530  176.0480  140.4830 C   0  0  0  0  0  1  0  0  0  0  0  0
  197.7160  172.4340  138.1670 C   0  0  0  0  0  2  0  0  0  0  0  0
  195.9120  172.4020  140.6030 C   0  0  0  0  0  0  0  0  0  0  0  0
  196.3170  174.5880  142.3450 C   0  0  0  0  0  0  0  0  0  0  0  0
  197.0030  176.8180  143.2910 O   0  0  0  0  0  1  0  0  0  0  0  0
  193.4500  176.4720  145.6970 C   0  0  0  0  0  0  0  0  0  0  0  0
  196.6870  171.5140  137.5260 C   0  0  0  0  0  2  0  0  0  0  0  0
  195.9560  173.3220  142.8150 O   0  0  0  0  0  0  0  0  0  0  0  0
  192.6400  174.2490  144.8320 C   0  0  0  0  0  2  0  0  0  0  0  0
  196.6610  174.7150  141.0520 C   0  0  0  0  0  0  0  0  0  0  0  0
  195.0900  175.6340  144.0690 C   0  0  0  0  0  3  0  0  0  0  0  0
  193.2940  177.0280  146.8170 O   0  0  0  0  0  0  0  0  0  0  0  0
  195.8310  171.1040  139.8450 C   0  0  0  0  0  2  0  0  0  0  0  0
  192.2960  175.7250  145.0380 C   0  0  1  0  0  3  0  0  0  0  0  0
  195.4430  171.2950  138.3910 C   0  0  0  0  0  2  0  0  0  0  0  0
  192.3240  171.6100  143.3610 O   0  0  0  0  0  0  0  0  0  0  0  0
  192.9920  170.7120  144.2050 C   0  0  2  0  0  3  0  0  0  0  0  0
  193.8560  171.4190  145.0470 O   0  0  0  0  0  1  0  0  0  0  0  0
  193.7260  169.8150  143.4300 O   0  0  0  0  0  0  0  0  0  0  0  0
  192.7670  169.0340  142.7810 C   0  0  0  0  0  2  0  0  0  0  0  0
  193.5010  168.1690  140.6590 O   0  0  0  0  0  1  0  0  0  0  0  0
  192.8320  169.2330  141.2730 C   0  0  1  0  0  3  0  0  0  0  0  0
  190.4850  169.4580  141.6650 O   0  0  0  0  0  1  0  0  0  0  0  0
  191.4510  169.4610  140.6580 C   0  0  1  0  0  3  0  0  0  0  0  0
  191.3720  170.7660  139.8820 C   0  0  0  0  0  2  0  0  0  0  0  0
  191.1830  170.4970  138.5190 O   0  0  0  0  0  0  0  0  0  0  0  0
  191.6340  171.6200  137.8000 C   0  0  1  0  0  0  0  0  0  0  0  0
  190.9080  171.9910  136.5340 C   0  0  2  0  0  0  0  0  0  0  0  0
  190.8660  173.5080  136.4820 C   0  0  2  0  0  3  0  0  0  0  0  0
  191.2920  173.9570  135.2310 O   0  0  0  0  0  1  0  0  0  0  0  0
  189.6720  171.1730  136.1980 C   0  0  0  0  0  1  0  0  0  0  0  0
  192.1230  172.8760  138.5050 C   0  0  0  0  0  2  0  0  0  0  0  0
  192.2600  171.2880  136.4560 C   0  0  0  0  0  2  0  0  0  0  0  0
  191.8000  174.0370  137.5720 C   0  0  0  0  0  2  0  0  0  0  0  0
  190.9610  175.8610  145.8020 C   0  0  2  0  0  3  0  0  0  0  0  0
  189.4860  174.9160  147.2840 C   0  0  0  0  0  1  0  0  0  0  0  0
  190.8350  174.9750  146.8970 O   0  0  0  0  0  0  0  0  0  0  0  0
  189.7220  175.8870  144.8900 C   0  0  0  0  0  2  0  0  0  0  0  0
  189.5140  177.2900  144.3470 C   0  0  0  0  0  2  0  0  0  0  0  0
  187.1530  176.9420  143.7210 C   0  0  0  0  0  0  0  0  0  0  0  0
  187.5330  175.8760  142.9070 O   0  0  0  0  0  1  0  0  0  0  0  0
  188.0650  177.6380  144.3990 C   0  0  0  0  0  3  0  0  0  0  0  0
  185.7090  177.3150  143.8490 C   0  0  2  0  0  3  0  0  0  0  0  0
  185.1420  177.8330  142.5580 C   0  0  0  0  0  0  0  0  0  0  0  0
  183.9470  178.0680  142.4480 O   0  0  0  0  0  0  0  0  0  0  0  0
  186.0530  178.0770  141.4050 C   0  0  0  0  0  1  0  0  0  0  0  0
  185.6970  179.4520  144.8630 O   0  0  0  0  0  0  0  0  0  0  0  0
  185.4650  178.2550  145.0030 C   0  0  0  0  0  0  0  0  0  0  0  0
  183.6940  178.3390  146.5630 F   0  0  0  0  0  0  0  0  0  0  0  0
  184.7890  176.3850  146.2690 F   0  0  0  0  0  0  0  0  0  0  0  0
  184.9330  177.7610  146.3310 C   0  0  0  0  0  0  0  0  0  0  0  0
  185.8630  178.1080  147.4940 C   0  0  0  0  0  2  0  0  0  0  0  0
  186.6080  176.9870  147.8760 O   0  0  0  0  0  1  0  0  0  0  0  0
  1  3  1  0  0  0  0
  2  8  1  6  0  0  0
  2 16  1  0  0  0  0
  3 11  2  0  0  0  0
  3 18  1  0  0  0  0
  4 17  1  0  0  0  0
  5 24  1  6  0  0  0
  5  4  1  0  0  0  0
  6 14  1  0  0  0  0
  7 13  1  0  0  0  0
  7 19  2  0  0  0  0
  8  5  1  0  0  0  0
  9 18  1  0  0  0  0
 10  1  1  0  0  0  0
 11  2  1  0  0  0  0
 12 16  1  0  0  0  0
 12  7  1  0  0  0  0
 14 20  2  0  0  0  0
 15 10  1  0  0  0  0
 15 23  1  0  0  0  0
 17 22  1  0  0  0  0
 18 12  2  0  0  0  0
 19  6  1  0  0  0  0
 21 11  1  0  0  0  0
 22 14  1  0  0  0  0
 22 43  1  1  0  0  0
 23 21  1  0  0  0  0
 24 25  1  0  0  0  0
 25 26  1  1  0  0  0
 27 25  1  0  0  0  0
 28 27  1  0  0  0  0
 30 29  1  6  0  0  0
 30 28  1  0  0  0  0
 32 30  1  0  0  0  0
 32 31  1  1  0  0  0
 33 32  1  0  0  0  0
 34 33  1  0  0  0  0
 35 40  1  0  0  0  0
 35 34  1  1  0  0  0
 36 39  1  6  0  0  0
 36 35  1  0  0  0  0
 37 38  1  6  0  0  0
 37 36  1  0  0  0  0
 37 42  1  0  0  0  0
 41 36  1  0  0  0  0
 41 35  1  0  0  0  0
 42 40  1  0  0  0  0
 43 46  1  6  0  0  0
 43 45  1  0  0  0  0
 45 44  1  0  0  0  0
 47 50  1  0  0  0  0
 47 46  1  0  0  0  0
 48 51  1  0  0  0  0
 48 50  2  0  0  0  0
 49 48  1  0  0  0  0
 51 52  1  6  0  0  0
 51 56  1  0  0  0  0
 53 52  2  0  0  0  0
 54 52  1  0  0  0  0
 55 56  2  0  0  0  0
 56 59  1  0  0  0  0
 58 59  1  0  0  0  0
 59 57  1  0  0  0  0
 59 60  1  0  0  0  0
 60 61  1  0  0  0  0
M  END
>  <MODEL>
4

>  <REMARK>
 VINA RESULT:      -5.8      3.173      9.068
  Name = 
  19 active torsions:
  status: ('A' for Active; 'I' for Inactive)
    1  A    between atoms: C_1  and  C_59
    2  A    between atoms: C_5  and  O_6
    3  A    between atoms: O_6  and  C_53
    4  A    between atoms: C_13  and  O_43
    5  A    between atoms: C_22  and  C_27
    6  A    between atoms: C_22  and  C_61
    7  A    between atoms: C_28  and  O_52
    8  A    between atoms: C_28  and  C_54
    9  A    between atoms: C_30  and  C_59
   10  A    between atoms: O_31  and  C_57
   11  A    between atoms: C_40  and  C_41
   12  A    between atoms: C_40  and  C_57
   13  A    between atoms: C_41  and  C_56
   14  A    between atoms: O_43  and  C_48
   15  A    between atoms: C_44  and  C_53
   16  A    between atoms: C_44  and  C_54
   17  A    between atoms: C_48  and  O_52
   18  A    between atoms: C_51  and  C_57
   19  A    between atoms: C_59  and  C_61
                            x       y       z     vdW  Elec       q    Type
                         _______ _______ _______ _____ _____    ______ ____

>  <TORSDO>
F 19

$$$$
=
 OpenBabel11042419383D

 61 65  0  0  1  0  0  0  0  0999 V2000
  195.6440  171.3300  135.3630 C   0  0  0  0  0  2  0  0  0  0  0  0
  194.4170  170.6140  139.0030 C   0  0  1  0  0  3  0  0  0  0  0  0
  195.3230  171.4410  136.8380 C   0  0  0  0  0  0  0  0  0  0  0  0
  191.5310  172.0650  140.5330 O   0  0  0  0  0  0  0  0  0  0  0  0
  192.4110  170.9790  140.4750 C   0  0  2  0  0  3  0  0  0  0  0  0
  193.5590  175.3050  141.1610 N   0  0  0  0  0  2  0  0  0  0  0  0
  194.9160  174.2210  139.4480 C   0  0  0  0  0  0  0  0  0  0  0  0
  192.8990  170.7860  139.0420 C   0  0  0  0  0  2  0  0  0  0  0  0
  195.4790  174.0180  136.5580 C   0  0  0  0  0  1  0  0  0  0  0  0
  196.4210  170.0780  134.9900 C   0  0  0  0  0  2  0  0  0  0  0  0
  194.8950  170.3840  137.5920 C   0  0  0  0  0  0  0  0  0  0  0  0
  195.1530  172.9400  138.7650 C   0  0  0  0  0  0  0  0  0  0  0  0
  195.6010  175.3920  139.1220 O   0  0  0  0  0  1  0  0  0  0  0  0
  192.3960  175.1800  141.9880 C   0  0  0  0  0  0  0  0  0  0  0  0
  195.4760  168.9210  134.6970 C   0  0  0  0  0  2  0  0  0  0  0  0
  195.0280  171.7800  139.5350 O   0  0  0  0  0  0  0  0  0  0  0  0
  191.8330  172.7390  141.7250 C   0  0  0  0  0  2  0  0  0  0  0  0
  195.3430  172.8110  137.4410 C   0  0  0  0  0  0  0  0  0  0  0  0
  193.9680  174.1960  140.3740 C   0  0  0  0  0  3  0  0  0  0  0  0
  192.2750  175.9530  142.9760 O   0  0  0  0  0  0  0  0  0  0  0  0
  194.9270  168.9480  137.1420 C   0  0  0  0  0  2  0  0  0  0  0  0
  191.3020  174.1720  141.6580 C   0  0  1  0  0  3  0  0  0  0  0  0
  194.3710  168.7580  135.7430 C   0  0  0  0  0  2  0  0  0  0  0  0
  191.7560  169.8160  140.8980 O   0  0  0  0  0  0  0  0  0  0  0  0
  192.6670  169.1710  141.7450 C   0  0  2  0  0  3  0  0  0  0  0  0
  191.9700  168.5040  142.7580 O   0  0  0  0  0  1  0  0  0  0  0  0
  193.5170  170.1200  142.3120 O   0  0  0  0  0  0  0  0  0  0  0  0
  193.8870  169.5760  143.5440 C   0  0  0  0  0  2  0  0  0  0  0  0
  196.0330  170.3810  142.8110 O   0  0  0  0  0  1  0  0  0  0  0  0
  195.2880  170.0260  143.9390 C   0  0  1  0  0  3  0  0  0  0  0  0
  195.9810  170.7540  146.1080 O   0  0  0  0  0  1  0  0  0  0  0  0
  195.2650  171.1480  144.9770 C   0  0  1  0  0  3  0  0  0  0  0  0
  195.8430  172.4470  144.4370 C   0  0  0  0  0  2  0  0  0  0  0  0
  194.8030  173.3130  144.0690 O   0  0  0  0  0  0  0  0  0  0  0  0
  194.5180  174.1270  145.1820 C   0  0  1  0  0  0  0  0  0  0  0  0
  195.0270  175.5450  145.1720 C   0  0  2  0  0  0  0  0  0  0  0  0
  193.9520  176.3990  145.8200 C   0  0  2  0  0  3  0  0  0  0  0  0
  194.5160  177.2200  146.7980 O   0  0  0  0  0  1  0  0  0  0  0  0
  195.7190  176.0070  143.9010 C   0  0  0  0  0  1  0  0  0  0  0  0
  193.1790  174.0610  145.8990 C   0  0  0  0  0  2  0  0  0  0  0  0
  195.7360  174.4880  146.0160 C   0  0  0  0  0  2  0  0  0  0  0  0
  192.9290  175.4570  146.4570 C   0  0  0  0  0  2  0  0  0  0  0  0
  190.0450  174.3180  142.5440 C   0  0  2  0  0  3  0  0  0  0  0  0
  188.2350  173.0950  141.8420 C   0  0  0  0  0  1  0  0  0  0  0  0
  189.3290  173.1120  142.7240 O   0  0  0  0  0  0  0  0  0  0  0  0
  189.1500  175.5100  142.1610 C   0  0  0  0  0  2  0  0  0  0  0  0
  189.0230  176.4550  143.3430 C   0  0  0  0  0  2  0  0  0  0  0  0
  186.8640  177.6190  143.0790 C   0  0  0  0  0  0  0  0  0  0  0  0
  187.4510  178.4860  142.1590 O   0  0  0  0  0  1  0  0  0  0  0  0
  187.5830  176.6630  143.6670 C   0  0  0  0  0  3  0  0  0  0  0  0
  185.4120  177.7500  143.4160 C   0  0  2  0  0  3  0  0  0  0  0  0
  184.5700  178.0090  142.1990 C   0  0  0  0  0  0  0  0  0  0  0  0
  185.0600  177.9790  141.0800 O   0  0  0  0  0  0  0  0  0  0  0  0
  183.1160  178.2890  142.3630 C   0  0  0  0  0  1  0  0  0  0  0  0
  185.3560  179.9520  144.2780 O   0  0  0  0  0  0  0  0  0  0  0  0
  185.1700  178.7610  144.5090 C   0  0  0  0  0  0  0  0  0  0  0  0
  183.3620  178.6990  146.0260 F   0  0  0  0  0  0  0  0  0  0  0  0
  184.8170  176.9710  146.0020 F   0  0  0  0  0  0  0  0  0  0  0  0
  184.6960  178.3460  145.8840 C   0  0  0  0  0  0  0  0  0  0  0  0
  185.5020  179.0100  147.0010 C   0  0  0  0  0  2  0  0  0  0  0  0
  185.7620  178.0950  148.0270 O   0  0  0  0  0  1  0  0  0  0  0  0
  1  3  1  0  0  0  0
  2  8  1  6  0  0  0
  2 16  1  0  0  0  0
  3 18  1  0  0  0  0
  3 11  2  0  0  0  0
  4 17  1  0  0  0  0
  5  4  1  0  0  0  0
  5 24  1  6  0  0  0
  6 14  1  0  0  0  0
  7 19  2  0  0  0  0
  8  5  1  0  0  0  0
  9 18  1  0  0  0  0
 10  1  1  0  0  0  0
 11  2  1  0  0  0  0
 12  7  1  0  0  0  0
 12 16  1  0  0  0  0
 13  7  1  0  0  0  0
 14 20  2  0  0  0  0
 15 10  1  0  0  0  0
 15 23  1  0  0  0  0
 18 12  2  0  0  0  0
 19  6  1  0  0  0  0
 21 11  1  0  0  0  0
 22 17  1  0  0  0  0
 22 14  1  0  0  0  0
 22 43  1  1  0  0  0
 23 21  1  0  0  0  0
 24 25  1  0  0  0  0
 25 27  1  0  0  0  0
 25 26  1  1  0  0  0
 27 28  1  0  0  0  0
 28 30  1  0  0  0  0
 30 29  1  6  0  0  0
 30 32  1  0  0  0  0
 32 31  1  1  0  0  0
 33 32  1  0  0  0  0
 34 33  1  0  0  0  0
 35 34  1  6  0  0  0
 35 40  1  0  0  0  0
 35 41  1  0  0  0  0
 36 39  1  6  0  0  0
 36 35  1  0  0  0  0
 36 37  1  0  0  0  0
 36 41  1  0  0  0  0
 37 42  1  0  0  0  0
 37 38  1  1  0  0  0
 40 42  1  0  0  0  0
 43 46  1  6  0  0  0
 43 45  1  0  0  0  0
 44 45  1  0  0  0  0
 46 47  1  0  0  0  0
 47 50  1  0  0  0  0
 48 51  1  0  0  0  0
 48 50  2  0  0  0  0
 49 48  1  0  0  0  0
 51 52  1  6  0  0  0
 51 56  1  0  0  0  0
 52 54  1  0  0  0  0
 53 52  2  0  0  0  0
 55 56  2  0  0  0  0
 56 59  1  0  0  0  0
 59 58  1  0  0  0  0
 59 57  1  0  0  0  0
 59 60  1  0  0  0  0
 60 61  1  0  0  0  0
M  END
>  <MODEL>
5

>  <REMARK>
 VINA RESULT:      -5.7      2.953      9.478
  Name = 
  19 active torsions:
  status: ('A' for Active; 'I' for Inactive)
    1  A    between atoms: C_1  and  C_59
    2  A    between atoms: C_5  and  O_6
    3  A    between atoms: O_6  and  C_53
    4  A    between atoms: C_13  and  O_43
    5  A    between atoms: C_22  and  C_27
    6  A    between atoms: C_22  and  C_61
    7  A    between atoms: C_28  and  O_52
    8  A    between atoms: C_28  and  C_54
    9  A    between atoms: C_30  and  C_59
   10  A    between atoms: O_31  and  C_57
   11  A    between atoms: C_40  and  C_41
   12  A    between atoms: C_40  and  C_57
   13  A    between atoms: C_41  and  C_56
   14  A    between atoms: O_43  and  C_48
   15  A    between atoms: C_44  and  C_53
   16  A    between atoms: C_44  and  C_54
   17  A    between atoms: C_48  and  O_52
   18  A    between atoms: C_51  and  C_57
   19  A    between atoms: C_59  and  C_61
                            x       y       z     vdW  Elec       q    Type
                         _______ _______ _______ _____ _____    ______ ____

>  <TORSDO>
F 19

$$$$
=
 OpenBabel11042419383D

 61 65  0  0  1  0  0  0  0  0999 V2000
  192.1800  175.2460  147.0900 C   0  0  0  0  0  2  0  0  0  0  0  0
  191.5340  175.6350  143.2560 C   0  0  1  0  0  3  0  0  0  0  0  0
  192.3210  175.5570  145.6150 C   0  0  0  0  0  0  0  0  0  0  0  0
  192.9860  173.6030  140.6990 O   0  0  0  0  0  0  0  0  0  0  0  0
  191.9090  174.4030  141.0960 C   0  0  2  0  0  3  0  0  0  0  0  0
  196.2630  175.6470  141.0110 N   0  0  0  0  0  2  0  0  0  0  0  0
  195.1550  176.2020  143.1130 C   0  0  0  0  0  0  0  0  0  0  0  0
  191.6900  174.2640  142.6000 C   0  0  0  0  0  2  0  0  0  0  0  0
  194.8930  175.5340  145.9760 C   0  0  0  0  0  1  0  0  0  0  0  0
  190.9300  175.8260  147.7280 C   0  0  0  0  0  2  0  0  0  0  0  0
  191.2770  175.4970  144.7350 C   0  0  0  0  0  0  0  0  0  0  0  0
  193.8620  176.1640  143.8120 C   0  0  0  0  0  0  0  0  0  0  0  0
  196.3260  176.6710  143.7100 O   0  0  0  0  0  1  0  0  0  0  0  0
  196.1430  174.9280  139.7770 C   0  0  0  0  0  0  0  0  0  0  0  0
  189.7560  174.8670  147.5890 C   0  0  0  0  0  2  0  0  0  0  0  0
  192.7180  176.3880  143.0410 O   0  0  0  0  0  0  0  0  0  0  0  0
  193.6910  174.3550  139.7470 C   0  0  0  0  0  2  0  0  0  0  0  0
  193.7050  175.7960  145.0950 C   0  0  0  0  0  0  0  0  0  0  0  0
  195.1400  175.7190  141.8790 C   0  0  0  0  0  3  0  0  0  0  0  0
  196.9370  175.2080  138.8390 O   0  0  0  0  0  0  0  0  0  0  0  0
  189.8320  175.3690  145.1350 C   0  0  0  0  0  2  0  0  0  0  0  0
  195.1150  173.8150  139.6130 C   0  0  1  0  0  3  0  0  0  0  0  0
  189.6040  174.2920  146.1790 C   0  0  0  0  0  2  0  0  0  0  0  0
  190.7490  174.0020  140.4230 O   0  0  0  0  0  0  0  0  0  0  0  0
  189.7040  174.2320  141.3270 C   0  0  2  0  0  3  0  0  0  0  0  0
  188.8870  173.0990  141.3930 O   0  0  0  0  0  1  0  0  0  0  0  0
  188.9530  175.3230  140.8910 O   0  0  0  0  0  0  0  0  0  0  0  0
  187.9880  175.5100  141.8840 C   0  0  0  0  0  2  0  0  0  0  0  0
  188.8990  177.7260  141.6530 O   0  0  0  0  0  1  0  0  0  0  0  0
  187.9310  176.9690  142.3190 C   0  0  1  0  0  3  0  0  0  0  0  0
  185.5720  176.5890  142.4030 O   0  0  0  0  0  1  0  0  0  0  0  0
  186.5350  177.5690  142.1550 C   0  0  1  0  0  3  0  0  0  0  0  0
  186.3020  178.7550  143.0770 C   0  0  0  0  0  2  0  0  0  0  0  0
  187.0670  178.6070  144.2430 O   0  0  0  0  0  0  0  0  0  0  0  0
  186.2030  178.1680  145.2630 C   0  0  1  0  0  0  0  0  0  0  0  0
  186.8010  177.8270  146.6020 C   0  0  2  0  0  0  0  0  0  0  0  0
  185.8120  178.2980  147.6550 C   0  0  2  0  0  3  0  0  0  0  0  0
  185.5740  177.2780  148.5780 O   0  0  0  0  0  1  0  0  0  0  0  0
  188.2880  178.0930  146.7670 C   0  0  0  0  0  1  0  0  0  0  0  0
  184.8180  178.7690  145.4500 C   0  0  0  0  0  2  0  0  0  0  0  0
  186.3860  176.7100  145.6490 C   0  0  0  0  0  2  0  0  0  0  0  0
  184.5120  178.6690  146.9400 C   0  0  0  0  0  2  0  0  0  0  0  0
  195.2670  173.0290  138.2920 C   0  0  2  0  0  3  0  0  0  0  0  0
  196.4210  171.0990  138.7470 C   0  0  0  0  0  1  0  0  0  0  0  0
  196.5120  172.3710  138.1580 O   0  0  0  0  0  0  0  0  0  0  0  0
  194.8610  173.8300  137.0430 C   0  0  0  0  0  2  0  0  0  0  0  0
  194.7660  172.8990  135.8460 C   0  0  0  0  0  2  0  0  0  0  0  0
  193.0460  171.1340  135.9700 C   0  0  0  0  0  0  0  0  0  0  0  0
  194.0240  170.2170  136.3530 O   0  0  0  0  0  1  0  0  0  0  0  0
  193.3670  172.4010  135.7080 C   0  0  0  0  0  3  0  0  0  0  0  0
  191.6160  170.7060  135.8540 C   0  0  2  0  0  3  0  0  0  0  0  0
  190.7570  171.7670  135.2280 C   0  0  0  0  0  0  0  0  0  0  0  0
  191.2490  172.8000  134.7990 O   0  0  0  0  0  0  0  0  0  0  0  0
  189.2880  171.5450  135.1160 C   0  0  0  0  0  1  0  0  0  0  0  0
  190.7430  169.0370  137.2840 O   0  0  0  0  0  0  0  0  0  0  0  0
  191.0610  170.2170  137.1680 C   0  0  0  0  0  0  0  0  0  0  0  0
  191.5460  172.3360  138.0890 F   0  0  0  0  0  0  0  0  0  0  0  0
  189.5450  171.3900  138.5400 F   0  0  0  0  0  0  0  0  0  0  0  0
  190.8950  171.1410  138.3540 C   0  0  0  0  0  0  0  0  0  0  0  0
  191.4680  170.5430  139.6400 C   0  0  0  0  0  2  0  0  0  0  0  0
  192.8650  170.5950  139.6230 O   0  0  0  0  0  1  0  0  0  0  0  0
  1 10  1  0  0  0  0
  2  8  1  1  0  0  0
  2 11  1  0  0  0  0
  3  1  1  0  0  0  0
  4  5  1  0  0  0  0
  5 24  1  6  0  0  0
  5  8  1  0  0  0  0
  6 19  1  0  0  0  0
  7 13  1  0  0  0  0
  7 12  1  0  0  0  0
 11 21  1  0  0  0  0
 11  3  2  0  0  0  0
 12 18  2  0  0  0  0
 14  6  1  0  0  0  0
 15 10  1  0  0  0  0
 16  2  1  0  0  0  0
 16 12  1  0  0  0  0
 17  4  1  0  0  0  0
 18  3  1  0  0  0  0
 18  9  1  0  0  0  0
 19  7  2  0  0  0  0
 20 14  2  0  0  0  0
 21 23  1  0  0  0  0
 22 43  1  6  0  0  0
 22 17  1  0  0  0  0
 22 14  1  0  0  0  0
 23 15  1  0  0  0  0
 24 25  1  0  0  0  0
 25 26  1  6  0  0  0
 27 25  1  0  0  0  0
 27 28  1  0  0  0  0
 28 30  1  0  0  0  0
 30 29  1  6  0  0  0
 32 30  1  0  0  0  0
 32 31  1  1  0  0  0
 32 33  1  0  0  0  0
 33 34  1  0  0  0  0
 35 34  1  6  0  0  0
 35 40  1  0  0  0  0
 35 41  1  0  0  0  0
 35 36  1  0  0  0  0
 36 39  1  1  0  0  0
 36 37  1  0  0  0  0
 37 38  1  1  0  0  0
 40 42  1  0  0  0  0
 41 36  1  0  0  0  0
 42 37  1  0  0  0  0
 43 46  1  6  0  0  0
 45 43  1  0  0  0  0
 45 44  1  0  0  0  0
 47 46  1  0  0  0  0
 48 49  1  0  0  0  0
 50 47  1  0  0  0  0
 50 48  2  0  0  0  0
 51 52  1  1  0  0  0
 51 48  1  0  0  0  0
 51 56  1  0  0  0  0
 53 52  2  0  0  0  0
 54 52  1  0  0  0  0
 56 55  2  0  0  0  0
 56 59  1  0  0  0  0
 57 59  1  0  0  0  0
 59 58  1  0  0  0  0
 59 60  1  0  0  0  0
 61 60  1  0  0  0  0
M  END
>  <MODEL>
6

>  <REMARK>
 VINA RESULT:      -5.6      2.626      4.504
  Name = 
  19 active torsions:
  status: ('A' for Active; 'I' for Inactive)
    1  A    between atoms: C_1  and  C_59
    2  A    between atoms: C_5  and  O_6
    3  A    between atoms: O_6  and  C_53
    4  A    between atoms: C_13  and  O_43
    5  A    between atoms: C_22  and  C_27
    6  A    between atoms: C_22  and  C_61
    7  A    between atoms: C_28  and  O_52
    8  A    between atoms: C_28  and  C_54
    9  A    between atoms: C_30  and  C_59
   10  A    between atoms: O_31  and  C_57
   11  A    between atoms: C_40  and  C_41
   12  A    between atoms: C_40  and  C_57
   13  A    between atoms: C_41  and  C_56
   14  A    between atoms: O_43  and  C_48
   15  A    between atoms: C_44  and  C_53
   16  A    between atoms: C_44  and  C_54
   17  A    between atoms: C_48  and  O_52
   18  A    between atoms: C_51  and  C_57
   19  A    between atoms: C_59  and  C_61
                            x       y       z     vdW  Elec       q    Type
                         _______ _______ _______ _____ _____    ______ ____

>  <TORSDO>
F 19

$$$$
=
 OpenBabel11042419383D

 61 65  0  0  1  0  0  0  0  0999 V2000
  195.0190  168.2430  135.4590 C   0  0  0  0  0  2  0  0  0  0  0  0
  194.6900  171.6720  137.3030 C   0  0  1  0  0  3  0  0  0  0  0  0
  194.5080  169.5630  135.9960 C   0  0  0  0  0  0  0  0  0  0  0  0
  192.7520  172.2560  140.2490 O   0  0  0  0  0  0  0  0  0  0  0  0
  193.8550  172.6290  139.4730 C   0  0  2  0  0  3  0  0  0  0  0  0
  189.5600  172.3930  138.0570 N   0  0  0  0  0  2  0  0  0  0  0  0
  191.1210  171.2750  136.5520 C   0  0  0  0  0  0  0  0  0  0  0  0
  194.4420  171.4000  138.7860 C   0  0  0  0  0  2  0  0  0  0  0  0
  192.1060  168.6740  135.5630 C   0  0  0  0  0  1  0  0  0  0  0  0
  196.3600  168.3410  134.7500 C   0  0  0  0  0  2  0  0  0  0  0  0
  195.3070  170.4720  136.6320 C   0  0  0  0  0  0  0  0  0  0  0  0
  192.5460  170.9890  136.3290 C   0  0  0  0  0  0  0  0  0  0  0  0
  190.1120  170.7900  135.7200 O   0  0  0  0  0  1  0  0  0  0  0  0
  189.4070  173.0080  139.3420 C   0  0  0  0  0  0  0  0  0  0  0  0
  197.5070  168.1880  135.7390 C   0  0  0  0  0  2  0  0  0  0  0  0
  193.4560  171.9920  136.6790 O   0  0  0  0  0  0  0  0  0  0  0  0
  191.8020  173.2730  140.0770 C   0  0  0  0  0  2  0  0  0  0  0  0
  193.0290  169.7950  135.9460 C   0  0  0  0  0  0  0  0  0  0  0  0
  190.8560  171.9960  137.6320 C   0  0  0  0  0  3  0  0  0  0  0  0
  188.3960  173.7320  139.5460 O   0  0  0  0  0  0  0  0  0  0  0  0
  196.8100  170.4110  136.6610 C   0  0  0  0  0  2  0  0  0  0  0  0
  190.4140  172.7550  140.4590 C   0  0  1  0  0  3  0  0  0  0  0  0
  197.3370  169.0300  137.0050 C   0  0  0  0  0  2  0  0  0  0  0  0
  194.8320  173.2090  140.2910 O   0  0  0  0  0  0  0  0  0  0  0  0
  195.6360  173.9600  139.4230 C   0  0  2  0  0  3  0  0  0  0  0  0
  196.9830  173.6870  139.6810 O   0  0  0  0  0  1  0  0  0  0  0  0
  195.3880  175.3170  139.6260 O   0  0  0  0  0  0  0  0  0  0  0  0
  196.4590  175.7630  140.4030 C   0  0  0  0  0  2  0  0  0  0  0  0
  194.5860  176.4430  141.7520 O   0  0  0  0  0  1  0  0  0  0  0  0
  195.9680  176.5800  141.5910 C   0  0  1  0  0  3  0  0  0  0  0  0
  196.0530  176.7990  143.9700 O   0  0  0  0  0  1  0  0  0  0  0  0
  196.7210  176.2430  142.8770 C   0  0  1  0  0  3  0  0  0  0  0  0
  196.8730  174.7450  143.0840 C   0  0  0  0  0  2  0  0  0  0  0  0
  196.2660  174.3670  144.2910 O   0  0  0  0  0  0  0  0  0  0  0  0
  195.3430  173.3460  143.9980 C   0  0  1  0  0  0  0  0  0  0  0  0
  195.4220  172.0690  144.7940 C   0  0  2  0  0  0  0  0  0  0  0  0
  193.9930  171.6090  145.0230 C   0  0  2  0  0  3  0  0  0  0  0  0
  193.8640  170.2610  144.6850 O   0  0  0  0  0  1  0  0  0  0  0  0
  196.4340  172.0390  145.9270 C   0  0  0  0  0  1  0  0  0  0  0  0
  193.8940  173.6530  143.6510 C   0  0  0  0  0  2  0  0  0  0  0  0
  195.9620  172.1100  143.3670 C   0  0  0  0  0  2  0  0  0  0  0  0
  193.0810  172.4590  144.1370 C   0  0  0  0  0  2  0  0  0  0  0  0
  189.9800  173.3400  141.8200 C   0  0  2  0  0  3  0  0  0  0  0  0
  189.3760  172.0590  143.6250 C   0  0  0  0  0  1  0  0  0  0  0  0
  188.9150  172.6390  142.4310 O   0  0  0  0  0  0  0  0  0  0  0  0
  189.7790  174.8660  141.8060 C   0  0  0  0  0  2  0  0  0  0  0  0
  190.8740  175.5350  142.6180 C   0  0  0  0  0  2  0  0  0  0  0  0
  190.8420  176.4940  144.8910 C   0  0  0  0  0  0  0  0  0  0  0  0
  191.5610  177.5950  144.4290 O   0  0  0  0  0  1  0  0  0  0  0  0
  190.5180  175.4990  144.0660 C   0  0  0  0  0  3  0  0  0  0  0  0
  190.4190  176.4180  146.3240 C   0  0  2  0  0  3  0  0  0  0  0  0
  191.4570  175.7610  147.1880 C   0  0  0  0  0  0  0  0  0  0  0  0
  191.2450  175.5510  148.3730 O   0  0  0  0  0  0  0  0  0  0  0  0
  192.7550  175.3480  146.5840 C   0  0  0  0  0  1  0  0  0  0  0  0
  188.9660  174.5680  146.5700 O   0  0  0  0  0  0  0  0  0  0  0  0
  189.0570  175.7890  146.4820 C   0  0  0  0  0  0  0  0  0  0  0  0
  186.9320  176.0680  147.4720 F   0  0  0  0  0  0  0  0  0  0  0  0
  188.1320  177.9070  146.9450 F   0  0  0  0  0  0  0  0  0  0  0  0
  187.7980  176.6250  146.5430 C   0  0  0  0  0  0  0  0  0  0  0  0
  187.0860  176.7010  145.1920 C   0  0  0  0  0  2  0  0  0  0  0  0
  187.7040  177.6460  144.3660 O   0  0  0  0  0  1  0  0  0  0  0  0
  1  3  1  0  0  0  0
  2  8  1  1  0  0  0
  3 11  2  0  0  0  0
  5  4  1  0  0  0  0
  5 24  1  1  0  0  0
  6 14  1  0  0  0  0
  7 19  2  0  0  0  0
  8  5  1  0  0  0  0
  9 18  1  0  0  0  0
 10  1  1  0  0  0  0
 10 15  1  0  0  0  0
 11 21  1  0  0  0  0
 11  2  1  0  0  0  0
 12  7  1  0  0  0  0
 12 16  1  0  0  0  0
 13  7  1  0  0  0  0
 14 20  2  0  0  0  0
 14 22  1  0  0  0  0
 15 23  1  0  0  0  0
 16  2  1  0  0  0  0
 17  4  1  0  0  0  0
 17 22  1  0  0  0  0
 18  3  1  0  0  0  0
 18 12  2  0  0  0  0
 19  6  1  0  0  0  0
 21 23  1  0  0  0  0
 22 43  1  1  0  0  0
 25 27  1  0  0  0  0
 25 26  1  1  0  0  0
 25 24  1  0  0  0  0
 27 28  1  0  0  0  0
 28 30  1  0  0  0  0
 30 29  1  1  0  0  0
 30 32  1  0  0  0  0
 32 33  1  0  0  0  0
 32 31  1  1  0  0  0
 33 34  1  0  0  0  0
 35 34  1  1  0  0  0
 35 36  1  0  0  0  0
 36 37  1  0  0  0  0
 36 39  1  1  0  0  0
 37 38  1  6  0  0  0
 40 35  1  0  0  0  0
 40 42  1  0  0  0  0
 41 35  1  0  0  0  0
 41 36  1  0  0  0  0
 42 37  1  0  0  0  0
 43 46  1  6  0  0  0
 43 45  1  0  0  0  0
 45 44  1  0  0  0  0
 46 47  1  0  0  0  0
 47 50  1  0  0  0  0
 49 48  1  0  0  0  0
 50 48  2  0  0  0  0
 51 48  1  6  0  0  0
 51 56  1  0  0  0  0
 51 52  1  0  0  0  0
 52 53  2  0  0  0  0
 54 52  1  0  0  0  0
 56 59  1  0  0  0  0
 56 55  2  0  0  0  0
 59 58  1  0  0  0  0
 59 57  1  0  0  0  0
 60 59  1  0  0  0  0
 61 60  1  0  0  0  0
M  END
>  <MODEL>
7

>  <REMARK>
 VINA RESULT:      -5.5      3.152      9.277
  Name = 
  19 active torsions:
  status: ('A' for Active; 'I' for Inactive)
    1  A    between atoms: C_1  and  C_59
    2  A    between atoms: C_5  and  O_6
    3  A    between atoms: O_6  and  C_53
    4  A    between atoms: C_13  and  O_43
    5  A    between atoms: C_22  and  C_27
    6  A    between atoms: C_22  and  C_61
    7  A    between atoms: C_28  and  O_52
    8  A    between atoms: C_28  and  C_54
    9  A    between atoms: C_30  and  C_59
   10  A    between atoms: O_31  and  C_57
   11  A    between atoms: C_40  and  C_41
   12  A    between atoms: C_40  and  C_57
   13  A    between atoms: C_41  and  C_56
   14  A    between atoms: O_43  and  C_48
   15  A    between atoms: C_44  and  C_53
   16  A    between atoms: C_44  and  C_54
   17  A    between atoms: C_48  and  O_52
   18  A    between atoms: C_51  and  C_57
   19  A    between atoms: C_59  and  C_61
                            x       y       z     vdW  Elec       q    Type
                         _______ _______ _______ _____ _____    ______ ____

>  <TORSDO>
F 19

$$$$
=
 OpenBabel11042419383D

 61 65  0  0  1  0  0  0  0  0999 V2000
  194.2970  168.9680  136.2390 C   0  0  0  0  0  2  0  0  0  0  0  0
  194.4250  172.4450  138.0170 C   0  0  1  0  0  3  0  0  0  0  0  0
  193.9390  170.3230  136.8130 C   0  0  0  0  0  0  0  0  0  0  0  0
  193.0030  173.1860  141.2130 O   0  0  0  0  0  0  0  0  0  0  0  0
  193.9870  173.4870  140.2640 C   0  0  2  0  0  3  0  0  0  0  0  0
  189.5170  173.4430  139.5420 N   0  0  0  0  0  2  0  0  0  0  0  0
  190.7670  172.2160  137.8440 C   0  0  0  0  0  0  0  0  0  0  0  0
  194.4000  172.2160  139.5280 C   0  0  0  0  0  2  0  0  0  0  0  0
  191.4610  169.5500  136.7840 C   0  0  0  0  0  1  0  0  0  0  0  0
  195.5130  168.9830  135.3290 C   0  0  0  0  0  2  0  0  0  0  0  0
  194.8710  171.2020  137.2920 C   0  0  0  0  0  0  0  0  0  0  0  0
  192.1250  171.8540  137.4090 C   0  0  0  0  0  0  0  0  0  0  0  0
  189.6180  171.7670  137.1930 O   0  0  0  0  0  1  0  0  0  0  0  0
  189.5970  174.0900  140.8180 C   0  0  0  0  0  0  0  0  0  0  0  0
  196.7920  168.7910  136.1300 C   0  0  0  0  0  2  0  0  0  0  0  0
  193.1240  172.8160  137.5850 O   0  0  0  0  0  0  0  0  0  0  0  0
  192.0880  174.2470  141.1630 C   0  0  0  0  0  2  0  0  0  0  0  0
  192.4840  170.6290  136.9880 C   0  0  0  0  0  0  0  0  0  0  0  0
  190.7100  172.9710  138.9310 C   0  0  0  0  0  3  0  0  0  0  0  0
  188.6660  174.8690  141.1560 O   0  0  0  0  0  0  0  0  0  0  0  0
  196.3550  171.0650  137.0880 C   0  0  0  0  0  2  0  0  0  0  0  0
  190.7540  173.8080  141.7700 C   0  0  1  0  0  3  0  0  0  0  0  0
  196.8630  169.6660  137.3840 C   0  0  0  0  0  2  0  0  0  0  0  0
  195.1070  174.0320  140.9030 O   0  0  0  0  0  0  0  0  0  0  0  0
  195.2350  175.3240  140.3760 C   0  0  2  0  0  3  0  0  0  0  0  0
  196.0870  175.2930  139.2670 O   0  0  0  0  0  1  0  0  0  0  0  0
  195.7690  176.1660  141.3500 O   0  0  0  0  0  0  0  0  0  0  0  0
  196.8750  175.4750  141.8520 C   0  0  0  0  0  2  0  0  0  0  0  0
  196.6110  177.1690  143.5410 O   0  0  0  0  0  1  0  0  0  0  0  0
  197.2110  175.9370  143.2640 C   0  0  1  0  0  3  0  0  0  0  0  0
  195.5210  175.0380  144.6950 O   0  0  0  0  0  1  0  0  0  0  0  0
  196.8560  174.8870  144.3170 C   0  0  1  0  0  3  0  0  0  0  0  0
  197.0860  173.4690  143.8200 C   0  0  0  0  0  2  0  0  0  0  0  0
  195.9120  172.7160  143.9720 O   0  0  0  0  0  0  0  0  0  0  0  0
  196.1880  171.4100  143.5270 C   0  0  1  0  0  0  0  0  0  0  0  0
  195.0410  170.4400  143.4200 C   0  0  2  0  0  0  0  0  0  0  0  0
  195.2950  169.5970  142.1820 C   0  0  2  0  0  3  0  0  0  0  0  0
  195.1550  168.2420  142.4880 O   0  0  0  0  0  1  0  0  0  0  0  0
  193.6550  170.9960  143.7030 C   0  0  0  0  0  1  0  0  0  0  0  0
  197.2020  171.1380  142.4260 C   0  0  0  0  0  2  0  0  0  0  0  0
  196.0140  170.3400  144.5910 C   0  0  0  0  0  2  0  0  0  0  0  0
  196.7220  169.8810  141.7100 C   0  0  0  0  0  2  0  0  0  0  0  0
  190.5680  174.4420  143.1660 C   0  0  2  0  0  3  0  0  0  0  0  0
  190.2930  172.7850  144.7300 C   0  0  0  0  0  1  0  0  0  0  0  0
  189.6270  173.7680  143.9790 O   0  0  0  0  0  0  0  0  0  0  0  0
  190.3680  175.9670  143.1350 C   0  0  0  0  0  2  0  0  0  0  0  0
  189.9140  176.4520  144.5010 C   0  0  0  0  0  2  0  0  0  0  0  0
  187.6680  177.1400  145.2550 C   0  0  0  0  0  0  0  0  0  0  0  0
  187.7750  176.2740  146.3420 O   0  0  0  0  0  1  0  0  0  0  0  0
  188.6520  177.2340  144.3610 C   0  0  0  0  0  3  0  0  0  0  0  0
  186.4440  177.9830  145.0820 C   0  0  2  0  0  3  0  0  0  0  0  0
  185.5970  178.0150  146.3220 C   0  0  0  0  0  0  0  0  0  0  0  0
  184.6670  177.2350  146.4660 O   0  0  0  0  0  0  0  0  0  0  0  0
  185.9090  179.0000  147.3950 C   0  0  0  0  0  1  0  0  0  0  0  0
  185.6920  176.4330  143.4620 O   0  0  0  0  0  0  0  0  0  0  0  0
  185.6550  177.5940  143.8560 C   0  0  0  0  0  0  0  0  0  0  0  0
  183.4720  178.3530  143.3720 F   0  0  0  0  0  0  0  0  0  0  0  0
  185.1360  179.8720  143.5400 F   0  0  0  0  0  0  0  0  0  0  0  0
  184.8100  178.5980  143.1030 C   0  0  0  0  0  0  0  0  0  0  0  0
  185.0300  178.5240  141.5920 C   0  0  0  0  0  2  0  0  0  0  0  0
  183.8110  178.3560  140.9280 O   0  0  0  0  0  1  0  0  0  0  0  0
  1  3  1  0  0  0  0
  2  8  1  1  0  0  0
  3 18  1  0  0  0  0
  3 11  2  0  0  0  0
  5 24  1  1  0  0  0
  5  4  1  0  0  0  0
  6 14  1  0  0  0  0
  7 19  2  0  0  0  0
  8  5  1  0  0  0  0
  9 18  1  0  0  0  0
 10 15  1  0  0  0  0
 10  1  1  0  0  0  0
 11  2  1  0  0  0  0
 12 16  1  0  0  0  0
 12  7  1  0  0  0  0
 13  7  1  0  0  0  0
 14 20  2  0  0  0  0
 14 22  1  0  0  0  0
 15 23  1  0  0  0  0
 16  2  1  0  0  0  0
 17  4  1  0  0  0  0
 17 22  1  0  0  0  0
 18 12  2  0  0  0  0
 19  6  1  0  0  0  0
 21 11  1  0  0  0  0
 21 23  1  0  0  0  0
 22 43  1  1  0  0  0
 25 26  1  6  0  0  0
 25 24  1  0  0  0  0
 25 27  1  0  0  0  0
 27 28  1  0  0  0  0
 28 30  1  0  0  0  0
 30 29  1  1  0  0  0
 30 32  1  0  0  0  0
 32 31  1  6  0  0  0
 33 34  1  0  0  0  0
 33 32  1  0  0  0  0
 35 34  1  1  0  0  0
 35 41  1  0  0  0  0
 36 35  1  0  0  0  0
 36 39  1  1  0  0  0
 36 41  1  0  0  0  0
 37 38  1  1  0  0  0
 37 36  1  0  0  0  0
 40 35  1  0  0  0  0
 42 37  1  0  0  0  0
 42 40  1  0  0  0  0
 43 46  1  6  0  0  0
 43 45  1  0  0  0  0
 45 44  1  0  0  0  0
 46 47  1  0  0  0  0
 48 49  1  0  0  0  0
 50 47  1  0  0  0  0
 50 48  2  0  0  0  0
 51 56  1  6  0  0  0
 51 48  1  0  0  0  0
 51 52  1  0  0  0  0
 52 53  2  0  0  0  0
 52 54  1  0  0  0  0
 55 56  2  0  0  0  0
 59 57  1  0  0  0  0
 59 58  1  0  0  0  0
 59 56  1  0  0  0  0
 60 59  1  0  0  0  0
 61 60  1  0  0  0  0
M  END
>  <MODEL>
8

>  <REMARK>
 VINA RESULT:      -5.4      3.287     10.355
  Name = 
  19 active torsions:
  status: ('A' for Active; 'I' for Inactive)
    1  A    between atoms: C_1  and  C_59
    2  A    between atoms: C_5  and  O_6
    3  A    between atoms: O_6  and  C_53
    4  A    between atoms: C_13  and  O_43
    5  A    between atoms: C_22  and  C_27
    6  A    between atoms: C_22  and  C_61
    7  A    between atoms: C_28  and  O_52
    8  A    between atoms: C_28  and  C_54
    9  A    between atoms: C_30  and  C_59
   10  A    between atoms: O_31  and  C_57
   11  A    between atoms: C_40  and  C_41
   12  A    between atoms: C_40  and  C_57
   13  A    between atoms: C_41  and  C_56
   14  A    between atoms: O_43  and  C_48
   15  A    between atoms: C_44  and  C_53
   16  A    between atoms: C_44  and  C_54
   17  A    between atoms: C_48  and  O_52
   18  A    between atoms: C_51  and  C_57
   19  A    between atoms: C_59  and  C_61
                            x       y       z     vdW  Elec       q    Type
                         _______ _______ _______ _____ _____    ______ ____

>  <TORSDO>
F 19

$$$$
=
 OpenBabel11042419383D

 61 65  0  0  1  0  0  0  0  0999 V2000
  196.4900  171.7040  136.3140 C   0  0  0  0  0  2  0  0  0  0  0  0
  196.0200  171.2420  140.1650 C   0  0  1  0  0  3  0  0  0  0  0  0
  196.5330  171.8840  137.8160 C   0  0  0  0  0  0  0  0  0  0  0  0
  193.8210  173.1670  142.2240 O   0  0  0  0  0  0  0  0  0  0  0  0
  194.4820  171.9500  142.0250 C   0  0  2  0  0  3  0  0  0  0  0  0
  196.4250  176.0350  142.2310 N   0  0  0  0  0  2  0  0  0  0  0  0
  197.1710  174.7220  140.3150 C   0  0  0  0  0  0  0  0  0  0  0  0
  194.5970  171.6630  140.5310 C   0  0  0  0  0  2  0  0  0  0  0  0
  197.0270  174.3960  137.3850 C   0  0  0  0  0  1  0  0  0  0  0  0
  196.9550  170.3370  135.8390 C   0  0  0  0  0  2  0  0  0  0  0  0
  196.1240  170.9200  138.6960 C   0  0  0  0  0  0  0  0  0  0  0  0
  197.0420  173.4120  139.6590 C   0  0  0  0  0  0  0  0  0  0  0  0
  197.9410  175.7600  139.7890 O   0  0  0  0  0  1  0  0  0  0  0  0
  195.4740  176.1130  143.3000 C   0  0  0  0  0  0  0  0  0  0  0  0
  195.7980  169.3490  135.8180 C   0  0  0  0  0  2  0  0  0  0  0  0
  196.9120  172.2970  140.4920 O   0  0  0  0  0  0  0  0  0  0  0  0
  194.4880  173.7950  143.2850 C   0  0  0  0  0  2  0  0  0  0  0  0
  196.9050  173.2390  138.3330 C   0  0  0  0  0  0  0  0  0  0  0  0
  196.4650  174.8640  141.4280 C   0  0  0  0  0  3  0  0  0  0  0  0
  195.7040  176.9060  144.2520 O   0  0  0  0  0  0  0  0  0  0  0  0
  195.8260  169.4940  138.3200 C   0  0  0  0  0  2  0  0  0  0  0  0
  194.1880  175.2950  143.2690 C   0  0  1  0  0  3  0  0  0  0  0  0
  194.9460  169.3820  137.0890 C   0  0  0  0  0  2  0  0  0  0  0  0
  193.7640  170.9160  142.6370 O   0  0  0  0  0  0  0  0  0  0  0  0
  192.4570  171.4030  142.7620 C   0  0  2  0  0  3  0  0  0  0  0  0
  191.9620  171.0940  144.0330 O   0  0  0  0  0  1  0  0  0  0  0  0
  191.6510  170.8080  141.7920 O   0  0  0  0  0  0  0  0  0  0  0  0
  190.3730  171.3210  142.0250 C   0  0  0  0  0  2  0  0  0  0  0  0
  190.2860  173.6470  141.4120 O   0  0  0  0  0  1  0  0  0  0  0  0
  189.9990  172.3530  140.9680 C   0  0  1  0  0  3  0  0  0  0  0  0
  189.8970  171.1160  138.9250 O   0  0  0  0  0  1  0  0  0  0  0  0
  190.6540  172.0620  139.6180 C   0  0  1  0  0  3  0  0  0  0  0  0
  190.8050  173.3130  138.7670 C   0  0  0  0  0  2  0  0  0  0  0  0
  190.8070  172.9660  137.4080 O   0  0  0  0  0  0  0  0  0  0  0  0
  191.8870  173.6340  136.8030 C   0  0  1  0  0  0  0  0  0  0  0  0
  192.7640  172.8560  135.8570 C   0  0  2  0  0  0  0  0  0  0  0  0
  193.1410  173.8030  134.7310 C   0  0  2  0  0  3  0  0  0  0  0  0
  194.5190  173.7660  134.5150 O   0  0  0  0  0  1  0  0  0  0  0  0
  192.3350  171.4300  135.5550 C   0  0  0  0  0  1  0  0  0  0  0  0
  191.7740  175.0780  136.3370 C   0  0  0  0  0  2  0  0  0  0  0  0
  193.2530  173.1600  137.2700 C   0  0  0  0  0  2  0  0  0  0  0  0
  192.7160  175.2120  135.1460 C   0  0  0  0  0  2  0  0  0  0  0  0
  193.2030  175.6560  144.4020 C   0  0  2  0  0  3  0  0  0  0  0  0
  192.2680  175.1220  146.4270 C   0  0  0  0  0  1  0  0  0  0  0  0
  193.3290  174.8410  145.5500 O   0  0  0  0  0  0  0  0  0  0  0  0
  191.7490  175.8290  143.9300 C   0  0  0  0  0  2  0  0  0  0  0  0
  191.4480  177.3040  143.7270 C   0  0  0  0  0  2  0  0  0  0  0  0
  189.1950  177.6210  144.6790 C   0  0  0  0  0  0  0  0  0  0  0  0
  189.7320  177.5290  145.9620 O   0  0  0  0  0  1  0  0  0  0  0  0
  189.9750  177.5030  143.6060 C   0  0  0  0  0  3  0  0  0  0  0  0
  187.7300  177.8620  144.4920 C   0  0  2  0  0  3  0  0  0  0  0  0
  186.9310  177.4680  145.7010 C   0  0  0  0  0  0  0  0  0  0  0  0
  187.1120  176.3890  146.2470 O   0  0  0  0  0  0  0  0  0  0  0  0
  185.9180  178.4130  146.2480 C   0  0  0  0  0  1  0  0  0  0  0  0
  187.2580  176.0100  143.0980 O   0  0  0  0  0  0  0  0  0  0  0  0
  187.2080  177.2300  143.2250 C   0  0  0  0  0  0  0  0  0  0  0  0
  186.8450  179.4020  142.3730 F   0  0  0  0  0  0  0  0  0  0  0  0
  187.2350  177.7170  140.9190 F   0  0  0  0  0  0  0  0  0  0  0  0
  186.6140  178.0600  142.1090 C   0  0  0  0  0  0  0  0  0  0  0  0
  185.1080  177.8400  141.9600 C   0  0  0  0  0  2  0  0  0  0  0  0
  184.6990  178.1230  140.6530 O   0  0  0  0  0  1  0  0  0  0  0  0
  1  3  1  0  0  0  0
  2 16  1  0  0  0  0
  2  8  1  6  0  0  0
  3 18  1  0  0  0  0
  3 11  2  0  0  0  0
  4 17  1  0  0  0  0
  5  4  1  0  0  0  0
  5 24  1  1  0  0  0
  6 14  1  0  0  0  0
  7 19  2  0  0  0  0
  8  5  1  0  0  0  0
  9 18  1  0  0  0  0
 10  1  1  0  0  0  0
 11  2  1  0  0  0  0
 12  7  1  0  0  0  0
 12 16  1  0  0  0  0
 13  7  1  0  0  0  0
 14 20  2  0  0  0  0
 15 10  1  0  0  0  0
 15 23  1  0  0  0  0
 18 12  2  0  0  0  0
 19  6  1  0  0  0  0
 21 11  1  0  0  0  0
 22 17  1  0  0  0  0
 22 14  1  0  0  0  0
 22 43  1  1  0  0  0
 23 21  1  0  0  0  0
 24 25  1  0  0  0  0
 25 26  1  1  0  0  0
 27 28  1  0  0  0  0
 27 25  1  0  0  0  0
 30 29  1  1  0  0  0
 30 28  1  0  0  0  0
 32 31  1  6  0  0  0
 32 30  1  0  0  0  0
 33 32  1  0  0  0  0
 34 33  1  0  0  0  0
 35 41  1  0  0  0  0
 35 34  1  1  0  0  0
 36 39  1  6  0  0  0
 36 35  1  0  0  0  0
 36 41  1  0  0  0  0
 37 38  1  1  0  0  0
 37 42  1  0  0  0  0
 37 36  1  0  0  0  0
 40 35  1  0  0  0  0
 42 40  1  0  0  0  0
 43 46  1  6  0  0  0
 43 45  1  0  0  0  0
 45 44  1  0  0  0  0
 47 46  1  0  0  0  0
 48 49  1  0  0  0  0
 50 47  1  0  0  0  0
 50 48  2  0  0  0  0
 51 56  1  6  0  0  0
 51 48  1  0  0  0  0
 51 52  1  0  0  0  0
 52 53  2  0  0  0  0
 52 54  1  0  0  0  0
 55 56  2  0  0  0  0
 58 59  1  0  0  0  0
 59 57  1  0  0  0  0
 59 56  1  0  0  0  0
 60 59  1  0  0  0  0
 61 60  1  0  0  0  0
M  END
>  <MODEL>
9

>  <REMARK>
 VINA RESULT:      -5.3      2.835      8.865
  Name = 
  19 active torsions:
  status: ('A' for Active; 'I' for Inactive)
    1  A    between atoms: C_1  and  C_59
    2  A    between atoms: C_5  and  O_6
    3  A    between atoms: O_6  and  C_53
    4  A    between atoms: C_13  and  O_43
    5  A    between atoms: C_22  and  C_27
    6  A    between atoms: C_22  and  C_61
    7  A    between atoms: C_28  and  O_52
    8  A    between atoms: C_28  and  C_54
    9  A    between atoms: C_30  and  C_59
   10  A    between atoms: O_31  and  C_57
   11  A    between atoms: C_40  and  C_41
   12  A    between atoms: C_40  and  C_57
   13  A    between atoms: C_41  and  C_56
   14  A    between atoms: O_43  and  C_48
   15  A    between atoms: C_44  and  C_53
   16  A    between atoms: C_44  and  C_54
   17  A    between atoms: C_48  and  O_52
   18  A    between atoms: C_51  and  C_57
   19  A    between atoms: C_59  and  C_61
                            x       y       z     vdW  Elec       q    Type
                         _______ _______ _______ _____ _____    ______ ____

>  <TORSDO>
F 19

$$$$
