=
 OpenBabel11042417473D

 25 28  0  0  1  0  0  0  0  0999 V2000
  189.3990  176.2610  144.1760 C   0  0  1  0  0  3  0  0  0  0  0  0
  188.5220  177.1180  144.9740 N   0  0  0  0  0  2  0  0  0  0  0  0
  184.9460  178.2860  146.9720 C   0  0  0  0  0  3  0  0  0  0  0  0
  184.2490  179.1380  144.7770 C   0  0  0  0  0  3  0  0  0  0  0  0
  186.0340  178.8980  143.0160 C   0  0  0  0  0  2  0  0  0  0  0  0
  185.6870  179.4030  144.4190 C   0  0  2  0  0  3  0  0  0  0  0  0
  187.4600  177.9310  144.4590 C   0  0  0  0  0  0  0  0  0  0  0  0
  187.1990  178.0400  143.2020 N   0  0  0  0  0  0  0  0  0  0  0  0
  186.5930  178.6700  145.2940 N   0  0  0  0  0  0  0  0  0  0  0  0
  186.2320  178.2690  146.6200 C   0  0  0  0  0  3  0  0  0  0  0  0
  183.9150  178.6620  145.9820 C   0  0  0  0  0  3  0  0  0  0  0  0
  191.8720  176.8120  144.1120 C   0  0  0  0  0  3  0  0  0  0  0  0
  190.7820  176.2020  144.7520 C   0  0  0  0  0  0  0  0  0  0  0  0
  193.3530  176.0120  145.8520 C   0  0  0  0  0  0  0  0  0  0  0  0
  190.9890  175.4900  145.9370 C   0  0  0  0  0  3  0  0  0  0  0  0
  192.2710  175.3960  146.4890 C   0  0  0  0  0  3  0  0  0  0  0  0
  194.7150  175.9120  146.4380 C   0  0  0  0  0  1  0  0  0  0  0  0
  193.1540  176.7190  144.6630 C   0  0  0  0  0  3  0  0  0  0  0  0
  188.7980  174.8760  143.9400 C   0  0  0  0  0  2  0  0  0  0  0  0
  189.4890  174.1670  142.7870 C   0  0  2  0  0  3  0  0  0  0  0  0
  188.8370  174.5670  141.5080 C   0  0  0  0  0  0  0  0  0  0  0  0
  188.5260  174.2930  140.2300 N   0  0  0  0  0  0  0  0  0  0  0  0
  188.0860  175.4740  140.7830 N   0  0  0  0  0  2  0  0  0  0  0  0
  189.7750  172.2790  144.3940 C   0  0  0  0  0  1  0  0  0  0  0  0
  189.3990  172.6600  142.9740 C   0  0  0  0  0  2  0  0  0  0  0  0
  1 19  1  1  0  0  0
  1 13  1  0  0  0  0
  1  2  1  0  0  0  0
  4 11  2  0  0  0  0
  5  8  1  0  0  0  0
  6  5  1  6  0  0  0
  6  4  1  0  0  0  0
  6  9  1  0  0  0  0
  7  2  1  0  0  0  0
  7  9  1  0  0  0  0
  8  7  2  0  0  0  0
  9 10  1  0  0  0  0
 10  3  2  0  0  0  0
 11  3  1  0  0  0  0
 12 18  2  0  0  0  0
 12 13  1  0  0  0  0
 13 15  2  0  0  0  0
 14 17  1  0  0  0  0
 14 16  2  0  0  0  0
 15 16  1  0  0  0  0
 18 14  1  0  0  0  0
 20 25  1  1  0  0  0
 20 19  1  0  0  0  0
 21 20  1  0  0  0  0
 22 23  1  0  0  0  0
 22 21  2  0  0  0  0
 23 21  1  0  0  0  0
 25 24  1  0  0  0  0
M  END
>  <MODEL>
1

>  <REMARK>
 VINA RESULT:      -6.8      0.000      0.000
  Name = 
  6 active torsions:
  status: ('A' for Active; 'I' for Inactive)
    1  A    between atoms: C_1  and  C_22
    2  A    between atoms: N_2  and  C_25
    3  A    between atoms: C_9  and  C_25
    4  A    between atoms: C_22  and  C_23
    5  A    between atoms: C_22  and  C_24
    6  A    between atoms: C_23  and  C_25
                            x       y       z     vdW  Elec       q    Type
                         _______ _______ _______ _____ _____    ______ ____

>  <TORSDO>
F 6

$$$$
=
 OpenBabel11042417473D

 25 28  0  0  1  0  0  0  0  0999 V2000
  189.0470  176.2500  144.6000 C   0  0  1  0  0  3  0  0  0  0  0  0
  190.2400  176.1690  145.4430 N   0  0  0  0  0  2  0  0  0  0  0  0
  194.3730  176.4860  146.4240 C   0  0  0  0  0  3  0  0  0  0  0  0
  194.5580  174.2360  145.4590 C   0  0  0  0  0  3  0  0  0  0  0  0
  192.3370  173.2870  144.7420 C   0  0  0  0  0  2  0  0  0  0  0  0
  193.1400  173.9390  145.8710 C   0  0  2  0  0  3  0  0  0  0  0  0
  191.2340  175.1380  145.3810 C   0  0  0  0  0  0  0  0  0  0  0  0
  191.1470  174.1190  144.5980 N   0  0  0  0  0  0  0  0  0  0  0  0
  192.4080  175.1640  146.1660 N   0  0  0  0  0  0  0  0  0  0  0  0
  193.0550  176.3690  146.5890 C   0  0  0  0  0  3  0  0  0  0  0  0
  195.1330  175.4060  145.7620 C   0  0  0  0  0  3  0  0  0  0  0  0
  187.4490  176.3430  146.5650 C   0  0  0  0  0  3  0  0  0  0  0  0
  187.8930  176.8590  145.3380 C   0  0  0  0  0  0  0  0  0  0  0  0
  185.6970  178.0120  146.6440 C   0  0  0  0  0  0  0  0  0  0  0  0
  187.2260  177.9480  144.7670 C   0  0  0  0  0  3  0  0  0  0  0  0
  186.1320  178.5260  145.4180 C   0  0  0  0  0  3  0  0  0  0  0  0
  184.5340  178.6250  147.3360 C   0  0  0  0  0  1  0  0  0  0  0  0
  186.3550  176.9200  147.2170 C   0  0  0  0  0  3  0  0  0  0  0  0
  189.3260  176.9410  143.2660 C   0  0  0  0  0  2  0  0  0  0  0  0
  188.8570  176.0890  142.0980 C   0  0  2  0  0  3  0  0  0  0  0  0
  187.8200  176.8380  141.3340 C   0  0  0  0  0  0  0  0  0  0  0  0
  186.9880  177.8890  141.2320 N   0  0  0  0  0  0  0  0  0  0  0  0
  187.0360  176.9770  140.2030 N   0  0  0  0  0  2  0  0  0  0  0  0
  188.6250  173.6440  141.6560 C   0  0  0  0  0  1  0  0  0  0  0  0
  188.2870  174.7750  142.6090 C   0  0  0  0  0  2  0  0  0  0  0  0
  1 19  1  6  0  0  0
  1 13  1  0  0  0  0
  1  2  1  0  0  0  0
  3 10  2  0  0  0  0
  4 11  2  0  0  0  0
  4  6  1  0  0  0  0
  6  5  1  6  0  0  0
  6  9  1  0  0  0  0
  7  2  1  0  0  0  0
  7  9  1  0  0  0  0
  8  5  1  0  0  0  0
  8  7  2  0  0  0  0
  9 10  1  0  0  0  0
 11  3  1  0  0  0  0
 12 18  1  0  0  0  0
 13 12  2  0  0  0  0
 14 18  2  0  0  0  0
 14 17  1  0  0  0  0
 15 13  1  0  0  0  0
 15 16  2  0  0  0  0
 16 14  1  0  0  0  0
 20 25  1  1  0  0  0
 20 19  1  0  0  0  0
 21 20  1  0  0  0  0
 22 21  2  0  0  0  0
 23 22  1  0  0  0  0
 23 21  1  0  0  0  0
 24 25  1  0  0  0  0
M  END
>  <MODEL>
2

>  <REMARK>
 VINA RESULT:      -6.8      1.898      6.523
  Name = 
  6 active torsions:
  status: ('A' for Active; 'I' for Inactive)
    1  A    between atoms: C_1  and  C_22
    2  A    between atoms: N_2  and  C_25
    3  A    between atoms: C_9  and  C_25
    4  A    between atoms: C_22  and  C_23
    5  A    between atoms: C_22  and  C_24
    6  A    between atoms: C_23  and  C_25
                            x       y       z     vdW  Elec       q    Type
                         _______ _______ _______ _____ _____    ______ ____

>  <TORSDO>
F 6

$$$$
=
 OpenBabel11042417473D

 25 28  0  0  1  0  0  0  0  0999 V2000
  189.0550  176.7730  144.1330 C   0  0  1  0  0  3  0  0  0  0  0  0
  189.0700  175.3290  143.8940 N   0  0  0  0  0  2  0  0  0  0  0  0
  190.6370  171.5930  142.5790 C   0  0  0  0  0  3  0  0  0  0  0  0
  189.7490  172.2330  140.3810 C   0  0  0  0  0  3  0  0  0  0  0  0
  188.4880  174.4130  140.4260 C   0  0  0  0  0  2  0  0  0  0  0  0
  188.6560  173.0240  141.0500 C   0  0  2  0  0  3  0  0  0  0  0  0
  188.8670  174.6950  142.6240 C   0  0  0  0  0  0  0  0  0  0  0  0
  188.5830  175.3430  141.5470 N   0  0  0  0  0  0  0  0  0  0  0  0
  188.9790  173.2990  142.4440 N   0  0  0  0  0  0  0  0  0  0  0  0
  189.8540  172.4650  143.2130 C   0  0  0  0  0  3  0  0  0  0  0  0
  190.6350  171.5360  141.1030 C   0  0  0  0  0  3  0  0  0  0  0  0
  187.2780  176.6400  145.9350 C   0  0  0  0  0  3  0  0  0  0  0  0
  187.7610  177.2140  144.7490 C   0  0  0  0  0  0  0  0  0  0  0  0
  185.3100  178.0460  145.8230 C   0  0  0  0  0  0  0  0  0  0  0  0
  187.0070  178.1970  144.1010 C   0  0  0  0  0  3  0  0  0  0  0  0
  185.7840  178.6150  144.6370 C   0  0  0  0  0  3  0  0  0  0  0  0
  184.0120  178.4890  146.3920 C   0  0  0  0  0  1  0  0  0  0  0  0
  186.0560  177.0580  146.4710 C   0  0  0  0  0  3  0  0  0  0  0  0
  190.2760  177.2420  144.9240 C   0  0  0  0  0  2  0  0  0  0  0  0
  191.1180  176.0630  145.3840 C   0  0  2  0  0  3  0  0  0  0  0  0
  191.1930  176.0690  146.8720 C   0  0  0  0  0  0  0  0  0  0  0  0
  191.2540  176.7540  148.0270 N   0  0  0  0  0  0  0  0  0  0  0  0
  191.2180  175.3790  148.0700 N   0  0  0  0  0  2  0  0  0  0  0  0
  192.7430  175.0330  143.7940 C   0  0  0  0  0  1  0  0  0  0  0  0
  192.5140  176.1580  144.7870 C   0  0  0  0  0  2  0  0  0  0  0  0
  1 13  1  0  0  0  0
  1 19  1  1  0  0  0
  2  1  1  0  0  0  0
  3 10  2  0  0  0  0
  4 11  2  0  0  0  0
  5  6  1  0  0  0  0
  5  8  1  0  0  0  0
  6  4  1  6  0  0  0
  6  9  1  0  0  0  0
  7  2  1  0  0  0  0
  8  7  2  0  0  0  0
  9  7  1  0  0  0  0
  9 10  1  0  0  0  0
 11  3  1  0  0  0  0
 12 18  1  0  0  0  0
 13 12  2  0  0  0  0
 14 17  1  0  0  0  0
 14 18  2  0  0  0  0
 15 16  2  0  0  0  0
 15 13  1  0  0  0  0
 16 14  1  0  0  0  0
 19 20  1  0  0  0  0
 20 25  1  6  0  0  0
 20 21  1  0  0  0  0
 21 22  2  0  0  0  0
 21 23  1  0  0  0  0
 22 23  1  0  0  0  0
 24 25  1  0  0  0  0
M  END
>  <MODEL>
3

>  <REMARK>
 VINA RESULT:      -6.5      1.859      6.751
  Name = 
  6 active torsions:
  status: ('A' for Active; 'I' for Inactive)
    1  A    between atoms: C_1  and  C_22
    2  A    between atoms: N_2  and  C_25
    3  A    between atoms: C_9  and  C_25
    4  A    between atoms: C_22  and  C_23
    5  A    between atoms: C_22  and  C_24
    6  A    between atoms: C_23  and  C_25
                            x       y       z     vdW  Elec       q    Type
                         _______ _______ _______ _____ _____    ______ ____

>  <TORSDO>
F 6

$$$$
=
 OpenBabel11042417473D

 25 28  0  0  1  0  0  0  0  0999 V2000
  189.2170  175.6700  144.6910 C   0  0  1  0  0  3  0  0  0  0  0  0
  187.8310  176.0520  144.4170 N   0  0  0  0  0  2  0  0  0  0  0  0
  184.5350  178.6870  143.8430 C   0  0  0  0  0  3  0  0  0  0  0  0
  184.3330  178.6280  146.2900 C   0  0  0  0  0  3  0  0  0  0  0  0
  185.9800  177.0610  147.3760 C   0  0  0  0  0  2  0  0  0  0  0  0
  184.8970  177.2320  146.3060 C   0  0  2  0  0  3  0  0  0  0  0  0
  186.8800  176.4860  145.3980 C   0  0  0  0  0  0  0  0  0  0  0  0
  187.1350  176.5300  146.6600 N   0  0  0  0  0  0  0  0  0  0  0  0
  185.5810  176.9230  145.0570 N   0  0  0  0  0  0  0  0  0  0  0  0
  185.2580  177.5670  143.8190 C   0  0  0  0  0  3  0  0  0  0  0  0
  184.1270  179.2740  145.1370 C   0  0  0  0  0  3  0  0  0  0  0  0
  189.3770  174.1900  142.6400 C   0  0  0  0  0  3  0  0  0  0  0  0
  189.5750  174.3800  144.0160 C   0  0  0  0  0  0  0  0  0  0  0  0
  190.2160  171.9260  142.8220 C   0  0  0  0  0  0  0  0  0  0  0  0
  190.0850  173.3330  144.7900 C   0  0  0  0  0  3  0  0  0  0  0  0
  190.4080  172.1080  144.1950 C   0  0  0  0  0  3  0  0  0  0  0  0
  190.5580  170.6260  142.1910 C   0  0  0  0  0  1  0  0  0  0  0  0
  189.7000  172.9660  142.0450 C   0  0  0  0  0  3  0  0  0  0  0  0
  190.2020  176.7950  144.3730 C   0  0  0  0  0  2  0  0  0  0  0  0
  191.1630  177.0250  145.5270 C   0  0  2  0  0  3  0  0  0  0  0  0
  192.4800  176.4100  145.1940 C   0  0  0  0  0  0  0  0  0  0  0  0
  193.2070  175.3230  144.8870 N   0  0  0  0  0  0  0  0  0  0  0  0
  193.8330  176.5470  144.9460 N   0  0  0  0  0  2  0  0  0  0  0  0
  191.5530  176.6370  147.9620 C   0  0  0  0  0  1  0  0  0  0  0  0
  190.6030  176.4100  146.8000 C   0  0  0  0  0  2  0  0  0  0  0  0
  1 19  1  6  0  0  0
  2  1  1  0  0  0  0
  2  7  1  0  0  0  0
  3 11  1  0  0  0  0
  6  4  1  6  0  0  0
  6  5  1  0  0  0  0
  7  8  2  0  0  0  0
  8  5  1  0  0  0  0
  9  7  1  0  0  0  0
  9  6  1  0  0  0  0
 10  3  2  0  0  0  0
 10  9  1  0  0  0  0
 11  4  2  0  0  0  0
 12 13  1  0  0  0  0
 13  1  1  0  0  0  0
 13 15  2  0  0  0  0
 14 16  2  0  0  0  0
 16 15  1  0  0  0  0
 17 14  1  0  0  0  0
 18 12  2  0  0  0  0
 18 14  1  0  0  0  0
 20 19  1  6  0  0  0
 20 25  1  0  0  0  0
 21 20  1  0  0  0  0
 22 23  1  0  0  0  0
 22 21  2  0  0  0  0
 23 21  1  0  0  0  0
 25 24  1  0  0  0  0
M  END
>  <MODEL>
4

>  <REMARK>
 VINA RESULT:      -6.4      1.972      4.350
  Name = 
  6 active torsions:
  status: ('A' for Active; 'I' for Inactive)
    1  A    between atoms: C_1  and  C_22
    2  A    between atoms: N_2  and  C_25
    3  A    between atoms: C_9  and  C_25
    4  A    between atoms: C_22  and  C_23
    5  A    between atoms: C_22  and  C_24
    6  A    between atoms: C_23  and  C_25
                            x       y       z     vdW  Elec       q    Type
                         _______ _______ _______ _____ _____    ______ ____

>  <TORSDO>
F 6

$$$$
=
 OpenBabel11042417473D

 25 28  0  0  1  0  0  0  0  0999 V2000
  188.9740  177.7240  143.9600 C   0  0  1  0  0  3  0  0  0  0  0  0
  189.6990  176.4980  143.6260 N   0  0  0  0  0  2  0  0  0  0  0  0
  191.6440  172.7770  144.3450 C   0  0  0  0  0  3  0  0  0  0  0  0
  193.6210  174.1470  144.8410 C   0  0  0  0  0  3  0  0  0  0  0  0
  193.2300  176.6080  144.4730 C   0  0  0  0  0  2  0  0  0  0  0  0
  193.1370  175.1990  143.8790 C   0  0  2  0  0  3  0  0  0  0  0  0
  191.0980  176.2720  143.8490 C   0  0  0  0  0  0  0  0  0  0  0  0
  191.8910  177.1690  144.3230 N   0  0  0  0  0  0  0  0  0  0  0  0
  191.7200  175.0330  143.5820 N   0  0  0  0  0  0  0  0  0  0  0  0
  191.0530  173.7700  143.6800 C   0  0  0  0  0  3  0  0  0  0  0  0
  192.9410  173.0070  145.0140 C   0  0  0  0  0  3  0  0  0  0  0  0
  186.6550  178.6450  143.5180 C   0  0  0  0  0  3  0  0  0  0  0  0
  187.7660  177.9020  143.0910 C   0  0  0  0  0  0  0  0  0  0  0  0
  185.5160  178.1560  141.4390 C   0  0  0  0  0  0  0  0  0  0  0  0
  187.7390  177.2810  141.8380 C   0  0  0  0  0  3  0  0  0  0  0  0
  186.6170  177.4090  141.0120 C   0  0  0  0  0  3  0  0  0  0  0  0
  184.3240  178.2910  140.5620 C   0  0  0  0  0  1  0  0  0  0  0  0
  185.5340  178.7730  142.6920 C   0  0  0  0  0  3  0  0  0  0  0  0
  188.6480  177.8170  145.4510 C   0  0  0  0  0  2  0  0  0  0  0  0
  188.0450  176.5180  145.9620 C   0  0  2  0  0  3  0  0  0  0  0  0
  186.6730  176.7880  146.4770 C   0  0  0  0  0  0  0  0  0  0  0  0
  185.8660  177.3890  147.3680 N   0  0  0  0  0  0  0  0  0  0  0  0
  185.3030  176.6290  146.3680 N   0  0  0  0  0  2  0  0  0  0  0  0
  189.3170  174.5140  146.7330 C   0  0  0  0  0  1  0  0  0  0  0  0
  188.9170  175.9400  147.0660 C   0  0  0  0  0  2  0  0  0  0  0  0
  1 19  1  1  0  0  0
  2  7  1  0  0  0  0
  2  1  1  0  0  0  0
  3 11  1  0  0  0  0
  4 11  2  0  0  0  0
  6  5  1  1  0  0  0
  6  4  1  0  0  0  0
  7  8  2  0  0  0  0
  8  5  1  0  0  0  0
  9 10  1  0  0  0  0
  9  7  1  0  0  0  0
  9  6  1  0  0  0  0
 10  3  2  0  0  0  0
 13 12  1  0  0  0  0
 13  1  1  0  0  0  0
 14 18  1  0  0  0  0
 15 13  2  0  0  0  0
 16 14  2  0  0  0  0
 16 15  1  0  0  0  0
 17 14  1  0  0  0  0
 18 12  2  0  0  0  0
 20 19  1  1  0  0  0
 20 21  1  0  0  0  0
 20 25  1  0  0  0  0
 21 22  2  0  0  0  0
 23 21  1  0  0  0  0
 23 22  1  0  0  0  0
 24 25  1  0  0  0  0
M  END
>  <MODEL>
5

>  <REMARK>
 VINA RESULT:      -6.4      2.269      7.026
  Name = 
  6 active torsions:
  status: ('A' for Active; 'I' for Inactive)
    1  A    between atoms: C_1  and  C_22
    2  A    between atoms: N_2  and  C_25
    3  A    between atoms: C_9  and  C_25
    4  A    between atoms: C_22  and  C_23
    5  A    between atoms: C_22  and  C_24
    6  A    between atoms: C_23  and  C_25
                            x       y       z     vdW  Elec       q    Type
                         _______ _______ _______ _____ _____    ______ ____

>  <TORSDO>
F 6

$$$$
=
 OpenBabel11042417473D

 25 28  0  0  1  0  0  0  0  0999 V2000
  189.3030  176.2330  144.9120 C   0  0  1  0  0  3  0  0  0  0  0  0
  189.1490  174.8710  144.4000 N   0  0  0  0  0  2  0  0  0  0  0  0
  190.2980  171.2760  142.4250 C   0  0  0  0  0  3  0  0  0  0  0  0
  189.6000  172.4290  140.3730 C   0  0  0  0  0  3  0  0  0  0  0  0
  188.6210  174.7080  140.8090 C   0  0  0  0  0  2  0  0  0  0  0  0
  188.5850  173.2170  141.1570 C   0  0  2  0  0  3  0  0  0  0  0  0
  188.9270  174.5190  143.0280 C   0  0  0  0  0  0  0  0  0  0  0  0
  188.7780  175.3890  142.0900 N   0  0  0  0  0  0  0  0  0  0  0  0
  188.8730  173.1790  142.5850 N   0  0  0  0  0  0  0  0  0  0  0  0
  189.6000  172.1090  143.1980 C   0  0  0  0  0  3  0  0  0  0  0  0
  190.3570  171.4990  140.9660 C   0  0  0  0  0  3  0  0  0  0  0  0
  187.4770  177.9070  144.3780 C   0  0  0  0  0  3  0  0  0  0  0  0
  187.9730  176.8710  145.1830 C   0  0  0  0  0  0  0  0  0  0  0  0
  185.5040  178.0580  145.7720 C   0  0  0  0  0  0  0  0  0  0  0  0
  187.2310  176.4410  146.2880 C   0  0  0  0  0  3  0  0  0  0  0  0
  185.9980  177.0310  146.5820 C   0  0  0  0  0  3  0  0  0  0  0  0
  184.1940  178.6850  146.0840 C   0  0  0  0  0  1  0  0  0  0  0  0
  186.2430  178.4970  144.6710 C   0  0  0  0  0  3  0  0  0  0  0  0
  190.2440  176.2970  146.1150 C   0  0  0  0  0  2  0  0  0  0  0  0
  191.6240  176.7860  145.7050 C   0  0  2  0  0  3  0  0  0  0  0  0
  191.5400  177.4020  144.3510 C   0  0  0  0  0  0  0  0  0  0  0  0
  191.7380  177.3170  143.0240 N   0  0  0  0  0  0  0  0  0  0  0  0
  191.1750  178.4620  143.5420 N   0  0  0  0  0  2  0  0  0  0  0  0
  193.8610  175.9820  146.4680 C   0  0  0  0  0  1  0  0  0  0  0  0
  192.6050  175.6230  145.6950 C   0  0  0  0  0  2  0  0  0  0  0  0
  1 13  1  0  0  0  0
  1 19  1  1  0  0  0
  2  1  1  0  0  0  0
  3 10  2  0  0  0  0
  4 11  2  0  0  0  0
  5  6  1  0  0  0  0
  5  8  1  0  0  0  0
  6  4  1  6  0  0  0
  6  9  1  0  0  0  0
  7  2  1  0  0  0  0
  8  7  2  0  0  0  0
  9  7  1  0  0  0  0
  9 10  1  0  0  0  0
 11  3  1  0  0  0  0
 12 18  2  0  0  0  0
 12 13  1  0  0  0  0
 13 15  2  0  0  0  0
 14 17  1  0  0  0  0
 14 16  2  0  0  0  0
 15 16  1  0  0  0  0
 18 14  1  0  0  0  0
 20 25  1  6  0  0  0
 20 19  1  0  0  0  0
 21 20  1  0  0  0  0
 22 23  1  0  0  0  0
 22 21  2  0  0  0  0
 23 21  1  0  0  0  0
 25 24  1  0  0  0  0
M  END
>  <MODEL>
6

>  <REMARK>
 VINA RESULT:      -6.4      1.736      6.390
  Name = 
  6 active torsions:
  status: ('A' for Active; 'I' for Inactive)
    1  A    between atoms: C_1  and  C_22
    2  A    between atoms: N_2  and  C_25
    3  A    between atoms: C_9  and  C_25
    4  A    between atoms: C_22  and  C_23
    5  A    between atoms: C_22  and  C_24
    6  A    between atoms: C_23  and  C_25
                            x       y       z     vdW  Elec       q    Type
                         _______ _______ _______ _____ _____    ______ ____

>  <TORSDO>
F 6

$$$$
=
 OpenBabel11042417473D

 25 28  0  0  1  0  0  0  0  0999 V2000
  188.9180  175.7660  144.6420 C   0  0  1  0  0  3  0  0  0  0  0  0
  190.1370  175.8010  145.4500 N   0  0  0  0  0  2  0  0  0  0  0  0
  194.2500  176.5050  146.3070 C   0  0  0  0  0  3  0  0  0  0  0  0
  194.6140  174.2750  145.3450 C   0  0  0  0  0  3  0  0  0  0  0  0
  192.4710  173.1210  144.6960 C   0  0  0  0  0  2  0  0  0  0  0  0
  193.2430  173.8510  145.8000 C   0  0  2  0  0  3  0  0  0  0  0  0
  191.2200  174.8650  145.3620 C   0  0  0  0  0  0  0  0  0  0  0  0
  191.2050  173.8380  144.5850 N   0  0  0  0  0  0  0  0  0  0  0  0
  192.4090  175.0050  146.1110 N   0  0  0  0  0  0  0  0  0  0  0  0
  192.9540  176.2670  146.5110 C   0  0  0  0  0  3  0  0  0  0  0  0
  195.0870  175.4950  145.6270 C   0  0  0  0  0  3  0  0  0  0  0  0
  187.9020  176.9460  146.6410 C   0  0  0  0  0  3  0  0  0  0  0  0
  187.7830  176.4640  145.3290 C   0  0  0  0  0  0  0  0  0  0  0  0
  185.6080  177.7160  146.5770 C   0  0  0  0  0  0  0  0  0  0  0  0
  186.5680  176.6050  144.6510 C   0  0  0  0  0  3  0  0  0  0  0  0
  185.4820  177.2310  145.2720 C   0  0  0  0  0  3  0  0  0  0  0  0
  184.4550  178.3810  147.2370 C   0  0  0  0  0  1  0  0  0  0  0  0
  186.8180  177.5730  147.2620 C   0  0  0  0  0  3  0  0  0  0  0  0
  189.1500  176.2750  143.2190 C   0  0  0  0  0  2  0  0  0  0  0  0
  188.2840  175.5260  142.2200 C   0  0  2  0  0  3  0  0  0  0  0  0
  189.0780  174.4120  141.6270 C   0  0  0  0  0  0  0  0  0  0  0  0
  190.1680  173.9910  140.9640 N   0  0  0  0  0  0  0  0  0  0  0  0
  189.2450  173.0610  141.3870 N   0  0  0  0  0  2  0  0  0  0  0  0
  187.9110  177.9140  141.5970 C   0  0  0  0  0  1  0  0  0  0  0  0
  187.8120  176.4740  141.1280 C   0  0  0  0  0  2  0  0  0  0  0  0
  1 19  1  6  0  0  0
  1 13  1  0  0  0  0
  1  2  1  0  0  0  0
  3 10  2  0  0  0  0
  4 11  2  0  0  0  0
  4  6  1  0  0  0  0
  6  5  1  6  0  0  0
  6  9  1  0  0  0  0
  7  2  1  0  0  0  0
  7  9  1  0  0  0  0
  8  5  1  0  0  0  0
  8  7  2  0  0  0  0
  9 10  1  0  0  0  0
 11  3  1  0  0  0  0
 12 18  1  0  0  0  0
 13 12  2  0  0  0  0
 14 17  1  0  0  0  0
 14 18  2  0  0  0  0
 15 16  2  0  0  0  0
 15 13  1  0  0  0  0
 16 14  1  0  0  0  0
 20 25  1  6  0  0  0
 20 19  1  0  0  0  0
 21 20  1  0  0  0  0
 22 23  1  0  0  0  0
 22 21  2  0  0  0  0
 23 21  1  0  0  0  0
 25 24  1  0  0  0  0
M  END
>  <MODEL>
7

>  <REMARK>
 VINA RESULT:      -6.3      2.085      6.618
  Name = 
  6 active torsions:
  status: ('A' for Active; 'I' for Inactive)
    1  A    between atoms: C_1  and  C_22
    2  A    between atoms: N_2  and  C_25
    3  A    between atoms: C_9  and  C_25
    4  A    between atoms: C_22  and  C_23
    5  A    between atoms: C_22  and  C_24
    6  A    between atoms: C_23  and  C_25
                            x       y       z     vdW  Elec       q    Type
                         _______ _______ _______ _____ _____    ______ ____

>  <TORSDO>
F 6

$$$$
=
 OpenBabel11042417473D

 25 28  0  0  1  0  0  0  0  0999 V2000
  188.8630  176.1870  144.5750 C   0  0  1  0  0  3  0  0  0  0  0  0
  190.0560  176.1310  145.4190 N   0  0  0  0  0  2  0  0  0  0  0  0
  194.1670  176.6050  146.4280 C   0  0  0  0  0  3  0  0  0  0  0  0
  194.4610  174.4050  145.3770 C   0  0  0  0  0  3  0  0  0  0  0  0
  192.2900  173.3810  144.6140 C   0  0  0  0  0  2  0  0  0  0  0  0
  193.0580  174.0260  145.7710 C   0  0  2  0  0  3  0  0  0  0  0  0
  191.0980  175.1500  145.3210 C   0  0  0  0  0  0  0  0  0  0  0  0
  191.0610  174.1600  144.4990 N   0  0  0  0  0  0  0  0  0  0  0  0
  192.2680  175.2020  146.1110 N   0  0  0  0  0  0  0  0  0  0  0  0
  192.8560  176.4190  146.5830 C   0  0  0  0  0  3  0  0  0  0  0  0
  194.9790  175.5880  145.7270 C   0  0  0  0  0  3  0  0  0  0  0  0
  187.0270  177.9260  144.7400 C   0  0  0  0  0  3  0  0  0  0  0  0
  187.7140  176.8340  145.2900 C   0  0  0  0  0  0  0  0  0  0  0  0
  185.6080  178.0310  146.6990 C   0  0  0  0  0  0  0  0  0  0  0  0
  187.3470  176.3520  146.5500 C   0  0  0  0  0  3  0  0  0  0  0  0
  186.2950  176.9470  147.2540 C   0  0  0  0  0  3  0  0  0  0  0  0
  184.4910  178.6640  147.4460 C   0  0  0  0  0  1  0  0  0  0  0  0
  185.9740  178.5220  145.4430 C   0  0  0  0  0  3  0  0  0  0  0  0
  189.1450  176.8240  143.2140 C   0  0  0  0  0  2  0  0  0  0  0  0
  188.0810  176.4420  142.1980 C   0  0  2  0  0  3  0  0  0  0  0  0
  188.5430  175.2490  141.4350 C   0  0  0  0  0  0  0  0  0  0  0  0
  188.5670  174.5410  140.2920 N   0  0  0  0  0  0  0  0  0  0  0  0
  189.2840  174.0830  141.3740 N   0  0  0  0  0  2  0  0  0  0  0  0
  186.4110  177.5390  140.7030 C   0  0  0  0  0  1  0  0  0  0  0  0
  187.8240  177.6050  141.2520 C   0  0  0  0  0  2  0  0  0  0  0  0
  1 19  1  6  0  0  0
  1 13  1  0  0  0  0
  1  2  1  0  0  0  0
  3 10  2  0  0  0  0
  4 11  2  0  0  0  0
  4  6  1  0  0  0  0
  6  5  1  6  0  0  0
  6  9  1  0  0  0  0
  7  2  1  0  0  0  0
  7  9  1  0  0  0  0
  8  5  1  0  0  0  0
  8  7  2  0  0  0  0
  9 10  1  0  0  0  0
 11  3  1  0  0  0  0
 12 13  2  0  0  0  0
 12 18  1  0  0  0  0
 13 15  1  0  0  0  0
 14 16  1  0  0  0  0
 14 17  1  0  0  0  0
 15 16  2  0  0  0  0
 18 14  2  0  0  0  0
 20 25  1  6  0  0  0
 20 19  1  0  0  0  0
 21 20  1  0  0  0  0
 22 23  1  0  0  0  0
 22 21  2  0  0  0  0
 23 21  1  0  0  0  0
 24 25  1  0  0  0  0
M  END
>  <MODEL>
8

>  <REMARK>
 VINA RESULT:      -6.3      1.925      6.555
  Name = 
  6 active torsions:
  status: ('A' for Active; 'I' for Inactive)
    1  A    between atoms: C_1  and  C_22
    2  A    between atoms: N_2  and  C_25
    3  A    between atoms: C_9  and  C_25
    4  A    between atoms: C_22  and  C_23
    5  A    between atoms: C_22  and  C_24
    6  A    between atoms: C_23  and  C_25
                            x       y       z     vdW  Elec       q    Type
                         _______ _______ _______ _____ _____    ______ ____

>  <TORSDO>
F 6

$$$$
=
 OpenBabel11042417473D

 25 28  0  0  1  0  0  0  0  0999 V2000
  189.8400  175.3120  144.9570 C   0  0  1  0  0  3  0  0  0  0  0  0
  188.9540  176.2600  145.6320 N   0  0  0  0  0  2  0  0  0  0  0  0
  185.3010  177.7350  147.2520 C   0  0  0  0  0  3  0  0  0  0  0  0
  184.8410  178.5010  144.9650 C   0  0  0  0  0  3  0  0  0  0  0  0
  186.7480  178.0640  143.3780 C   0  0  0  0  0  2  0  0  0  0  0  0
  186.3170  178.6650  144.7200 C   0  0  2  0  0  3  0  0  0  0  0  0
  187.9880  177.1010  144.9860 C   0  0  0  0  0  0  0  0  0  0  0  0
  187.8390  177.1530  143.7080 N   0  0  0  0  0  0  0  0  0  0  0  0
  187.1020  177.9330  145.7050 N   0  0  0  0  0  0  0  0  0  0  0  0
  186.6080  177.6270  147.0140 C   0  0  0  0  0  3  0  0  0  0  0  0
  184.3800  178.1120  146.1600 C   0  0  0  0  0  3  0  0  0  0  0  0
  191.9660  176.0160  143.7710 C   0  0  0  0  0  3  0  0  0  0  0  0
  191.2610  175.7900  144.9630 C   0  0  0  0  0  0  0  0  0  0  0  0
  193.9330  176.6330  145.0410 C   0  0  0  0  0  0  0  0  0  0  0  0
  191.9040  175.9780  146.1900 C   0  0  0  0  0  3  0  0  0  0  0  0
  193.2370  176.4010  146.2310 C   0  0  0  0  0  3  0  0  0  0  0  0
  195.3490  177.0810  145.0840 C   0  0  0  0  0  1  0  0  0  0  0  0
  193.2990  176.4400  143.8110 C   0  0  0  0  0  3  0  0  0  0  0  0
  189.6920  173.8910  145.5000 C   0  0  0  0  0  2  0  0  0  0  0  0
  189.7010  172.8700  144.3750 C   0  0  2  0  0  3  0  0  0  0  0  0
  191.0620  172.2730  144.2700 C   0  0  0  0  0  0  0  0  0  0  0  0
  192.3970  172.4260  144.2540 N   0  0  0  0  0  0  0  0  0  0  0  0
  191.8720  171.1590  144.1480 N   0  0  0  0  0  2  0  0  0  0  0  0
  188.3640  172.6560  142.2780 C   0  0  0  0  0  1  0  0  0  0  0  0
  189.3170  173.5380  143.0640 C   0  0  0  0  0  2  0  0  0  0  0  0
  1 13  1  0  0  0  0
  1 19  1  1  0  0  0
  1  2  1  0  0  0  0
  4 11  2  0  0  0  0
  5  8  1  0  0  0  0
  6  5  1  6  0  0  0
  6  4  1  0  0  0  0
  6  9  1  0  0  0  0
  7  2  1  0  0  0  0
  7  9  1  0  0  0  0
  8  7  2  0  0  0  0
  9 10  1  0  0  0  0
 10  3  2  0  0  0  0
 11  3  1  0  0  0  0
 12 18  2  0  0  0  0
 12 13  1  0  0  0  0
 13 15  2  0  0  0  0
 14 17  1  0  0  0  0
 14 16  2  0  0  0  0
 15 16  1  0  0  0  0
 18 14  1  0  0  0  0
 20 25  1  6  0  0  0
 20 19  1  0  0  0  0
 21 20  1  0  0  0  0
 22 21  2  0  0  0  0
 23 22  1  0  0  0  0
 23 21  1  0  0  0  0
 24 25  1  0  0  0  0
M  END
>  <MODEL>
9

>  <REMARK>
 VINA RESULT:      -6.1      1.979      2.319
  Name = 
  6 active torsions:
  status: ('A' for Active; 'I' for Inactive)
    1  A    between atoms: C_1  and  C_22
    2  A    between atoms: N_2  and  C_25
    3  A    between atoms: C_9  and  C_25
    4  A    between atoms: C_22  and  C_23
    5  A    between atoms: C_22  and  C_24
    6  A    between atoms: C_23  and  C_25
                            x       y       z     vdW  Elec       q    Type
                         _______ _______ _______ _____ _____    ______ ____

>  <TORSDO>
F 6

$$$$
