=
 OpenBabel11042419353D

 32 36  0  0  1  0  0  0  0  0999 V2000
  195.0760  176.6040  140.9440 O   0  0  0  0  0  1  0  0  0  0  0  0
  190.4090  175.2900  143.8230 N   0  0  0  0  0  0  0  0  0  0  0  0
  189.0430  177.0370  144.8670 C   0  0  0  0  0  0  0  0  0  0  0  0
  192.5030  174.8790  146.8810 C   0  0  0  0  0  2  0  0  0  0  0  0
  194.5400  175.9370  142.0500 C   0  0  2  0  0  0  0  0  0  0  0  0
  195.1380  176.2280  143.3440 C   0  0  2  0  0  3  0  0  0  0  0  0
  192.7690  175.6670  143.8260 C   0  0  0  0  0  0  0  0  0  0  0  0
  191.6170  175.5930  144.5210 C   0  0  0  0  0  0  0  0  0  0  0  0
  195.4270  174.9350  142.6760 N   0  0  0  0  0  0  0  0  0  0  0  0
  194.5500  175.0930  145.5180 C   0  0  0  0  0  0  0  0  0  0  0  0
  197.0720  175.0520  142.0960 Cl  0  0  0  0  0  0  0  0  0  0  0  0
  190.7140  176.4380  146.6050 N   0  0  0  0  0  0  0  0  0  0  0  0
  189.2520  175.8460  144.0100 C   0  0  0  0  0  0  0  0  0  0  0  0
  193.5980  174.1240  146.1390 C   0  0  0  0  0  2  0  0  0  0  0  0
  191.5800  175.6870  146.0010 C   0  0  0  0  0  0  0  0  0  0  0  0
  189.6960  177.2600  146.0200 C   0  0  0  0  0  3  0  0  0  0  0  0
  194.0870  176.0500  144.4460 C   0  0  1  0  0  3  0  0  0  0  0  0
  192.7900  175.4750  142.0480 S   0  0  0  0  0  0  0  0  0  0  0  0
  195.6900  175.1580  145.9440 O   0  0  0  0  0  0  0  0  0  0  0  0
  188.1300  175.4080  143.1270 C   0  0  0  0  0  2  0  0  0  0  0  0
  188.3610  175.8400  141.8200 O   0  0  0  0  0  0  0  0  0  0  0  0
  187.1060  176.2280  141.3470 C   0  0  0  0  0  2  0  0  0  0  0  0
  185.9930  178.2600  140.8220 O   0  0  0  0  0  1  0  0  0  0  0  0
  187.2050  177.5870  140.6840 C   0  0  0  0  0  3  0  0  0  0  0  0
  188.2190  178.3320  141.2880 O   0  0  0  0  0  1  0  0  0  0  0  0
  188.0630  177.9500  144.4470 O   0  0  0  0  0  0  0  0  0  0  0  0
  186.6620  177.7530  144.6140 C   0  0  1  0  0  3  0  0  0  0  0  0
  186.3770  177.2630  146.0310 C   0  0  0  0  0  2  0  0  0  0  0  0
  184.3560  178.6990  146.2130 C   0  0  0  0  0  2  0  0  0  0  0  0
  185.9130  179.0250  144.2890 C   0  0  0  0  0  3  0  0  0  0  0  0
  184.8740  177.2640  146.2750 C   0  0  0  0  0  2  0  0  0  0  0  0
  184.8400  179.4270  144.9860 C   0  0  0  0  0  3  0  0  0  0  0  0
  2 13  2  0  0  0  0
  2  8  1  0  0  0  0
  3 16  2  0  0  0  0
  5  1  1  6  0  0  0
  5  9  1  0  0  0  0
  5  6  1  0  0  0  0
  6  9  1  1  0  0  0
  6 17  1  0  0  0  0
  7  8  2  0  0  0  0
  8 15  1  0  0  0  0
 10 19  2  0  0  0  0
 10 14  1  0  0  0  0
 11  9  1  0  0  0  0
 13  3  1  0  0  0  0
 14  4  1  0  0  0  0
 15 12  2  0  0  0  0
 15  4  1  0  0  0  0
 16 12  1  0  0  0  0
 17  7  1  6  0  0  0
 17 10  1  0  0  0  0
 18  5  1  0  0  0  0
 18  7  1  0  0  0  0
 20 13  1  0  0  0  0
 21 20  1  0  0  0  0
 22 21  1  0  0  0  0
 24 23  1  0  0  0  0
 24 25  1  0  0  0  0
 24 22  1  0  0  0  0
 26  3  1  0  0  0  0
 27 26  1  1  0  0  0
 27 28  1  0  0  0  0
 28 31  1  0  0  0  0
 29 31  1  0  0  0  0
 30 27  1  0  0  0  0
 30 32  2  0  0  0  0
 32 29  1  0  0  0  0
M  END
>  <MODEL>
1

>  <REMARK>
 VINA RESULT:      -7.7      0.000      0.000
  Name = 
  6 active torsions:
  status: ('A' for Active; 'I' for Inactive)
    1  A    between atoms: C_2  and  O_28
    2  A    between atoms: C_3  and  O_14
    3  A    between atoms: C_3  and  C_23
    4  A    between atoms: C_5  and  O_28
    5  A    between atoms: O_14  and  C_16
    6  A    between atoms: C_16  and  C_24
                            x       y       z     vdW  Elec       q    Type
                         _______ _______ _______ _____ _____    ______ ____

>  <TORSDO>
F 6

$$$$
=
 OpenBabel11042419353D

 32 36  0  0  1  0  0  0  0  0999 V2000
  186.9740  176.9390  140.0910 O   0  0  0  0  0  1  0  0  0  0  0  0
  190.0770  177.1920  144.7920 N   0  0  0  0  0  0  0  0  0  0  0  0
  190.7030  175.1500  145.9960 C   0  0  0  0  0  0  0  0  0  0  0  0
  186.9310  177.5730  146.7570 C   0  0  0  0  0  2  0  0  0  0  0  0
  187.0480  177.3880  141.4130 C   0  0  2  0  0  0  0  0  0  0  0  0
  185.9340  177.0490  142.2850 C   0  0  2  0  0  3  0  0  0  0  0  0
  187.9150  177.1830  143.7730 C   0  0  2  0  0  3  0  0  0  0  0  0
  188.6640  177.0010  144.8780 C   0  0  0  0  0  0  0  0  0  0  0  0
  186.0760  178.4370  141.7810 N   0  0  0  0  0  0  0  0  0  0  0  0
  185.6450  177.8290  144.6650 C   0  0  0  0  0  0  0  0  0  0  0  0
  184.8310  178.6390  140.5720 Cl  0  0  0  0  0  0  0  0  0  0  0  0
  188.5150  175.7990  146.9780 N   0  0  0  0  0  0  0  0  0  0  0  0
  190.9880  176.4480  145.3380 C   0  0  1  0  0  3  0  0  0  0  0  0
  186.3280  178.5650  145.7710 C   0  0  0  0  0  2  0  0  0  0  0  0
  188.0600  176.7370  146.2070 C   0  0  0  0  0  0  0  0  0  0  0  0
  189.6050  174.9020  146.7290 C   0  0  0  0  0  3  0  0  0  0  0  0
  186.4290  176.9390  143.7310 C   0  0  1  0  0  3  0  0  0  0  0  0
  188.6680  177.5740  142.1990 S   0  0  0  0  0  0  0  0  0  0  0  0
  184.4320  177.8920  144.5730 O   0  0  0  0  0  0  0  0  0  0  0  0
  192.4130  176.8050  145.0740 C   0  0  0  0  0  2  0  0  0  0  0  0
  193.1310  176.8020  146.2710 O   0  0  0  0  0  0  0  0  0  0  0  0
  194.4480  177.0750  145.8970 C   0  0  0  0  0  2  0  0  0  0  0  0
  195.9290  176.3930  144.1700 O   0  0  0  0  0  1  0  0  0  0  0  0
  195.0050  175.9150  145.0960 C   0  0  0  0  0  3  0  0  0  0  0  0
  195.6340  175.0100  145.9520 O   0  0  0  0  0  1  0  0  0  0  0  0
  191.6800  174.1510  145.8650 O   0  0  0  0  0  0  0  0  0  0  0  0
  191.9970  173.4970  144.6410 C   0  0  1  0  0  3  0  0  0  0  0  0
  193.1850  172.5610  144.8500 C   0  0  0  0  0  2  0  0  0  0  0  0
  192.1640  170.8040  143.4190 C   0  0  0  0  0  2  0  0  0  0  0  0
  190.7850  172.7680  144.1080 C   0  0  0  0  0  3  0  0  0  0  0  0
  193.3820  171.7050  143.6070 C   0  0  0  0  0  2  0  0  0  0  0  0
  190.8690  171.5690  143.5110 C   0  0  0  0  0  3  0  0  0  0  0  0
  2  8  2  0  0  0  0
  2 13  1  0  0  0  0
  3 16  2  0  0  0  0
  5  1  1  6  0  0  0
  5  9  1  0  0  0  0
  5 18  1  0  0  0  0
  5  6  1  0  0  0  0
  6  9  1  1  0  0  0
  6 17  1  0  0  0  0
  7 18  1  6  0  0  0
  7  8  1  0  0  0  0
  8 15  1  0  0  0  0
 10 14  1  0  0  0  0
 11  9  1  0  0  0  0
 13 20  1  6  0  0  0
 13  3  1  0  0  0  0
 14  4  1  0  0  0  0
 15  4  1  0  0  0  0
 15 12  2  0  0  0  0
 16 12  1  0  0  0  0
 17  7  1  0  0  0  0
 17 10  1  1  0  0  0
 19 10  2  0  0  0  0
 20 21  1  0  0  0  0
 22 21  1  0  0  0  0
 23 24  1  0  0  0  0
 24 22  1  0  0  0  0
 24 25  1  0  0  0  0
 26  3  1  0  0  0  0
 27 28  1  0  0  0  0
 27 26  1  1  0  0  0
 29 32  1  0  0  0  0
 29 31  1  0  0  0  0
 30 27  1  0  0  0  0
 31 28  1  0  0  0  0
 32 30  2  0  0  0  0
M  END
>  <MODEL>
2

>  <REMARK>
 VINA RESULT:      -7.6      3.416      7.806
  Name = 
  6 active torsions:
  status: ('A' for Active; 'I' for Inactive)
    1  A    between atoms: C_2  and  O_28
    2  A    between atoms: C_3  and  O_14
    3  A    between atoms: C_3  and  C_23
    4  A    between atoms: C_5  and  O_28
    5  A    between atoms: O_14  and  C_16
    6  A    between atoms: C_16  and  C_24
                            x       y       z     vdW  Elec       q    Type
                         _______ _______ _______ _____ _____    ______ ____

>  <TORSDO>
F 6

$$$$
=
 OpenBabel11042419353D

 32 36  0  0  1  0  0  0  0  0999 V2000
  196.1080  176.8380  144.1810 O   0  0  0  0  0  1  0  0  0  0  0  0
  190.7190  175.5710  143.1080 N   0  0  0  0  0  0  0  0  0  0  0  0
  188.9640  176.0560  144.7490 C   0  0  0  0  0  0  0  0  0  0  0  0
  191.3180  172.1720  144.5180 C   0  0  0  0  0  2  0  0  0  0  0  0
  195.1800  175.8240  143.9270 C   0  0  2  0  0  0  0  0  0  0  0  0
  195.1520  174.7100  144.8630 C   0  0  2  0  0  3  0  0  0  0  0  0
  192.8320  174.9030  144.0040 C   0  0  0  0  0  0  0  0  0  0  0  0
  191.4980  174.7230  143.9530 C   0  0  0  0  0  0  0  0  0  0  0  0
  195.7550  174.5260  143.5190 N   0  0  0  0  0  0  0  0  0  0  0  0
  193.7400  172.6340  144.6290 C   0  0  0  0  0  0  0  0  0  0  0  0
  197.4830  174.4590  143.7740 Cl  0  0  0  0  0  0  0  0  0  0  0  0
  189.7540  173.7770  145.3450 N   0  0  0  0  0  0  0  0  0  0  0  0
  189.5710  176.1000  143.3970 C   0  0  0  0  0  0  0  0  0  0  0  0
  192.6570  172.0140  143.8090 C   0  0  0  0  0  2  0  0  0  0  0  0
  190.8270  173.5930  144.6410 C   0  0  0  0  0  0  0  0  0  0  0  0
  189.0500  175.0030  145.5800 C   0  0  0  0  0  3  0  0  0  0  0  0
  193.7400  174.1170  144.9130 C   0  0  1  0  0  3  0  0  0  0  0  0
  193.6210  176.2320  143.1030 S   0  0  0  0  0  0  0  0  0  0  0  0
  194.5840  171.9160  145.1360 O   0  0  0  0  0  0  0  0  0  0  0  0
  188.9550  177.0010  142.3790 C   0  0  0  0  0  2  0  0  0  0  0  0
  188.3340  176.2390  141.3880 O   0  0  0  0  0  0  0  0  0  0  0  0
  186.9780  176.5560  141.4930 C   0  0  0  0  0  2  0  0  0  0  0  0
  186.5400  177.3050  139.2820 O   0  0  0  0  0  1  0  0  0  0  0  0
  186.6570  177.7380  140.6000 C   0  0  0  0  0  3  0  0  0  0  0  0
  185.4570  178.3220  141.0050 O   0  0  0  0  0  1  0  0  0  0  0  0
  188.2200  177.1790  145.1420 O   0  0  0  0  0  0  0  0  0  0  0  0
  186.7970  177.2430  145.1250 C   0  0  1  0  0  3  0  0  0  0  0  0
  186.2540  176.9910  146.5290 C   0  0  0  0  0  2  0  0  0  0  0  0
  184.5240  178.7560  146.2690 C   0  0  0  0  0  2  0  0  0  0  0  0
  186.3390  178.5700  144.5660 C   0  0  0  0  0  3  0  0  0  0  0  0
  184.7590  177.2750  146.5530 C   0  0  0  0  0  2  0  0  0  0  0  0
  185.2800  179.2310  145.0550 C   0  0  0  0  0  3  0  0  0  0  0  0
  2 13  2  0  0  0  0
  2  8  1  0  0  0  0
  3 26  1  0  0  0  0
  3 16  2  0  0  0  0
  4 15  1  0  0  0  0
  5  1  1  1  0  0  0
  5  6  1  0  0  0  0
  6  9  1  6  0  0  0
  6 17  1  0  0  0  0
  8  7  2  0  0  0  0
  8 15  1  0  0  0  0
  9 11  1  0  0  0  0
  9  5  1  0  0  0  0
 10 17  1  0  0  0  0
 10 19  2  0  0  0  0
 12 16  1  0  0  0  0
 13  3  1  0  0  0  0
 14  4  1  0  0  0  0
 14 10  1  0  0  0  0
 15 12  2  0  0  0  0
 17  7  1  6  0  0  0
 18  5  1  0  0  0  0
 18  7  1  0  0  0  0
 20 13  1  0  0  0  0
 21 22  1  0  0  0  0
 21 20  1  0  0  0  0
 23 24  1  0  0  0  0
 24 25  1  0  0  0  0
 24 22  1  0  0  0  0
 27 26  1  1  0  0  0
 27 28  1  0  0  0  0
 28 31  1  0  0  0  0
 29 31  1  0  0  0  0
 30 32  2  0  0  0  0
 30 27  1  0  0  0  0
 32 29  1  0  0  0  0
M  END
>  <MODEL>
3

>  <REMARK>
 VINA RESULT:      -7.5      1.609      1.941
  Name = 
  6 active torsions:
  status: ('A' for Active; 'I' for Inactive)
    1  A    between atoms: C_2  and  O_28
    2  A    between atoms: C_3  and  O_14
    3  A    between atoms: C_3  and  C_23
    4  A    between atoms: C_5  and  O_28
    5  A    between atoms: O_14  and  C_16
    6  A    between atoms: C_16  and  C_24
                            x       y       z     vdW  Elec       q    Type
                         _______ _______ _______ _____ _____    ______ ____

>  <TORSDO>
F 6

$$$$
=
 OpenBabel11042419353D

 32 36  0  0  1  0  0  0  0  0999 V2000
  195.3480  176.6930  141.1210 O   0  0  0  0  0  1  0  0  0  0  0  0
  190.4810  175.3350  143.6240 N   0  0  0  0  0  0  0  0  0  0  0  0
  189.0240  177.0680  144.5630 C   0  0  0  0  0  0  0  0  0  0  0  0
  192.3330  174.9310  146.8350 C   0  0  0  0  0  2  0  0  0  0  0  0
  194.7330  176.0180  142.1800 C   0  0  2  0  0  0  0  0  0  0  0  0
  195.2250  176.3100  143.5180 C   0  0  2  0  0  3  0  0  0  0  0  0
  192.8310  175.7290  143.8120 C   0  0  0  0  0  0  0  0  0  0  0  0
  191.6290  175.6450  144.4150 C   0  0  0  0  0  0  0  0  0  0  0  0
  195.5760  175.0220  142.8710 N   0  0  0  0  0  0  0  0  0  0  0  0
  194.4790  175.1650  145.6370 C   0  0  0  0  0  0  0  0  0  0  0  0
  197.2600  175.1530  142.4210 Cl  0  0  0  0  0  0  0  0  0  0  0  0
  190.5600  176.4770  146.4250 N   0  0  0  0  0  0  0  0  0  0  0  0
  189.3090  175.8810  143.7220 C   0  0  0  0  0  0  0  0  0  0  0  0
  193.4890  174.1870  146.1790 C   0  0  0  0  0  2  0  0  0  0  0  0
  191.4760  175.7340  145.8880 C   0  0  0  0  0  0  0  0  0  0  0  0
  189.5840  177.2930  145.7640 C   0  0  0  0  0  3  0  0  0  0  0  0
  194.0930  176.1210  144.5340 C   0  0  1  0  0  3  0  0  0  0  0  0
  192.9920  175.5430  142.0400 S   0  0  0  0  0  0  0  0  0  0  0  0
  195.5820  175.2370  146.1500 O   0  0  0  0  0  0  0  0  0  0  0  0
  188.2630  175.4380  142.7540 C   0  0  0  0  0  2  0  0  0  0  0  0
  188.8630  174.7840  141.6760 O   0  0  0  0  0  0  0  0  0  0  0  0
  188.1680  173.5790  141.5580 C   0  0  0  0  0  2  0  0  0  0  0  0
  190.4080  172.8050  141.4060 O   0  0  0  0  0  1  0  0  0  0  0  0
  189.1190  172.4170  141.7630 C   0  0  0  0  0  3  0  0  0  0  0  0
  189.1070  172.0290  143.1030 O   0  0  0  0  0  1  0  0  0  0  0  0
  188.0730  177.9750  144.0700 O   0  0  0  0  0  0  0  0  0  0  0  0
  186.6660  177.8260  144.2340 C   0  0  1  0  0  3  0  0  0  0  0  0
  186.3550  177.4380  145.6770 C   0  0  0  0  0  2  0  0  0  0  0  0
  184.3710  178.9350  145.7430 C   0  0  0  0  0  2  0  0  0  0  0  0
  185.9540  179.0940  143.8190 C   0  0  0  0  0  3  0  0  0  0  0  0
  184.8500  177.4940  145.9040 C   0  0  0  0  0  2  0  0  0  0  0  0
  184.8850  179.5680  144.4760 C   0  0  0  0  0  3  0  0  0  0  0  0
  2 13  2  0  0  0  0
  2  8  1  0  0  0  0
  3 16  2  0  0  0  0
  5  1  1  6  0  0  0
  5  9  1  0  0  0  0
  5  6  1  0  0  0  0
  6  9  1  1  0  0  0
  6 17  1  0  0  0  0
  7  8  2  0  0  0  0
  8 15  1  0  0  0  0
 10 19  2  0  0  0  0
 10 14  1  0  0  0  0
 11  9  1  0  0  0  0
 13  3  1  0  0  0  0
 14  4  1  0  0  0  0
 15 12  2  0  0  0  0
 15  4  1  0  0  0  0
 16 12  1  0  0  0  0
 17  7  1  6  0  0  0
 17 10  1  0  0  0  0
 18  5  1  0  0  0  0
 18  7  1  0  0  0  0
 20 13  1  0  0  0  0
 21 20  1  0  0  0  0
 22 21  1  0  0  0  0
 22 24  1  0  0  0  0
 23 24  1  0  0  0  0
 24 25  1  0  0  0  0
 26  3  1  0  0  0  0
 27 26  1  1  0  0  0
 27 28  1  0  0  0  0
 28 31  1  0  0  0  0
 29 31  1  0  0  0  0
 30 27  1  0  0  0  0
 30 32  2  0  0  0  0
 32 29  1  0  0  0  0
M  END
>  <MODEL>
4

>  <REMARK>
 VINA RESULT:      -7.5      1.274      2.070
  Name = 
  6 active torsions:
  status: ('A' for Active; 'I' for Inactive)
    1  A    between atoms: C_2  and  O_28
    2  A    between atoms: C_3  and  O_14
    3  A    between atoms: C_3  and  C_23
    4  A    between atoms: C_5  and  O_28
    5  A    between atoms: O_14  and  C_16
    6  A    between atoms: C_16  and  C_24
                            x       y       z     vdW  Elec       q    Type
                         _______ _______ _______ _____ _____    ______ ____

>  <TORSDO>
F 6

$$$$
=
 OpenBabel11042419353D

 32 36  0  0  1  0  0  0  0  0999 V2000
  194.6360  175.3920  138.9260 O   0  0  0  0  0  1  0  0  0  0  0  0
  191.6550  174.6110  143.6480 N   0  0  0  0  0  0  0  0  0  0  0  0
  190.0280  176.2850  144.3980 C   0  0  0  0  0  0  0  0  0  0  0  0
  194.4210  176.2110  145.5680 C   0  0  0  0  0  2  0  0  0  0  0  0
  194.6760  175.2390  140.3150 C   0  0  2  0  0  0  0  0  0  0  0  0
  195.4140  176.2440  141.0650 C   0  0  2  0  0  3  0  0  0  0  0  0
  193.6240  175.4650  142.5970 C   0  0  2  0  0  3  0  0  0  0  0  0
  192.7900  175.4780  143.6550 C   0  0  0  0  0  0  0  0  0  0  0  0
  195.9980  174.8930  140.8770 N   0  0  0  0  0  0  0  0  0  0  0  0
  195.8420  176.1980  143.5500 C   0  0  0  0  0  0  0  0  0  0  0  0
  197.2840  175.0840  139.7090 Cl  0  0  0  0  0  0  0  0  0  0  0  0
  192.1680  176.9930  145.4410 N   0  0  0  0  0  0  0  0  0  0  0  0
  190.4560  174.9110  144.0430 C   0  0  1  0  0  3  0  0  0  0  0  0
  195.5060  175.4620  144.8050 C   0  0  0  0  0  2  0  0  0  0  0  0
  193.0800  176.2620  144.8800 C   0  0  0  0  0  0  0  0  0  0  0  0
  190.8070  177.1770  145.0320 C   0  0  0  0  0  3  0  0  0  0  0  0
  194.8080  176.3870  142.4650 C   0  0  1  0  0  3  0  0  0  0  0  0
  193.2850  174.4510  141.1630 S   0  0  0  0  0  0  0  0  0  0  0  0
  196.9400  176.7160  143.4430 O   0  0  0  0  0  0  0  0  0  0  0  0
  189.4040  173.8610  143.8980 C   0  0  0  0  0  2  0  0  0  0  0  0
  189.4170  173.3550  142.5970 O   0  0  0  0  0  0  0  0  0  0  0  0
  188.2420  173.8370  142.0160 C   0  0  0  0  0  2  0  0  0  0  0  0
  188.3560  174.1690  139.6670 O   0  0  0  0  0  1  0  0  0  0  0  0
  188.5820  174.7940  140.8910 C   0  0  0  0  0  3  0  0  0  0  0  0
  187.7820  175.9330  140.9840 O   0  0  0  0  0  1  0  0  0  0  0  0
  188.7060  176.6340  144.0790 O   0  0  0  0  0  0  0  0  0  0  0  0
  187.8940  177.4970  144.8690 C   0  0  1  0  0  3  0  0  0  0  0  0
  186.8830  178.2110  143.9750 C   0  0  0  0  0  2  0  0  0  0  0  0
  185.0790  177.9560  145.6650 C   0  0  0  0  0  2  0  0  0  0  0  0
  187.2240  176.7170  145.9770 C   0  0  0  0  0  3  0  0  0  0  0  0
  185.8800  178.9600  144.8410 C   0  0  0  0  0  2  0  0  0  0  0  0
  185.9640  176.9590  146.3680 C   0  0  0  0  0  3  0  0  0  0  0  0
  2  8  2  0  0  0  0
  2 13  1  0  0  0  0
  3 16  2  0  0  0  0
  5  1  1  6  0  0  0
  5  9  1  0  0  0  0
  5  6  1  0  0  0  0
  5 18  1  0  0  0  0
  6  9  1  1  0  0  0
  6 17  1  0  0  0  0
  7 18  1  6  0  0  0
  7  8  1  0  0  0  0
  8 15  1  0  0  0  0
 10 14  1  0  0  0  0
 11  9  1  0  0  0  0
 13 20  1  6  0  0  0
 13  3  1  0  0  0  0
 14  4  1  0  0  0  0
 15 12  2  0  0  0  0
 15  4  1  0  0  0  0
 16 12  1  0  0  0  0
 17  7  1  0  0  0  0
 17 10  1  1  0  0  0
 19 10  2  0  0  0  0
 21 20  1  0  0  0  0
 22 21  1  0  0  0  0
 23 24  1  0  0  0  0
 24 25  1  0  0  0  0
 24 22  1  0  0  0  0
 26  3  1  0  0  0  0
 27 26  1  6  0  0  0
 27 30  1  0  0  0  0
 28 31  1  0  0  0  0
 28 27  1  0  0  0  0
 29 32  1  0  0  0  0
 30 32  2  0  0  0  0
 31 29  1  0  0  0  0
M  END
>  <MODEL>
5

>  <REMARK>
 VINA RESULT:      -7.4      1.765      2.355
  Name = 
  6 active torsions:
  status: ('A' for Active; 'I' for Inactive)
    1  A    between atoms: C_2  and  O_28
    2  A    between atoms: C_3  and  O_14
    3  A    between atoms: C_3  and  C_23
    4  A    between atoms: C_5  and  O_28
    5  A    between atoms: O_14  and  C_16
    6  A    between atoms: C_16  and  C_24
                            x       y       z     vdW  Elec       q    Type
                         _______ _______ _______ _____ _____    ______ ____

>  <TORSDO>
F 6

$$$$
=
 OpenBabel11042419353D

 32 36  0  0  1  0  0  0  0  0999 V2000
  185.6320  178.5400  141.9720 O   0  0  0  0  0  1  0  0  0  0  0  0
  190.4210  175.9610  143.4580 N   0  0  0  0  0  0  0  0  0  0  0  0
  190.7050  173.5490  143.1260 C   0  0  0  0  0  0  0  0  0  0  0  0
  189.0140  175.4840  146.8770 C   0  0  0  0  0  2  0  0  0  0  0  0
  186.4930  178.1980  143.0200 C   0  0  2  0  0  0  0  0  0  0  0  0
  185.8960  177.5370  144.1700 C   0  0  2  0  0  3  0  0  0  0  0  0
  188.2230  176.6830  144.0560 C   0  0  0  0  0  0  0  0  0  0  0  0
  189.2720  175.8720  144.3000 C   0  0  0  0  0  0  0  0  0  0  0  0
  186.3020  178.9600  144.2700 N   0  0  0  0  0  0  0  0  0  0  0  0
  187.1000  176.9330  146.3020 C   0  0  0  0  0  0  0  0  0  0  0  0
  184.8190  179.8850  144.2630 Cl  0  0  0  0  0  0  0  0  0  0  0  0
  189.6910  173.7470  145.3850 N   0  0  0  0  0  0  0  0  0  0  0  0
  191.1160  174.9680  142.9970 C   0  0  0  0  0  0  0  0  0  0  0  0
  188.4500  176.8980  146.9410 C   0  0  0  0  0  2  0  0  0  0  0  0
  189.3250  174.9860  145.4880 C   0  0  0  0  0  0  0  0  0  0  0  0
  190.0900  173.0370  144.2050 C   0  0  0  0  0  3  0  0  0  0  0  0
  186.9340  176.6240  144.8330 C   0  0  1  0  0  3  0  0  0  0  0  0
  188.2200  177.7960  142.6560 S   0  0  0  0  0  0  0  0  0  0  0  0
  186.1210  177.1360  146.9970 O   0  0  0  0  0  0  0  0  0  0  0  0
  192.2550  175.2910  142.0880 C   0  0  0  0  0  2  0  0  0  0  0  0
  193.0340  176.3060  142.6470 O   0  0  0  0  0  0  0  0  0  0  0  0
  194.0790  175.6390  143.2890 C   0  0  0  0  0  2  0  0  0  0  0  0
  193.3450  177.1650  144.9550 O   0  0  0  0  0  1  0  0  0  0  0  0
  194.0960  176.0090  144.7590 C   0  0  0  0  0  3  0  0  0  0  0  0
  193.5510  174.9690  145.5120 O   0  0  0  0  0  1  0  0  0  0  0  0
  191.0320  172.7000  142.0570 O   0  0  0  0  0  0  0  0  0  0  0  0
  190.0780  172.1350  141.1640 C   0  0  1  0  0  3  0  0  0  0  0  0
  189.2750  173.2480  140.4960 C   0  0  0  0  0  2  0  0  0  0  0  0
  189.3180  172.0810  138.3020 C   0  0  0  0  0  2  0  0  0  0  0  0
  190.7680  171.2460  140.1540 C   0  0  0  0  0  3  0  0  0  0  0  0
  188.4130  172.6580  139.3880 C   0  0  0  0  0  2  0  0  0  0  0  0
  190.3910  171.1880  138.8690 C   0  0  0  0  0  3  0  0  0  0  0  0
  2  8  1  0  0  0  0
  3 16  2  0  0  0  0
  4 14  1  0  0  0  0
  5  1  1  6  0  0  0
  5  6  1  0  0  0  0
  5  9  1  0  0  0  0
  6  9  1  1  0  0  0
  6 17  1  0  0  0  0
  7  8  2  0  0  0  0
  8 15  1  0  0  0  0
 10 14  1  0  0  0  0
 10 19  2  0  0  0  0
 11  9  1  0  0  0  0
 12 15  2  0  0  0  0
 13  3  1  0  0  0  0
 13  2  2  0  0  0  0
 15  4  1  0  0  0  0
 16 12  1  0  0  0  0
 17  7  1  6  0  0  0
 17 10  1  0  0  0  0
 18  5  1  0  0  0  0
 18  7  1  0  0  0  0
 20 21  1  0  0  0  0
 20 13  1  0  0  0  0
 21 22  1  0  0  0  0
 22 24  1  0  0  0  0
 24 23  1  0  0  0  0
 24 25  1  0  0  0  0
 26  3  1  0  0  0  0
 27 26  1  1  0  0  0
 28 27  1  0  0  0  0
 29 32  1  0  0  0  0
 29 31  1  0  0  0  0
 30 27  1  0  0  0  0
 31 28  1  0  0  0  0
 32 30  2  0  0  0  0
M  END
>  <MODEL>
6

>  <REMARK>
 VINA RESULT:      -7.4      3.908      7.489
  Name = 
  6 active torsions:
  status: ('A' for Active; 'I' for Inactive)
    1  A    between atoms: C_2  and  O_28
    2  A    between atoms: C_3  and  O_14
    3  A    between atoms: C_3  and  C_23
    4  A    between atoms: C_5  and  O_28
    5  A    between atoms: O_14  and  C_16
    6  A    between atoms: C_16  and  C_24
                            x       y       z     vdW  Elec       q    Type
                         _______ _______ _______ _____ _____    ______ ____

>  <TORSDO>
F 6

$$$$
=
 OpenBabel11042419353D

 32 36  0  0  1  0  0  0  0  0999 V2000
  185.9290  178.0110  148.1330 O   0  0  0  0  0  1  0  0  0  0  0  0
  189.7970  175.6200  144.7990 N   0  0  0  0  0  0  0  0  0  0  0  0
  192.0170  176.6240  144.5300 C   0  0  0  0  0  0  0  0  0  0  0  0
  188.4040  177.5480  141.9280 C   0  0  0  0  0  2  0  0  0  0  0  0
  186.2670  177.6310  146.8300 C   0  0  2  0  0  0  0  0  0  0  0  0
  186.1520  178.6500  145.7990 C   0  0  2  0  0  3  0  0  0  0  0  0
  187.9790  177.1530  145.0400 C   0  0  2  0  0  3  0  0  0  0  0  0
  189.0540  176.7480  144.3360 C   0  0  0  0  0  0  0  0  0  0  0  0
  185.1420  177.5660  145.8770 N   0  0  0  0  0  0  0  0  0  0  0  0
  186.5090  178.2830  143.3300 C   0  0  0  0  0  0  0  0  0  0  0  0
  183.6910  178.3050  146.5130 Cl  0  0  0  0  0  0  0  0  0  0  0  0
  190.6370  177.6940  142.7630 N   0  0  0  0  0  0  0  0  0  0  0  0
  191.0890  175.5050  144.8190 C   0  0  1  0  0  3  0  0  0  0  0  0
  186.9600  177.2720  142.3270 C   0  0  0  0  0  2  0  0  0  0  0  0
  189.4150  177.3510  143.0300 C   0  0  0  0  0  0  0  0  0  0  0  0
  191.7930  177.5680  143.6000 C   0  0  0  0  0  3  0  0  0  0  0  0
  187.1670  178.3710  144.6860 C   0  0  1  0  0  3  0  0  0  0  0  0
  187.5260  176.3550  146.5760 S   0  0  0  0  0  0  0  0  0  0  0  0
  185.6550  179.0920  143.0120 O   0  0  0  0  0  0  0  0  0  0  0  0
  191.6570  174.2510  145.3960 C   0  0  0  0  0  2  0  0  0  0  0  0
  191.9470  173.3480  144.3720 O   0  0  0  0  0  0  0  0  0  0  0  0
  190.9950  172.3360  144.5080 C   0  0  0  0  0  2  0  0  0  0  0  0
  188.9890  171.9160  143.3070 O   0  0  0  0  0  1  0  0  0  0  0  0
  190.3690  172.0360  143.1610 C   0  0  0  0  0  3  0  0  0  0  0  0
  190.6520  173.0720  142.2690 O   0  0  0  0  0  1  0  0  0  0  0  0
  193.2180  176.6490  145.2560 O   0  0  0  0  0  0  0  0  0  0  0  0
  194.4860  176.2830  144.7190 C   0  0  1  0  0  3  0  0  0  0  0  0
  195.1720  175.2890  145.6530 C   0  0  0  0  0  2  0  0  0  0  0  0
  196.0080  173.9390  143.7400 C   0  0  0  0  0  2  0  0  0  0  0  0
  194.3230  175.7330  143.3210 C   0  0  0  0  0  3  0  0  0  0  0  0
  196.4180  174.7350  144.9760 C   0  0  0  0  0  2  0  0  0  0  0  0
  195.0480  174.7020  142.8640 C   0  0  0  0  0  3  0  0  0  0  0  0
  2 13  1  0  0  0  0
  3 13  1  0  0  0  0
  3 26  1  0  0  0  0
  4 14  1  0  0  0  0
  4 15  1  0  0  0  0
  5  1  1  1  0  0  0
  6  9  1  6  0  0  0
  6  5  1  0  0  0  0
  7  8  1  1  0  0  0
  7 18  1  0  0  0  0
  8  2  2  0  0  0  0
  9 11  1  0  0  0  0
  9  5  1  0  0  0  0
 12 15  2  0  0  0  0
 12 16  1  0  0  0  0
 13 20  1  1  0  0  0
 14 10  1  0  0  0  0
 15  8  1  0  0  0  0
 16  3  2  0  0  0  0
 17 10  1  6  0  0  0
 17  7  1  0  0  0  0
 17  6  1  0  0  0  0
 18  5  1  0  0  0  0
 19 10  2  0  0  0  0
 21 22  1  0  0  0  0
 21 20  1  0  0  0  0
 24 23  1  0  0  0  0
 24 22  1  0  0  0  0
 25 24  1  0  0  0  0
 27 26  1  1  0  0  0
 27 28  1  0  0  0  0
 29 31  1  0  0  0  0
 30 27  1  0  0  0  0
 31 28  1  0  0  0  0
 32 30  2  0  0  0  0
 32 29  1  0  0  0  0
M  END
>  <MODEL>
7

>  <REMARK>
 VINA RESULT:      -7.4      3.741      8.076
  Name = 
  6 active torsions:
  status: ('A' for Active; 'I' for Inactive)
    1  A    between atoms: C_2  and  O_28
    2  A    between atoms: C_3  and  O_14
    3  A    between atoms: C_3  and  C_23
    4  A    between atoms: C_5  and  O_28
    5  A    between atoms: O_14  and  C_16
    6  A    between atoms: C_16  and  C_24
                            x       y       z     vdW  Elec       q    Type
                         _______ _______ _______ _____ _____    ______ ____

>  <TORSDO>
F 6

$$$$
=
 OpenBabel11042419353D

 32 36  0  0  1  0  0  0  0  0999 V2000
  186.5700  177.0630  140.3110 O   0  0  0  0  0  1  0  0  0  0  0  0
  190.5120  176.9930  144.3420 N   0  0  0  0  0  0  0  0  0  0  0  0
  191.4800  174.8790  145.1170 C   0  0  0  0  0  0  0  0  0  0  0  0
  187.7950  176.8670  146.8910 C   0  0  0  0  0  2  0  0  0  0  0  0
  186.8750  177.3510  141.6450 C   0  0  2  0  0  0  0  0  0  0  0  0
  185.9750  176.8150  142.6540 C   0  0  2  0  0  3  0  0  0  0  0  0
  188.1970  176.9300  143.7520 C   0  0  0  0  0  0  0  0  0  0  0  0
  189.1580  176.6760  144.6620 C   0  0  0  0  0  0  0  0  0  0  0  0
  185.9350  178.2620  142.3280 N   0  0  0  0  0  0  0  0  0  0  0  0
  186.1120  177.2700  145.1310 C   0  0  0  0  0  0  0  0  0  0  0  0
  184.4670  178.5070  141.4110 Cl  0  0  0  0  0  0  0  0  0  0  0  0
  189.4920  175.2180  146.5690 N   0  0  0  0  0  0  0  0  0  0  0  0
  191.5550  176.2660  144.6010 C   0  0  0  0  0  0  0  0  0  0  0  0
  186.9540  177.9190  146.1800 C   0  0  0  0  0  2  0  0  0  0  0  0
  188.8420  176.2020  146.0320 C   0  0  0  0  0  0  0  0  0  0  0  0
  190.5620  174.4510  146.0010 C   0  0  0  0  0  3  0  0  0  0  0  0
  186.7490  176.5700  143.9540 C   0  0  1  0  0  3  0  0  0  0  0  0
  188.6040  177.5720  142.1330 S   0  0  0  0  0  0  0  0  0  0  0  0
  184.9030  177.2430  145.2760 O   0  0  0  0  0  0  0  0  0  0  0  0
  192.8780  176.7700  144.1270 C   0  0  0  0  0  2  0  0  0  0  0  0
  192.8250  177.0170  142.7540 O   0  0  0  0  0  0  0  0  0  0  0  0
  193.4540  175.9150  142.1710 C   0  0  0  0  0  2  0  0  0  0  0  0
  195.4540  174.6500  142.3750 O   0  0  0  0  0  1  0  0  0  0  0  0
  194.9340  175.9360  142.5000 C   0  0  0  0  0  3  0  0  0  0  0  0
  195.6000  176.7910  141.6220 O   0  0  0  0  0  1  0  0  0  0  0  0
  192.4680  173.9880  144.6720 O   0  0  0  0  0  0  0  0  0  0  0  0
  193.3940  173.3250  145.5280 C   0  0  1  0  0  3  0  0  0  0  0  0
  193.7080  171.9390  144.9710 C   0  0  0  0  0  2  0  0  0  0  0  0
  196.1150  172.1580  145.5510 C   0  0  0  0  0  2  0  0  0  0  0  0
  194.6380  174.1650  145.7030 C   0  0  0  0  0  3  0  0  0  0  0  0
  194.8550  171.3230  145.7610 C   0  0  0  0  0  2  0  0  0  0  0  0
  195.8660  173.6290  145.7610 C   0  0  0  0  0  3  0  0  0  0  0  0
  2 13  2  0  0  0  0
  2  8  1  0  0  0  0
  3 16  2  0  0  0  0
  5  1  1  6  0  0  0
  5 18  1  0  0  0  0
  5  9  1  0  0  0  0
  5  6  1  0  0  0  0
  6  9  1  1  0  0  0
  6 17  1  0  0  0  0
  7  8  2  0  0  0  0
  8 15  1  0  0  0  0
 10 19  2  0  0  0  0
 10 14  1  0  0  0  0
 11  9  1  0  0  0  0
 13  3  1  0  0  0  0
 14  4  1  0  0  0  0
 15 12  2  0  0  0  0
 15  4  1  0  0  0  0
 16 12  1  0  0  0  0
 17  7  1  6  0  0  0
 17 10  1  0  0  0  0
 18  7  1  0  0  0  0
 20 13  1  0  0  0  0
 21 20  1  0  0  0  0
 22 24  1  0  0  0  0
 22 21  1  0  0  0  0
 23 24  1  0  0  0  0
 25 24  1  0  0  0  0
 26  3  1  0  0  0  0
 27 26  1  6  0  0  0
 27 30  1  0  0  0  0
 28 27  1  0  0  0  0
 28 31  1  0  0  0  0
 29 32  1  0  0  0  0
 29 31  1  0  0  0  0
 30 32  2  0  0  0  0
M  END
>  <MODEL>
8

>  <REMARK>
 VINA RESULT:      -7.3      3.192      7.892
  Name = 
  6 active torsions:
  status: ('A' for Active; 'I' for Inactive)
    1  A    between atoms: C_2  and  O_28
    2  A    between atoms: C_3  and  O_14
    3  A    between atoms: C_3  and  C_23
    4  A    between atoms: C_5  and  O_28
    5  A    between atoms: O_14  and  C_16
    6  A    between atoms: C_16  and  C_24
                            x       y       z     vdW  Elec       q    Type
                         _______ _______ _______ _____ _____    ______ ____

>  <TORSDO>
F 6

$$$$
=
 OpenBabel11042419353D

 32 36  0  0  1  0  0  0  0  0999 V2000
  192.2980  170.0640  143.8660 O   0  0  0  0  0  1  0  0  0  0  0  0
  190.4170  175.2810  142.8440 N   0  0  0  0  0  0  0  0  0  0  0  0
  188.1950  175.9870  143.6010 C   0  0  0  0  0  0  0  0  0  0  0  0
  189.0940  174.0810  139.5710 C   0  0  0  0  0  2  0  0  0  0  0  0
  191.9400  171.0020  142.8920 C   0  0  2  0  0  0  0  0  0  0  0  0
  190.9880  170.5670  141.8820 C   0  0  2  0  0  3  0  0  0  0  0  0
  190.6070  173.0060  142.1360 C   0  0  2  0  0  3  0  0  0  0  0  0
  189.9720  174.1910  142.0370 C   0  0  0  0  0  0  0  0  0  0  0  0
  192.4210  170.7130  141.5260 N   0  0  0  0  0  0  0  0  0  0  0  0
  190.2470  171.9210  139.8870 C   0  0  0  0  0  0  0  0  0  0  0  0
  193.0450  169.0870  141.3750 Cl  0  0  0  0  0  0  0  0  0  0  0  0
  187.8010  175.0180  141.3470 N   0  0  0  0  0  0  0  0  0  0  0  0
  189.6650  176.1310  143.4720 C   0  0  1  0  0  3  0  0  0  0  0  0
  190.3470  173.2720  139.2590 C   0  0  0  0  0  2  0  0  0  0  0  0
  188.9150  174.4370  141.0260 C   0  0  0  0  0  0  0  0  0  0  0  0
  187.3970  175.5050  142.6330 C   0  0  0  0  0  3  0  0  0  0  0  0
  190.1780  171.7710  141.3880 C   0  0  1  0  0  3  0  0  0  0  0  0
  191.9300  172.7620  143.3140 S   0  0  0  0  0  0  0  0  0  0  0  0
  190.1420  170.9410  139.1710 O   0  0  0  0  0  0  0  0  0  0  0  0
  190.3460  177.1660  144.3040 C   0  0  0  0  0  2  0  0  0  0  0  0
  191.2490  176.5540  145.1750 O   0  0  0  0  0  0  0  0  0  0  0  0
  190.6480  176.6460  146.4320 C   0  0  0  0  0  2  0  0  0  0  0  0
  191.1590  175.3960  148.3860 O   0  0  0  0  0  1  0  0  0  0  0  0
  190.6410  175.2840  147.0980 C   0  0  0  0  0  3  0  0  0  0  0  0
  189.3360  174.7990  147.1640 O   0  0  0  0  0  1  0  0  0  0  0  0
  187.6230  176.4310  144.8030 O   0  0  0  0  0  0  0  0  0  0  0  0
  186.3090  176.9700  144.9130 C   0  0  1  0  0  3  0  0  0  0  0  0
  185.7970  176.7870  146.3400 C   0  0  0  0  0  2  0  0  0  0  0  0
  184.7610  179.0470  146.3480 C   0  0  0  0  0  2  0  0  0  0  0  0
  186.3010  178.4190  144.4860 C   0  0  0  0  0  3  0  0  0  0  0  0
  184.4920  177.5530  146.5120 C   0  0  0  0  0  2  0  0  0  0  0  0
  185.5610  179.3490  145.1070 C   0  0  0  0  0  3  0  0  0  0  0  0
  2 13  1  0  0  0  0
  3 26  1  0  0  0  0
  4 15  1  0  0  0  0
  5 18  1  0  0  0  0
  5  1  1  1  0  0  0
  6  9  1  6  0  0  0
  6  5  1  0  0  0  0
  7  8  1  1  0  0  0
  7 18  1  0  0  0  0
  8  2  2  0  0  0  0
  9  5  1  0  0  0  0
 11  9  1  0  0  0  0
 12 16  1  0  0  0  0
 13  3  1  0  0  0  0
 13 20  1  1  0  0  0
 14  4  1  0  0  0  0
 14 10  1  0  0  0  0
 15 12  2  0  0  0  0
 15  8  1  0  0  0  0
 16  3  2  0  0  0  0
 17 10  1  6  0  0  0
 17  6  1  0  0  0  0
 17  7  1  0  0  0  0
 19 10  2  0  0  0  0
 20 21  1  0  0  0  0
 21 22  1  0  0  0  0
 22 24  1  0  0  0  0
 24 25  1  0  0  0  0
 24 23  1  0  0  0  0
 27 26  1  1  0  0  0
 27 28  1  0  0  0  0
 28 31  1  0  0  0  0
 29 31  1  0  0  0  0
 30 27  1  0  0  0  0
 30 32  2  0  0  0  0
 32 29  1  0  0  0  0
M  END
>  <MODEL>
9

>  <REMARK>
 VINA RESULT:      -7.2      3.602      5.445
  Name = 
  6 active torsions:
  status: ('A' for Active; 'I' for Inactive)
    1  A    between atoms: C_2  and  O_28
    2  A    between atoms: C_3  and  O_14
    3  A    between atoms: C_3  and  C_23
    4  A    between atoms: C_5  and  O_28
    5  A    between atoms: O_14  and  C_16
    6  A    between atoms: C_16  and  C_24
                            x       y       z     vdW  Elec       q    Type
                         _______ _______ _______ _____ _____    ______ ____

>  <TORSDO>
F 6

$$$$
