=
 OpenBabel11042417593D

 36 41  0  0  1  0  0  0  0  0999 V2000
  186.5750  177.9110  144.2650 C   0  0  0  0  0  0  0  0  0  0  0  0
  189.1670  173.0850  140.9710 C   0  0  0  0  0  3  0  0  0  0  0  0
  186.8670  177.4820  145.5470 C   0  0  0  0  0  0  0  0  0  0  0  0
  187.5560  176.2410  142.7540 C   0  0  0  0  0  0  0  0  0  0  0  0
  186.2440  178.3410  146.5170 C   0  0  0  0  0  0  0  0  0  0  0  0
  185.5940  179.2430  144.3990 S   0  0  0  0  0  0  0  0  0  0  0  0
  187.4670  175.8930  141.3910 O   0  0  0  0  0  0  0  0  0  0  0  0
  190.4050  174.0240  145.0310 C   0  0  0  0  0  3  0  0  0  0  0  0
  185.5050  179.3750  146.0430 N   0  0  0  0  0  0  0  0  0  0  0  0
  187.5040  175.9560  147.0860 O   0  0  0  0  0  0  0  0  0  0  0  0
  186.8070  177.3060  143.0940 N   0  0  0  0  0  0  0  0  0  0  0  0
  187.6370  176.3620  145.8980 C   0  0  0  0  0  0  0  0  0  0  0  0
  186.4060  178.1800  147.9250 N   0  0  0  0  0  1  0  0  0  0  0  0
  188.5510  175.3070  140.6920 C   0  0  2  0  0  3  0  0  0  0  0  0
  188.4460  175.5190  143.6240 C   0  0  0  0  0  0  0  0  0  0  0  0
  188.5530  175.6570  145.0600 C   0  0  0  0  0  0  0  0  0  0  0  0
  188.6320  173.2000  139.6650 N   0  0  0  0  0  0  0  0  0  0  0  0
  188.0990  174.5350  139.4540 C   0  0  0  0  0  2  0  0  0  0  0  0
  190.2110  173.7960  143.6900 C   0  0  0  0  0  3  0  0  0  0  0  0
  189.1230  174.2660  141.5580 C   0  0  0  0  0  0  0  0  0  0  0  0
  189.6150  174.9370  145.7160 C   0  0  0  0  0  0  0  0  0  0  0  0
  189.2620  174.5250  142.9900 C   0  0  0  0  0  0  0  0  0  0  0  0
  190.0210  175.1660  147.1430 C   0  0  0  0  0  2  0  0  0  0  0  0
  191.0370  176.2970  147.2400 C   0  0  0  0  0  2  0  0  0  0  0  0
  192.2470  175.9760  146.4220 C   0  0  0  0  0  0  0  0  0  0  0  0
  194.2500  174.5300  146.0480 C   0  0  0  0  0  2  0  0  0  0  0  0
  192.9850  174.9080  146.7690 C   0  0  0  0  0  3  0  0  0  0  0  0
  193.9250  176.4890  144.5700 C   0  0  0  0  0  2  0  0  0  0  0  0
  192.7390  176.9870  145.4000 C   0  0  1  0  0  3  0  0  0  0  0  0
  191.6200  177.4010  144.4590 C   0  0  0  0  0  1  0  0  0  0  0  0
  194.9270  175.7570  145.4540 C   0  0  0  0  0  2  0  0  0  0  0  0
  188.5010  172.1030  138.7180 C   0  0  0  0  0  2  0  0  0  0  0  0
  189.4450  172.3010  137.5380 C   0  0  1  0  0  3  0  0  0  0  0  0
  190.6870  172.7710  137.9780 O   0  0  0  0  0  1  0  0  0  0  0  0
  189.6100  171.0120  136.7410 C   0  0  0  0  0  2  0  0  0  0  0  0
  189.7200  169.7900  137.6450 C   0  0  0  0  0  1  0  0  0  0  0  0
  1  6  1  0  0  0  0
  1  3  2  0  0  0  0
  2 20  2  0  0  0  0
  3 12  1  0  0  0  0
  3  5  1  0  0  0  0
  4 11  2  0  0  0  0
  4 15  1  0  0  0  0
  5 13  1  0  0  0  0
  6  9  1  0  0  0  0
  7  4  1  0  0  0  0
  8 21  1  0  0  0  0
  9  5  2  0  0  0  0
 11  1  1  0  0  0  0
 12 10  2  0  0  0  0
 14 18  1  6  0  0  0
 14  7  1  0  0  0  0
 14 20  1  0  0  0  0
 15 16  1  0  0  0  0
 16 21  2  0  0  0  0
 16 12  1  0  0  0  0
 17  2  1  0  0  0  0
 18 17  1  0  0  0  0
 19  8  2  0  0  0  0
 20 22  1  0  0  0  0
 21 23  1  0  0  0  0
 22 15  2  0  0  0  0
 22 19  1  0  0  0  0
 23 24  1  0  0  0  0
 25 27  2  0  0  0  0
 25 24  1  0  0  0  0
 26 27  1  0  0  0  0
 28 29  1  0  0  0  0
 28 31  1  0  0  0  0
 29 30  1  6  0  0  0
 29 25  1  0  0  0  0
 31 26  1  0  0  0  0
 32 17  1  0  0  0  0
 33 34  1  1  0  0  0
 33 32  1  0  0  0  0
 35 33  1  0  0  0  0
 35 36  1  0  0  0  0
M  END
>  <MODEL>
1

>  <REMARK>
 VINA RESULT:      -8.1      0.000      0.000
  Name = 
  6 active torsions:
  status: ('A' for Active; 'I' for Inactive)
    1  A    between atoms: C_4  and  C_25
    2  A    between atoms: C_4  and  C_32
    3  A    between atoms: C_5  and  C_34
    4  A    between atoms: C_7  and  C_34
    5  A    between atoms: C_7  and  C_35
    6  A    between atoms: N_27  and  C_32
                            x       y       z     vdW  Elec       q    Type
                         _______ _______ _______ _____ _____    ______ ____

>  <TORSDO>
F 6

$$$$
=
 OpenBabel11042417593D

 36 41  0  0  1  0  0  0  0  0999 V2000
  191.9950  173.8580  140.8210 C   0  0  0  0  0  0  0  0  0  0  0  0
  187.8240  177.4840  144.0320 C   0  0  0  0  0  3  0  0  0  0  0  0
  193.1700  174.4630  141.2290 C   0  0  0  0  0  0  0  0  0  0  0  0
  190.1860  175.0300  142.0010 C   0  0  0  0  0  0  0  0  0  0  0  0
  194.2910  173.9160  140.5140 C   0  0  0  0  0  0  0  0  0  0  0  0
  192.3880  172.7570  139.6430 S   0  0  0  0  0  0  0  0  0  0  0  0
  188.7830  175.1270  141.9160 O   0  0  0  0  0  0  0  0  0  0  0  0
  191.9780  177.1240  145.2590 C   0  0  0  0  0  3  0  0  0  0  0  0
  194.0270  172.9500  139.5980 N   0  0  0  0  0  0  0  0  0  0  0  0
  194.3860  176.1200  142.1660 O   0  0  0  0  0  0  0  0  0  0  0  0
  190.7290  174.1870  141.1020 N   0  0  0  0  0  0  0  0  0  0  0  0
  193.2950  175.4840  142.1840 C   0  0  0  0  0  0  0  0  0  0  0  0
  195.6410  174.3070  140.7550 N   0  0  0  0  0  1  0  0  0  0  0  0
  187.9770  175.3840  143.0520 C   0  0  2  0  0  3  0  0  0  0  0  0
  190.8960  175.7420  143.0290 C   0  0  0  0  0  0  0  0  0  0  0  0
  192.3320  175.8580  143.1690 C   0  0  0  0  0  0  0  0  0  0  0  0
  186.5680  177.2200  143.4330 N   0  0  0  0  0  0  0  0  0  0  0  0
  186.6180  175.9760  142.6830 C   0  0  0  0  0  2  0  0  0  0  0  0
  190.6200  177.1280  145.0520 C   0  0  0  0  0  3  0  0  0  0  0  0
  188.6250  176.4580  143.8200 C   0  0  0  0  0  0  0  0  0  0  0  0
  192.8300  176.5000  144.3590 C   0  0  0  0  0  0  0  0  0  0  0  0
  190.0790  176.4500  143.9710 C   0  0  0  0  0  0  0  0  0  0  0  0
  194.2720  176.4760  144.7780 C   0  0  0  0  0  2  0  0  0  0  0  0
  194.4570  175.6180  146.0230 C   0  0  0  0  0  2  0  0  0  0  0  0
  195.1310  174.3310  145.6680 C   0  0  0  0  0  0  0  0  0  0  0  0
  197.2180  172.9590  145.6080 C   0  0  0  0  0  2  0  0  0  0  0  0
  196.4330  174.1900  145.9710 C   0  0  0  0  0  3  0  0  0  0  0  0
  195.1730  172.0290  144.5690 C   0  0  0  0  0  2  0  0  0  0  0  0
  194.4080  173.3410  144.7710 C   0  0  1  0  0  3  0  0  0  0  0  0
  193.0230  173.0240  145.3110 C   0  0  0  0  0  1  0  0  0  0  0  0
  196.6560  172.3020  144.3550 C   0  0  0  0  0  2  0  0  0  0  0  0
  185.4310  178.1270  143.4460 C   0  0  0  0  0  2  0  0  0  0  0  0
  185.5200  179.0800  144.6330 C   0  0  1  0  0  3  0  0  0  0  0  0
  185.4640  180.4090  144.1980 O   0  0  0  0  0  1  0  0  0  0  0  0
  184.4190  178.8000  145.6490 C   0  0  0  0  0  2  0  0  0  0  0  0
  184.6940  177.5390  146.4580 C   0  0  0  0  0  1  0  0  0  0  0  0
  1 11  1  0  0  0  0
  1  3  2  0  0  0  0
  3 12  1  0  0  0  0
  4 15  1  0  0  0  0
  5 13  1  0  0  0  0
  5  3  1  0  0  0  0
  6  1  1  0  0  0  0
  7  4  1  0  0  0  0
  7 14  1  0  0  0  0
  9  6  1  0  0  0  0
  9  5  2  0  0  0  0
 10 12  2  0  0  0  0
 11  4  2  0  0  0  0
 12 16  1  0  0  0  0
 14 18  1  6  0  0  0
 14 20  1  0  0  0  0
 15 16  2  0  0  0  0
 15 22  1  0  0  0  0
 16 21  1  0  0  0  0
 17 32  1  0  0  0  0
 17  2  1  0  0  0  0
 18 17  1  0  0  0  0
 19  8  1  0  0  0  0
 20 22  1  0  0  0  0
 20  2  2  0  0  0  0
 21 23  1  0  0  0  0
 21  8  2  0  0  0  0
 22 19  2  0  0  0  0
 23 24  1  0  0  0  0
 25 27  2  0  0  0  0
 25 24  1  0  0  0  0
 26 27  1  0  0  0  0
 28 29  1  0  0  0  0
 29 30  1  1  0  0  0
 29 25  1  0  0  0  0
 31 28  1  0  0  0  0
 31 26  1  0  0  0  0
 32 33  1  0  0  0  0
 33 34  1  6  0  0  0
 33 35  1  0  0  0  0
 35 36  1  0  0  0  0
M  END
>  <MODEL>
2

>  <REMARK>
 VINA RESULT:      -8.0      3.386      7.017
  Name = 
  6 active torsions:
  status: ('A' for Active; 'I' for Inactive)
    1  A    between atoms: C_4  and  C_25
    2  A    between atoms: C_4  and  C_32
    3  A    between atoms: C_5  and  C_34
    4  A    between atoms: C_7  and  C_34
    5  A    between atoms: C_7  and  C_35
    6  A    between atoms: N_27  and  C_32
                            x       y       z     vdW  Elec       q    Type
                         _______ _______ _______ _____ _____    ______ ____

>  <TORSDO>
F 6

$$$$
=
 OpenBabel11042417593D

 36 41  0  0  1  0  0  0  0  0999 V2000
  192.5470  174.8400  144.8730 C   0  0  0  0  0  0  0  0  0  0  0  0
  186.5130  176.1310  143.2030 C   0  0  0  0  0  3  0  0  0  0  0  0
  192.5450  173.4730  144.6590 C   0  0  0  0  0  0  0  0  0  0  0  0
  190.3160  175.6300  144.2140 C   0  0  0  0  0  0  0  0  0  0  0  0
  193.7790  172.8930  145.1140 C   0  0  0  0  0  0  0  0  0  0  0  0
  193.9890  175.2260  145.5980 S   0  0  0  0  0  0  0  0  0  0  0  0
  189.5390  176.7960  144.3680 O   0  0  0  0  0  0  0  0  0  0  0  0
  188.5740  172.5690  141.8030 C   0  0  0  0  0  3  0  0  0  0  0  0
  194.6940  173.7350  145.6570 N   0  0  0  0  0  0  0  0  0  0  0  0
  191.5610  171.4720  144.3020 O   0  0  0  0  0  0  0  0  0  0  0  0
  191.5440  175.7180  144.7580 N   0  0  0  0  0  0  0  0  0  0  0  0
  191.5010  172.7170  144.1030 C   0  0  0  0  0  0  0  0  0  0  0  0
  194.0890  171.5070  144.9790 N   0  0  0  0  0  1  0  0  0  0  0  0
  188.5720  177.1870  143.4100 C   0  0  2  0  0  3  0  0  0  0  0  0
  189.8000  174.5150  143.4660 C   0  0  0  0  0  0  0  0  0  0  0  0
  190.4050  173.2080  143.3310 C   0  0  0  0  0  0  0  0  0  0  0  0
  186.2590  177.4280  143.7130 N   0  0  0  0  0  0  0  0  0  0  0  0
  187.5080  178.1130  143.9970 C   0  0  0  0  0  2  0  0  0  0  0  0
  187.9330  173.7600  142.0400 C   0  0  0  0  0  3  0  0  0  0  0  0
  187.8140  175.9850  143.0320 C   0  0  0  0  0  0  0  0  0  0  0  0
  189.7880  172.2850  142.4140 C   0  0  0  0  0  0  0  0  0  0  0  0
  188.5240  174.7220  142.8440 C   0  0  0  0  0  0  0  0  0  0  0  0
  190.4230  170.9990  141.9690 C   0  0  0  0  0  2  0  0  0  0  0  0
  190.9850  171.1350  140.5590 C   0  0  0  0  0  2  0  0  0  0  0  0
  192.1570  172.0640  140.5580 C   0  0  0  0  0  0  0  0  0  0  0  0
  194.4860  172.5630  141.3120 C   0  0  0  0  0  2  0  0  0  0  0  0
  193.2720  171.6830  141.2050 C   0  0  0  0  0  3  0  0  0  0  0  0
  193.2760  174.2920  140.0180 C   0  0  0  0  0  2  0  0  0  0  0  0
  191.9750  173.4850  140.0510 C   0  0  1  0  0  3  0  0  0  0  0  0
  191.3540  173.4960  138.6650 C   0  0  0  0  0  1  0  0  0  0  0  0
  194.0990  174.0350  141.2730 C   0  0  0  0  0  2  0  0  0  0  0  0
  184.9410  177.9500  144.0420 C   0  0  0  0  0  2  0  0  0  0  0  0
  184.8410  178.2480  145.5340 C   0  0  1  0  0  3  0  0  0  0  0  0
  183.6400  178.9060  145.8210 O   0  0  0  0  0  1  0  0  0  0  0  0
  184.9670  176.9740  146.3620 C   0  0  0  0  0  2  0  0  0  0  0  0
  186.1510  177.0290  147.3190 C   0  0  0  0  0  1  0  0  0  0  0  0
  1  6  1  0  0  0  0
  2 17  1  0  0  0  0
  3  1  2  0  0  0  0
  3  5  1  0  0  0  0
  4  7  1  0  0  0  0
  4 11  2  0  0  0  0
  5  9  2  0  0  0  0
  6  9  1  0  0  0  0
  8 19  2  0  0  0  0
  8 21  1  0  0  0  0
 11  1  1  0  0  0  0
 12 10  2  0  0  0  0
 12  3  1  0  0  0  0
 13  5  1  0  0  0  0
 14 18  1  1  0  0  0
 14  7  1  0  0  0  0
 15  4  1  0  0  0  0
 16 15  1  0  0  0  0
 16 12  1  0  0  0  0
 17 18  1  0  0  0  0
 17 32  1  0  0  0  0
 19 22  1  0  0  0  0
 20  2  2  0  0  0  0
 20 14  1  0  0  0  0
 21 16  2  0  0  0  0
 22 20  1  0  0  0  0
 22 15  2  0  0  0  0
 23 21  1  0  0  0  0
 24 23  1  0  0  0  0
 25 24  1  0  0  0  0
 25 27  2  0  0  0  0
 27 26  1  0  0  0  0
 28 29  1  0  0  0  0
 28 31  1  0  0  0  0
 29 30  1  6  0  0  0
 29 25  1  0  0  0  0
 31 26  1  0  0  0  0
 32 33  1  0  0  0  0
 33 34  1  6  0  0  0
 33 35  1  0  0  0  0
 35 36  1  0  0  0  0
M  END
>  <MODEL>
3

>  <REMARK>
 VINA RESULT:      -8.0      3.702      7.112
  Name = 
  6 active torsions:
  status: ('A' for Active; 'I' for Inactive)
    1  A    between atoms: C_4  and  C_25
    2  A    between atoms: C_4  and  C_32
    3  A    between atoms: C_5  and  C_34
    4  A    between atoms: C_7  and  C_34
    5  A    between atoms: C_7  and  C_35
    6  A    between atoms: N_27  and  C_32
                            x       y       z     vdW  Elec       q    Type
                         _______ _______ _______ _____ _____    ______ ____

>  <TORSDO>
F 6

$$$$
=
 OpenBabel11042417593D

 36 41  0  0  1  0  0  0  0  0999 V2000
  192.4230  173.3290  143.8950 C   0  0  0  0  0  0  0  0  0  0  0  0
  188.5720  174.1640  138.8610 C   0  0  0  0  0  3  0  0  0  0  0  0
  192.0200  174.4090  144.6590 C   0  0  0  0  0  0  0  0  0  0  0  0
  191.0100  173.3600  141.8850 C   0  0  0  0  0  0  0  0  0  0  0  0
  192.8600  174.5440  145.8190 C   0  0  0  0  0  0  0  0  0  0  0  0
  193.7410  172.6550  144.6440 S   0  0  0  0  0  0  0  0  0  0  0  0
  190.9980  172.7510  140.6140 O   0  0  0  0  0  0  0  0  0  0  0  0
  187.6470  175.8360  142.7660 C   0  0  0  0  0  3  0  0  0  0  0  0
  193.8620  173.6410  145.9630 N   0  0  0  0  0  0  0  0  0  0  0  0
  190.9750  176.3820  145.0020 O   0  0  0  0  0  0  0  0  0  0  0  0
  192.0300  172.9640  142.6690 N   0  0  0  0  0  0  0  0  0  0  0  0
  190.9640  175.2880  144.3720 C   0  0  0  0  0  0  0  0  0  0  0  0
  192.6570  175.5370  146.8210 N   0  0  0  0  0  1  0  0  0  0  0  0
  189.7930  172.4930  139.9150 C   0  0  2  0  0  3  0  0  0  0  0  0
  189.9520  174.2580  142.2630 C   0  0  0  0  0  0  0  0  0  0  0  0
  189.8860  175.0630  143.4630 C   0  0  0  0  0  0  0  0  0  0  0  0
  189.1200  173.3510  137.8390 N   0  0  0  0  0  0  0  0  0  0  0  0
  190.0090  172.3540  138.4090 C   0  0  0  0  0  2  0  0  0  0  0  0
  187.7700  175.1780  141.5670 C   0  0  0  0  0  3  0  0  0  0  0  0
  188.9480  173.6910  140.0340 C   0  0  0  0  0  0  0  0  0  0  0  0
  188.6630  175.7830  143.7100 C   0  0  0  0  0  0  0  0  0  0  0  0
  188.8870  174.3980  141.3120 C   0  0  0  0  0  0  0  0  0  0  0  0
  188.3370  176.4520  145.0150 C   0  0  0  0  0  2  0  0  0  0  0  0
  187.9410  177.9050  144.7910 C   0  0  0  0  0  2  0  0  0  0  0  0
  186.6340  178.1930  145.4590 C   0  0  0  0  0  0  0  0  0  0  0  0
  185.2810  178.2770  147.5580 C   0  0  0  0  0  2  0  0  0  0  0  0
  186.5600  178.0660  146.7950 C   0  0  0  0  0  3  0  0  0  0  0  0
  184.1460  178.7550  145.4110 C   0  0  0  0  0  2  0  0  0  0  0  0
  185.3900  178.3720  144.6050 C   0  0  1  0  0  3  0  0  0  0  0  0
  185.6150  179.4150  143.5230 C   0  0  0  0  0  1  0  0  0  0  0  0
  184.0700  177.9440  146.6980 C   0  0  0  0  0  2  0  0  0  0  0  0
  188.9350  173.5690  136.4120 C   0  0  0  0  0  2  0  0  0  0  0  0
  189.5720  174.8860  135.9850 C   0  0  1  0  0  3  0  0  0  0  0  0
  190.8610  174.6670  135.4880 O   0  0  0  0  0  1  0  0  0  0  0  0
  188.7130  175.6060  134.9520 C   0  0  0  0  0  2  0  0  0  0  0  0
  187.5070  176.2880  135.5850 C   0  0  0  0  0  1  0  0  0  0  0  0
  1  6  1  0  0  0  0
  1  3  2  0  0  0  0
  2 20  2  0  0  0  0
  3  5  1  0  0  0  0
  4 15  1  0  0  0  0
  4 11  2  0  0  0  0
  5  9  2  0  0  0  0
  5 13  1  0  0  0  0
  6  9  1  0  0  0  0
  7  4  1  0  0  0  0
  8 21  1  0  0  0  0
 11  1  1  0  0  0  0
 12  3  1  0  0  0  0
 12 10  2  0  0  0  0
 14 18  1  6  0  0  0
 14 20  1  0  0  0  0
 14  7  1  0  0  0  0
 15 16  1  0  0  0  0
 16 21  2  0  0  0  0
 16 12  1  0  0  0  0
 17 18  1  0  0  0  0
 17  2  1  0  0  0  0
 19  8  2  0  0  0  0
 20 22  1  0  0  0  0
 21 23  1  0  0  0  0
 22 19  1  0  0  0  0
 22 15  2  0  0  0  0
 24 23  1  0  0  0  0
 24 25  1  0  0  0  0
 25 27  2  0  0  0  0
 27 26  1  0  0  0  0
 28 31  1  0  0  0  0
 29 30  1  6  0  0  0
 29 28  1  0  0  0  0
 29 25  1  0  0  0  0
 31 26  1  0  0  0  0
 32 17  1  0  0  0  0
 33 34  1  6  0  0  0
 33 32  1  0  0  0  0
 35 36  1  0  0  0  0
 35 33  1  0  0  0  0
M  END
>  <MODEL>
4

>  <REMARK>
 VINA RESULT:      -7.8      3.327      5.893
  Name = 
  6 active torsions:
  status: ('A' for Active; 'I' for Inactive)
    1  A    between atoms: C_4  and  C_25
    2  A    between atoms: C_4  and  C_32
    3  A    between atoms: C_5  and  C_34
    4  A    between atoms: C_7  and  C_34
    5  A    between atoms: C_7  and  C_35
    6  A    between atoms: N_27  and  C_32
                            x       y       z     vdW  Elec       q    Type
                         _______ _______ _______ _____ _____    ______ ____

>  <TORSDO>
F 6

$$$$
=
 OpenBabel11042417593D

 36 41  0  0  1  0  0  0  0  0999 V2000
  193.7520  173.9420  144.5720 C   0  0  0  0  0  0  0  0  0  0  0  0
  189.4440  172.3120  140.1400 C   0  0  0  0  0  3  0  0  0  0  0  0
  193.3010  175.2180  144.8570 C   0  0  0  0  0  0  0  0  0  0  0  0
  192.1870  173.0250  142.9150 C   0  0  0  0  0  0  0  0  0  0  0  0
  194.2120  175.8850  145.7460 C   0  0  0  0  0  0  0  0  0  0  0  0
  195.1890  173.7330  145.3760 S   0  0  0  0  0  0  0  0  0  0  0  0
  192.1370  171.9330  142.0260 O   0  0  0  0  0  0  0  0  0  0  0  0
  188.6650  175.4320  143.0650 C   0  0  0  0  0  3  0  0  0  0  0  0
  195.3120  175.1930  146.1360 N   0  0  0  0  0  0  0  0  0  0  0  0
  192.0870  177.0810  144.4620 O   0  0  0  0  0  0  0  0  0  0  0  0
  193.3020  173.0650  143.6670 N   0  0  0  0  0  0  0  0  0  0  0  0
  192.1390  175.8240  144.3530 C   0  0  0  0  0  0  0  0  0  0  0  0
  193.9880  177.1980  146.2570 N   0  0  0  0  0  1  0  0  0  0  0  0
  190.9130  171.3290  141.6460 C   0  0  2  0  0  3  0  0  0  0  0  0
  191.0740  173.9320  143.0040 C   0  0  0  0  0  0  0  0  0  0  0  0
  191.0210  175.1680  143.7550 C   0  0  0  0  0  0  0  0  0  0  0  0
  189.9890  171.1750  139.4960 N   0  0  0  0  0  0  0  0  0  0  0  0
  191.0210  170.5730  140.3230 C   0  0  0  0  0  2  0  0  0  0  0  0
  188.7600  174.3330  142.2460 C   0  0  0  0  0  3  0  0  0  0  0  0
  189.9600  172.4080  141.3510 C   0  0  0  0  0  0  0  0  0  0  0  0
  189.7540  175.8490  143.8190 C   0  0  0  0  0  0  0  0  0  0  0  0
  189.9280  173.5880  142.2130 C   0  0  0  0  0  0  0  0  0  0  0  0
  189.4650  176.9900  144.7530 C   0  0  0  0  0  2  0  0  0  0  0  0
  188.3700  177.8850  144.1870 C   0  0  0  0  0  2  0  0  0  0  0  0
  187.1800  177.8790  145.0930 C   0  0  0  0  0  0  0  0  0  0  0  0
  186.1440  177.1710  147.2540 C   0  0  0  0  0  2  0  0  0  0  0  0
  187.2950  177.2810  146.2910 C   0  0  0  0  0  3  0  0  0  0  0  0
  184.7250  178.3510  145.6040 C   0  0  0  0  0  2  0  0  0  0  0  0
  185.8310  178.3160  144.5460 C   0  0  1  0  0  3  0  0  0  0  0  0
  185.9250  179.6820  143.8870 C   0  0  0  0  0  1  0  0  0  0  0  0
  184.8140  177.1330  146.5140 C   0  0  0  0  0  2  0  0  0  0  0  0
  189.6690  170.7510  138.1410 C   0  0  0  0  0  2  0  0  0  0  0  0
  189.9200  171.8840  137.1530 C   0  0  1  0  0  3  0  0  0  0  0  0
  191.2880  172.1620  137.0650 O   0  0  0  0  0  1  0  0  0  0  0  0
  189.3500  171.5540  135.7780 C   0  0  0  0  0  2  0  0  0  0  0  0
  190.4360  171.1420  134.7920 C   0  0  0  0  0  1  0  0  0  0  0  0
  1  3  2  0  0  0  0
  1  6  1  0  0  0  0
  2 20  2  0  0  0  0
  3  5  1  0  0  0  0
  4 15  1  0  0  0  0
  4 11  2  0  0  0  0
  5  9  2  0  0  0  0
  5 13  1  0  0  0  0
  6  9  1  0  0  0  0
  7  4  1  0  0  0  0
  8 21  1  0  0  0  0
 11  1  1  0  0  0  0
 12 10  2  0  0  0  0
 12  3  1  0  0  0  0
 14 18  1  6  0  0  0
 14  7  1  0  0  0  0
 15 16  1  0  0  0  0
 16 21  2  0  0  0  0
 16 12  1  0  0  0  0
 17  2  1  0  0  0  0
 17 18  1  0  0  0  0
 19  8  2  0  0  0  0
 20 14  1  0  0  0  0
 20 22  1  0  0  0  0
 21 23  1  0  0  0  0
 22 19  1  0  0  0  0
 22 15  2  0  0  0  0
 24 23  1  0  0  0  0
 24 25  1  0  0  0  0
 25 27  2  0  0  0  0
 27 26  1  0  0  0  0
 28 31  1  0  0  0  0
 29 30  1  1  0  0  0
 29 25  1  0  0  0  0
 29 28  1  0  0  0  0
 31 26  1  0  0  0  0
 32 17  1  0  0  0  0
 33 34  1  6  0  0  0
 33 32  1  0  0  0  0
 35 33  1  0  0  0  0
 36 35  1  0  0  0  0
M  END
>  <MODEL>
5

>  <REMARK>
 VINA RESULT:      -7.7      3.591      5.853
  Name = 
  6 active torsions:
  status: ('A' for Active; 'I' for Inactive)
    1  A    between atoms: C_4  and  C_25
    2  A    between atoms: C_4  and  C_32
    3  A    between atoms: C_5  and  C_34
    4  A    between atoms: C_7  and  C_34
    5  A    between atoms: C_7  and  C_35
    6  A    between atoms: N_27  and  C_32
                            x       y       z     vdW  Elec       q    Type
                         _______ _______ _______ _____ _____    ______ ____

>  <TORSDO>
F 6

$$$$
=
 OpenBabel11042417593D

 36 41  0  0  1  0  0  0  0  0999 V2000
  187.3650  176.5420  141.2330 C   0  0  0  0  0  0  0  0  0  0  0  0
  190.4470  171.1550  142.7620 C   0  0  0  0  0  3  0  0  0  0  0  0
  186.9300  176.9100  142.4930 C   0  0  0  0  0  0  0  0  0  0  0  0
  188.6840  174.4930  141.5450 C   0  0  0  0  0  0  0  0  0  0  0  0
  186.0570  178.0490  142.4090 C   0  0  0  0  0  0  0  0  0  0  0  0
  186.6600  177.5770  140.1430 S   0  0  0  0  0  0  0  0  0  0  0  0
  189.2130  173.4640  140.7390 O   0  0  0  0  0  0  0  0  0  0  0  0
  189.6940  174.2820  145.6860 C   0  0  0  0  0  3  0  0  0  0  0  0
  185.8090  178.5470  141.1720 N   0  0  0  0  0  0  0  0  0  0  0  0
  186.4990  176.5520  144.6810 O   0  0  0  0  0  0  0  0  0  0  0  0
  188.0370  175.4490  140.8530 N   0  0  0  0  0  0  0  0  0  0  0  0
  187.2500  176.2780  143.7040 C   0  0  0  0  0  0  0  0  0  0  0  0
  185.4900  178.6870  143.5520 N   0  0  0  0  0  1  0  0  0  0  0  0
  190.3940  172.7660  141.0910 C   0  0  2  0  0  3  0  0  0  0  0  0
  188.9170  174.4870  142.9640 C   0  0  0  0  0  0  0  0  0  0  0  0
  188.3370  175.3820  143.9410 C   0  0  0  0  0  0  0  0  0  0  0  0
  190.6350  170.4760  141.5330 N   0  0  0  0  0  0  0  0  0  0  0  0
  190.4850  171.3970  140.4200 C   0  0  0  0  0  2  0  0  0  0  0  0
  190.1400  173.3500  144.7810 C   0  0  0  0  0  3  0  0  0  0  0  0
  190.3070  172.4450  142.5220 C   0  0  0  0  0  0  0  0  0  0  0  0
  188.8230  175.2890  145.2940 C   0  0  0  0  0  0  0  0  0  0  0  0
  189.7740  173.4430  143.4470 C   0  0  0  0  0  0  0  0  0  0  0  0
  188.5180  176.3000  146.3620 C   0  0  0  0  0  2  0  0  0  0  0  0
  189.7980  176.9490  146.8710 C   0  0  0  0  0  2  0  0  0  0  0  0
  190.7380  177.1980  145.7350 C   0  0  0  0  0  0  0  0  0  0  0  0
  191.1700  178.2550  143.5130 C   0  0  0  0  0  2  0  0  0  0  0  0
  190.3250  177.9850  144.7270 C   0  0  0  0  0  3  0  0  0  0  0  0
  192.9220  176.7970  144.4780 C   0  0  0  0  0  2  0  0  0  0  0  0
  192.0090  176.3720  145.6320 C   0  0  1  0  0  3  0  0  0  0  0  0
  192.8000  176.4220  146.9290 C   0  0  0  0  0  1  0  0  0  0  0  0
  192.1040  177.0870  143.2270 C   0  0  0  0  0  2  0  0  0  0  0  0
  190.8120  169.0380  141.3940 C   0  0  0  0  0  2  0  0  0  0  0  0
  192.2560  168.6470  141.6830 C   0  0  1  0  0  3  0  0  0  0  0  0
  193.1220  169.6970  141.3580 O   0  0  0  0  0  1  0  0  0  0  0  0
  192.4360  168.2330  143.1390 C   0  0  0  0  0  2  0  0  0  0  0  0
  193.4160  169.1390  143.8750 C   0  0  0  0  0  1  0  0  0  0  0  0
  1  3  2  0  0  0  0
  3 12  1  0  0  0  0
  4 15  1  0  0  0  0
  5  3  1  0  0  0  0
  5 13  1  0  0  0  0
  6  9  1  0  0  0  0
  6  1  1  0  0  0  0
  7 14  1  0  0  0  0
  7  4  1  0  0  0  0
  9  5  2  0  0  0  0
 11  1  1  0  0  0  0
 11  4  2  0  0  0  0
 12 16  1  0  0  0  0
 12 10  2  0  0  0  0
 14 18  1  6  0  0  0
 14 20  1  0  0  0  0
 15 22  2  0  0  0  0
 15 16  1  0  0  0  0
 16 21  2  0  0  0  0
 17  2  1  0  0  0  0
 18 17  1  0  0  0  0
 19  8  2  0  0  0  0
 20  2  2  0  0  0  0
 20 22  1  0  0  0  0
 21  8  1  0  0  0  0
 21 23  1  0  0  0  0
 22 19  1  0  0  0  0
 23 24  1  0  0  0  0
 25 24  1  0  0  0  0
 26 27  1  0  0  0  0
 27 25  2  0  0  0  0
 28 29  1  0  0  0  0
 29 25  1  0  0  0  0
 29 30  1  1  0  0  0
 31 26  1  0  0  0  0
 31 28  1  0  0  0  0
 32 17  1  0  0  0  0
 32 33  1  0  0  0  0
 33 34  1  1  0  0  0
 33 35  1  0  0  0  0
 35 36  1  0  0  0  0
M  END
>  <MODEL>
6

>  <REMARK>
 VINA RESULT:      -7.6      2.619      3.685
  Name = 
  6 active torsions:
  status: ('A' for Active; 'I' for Inactive)
    1  A    between atoms: C_4  and  C_25
    2  A    between atoms: C_4  and  C_32
    3  A    between atoms: C_5  and  C_34
    4  A    between atoms: C_7  and  C_34
    5  A    between atoms: C_7  and  C_35
    6  A    between atoms: N_27  and  C_32
                            x       y       z     vdW  Elec       q    Type
                         _______ _______ _______ _____ _____    ______ ____

>  <TORSDO>
F 6

$$$$
=
 OpenBabel11042417593D

 36 41  0  0  1  0  0  0  0  0999 V2000
  187.1770  177.3450  142.5740 C   0  0  0  0  0  0  0  0  0  0  0  0
  190.1980  171.7800  141.7060 C   0  0  0  0  0  3  0  0  0  0  0  0
  187.0110  177.2930  143.9460 C   0  0  0  0  0  0  0  0  0  0  0  0
  188.4180  175.3150  141.9640 C   0  0  0  0  0  0  0  0  0  0  0  0
  186.2010  178.3920  144.3970 C   0  0  0  0  0  0  0  0  0  0  0  0
  186.3350  178.6650  142.0240 S   0  0  0  0  0  0  0  0  0  0  0  0
  188.7270  174.5990  140.7900 O   0  0  0  0  0  0  0  0  0  0  0  0
  190.1880  173.8150  145.5470 C   0  0  0  0  0  3  0  0  0  0  0  0
  185.7490  179.2530  143.4510 N   0  0  0  0  0  0  0  0  0  0  0  0
  186.9870  176.2570  145.9540 O   0  0  0  0  0  0  0  0  0  0  0  0
  187.7050  176.4350  141.7470 N   0  0  0  0  0  0  0  0  0  0  0  0
  187.5230  176.3120  144.8110 C   0  0  0  0  0  0  0  0  0  0  0  0
  185.8990  178.6310  145.7690 N   0  0  0  0  0  1  0  0  0  0  0  0
  189.9140  173.8360  140.6650 C   0  0  2  0  0  3  0  0  0  0  0  0
  188.9180  174.8630  143.2350 C   0  0  0  0  0  0  0  0  0  0  0  0
  188.5840  175.3970  144.5370 C   0  0  0  0  0  0  0  0  0  0  0  0
  190.1110  171.5260  140.3150 N   0  0  0  0  0  0  0  0  0  0  0  0
  189.8010  172.7500  139.5970 C   0  0  0  0  0  2  0  0  0  0  0  0
  190.4020  173.2210  144.3270 C   0  0  0  0  0  3  0  0  0  0  0  0
  190.0850  173.0780  141.9130 C   0  0  0  0  0  0  0  0  0  0  0  0
  189.3140  174.8860  145.6690 C   0  0  0  0  0  0  0  0  0  0  0  0
  189.7930  173.7280  143.1890 C   0  0  0  0  0  0  0  0  0  0  0  0
  189.2730  175.5050  147.0370 C   0  0  0  0  0  2  0  0  0  0  0  0
  190.5750  176.2370  147.3370 C   0  0  0  0  0  2  0  0  0  0  0  0
  191.1580  176.7910  146.0760 C   0  0  0  0  0  0  0  0  0  0  0  0
  190.9190  178.2910  144.0920 C   0  0  0  0  0  2  0  0  0  0  0  0
  190.4500  177.7110  145.3980 C   0  0  0  0  0  3  0  0  0  0  0  0
  192.9310  176.8580  144.2430 C   0  0  0  0  0  2  0  0  0  0  0  0
  192.3880  176.1310  145.4760 C   0  0  1  0  0  3  0  0  0  0  0  0
  193.5000  176.0100  146.5060 C   0  0  0  0  0  1  0  0  0  0  0  0
  191.7910  177.2990  143.3350 C   0  0  0  0  0  2  0  0  0  0  0  0
  190.1790  170.2070  139.7030 C   0  0  0  0  0  2  0  0  0  0  0  0
  190.8810  170.2810  138.3520 C   0  0  1  0  0  3  0  0  0  0  0  0
  192.0300  169.4840  138.3540 O   0  0  0  0  0  1  0  0  0  0  0  0
  189.9450  169.8720  137.2200 C   0  0  0  0  0  2  0  0  0  0  0  0
  190.0690  170.7930  136.0130 C   0  0  0  0  0  1  0  0  0  0  0  0
  1  3  2  0  0  0  0
  2 20  2  0  0  0  0
  3  5  1  0  0  0  0
  3 12  1  0  0  0  0
  4 15  1  0  0  0  0
  5 13  1  0  0  0  0
  6  1  1  0  0  0  0
  6  9  1  0  0  0  0
  7  4  1  0  0  0  0
  8 21  1  0  0  0  0
  9  5  2  0  0  0  0
 11  4  2  0  0  0  0
 11  1  1  0  0  0  0
 12 10  2  0  0  0  0
 14 18  1  6  0  0  0
 14  7  1  0  0  0  0
 14 20  1  0  0  0  0
 15 16  1  0  0  0  0
 16 12  1  0  0  0  0
 16 21  2  0  0  0  0
 17  2  1  0  0  0  0
 18 17  1  0  0  0  0
 19  8  2  0  0  0  0
 20 22  1  0  0  0  0
 21 23  1  0  0  0  0
 22 15  2  0  0  0  0
 22 19  1  0  0  0  0
 23 24  1  0  0  0  0
 25 24  1  0  0  0  0
 26 27  1  0  0  0  0
 27 25  2  0  0  0  0
 28 29  1  0  0  0  0
 29 25  1  0  0  0  0
 29 30  1  1  0  0  0
 31 26  1  0  0  0  0
 31 28  1  0  0  0  0
 32 17  1  0  0  0  0
 33 34  1  1  0  0  0
 33 32  1  0  0  0  0
 35 33  1  0  0  0  0
 36 35  1  0  0  0  0
M  END
>  <MODEL>
7

>  <REMARK>
 VINA RESULT:      -7.6      1.514      2.203
  Name = 
  6 active torsions:
  status: ('A' for Active; 'I' for Inactive)
    1  A    between atoms: C_4  and  C_25
    2  A    between atoms: C_4  and  C_32
    3  A    between atoms: C_5  and  C_34
    4  A    between atoms: C_7  and  C_34
    5  A    between atoms: C_7  and  C_35
    6  A    between atoms: N_27  and  C_32
                            x       y       z     vdW  Elec       q    Type
                         _______ _______ _______ _____ _____    ______ ____

>  <TORSDO>
F 6

$$$$
=
 OpenBabel11042417593D

 36 41  0  0  1  0  0  0  0  0999 V2000
  190.2730  174.8680  145.7200 C   0  0  0  0  0  0  0  0  0  0  0  0
  190.0450  172.0790  139.9730 C   0  0  0  0  0  3  0  0  0  0  0  0
  189.8910  176.1460  145.3570 C   0  0  0  0  0  0  0  0  0  0  0  0
  190.1880  173.5280  143.6620 C   0  0  0  0  0  0  0  0  0  0  0  0
  190.0070  177.0410  146.4770 C   0  0  0  0  0  0  0  0  0  0  0  0
  190.7320  174.9200  147.3130 S   0  0  0  0  0  0  0  0  0  0  0  0
  190.6450  172.2700  143.2220 O   0  0  0  0  0  0  0  0  0  0  0  0
  187.8120  175.7010  140.8600 C   0  0  0  0  0  3  0  0  0  0  0  0
  190.4550  176.5140  147.6440 N   0  0  0  0  0  0  0  0  0  0  0  0
  189.4890  177.8080  143.8800 O   0  0  0  0  0  0  0  0  0  0  0  0
  190.4780  173.7930  144.9490 N   0  0  0  0  0  0  0  0  0  0  0  0
  189.4670  176.5620  144.0850 C   0  0  0  0  0  0  0  0  0  0  0  0
  189.6360  178.4170  146.4220 N   0  0  0  0  0  1  0  0  0  0  0  0
  189.9620  171.5280  142.2270 C   0  0  2  0  0  3  0  0  0  0  0  0
  189.4250  174.3670  142.7770 C   0  0  0  0  0  0  0  0  0  0  0  0
  189.0040  175.7290  143.0220 C   0  0  0  0  0  0  0  0  0  0  0  0
  190.7580  170.8640  140.1230 N   0  0  0  0  0  0  0  0  0  0  0  0
  190.8670  170.5140  141.5290 C   0  0  0  0  0  2  0  0  0  0  0  0
  188.3240  174.4600  140.5700 C   0  0  0  0  0  3  0  0  0  0  0  0
  189.5960  172.4620  141.1530 C   0  0  0  0  0  0  0  0  0  0  0  0
  188.1210  176.3320  142.0570 C   0  0  0  0  0  0  0  0  0  0  0  0
  189.1070  173.7950  141.5010 C   0  0  0  0  0  0  0  0  0  0  0  0
  187.3950  177.6270  142.2840 C   0  0  0  0  0  2  0  0  0  0  0  0
  185.9520  177.3710  142.6960 C   0  0  0  0  0  2  0  0  0  0  0  0
  185.7780  177.6290  144.1590 C   0  0  0  0  0  0  0  0  0  0  0  0
  185.9500  176.7980  146.5090 C   0  0  0  0  0  2  0  0  0  0  0  0
  186.1340  176.6630  145.0220 C   0  0  0  0  0  3  0  0  0  0  0  0
  184.9730  179.0400  146.1260 C   0  0  0  0  0  2  0  0  0  0  0  0
  184.9890  178.8480  144.6070 C   0  0  1  0  0  3  0  0  0  0  0  0
  185.5220  180.1140  143.9570 C   0  0  0  0  0  1  0  0  0  0  0  0
  184.7720  177.7060  146.8330 C   0  0  0  0  0  2  0  0  0  0  0  0
  191.4120  170.1420  139.0430 C   0  0  0  0  0  2  0  0  0  0  0  0
  191.3730  170.9570  137.7550 C   0  0  1  0  0  3  0  0  0  0  0  0
  192.6710  171.2470  137.3200 O   0  0  0  0  0  1  0  0  0  0  0  0
  190.5910  170.2310  136.6660 C   0  0  0  0  0  2  0  0  0  0  0  0
  189.6870  171.1760  135.8840 C   0  0  0  0  0  1  0  0  0  0  0  0
  1  6  1  0  0  0  0
  2 17  1  0  0  0  0
  2 20  2  0  0  0  0
  3  1  2  0  0  0  0
  3  5  1  0  0  0  0
  4 11  2  0  0  0  0
  5  9  2  0  0  0  0
  6  9  1  0  0  0  0
  7  4  1  0  0  0  0
  8 21  1  0  0  0  0
 10 12  2  0  0  0  0
 11  1  1  0  0  0  0
 12  3  1  0  0  0  0
 13  5  1  0  0  0  0
 14 18  1  6  0  0  0
 14  7  1  0  0  0  0
 15 16  1  0  0  0  0
 15  4  1  0  0  0  0
 16 12  1  0  0  0  0
 17 18  1  0  0  0  0
 19  8  2  0  0  0  0
 19 22  1  0  0  0  0
 20 22  1  0  0  0  0
 20 14  1  0  0  0  0
 21 23  1  0  0  0  0
 21 16  2  0  0  0  0
 22 15  2  0  0  0  0
 23 24  1  0  0  0  0
 24 25  1  0  0  0  0
 25 29  1  0  0  0  0
 25 27  2  0  0  0  0
 26 31  1  0  0  0  0
 27 26  1  0  0  0  0
 28 31  1  0  0  0  0
 29 30  1  6  0  0  0
 29 28  1  0  0  0  0
 32 17  1  0  0  0  0
 33 34  1  6  0  0  0
 33 32  1  0  0  0  0
 35 33  1  0  0  0  0
 36 35  1  0  0  0  0
M  END
>  <MODEL>
8

>  <REMARK>
 VINA RESULT:      -7.6      2.728      5.217
  Name = 
  6 active torsions:
  status: ('A' for Active; 'I' for Inactive)
    1  A    between atoms: C_4  and  C_25
    2  A    between atoms: C_4  and  C_32
    3  A    between atoms: C_5  and  C_34
    4  A    between atoms: C_7  and  C_34
    5  A    between atoms: C_7  and  C_35
    6  A    between atoms: N_27  and  C_32
                            x       y       z     vdW  Elec       q    Type
                         _______ _______ _______ _____ _____    ______ ____

>  <TORSDO>
F 6

$$$$
=
 OpenBabel11042417593D

 36 41  0  0  1  0  0  0  0  0999 V2000
  185.4930  178.5650  146.0130 C   0  0  0  0  0  0  0  0  0  0  0  0
  182.2690  177.9100  140.5320 C   0  0  0  0  0  3  0  0  0  0  0  0
  186.5810  177.7630  145.7240 C   0  0  0  0  0  0  0  0  0  0  0  0
  184.0930  178.5610  143.9940 C   0  0  0  0  0  0  0  0  0  0  0  0
  187.4170  177.6130  146.8840 C   0  0  0  0  0  0  0  0  0  0  0  0
  185.6080  178.9990  147.6110 S   0  0  0  0  0  0  0  0  0  0  0  0
  182.7820  178.9340  143.6370 O   0  0  0  0  0  0  0  0  0  0  0  0
  186.5490  177.1920  140.7820 C   0  0  0  0  0  3  0  0  0  0  0  0
  187.0190  178.2450  148.0160 N   0  0  0  0  0  0  0  0  0  0  0  0
  187.6980  176.2010  144.5330 O   0  0  0  0  0  0  0  0  0  0  0  0
  184.4000  178.8100  145.2800 N   0  0  0  0  0  0  0  0  0  0  0  0
  186.8580  177.1430  144.4950 C   0  0  0  0  0  0  0  0  0  0  0  0
  188.6410  176.8820  146.8780 N   0  0  0  0  0  1  0  0  0  0  0  0
  182.4540  179.3690  142.3300 C   0  0  2  0  0  3  0  0  0  0  0  0
  184.9880  178.0340  142.9980 C   0  0  0  0  0  0  0  0  0  0  0  0
  186.3050  177.4800  143.2220 C   0  0  0  0  0  0  0  0  0  0  0  0
  180.9630  178.3790  140.8140 N   0  0  0  0  0  0  0  0  0  0  0  0
  180.9690  179.1990  142.0130 C   0  0  0  0  0  2  0  0  0  0  0  0
  185.2500  177.5910  140.5840 C   0  0  0  0  0  3  0  0  0  0  0  0
  183.1150  178.4600  141.3830 C   0  0  0  0  0  0  0  0  0  0  0  0
  187.0870  177.1420  142.0610 C   0  0  0  0  0  0  0  0  0  0  0  0
  184.4790  178.0120  141.6570 C   0  0  0  0  0  0  0  0  0  0  0  0
  188.5490  176.8020  142.1080 C   0  0  0  0  0  2  0  0  0  0  0  0
  188.8400  175.5550  141.2830 C   0  0  0  0  0  2  0  0  0  0  0  0
  189.3240  174.4510  142.1680 C   0  0  0  0  0  0  0  0  0  0  0  0
  188.9510  172.1860  143.1540 C   0  0  0  0  0  2  0  0  0  0  0  0
  188.5830  173.3320  142.2520 C   0  0  0  0  0  3  0  0  0  0  0  0
  190.9310  173.4750  143.8920 C   0  0  0  0  0  2  0  0  0  0  0  0
  190.4790  174.7160  143.1180 C   0  0  1  0  0  3  0  0  0  0  0  0
  191.6730  175.2960  142.3780 C   0  0  0  0  0  1  0  0  0  0  0  0
  189.7270  172.6730  144.3690 C   0  0  0  0  0  2  0  0  0  0  0  0
  179.7620  177.9830  140.0950 C   0  0  0  0  0  2  0  0  0  0  0  0
  178.5150  178.4520  140.8350 C   0  0  1  0  0  3  0  0  0  0  0  0
  177.7340  179.2670  140.0080 O   0  0  0  0  0  1  0  0  0  0  0  0
  177.7010  177.2710  141.3510 C   0  0  0  0  0  2  0  0  0  0  0  0
  178.1500  176.8280  142.7370 C   0  0  0  0  0  1  0  0  0  0  0  0
  1  6  1  0  0  0  0
  2 17  1  0  0  0  0
  2 20  2  0  0  0  0
  3  1  2  0  0  0  0
  3  5  1  0  0  0  0
  4 11  2  0  0  0  0
  5  9  2  0  0  0  0
  6  9  1  0  0  0  0
  7  4  1  0  0  0  0
  8 21  1  0  0  0  0
 11  1  1  0  0  0  0
 12 10  2  0  0  0  0
 12  3  1  0  0  0  0
 13  5  1  0  0  0  0
 14 18  1  1  0  0  0
 14  7  1  0  0  0  0
 15 16  1  0  0  0  0
 15  4  1  0  0  0  0
 16 12  1  0  0  0  0
 17 18  1  0  0  0  0
 19  8  2  0  0  0  0
 19 22  1  0  0  0  0
 20 22  1  0  0  0  0
 20 14  1  0  0  0  0
 21 23  1  0  0  0  0
 21 16  2  0  0  0  0
 22 15  2  0  0  0  0
 24 23  1  0  0  0  0
 24 25  1  0  0  0  0
 25 27  2  0  0  0  0
 25 29  1  0  0  0  0
 26 31  1  0  0  0  0
 27 26  1  0  0  0  0
 28 31  1  0  0  0  0
 29 30  1  6  0  0  0
 29 28  1  0  0  0  0
 32 17  1  0  0  0  0
 32 33  1  0  0  0  0
 33 34  1  6  0  0  0
 33 35  1  0  0  0  0
 35 36  1  0  0  0  0
M  END
>  <MODEL>
9

>  <REMARK>
 VINA RESULT:      -7.5      4.391      7.095
  Name = 
  6 active torsions:
  status: ('A' for Active; 'I' for Inactive)
    1  A    between atoms: C_4  and  C_25
    2  A    between atoms: C_4  and  C_32
    3  A    between atoms: C_5  and  C_34
    4  A    between atoms: C_7  and  C_34
    5  A    between atoms: C_7  and  C_35
    6  A    between atoms: N_27  and  C_32
                            x       y       z     vdW  Elec       q    Type
                         _______ _______ _______ _____ _____    ______ ____

>  <TORSDO>
F 6

$$$$
