=
 OpenBabel11042414103D

 49 53  0  0  1  0  0  0  0  0999 V2000
  188.6670  176.6370  146.1820 C   0  0  0  0  0  0  0  0  0  0  0  0
  190.9980  175.8730  146.5470 C   0  0  0  0  0  0  0  0  0  0  0  0
  192.3620  175.8720  146.2560 C   0  0  0  0  0  3  0  0  0  0  0  0
  188.2340  175.7040  146.9790 N   0  0  0  0  0  0  0  0  0  0  0  0
  189.0810  174.5990  147.4440 C   0  0  0  0  0  2  0  0  0  0  0  0
  191.9770  177.3850  144.4120 C   0  0  0  0  0  3  0  0  0  0  0  0
  190.1050  176.6590  145.7900 C   0  0  0  0  0  0  0  0  0  0  0  0
  190.6080  177.4170  144.7040 C   0  0  0  0  0  0  0  0  0  0  0  0
  192.8540  176.6170  145.1770 C   0  0  0  0  0  0  0  0  0  0  0  0
  190.5000  175.0920  147.7230 C   0  0  0  0  0  2  0  0  0  0  0  0
  194.3160  176.6740  144.8610 C   0  0  0  0  0  2  0  0  0  0  0  0
  195.8740  176.0140  142.9730 C   0  0  0  0  0  0  0  0  0  0  0  0
  196.8540  175.9540  143.7680 O   0  0  0  0  0  0  0  0  0  0  0  0
  194.5760  176.3880  143.4550 N   0  0  0  0  0  2  0  0  0  0  0  0
  195.0980  175.4690  140.7140 O   0  0  0  0  0  0  0  0  0  0  0  0
  197.2940  175.6470  140.9080 C   0  0  0  0  0  3  0  0  0  0  0  0
  196.9850  175.3430  139.5950 C   0  0  0  0  0  3  0  0  0  0  0  0
  195.6040  175.2400  139.5270 C   0  0  0  0  0  3  0  0  0  0  0  0
  196.0750  175.7140  141.5530 C   0  0  0  0  0  0  0  0  0  0  0  0
  189.7230  178.2230  143.8070 C   0  0  0  0  0  2  0  0  0  0  0  0
  189.1490  178.5730  141.5290 O   0  0  0  0  0  1  0  0  0  0  0  0
  189.6570  177.6200  142.4120 C   0  0  2  0  0  3  0  0  0  0  0  0
  188.7580  176.3920  142.4030 C   0  0  0  0  0  2  0  0  0  0  0  0
  189.5870  175.1200  142.3390 C   0  0  0  0  0  2  0  0  0  0  0  0
  188.8690  173.9660  143.0220 C   0  0  0  0  0  2  0  0  0  0  0  0
  195.8010  172.8890  144.8580 O   0  0  0  0  0  0  0  0  0  0  0  0
  189.8800  173.0670  143.7140 C   0  0  1  0  0  3  0  0  0  0  0  0
  191.1080  170.9660  142.7920 C   0  0  1  0  0  3  0  0  0  0  0  0
  193.5790  173.2530  144.3460 O   0  0  0  0  0  0  0  0  0  0  0  0
  191.4230  171.3380  141.4850 O   0  0  0  0  0  1  0  0  0  0  0  0
  193.2710  170.5000  144.0020 C   0  0  0  0  0  0  0  0  0  0  0  0
  192.2450  171.3400  143.7130 C   0  0  0  0  0  0  0  0  0  0  0  0
  189.7770  171.6150  143.2040 C   0  0  0  0  0  2  0  0  0  0  0  0
  192.2530  172.7230  144.3300 C   0  0  2  0  0  3  0  0  0  0  0  0
  194.6390  172.4220  144.7140 C   0  0  0  0  0  0  0  0  0  0  0  0
  191.2840  173.6580  143.6180 C   0  0  0  0  0  2  0  0  0  0  0  0
  194.3750  170.9610  144.9270 C   0  0  0  0  0  2  0  0  0  0  0  0
  194.0260  168.8360  142.2950 C   0  0  0  0  0  1  0  0  0  0  0  0
  193.3760  169.1900  143.5120 O   0  0  0  0  0  0  0  0  0  0  0  0
  187.8040  177.6530  145.7550 O   0  0  0  0  0  0  0  0  0  0  0  0
  186.4160  177.6740  146.0650 C   0  0  0  0  0  2  0  0  0  0  0  0
  185.6110  177.2170  144.8610 C   0  0  0  0  0  2  0  0  0  0  0  0
  184.1630  178.9470  145.6330 O   0  0  0  0  0  1  0  0  0  0  0  0
  184.5610  178.2530  144.4900 C   0  0  1  0  0  3  0  0  0  0  0  0
  185.0700  179.2280  143.4300 C   0  0  0  0  0  2  0  0  0  0  0  0
  185.4140  178.2260  141.1450 C   0  0  0  0  0  0  0  0  0  0  0  0
  186.1670  177.6570  140.3130 O   0  0  0  0  0  0  0  0  0  0  0  0
  185.9060  178.5500  142.4470 N   0  0  0  0  0  2  0  0  0  0  0  0
  184.1110  178.5430  140.7800 O   0  0  0  0  0  1  0  0  0  0  0  0
  1  4  2  0  0  0  0
  2 10  1  0  0  0  0
  3  2  1  0  0  0  0
  4  5  1  0  0  0  0
  5 10  1  0  0  0  0
  6  8  2  0  0  0  0
  6  9  1  0  0  0  0
  7  1  1  0  0  0  0
  7  2  2  0  0  0  0
  8  7  1  0  0  0  0
  9  3  2  0  0  0  0
 11  9  1  0  0  0  0
 12 14  1  0  0  0  0
 12 13  2  0  0  0  0
 14 11  1  0  0  0  0
 15 19  1  0  0  0  0
 16 19  2  0  0  0  0
 17 16  1  0  0  0  0
 18 17  2  0  0  0  0
 18 15  1  0  0  0  0
 19 12  1  0  0  0  0
 20  8  1  0  0  0  0
 22 21  1  6  0  0  0
 22 20  1  0  0  0  0
 23 22  1  0  0  0  0
 24 23  1  0  0  0  0
 24 25  1  0  0  0  0
 27 25  1  6  0  0  0
 28 30  1  6  0  0  0
 28 33  1  0  0  0  0
 28 32  1  0  0  0  0
 29 35  1  0  0  0  0
 31 37  1  0  0  0  0
 32 31  2  0  0  0  0
 32 34  1  0  0  0  0
 33 27  1  0  0  0  0
 34 36  1  6  0  0  0
 34 29  1  0  0  0  0
 35 26  2  0  0  0  0
 35 37  1  0  0  0  0
 36 27  1  0  0  0  0
 38 39  1  0  0  0  0
 39 31  1  0  0  0  0
 40 41  1  0  0  0  0
 40  1  1  0  0  0  0
 42 41  1  0  0  0  0
 44 42  1  0  0  0  0
 44 43  1  1  0  0  0
 45 44  1  0  0  0  0
 46 48  1  0  0  0  0
 47 46  2  0  0  0  0
 48 45  1  0  0  0  0
 49 46  1  0  0  0  0
M  END
>  <MODEL>
1

>  <REMARK>
 VINA RESULT:      -7.2      0.000      0.000
  Name = 
  16 active torsions:
  status: ('A' for Active; 'I' for Inactive)
    1  A    between atoms: C_1  and  O_14
    2  A    between atoms: C_3  and  C_43
    3  A    between atoms: C_4  and  C_19
    4  A    between atoms: C_4  and  C_45
    5  A    between atoms: C_11  and  C_29
    6  A    between atoms: O_14  and  C_19
    7  A    between atoms: C_17  and  O_27
    8  A    between atoms: C_21  and  C_32
    9  A    between atoms: C_21  and  C_40
   10  A    between atoms: C_29  and  C_32
   11  A    between atoms: C_30  and  C_39
   12  A    between atoms: C_30  and  C_40
   13  A    between atoms: C_35  and  N_41
   14  A    between atoms: C_35  and  C_45
   15  A    between atoms: C_36  and  N_42
   16  A    between atoms: C_36  and  C_47
                            x       y       z     vdW  Elec       q    Type
                         _______ _______ _______ _____ _____    ______ ____

>  <TORSDO>
F 16

$$$$
=
 OpenBabel11042414103D

 49 53  0  0  1  0  0  0  0  0999 V2000
  185.1070  178.2690  144.6290 C   0  0  0  0  0  0  0  0  0  0  0  0
  186.5670  177.7580  146.5670 C   0  0  0  0  0  0  0  0  0  0  0  0
  187.6680  177.1410  147.1610 C   0  0  0  0  0  3  0  0  0  0  0  0
  184.2330  178.8130  145.4270 N   0  0  0  0  0  0  0  0  0  0  0  0
  184.2920  178.6680  146.8860 C   0  0  0  0  0  2  0  0  0  0  0  0
  188.1830  176.0380  145.0740 C   0  0  0  0  0  3  0  0  0  0  0  0
  186.2770  177.5480  145.2030 C   0  0  0  0  0  0  0  0  0  0  0  0
  187.0970  176.6670  144.4550 C   0  0  0  0  0  0  0  0  0  0  0  0
  188.4710  176.2660  146.4190 C   0  0  0  0  0  0  0  0  0  0  0  0
  185.7400  178.7130  147.3720 C   0  0  0  0  0  2  0  0  0  0  0  0
  189.6840  175.6180  147.0110 C   0  0  0  0  0  2  0  0  0  0  0  0
  192.0920  176.2370  146.5180 C   0  0  0  0  0  0  0  0  0  0  0  0
  192.2370  176.7050  147.6820 O   0  0  0  0  0  0  0  0  0  0  0  0
  190.8290  175.6930  146.1110 N   0  0  0  0  0  2  0  0  0  0  0  0
  193.0910  176.1220  144.2840 O   0  0  0  0  0  0  0  0  0  0  0  0
  194.5440  176.4470  145.9190 C   0  0  0  0  0  3  0  0  0  0  0  0
  195.2260  176.4050  144.7170 C   0  0  0  0  0  3  0  0  0  0  0  0
  194.2760  176.1980  143.7290 C   0  0  0  0  0  3  0  0  0  0  0  0
  193.2180  176.2670  145.5800 C   0  0  0  0  0  0  0  0  0  0  0  0
  186.8210  176.3330  143.0230 C   0  0  0  0  0  2  0  0  0  0  0  0
  187.8060  177.7140  141.3600 O   0  0  0  0  0  1  0  0  0  0  0  0
  188.0420  176.5900  142.1540 C   0  0  2  0  0  3  0  0  0  0  0  0
  188.3250  175.3910  141.2610 C   0  0  0  0  0  2  0  0  0  0  0  0
  189.3430  174.4660  141.9090 C   0  0  0  0  0  2  0  0  0  0  0  0
  188.6620  173.2570  142.5330 C   0  0  0  0  0  2  0  0  0  0  0  0
  195.1210  172.8780  145.8040 O   0  0  0  0  0  0  0  0  0  0  0  0
  189.6960  172.3770  143.2140 C   0  0  1  0  0  3  0  0  0  0  0  0
  191.5570  170.9070  142.1430 C   0  0  1  0  0  3  0  0  0  0  0  0
  193.0300  172.9930  144.8320 O   0  0  0  0  0  0  0  0  0  0  0  0
  192.0340  171.7110  141.1080 O   0  0  0  0  0  1  0  0  0  0  0  0
  193.4740  170.4700  143.7240 C   0  0  0  0  0  0  0  0  0  0  0  0
  192.3570  171.1680  143.3980 C   0  0  0  0  0  0  0  0  0  0  0  0
  190.0540  171.1580  142.3400 C   0  0  0  0  0  2  0  0  0  0  0  0
  191.9040  172.2740  144.3290 C   0  0  2  0  0  3  0  0  0  0  0  0
  194.1620  172.2850  145.2420 C   0  0  0  0  0  0  0  0  0  0  0  0
  190.9050  173.2010  143.6500 C   0  0  0  0  0  2  0  0  0  0  0  0
  194.2210  170.8070  144.9950 C   0  0  0  0  0  2  0  0  0  0  0  0
  195.3720  169.0750  142.8840 C   0  0  0  0  0  1  0  0  0  0  0  0
  193.9900  169.4130  142.9600 O   0  0  0  0  0  0  0  0  0  0  0  0
  184.9840  178.4260  143.2430 O   0  0  0  0  0  0  0  0  0  0  0  0
  183.7590  178.2380  142.5460 C   0  0  0  0  0  2  0  0  0  0  0  0
  184.0150  178.2060  141.0500 C   0  0  0  0  0  2  0  0  0  0  0  0
  182.6320  177.1500  139.4190 O   0  0  0  0  0  1  0  0  0  0  0  0
  182.7050  178.2470  140.2770 C   0  0  1  0  0  3  0  0  0  0  0  0
  181.4940  178.2720  141.2070 C   0  0  0  0  0  2  0  0  0  0  0  0
  179.2330  179.3650  141.4090 C   0  0  0  0  0  0  0  0  0  0  0  0
  178.3820  180.1840  140.9740 O   0  0  0  0  0  0  0  0  0  0  0  0
  180.4740  179.1940  140.7210 N   0  0  0  0  0  2  0  0  0  0  0  0
  178.9590  178.6460  142.5660 O   0  0  0  0  0  1  0  0  0  0  0  0
  1  7  1  0  0  0  0
  1  4  2  0  0  0  0
  2  3  1  0  0  0  0
  2 10  1  0  0  0  0
  4  5  1  0  0  0  0
  5 10  1  0  0  0  0
  6  9  1  0  0  0  0
  7  2  2  0  0  0  0
  8  6  2  0  0  0  0
  8  7  1  0  0  0  0
  9 11  1  0  0  0  0
  9  3  2  0  0  0  0
 12 13  2  0  0  0  0
 14 12  1  0  0  0  0
 14 11  1  0  0  0  0
 15 19  1  0  0  0  0
 17 16  1  0  0  0  0
 18 15  1  0  0  0  0
 18 17  2  0  0  0  0
 19 16  2  0  0  0  0
 19 12  1  0  0  0  0
 20  8  1  0  0  0  0
 22 21  1  6  0  0  0
 22 20  1  0  0  0  0
 23 24  1  0  0  0  0
 23 22  1  0  0  0  0
 24 25  1  0  0  0  0
 27 25  1  6  0  0  0
 27 36  1  0  0  0  0
 28 30  1  6  0  0  0
 28 33  1  0  0  0  0
 28 32  1  0  0  0  0
 29 35  1  0  0  0  0
 31 37  1  0  0  0  0
 32 31  2  0  0  0  0
 32 34  1  0  0  0  0
 33 27  1  0  0  0  0
 34 36  1  6  0  0  0
 34 29  1  0  0  0  0
 35 26  2  0  0  0  0
 37 35  1  0  0  0  0
 38 39  1  0  0  0  0
 39 31  1  0  0  0  0
 40  1  1  0  0  0  0
 41 40  1  0  0  0  0
 42 41  1  0  0  0  0
 44 43  1  6  0  0  0
 44 42  1  0  0  0  0
 44 45  1  0  0  0  0
 46 49  1  0  0  0  0
 47 46  2  0  0  0  0
 48 45  1  0  0  0  0
 48 46  1  0  0  0  0
M  END
>  <MODEL>
2

>  <REMARK>
 VINA RESULT:      -6.7      2.363      4.073
  Name = 
  16 active torsions:
  status: ('A' for Active; 'I' for Inactive)
    1  A    between atoms: C_1  and  O_14
    2  A    between atoms: C_3  and  C_43
    3  A    between atoms: C_4  and  C_19
    4  A    between atoms: C_4  and  C_45
    5  A    between atoms: C_11  and  C_29
    6  A    between atoms: O_14  and  C_19
    7  A    between atoms: C_17  and  O_27
    8  A    between atoms: C_21  and  C_32
    9  A    between atoms: C_21  and  C_40
   10  A    between atoms: C_29  and  C_32
   11  A    between atoms: C_30  and  C_39
   12  A    between atoms: C_30  and  C_40
   13  A    between atoms: C_35  and  N_41
   14  A    between atoms: C_35  and  C_45
   15  A    between atoms: C_36  and  N_42
   16  A    between atoms: C_36  and  C_47
                            x       y       z     vdW  Elec       q    Type
                         _______ _______ _______ _____ _____    ______ ____

>  <TORSDO>
F 16

$$$$
=
 OpenBabel11042414103D

 49 53  0  0  1  0  0  0  0  0999 V2000
  195.2850  172.2490  145.4290 C   0  0  0  0  0  0  0  0  0  0  0  0
  193.4170  171.0130  144.3650 C   0  0  0  0  0  0  0  0  0  0  0  0
  192.1120  170.9150  143.8830 C   0  0  0  0  0  3  0  0  0  0  0  0
  195.9600  171.1410  145.5370 N   0  0  0  0  0  0  0  0  0  0  0  0
  195.3590  169.8200  145.3180 C   0  0  0  0  0  2  0  0  0  0  0  0
  191.6510  173.1590  144.6490 C   0  0  0  0  0  3  0  0  0  0  0  0
  193.8690  172.2050  144.9700 C   0  0  0  0  0  0  0  0  0  0  0  0
  192.9640  173.2850  145.1180 C   0  0  0  0  0  0  0  0  0  0  0  0
  191.2190  171.9820  144.0380 C   0  0  0  0  0  0  0  0  0  0  0  0
  194.3620  169.8690  144.1620 C   0  0  0  0  0  2  0  0  0  0  0  0
  189.8250  171.9280  143.4960 C   0  0  0  0  0  2  0  0  0  0  0  0
  189.8300  172.9470  141.1750 C   0  0  0  0  0  0  0  0  0  0  0  0
  189.8210  174.1130  141.6590 O   0  0  0  0  0  0  0  0  0  0  0  0
  189.8140  171.8060  142.0430 N   0  0  0  0  0  2  0  0  0  0  0  0
  189.9740  173.7510  138.8650 O   0  0  0  0  0  0  0  0  0  0  0  0
  189.7210  171.5620  139.0570 C   0  0  0  0  0  3  0  0  0  0  0  0
  189.7920  171.8870  137.7150 C   0  0  0  0  0  3  0  0  0  0  0  0
  189.9470  173.2630  137.6480 C   0  0  0  0  0  3  0  0  0  0  0  0
  189.8430  172.7670  139.7210 C   0  0  0  0  0  0  0  0  0  0  0  0
  193.3380  174.5580  145.8090 C   0  0  0  0  0  2  0  0  0  0  0  0
  192.8860  176.6400  144.7600 O   0  0  0  0  0  1  0  0  0  0  0  0
  192.3080  175.6470  145.5510 C   0  0  2  0  0  3  0  0  0  0  0  0
  191.8350  176.2560  146.8620 C   0  0  0  0  0  2  0  0  0  0  0  0
  190.7120  175.4270  147.4650 C   0  0  0  0  0  2  0  0  0  0  0  0
  189.6640  175.0840  146.4170 C   0  0  0  0  0  2  0  0  0  0  0  0
  183.5570  178.9610  145.9290 O   0  0  0  0  0  0  0  0  0  0  0  0
  188.9980  176.3550  145.9180 C   0  0  1  0  0  3  0  0  0  0  0  0
  188.0350  176.8830  143.5590 C   0  0  1  0  0  3  0  0  0  0  0  0
  185.5260  177.7740  146.1400 O   0  0  0  0  0  0  0  0  0  0  0  0
  187.4060  175.6890  143.2040 O   0  0  0  0  0  1  0  0  0  0  0  0
  186.2780  178.6920  143.6130 C   0  0  0  0  0  0  0  0  0  0  0  0
  187.0490  177.7850  144.2640 C   0  0  0  0  0  0  0  0  0  0  0  0
  189.2730  176.5770  144.4170 C   0  0  0  0  0  2  0  0  0  0  0  0
  186.8990  177.6600  145.7660 C   0  0  2  0  0  3  0  0  0  0  0  0
  184.7350  178.7520  145.5330 C   0  0  0  0  0  0  0  0  0  0  0  0
  187.5150  176.3670  146.2830 C   0  0  0  0  0  2  0  0  0  0  0  0
  185.3080  179.5470  144.3980 C   0  0  0  0  0  2  0  0  0  0  0  0
  185.5890  178.1790  141.2640 C   0  0  0  0  0  1  0  0  0  0  0  0
  186.3300  178.9190  142.2300 O   0  0  0  0  0  0  0  0  0  0  0  0
  195.9100  173.4780  145.6710 O   0  0  0  0  0  0  0  0  0  0  0  0
  197.3090  173.6820  145.5150 C   0  0  0  0  0  2  0  0  0  0  0  0
  197.5730  174.5490  144.2970 C   0  0  0  0  0  2  0  0  0  0  0  0
  196.1320  176.4340  144.0560 O   0  0  0  0  0  1  0  0  0  0  0  0
  196.2690  175.0860  143.7240 C   0  0  1  0  0  3  0  0  0  0  0  0
  196.1920  174.9040  142.2100 C   0  0  0  0  0  2  0  0  0  0  0  0
  193.9430  173.9320  141.6250 C   0  0  0  0  0  0  0  0  0  0  0  0
  193.2420  172.9370  141.3030 O   0  0  0  0  0  0  0  0  0  0  0  0
  195.3440  173.7720  141.8570 N   0  0  0  0  0  2  0  0  0  0  0  0
  193.3440  175.1800  141.7390 O   0  0  0  0  0  1  0  0  0  0  0  0
  1  4  2  0  0  0  0
  1 40  1  0  0  0  0
  2  7  1  0  0  0  0
  3  9  1  0  0  0  0
  3  2  2  0  0  0  0
  5  4  1  0  0  0  0
  6  8  1  0  0  0  0
  7  8  2  0  0  0  0
  7  1  1  0  0  0  0
  8 20  1  0  0  0  0
  9  6  2  0  0  0  0
 10  2  1  0  0  0  0
 10  5  1  0  0  0  0
 11  9  1  0  0  0  0
 12 13  2  0  0  0  0
 12 14  1  0  0  0  0
 14 11  1  0  0  0  0
 15 19  1  0  0  0  0
 16 19  2  0  0  0  0
 17 16  1  0  0  0  0
 18 17  2  0  0  0  0
 18 15  1  0  0  0  0
 19 12  1  0  0  0  0
 22 21  1  6  0  0  0
 22 20  1  0  0  0  0
 22 23  1  0  0  0  0
 23 24  1  0  0  0  0
 25 24  1  0  0  0  0
 27 36  1  0  0  0  0
 27 25  1  6  0  0  0
 28 30  1  1  0  0  0
 28 32  1  0  0  0  0
 28 33  1  0  0  0  0
 31 32  2  0  0  0  0
 31 37  1  0  0  0  0
 32 34  1  0  0  0  0
 33 27  1  0  0  0  0
 34 29  1  0  0  0  0
 34 36  1  6  0  0  0
 35 26  2  0  0  0  0
 35 29  1  0  0  0  0
 37 35  1  0  0  0  0
 38 39  1  0  0  0  0
 39 31  1  0  0  0  0
 41 40  1  0  0  0  0
 42 41  1  0  0  0  0
 44 43  1  6  0  0  0
 44 42  1  0  0  0  0
 45 44  1  0  0  0  0
 46 49  1  0  0  0  0
 46 48  1  0  0  0  0
 47 46  2  0  0  0  0
 48 45  1  0  0  0  0
M  END
>  <MODEL>
3

>  <REMARK>
 VINA RESULT:      -6.6      2.471      8.458
  Name = 
  16 active torsions:
  status: ('A' for Active; 'I' for Inactive)
    1  A    between atoms: C_1  and  O_14
    2  A    between atoms: C_3  and  C_43
    3  A    between atoms: C_4  and  C_19
    4  A    between atoms: C_4  and  C_45
    5  A    between atoms: C_11  and  C_29
    6  A    between atoms: O_14  and  C_19
    7  A    between atoms: C_17  and  O_27
    8  A    between atoms: C_21  and  C_32
    9  A    between atoms: C_21  and  C_40
   10  A    between atoms: C_29  and  C_32
   11  A    between atoms: C_30  and  C_39
   12  A    between atoms: C_30  and  C_40
   13  A    between atoms: C_35  and  N_41
   14  A    between atoms: C_35  and  C_45
   15  A    between atoms: C_36  and  N_42
   16  A    between atoms: C_36  and  C_47
                            x       y       z     vdW  Elec       q    Type
                         _______ _______ _______ _____ _____    ______ ____

>  <TORSDO>
F 16

$$$$
=
 OpenBabel11042414103D

 49 53  0  0  1  0  0  0  0  0999 V2000
  185.2070  178.2440  144.6990 C   0  0  0  0  0  0  0  0  0  0  0  0
  186.4370  177.4060  146.6820 C   0  0  0  0  0  0  0  0  0  0  0  0
  187.4510  176.6650  147.2890 C   0  0  0  0  0  3  0  0  0  0  0  0
  184.2680  178.7060  145.4730 N   0  0  0  0  0  0  0  0  0  0  0  0
  184.1670  178.3560  146.8940 C   0  0  0  0  0  2  0  0  0  0  0  0
  188.1580  175.8460  145.1290 C   0  0  0  0  0  3  0  0  0  0  0  0
  186.2900  177.4020  145.2790 C   0  0  0  0  0  0  0  0  0  0  0  0
  187.1610  176.6010  144.5000 C   0  0  0  0  0  0  0  0  0  0  0  0
  188.3060  175.8700  146.5160 C   0  0  0  0  0  0  0  0  0  0  0  0
  185.5550  178.2710  147.5270 C   0  0  0  0  0  2  0  0  0  0  0  0
  189.4310  175.0960  147.1280 C   0  0  0  0  0  2  0  0  0  0  0  0
  191.7490  176.1070  146.9580 C   0  0  0  0  0  0  0  0  0  0  0  0
  191.6090  176.6800  148.0740 O   0  0  0  0  0  0  0  0  0  0  0  0
  190.6850  175.3110  146.4170 N   0  0  0  0  0  2  0  0  0  0  0  0
  193.1020  176.9750  145.1090 O   0  0  0  0  0  0  0  0  0  0  0  0
  194.2190  175.7240  146.5510 C   0  0  0  0  0  3  0  0  0  0  0  0
  195.0880  176.1520  145.5640 C   0  0  0  0  0  3  0  0  0  0  0  0
  194.3430  176.9260  144.6890 C   0  0  0  0  0  3  0  0  0  0  0  0
  192.9990  176.2720  146.2100 C   0  0  0  0  0  0  0  0  0  0  0  0
  187.0320  176.4830  143.0140 C   0  0  0  0  0  2  0  0  0  0  0  0
  189.1640  177.0830  142.1560 O   0  0  0  0  0  1  0  0  0  0  0  0
  188.3260  175.9900  142.3860 C   0  0  2  0  0  3  0  0  0  0  0  0
  188.0460  175.2810  141.0700 C   0  0  0  0  0  2  0  0  0  0  0  0
  188.7450  173.9320  141.0270 C   0  0  0  0  0  2  0  0  0  0  0  0
  189.2830  173.5530  142.3980 C   0  0  0  0  0  2  0  0  0  0  0  0
  195.6100  172.5000  145.7800 O   0  0  0  0  0  0  0  0  0  0  0  0
  190.7350  173.1200  142.2810 C   0  0  1  0  0  3  0  0  0  0  0  0
  192.8030  174.5070  141.5270 C   0  0  1  0  0  3  0  0  0  0  0  0
  193.5840  172.7590  144.7030 O   0  0  0  0  0  0  0  0  0  0  0  0
  192.5870  175.7440  142.1350 O   0  0  0  0  0  1  0  0  0  0  0  0
  194.9700  173.5780  142.4230 C   0  0  0  0  0  0  0  0  0  0  0  0
  193.6150  173.6260  142.4470 C   0  0  0  0  0  0  0  0  0  0  0  0
  191.4530  173.8780  141.1470 C   0  0  0  0  0  2  0  0  0  0  0  0
  192.8840  172.7680  143.4590 C   0  0  2  0  0  3  0  0  0  0  0  0
  194.9760  172.6360  144.7000 C   0  0  0  0  0  0  0  0  0  0  0  0
  191.4390  173.2170  143.6320 C   0  0  0  0  0  2  0  0  0  0  0  0
  195.7040  172.6740  143.3890 C   0  0  0  0  0  2  0  0  0  0  0  0
  196.7360  175.2760  141.9160 C   0  0  0  0  0  1  0  0  0  0  0  0
  195.7660  174.3070  141.5270 O   0  0  0  0  0  0  0  0  0  0  0  0
  185.2380  178.5990  143.3450 O   0  0  0  0  0  0  0  0  0  0  0  0
  184.0640  178.8050  142.5690 C   0  0  0  0  0  2  0  0  0  0  0  0
  184.2260  178.1590  141.2040 C   0  0  0  0  0  2  0  0  0  0  0  0
  182.8600  177.1800  139.5130 O   0  0  0  0  0  1  0  0  0  0  0  0
  182.9320  178.2470  140.4080 C   0  0  1  0  0  3  0  0  0  0  0  0
  181.7030  178.2600  141.3160 C   0  0  0  0  0  2  0  0  0  0  0  0
  179.3970  179.2440  141.0820 C   0  0  0  0  0  0  0  0  0  0  0  0
  178.6600  180.2280  140.8100 O   0  0  0  0  0  0  0  0  0  0  0  0
  180.8170  179.3700  140.9880 N   0  0  0  0  0  2  0  0  0  0  0  0
  178.8150  178.0470  141.4830 O   0  0  0  0  0  1  0  0  0  0  0  0
  1  7  1  0  0  0  0
  1  4  2  0  0  0  0
  2  3  1  0  0  0  0
  2 10  1  0  0  0  0
  4  5  1  0  0  0  0
  5 10  1  0  0  0  0
  6  9  1  0  0  0  0
  7  2  2  0  0  0  0
  8  6  2  0  0  0  0
  8  7  1  0  0  0  0
  9 11  1  0  0  0  0
  9  3  2  0  0  0  0
 12 13  2  0  0  0  0
 14 12  1  0  0  0  0
 14 11  1  0  0  0  0
 15 19  1  0  0  0  0
 17 16  1  0  0  0  0
 18 15  1  0  0  0  0
 18 17  2  0  0  0  0
 19 16  2  0  0  0  0
 19 12  1  0  0  0  0
 20  8  1  0  0  0  0
 22 21  1  6  0  0  0
 22 20  1  0  0  0  0
 23 22  1  0  0  0  0
 24 23  1  0  0  0  0
 24 25  1  0  0  0  0
 27 25  1  1  0  0  0
 27 36  1  0  0  0  0
 28 30  1  1  0  0  0
 28 32  1  0  0  0  0
 31 32  2  0  0  0  0
 31 37  1  0  0  0  0
 32 34  1  0  0  0  0
 33 28  1  0  0  0  0
 33 27  1  0  0  0  0
 34 36  1  1  0  0  0
 34 29  1  0  0  0  0
 35 29  1  0  0  0  0
 35 26  2  0  0  0  0
 37 35  1  0  0  0  0
 39 38  1  0  0  0  0
 39 31  1  0  0  0  0
 40  1  1  0  0  0  0
 41 40  1  0  0  0  0
 42 41  1  0  0  0  0
 44 43  1  6  0  0  0
 44 42  1  0  0  0  0
 44 45  1  0  0  0  0
 46 49  1  0  0  0  0
 47 46  2  0  0  0  0
 48 46  1  0  0  0  0
 48 45  1  0  0  0  0
M  END
>  <MODEL>
4

>  <REMARK>
 VINA RESULT:      -6.6      2.487      4.567
  Name = 
  16 active torsions:
  status: ('A' for Active; 'I' for Inactive)
    1  A    between atoms: C_1  and  O_14
    2  A    between atoms: C_3  and  C_43
    3  A    between atoms: C_4  and  C_19
    4  A    between atoms: C_4  and  C_45
    5  A    between atoms: C_11  and  C_29
    6  A    between atoms: O_14  and  C_19
    7  A    between atoms: C_17  and  O_27
    8  A    between atoms: C_21  and  C_32
    9  A    between atoms: C_21  and  C_40
   10  A    between atoms: C_29  and  C_32
   11  A    between atoms: C_30  and  C_39
   12  A    between atoms: C_30  and  C_40
   13  A    between atoms: C_35  and  N_41
   14  A    between atoms: C_35  and  C_45
   15  A    between atoms: C_36  and  N_42
   16  A    between atoms: C_36  and  C_47
                            x       y       z     vdW  Elec       q    Type
                         _______ _______ _______ _____ _____    ______ ____

>  <TORSDO>
F 16

$$$$
=
 OpenBabel11042414103D

 49 53  0  0  1  0  0  0  0  0999 V2000
  194.6380  171.7610  145.3970 C   0  0  0  0  0  0  0  0  0  0  0  0
  192.6250  171.4130  143.9910 C   0  0  0  0  0  0  0  0  0  0  0  0
  191.4780  171.8620  143.3370 C   0  0  0  0  0  3  0  0  0  0  0  0
  194.8000  170.4730  145.4890 N   0  0  0  0  0  0  0  0  0  0  0  0
  193.7720  169.5110  145.0730 C   0  0  0  0  0  2  0  0  0  0  0  0
  191.8180  174.0760  144.2420 C   0  0  0  0  0  3  0  0  0  0  0  0
  193.4070  172.3030  144.7570 C   0  0  0  0  0  0  0  0  0  0  0  0
  192.9860  173.6500  144.8860 C   0  0  0  0  0  0  0  0  0  0  0  0
  191.0620  173.1920  143.4730 C   0  0  0  0  0  0  0  0  0  0  0  0
  193.0660  169.9940  143.8070 C   0  0  0  0  0  2  0  0  0  0  0  0
  189.8600  173.7190  142.7530 C   0  0  0  0  0  2  0  0  0  0  0  0
  189.8260  173.0420  140.3110 C   0  0  0  0  0  0  0  0  0  0  0  0
  189.3100  171.9270  140.6000 O   0  0  0  0  0  0  0  0  0  0  0  0
  190.1440  173.9810  141.3470 N   0  0  0  0  0  2  0  0  0  0  0  0
  189.3050  174.0540  138.1410 O   0  0  0  0  0  0  0  0  0  0  0  0
  191.2490  173.0030  138.2160 C   0  0  0  0  0  3  0  0  0  0  0  0
  191.0740  173.5290  136.9490 C   0  0  0  0  0  3  0  0  0  0  0  0
  189.8460  174.1720  136.9530 C   0  0  0  0  0  3  0  0  0  0  0  0
  190.1130  173.3660  138.9100 C   0  0  0  0  0  0  0  0  0  0  0  0
  193.7160  174.6430  145.7350 C   0  0  0  0  0  2  0  0  0  0  0  0
  193.8050  176.9740  145.2900 O   0  0  0  0  0  1  0  0  0  0  0  0
  192.9750  175.9700  145.7890 C   0  0  2  0  0  3  0  0  0  0  0  0
  192.5800  176.3040  147.2200 C   0  0  0  0  0  2  0  0  0  0  0  0
  191.0880  176.5750  147.3160 C   0  0  0  0  0  2  0  0  0  0  0  0
  190.3010  175.2760  147.3940 C   0  0  0  0  0  2  0  0  0  0  0  0
  187.1400  178.2880  141.6050 O   0  0  0  0  0  0  0  0  0  0  0  0
  189.0570  175.3730  146.5270 C   0  0  1  0  0  3  0  0  0  0  0  0
  186.9250  176.8240  146.8780 C   0  0  1  0  0  3  0  0  0  0  0  0
  188.1560  177.2640  143.4080 O   0  0  0  0  0  0  0  0  0  0  0  0
  187.4440  178.0360  147.3320 O   0  0  0  0  0  1  0  0  0  0  0  0
  185.6940  177.2710  144.7220 C   0  0  0  0  0  0  0  0  0  0  0  0
  186.8090  176.8530  145.3720 C   0  0  0  0  0  0  0  0  0  0  0  0
  187.8050  175.6680  147.3790 C   0  0  0  0  0  2  0  0  0  0  0  0
  188.0000  176.4150  144.5450 C   0  0  2  0  0  3  0  0  0  0  0  0
  187.0250  177.6440  142.6830 C   0  0  0  0  0  0  0  0  0  0  0  0
  189.2710  176.3600  145.3820 C   0  0  0  0  0  2  0  0  0  0  0  0
  185.6690  177.2800  143.2100 C   0  0  0  0  0  2  0  0  0  0  0  0
  184.2370  179.0330  145.7370 C   0  0  0  0  0  1  0  0  0  0  0  0
  184.5190  177.6870  145.3670 O   0  0  0  0  0  0  0  0  0  0  0  0
  195.6480  172.6280  145.8310 O   0  0  0  0  0  0  0  0  0  0  0  0
  197.0000  172.5200  145.4050 C   0  0  0  0  0  2  0  0  0  0  0  0
  197.6010  173.9040  145.2340 C   0  0  0  0  0  2  0  0  0  0  0  0
  196.9780  173.3410  143.0020 O   0  0  0  0  0  1  0  0  0  0  0  0
  197.4480  174.3850  143.7980 C   0  0  1  0  0  3  0  0  0  0  0  0
  196.5140  175.5900  143.6950 C   0  0  0  0  0  2  0  0  0  0  0  0
  195.4460  176.1610  141.4870 C   0  0  0  0  0  0  0  0  0  0  0  0
  194.5590  175.9390  140.6220 O   0  0  0  0  0  0  0  0  0  0  0  0
  195.4890  175.3770  142.6810 N   0  0  0  0  0  2  0  0  0  0  0  0
  196.3830  177.1620  141.2620 O   0  0  0  0  0  1  0  0  0  0  0  0
  1  4  2  0  0  0  0
  1 40  1  0  0  0  0
  2  7  1  0  0  0  0
  3  9  1  0  0  0  0
  3  2  2  0  0  0  0
  5  4  1  0  0  0  0
  6  8  1  0  0  0  0
  7  8  2  0  0  0  0
  7  1  1  0  0  0  0
  8 20  1  0  0  0  0
  9  6  2  0  0  0  0
 10  2  1  0  0  0  0
 10  5  1  0  0  0  0
 11  9  1  0  0  0  0
 12 13  2  0  0  0  0
 12 14  1  0  0  0  0
 14 11  1  0  0  0  0
 15 19  1  0  0  0  0
 16 19  2  0  0  0  0
 17 18  2  0  0  0  0
 17 16  1  0  0  0  0
 18 15  1  0  0  0  0
 19 12  1  0  0  0  0
 20 22  1  0  0  0  0
 22 21  1  1  0  0  0
 22 23  1  0  0  0  0
 23 24  1  0  0  0  0
 24 25  1  0  0  0  0
 26 35  2  0  0  0  0
 27 33  1  0  0  0  0
 27 25  1  1  0  0  0
 28 30  1  6  0  0  0
 28 33  1  0  0  0  0
 29 34  1  0  0  0  0
 31 39  1  0  0  0  0
 31 32  2  0  0  0  0
 32 28  1  0  0  0  0
 34 32  1  0  0  0  0
 34 36  1  1  0  0  0
 35 37  1  0  0  0  0
 35 29  1  0  0  0  0
 36 27  1  0  0  0  0
 37 31  1  0  0  0  0
 39 38  1  0  0  0  0
 41 40  1  0  0  0  0
 42 41  1  0  0  0  0
 44 43  1  6  0  0  0
 44 42  1  0  0  0  0
 45 44  1  0  0  0  0
 46 48  1  0  0  0  0
 47 46  2  0  0  0  0
 48 45  1  0  0  0  0
 49 46  1  0  0  0  0
M  END
>  <MODEL>
5

>  <REMARK>
 VINA RESULT:      -6.4      2.508      8.433
  Name = 
  16 active torsions:
  status: ('A' for Active; 'I' for Inactive)
    1  A    between atoms: C_1  and  O_14
    2  A    between atoms: C_3  and  C_43
    3  A    between atoms: C_4  and  C_19
    4  A    between atoms: C_4  and  C_45
    5  A    between atoms: C_11  and  C_29
    6  A    between atoms: O_14  and  C_19
    7  A    between atoms: C_17  and  O_27
    8  A    between atoms: C_21  and  C_32
    9  A    between atoms: C_21  and  C_40
   10  A    between atoms: C_29  and  C_32
   11  A    between atoms: C_30  and  C_39
   12  A    between atoms: C_30  and  C_40
   13  A    between atoms: C_35  and  N_41
   14  A    between atoms: C_35  and  C_45
   15  A    between atoms: C_36  and  N_42
   16  A    between atoms: C_36  and  C_47
                            x       y       z     vdW  Elec       q    Type
                         _______ _______ _______ _____ _____    ______ ____

>  <TORSDO>
F 16

$$$$
=
 OpenBabel11042414103D

 49 53  0  0  1  0  0  0  0  0999 V2000
  189.4600  175.8750  145.5690 C   0  0  0  0  0  0  0  0  0  0  0  0
  191.8420  176.0350  146.2400 C   0  0  0  0  0  0  0  0  0  0  0  0
  193.2030  176.1580  145.9600 C   0  0  0  0  0  3  0  0  0  0  0  0
  189.1350  175.5620  146.7910 N   0  0  0  0  0  0  0  0  0  0  0  0
  190.1270  175.1980  147.8080 C   0  0  0  0  0  2  0  0  0  0  0  0
  192.7290  176.0870  143.5920 C   0  0  0  0  0  3  0  0  0  0  0  0
  190.8990  175.9700  145.1940 C   0  0  0  0  0  0  0  0  0  0  0  0
  191.3580  175.9870  143.8540 C   0  0  0  0  0  0  0  0  0  0  0  0
  193.6530  176.1690  144.6340 C   0  0  0  0  0  0  0  0  0  0  0  0
  191.3830  176.0560  147.6650 C   0  0  0  0  0  2  0  0  0  0  0  0
  195.1000  176.3410  144.2940 C   0  0  0  0  0  2  0  0  0  0  0  0
  196.6700  175.6150  142.4400 C   0  0  0  0  0  0  0  0  0  0  0  0
  197.6410  175.5690  143.2460 O   0  0  0  0  0  0  0  0  0  0  0  0
  195.3710  176.0140  142.8990 N   0  0  0  0  0  2  0  0  0  0  0  0
  196.0680  175.6280  140.0660 O   0  0  0  0  0  0  0  0  0  0  0  0
  197.9410  174.5480  140.5280 C   0  0  0  0  0  3  0  0  0  0  0  0
  197.7150  174.4860  139.1650 C   0  0  0  0  0  3  0  0  0  0  0  0
  196.5340  175.1720  138.9280 C   0  0  0  0  0  3  0  0  0  0  0  0
  196.8810  175.2740  141.0310 C   0  0  0  0  0  0  0  0  0  0  0  0
  190.4330  175.8520  142.6850 C   0  0  0  0  0  2  0  0  0  0  0  0
  190.2630  174.5780  140.6880 O   0  0  0  0  0  1  0  0  0  0  0  0
  190.5480  174.4750  142.0500 C   0  0  2  0  0  3  0  0  0  0  0  0
  189.5730  173.5040  142.6990 C   0  0  0  0  0  2  0  0  0  0  0  0
  190.2100  172.1340  142.8670 C   0  0  0  0  0  2  0  0  0  0  0  0
  190.6780  171.9220  144.2980 C   0  0  0  0  0  2  0  0  0  0  0  0
  197.3870  173.8370  146.2740 O   0  0  0  0  0  0  0  0  0  0  0  0
  192.1550  171.5640  144.3100 C   0  0  1  0  0  3  0  0  0  0  0  0
  193.9470  171.9360  142.4600 C   0  0  1  0  0  3  0  0  0  0  0  0
  195.2490  173.1770  145.7030 O   0  0  0  0  0  0  0  0  0  0  0  0
  193.6350  173.2070  141.9760 O   0  0  0  0  0  1  0  0  0  0  0  0
  196.2910  172.0190  143.3870 C   0  0  0  0  0  0  0  0  0  0  0  0
  194.9490  172.0540  143.5840 C   0  0  0  0  0  0  0  0  0  0  0  0
  192.6570  171.2210  142.8940 C   0  0  0  0  0  2  0  0  0  0  0  0
  194.4360  172.2400  144.9970 C   0  0  2  0  0  3  0  0  0  0  0  0
  196.6380  173.1080  145.5700 C   0  0  0  0  0  0  0  0  0  0  0  0
  192.9690  172.6500  145.0080 C   0  0  0  0  0  2  0  0  0  0  0  0
  197.2240  172.1570  144.5690 C   0  0  0  0  0  2  0  0  0  0  0  0
  197.3730  170.5850  141.6460 C   0  0  0  0  0  1  0  0  0  0  0  0
  196.8970  171.8360  142.1340 O   0  0  0  0  0  0  0  0  0  0  0  0
  188.4650  176.1930  144.6370 O   0  0  0  0  0  0  0  0  0  0  0  0
  187.6350  177.3420  144.7480 C   0  0  0  0  0  2  0  0  0  0  0  0
  186.2180  176.9250  145.0970 C   0  0  0  0  0  2  0  0  0  0  0  0
  184.3720  178.4340  145.0770 O   0  0  0  0  0  1  0  0  0  0  0  0
  185.2080  177.6850  144.2490 C   0  0  1  0  0  3  0  0  0  0  0  0
  185.8890  178.5910  143.2250 C   0  0  0  0  0  2  0  0  0  0  0  0
  186.5220  177.8450  140.9050 C   0  0  0  0  0  0  0  0  0  0  0  0
  186.1770  177.5040  139.7430 O   0  0  0  0  0  0  0  0  0  0  0  0
  185.5290  178.2130  141.8640 N   0  0  0  0  0  2  0  0  0  0  0  0
  187.8700  177.8470  141.2430 O   0  0  0  0  0  1  0  0  0  0  0  0
  1  4  2  0  0  0  0
  2 10  1  0  0  0  0
  3  2  1  0  0  0  0
  4  5  1  0  0  0  0
  6  8  2  0  0  0  0
  6  9  1  0  0  0  0
  7  1  1  0  0  0  0
  7  2  2  0  0  0  0
  8  7  1  0  0  0  0
  9  3  2  0  0  0  0
 10  5  1  0  0  0  0
 11  9  1  0  0  0  0
 12 14  1  0  0  0  0
 12 13  2  0  0  0  0
 14 11  1  0  0  0  0
 15 19  1  0  0  0  0
 16 19  2  0  0  0  0
 17 16  1  0  0  0  0
 18 17  2  0  0  0  0
 18 15  1  0  0  0  0
 19 12  1  0  0  0  0
 20  8  1  0  0  0  0
 22 21  1  6  0  0  0
 22 20  1  0  0  0  0
 22 23  1  0  0  0  0
 23 24  1  0  0  0  0
 24 25  1  0  0  0  0
 27 25  1  6  0  0  0
 27 36  1  0  0  0  0
 28 30  1  1  0  0  0
 28 33  1  0  0  0  0
 28 32  1  0  0  0  0
 31 32  2  0  0  0  0
 31 37  1  0  0  0  0
 32 34  1  0  0  0  0
 33 27  1  0  0  0  0
 34 36  1  6  0  0  0
 34 29  1  0  0  0  0
 35 29  1  0  0  0  0
 35 26  2  0  0  0  0
 37 35  1  0  0  0  0
 38 39  1  0  0  0  0
 39 31  1  0  0  0  0
 40 41  1  0  0  0  0
 40  1  1  0  0  0  0
 41 42  1  0  0  0  0
 44 43  1  1  0  0  0
 44 42  1  0  0  0  0
 45 44  1  0  0  0  0
 46 49  1  0  0  0  0
 46 48  1  0  0  0  0
 47 46  2  0  0  0  0
 48 45  1  0  0  0  0
M  END
>  <MODEL>
6

>  <REMARK>
 VINA RESULT:      -6.4      1.550      2.234
  Name = 
  16 active torsions:
  status: ('A' for Active; 'I' for Inactive)
    1  A    between atoms: C_1  and  O_14
    2  A    between atoms: C_3  and  C_43
    3  A    between atoms: C_4  and  C_19
    4  A    between atoms: C_4  and  C_45
    5  A    between atoms: C_11  and  C_29
    6  A    between atoms: O_14  and  C_19
    7  A    between atoms: C_17  and  O_27
    8  A    between atoms: C_21  and  C_32
    9  A    between atoms: C_21  and  C_40
   10  A    between atoms: C_29  and  C_32
   11  A    between atoms: C_30  and  C_39
   12  A    between atoms: C_30  and  C_40
   13  A    between atoms: C_35  and  N_41
   14  A    between atoms: C_35  and  C_45
   15  A    between atoms: C_36  and  N_42
   16  A    between atoms: C_36  and  C_47
                            x       y       z     vdW  Elec       q    Type
                         _______ _______ _______ _____ _____    ______ ____

>  <TORSDO>
F 16

$$$$
=
 OpenBabel11042414103D

 49 53  0  0  1  0  0  0  0  0999 V2000
  189.0490  176.6990  146.3440 C   0  0  0  0  0  0  0  0  0  0  0  0
  191.3180  175.7530  146.6720 C   0  0  0  0  0  0  0  0  0  0  0  0
  192.6720  175.6410  146.3540 C   0  0  0  0  0  3  0  0  0  0  0  0
  188.5590  175.8100  147.1600 N   0  0  0  0  0  0  0  0  0  0  0  0
  189.3240  174.6460  147.6200 C   0  0  0  0  0  2  0  0  0  0  0  0
  192.3720  177.1640  144.5030 C   0  0  0  0  0  3  0  0  0  0  0  0
  190.4760  176.6020  145.9250 C   0  0  0  0  0  0  0  0  0  0  0  0
  191.0160  177.3070  144.8210 C   0  0  0  0  0  0  0  0  0  0  0  0
  193.2000  176.3340  145.2580 C   0  0  0  0  0  0  0  0  0  0  0  0
  190.7830  175.0250  147.8660 C   0  0  0  0  0  2  0  0  0  0  0  0
  194.6550  176.2710  144.9130 C   0  0  0  0  0  2  0  0  0  0  0  0
  195.9920  176.3340  142.7600 C   0  0  0  0  0  0  0  0  0  0  0  0
  196.8330  177.1220  143.2750 O   0  0  0  0  0  0  0  0  0  0  0  0
  194.8640  175.8840  143.5230 N   0  0  0  0  0  2  0  0  0  0  0  0
  195.1710  175.6670  140.5500 O   0  0  0  0  0  0  0  0  0  0  0  0
  197.3740  175.6640  140.7460 C   0  0  0  0  0  3  0  0  0  0  0  0
  197.0400  175.2750  139.4620 C   0  0  0  0  0  3  0  0  0  0  0  0
  195.6550  175.2910  139.3910 C   0  0  0  0  0  3  0  0  0  0  0  0
  196.1660  175.8950  141.3730 C   0  0  0  0  0  0  0  0  0  0  0  0
  190.1800  178.1740  143.9330 C   0  0  0  0  0  2  0  0  0  0  0  0
  189.0500  178.3040  141.8480 O   0  0  0  0  0  1  0  0  0  0  0  0
  189.8050  177.4480  142.6500 C   0  0  2  0  0  3  0  0  0  0  0  0
  188.9940  176.1990  142.9600 C   0  0  0  0  0  2  0  0  0  0  0  0
  189.5610  174.9940  142.2260 C   0  0  0  0  0  2  0  0  0  0  0  0
  190.3680  174.1120  143.1670 C   0  0  0  0  0  2  0  0  0  0  0  0
  194.3870  172.4130  137.3770 O   0  0  0  0  0  0  0  0  0  0  0  0
  191.0670  173.0190  142.3770 C   0  0  1  0  0  3  0  0  0  0  0  0
  190.0800  171.3930  140.6020 C   0  0  1  0  0  3  0  0  0  0  0  0
  193.1700  172.9470  139.2650 O   0  0  0  0  0  0  0  0  0  0  0  0
  189.2210  172.2140  139.8710 O   0  0  0  0  0  1  0  0  0  0  0  0
  191.8330  170.5090  139.0190 C   0  0  0  0  0  0  0  0  0  0  0  0
  191.4500  171.4010  139.9670 C   0  0  0  0  0  0  0  0  0  0  0  0
  190.1070  171.8530  142.0680 C   0  0  0  0  0  2  0  0  0  0  0  0
  192.4410  172.4650  140.3940 C   0  0  2  0  0  3  0  0  0  0  0  0
  193.6360  172.0350  138.3150 C   0  0  0  0  0  0  0  0  0  0  0  0
  191.7540  173.5980  141.1430 C   0  0  0  0  0  2  0  0  0  0  0  0
  193.2230  170.5970  138.4270 C   0  0  0  0  0  2  0  0  0  0  0  0
  190.0680  169.6010  137.4970 C   0  0  0  0  0  1  0  0  0  0  0  0
  191.0210  169.4660  138.5470 O   0  0  0  0  0  0  0  0  0  0  0  0
  188.2620  177.7770  145.9240 O   0  0  0  0  0  0  0  0  0  0  0  0
  186.8690  177.6650  145.6590 C   0  0  0  0  0  2  0  0  0  0  0  0
  186.5060  178.4930  144.4400 C   0  0  0  0  0  2  0  0  0  0  0  0
  184.6700  180.0040  144.2630 O   0  0  0  0  0  1  0  0  0  0  0  0
  184.9970  178.6500  144.3230 C   0  0  1  0  0  3  0  0  0  0  0  0
  184.4380  177.9160  143.1050 C   0  0  0  0  0  2  0  0  0  0  0  0
  185.4500  177.9340  140.7990 C   0  0  0  0  0  0  0  0  0  0  0  0
  186.3930  177.6220  140.0260 O   0  0  0  0  0  0  0  0  0  0  0  0
  185.5010  177.5540  142.1750 N   0  0  0  0  0  2  0  0  0  0  0  0
  184.3730  178.6590  140.3030 O   0  0  0  0  0  1  0  0  0  0  0  0
  1  4  2  0  0  0  0
  2 10  1  0  0  0  0
  3  2  1  0  0  0  0
  4  5  1  0  0  0  0
  5 10  1  0  0  0  0
  6  8  2  0  0  0  0
  6  9  1  0  0  0  0
  7  1  1  0  0  0  0
  7  2  2  0  0  0  0
  8  7  1  0  0  0  0
  9  3  2  0  0  0  0
 11  9  1  0  0  0  0
 12 13  2  0  0  0  0
 12 14  1  0  0  0  0
 14 11  1  0  0  0  0
 15 19  1  0  0  0  0
 16 19  2  0  0  0  0
 17 16  1  0  0  0  0
 18 17  2  0  0  0  0
 18 15  1  0  0  0  0
 19 12  1  0  0  0  0
 20  8  1  0  0  0  0
 22 21  1  6  0  0  0
 22 23  1  0  0  0  0
 22 20  1  0  0  0  0
 24 23  1  0  0  0  0
 24 25  1  0  0  0  0
 26 35  2  0  0  0  0
 27 25  1  6  0  0  0
 28 30  1  6  0  0  0
 28 33  1  0  0  0  0
 29 34  1  0  0  0  0
 31 32  2  0  0  0  0
 32 34  1  0  0  0  0
 32 28  1  0  0  0  0
 33 27  1  0  0  0  0
 34 36  1  6  0  0  0
 35 37  1  0  0  0  0
 35 29  1  0  0  0  0
 36 27  1  0  0  0  0
 37 31  1  0  0  0  0
 38 39  1  0  0  0  0
 39 31  1  0  0  0  0
 40  1  1  0  0  0  0
 41 40  1  0  0  0  0
 42 41  1  0  0  0  0
 44 43  1  6  0  0  0
 44 42  1  0  0  0  0
 45 44  1  0  0  0  0
 46 48  1  0  0  0  0
 47 46  2  0  0  0  0
 48 45  1  0  0  0  0
 49 46  1  0  0  0  0
M  END
>  <MODEL>
7

>  <REMARK>
 VINA RESULT:      -6.4      1.951      2.636
  Name = 
  16 active torsions:
  status: ('A' for Active; 'I' for Inactive)
    1  A    between atoms: C_1  and  O_14
    2  A    between atoms: C_3  and  C_43
    3  A    between atoms: C_4  and  C_19
    4  A    between atoms: C_4  and  C_45
    5  A    between atoms: C_11  and  C_29
    6  A    between atoms: O_14  and  C_19
    7  A    between atoms: C_17  and  O_27
    8  A    between atoms: C_21  and  C_32
    9  A    between atoms: C_21  and  C_40
   10  A    between atoms: C_29  and  C_32
   11  A    between atoms: C_30  and  C_39
   12  A    between atoms: C_30  and  C_40
   13  A    between atoms: C_35  and  N_41
   14  A    between atoms: C_35  and  C_45
   15  A    between atoms: C_36  and  N_42
   16  A    between atoms: C_36  and  C_47
                            x       y       z     vdW  Elec       q    Type
                         _______ _______ _______ _____ _____    ______ ____

>  <TORSDO>
F 16

$$$$
=
 OpenBabel11042414103D

 49 53  0  0  1  0  0  0  0  0999 V2000
  188.8680  175.9090  145.2620 C   0  0  0  0  0  0  0  0  0  0  0  0
  191.1800  176.1930  146.1120 C   0  0  0  0  0  0  0  0  0  0  0  0
  192.5530  176.3610  145.9360 C   0  0  0  0  0  3  0  0  0  0  0  0
  188.4570  175.6290  146.4650 N   0  0  0  0  0  0  0  0  0  0  0  0
  189.3770  175.3450  147.5730 C   0  0  0  0  0  2  0  0  0  0  0  0
  192.2760  176.1820  143.5430 C   0  0  0  0  0  3  0  0  0  0  0  0
  190.3270  176.0490  144.9980 C   0  0  0  0  0  0  0  0  0  0  0  0
  190.8920  176.0350  143.6990 C   0  0  0  0  0  0  0  0  0  0  0  0
  193.1080  176.3400  144.6510 C   0  0  0  0  0  0  0  0  0  0  0  0
  190.6060  176.2480  147.4940 C   0  0  0  0  0  2  0  0  0  0  0  0
  194.5710  176.5590  144.4200 C   0  0  0  0  0  2  0  0  0  0  0  0
  196.3420  176.1580  142.6520 C   0  0  0  0  0  0  0  0  0  0  0  0
  197.1780  176.8530  143.2940 O   0  0  0  0  0  0  0  0  0  0  0  0
  195.0090  175.9860  143.1530 N   0  0  0  0  0  2  0  0  0  0  0  0
  197.5360  176.1090  140.5130 O   0  0  0  0  0  0  0  0  0  0  0  0
  196.3360  174.2990  140.9320 C   0  0  0  0  0  3  0  0  0  0  0  0
  196.9580  174.1480  139.7070 C   0  0  0  0  0  3  0  0  0  0  0  0
  197.6920  175.3030  139.4900 C   0  0  0  0  0  3  0  0  0  0  0  0
  196.7370  175.5400  141.3830 C   0  0  0  0  0  0  0  0  0  0  0  0
  190.0710  175.8180  142.4670 C   0  0  0  0  0  2  0  0  0  0  0  0
  190.2390  174.4120  140.5610 O   0  0  0  0  0  1  0  0  0  0  0  0
  190.2140  174.3930  141.9560 C   0  0  2  0  0  3  0  0  0  0  0  0
  189.0480  173.5360  142.4290 C   0  0  0  0  0  2  0  0  0  0  0  0
  189.5490  172.2270  143.0180 C   0  0  0  0  0  2  0  0  0  0  0  0
  190.0810  172.4320  144.4280 C   0  0  0  0  0  2  0  0  0  0  0  0
  197.0140  173.6710  146.1510 O   0  0  0  0  0  0  0  0  0  0  0  0
  191.4880  171.8690  144.5360 C   0  0  1  0  0  3  0  0  0  0  0  0
  193.3010  171.6240  142.6850 C   0  0  1  0  0  3  0  0  0  0  0  0
  194.7980  173.2380  145.6690 O   0  0  0  0  0  0  0  0  0  0  0  0
  193.1770  172.8140  141.9680 O   0  0  0  0  0  1  0  0  0  0  0  0
  195.6390  171.5310  143.6270 C   0  0  0  0  0  0  0  0  0  0  0  0
  194.3180  171.7990  143.7870 C   0  0  0  0  0  0  0  0  0  0  0  0
  191.9230  171.1990  143.2170 C   0  0  0  0  0  2  0  0  0  0  0  0
  193.8490  172.3170  145.1310 C   0  0  2  0  0  3  0  0  0  0  0  0
  196.1600  172.9430  145.5780 C   0  0  0  0  0  0  0  0  0  0  0  0
  192.4600  172.9340  145.0380 C   0  0  0  0  0  2  0  0  0  0  0  0
  196.5910  171.7460  144.7830 C   0  0  0  0  0  2  0  0  0  0  0  0
  196.3360  169.6470  142.1380 C   0  0  0  0  0  1  0  0  0  0  0  0
  196.2010  171.0320  142.4430 O   0  0  0  0  0  0  0  0  0  0  0  0
  187.9400  176.1500  144.2420 O   0  0  0  0  0  0  0  0  0  0  0  0
  187.2640  177.3920  144.0840 C   0  0  0  0  0  2  0  0  0  0  0  0
  185.7620  177.1690  144.1070 C   0  0  0  0  0  2  0  0  0  0  0  0
  184.2540  178.6350  142.9840 O   0  0  0  0  0  1  0  0  0  0  0  0
  185.0200  178.4970  144.1410 C   0  0  1  0  0  3  0  0  0  0  0  0
  184.1340  178.6250  145.3790 C   0  0  0  0  0  2  0  0  0  0  0  0
  185.5220  178.2920  147.4550 C   0  0  0  0  0  0  0  0  0  0  0  0
  185.9100  177.5470  148.3920 O   0  0  0  0  0  1  0  0  0  0  0  0
  184.6230  177.7860  146.4670 N   0  0  0  0  0  2  0  0  0  0  0  0
  185.9660  179.6080  147.4020 O   0  0  0  0  0  0  0  0  0  0  0  0
  1  4  2  0  0  0  0
  2 10  1  0  0  0  0
  3  2  1  0  0  0  0
  4  5  1  0  0  0  0
  6  8  2  0  0  0  0
  6  9  1  0  0  0  0
  7  1  1  0  0  0  0
  7  2  2  0  0  0  0
  8  7  1  0  0  0  0
  9  3  2  0  0  0  0
 10  5  1  0  0  0  0
 11  9  1  0  0  0  0
 12 14  1  0  0  0  0
 12 13  2  0  0  0  0
 14 11  1  0  0  0  0
 15 19  1  0  0  0  0
 16 19  2  0  0  0  0
 17 16  1  0  0  0  0
 18 17  2  0  0  0  0
 18 15  1  0  0  0  0
 19 12  1  0  0  0  0
 20  8  1  0  0  0  0
 22 21  1  6  0  0  0
 22 23  1  0  0  0  0
 22 20  1  0  0  0  0
 23 24  1  0  0  0  0
 24 25  1  0  0  0  0
 27 25  1  6  0  0  0
 27 36  1  0  0  0  0
 28 30  1  1  0  0  0
 28 33  1  0  0  0  0
 28 32  1  0  0  0  0
 31 32  2  0  0  0  0
 31 37  1  0  0  0  0
 32 34  1  0  0  0  0
 33 27  1  0  0  0  0
 34 36  1  6  0  0  0
 34 29  1  0  0  0  0
 35 29  1  0  0  0  0
 35 26  2  0  0  0  0
 37 35  1  0  0  0  0
 38 39  1  0  0  0  0
 39 31  1  0  0  0  0
 40  1  1  0  0  0  0
 41 42  1  0  0  0  0
 41 40  1  0  0  0  0
 42 44  1  0  0  0  0
 44 43  1  6  0  0  0
 44 45  1  0  0  0  0
 45 48  1  0  0  0  0
 46 47  1  0  0  0  0
 48 46  1  0  0  0  0
 49 46  2  0  0  0  0
M  END
>  <MODEL>
8

>  <REMARK>
 VINA RESULT:      -6.3      1.769      2.701
  Name = 
  16 active torsions:
  status: ('A' for Active; 'I' for Inactive)
    1  A    between atoms: C_1  and  O_14
    2  A    between atoms: C_3  and  C_43
    3  A    between atoms: C_4  and  C_19
    4  A    between atoms: C_4  and  C_45
    5  A    between atoms: C_11  and  C_29
    6  A    between atoms: O_14  and  C_19
    7  A    between atoms: C_17  and  O_27
    8  A    between atoms: C_21  and  C_32
    9  A    between atoms: C_21  and  C_40
   10  A    between atoms: C_29  and  C_32
   11  A    between atoms: C_30  and  C_39
   12  A    between atoms: C_30  and  C_40
   13  A    between atoms: C_35  and  N_41
   14  A    between atoms: C_35  and  C_45
   15  A    between atoms: C_36  and  N_42
   16  A    between atoms: C_36  and  C_47
                            x       y       z     vdW  Elec       q    Type
                         _______ _______ _______ _____ _____    ______ ____

>  <TORSDO>
F 16

$$$$
=
 OpenBabel11042414103D

 49 53  0  0  1  0  0  0  0  0999 V2000
  186.1240  177.8040  144.9230 C   0  0  0  0  0  0  0  0  0  0  0  0
  187.4450  176.5100  146.5750 C   0  0  0  0  0  0  0  0  0  0  0  0
  188.5750  175.7930  146.9700 C   0  0  0  0  0  3  0  0  0  0  0  0
  185.0860  177.7510  145.7080 N   0  0  0  0  0  0  0  0  0  0  0  0
  185.0200  176.8700  146.8790 C   0  0  0  0  0  2  0  0  0  0  0  0
  189.5000  176.0120  144.7500 C   0  0  0  0  0  3  0  0  0  0  0  0
  187.3430  177.0180  145.2630 C   0  0  0  0  0  0  0  0  0  0  0  0
  188.3850  176.7530  144.3410 C   0  0  0  0  0  0  0  0  0  0  0  0
  189.6000  175.5280  146.0540 C   0  0  0  0  0  0  0  0  0  0  0  0
  186.3760  176.8060  147.5810 C   0  0  0  0  0  2  0  0  0  0  0  0
  190.8450  174.7990  146.4530 C   0  0  0  0  0  2  0  0  0  0  0  0
  193.0170  175.8690  145.7040 C   0  0  0  0  0  0  0  0  0  0  0  0
  193.0740  176.5550  146.7630 O   0  0  0  0  0  0  0  0  0  0  0  0
  191.9130  174.9820  145.4790 N   0  0  0  0  0  2  0  0  0  0  0  0
  195.3520  176.0810  144.9930 O   0  0  0  0  0  0  0  0  0  0  0  0
  193.8900  176.0460  143.3340 C   0  0  0  0  0  3  0  0  0  0  0  0
  195.1630  176.1650  142.8050 C   0  0  0  0  0  3  0  0  0  0  0  0
  196.0380  176.1850  143.8800 C   0  0  0  0  0  3  0  0  0  0  0  0
  194.0770  175.9970  144.7010 C   0  0  0  0  0  0  0  0  0  0  0  0
  188.3270  177.1940  142.9130 C   0  0  0  0  0  2  0  0  0  0  0  0
  186.8590  175.3510  142.6150 O   0  0  0  0  0  1  0  0  0  0  0  0
  187.8970  176.0540  142.0030 C   0  0  2  0  0  3  0  0  0  0  0  0
  189.0620  175.1110  141.7410 C   0  0  0  0  0  2  0  0  0  0  0  0
  188.5970  173.6640  141.7600 C   0  0  0  0  0  2  0  0  0  0  0  0
  189.7110  172.7270  141.3190 C   0  0  0  0  0  2  0  0  0  0  0  0
  196.9340  172.2600  141.7500 O   0  0  0  0  0  0  0  0  0  0  0  0
  190.9580  172.9810  142.1500 C   0  0  1  0  0  3  0  0  0  0  0  0
  192.0080  171.5080  144.0210 C   0  0  1  0  0  3  0  0  0  0  0  0
  194.6410  172.4850  141.6000 O   0  0  0  0  0  0  0  0  0  0  0  0
  191.8690  170.2160  143.5150 O   0  0  0  0  0  1  0  0  0  0  0  0
  194.4710  171.9530  144.3350 C   0  0  0  0  0  0  0  0  0  0  0  0
  193.3400  172.0790  143.5960 C   0  0  0  0  0  0  0  0  0  0  0  0
  190.8220  172.3710  143.5600 C   0  0  0  0  0  2  0  0  0  0  0  0
  193.4250  172.8110  142.2720 C   0  0  2  0  0  3  0  0  0  0  0  0
  195.8280  172.4230  142.3330 C   0  0  0  0  0  0  0  0  0  0  0  0
  192.2090  172.5310  141.4000 C   0  0  0  0  0  2  0  0  0  0  0  0
  195.7660  172.5460  143.8260 C   0  0  0  0  0  2  0  0  0  0  0  0
  195.6620  170.6090  146.0760 C   0  0  0  0  0  1  0  0  0  0  0  0
  194.5260  171.3140  145.5830 O   0  0  0  0  0  0  0  0  0  0  0  0
  186.1180  178.6510  143.8090 O   0  0  0  0  0  0  0  0  0  0  0  0
  184.9240  179.1030  143.1820 C   0  0  0  0  0  2  0  0  0  0  0  0
  184.2920  177.9680  142.3960 C   0  0  0  0  0  2  0  0  0  0  0  0
  185.0880  177.8610  140.1510 O   0  0  0  0  0  1  0  0  0  0  0  0
  184.0660  178.3760  140.9470 C   0  0  1  0  0  3  0  0  0  0  0  0
  182.7060  177.9130  140.4280 C   0  0  0  0  0  2  0  0  0  0  0  0
  180.7100  179.0300  141.4840 C   0  0  0  0  0  0  0  0  0  0  0  0
  179.8340  179.0560  142.3870 O   0  0  0  0  0  1  0  0  0  0  0  0
  181.6890  177.9890  141.4710 N   0  0  0  0  0  2  0  0  0  0  0  0
  180.7050  180.0110  140.5000 O   0  0  0  0  0  0  0  0  0  0  0  0
  1  7  1  0  0  0  0
  1  4  2  0  0  0  0
  2  3  1  0  0  0  0
  2 10  1  0  0  0  0
  4  5  1  0  0  0  0
  5 10  1  0  0  0  0
  6  9  1  0  0  0  0
  7  2  2  0  0  0  0
  8  6  2  0  0  0  0
  8  7  1  0  0  0  0
  9 11  1  0  0  0  0
  9  3  2  0  0  0  0
 12 13  2  0  0  0  0
 14 12  1  0  0  0  0
 14 11  1  0  0  0  0
 16 19  2  0  0  0  0
 17 16  1  0  0  0  0
 17 18  2  0  0  0  0
 18 15  1  0  0  0  0
 19 15  1  0  0  0  0
 19 12  1  0  0  0  0
 20  8  1  0  0  0  0
 22 21  1  1  0  0  0
 22 20  1  0  0  0  0
 23 24  1  0  0  0  0
 23 22  1  0  0  0  0
 25 24  1  0  0  0  0
 26 35  2  0  0  0  0
 27 25  1  6  0  0  0
 27 33  1  0  0  0  0
 28 30  1  6  0  0  0
 29 34  1  0  0  0  0
 29 35  1  0  0  0  0
 31 39  1  0  0  0  0
 32 28  1  0  0  0  0
 32 31  2  0  0  0  0
 33 28  1  0  0  0  0
 34 36  1  6  0  0  0
 34 32  1  0  0  0  0
 35 37  1  0  0  0  0
 36 27  1  0  0  0  0
 37 31  1  0  0  0  0
 39 38  1  0  0  0  0
 40  1  1  0  0  0  0
 41 40  1  0  0  0  0
 42 41  1  0  0  0  0
 44 43  1  6  0  0  0
 44 42  1  0  0  0  0
 45 44  1  0  0  0  0
 45 48  1  0  0  0  0
 46 47  1  0  0  0  0
 48 46  1  0  0  0  0
 49 46  2  0  0  0  0
M  END
>  <MODEL>
9

>  <REMARK>
 VINA RESULT:      -6.3      2.252      3.524
  Name = 
  16 active torsions:
  status: ('A' for Active; 'I' for Inactive)
    1  A    between atoms: C_1  and  O_14
    2  A    between atoms: C_3  and  C_43
    3  A    between atoms: C_4  and  C_19
    4  A    between atoms: C_4  and  C_45
    5  A    between atoms: C_11  and  C_29
    6  A    between atoms: O_14  and  C_19
    7  A    between atoms: C_17  and  O_27
    8  A    between atoms: C_21  and  C_32
    9  A    between atoms: C_21  and  C_40
   10  A    between atoms: C_29  and  C_32
   11  A    between atoms: C_30  and  C_39
   12  A    between atoms: C_30  and  C_40
   13  A    between atoms: C_35  and  N_41
   14  A    between atoms: C_35  and  C_45
   15  A    between atoms: C_36  and  N_42
   16  A    between atoms: C_36  and  C_47
                            x       y       z     vdW  Elec       q    Type
                         _______ _______ _______ _____ _____    ______ ____

>  <TORSDO>
F 16

$$$$
