=
 OpenBabel11042415183D

 45 49  0  0  1  0  0  0  0  0999 V2000
  193.1440  174.1050  143.0330 C   0  0  1  0  0  3  0  0  0  0  0  0
  192.0260  170.5370  142.6730 N   0  0  0  0  0  0  0  0  0  0  0  0
  194.2920  171.4550  142.4380 C   0  0  0  0  0  2  0  0  0  0  0  0
  194.4680  175.5670  144.5500 C   0  0  1  0  0  3  0  0  0  0  0  0
  195.3920  175.1970  143.0880 S   0  0  0  0  0  0  0  0  0  0  0  0
  195.3600  176.3650  142.1430 O   0  0  0  0  0  0  0  0  0  0  0  0
  195.0370  172.6540  142.9870 C   0  0  0  0  0  2  0  0  0  0  0  0
  193.2550  174.6450  144.4740 C   0  0  1  0  0  3  0  0  0  0  0  0
  196.8180  174.8040  143.3750 O   0  0  0  0  0  0  0  0  0  0  0  0
  192.8130  171.5740  142.6780 C   0  0  0  0  0  0  0  0  0  0  0  0
  194.4730  173.8860  142.4420 N   0  0  1  0  0  0  0  0  0  0  0  0
  192.1740  172.9180  142.8980 C   0  0  0  0  0  2  0  0  0  0  0  0
  188.7380  175.1940  146.0250 C   0  0  0  0  0  2  0  0  0  0  0  0
  191.9370  176.8610  144.7870 C   0  0  0  0  0  2  0  0  0  0  0  0
  192.0060  175.3570  144.9060 C   0  0  0  0  0  0  0  0  0  0  0  0
  188.9430  176.4680  146.8780 C   0  0  1  0  0  3  0  0  0  0  0  0
  191.0040  174.7080  145.4420 C   0  0  0  0  0  0  0  0  0  0  0  0
  189.9190  174.2700  146.0060 C   0  0  0  0  0  3  0  0  0  0  0  0
  190.2550  177.2410  146.6410 C   0  0  0  0  0  2  0  0  0  0  0  0
  190.5750  177.4770  145.1630 C   0  0  0  0  0  2  0  0  0  0  0  0
  187.7600  177.4060  146.7120 C   0  0  0  0  0  2  0  0  0  0  0  0
  185.4710  177.6870  147.1390 C   0  0  0  0  0  2  0  0  0  0  0  0
  185.4740  176.9920  145.8560 C   0  0  2  0  0  3  0  0  0  0  0  0
  186.5070  176.6750  146.8830 N   0  0  0  0  0  0  0  0  0  0  0  0
  185.9280  177.9490  144.7500 C   0  0  0  0  0  2  0  0  0  0  0  0
  185.8270  177.2710  143.3940 C   0  0  0  0  0  2  0  0  0  0  0  0
  187.3520  176.8330  141.5250 C   0  0  1  0  0  0  0  0  0  0  0  0
  188.0720  177.8910  143.1150 C   0  0  0  0  0  2  0  0  0  0  0  0
  187.1390  176.7730  142.9820 N   0  0  0  0  0  0  0  0  0  0  0  0
  186.1660  177.1890  140.7480 N   0  0  0  0  0  1  0  0  0  0  0  0
  188.3180  177.9860  141.6190 C   0  0  0  0  0  2  0  0  0  0  0  0
  188.0200  175.5700  140.9940 C   0  0  0  0  0  2  0  0  0  0  0  0
  187.8030  174.4600  141.9080 N   0  0  0  0  0  2  0  0  0  0  0  0
  188.6140  173.3570  141.4230 C   0  0  0  0  0  1  0  0  0  0  0  0
  192.3490  169.1560  142.4300 C   0  0  0  0  0  0  0  0  0  0  0  0
  192.0260  168.6450  141.3270 O   0  0  0  0  0  0  0  0  0  0  0  0
  193.1220  168.3180  143.3980 C   0  0  0  0  0  2  0  0  0  0  0  0
  192.9030  168.7920  144.7570 N   0  0  0  0  0  2  0  0  0  0  0  0
  194.0990  168.4820  145.5270 C   0  0  0  0  0  2  0  0  0  0  0  0
  194.1040  170.8560  145.7380 F   0  0  0  0  0  0  0  0  0  0  0  0
  195.5320  169.6630  147.0150 F   0  0  0  0  0  0  0  0  0  0  0  0
  194.9190  169.7390  145.7770 C   0  0  0  0  0  0  0  0  0  0  0  0
  195.8860  169.8520  144.7980 F   0  0  0  0  0  0  0  0  0  0  0  0
  194.6980  175.9520  146.9110 F   0  0  0  0  0  0  0  0  0  0  0  0
  195.2680  175.3120  145.8210 C   0  0  0  0  0  2  0  0  0  0  0  0
  1 12  1  1  0  0  0
  1  8  1  0  0  0  0
  2 10  2  0  0  0  0
  3 10  1  0  0  0  0
  3  7  1  0  0  0  0
  4 45  1  1  0  0  0
  5  9  2  0  0  0  0
  5  4  1  0  0  0  0
  6  5  2  0  0  0  0
  8  4  1  0  0  0  0
  8 15  1  6  0  0  0
 10 12  1  0  0  0  0
 11  7  1  1  0  0  0
 11  1  1  0  0  0  0
 11  5  1  0  0  0  0
 13 16  1  0  0  0  0
 14 15  1  0  0  0  0
 14 20  1  0  0  0  0
 15 17  2  0  0  0  0
 16 21  1  6  0  0  0
 17 18  2  0  0  0  0
 18 13  1  0  0  0  0
 19 16  1  0  0  0  0
 20 19  1  0  0  0  0
 21 24  1  0  0  0  0
 23 25  1  6  0  0  0
 23 24  1  0  0  0  0
 23 22  1  0  0  0  0
 24 22  1  0  0  0  0
 26 25  1  0  0  0  0
 27 30  1  6  0  0  0
 27 31  1  0  0  0  0
 27 29  1  0  0  0  0
 29 28  1  0  0  0  0
 29 26  1  0  0  0  0
 31 28  1  0  0  0  0
 32 27  1  0  0  0  0
 32 33  1  0  0  0  0
 34 33  1  0  0  0  0
 35  2  1  0  0  0  0
 35 37  1  0  0  0  0
 36 35  2  0  0  0  0
 37 38  1  0  0  0  0
 38 39  1  0  0  0  0
 39 42  1  0  0  0  0
 40 42  1  0  0  0  0
 42 41  1  0  0  0  0
 43 42  1  0  0  0  0
 45 44  1  0  0  0  0
M  END
>  <MODEL>
1

>  <REMARK>
 VINA RESULT:      -6.7      0.000      0.000
  Name = 
  14 active torsions:
  status: ('A' for Active; 'I' for Inactive)
    1  A    between atoms: C_3  and  C_36
    2  A    between atoms: N_4  and  C_12
    3  A    between atoms: C_10  and  C_34
    4  A    between atoms: C_12  and  C_38
    5  A    between atoms: N_13  and  C_22
    6  A    between atoms: N_13  and  C_38
    7  A    between atoms: C_14  and  C_19
    8  A    between atoms: C_14  and  N_42
    9  A    between atoms: N_15  and  C_20
   10  A    between atoms: C_17  and  C_22
   11  A    between atoms: C_18  and  C_30
   12  A    between atoms: C_20  and  C_23
   13  A    between atoms: C_23  and  C_39
   14  A    between atoms: N_25  and  C_36
                            x       y       z     vdW  Elec       q    Type
                         _______ _______ _______ _____ _____    ______ ____

>  <TORSDO>
F 14

$$$$
=
 OpenBabel11042415183D

 45 49  0  0  1  0  0  0  0  0999 V2000
  193.0310  174.0400  143.2300 C   0  0  1  0  0  3  0  0  0  0  0  0
  192.2990  170.3710  143.5700 N   0  0  0  0  0  0  0  0  0  0  0  0
  194.3630  171.4470  142.7830 C   0  0  0  0  0  2  0  0  0  0  0  0
  194.4180  175.8330  144.2550 C   0  0  1  0  0  3  0  0  0  0  0  0
  195.1060  175.3300  142.7050 S   0  0  0  0  0  0  0  0  0  0  0  0
  194.7680  176.3320  141.6370 O   0  0  0  0  0  0  0  0  0  0  0  0
  195.0450  172.7800  143.0140 C   0  0  0  0  0  2  0  0  0  0  0  0
  193.3300  174.8020  144.5380 C   0  0  1  0  0  3  0  0  0  0  0  0
  196.5970  175.1190  142.7630 O   0  0  0  0  0  0  0  0  0  0  0  0
  192.9460  171.4650  143.2860 C   0  0  0  0  0  0  0  0  0  0  0  0
  194.2500  173.8560  142.4290 N   0  0  1  0  0  0  0  0  0  0  0  0
  192.2000  172.7620  143.4440 C   0  0  0  0  0  2  0  0  0  0  0  0
  189.4440  177.6280  144.6980 C   0  0  0  0  0  2  0  0  0  0  0  0
  191.7480  175.2230  146.5550 C   0  0  0  0  0  2  0  0  0  0  0  0
  192.1010  175.4530  145.1040 C   0  0  0  0  0  0  0  0  0  0  0  0
  188.5450  176.7300  145.5780 C   0  0  1  0  0  3  0  0  0  0  0  0
  191.2970  176.1590  144.3520 C   0  0  0  0  0  0  0  0  0  0  0  0
  190.3690  176.8730  143.7910 C   0  0  0  0  0  3  0  0  0  0  0  0
  189.2520  175.5850  146.3270 C   0  0  0  0  0  2  0  0  0  0  0  0
  190.5270  176.0180  147.0560 C   0  0  0  0  0  2  0  0  0  0  0  0
  187.7610  177.5780  146.5640 C   0  0  0  0  0  2  0  0  0  0  0  0
  186.0780  177.6480  148.1970 C   0  0  0  0  0  2  0  0  0  0  0  0
  185.3300  177.3600  146.9780 C   0  0  2  0  0  3  0  0  0  0  0  0
  186.6930  176.7890  147.1730 N   0  0  0  0  0  0  0  0  0  0  0  0
  185.2680  178.6130  146.1010 C   0  0  0  0  0  2  0  0  0  0  0  0
  184.1590  178.4790  145.0710 C   0  0  0  0  0  2  0  0  0  0  0  0
  185.2270  178.0570  142.9050 C   0  0  1  0  0  0  0  0  0  0  0  0
  183.4250  179.0150  142.9090 C   0  0  0  0  0  2  0  0  0  0  0  0
  184.5890  179.0460  143.7930 N   0  0  0  0  0  0  0  0  0  0  0  0
  185.4880  176.7590  143.5230 N   0  0  0  0  0  1  0  0  0  0  0  0
  184.0470  177.9970  141.9690 C   0  0  0  0  0  2  0  0  0  0  0  0
  186.4680  178.6220  142.2230 C   0  0  0  0  0  2  0  0  0  0  0  0
  187.3040  177.5450  141.7180 N   0  0  0  0  0  2  0  0  0  0  0  0
  187.0410  177.4470  140.2940 C   0  0  0  0  0  1  0  0  0  0  0  0
  192.7370  169.0040  143.4560 C   0  0  0  0  0  0  0  0  0  0  0  0
  192.7820  168.4780  142.3140 O   0  0  0  0  0  0  0  0  0  0  0  0
  193.2170  168.2030  144.6230 C   0  0  0  0  0  2  0  0  0  0  0  0
  194.6270  168.4680  144.8670 N   0  0  0  0  0  2  0  0  0  0  0  0
  194.7220  169.2320  146.1030 C   0  0  0  0  0  2  0  0  0  0  0  0
  195.3210  171.5360  146.0130 F   0  0  0  0  0  0  0  0  0  0  0  0
  196.6940  170.1130  147.1010 F   0  0  0  0  0  0  0  0  0  0  0  0
  195.8450  170.2560  146.0190 C   0  0  0  0  0  0  0  0  0  0  0  0
  196.5560  170.0540  144.8530 F   0  0  0  0  0  0  0  0  0  0  0  0
  195.6800  174.5750  145.8680 F   0  0  0  0  0  0  0  0  0  0  0  0
  195.4550  175.8500  145.3720 C   0  0  0  0  0  2  0  0  0  0  0  0
  1 12  1  1  0  0  0
  1  8  1  0  0  0  0
  3  7  1  0  0  0  0
  3 10  1  0  0  0  0
  4  8  1  0  0  0  0
  4 45  1  1  0  0  0
  5  9  2  0  0  0  0
  5  4  1  0  0  0  0
  6  5  2  0  0  0  0
  8 15  1  6  0  0  0
 10 12  1  0  0  0  0
 10  2  2  0  0  0  0
 11  5  1  0  0  0  0
 11  7  1  1  0  0  0
 11  1  1  0  0  0  0
 13 16  1  0  0  0  0
 14 20  1  0  0  0  0
 15 14  1  0  0  0  0
 16 19  1  0  0  0  0
 16 21  1  1  0  0  0
 17 15  2  0  0  0  0
 18 17  2  0  0  0  0
 18 13  1  0  0  0  0
 19 20  1  0  0  0  0
 21 24  1  0  0  0  0
 23 25  1  6  0  0  0
 23 24  1  0  0  0  0
 23 22  1  0  0  0  0
 24 22  1  0  0  0  0
 26 25  1  0  0  0  0
 27 30  1  1  0  0  0
 27 29  1  0  0  0  0
 28 29  1  0  0  0  0
 29 26  1  0  0  0  0
 31 27  1  0  0  0  0
 31 28  1  0  0  0  0
 32 27  1  0  0  0  0
 33 32  1  0  0  0  0
 34 33  1  0  0  0  0
 35  2  1  0  0  0  0
 35 37  1  0  0  0  0
 36 35  2  0  0  0  0
 37 38  1  0  0  0  0
 38 39  1  0  0  0  0
 40 42  1  0  0  0  0
 42 39  1  0  0  0  0
 42 41  1  0  0  0  0
 43 42  1  0  0  0  0
 45 44  1  0  0  0  0
M  END
>  <MODEL>
2

>  <REMARK>
 VINA RESULT:      -6.7      1.353      2.049
  Name = 
  14 active torsions:
  status: ('A' for Active; 'I' for Inactive)
    1  A    between atoms: C_3  and  C_36
    2  A    between atoms: N_4  and  C_12
    3  A    between atoms: C_10  and  C_34
    4  A    between atoms: C_12  and  C_38
    5  A    between atoms: N_13  and  C_22
    6  A    between atoms: N_13  and  C_38
    7  A    between atoms: C_14  and  C_19
    8  A    between atoms: C_14  and  N_42
    9  A    between atoms: N_15  and  C_20
   10  A    between atoms: C_17  and  C_22
   11  A    between atoms: C_18  and  C_30
   12  A    between atoms: C_20  and  C_23
   13  A    between atoms: C_23  and  C_39
   14  A    between atoms: N_25  and  C_36
                            x       y       z     vdW  Elec       q    Type
                         _______ _______ _______ _____ _____    ______ ____

>  <TORSDO>
F 14

$$$$
=
 OpenBabel11042415183D

 45 49  0  0  1  0  0  0  0  0999 V2000
  194.0790  174.1430  144.1650 C   0  0  1  0  0  3  0  0  0  0  0  0
  194.8230  170.8130  145.7370 N   0  0  0  0  0  0  0  0  0  0  0  0
  196.3960  172.4100  144.7330 C   0  0  0  0  0  2  0  0  0  0  0  0
  194.3940  176.5780  144.5650 C   0  0  1  0  0  3  0  0  0  0  0  0
  195.5250  176.0030  143.3320 S   0  0  0  0  0  0  0  0  0  0  0  0
  195.0380  176.3870  141.9620 O   0  0  0  0  0  0  0  0  0  0  0  0
  196.4260  173.9090  144.5160 C   0  0  0  0  0  2  0  0  0  0  0  0
  193.7760  175.3040  145.1340 C   0  0  1  0  0  3  0  0  0  0  0  0
  196.9300  176.5050  143.5400 O   0  0  0  0  0  0  0  0  0  0  0  0
  195.0210  171.9430  145.1200 C   0  0  0  0  0  0  0  0  0  0  0  0
  195.4050  174.2940  143.5470 N   0  0  1  0  0  0  0  0  0  0  0  0
  193.8040  172.7540  144.7700 C   0  0  0  0  0  2  0  0  0  0  0  0
  189.5900  175.2190  147.4950 C   0  0  0  0  0  2  0  0  0  0  0  0
  191.4140  175.8600  144.2080 C   0  0  0  0  0  2  0  0  0  0  0  0
  192.3030  175.4750  145.3670 C   0  0  0  0  0  0  0  0  0  0  0  0
  188.9410  176.4680  146.8540 C   0  0  1  0  0  3  0  0  0  0  0  0
  191.7860  175.3600  146.5630 C   0  0  0  0  0  0  0  0  0  0  0  0
  191.0780  175.3100  147.6510 C   0  0  0  0  0  3  0  0  0  0  0  0
  189.6070  176.9970  145.5690 C   0  0  0  0  0  2  0  0  0  0  0  0
  189.9090  175.9080  144.5370 C   0  0  0  0  0  2  0  0  0  0  0  0
  187.4640  176.2200  146.5990 C   0  0  0  0  0  2  0  0  0  0  0  0
  186.5530  178.3810  146.5690 C   0  0  0  0  0  2  0  0  0  0  0  0
  185.3720  177.5370  146.7170 C   0  0  2  0  0  3  0  0  0  0  0  0
  186.6530  177.1540  147.3760 N   0  0  0  0  0  0  0  0  0  0  0  0
  185.0790  176.8210  145.3960 C   0  0  0  0  0  2  0  0  0  0  0  0
  184.8720  177.8340  144.2830 C   0  0  0  0  0  2  0  0  0  0  0  0
  186.1560  177.9580  142.1980 C   0  0  1  0  0  0  0  0  0  0  0  0
  186.1640  176.1910  143.2190 C   0  0  0  0  0  2  0  0  0  0  0  0
  185.1520  177.2200  142.9850 N   0  0  0  0  0  0  0  0  0  0  0  0
  186.5420  179.2520  142.7590 N   0  0  0  0  0  1  0  0  0  0  0  0
  187.2270  176.9210  142.4160 C   0  0  0  0  0  2  0  0  0  0  0  0
  185.7590  178.0700  140.7310 C   0  0  0  0  0  2  0  0  0  0  0  0
  186.8520  177.6380  139.8750 N   0  0  0  0  0  2  0  0  0  0  0  0
  186.2540  176.9110  138.7700 C   0  0  0  0  0  1  0  0  0  0  0  0
  195.7830  169.8180  146.1350 C   0  0  0  0  0  0  0  0  0  0  0  0
  196.4220  169.9890  147.2060 O   0  0  0  0  0  0  0  0  0  0  0  0
  196.0030  168.5480  145.3770 C   0  0  0  0  0  2  0  0  0  0  0  0
  196.7850  168.8100  144.1770 N   0  0  0  0  0  2  0  0  0  0  0  0
  196.0270  168.3050  143.0410 C   0  0  0  0  0  2  0  0  0  0  0  0
  195.4830  168.9760  140.8200 F   0  0  0  0  0  0  0  0  0  0  0  0
  194.4230  169.9880  142.5360 F   0  0  0  0  0  0  0  0  0  0  0  0
  195.6220  169.4430  142.1140 C   0  0  0  0  0  0  0  0  0  0  0  0
  196.5990  170.4180  142.1400 F   0  0  0  0  0  0  0  0  0  0  0  0
  194.4580  177.2160  146.8810 F   0  0  0  0  0  0  0  0  0  0  0  0
  195.0890  177.3810  145.6580 C   0  0  0  0  0  2  0  0  0  0  0  0
  1 12  1  1  0  0  0
  1  8  1  0  0  0  0
  2 35  1  0  0  0  0
  3 10  1  0  0  0  0
  4  8  1  0  0  0  0
  4 45  1  1  0  0  0
  5  9  2  0  0  0  0
  5 11  1  0  0  0  0
  5  4  1  0  0  0  0
  6  5  2  0  0  0  0
  7  3  1  0  0  0  0
  8 15  1  6  0  0  0
 10  2  2  0  0  0  0
 11  1  1  0  0  0  0
 11  7  1  1  0  0  0
 12 10  1  0  0  0  0
 13 18  1  0  0  0  0
 14 20  1  0  0  0  0
 14 15  1  0  0  0  0
 15 17  2  0  0  0  0
 16 21  1  6  0  0  0
 16 13  1  0  0  0  0
 17 18  2  0  0  0  0
 19 16  1  0  0  0  0
 20 19  1  0  0  0  0
 21 24  1  0  0  0  0
 22 23  1  0  0  0  0
 22 24  1  0  0  0  0
 23 25  1  6  0  0  0
 23 24  1  0  0  0  0
 26 25  1  0  0  0  0
 27 31  1  0  0  0  0
 27 30  1  1  0  0  0
 27 29  1  0  0  0  0
 29 28  1  0  0  0  0
 29 26  1  0  0  0  0
 31 28  1  0  0  0  0
 32 27  1  0  0  0  0
 33 32  1  0  0  0  0
 34 33  1  0  0  0  0
 35 36  2  0  0  0  0
 37 35  1  0  0  0  0
 38 37  1  0  0  0  0
 39 38  1  0  0  0  0
 40 42  1  0  0  0  0
 42 43  1  0  0  0  0
 42 41  1  0  0  0  0
 42 39  1  0  0  0  0
 45 44  1  0  0  0  0
M  END
>  <MODEL>
3

>  <REMARK>
 VINA RESULT:      -6.7      2.348      2.841
  Name = 
  14 active torsions:
  status: ('A' for Active; 'I' for Inactive)
    1  A    between atoms: C_3  and  C_36
    2  A    between atoms: N_4  and  C_12
    3  A    between atoms: C_10  and  C_34
    4  A    between atoms: C_12  and  C_38
    5  A    between atoms: N_13  and  C_22
    6  A    between atoms: N_13  and  C_38
    7  A    between atoms: C_14  and  C_19
    8  A    between atoms: C_14  and  N_42
    9  A    between atoms: N_15  and  C_20
   10  A    between atoms: C_17  and  C_22
   11  A    between atoms: C_18  and  C_30
   12  A    between atoms: C_20  and  C_23
   13  A    between atoms: C_23  and  C_39
   14  A    between atoms: N_25  and  C_36
                            x       y       z     vdW  Elec       q    Type
                         _______ _______ _______ _____ _____    ______ ____

>  <TORSDO>
F 14

$$$$
=
 OpenBabel11042415183D

 45 49  0  0  1  0  0  0  0  0999 V2000
  193.0520  174.5370  142.3840 C   0  0  1  0  0  3  0  0  0  0  0  0
  191.3430  171.7310  140.5620 N   0  0  0  0  0  0  0  0  0  0  0  0
  193.7510  172.1030  140.8730 C   0  0  0  0  0  2  0  0  0  0  0  0
  194.3730  174.9740  144.4460 C   0  0  1  0  0  3  0  0  0  0  0  0
  195.4290  174.9620  143.0270 S   0  0  0  0  0  0  0  0  0  0  0  0
  195.7710  176.3680  142.6220 O   0  0  0  0  0  0  0  0  0  0  0  0
  194.6150  172.8000  141.9030 C   0  0  0  0  0  2  0  0  0  0  0  0
  193.0340  174.4630  143.9250 C   0  0  1  0  0  3  0  0  0  0  0  0
  196.6900  174.1640  143.2380 O   0  0  0  0  0  0  0  0  0  0  0  0
  192.3030  172.4730  141.0340 C   0  0  0  0  0  0  0  0  0  0  0  0
  194.3910  174.2420  141.8510 N   0  0  1  0  0  0  0  0  0  0  0  0
  191.9060  173.7510  141.7210 C   0  0  0  0  0  2  0  0  0  0  0  0
  188.7760  175.2510  146.0130 C   0  0  0  0  0  2  0  0  0  0  0  0
  191.9020  176.7470  144.4220 C   0  0  0  0  0  2  0  0  0  0  0  0
  191.8910  175.2390  144.5130 C   0  0  0  0  0  0  0  0  0  0  0  0
  189.1590  176.4920  146.8510 C   0  0  1  0  0  3  0  0  0  0  0  0
  190.9220  174.6420  145.1570 C   0  0  0  0  0  0  0  0  0  0  0  0
  189.8860  174.2580  145.8400 C   0  0  0  0  0  3  0  0  0  0  0  0
  190.4790  177.1900  146.4690 C   0  0  0  0  0  2  0  0  0  0  0  0
  190.6350  177.4360  144.9660 C   0  0  0  0  0  2  0  0  0  0  0  0
  188.0250  177.5030  146.8400 C   0  0  0  0  0  2  0  0  0  0  0  0
  185.9490  177.8550  147.8730 C   0  0  0  0  0  2  0  0  0  0  0  0
  185.5710  177.4660  146.5190 C   0  0  2  0  0  3  0  0  0  0  0  0
  186.7620  176.8490  147.1710 N   0  0  0  0  0  0  0  0  0  0  0  0
  185.8780  178.6080  145.5470 C   0  0  0  0  0  2  0  0  0  0  0  0
  185.2790  178.3120  144.1830 C   0  0  0  0  0  2  0  0  0  0  0  0
  186.6380  177.1270  142.5210 C   0  0  1  0  0  0  0  0  0  0  0  0
  185.6220  178.7890  141.9120 C   0  0  0  0  0  2  0  0  0  0  0  0
  186.3080  178.4190  143.1480 N   0  0  0  0  0  0  0  0  0  0  0  0
  186.0320  175.9620  143.1640 N   0  0  0  0  0  1  0  0  0  0  0  0
  185.9400  177.4700  141.2290 C   0  0  0  0  0  2  0  0  0  0  0  0
  188.1400  176.9530  142.3300 C   0  0  0  0  0  2  0  0  0  0  0  0
  188.5080  175.5520  142.4530 N   0  0  0  0  0  2  0  0  0  0  0  0
  188.6080  175.0280  141.1030 C   0  0  0  0  0  1  0  0  0  0  0  0
  191.4300  170.5030  139.8160 C   0  0  0  0  0  0  0  0  0  0  0  0
  191.6990  170.5600  138.5880 O   0  0  0  0  0  0  0  0  0  0  0  0
  191.2930  169.1550  140.4480 C   0  0  0  0  0  2  0  0  0  0  0  0
  191.2050  169.2870  141.8960 N   0  0  0  0  0  2  0  0  0  0  0  0
  192.4920  168.8940  142.4510 C   0  0  0  0  0  2  0  0  0  0  0  0
  191.9430  170.7590  143.8280 F   0  0  0  0  0  0  0  0  0  0  0  0
  192.6130  168.8490  144.8260 F   0  0  0  0  0  0  0  0  0  0  0  0
  192.7880  169.6690  143.7270 C   0  0  0  0  0  0  0  0  0  0  0  0
  194.0960  170.1140  143.6940 F   0  0  0  0  0  0  0  0  0  0  0  0
  195.8460  174.7450  146.3310 F   0  0  0  0  0  0  0  0  0  0  0  0
  194.8970  174.0850  145.5670 C   0  0  0  0  0  2  0  0  0  0  0  0
  1 12  1  6  0  0  0
  1  8  1  0  0  0  0
  2 10  2  0  0  0  0
  3 10  1  0  0  0  0
  3  7  1  0  0  0  0
  4 45  1  1  0  0  0
  5  9  2  0  0  0  0
  5  4  1  0  0  0  0
  6  5  2  0  0  0  0
  8  4  1  0  0  0  0
  8 15  1  1  0  0  0
 10 12  1  0  0  0  0
 11  7  1  1  0  0  0
 11  1  1  0  0  0  0
 11  5  1  0  0  0  0
 13 16  1  0  0  0  0
 14 15  1  0  0  0  0
 14 20  1  0  0  0  0
 15 17  2  0  0  0  0
 16 21  1  6  0  0  0
 17 18  2  0  0  0  0
 18 13  1  0  0  0  0
 19 16  1  0  0  0  0
 20 19  1  0  0  0  0
 21 24  1  0  0  0  0
 23 25  1  6  0  0  0
 23 24  1  0  0  0  0
 23 22  1  0  0  0  0
 24 22  1  0  0  0  0
 26 25  1  0  0  0  0
 27 29  1  0  0  0  0
 27 30  1  1  0  0  0
 28 29  1  0  0  0  0
 29 26  1  0  0  0  0
 31 28  1  0  0  0  0
 31 27  1  0  0  0  0
 32 33  1  0  0  0  0
 32 27  1  0  0  0  0
 34 33  1  0  0  0  0
 35 37  1  0  0  0  0
 35  2  1  0  0  0  0
 36 35  2  0  0  0  0
 37 38  1  0  0  0  0
 38 39  1  0  0  0  0
 39 42  1  0  0  0  0
 42 40  1  0  0  0  0
 42 41  1  0  0  0  0
 43 42  1  0  0  0  0
 45 44  1  0  0  0  0
M  END
>  <MODEL>
4

>  <REMARK>
 VINA RESULT:      -6.5      1.530      1.872
  Name = 
  14 active torsions:
  status: ('A' for Active; 'I' for Inactive)
    1  A    between atoms: C_3  and  C_36
    2  A    between atoms: N_4  and  C_12
    3  A    between atoms: C_10  and  C_34
    4  A    between atoms: C_12  and  C_38
    5  A    between atoms: N_13  and  C_22
    6  A    between atoms: N_13  and  C_38
    7  A    between atoms: C_14  and  C_19
    8  A    between atoms: C_14  and  N_42
    9  A    between atoms: N_15  and  C_20
   10  A    between atoms: C_17  and  C_22
   11  A    between atoms: C_18  and  C_30
   12  A    between atoms: C_20  and  C_23
   13  A    between atoms: C_23  and  C_39
   14  A    between atoms: N_25  and  C_36
                            x       y       z     vdW  Elec       q    Type
                         _______ _______ _______ _____ _____    ______ ____

>  <TORSDO>
F 14

$$$$
=
 OpenBabel11042415183D

 45 49  0  0  1  0  0  0  0  0999 V2000
  193.4990  175.0670  142.5840 C   0  0  1  0  0  3  0  0  0  0  0  0
  192.0700  172.5910  140.1470 N   0  0  0  0  0  0  0  0  0  0  0  0
  194.4170  172.9030  140.8040 C   0  0  0  0  0  2  0  0  0  0  0  0
  194.5530  175.1680  144.8360 C   0  0  1  0  0  3  0  0  0  0  0  0
  195.7730  175.3780  143.5720 S   0  0  0  0  0  0  0  0  0  0  0  0
  196.1380  176.8300  143.4390 O   0  0  0  0  0  0  0  0  0  0  0  0
  195.1370  173.4240  142.0300 C   0  0  0  0  0  2  0  0  0  0  0  0
  193.2960  174.7490  144.0800 C   0  0  1  0  0  3  0  0  0  0  0  0
  197.0130  174.5540  143.8060 O   0  0  0  0  0  0  0  0  0  0  0  0
  192.9540  173.2460  140.8440 C   0  0  0  0  0  0  0  0  0  0  0  0
  194.8970  174.8570  142.1790 N   0  0  1  0  0  0  0  0  0  0  0  0
  192.4550  174.4000  141.6710 C   0  0  0  0  0  2  0  0  0  0  0  0
  188.8480  175.1860  145.8510 C   0  0  0  0  0  2  0  0  0  0  0  0
  192.0370  176.9340  144.7030 C   0  0  0  0  0  2  0  0  0  0  0  0
  192.0780  175.4250  144.6400 C   0  0  0  0  0  0  0  0  0  0  0  0
  189.1080  176.3450  146.8400 C   0  0  1  0  0  3  0  0  0  0  0  0
  191.0810  174.7350  145.1310 C   0  0  0  0  0  0  0  0  0  0  0  0
  190.0070  174.2510  145.6780 C   0  0  0  0  0  3  0  0  0  0  0  0
  190.4280  177.1180  146.6490 C   0  0  0  0  0  2  0  0  0  0  0  0
  190.7020  177.5230  145.1980 C   0  0  0  0  0  2  0  0  0  0  0  0
  187.9410  177.3160  146.8300 C   0  0  0  0  0  2  0  0  0  0  0  0
  185.6810  177.6020  147.3910 C   0  0  0  0  0  2  0  0  0  0  0  0
  185.6090  177.0140  146.0580 C   0  0  2  0  0  3  0  0  0  0  0  0
  186.6820  176.5950  147.0040 N   0  0  0  0  0  0  0  0  0  0  0  0
  186.0290  178.0500  145.0120 C   0  0  0  0  0  2  0  0  0  0  0  0
  185.8770  177.4770  143.6130 C   0  0  0  0  0  2  0  0  0  0  0  0
  187.2900  176.8740  141.7020 C   0  0  1  0  0  0  0  0  0  0  0  0
  188.1340  177.9660  143.2060 C   0  0  0  0  0  2  0  0  0  0  0  0
  187.1420  176.8930  143.1690 N   0  0  0  0  0  0  0  0  0  0  0  0
  186.0880  177.2560  140.9620 N   0  0  0  0  0  1  0  0  0  0  0  0
  188.3150  177.9800  141.6980 C   0  0  0  0  0  2  0  0  0  0  0  0
  187.8690  175.5550  141.2050 C   0  0  0  0  0  2  0  0  0  0  0  0
  187.8480  174.5600  142.2650 N   0  0  0  0  0  2  0  0  0  0  0  0
  188.8330  173.5540  141.9110 C   0  0  0  0  0  1  0  0  0  0  0  0
  192.2680  171.4970  139.2320 C   0  0  0  0  0  0  0  0  0  0  0  0
  192.3730  170.3330  139.6980 O   0  0  0  0  0  0  0  0  0  0  0  0
  192.2760  171.6680  137.7470 C   0  0  0  0  0  2  0  0  0  0  0  0
  191.5000  172.8420  137.3740 N   0  0  0  0  0  2  0  0  0  0  0  0
  190.1580  172.3920  137.0340 C   0  0  0  0  0  2  0  0  0  0  0  0
  188.0000  173.3430  137.3700 F   0  0  0  0  0  0  0  0  0  0  0  0
  188.8090  171.9390  138.9410 F   0  0  0  0  0  0  0  0  0  0  0  0
  189.1410  172.9270  138.0320 C   0  0  0  0  0  0  0  0  0  0  0  0
  189.6890  174.0000  138.7060 F   0  0  0  0  0  0  0  0  0  0  0  0
  194.3860  172.8810  145.5560 F   0  0  0  0  0  0  0  0  0  0  0  0
  194.9530  174.1100  145.8570 C   0  0  0  0  0  2  0  0  0  0  0  0
  1 12  1  6  0  0  0
  1  8  1  0  0  0  0
  2 10  2  0  0  0  0
  3 10  1  0  0  0  0
  3  7  1  0  0  0  0
  4 45  1  1  0  0  0
  5  9  2  0  0  0  0
  5  4  1  0  0  0  0
  6  5  2  0  0  0  0
  8 15  1  1  0  0  0
  8  4  1  0  0  0  0
 10 12  1  0  0  0  0
 11  7  1  1  0  0  0
 11  1  1  0  0  0  0
 11  5  1  0  0  0  0
 13 16  1  0  0  0  0
 14 20  1  0  0  0  0
 15 14  1  0  0  0  0
 15 17  2  0  0  0  0
 16 21  1  6  0  0  0
 17 18  2  0  0  0  0
 18 13  1  0  0  0  0
 19 16  1  0  0  0  0
 20 19  1  0  0  0  0
 21 24  1  0  0  0  0
 23 25  1  6  0  0  0
 23 24  1  0  0  0  0
 23 22  1  0  0  0  0
 24 22  1  0  0  0  0
 26 25  1  0  0  0  0
 27 30  1  6  0  0  0
 27 29  1  0  0  0  0
 29 28  1  0  0  0  0
 29 26  1  0  0  0  0
 31 27  1  0  0  0  0
 31 28  1  0  0  0  0
 32 27  1  0  0  0  0
 32 33  1  0  0  0  0
 34 33  1  0  0  0  0
 35 36  2  0  0  0  0
 35  2  1  0  0  0  0
 37 35  1  0  0  0  0
 38 37  1  0  0  0  0
 39 38  1  0  0  0  0
 39 42  1  0  0  0  0
 40 42  1  0  0  0  0
 42 43  1  0  0  0  0
 42 41  1  0  0  0  0
 44 45  1  0  0  0  0
M  END
>  <MODEL>
5

>  <REMARK>
 VINA RESULT:      -6.5      3.041      3.983
  Name = 
  14 active torsions:
  status: ('A' for Active; 'I' for Inactive)
    1  A    between atoms: C_3  and  C_36
    2  A    between atoms: N_4  and  C_12
    3  A    between atoms: C_10  and  C_34
    4  A    between atoms: C_12  and  C_38
    5  A    between atoms: N_13  and  C_22
    6  A    between atoms: N_13  and  C_38
    7  A    between atoms: C_14  and  C_19
    8  A    between atoms: C_14  and  N_42
    9  A    between atoms: N_15  and  C_20
   10  A    between atoms: C_17  and  C_22
   11  A    between atoms: C_18  and  C_30
   12  A    between atoms: C_20  and  C_23
   13  A    between atoms: C_23  and  C_39
   14  A    between atoms: N_25  and  C_36
                            x       y       z     vdW  Elec       q    Type
                         _______ _______ _______ _____ _____    ______ ____

>  <TORSDO>
F 14

$$$$
=
 OpenBabel11042415183D

 45 49  0  0  1  0  0  0  0  0999 V2000
  194.9260  174.4810  143.9800 C   0  0  1  0  0  3  0  0  0  0  0  0
  194.6110  174.8900  140.2580 N   0  0  0  0  0  0  0  0  0  0  0  0
  196.2490  173.5560  141.5120 C   0  0  0  0  0  2  0  0  0  0  0  0
  194.6060  172.7800  145.7670 C   0  0  1  0  0  3  0  0  0  0  0  0
  196.3280  173.0020  145.4260 S   0  0  0  0  0  0  0  0  0  0  0  0
  196.9610  173.8600  146.4860 O   0  0  0  0  0  0  0  0  0  0  0  0
  196.2800  172.8680  142.8610 C   0  0  0  0  0  2  0  0  0  0  0  0
  193.8990  173.5490  144.6550 C   0  0  1  0  0  3  0  0  0  0  0  0
  197.0770  171.7010  145.3010 O   0  0  0  0  0  0  0  0  0  0  0  0
  195.0830  174.4990  141.4080 C   0  0  0  0  0  0  0  0  0  0  0  0
  196.2590  173.8610  143.9310 N   0  0  1  0  0  0  0  0  0  0  0  0
  194.4350  175.0640  142.6420 C   0  0  0  0  0  2  0  0  0  0  0  0
  189.3080  174.8860  145.1440 C   0  0  0  0  0  2  0  0  0  0  0  0
  192.9430  175.4450  146.1500 C   0  0  0  0  0  2  0  0  0  0  0  0
  192.7160  174.3040  145.1860 C   0  0  0  0  0  0  0  0  0  0  0  0
  189.3160  175.1800  146.6620 C   0  0  1  0  0  3  0  0  0  0  0  0
  191.4920  173.9540  144.8830 C   0  0  0  0  0  0  0  0  0  0  0  0
  190.2160  173.7680  144.7280 C   0  0  0  0  0  3  0  0  0  0  0  0
  190.7020  175.3110  147.3220 C   0  0  0  0  0  2  0  0  0  0  0  0
  191.6700  176.2140  146.5520 C   0  0  0  0  0  2  0  0  0  0  0  0
  188.4890  176.4180  146.9610 C   0  0  0  0  0  2  0  0  0  0  0  0
  186.4430  177.2250  147.7770 C   0  0  0  0  0  2  0  0  0  0  0  0
  186.1260  176.8920  146.3920 C   0  0  2  0  0  3  0  0  0  0  0  0
  187.0890  176.0540  147.1640 N   0  0  0  0  0  0  0  0  0  0  0  0
  186.7640  177.9200  145.4540 C   0  0  0  0  0  2  0  0  0  0  0  0
  186.0800  177.8890  144.0980 C   0  0  0  0  0  2  0  0  0  0  0  0
  187.3740  176.9430  142.2430 C   0  0  1  0  0  0  0  0  0  0  0  0
  186.3040  178.6440  141.8890 C   0  0  0  0  0  2  0  0  0  0  0  0
  187.0550  178.1430  143.0380 N   0  0  0  0  0  0  0  0  0  0  0  0
  186.8180  175.6960  142.7670 N   0  0  0  0  0  1  0  0  0  0  0  0
  186.6080  177.4240  141.0370 C   0  0  0  0  0  2  0  0  0  0  0  0
  188.8670  176.8250  141.9620 C   0  0  0  0  0  2  0  0  0  0  0  0
  189.6160  177.7340  142.8140 N   0  0  0  0  0  2  0  0  0  0  0  0
  190.9550  177.1850  142.9330 C   0  0  0  0  0  1  0  0  0  0  0  0
  195.0680  174.5640  138.9330 C   0  0  0  0  0  0  0  0  0  0  0  0
  195.9540  175.2840  138.4060 O   0  0  0  0  0  0  0  0  0  0  0  0
  194.5950  173.3600  138.1820 C   0  0  0  0  0  2  0  0  0  0  0  0
  193.7570  172.5320  139.0370 N   0  0  0  0  0  2  0  0  0  0  0  0
  192.3770  172.7170  138.6110 C   0  0  0  0  0  2  0  0  0  0  0  0
  190.5670  173.7930  139.7250 F   0  0  0  0  0  0  0  0  0  0  0  0
  190.7160  171.5440  139.8450 F   0  0  0  0  0  0  0  0  0  0  0  0
  191.4390  172.7230  139.8090 C   0  0  0  0  0  0  0  0  0  0  0  0
  192.1820  172.8370  140.9670 F   0  0  0  0  0  0  0  0  0  0  0  0
  193.3710  171.0260  144.6840 F   0  0  0  0  0  0  0  0  0  0  0  0
  194.1980  171.3120  145.7590 C   0  0  0  0  0  2  0  0  0  0  0  0
  1 12  1  6  0  0  0
  1  8  1  0  0  0  0
  2 10  2  0  0  0  0
  3  7  1  0  0  0  0
  4 45  1  6  0  0  0
  5  4  1  0  0  0  0
  5  6  2  0  0  0  0
  8 15  1  1  0  0  0
  8  4  1  0  0  0  0
  9  5  2  0  0  0  0
 10  3  1  0  0  0  0
 10 12  1  0  0  0  0
 11  7  1  6  0  0  0
 11  1  1  0  0  0  0
 11  5  1  0  0  0  0
 13 16  1  0  0  0  0
 14 20  1  0  0  0  0
 15 14  1  0  0  0  0
 16 21  1  6  0  0  0
 16 19  1  0  0  0  0
 17 15  2  0  0  0  0
 18 17  2  0  0  0  0
 18 13  1  0  0  0  0
 20 19  1  0  0  0  0
 21 24  1  0  0  0  0
 23 25  1  6  0  0  0
 23 24  1  0  0  0  0
 23 22  1  0  0  0  0
 24 22  1  0  0  0  0
 26 25  1  0  0  0  0
 27 30  1  1  0  0  0
 27 29  1  0  0  0  0
 28 29  1  0  0  0  0
 29 26  1  0  0  0  0
 31 28  1  0  0  0  0
 31 27  1  0  0  0  0
 32 27  1  0  0  0  0
 32 33  1  0  0  0  0
 33 34  1  0  0  0  0
 35  2  1  0  0  0  0
 36 35  2  0  0  0  0
 37 35  1  0  0  0  0
 37 38  1  0  0  0  0
 39 38  1  0  0  0  0
 39 42  1  0  0  0  0
 40 42  1  0  0  0  0
 42 41  1  0  0  0  0
 42 43  1  0  0  0  0
 44 45  1  0  0  0  0
M  END
>  <MODEL>
6

>  <REMARK>
 VINA RESULT:      -6.3      2.798      4.196
  Name = 
  14 active torsions:
  status: ('A' for Active; 'I' for Inactive)
    1  A    between atoms: C_3  and  C_36
    2  A    between atoms: N_4  and  C_12
    3  A    between atoms: C_10  and  C_34
    4  A    between atoms: C_12  and  C_38
    5  A    between atoms: N_13  and  C_22
    6  A    between atoms: N_13  and  C_38
    7  A    between atoms: C_14  and  C_19
    8  A    between atoms: C_14  and  N_42
    9  A    between atoms: N_15  and  C_20
   10  A    between atoms: C_17  and  C_22
   11  A    between atoms: C_18  and  C_30
   12  A    between atoms: C_20  and  C_23
   13  A    between atoms: C_23  and  C_39
   14  A    between atoms: N_25  and  C_36
                            x       y       z     vdW  Elec       q    Type
                         _______ _______ _______ _____ _____    ______ ____

>  <TORSDO>
F 14

$$$$
=
 OpenBabel11042415183D

 45 49  0  0  1  0  0  0  0  0999 V2000
  189.8020  175.1420  145.2320 C   0  0  1  0  0  3  0  0  0  0  0  0
  186.4930  176.8250  145.8090 N   0  0  0  0  0  0  0  0  0  0  0  0
  188.6510  177.2950  146.8850 C   0  0  0  0  0  2  0  0  0  0  0  0
  192.0430  175.5820  144.2470 C   0  0  1  0  0  3  0  0  0  0  0  0
  192.1260  175.6230  146.0140 S   0  0  0  0  0  0  0  0  0  0  0  0
  192.7110  174.3410  146.5360 O   0  0  0  0  0  0  0  0  0  0  0  0
  190.1080  177.1360  146.5040 C   0  0  0  0  0  2  0  0  0  0  0  0
  190.5500  175.5290  143.9400 C   0  0  1  0  0  3  0  0  0  0  0  0
  192.9070  176.7990  146.5400 O   0  0  0  0  0  0  0  0  0  0  0  0
  187.7550  176.5360  145.9460 C   0  0  0  0  0  0  0  0  0  0  0  0
  190.4510  175.7190  146.4190 N   0  0  1  0  0  0  0  0  0  0  0  0
  188.2820  175.3730  145.1510 C   0  0  0  0  0  2  0  0  0  0  0  0
  188.2930  173.6900  140.1140 C   0  0  0  0  0  2  0  0  0  0  0  0
  191.0680  173.3060  142.7020 C   0  0  0  0  0  2  0  0  0  0  0  0
  190.2620  174.5780  142.8150 C   0  0  0  0  0  0  0  0  0  0  0  0
  189.5250  173.1220  139.3740 C   0  0  1  0  0  3  0  0  0  0  0  0
  189.3750  174.8600  141.8960 C   0  0  0  0  0  0  0  0  0  0  0  0
  188.5640  174.9480  140.8850 C   0  0  0  0  0  3  0  0  0  0  0  0
  190.8210  173.0040  140.2000 C   0  0  0  0  0  2  0  0  0  0  0  0
  190.6210  172.3570  141.5730 C   0  0  0  0  0  2  0  0  0  0  0  0
  189.1910  171.7760  138.7550 C   0  0  0  0  0  2  0  0  0  0  0  0
  189.9860  169.8330  137.7090 C   0  0  0  0  0  2  0  0  0  0  0  0
  190.4790  170.8910  136.8350 C   0  0  2  0  0  3  0  0  0  0  0  0
  190.4110  171.1080  138.3080 N   0  0  0  0  0  0  0  0  0  0  0  0
  189.3160  171.4850  136.0340 C   0  0  0  0  0  2  0  0  0  0  0  0
  189.8090  172.6250  135.1600 C   0  0  0  0  0  2  0  0  0  0  0  0
  191.5280  174.2670  135.7600 C   0  0  1  0  0  0  0  0  0  0  0  0
  189.6700  174.9630  135.2790 C   0  0  0  0  0  2  0  0  0  0  0  0
  190.1550  173.7800  135.9870 N   0  0  0  0  0  0  0  0  0  0  0  0
  192.3480  173.4080  134.9090 N   0  0  0  0  0  1  0  0  0  0  0  0
  191.0690  175.4990  135.0230 C   0  0  0  0  0  2  0  0  0  0  0  0
  192.2330  174.6120  137.0670 C   0  0  0  0  0  2  0  0  0  0  0  0
  193.3510  175.5080  136.8180 N   0  0  0  0  0  2  0  0  0  0  0  0
  194.3050  175.2910  137.8910 C   0  0  0  0  0  1  0  0  0  0  0  0
  185.7160  177.8330  146.4820 C   0  0  0  0  0  0  0  0  0  0  0  0
  185.5710  177.7510  147.7290 O   0  0  0  0  0  0  0  0  0  0  0  0
  185.1370  179.0180  145.7790 C   0  0  0  0  0  2  0  0  0  0  0  0
  185.9570  179.3690  144.6280 N   0  0  0  0  0  2  0  0  0  0  0  0
  185.2680  178.8920  143.4370 C   0  0  0  0  0  2  0  0  0  0  0  0
  187.5160  178.2280  143.0110 F   0  0  0  0  0  0  0  0  0  0  0  0
  185.8550  176.7960  142.4790 F   0  0  0  0  0  0  0  0  0  0  0  0
  186.2230  178.1280  142.5320 C   0  0  0  0  0  0  0  0  0  0  0  0
  186.1700  178.6660  141.2610 F   0  0  0  0  0  0  0  0  0  0  0  0
  191.7300  177.7070  143.1700 F   0  0  0  0  0  0  0  0  0  0  0  0
  192.6880  176.8060  143.6080 C   0  0  0  0  0  2  0  0  0  0  0  0
  1 12  1  6  0  0  0
  1 11  1  0  0  0  0
  2 10  2  0  0  0  0
  2 35  1  0  0  0  0
  4 45  1  6  0  0  0
  4  5  1  0  0  0  0
  5 11  1  0  0  0  0
  5  6  2  0  0  0  0
  5  9  2  0  0  0  0
  7  3  1  0  0  0  0
  8 15  1  6  0  0  0
  8  4  1  0  0  0  0
  8  1  1  0  0  0  0
 10  3  1  0  0  0  0
 11  7  1  6  0  0  0
 12 10  1  0  0  0  0
 13 18  1  0  0  0  0
 14 15  1  0  0  0  0
 16 21  1  1  0  0  0
 16 13  1  0  0  0  0
 16 19  1  0  0  0  0
 17 15  2  0  0  0  0
 18 17  2  0  0  0  0
 19 20  1  0  0  0  0
 20 14  1  0  0  0  0
 22 24  1  0  0  0  0
 23 25  1  6  0  0  0
 23 22  1  0  0  0  0
 23 24  1  0  0  0  0
 24 21  1  0  0  0  0
 26 29  1  0  0  0  0
 26 25  1  0  0  0  0
 27 30  1  6  0  0  0
 27 29  1  0  0  0  0
 27 32  1  0  0  0  0
 28 29  1  0  0  0  0
 31 28  1  0  0  0  0
 31 27  1  0  0  0  0
 33 32  1  0  0  0  0
 33 34  1  0  0  0  0
 35 36  2  0  0  0  0
 37 35  1  0  0  0  0
 38 37  1  0  0  0  0
 39 38  1  0  0  0  0
 41 42  1  0  0  0  0
 42 40  1  0  0  0  0
 42 39  1  0  0  0  0
 43 42  1  0  0  0  0
 44 45  1  0  0  0  0
M  END
>  <MODEL>
7

>  <REMARK>
 VINA RESULT:      -6.2      4.884      8.773
  Name = 
  14 active torsions:
  status: ('A' for Active; 'I' for Inactive)
    1  A    between atoms: C_3  and  C_36
    2  A    between atoms: N_4  and  C_12
    3  A    between atoms: C_10  and  C_34
    4  A    between atoms: C_12  and  C_38
    5  A    between atoms: N_13  and  C_22
    6  A    between atoms: N_13  and  C_38
    7  A    between atoms: C_14  and  C_19
    8  A    between atoms: C_14  and  N_42
    9  A    between atoms: N_15  and  C_20
   10  A    between atoms: C_17  and  C_22
   11  A    between atoms: C_18  and  C_30
   12  A    between atoms: C_20  and  C_23
   13  A    between atoms: C_23  and  C_39
   14  A    between atoms: N_25  and  C_36
                            x       y       z     vdW  Elec       q    Type
                         _______ _______ _______ _____ _____    ______ ____

>  <TORSDO>
F 14

$$$$
=
 OpenBabel11042415183D

 45 49  0  0  1  0  0  0  0  0999 V2000
  189.0130  175.4370  146.0730 C   0  0  1  0  0  3  0  0  0  0  0  0
  185.7340  177.0880  145.2760 N   0  0  0  0  0  0  0  0  0  0  0  0
  187.4650  177.8210  146.8570 C   0  0  0  0  0  2  0  0  0  0  0  0
  191.4610  175.7610  145.7630 C   0  0  1  0  0  3  0  0  0  0  0  0
  190.9940  176.1330  147.4290 S   0  0  0  0  0  0  0  0  0  0  0  0
  191.3550  174.9900  148.3360 O   0  0  0  0  0  0  0  0  0  0  0  0
  188.9640  177.6430  146.9810 C   0  0  0  0  0  2  0  0  0  0  0  0
  190.1350  175.6030  145.0260 C   0  0  1  0  0  3  0  0  0  0  0  0
  191.6040  177.4110  147.9410 O   0  0  0  0  0  0  0  0  0  0  0  0
  186.8840  176.8710  145.8470 C   0  0  0  0  0  0  0  0  0  0  0  0
  189.2790  176.2470  147.2720 N   0  0  1  0  0  0  0  0  0  0  0  0
  187.6000  175.5990  145.4850 C   0  0  0  0  0  2  0  0  0  0  0  0
  189.4500  173.1610  140.9420 C   0  0  0  0  0  2  0  0  0  0  0  0
  190.6910  173.1120  144.5470 C   0  0  0  0  0  2  0  0  0  0  0  0
  190.1830  174.4500  144.0650 C   0  0  0  0  0  0  0  0  0  0  0  0
  190.7440  172.3150  140.9620 C   0  0  1  0  0  3  0  0  0  0  0  0
  189.8570  174.5980  142.8070 C   0  0  0  0  0  0  0  0  0  0  0  0
  189.6000  174.5300  141.5360 C   0  0  0  0  0  3  0  0  0  0  0  0
  191.5010  172.2630  142.3030 C   0  0  0  0  0  2  0  0  0  0  0  0
  190.6030  171.9760  143.5090 C   0  0  0  0  0  2  0  0  0  0  0  0
  190.4550  170.9030  140.4830 C   0  0  0  0  0  2  0  0  0  0  0  0
  191.2400  169.0060  139.3500 C   0  0  0  0  0  2  0  0  0  0  0  0
  191.2450  170.0270  138.3070 C   0  0  2  0  0  3  0  0  0  0  0  0
  191.5850  170.3890  139.7130 N   0  0  0  0  0  0  0  0  0  0  0  0
  189.8080  170.3400  137.8820 C   0  0  0  0  0  2  0  0  0  0  0  0
  189.8020  171.3680  136.7650 C   0  0  0  0  0  2  0  0  0  0  0  0
  190.4710  173.6720  136.2550 C   0  0  1  0  0  0  0  0  0  0  0  0
  188.8430  173.3940  137.4540 C   0  0  0  0  0  2  0  0  0  0  0  0
  190.1160  172.6930  137.2990 N   0  0  0  0  0  0  0  0  0  0  0  0
  190.6320  173.1060  134.9160 N   0  0  0  0  0  1  0  0  0  0  0  0
  189.1690  174.4210  136.3840 C   0  0  0  0  0  2  0  0  0  0  0  0
  191.6660  174.5270  136.6580 C   0  0  0  0  0  2  0  0  0  0  0  0
  192.0490  175.4100  135.5680 N   0  0  0  0  0  2  0  0  0  0  0  0
  192.9780  176.3780  136.1230 C   0  0  0  0  0  1  0  0  0  0  0  0
  184.8140  178.1770  145.4750 C   0  0  0  0  0  0  0  0  0  0  0  0
  184.1320  178.2050  146.5320 O   0  0  0  0  0  0  0  0  0  0  0  0
  184.6880  179.3210  144.5210 C   0  0  0  0  0  2  0  0  0  0  0  0
  185.8810  179.4180  143.6930 N   0  0  0  0  0  2  0  0  0  0  0  0
  185.6250  178.6770  142.4660 C   0  0  0  0  0  2  0  0  0  0  0  0
  186.5120  176.4820  142.1990 F   0  0  0  0  0  0  0  0  0  0  0  0
  187.2130  178.1010  140.7910 F   0  0  0  0  0  0  0  0  0  0  0  0
  186.8280  177.8240  142.0900 C   0  0  0  0  0  0  0  0  0  0  0  0
  187.8740  178.1130  142.9450 F   0  0  0  0  0  0  0  0  0  0  0  0
  191.5520  177.6360  144.2630 F   0  0  0  0  0  0  0  0  0  0  0  0
  192.3030  176.8660  145.1370 C   0  0  0  0  0  2  0  0  0  0  0  0
  1 12  1  6  0  0  0
  1 11  1  0  0  0  0
  2 35  1  0  0  0  0
  2 10  2  0  0  0  0
  3  7  1  0  0  0  0
  4 45  1  6  0  0  0
  4  5  1  0  0  0  0
  5  9  2  0  0  0  0
  5  6  2  0  0  0  0
  8 15  1  6  0  0  0
  8  4  1  0  0  0  0
  8  1  1  0  0  0  0
 10  3  1  0  0  0  0
 11  7  1  6  0  0  0
 11  5  1  0  0  0  0
 12 10  1  0  0  0  0
 13 16  1  0  0  0  0
 13 18  1  0  0  0  0
 15 14  1  0  0  0  0
 16 21  1  1  0  0  0
 16 19  1  0  0  0  0
 17 15  2  0  0  0  0
 18 17  2  0  0  0  0
 19 20  1  0  0  0  0
 20 14  1  0  0  0  0
 22 24  1  0  0  0  0
 23 25  1  1  0  0  0
 23 22  1  0  0  0  0
 23 24  1  0  0  0  0
 24 21  1  0  0  0  0
 26 29  1  0  0  0  0
 26 25  1  0  0  0  0
 27 30  1  6  0  0  0
 27 31  1  0  0  0  0
 27 32  1  0  0  0  0
 27 29  1  0  0  0  0
 29 28  1  0  0  0  0
 31 28  1  0  0  0  0
 33 34  1  0  0  0  0
 33 32  1  0  0  0  0
 35 36  2  0  0  0  0
 37 35  1  0  0  0  0
 38 37  1  0  0  0  0
 39 38  1  0  0  0  0
 41 42  1  0  0  0  0
 42 40  1  0  0  0  0
 42 39  1  0  0  0  0
 42 43  1  0  0  0  0
 44 45  1  0  0  0  0
M  END
>  <MODEL>
8

>  <REMARK>
 VINA RESULT:      -6.2      4.771      8.768
  Name = 
  14 active torsions:
  status: ('A' for Active; 'I' for Inactive)
    1  A    between atoms: C_3  and  C_36
    2  A    between atoms: N_4  and  C_12
    3  A    between atoms: C_10  and  C_34
    4  A    between atoms: C_12  and  C_38
    5  A    between atoms: N_13  and  C_22
    6  A    between atoms: N_13  and  C_38
    7  A    between atoms: C_14  and  C_19
    8  A    between atoms: C_14  and  N_42
    9  A    between atoms: N_15  and  C_20
   10  A    between atoms: C_17  and  C_22
   11  A    between atoms: C_18  and  C_30
   12  A    between atoms: C_20  and  C_23
   13  A    between atoms: C_23  and  C_39
   14  A    between atoms: N_25  and  C_36
                            x       y       z     vdW  Elec       q    Type
                         _______ _______ _______ _____ _____    ______ ____

>  <TORSDO>
F 14

$$$$
=
 OpenBabel11042415183D

 45 49  0  0  1  0  0  0  0  0999 V2000
  191.3530  172.6280  142.5150 C   0  0  1  0  0  3  0  0  0  0  0  0
  194.0680  173.5050  144.9600 N   0  0  0  0  0  0  0  0  0  0  0  0
  194.2090  172.0580  142.9790 C   0  0  0  0  0  2  0  0  0  0  0  0
  190.6770  173.0370  140.1560 C   0  0  1  0  0  3  0  0  0  0  0  0
  191.3430  171.4080  140.3350 S   0  0  0  0  0  0  0  0  0  0  0  0
  190.2340  170.3950  140.3790 O   0  0  0  0  0  0  0  0  0  0  0  0
  193.4760  171.9570  141.6580 C   0  0  0  0  0  2  0  0  0  0  0  0
  190.9810  173.7170  141.4880 C   0  0  1  0  0  3  0  0  0  0  0  0
  192.3250  171.0510  139.2490 O   0  0  0  0  0  0  0  0  0  0  0  0
  193.4740  172.9460  143.9450 C   0  0  0  0  0  0  0  0  0  0  0  0
  192.0980  171.5290  141.8820 N   0  0  1  0  0  0  0  0  0  0  0  0
  191.9980  173.1910  143.7950 C   0  0  0  0  0  2  0  0  0  0  0  0
  188.6260  177.5740  143.1260 C   0  0  0  0  0  2  0  0  0  0  0  0
  188.4650  173.9040  142.1050 C   0  0  0  0  0  2  0  0  0  0  0  0
  189.8200  174.5510  141.9470 C   0  0  0  0  0  0  0  0  0  0  0  0
  187.3010  177.3780  142.3540 C   0  0  1  0  0  3  0  0  0  0  0  0
  189.9450  175.8380  142.1490 C   0  0  0  0  0  0  0  0  0  0  0  0
  189.8450  177.1110  142.3860 C   0  0  0  0  0  3  0  0  0  0  0  0
  187.0790  175.9890  141.7260 C   0  0  0  0  0  2  0  0  0  0  0  0
  187.3710  174.8260  142.6780 C   0  0  0  0  0  2  0  0  0  0  0  0
  186.1190  177.7320  143.2400 C   0  0  0  0  0  2  0  0  0  0  0  0
  185.3510  178.9550  145.0880 C   0  0  0  0  0  2  0  0  0  0  0  0
  186.6000  178.3840  145.5790 C   0  0  2  0  0  3  0  0  0  0  0  0
  186.4800  178.8120  144.1560 N   0  0  0  0  0  0  0  0  0  0  0  0
  186.4220  176.8840  145.8270 C   0  0  0  0  0  2  0  0  0  0  0  0
  187.3730  176.4140  146.9140 C   0  0  0  0  0  2  0  0  0  0  0  0
  189.8200  176.5240  146.8020 C   0  0  1  0  0  0  0  0  0  0  0  0
  188.9610  174.6980  147.1060 C   0  0  0  0  0  2  0  0  0  0  0  0
  188.5920  175.8710  146.3150 N   0  0  0  0  0  0  0  0  0  0  0  0
  189.5950  177.7050  147.6340 N   0  0  0  0  0  1  0  0  0  0  0  0
  190.2350  175.3360  147.6320 C   0  0  0  0  0  2  0  0  0  0  0  0
  190.8040  176.8040  145.6720 C   0  0  0  0  0  2  0  0  0  0  0  0
  192.1420  176.3760  146.0470 N   0  0  0  0  0  2  0  0  0  0  0  0
  193.0380  176.8560  145.0110 C   0  0  0  0  0  1  0  0  0  0  0  0
  195.4410  173.3970  145.3780 C   0  0  0  0  0  0  0  0  0  0  0  0
  195.8740  172.2730  145.7440 O   0  0  0  0  0  0  0  0  0  0  0  0
  196.4020  174.5410  145.3240 C   0  0  0  0  0  2  0  0  0  0  0  0
  196.8740  174.7350  143.9600 N   0  0  0  0  0  2  0  0  0  0  0  0
  196.2950  175.9770  143.4690 C   0  0  0  0  0  2  0  0  0  0  0  0
  194.2380  175.7540  142.2860 F   0  0  0  0  0  0  0  0  0  0  0  0
  195.9670  176.7680  141.2490 F   0  0  0  0  0  0  0  0  0  0  0  0
  195.6120  175.7590  142.1260 C   0  0  0  0  0  0  0  0  0  0  0  0
  196.0110  174.5430  141.6070 F   0  0  0  0  0  0  0  0  0  0  0  0
  190.3610  174.1670  138.0590 F   0  0  0  0  0  0  0  0  0  0  0  0
  191.3110  173.7990  138.9990 C   0  0  0  0  0  2  0  0  0  0  0  0
  1 12  1  1  0  0  0
  2 35  1  0  0  0  0
  3 10  1  0  0  0  0
  4 45  1  6  0  0  0
  4  5  1  0  0  0  0
  4  8  1  0  0  0  0
  5  6  2  0  0  0  0
  5 11  1  0  0  0  0
  7  3  1  0  0  0  0
  8 15  1  1  0  0  0
  8  1  1  0  0  0  0
  9  5  2  0  0  0  0
 10  2  2  0  0  0  0
 11  7  1  6  0  0  0
 11  1  1  0  0  0  0
 12 10  1  0  0  0  0
 14 20  1  0  0  0  0
 15 14  1  0  0  0  0
 15 17  2  0  0  0  0
 16 13  1  0  0  0  0
 16 21  1  1  0  0  0
 17 18  2  0  0  0  0
 18 13  1  0  0  0  0
 19 16  1  0  0  0  0
 19 20  1  0  0  0  0
 21 24  1  0  0  0  0
 22 23  1  0  0  0  0
 23 25  1  6  0  0  0
 24 22  1  0  0  0  0
 24 23  1  0  0  0  0
 25 26  1  0  0  0  0
 27 31  1  0  0  0  0
 27 30  1  1  0  0  0
 28 31  1  0  0  0  0
 29 27  1  0  0  0  0
 29 26  1  0  0  0  0
 29 28  1  0  0  0  0
 32 33  1  0  0  0  0
 32 27  1  0  0  0  0
 34 33  1  0  0  0  0
 35 36  2  0  0  0  0
 37 35  1  0  0  0  0
 38 37  1  0  0  0  0
 39 38  1  0  0  0  0
 41 42  1  0  0  0  0
 42 40  1  0  0  0  0
 42 39  1  0  0  0  0
 43 42  1  0  0  0  0
 44 45  1  0  0  0  0
M  END
>  <MODEL>
9

>  <REMARK>
 VINA RESULT:      -6.1      2.995      5.579
  Name = 
  14 active torsions:
  status: ('A' for Active; 'I' for Inactive)
    1  A    between atoms: C_3  and  C_36
    2  A    between atoms: N_4  and  C_12
    3  A    between atoms: C_10  and  C_34
    4  A    between atoms: C_12  and  C_38
    5  A    between atoms: N_13  and  C_22
    6  A    between atoms: N_13  and  C_38
    7  A    between atoms: C_14  and  C_19
    8  A    between atoms: C_14  and  N_42
    9  A    between atoms: N_15  and  C_20
   10  A    between atoms: C_17  and  C_22
   11  A    between atoms: C_18  and  C_30
   12  A    between atoms: C_20  and  C_23
   13  A    between atoms: C_23  and  C_39
   14  A    between atoms: N_25  and  C_36
                            x       y       z     vdW  Elec       q    Type
                         _______ _______ _______ _____ _____    ______ ____

>  <TORSDO>
F 14

$$$$
