=
 OpenBabel11042414483D

 28 31  0  0  1  0  0  0  0  0999 V2000
  188.6290  176.8960  146.9230 C   0  0  0  0  0  3  0  0  0  0  0  0
  193.9230  176.2260  146.1490 N   0  0  0  0  0  1  0  0  0  0  0  0
  190.5970  176.9820  145.4800 C   0  0  0  0  0  0  0  0  0  0  0  0
  189.2280  177.1560  145.6870 C   0  0  0  0  0  0  0  0  0  0  0  0
  192.4960  177.0030  144.3350 N   0  0  0  0  0  0  0  0  0  0  0  0
  186.4840  177.5730  146.0210 C   0  0  0  0  0  3  0  0  0  0  0  0
  188.4470  177.6200  144.5930 C   0  0  0  0  0  0  0  0  0  0  0  0
  192.6560  176.5960  145.6190 C   0  0  0  0  0  0  0  0  0  0  0  0
  189.0610  177.8740  143.3340 C   0  0  0  0  0  0  0  0  0  0  0  0
  191.1790  177.2430  144.2760 C   0  0  0  0  0  0  0  0  0  0  0  0
  186.2560  178.3840  143.6590 C   0  0  0  0  0  0  0  0  0  0  0  0
  188.2460  178.3010  142.1380 C   0  0  2  0  0  3  0  0  0  0  0  0
  191.5200  176.5660  146.3610 N   0  0  0  0  0  2  0  0  0  0  0  0
  190.4480  177.6850  143.1770 C   0  0  0  0  0  3  0  0  0  0  0  0
  187.0670  177.8390  144.7720 C   0  0  0  0  0  0  0  0  0  0  0  0
  187.2580  177.1000  147.0860 C   0  0  0  0  0  3  0  0  0  0  0  0
  186.8090  178.6180  142.4670 C   0  0  0  0  0  3  0  0  0  0  0  0
  183.7460  178.9710  143.9890 N   0  0  0  0  0  0  0  0  0  0  0  0
  184.8640  178.7090  143.8430 C   0  0  0  0  0  0  0  0  0  0  0  0
  188.2820  177.3040  141.1600 O   0  0  0  0  0  0  0  0  0  0  0  0
  187.1150  176.5640  141.3550 C   0  0  0  0  0  2  0  0  0  0  0  0
  187.4740  175.1170  141.6220 C   0  0  0  0  0  2  0  0  0  0  0  0
  190.9950  174.1560  141.7480 O   0  0  0  0  0  0  0  0  0  0  0  0
  189.4350  174.0130  143.4780 N   0  0  0  0  0  2  0  0  0  0  0  0
  189.8130  174.3410  142.1390 C   0  0  0  0  0  0  0  0  0  0  0  0
  188.8520  174.8810  141.2310 N   0  0  0  0  0  2  0  0  0  0  0  0
  190.3830  173.4620  144.4310 C   0  0  0  0  0  2  0  0  0  0  0  0
  189.7660  173.4660  145.8150 C   0  0  0  0  0  1  0  0  0  0  0  0
  1 16  1  0  0  0  0
  3  4  1  0  0  0  0
  3 13  1  0  0  0  0
  4  1  2  0  0  0  0
  5  8  2  0  0  0  0
  6 16  2  0  0  0  0
  7 15  2  0  0  0  0
  7  4  1  0  0  0  0
  8  2  1  0  0  0  0
  8 13  1  0  0  0  0
  9  7  1  0  0  0  0
 10  5  1  0  0  0  0
 10  3  2  0  0  0  0
 11 19  1  0  0  0  0
 11 15  1  0  0  0  0
 12 20  1  6  0  0  0
 12 17  1  0  0  0  0
 12  9  1  0  0  0  0
 14  9  2  0  0  0  0
 14 10  1  0  0  0  0
 15  6  1  0  0  0  0
 17 11  2  0  0  0  0
 19 18  3  0  0  0  0
 20 21  1  0  0  0  0
 21 22  1  0  0  0  0
 23 25  2  0  0  0  0
 24 27  1  0  0  0  0
 25 24  1  0  0  0  0
 26 22  1  0  0  0  0
 26 25  1  0  0  0  0
 27 28  1  0  0  0  0
M  END
>  <MODEL>
1

>  <REMARK>
 VINA RESULT:      -6.9      0.000      0.000
  Name = 
  6 active torsions:
  status: ('A' for Active; 'I' for Inactive)
    1  A    between atoms: C_3  and  N_5
    2  A    between atoms: C_11  and  C_14
    3  A    between atoms: C_11  and  N_22
    4  A    between atoms: C_14  and  O_15
    5  A    between atoms: O_15  and  C_23
    6  A    between atoms: C_16  and  C_21
                            x       y       z     vdW  Elec       q    Type
                         _______ _______ _______ _____ _____    ______ ____

>  <TORSDO>
F 6

$$$$
=
 OpenBabel11042414483D

 28 31  0  0  1  0  0  0  0  0999 V2000
  192.2710  175.3190  147.1020 C   0  0  0  0  0  3  0  0  0  0  0  0
  196.6110  175.1410  143.9060 N   0  0  0  0  0  1  0  0  0  0  0  0
  193.3710  175.8040  144.9760 C   0  0  0  0  0  0  0  0  0  0  0  0
  192.2520  175.8500  145.8090 C   0  0  0  0  0  0  0  0  0  0  0  0
  194.5420  176.1640  143.1270 N   0  0  0  0  0  0  0  0  0  0  0  0
  189.9750  176.0230  147.4210 C   0  0  0  0  0  3  0  0  0  0  0  0
  191.0750  176.4670  145.3030 C   0  0  0  0  0  0  0  0  0  0  0  0
  195.2550  175.5260  144.0900 C   0  0  0  0  0  0  0  0  0  0  0  0
  191.0580  176.9970  143.9820 C   0  0  0  0  0  0  0  0  0  0  0  0
  193.3500  176.3280  143.7190 C   0  0  0  0  0  0  0  0  0  0  0  0
  188.7260  177.2600  145.6330 C   0  0  0  0  0  0  0  0  0  0  0  0
  189.8040  177.5970  143.3950 C   0  0  2  0  0  3  0  0  0  0  0  0
  194.5790  175.2830  145.2430 N   0  0  0  0  0  2  0  0  0  0  0  0
  192.2160  176.9290  143.1820 C   0  0  0  0  0  3  0  0  0  0  0  0
  189.9360  176.5610  146.1250 C   0  0  0  0  0  0  0  0  0  0  0  0
  191.1310  175.4020  147.9030 C   0  0  0  0  0  3  0  0  0  0  0  0
  188.6850  177.7550  144.3930 C   0  0  0  0  0  3  0  0  0  0  0  0
  186.6620  177.6150  147.1700 N   0  0  0  0  0  0  0  0  0  0  0  0
  187.5810  177.4570  146.4850 C   0  0  0  0  0  0  0  0  0  0  0  0
  189.3590  176.8120  142.3280 O   0  0  0  0  0  0  0  0  0  0  0  0
  188.4070  177.5970  141.6750 C   0  0  0  0  0  2  0  0  0  0  0  0
  187.3430  176.7030  141.0740 C   0  0  0  0  0  2  0  0  0  0  0  0
  184.4230  178.7720  140.3420 O   0  0  0  0  0  0  0  0  0  0  0  0
  185.0040  177.8360  142.4000 N   0  0  0  0  0  2  0  0  0  0  0  0
  185.2310  178.0720  141.0090 C   0  0  0  0  0  0  0  0  0  0  0  0
  186.3750  177.5170  140.3600 N   0  0  0  0  0  2  0  0  0  0  0  0
  183.8520  178.3820  143.0960 C   0  0  0  0  0  2  0  0  0  0  0  0
  184.3020  179.0190  144.3950 C   0  0  0  0  0  1  0  0  0  0  0  0
  1 16  1  0  0  0  0
  2  8  1  0  0  0  0
  3 13  1  0  0  0  0
  3  4  1  0  0  0  0
  4  1  2  0  0  0  0
  5 10  1  0  0  0  0
  5  8  2  0  0  0  0
  6 16  2  0  0  0  0
  7  4  1  0  0  0  0
  7 15  2  0  0  0  0
  8 13  1  0  0  0  0
  9  7  1  0  0  0  0
 10  3  2  0  0  0  0
 11 15  1  0  0  0  0
 11 19  1  0  0  0  0
 12 20  1  6  0  0  0
 12  9  1  0  0  0  0
 12 17  1  0  0  0  0
 14 10  1  0  0  0  0
 14  9  2  0  0  0  0
 15  6  1  0  0  0  0
 17 11  2  0  0  0  0
 19 18  3  0  0  0  0
 21 20  1  0  0  0  0
 22 21  1  0  0  0  0
 23 25  2  0  0  0  0
 24 27  1  0  0  0  0
 25 24  1  0  0  0  0
 26 25  1  0  0  0  0
 26 22  1  0  0  0  0
 27 28  1  0  0  0  0
M  END
>  <MODEL>
2

>  <REMARK>
 VINA RESULT:      -6.9      2.219      4.227
  Name = 
  6 active torsions:
  status: ('A' for Active; 'I' for Inactive)
    1  A    between atoms: C_3  and  N_5
    2  A    between atoms: C_11  and  C_14
    3  A    between atoms: C_11  and  N_22
    4  A    between atoms: C_14  and  O_15
    5  A    between atoms: O_15  and  C_23
    6  A    between atoms: C_16  and  C_21
                            x       y       z     vdW  Elec       q    Type
                         _______ _______ _______ _____ _____    ______ ____

>  <TORSDO>
F 6

$$$$
=
 OpenBabel11042414483D

 28 31  0  0  1  0  0  0  0  0999 V2000
  186.3080  176.8010  142.0000 C   0  0  0  0  0  3  0  0  0  0  0  0
  189.7680  173.6040  139.3740 N   0  0  0  0  0  1  0  0  0  0  0  0
  188.2420  175.3110  141.9910 C   0  0  0  0  0  0  0  0  0  0  0  0
  187.3430  176.1370  142.6650 C   0  0  0  0  0  0  0  0  0  0  0  0
  189.9660  173.9310  141.7800 N   0  0  0  0  0  0  0  0  0  0  0  0
  185.5620  177.7400  144.1050 C   0  0  0  0  0  3  0  0  0  0  0  0
  187.5030  176.2840  144.0700 C   0  0  2  0  0  3  0  0  0  0  0  0
  189.3410  174.1810  140.6020 C   0  0  0  0  0  0  0  0  0  0  0  0
  188.5650  175.6130  144.7410 C   0  0  0  0  0  0  0  0  0  0  0  0
  189.2460  174.6610  142.6430 C   0  0  0  0  0  0  0  0  0  0  0  0
  186.7130  177.1900  146.2630 C   0  0  0  0  0  0  0  0  0  0  0  0
  188.8000  175.8040  146.2190 C   0  0  0  0  0  0  0  0  0  0  0  0
  188.2780  175.0220  140.6800 N   0  0  0  0  0  2  0  0  0  0  0  0
  189.4460  174.7870  144.0150 C   0  0  0  0  0  3  0  0  0  0  0  0
  186.5950  177.0830  144.7910 C   0  0  0  0  0  0  0  0  0  0  0  0
  185.4230  177.6050  142.7200 C   0  0  0  0  0  3  0  0  0  0  0  0
  187.7080  176.5790  146.9110 C   0  0  0  0  0  3  0  0  0  0  0  0
  184.9610  178.5070  147.6580 N   0  0  0  0  0  0  0  0  0  0  0  0
  185.7420  177.9210  147.0370 C   0  0  0  0  0  0  0  0  0  0  0  0
  190.0220  176.4510  146.4240 O   0  0  0  0  0  0  0  0  0  0  0  0
  190.6200  175.7650  147.4830 C   0  0  0  0  0  2  0  0  0  0  0  0
  191.9940  175.2880  147.0620 C   0  0  0  0  0  2  0  0  0  0  0  0
  194.8150  177.3170  145.9370 O   0  0  0  0  0  0  0  0  0  0  0  0
  194.6540  174.9890  145.9020 N   0  0  0  0  0  2  0  0  0  0  0  0
  194.1320  176.2890  146.1860 C   0  0  0  0  0  0  0  0  0  0  0  0
  192.8300  176.4350  146.7540 N   0  0  0  0  0  2  0  0  0  0  0  0
  195.9730  174.7990  145.3250 C   0  0  0  0  0  2  0  0  0  0  0  0
  196.7320  173.7640  146.1300 C   0  0  0  0  0  1  0  0  0  0  0  0
  1  4  2  0  0  0  0
  1 16  1  0  0  0  0
  2  8  1  0  0  0  0
  3 10  2  0  0  0  0
  3  4  1  0  0  0  0
  5 10  1  0  0  0  0
  6 15  1  0  0  0  0
  7  4  1  1  0  0  0
  7  9  1  0  0  0  0
  7 15  1  0  0  0  0
  8 13  1  0  0  0  0
  8  5  2  0  0  0  0
  9 12  1  0  0  0  0
 10 14  1  0  0  0  0
 11 17  1  0  0  0  0
 11 19  1  0  0  0  0
 12 20  1  0  0  0  0
 12 17  2  0  0  0  0
 13  3  1  0  0  0  0
 14  9  2  0  0  0  0
 15 11  2  0  0  0  0
 16  6  2  0  0  0  0
 19 18  3  0  0  0  0
 20 21  1  0  0  0  0
 22 21  1  0  0  0  0
 23 25  2  0  0  0  0
 24 25  1  0  0  0  0
 25 26  1  0  0  0  0
 26 22  1  0  0  0  0
 27 24  1  0  0  0  0
 27 28  1  0  0  0  0
M  END
>  <MODEL>
3

>  <REMARK>
 VINA RESULT:      -6.8      2.496      5.231
  Name = 
  6 active torsions:
  status: ('A' for Active; 'I' for Inactive)
    1  A    between atoms: C_3  and  N_5
    2  A    between atoms: C_11  and  C_14
    3  A    between atoms: C_11  and  N_22
    4  A    between atoms: C_14  and  O_15
    5  A    between atoms: O_15  and  C_23
    6  A    between atoms: C_16  and  C_21
                            x       y       z     vdW  Elec       q    Type
                         _______ _______ _______ _____ _____    ______ ____

>  <TORSDO>
F 6

$$$$
=
 OpenBabel11042414483D

 28 31  0  0  1  0  0  0  0  0999 V2000
  186.3920  178.1200  146.8620 C   0  0  0  0  0  3  0  0  0  0  0  0
  191.4640  176.8990  148.2290 N   0  0  0  0  0  1  0  0  0  0  0  0
  188.6130  177.2900  146.2780 C   0  0  0  0  0  0  0  0  0  0  0  0
  187.3010  177.6100  145.9300 C   0  0  0  0  0  0  0  0  0  0  0  0
  190.6870  176.5770  145.9440 N   0  0  0  0  0  0  0  0  0  0  0  0
  184.7020  178.2620  145.1310 C   0  0  0  0  0  3  0  0  0  0  0  0
  186.9060  177.4090  144.5790 C   0  0  0  0  0  0  0  0  0  0  0  0
  190.4580  176.9600  147.2250 C   0  0  0  0  0  0  0  0  0  0  0  0
  187.8330  176.8800  143.6360 C   0  0  0  0  0  0  0  0  0  0  0  0
  189.4980  176.7990  145.3660 C   0  0  0  0  0  0  0  0  0  0  0  0
  185.1980  177.6060  142.7630 C   0  0  0  0  0  0  0  0  0  0  0  0
  187.4230  176.5920  142.2120 C   0  0  2  0  0  3  0  0  0  0  0  0
  189.2010  177.4040  147.4800 N   0  0  0  0  0  2  0  0  0  0  0  0
  189.1480  176.5750  144.0380 C   0  0  0  0  0  3  0  0  0  0  0  0
  185.5990  177.7500  144.1810 C   0  0  0  0  0  0  0  0  0  0  0  0
  185.0940  178.4400  146.4620 C   0  0  0  0  0  3  0  0  0  0  0  0
  186.0480  177.1020  141.8640 C   0  0  0  0  0  3  0  0  0  0  0  0
  182.8590  178.3880  141.9440 N   0  0  0  0  0  0  0  0  0  0  0  0
  183.9010  178.0390  142.3080 C   0  0  0  0  0  0  0  0  0  0  0  0
  187.4750  175.2160  141.9740 O   0  0  0  0  0  0  0  0  0  0  0  0
  188.2700  175.0780  140.8350 C   0  0  0  0  0  2  0  0  0  0  0  0
  189.4050  174.1180  141.1260 C   0  0  0  0  0  2  0  0  0  0  0  0
  189.3240  172.0160  144.1120 O   0  0  0  0  0  0  0  0  0  0  0  0
  190.9810  173.5470  143.5140 N   0  0  0  0  0  2  0  0  0  0  0  0
  189.7450  172.8670  143.2850 C   0  0  0  0  0  0  0  0  0  0  0  0
  188.9740  173.1470  142.1160 N   0  0  0  0  0  2  0  0  0  0  0  0
  191.7940  173.2910  144.6890 C   0  0  0  0  0  2  0  0  0  0  0  0
  193.0690  174.1050  144.6090 C   0  0  0  0  0  1  0  0  0  0  0  0
  3 13  1  0  0  0  0
  4  3  1  0  0  0  0
  4  1  2  0  0  0  0
  5  8  2  0  0  0  0
  6 16  2  0  0  0  0
  7  4  1  0  0  0  0
  8 13  1  0  0  0  0
  8  2  1  0  0  0  0
  9 14  2  0  0  0  0
  9  7  1  0  0  0  0
 10  5  1  0  0  0  0
 10  3  2  0  0  0  0
 11 15  1  0  0  0  0
 12 20  1  1  0  0  0
 12  9  1  0  0  0  0
 14 10  1  0  0  0  0
 15  7  2  0  0  0  0
 15  6  1  0  0  0  0
 16  1  1  0  0  0  0
 17 12  1  0  0  0  0
 17 11  2  0  0  0  0
 18 19  3  0  0  0  0
 19 11  1  0  0  0  0
 21 22  1  0  0  0  0
 21 20  1  0  0  0  0
 22 26  1  0  0  0  0
 24 27  1  0  0  0  0
 25 24  1  0  0  0  0
 25 23  2  0  0  0  0
 26 25  1  0  0  0  0
 28 27  1  0  0  0  0
M  END
>  <MODEL>
4

>  <REMARK>
 VINA RESULT:      -6.8      1.815      2.269
  Name = 
  6 active torsions:
  status: ('A' for Active; 'I' for Inactive)
    1  A    between atoms: C_3  and  N_5
    2  A    between atoms: C_11  and  C_14
    3  A    between atoms: C_11  and  N_22
    4  A    between atoms: C_14  and  O_15
    5  A    between atoms: O_15  and  C_23
    6  A    between atoms: C_16  and  C_21
                            x       y       z     vdW  Elec       q    Type
                         _______ _______ _______ _____ _____    ______ ____

>  <TORSDO>
F 6

$$$$
=
 OpenBabel11042414483D

 28 31  0  0  1  0  0  0  0  0999 V2000
  184.9570  177.7260  145.5960 C   0  0  0  0  0  3  0  0  0  0  0  0
  182.5870  178.8490  140.8830 N   0  0  0  0  0  1  0  0  0  0  0  0
  184.9590  177.7070  143.1540 C   0  0  0  0  0  0  0  0  0  0  0  0
  185.5660  177.4160  144.3760 C   0  0  0  0  0  0  0  0  0  0  0  0
  184.7720  177.7720  140.9450 N   0  0  0  0  0  0  0  0  0  0  0  0
  186.8390  176.7590  146.7770 C   0  0  0  0  0  3  0  0  0  0  0  0
  186.8380  176.7800  144.3500 C   0  0  0  0  0  0  0  0  0  0  0  0
  183.7010  178.3080  141.5840 C   0  0  0  0  0  0  0  0  0  0  0  0
  187.4580  176.4750  143.1050 C   0  0  0  0  0  0  0  0  0  0  0  0
  185.5530  177.3980  141.9670 C   0  0  0  0  0  0  0  0  0  0  0  0
  188.7610  175.7200  145.5470 C   0  0  0  0  0  0  0  0  0  0  0  0
  188.8350  175.8620  143.0460 C   0  0  2  0  0  3  0  0  0  0  0  0
  183.7700  178.2910  142.9390 N   0  0  0  0  0  2  0  0  0  0  0  0
  186.8010  176.7870  141.8970 C   0  0  0  0  0  3  0  0  0  0  0  0
  187.4680  176.4410  145.5630 C   0  0  0  0  0  0  0  0  0  0  0  0
  185.5970  177.4010  146.7930 C   0  0  0  0  0  3  0  0  0  0  0  0
  189.3650  175.4340  144.3910 C   0  0  0  0  0  3  0  0  0  0  0  0
  189.8770  174.9160  147.7510 N   0  0  0  0  0  0  0  0  0  0  0  0
  189.3800  175.2740  146.7690 C   0  0  0  0  0  0  0  0  0  0  0  0
  189.7310  176.7660  142.4670 O   0  0  0  0  0  0  0  0  0  0  0  0
  190.9970  176.2810  142.7980 C   0  0  0  0  0  2  0  0  0  0  0  0
  191.8790  177.4320  143.2370 C   0  0  0  0  0  2  0  0  0  0  0  0
  193.9480  176.5420  146.1120 O   0  0  0  0  0  0  0  0  0  0  0  0
  194.5420  176.4160  143.8580 N   0  0  0  0  0  2  0  0  0  0  0  0
  193.6200  176.7150  144.9080 C   0  0  0  0  0  0  0  0  0  0  0  0
  192.3160  177.2120  144.6040 N   0  0  0  0  0  2  0  0  0  0  0  0
  195.8760  175.9080  144.1260 C   0  0  0  0  0  2  0  0  0  0  0  0
  196.8520  176.5060  143.1350 C   0  0  0  0  0  1  0  0  0  0  0  0
  1 16  1  0  0  0  0
  2  8  1  0  0  0  0
  3  4  1  0  0  0  0
  4  1  2  0  0  0  0
  5  8  2  0  0  0  0
  5 10  1  0  0  0  0
  6 16  2  0  0  0  0
  7  4  1  0  0  0  0
  7 15  2  0  0  0  0
  8 13  1  0  0  0  0
  9  7  1  0  0  0  0
 10  3  2  0  0  0  0
 11 15  1  0  0  0  0
 11 19  1  0  0  0  0
 12 20  1  1  0  0  0
 12  9  1  0  0  0  0
 12 17  1  0  0  0  0
 13  3  1  0  0  0  0
 14 10  1  0  0  0  0
 14  9  2  0  0  0  0
 15  6  1  0  0  0  0
 17 11  2  0  0  0  0
 19 18  3  0  0  0  0
 20 21  1  0  0  0  0
 21 22  1  0  0  0  0
 22 26  1  0  0  0  0
 24 27  1  0  0  0  0
 24 25  1  0  0  0  0
 25 23  2  0  0  0  0
 26 25  1  0  0  0  0
 28 27  1  0  0  0  0
M  END
>  <MODEL>
5

>  <REMARK>
 VINA RESULT:      -6.7      2.359      5.894
  Name = 
  6 active torsions:
  status: ('A' for Active; 'I' for Inactive)
    1  A    between atoms: C_3  and  N_5
    2  A    between atoms: C_11  and  C_14
    3  A    between atoms: C_11  and  N_22
    4  A    between atoms: C_14  and  O_15
    5  A    between atoms: O_15  and  C_23
    6  A    between atoms: C_16  and  C_21
                            x       y       z     vdW  Elec       q    Type
                         _______ _______ _______ _____ _____    ______ ____

>  <TORSDO>
F 6

$$$$
=
 OpenBabel11042414483D

 28 31  0  0  1  0  0  0  0  0999 V2000
  190.5980  174.9450  147.0610 C   0  0  0  0  0  3  0  0  0  0  0  0
  195.6010  175.4840  145.1210 N   0  0  0  0  0  1  0  0  0  0  0  0
  192.1620  175.8820  145.4360 C   0  0  0  0  0  0  0  0  0  0  0  0
  190.8710  175.7410  145.9440 C   0  0  0  0  0  0  0  0  0  0  0  0
  193.7340  176.6370  144.0650 N   0  0  0  0  0  0  0  0  0  0  0  0
  188.2570  175.5500  146.9170 C   0  0  0  0  0  3  0  0  0  0  0  0
  189.8210  176.4440  145.2910 C   0  0  0  0  0  0  0  0  0  0  0  0
  194.2210  175.8120  145.0260 C   0  0  0  0  0  0  0  0  0  0  0  0
  190.1020  177.2450  144.1480 C   0  0  0  0  0  0  0  0  0  0  0  0
  192.4240  176.6630  144.3510 C   0  0  0  0  0  0  0  0  0  0  0  0
  187.4200  177.1330  145.1610 C   0  0  0  0  0  0  0  0  0  0  0  0
  189.0000  177.9480  143.3950 C   0  0  2  0  0  3  0  0  0  0  0  0
  193.2950  175.3240  145.8910 N   0  0  0  0  0  2  0  0  0  0  0  0
  191.4250  177.3570  143.6760 C   0  0  0  0  0  3  0  0  0  0  0  0
  188.5090  176.3520  145.7930 C   0  0  0  0  0  0  0  0  0  0  0  0
  189.2920  174.8470  147.5420 C   0  0  0  0  0  3  0  0  0  0  0  0
  187.6600  177.8810  144.0820 C   0  0  0  0  0  3  0  0  0  0  0  0
  185.0200  177.1380  146.1560 N   0  0  0  0  0  0  0  0  0  0  0  0
  186.0890  177.1350  145.7130 C   0  0  0  0  0  0  0  0  0  0  0  0
  188.8840  177.4070  142.1120 O   0  0  0  0  0  0  0  0  0  0  0  0
  187.5650  176.9580  142.0270 C   0  0  0  0  0  2  0  0  0  0  0  0
  187.5570  175.4700  141.7450 C   0  0  0  0  0  2  0  0  0  0  0  0
  190.8240  173.9270  141.2120 O   0  0  0  0  0  0  0  0  0  0  0  0
  189.4580  173.7140  143.0920 N   0  0  0  0  0  2  0  0  0  0  0  0
  189.7470  174.2280  141.7890 C   0  0  0  0  0  0  0  0  0  0  0  0
  188.8160  175.0870  141.1310 N   0  0  0  0  0  2  0  0  0  0  0  0
  190.3780  172.8370  143.7950 C   0  0  0  0  0  2  0  0  0  0  0  0
  189.6480  172.1390  144.9230 C   0  0  0  0  0  1  0  0  0  0  0  0
  1 16  1  0  0  0  0
  3 13  1  0  0  0  0
  3  4  1  0  0  0  0
  4  1  2  0  0  0  0
  5 10  1  0  0  0  0
  5  8  2  0  0  0  0
  6 16  2  0  0  0  0
  7 15  2  0  0  0  0
  7  4  1  0  0  0  0
  8  2  1  0  0  0  0
  8 13  1  0  0  0  0
  9  7  1  0  0  0  0
 10  3  2  0  0  0  0
 11 19  1  0  0  0  0
 11 15  1  0  0  0  0
 12 20  1  6  0  0  0
 12 17  1  0  0  0  0
 12  9  1  0  0  0  0
 14  9  2  0  0  0  0
 14 10  1  0  0  0  0
 15  6  1  0  0  0  0
 17 11  2  0  0  0  0
 19 18  3  0  0  0  0
 21 20  1  0  0  0  0
 22 21  1  0  0  0  0
 23 25  2  0  0  0  0
 24 27  1  0  0  0  0
 25 24  1  0  0  0  0
 26 22  1  0  0  0  0
 26 25  1  0  0  0  0
 27 28  1  0  0  0  0
M  END
>  <MODEL>
6

>  <REMARK>
 VINA RESULT:      -6.6      1.351      1.865
  Name = 
  6 active torsions:
  status: ('A' for Active; 'I' for Inactive)
    1  A    between atoms: C_3  and  N_5
    2  A    between atoms: C_11  and  C_14
    3  A    between atoms: C_11  and  N_22
    4  A    between atoms: C_14  and  O_15
    5  A    between atoms: O_15  and  C_23
    6  A    between atoms: C_16  and  C_21
                            x       y       z     vdW  Elec       q    Type
                         _______ _______ _______ _____ _____    ______ ____

>  <TORSDO>
F 6

$$$$
=
 OpenBabel11042414483D

 28 31  0  0  1  0  0  0  0  0999 V2000
  186.2460  178.2300  145.3510 C   0  0  0  0  0  3  0  0  0  0  0  0
  183.9840  178.6730  140.4760 N   0  0  0  0  0  1  0  0  0  0  0  0
  186.2090  177.7070  142.9660 C   0  0  0  0  0  0  0  0  0  0  0  0
  186.7880  177.5940  144.2310 C   0  0  0  0  0  0  0  0  0  0  0  0
  185.9990  177.3420  140.7890 N   0  0  0  0  0  0  0  0  0  0  0  0
  187.9940  177.2780  146.7330 C   0  0  0  0  0  3  0  0  0  0  0  0
  187.9600  176.7970  144.3540 C   0  0  0  0  0  0  0  0  0  0  0  0
  185.0230  178.1400  141.2880 C   0  0  0  0  0  0  0  0  0  0  0  0
  188.5130  176.1600  143.2070 C   0  0  0  0  0  0  0  0  0  0  0  0
  186.7370  177.0820  141.8770 C   0  0  0  0  0  0  0  0  0  0  0  0
  189.7360  175.7520  145.7700 C   0  0  0  0  0  0  0  0  0  0  0  0
  189.7920  175.3640  143.2950 C   0  0  2  0  0  3  0  0  0  0  0  0
  185.1080  178.3930  142.6190 N   0  0  0  0  0  2  0  0  0  0  0  0
  187.8880  176.3030  141.9520 C   0  0  0  0  0  3  0  0  0  0  0  0
  188.5550  176.6330  145.6190 C   0  0  0  0  0  0  0  0  0  0  0  0
  186.8530  178.0740  146.5990 C   0  0  0  0  0  3  0  0  0  0  0  0
  190.2770  175.1540  144.7070 C   0  0  0  0  0  3  0  0  0  0  0  0
  190.7630  175.2740  148.1090 N   0  0  0  0  0  0  0  0  0  0  0  0
  190.3060  175.4870  147.0670 C   0  0  0  0  0  0  0  0  0  0  0  0
  190.7950  175.9970  142.5550 O   0  0  0  0  0  0  0  0  0  0  0  0
  191.6800  174.9770  142.2020 C   0  0  0  0  0  2  0  0  0  0  0  0
  193.0670  175.5560  142.0120 C   0  0  0  0  0  2  0  0  0  0  0  0
  195.3590  174.6850  144.7190 O   0  0  0  0  0  0  0  0  0  0  0  0
  194.1430  176.6640  144.4870 N   0  0  0  0  0  2  0  0  0  0  0  0
  194.5410  175.3640  144.0440 C   0  0  0  0  0  0  0  0  0  0  0  0
  194.0140  174.8230  142.8330 N   0  0  0  0  0  2  0  0  0  0  0  0
  194.6570  177.2500  145.7120 C   0  0  0  0  0  2  0  0  0  0  0  0
  193.8240  176.7790  146.8850 C   0  0  0  0  0  1  0  0  0  0  0  0
  1 16  1  0  0  0  0
  2  8  1  0  0  0  0
  3  4  1  0  0  0  0
  4  7  1  0  0  0  0
  4  1  2  0  0  0  0
  5  8  2  0  0  0  0
  5 10  1  0  0  0  0
  7 15  2  0  0  0  0
  8 13  1  0  0  0  0
  9 12  1  0  0  0  0
  9  7  1  0  0  0  0
 10 14  1  0  0  0  0
 10  3  2  0  0  0  0
 11 19  1  0  0  0  0
 12 20  1  6  0  0  0
 12 17  1  0  0  0  0
 13  3  1  0  0  0  0
 14  9  2  0  0  0  0
 15 11  1  0  0  0  0
 15  6  1  0  0  0  0
 16  6  2  0  0  0  0
 17 11  2  0  0  0  0
 19 18  3  0  0  0  0
 21 20  1  0  0  0  0
 22 21  1  0  0  0  0
 22 26  1  0  0  0  0
 24 27  1  0  0  0  0
 25 24  1  0  0  0  0
 25 23  2  0  0  0  0
 26 25  1  0  0  0  0
 27 28  1  0  0  0  0
M  END
>  <MODEL>
7

>  <REMARK>
 VINA RESULT:      -6.4      2.224      5.544
  Name = 
  6 active torsions:
  status: ('A' for Active; 'I' for Inactive)
    1  A    between atoms: C_3  and  N_5
    2  A    between atoms: C_11  and  C_14
    3  A    between atoms: C_11  and  N_22
    4  A    between atoms: C_14  and  O_15
    5  A    between atoms: O_15  and  C_23
    6  A    between atoms: C_16  and  C_21
                            x       y       z     vdW  Elec       q    Type
                         _______ _______ _______ _____ _____    ______ ____

>  <TORSDO>
F 6

$$$$
=
 OpenBabel11042414483D

 28 31  0  0  1  0  0  0  0  0999 V2000
  187.2020  176.4680  140.3300 C   0  0  0  0  0  3  0  0  0  0  0  0
  190.5020  172.2200  139.9430 N   0  0  0  0  0  1  0  0  0  0  0  0
  188.7530  174.8780  141.3440 C   0  0  0  0  0  0  0  0  0  0  0  0
  187.8960  175.9750  141.4380 C   0  0  0  0  0  0  0  0  0  0  0  0
  190.1740  173.3420  142.0800 N   0  0  0  0  0  0  0  0  0  0  0  0
  186.1670  178.1520  141.7300 C   0  0  0  0  0  3  0  0  0  0  0  0
  187.7370  176.5840  142.7130 C   0  0  2  0  0  3  0  0  0  0  0  0
  189.9120  173.2290  140.7540 C   0  0  0  0  0  0  0  0  0  0  0  0
  188.4530  176.0830  143.8370 C   0  0  0  0  0  0  0  0  0  0  0  0
  189.4230  174.3960  142.4280 C   0  0  0  0  0  0  0  0  0  0  0  0
  186.6330  178.2720  144.1910 C   0  0  0  0  0  0  0  0  0  0  0  0
  188.3570  176.7510  145.1870 C   0  0  0  0  0  0  0  0  0  0  0  0
  189.0470  174.1490  140.2560 N   0  0  0  0  0  2  0  0  0  0  0  0
  189.3050  174.9710  143.6900 C   0  0  0  0  0  3  0  0  0  0  0  0
  186.8560  177.6730  142.8550 C   0  0  0  0  0  0  0  0  0  0  0  0
  186.3440  177.5580  140.4760 C   0  0  0  0  0  3  0  0  0  0  0  0
  187.3030  177.8260  145.2560 C   0  0  0  0  0  3  0  0  0  0  0  0
  184.8870  180.1650  144.5370 N   0  0  0  0  0  0  0  0  0  0  0  0
  185.6650  179.3220  144.3830 C   0  0  0  0  0  0  0  0  0  0  0  0
  189.5950  177.3000  145.5330 O   0  0  0  0  0  0  0  0  0  0  0  0
  189.6760  177.1610  146.9200 C   0  0  0  0  0  2  0  0  0  0  0  0
  190.5600  175.9790  147.2580 C   0  0  0  0  0  2  0  0  0  0  0  0
  194.0710  176.5680  146.4420 O   0  0  0  0  0  0  0  0  0  0  0  0
  192.4890  175.4560  145.1340 N   0  0  0  0  0  2  0  0  0  0  0  0
  192.8850  176.1640  146.3110 C   0  0  0  0  0  0  0  0  0  0  0  0
  191.9400  176.4190  147.3500 N   0  0  0  0  0  2  0  0  0  0  0  0
  193.4210  175.1750  144.0550 C   0  0  0  0  0  2  0  0  0  0  0  0
  193.0790  176.0370  142.8570 C   0  0  0  0  0  1  0  0  0  0  0  0
  1 16  2  0  0  0  0
  1  4  1  0  0  0  0
  2  8  1  0  0  0  0
  3  4  2  0  0  0  0
  3 10  1  0  0  0  0
  5 10  1  0  0  0  0
  6 15  2  0  0  0  0
  7  4  1  1  0  0  0
  7 15  1  0  0  0  0
  7  9  1  0  0  0  0
  8  5  2  0  0  0  0
  9 12  2  0  0  0  0
 10 14  2  0  0  0  0
 11 19  1  0  0  0  0
 11 17  2  0  0  0  0
 12 17  1  0  0  0  0
 12 20  1  0  0  0  0
 13  8  1  0  0  0  0
 13  3  1  0  0  0  0
 14  9  1  0  0  0  0
 15 11  1  0  0  0  0
 16  6  1  0  0  0  0
 19 18  3  0  0  0  0
 20 21  1  0  0  0  0
 21 22  1  0  0  0  0
 22 26  1  0  0  0  0
 24 25  1  0  0  0  0
 25 23  2  0  0  0  0
 25 26  1  0  0  0  0
 27 24  1  0  0  0  0
 28 27  1  0  0  0  0
M  END
>  <MODEL>
8

>  <REMARK>
 VINA RESULT:      -6.2      2.093      4.888
  Name = 
  6 active torsions:
  status: ('A' for Active; 'I' for Inactive)
    1  A    between atoms: C_3  and  N_5
    2  A    between atoms: C_11  and  C_14
    3  A    between atoms: C_11  and  N_22
    4  A    between atoms: C_14  and  O_15
    5  A    between atoms: O_15  and  C_23
    6  A    between atoms: C_16  and  C_21
                            x       y       z     vdW  Elec       q    Type
                         _______ _______ _______ _____ _____    ______ ____

>  <TORSDO>
F 6

$$$$
=
 OpenBabel11042414483D

 28 31  0  0  1  0  0  0  0  0999 V2000
  186.2090  178.0220  145.4740 C   0  0  0  0  0  3  0  0  0  0  0  0
  184.1450  178.6390  140.5300 N   0  0  0  0  0  1  0  0  0  0  0  0
  186.3910  177.8040  143.0490 C   0  0  0  0  0  0  0  0  0  0  0  0
  186.9180  177.6440  144.3300 C   0  0  0  0  0  0  0  0  0  0  0  0
  186.3630  177.6790  140.8340 N   0  0  0  0  0  0  0  0  0  0  0  0
  188.0380  177.2490  146.8610 C   0  0  0  0  0  3  0  0  0  0  0  0
  188.2140  177.0700  144.4470 C   0  0  0  0  0  0  0  0  0  0  0  0
  185.2270  178.2130  141.3490 C   0  0  0  0  0  0  0  0  0  0  0  0
  188.9360  176.6950  143.2780 C   0  0  0  0  0  0  0  0  0  0  0  0
  187.0830  177.4280  141.9370 C   0  0  0  0  0  0  0  0  0  0  0  0
  190.0880  176.2060  145.8600 C   0  0  0  0  0  0  0  0  0  0  0  0
  190.3390  176.1480  143.3680 C   0  0  2  0  0  3  0  0  0  0  0  0
  185.1960  178.3100  142.7030 N   0  0  0  0  0  2  0  0  0  0  0  0
  188.3580  176.8750  142.0060 C   0  0  0  0  0  3  0  0  0  0  0  0
  188.7670  176.8630  145.7250 C   0  0  0  0  0  0  0  0  0  0  0  0
  186.7720  177.8290  146.7360 C   0  0  0  0  0  3  0  0  0  0  0  0
  190.7860  175.8570  144.7780 C   0  0  0  0  0  3  0  0  0  0  0  0
  191.0720  175.6420  148.1980 N   0  0  0  0  0  0  0  0  0  0  0  0
  190.6340  175.8930  147.1560 C   0  0  0  0  0  0  0  0  0  0  0  0
  191.2350  177.0430  142.7780 O   0  0  0  0  0  0  0  0  0  0  0  0
  192.5010  176.5190  143.0490 C   0  0  0  0  0  2  0  0  0  0  0  0
  192.8720  175.5170  141.9770 C   0  0  0  0  0  2  0  0  0  0  0  0
  192.9360  172.0730  143.1920 O   0  0  0  0  0  0  0  0  0  0  0  0
  191.1950  173.1300  142.0520 N   0  0  0  0  0  2  0  0  0  0  0  0
  192.4990  173.1160  142.6380 C   0  0  0  0  0  0  0  0  0  0  0  0
  193.3190  174.2840  142.6010 N   0  0  0  0  0  2  0  0  0  0  0  0
  190.3310  171.9640  142.0700 C   0  0  0  0  0  2  0  0  0  0  0  0
  189.1830  172.2000  143.0300 C   0  0  0  0  0  1  0  0  0  0  0  0
  1 16  1  0  0  0  0
  2  8  1  0  0  0  0
  3  4  1  0  0  0  0
  4  7  1  0  0  0  0
  4  1  2  0  0  0  0
  5  8  2  0  0  0  0
  5 10  1  0  0  0  0
  7 15  2  0  0  0  0
  8 13  1  0  0  0  0
  9 12  1  0  0  0  0
  9  7  1  0  0  0  0
 10 14  1  0  0  0  0
 10  3  2  0  0  0  0
 11 19  1  0  0  0  0
 12 20  1  1  0  0  0
 12 17  1  0  0  0  0
 13  3  1  0  0  0  0
 14  9  2  0  0  0  0
 15 11  1  0  0  0  0
 15  6  1  0  0  0  0
 16  6  2  0  0  0  0
 17 11  2  0  0  0  0
 19 18  3  0  0  0  0
 20 21  1  0  0  0  0
 22 26  1  0  0  0  0
 22 21  1  0  0  0  0
 24 27  1  0  0  0  0
 24 25  1  0  0  0  0
 25 23  2  0  0  0  0
 26 25  1  0  0  0  0
 27 28  1  0  0  0  0
M  END
>  <MODEL>
9

>  <REMARK>
 VINA RESULT:      -6.2      2.121      5.112
  Name = 
  6 active torsions:
  status: ('A' for Active; 'I' for Inactive)
    1  A    between atoms: C_3  and  N_5
    2  A    between atoms: C_11  and  C_14
    3  A    between atoms: C_11  and  N_22
    4  A    between atoms: C_14  and  O_15
    5  A    between atoms: O_15  and  C_23
    6  A    between atoms: C_16  and  C_21
                            x       y       z     vdW  Elec       q    Type
                         _______ _______ _______ _____ _____    ______ ____

>  <TORSDO>
F 6

$$$$
