=
 OpenBabel11042419173D

 43 48  0  0  1  0  0  0  0  0999 V2000
  188.6930  177.1520  145.4200 C   0  0  0  0  0  0  0  0  0  0  0  0
  193.5920  176.1600  143.5190 O   0  0  0  0  0  0  0  0  0  0  0  0
  191.0760  176.5510  145.4980 C   0  0  0  0  0  0  0  0  0  0  0  0
  190.3210  178.0240  143.5380 C   0  0  2  0  0  3  0  0  0  0  0  0
  186.0320  176.6060  147.1100 N   0  0  0  0  0  0  0  0  0  0  0  0
  191.5520  177.5510  142.8880 N   0  0  0  0  0  0  0  0  0  0  0  0
  185.6030  177.5020  146.0500 C   0  0  0  0  0  2  0  0  0  0  0  0
  187.2120  176.0970  147.3120 C   0  0  0  0  0  3  0  0  0  0  0  0
  192.4930  176.8760  145.1080 C   0  0  1  0  0  3  0  0  0  0  0  0
  189.9930  177.2000  144.8250 C   0  0  0  0  0  0  0  0  0  0  0  0
  193.4200  175.7990  144.8830 C   0  0  2  0  0  3  0  0  0  0  0  0
  192.4480  177.0260  143.6480 C   0  0  0  0  0  0  0  0  0  0  0  0
  190.8450  175.7800  146.6300 C   0  0  0  0  0  3  0  0  0  0  0  0
  187.5960  177.9670  144.7970 C   0  0  0  0  0  2  0  0  0  0  0  0
  189.5600  175.6450  147.1300 C   0  0  0  0  0  3  0  0  0  0  0  0
  186.6350  178.5650  145.7900 C   0  0  0  0  0  2  0  0  0  0  0  0
  188.4760  176.3130  146.5580 C   0  0  0  0  0  0  0  0  0  0  0  0
  189.2210  177.9620  142.4880 C   0  0  0  0  0  2  0  0  0  0  0  0
  189.3150  176.7690  141.7680 O   0  0  0  0  0  0  0  0  0  0  0  0
  187.9970  176.4660  141.4050 C   0  0  1  0  0  3  0  0  0  0  0  0
  187.4020  175.3670  142.2880 C   0  0  0  0  0  2  0  0  0  0  0  0
  188.4360  174.4110  142.7980 C   0  0  0  0  0  3  0  0  0  0  0  0
  188.7500  173.3300  142.1560 N   0  0  0  0  0  0  0  0  0  0  0  0
  188.8150  173.2150  139.6970 C   0  0  0  0  0  0  0  0  0  0  0  0
  189.9850  173.6820  139.6770 O   0  0  0  0  0  1  0  0  0  0  0  0
  188.1710  172.9110  138.5040 O   0  0  0  0  0  0  0  0  0  0  0  0
  188.1450  172.9960  140.9370 N   0  0  0  0  0  2  0  0  0  0  0  0
  187.1280  177.7220  141.3340 C   0  0  0  0  0  2  0  0  0  0  0  0
  185.6420  177.4080  141.4500 C   0  0  0  0  0  2  0  0  0  0  0  0
  184.9600  178.3950  142.3780 C   0  0  0  0  0  2  0  0  0  0  0  0
  183.4620  178.4110  142.1270 C   0  0  0  0  0  2  0  0  0  0  0  0
  183.2110  178.0610  140.8010 O   0  0  0  0  0  0  0  0  0  0  0  0
  181.8250  178.1560  140.6710 C   0  0  0  0  0  1  0  0  0  0  0  0
  194.7210  175.9870  145.6640 C   0  0  0  0  0  2  0  0  0  0  0  0
  195.2150  174.7680  146.1440 O   0  0  0  0  0  0  0  0  0  0  0  0
  195.7150  174.1090  145.0140 C   0  0  2  0  0  3  0  0  0  0  0  0
  194.1150  172.2880  145.5750 C   0  0  1  0  0  3  0  0  0  0  0  0
  195.5420  172.6060  145.1690 C   0  0  1  0  0  3  0  0  0  0  0  0
  194.5470  172.0910  144.1450 C   0  0  1  0  0  3  0  0  0  0  0  0
  193.6580  171.0590  144.8120 C   0  0  0  0  0  2  0  0  0  0  0  0
  197.1860  174.4580  144.8030 C   0  0  0  0  0  3  0  0  0  0  0  0
  197.9410  173.2910  144.6890 O   0  0  0  0  0  1  0  0  0  0  0  0
  197.3510  175.2340  143.6520 O   0  0  0  0  0  1  0  0  0  0  0  0
  1 17  1  0  0  0  0
  2 12  1  0  0  0  0
  2 11  1  0  0  0  0
  3 13  2  0  0  0  0
  4 18  1  6  0  0  0
  4 10  1  0  0  0  0
  5  8  2  0  0  0  0
  6  4  1  0  0  0  0
  6 12  2  0  0  0  0
  7  5  1  0  0  0  0
  9 12  1  6  0  0  0
  9  3  1  0  0  0  0
 10  1  2  0  0  0  0
 10  3  1  0  0  0  0
 11  9  1  0  0  0  0
 11 34  1  1  0  0  0
 13 15  1  0  0  0  0
 14  1  1  0  0  0  0
 14 16  1  0  0  0  0
 16  7  1  0  0  0  0
 17 15  2  0  0  0  0
 17  8  1  0  0  0  0
 19 18  1  0  0  0  0
 20 28  1  1  0  0  0
 20 19  1  0  0  0  0
 20 21  1  0  0  0  0
 21 22  1  0  0  0  0
 23 22  2  0  0  0  0
 24 27  1  0  0  0  0
 25 24  1  0  0  0  0
 26 24  2  0  0  0  0
 27 23  1  0  0  0  0
 28 29  1  0  0  0  0
 29 30  1  0  0  0  0
 31 30  1  0  0  0  0
 32 31  1  0  0  0  0
 33 32  1  0  0  0  0
 34 35  1  0  0  0  0
 36 41  1  1  0  0  0
 36 35  1  0  0  0  0
 37 40  1  1  0  0  0
 38 36  1  6  0  0  0
 38 37  1  0  0  0  0
 39 40  1  1  0  0  0
 39 38  1  0  0  0  0
 39 37  1  0  0  0  0
 42 41  1  0  0  0  0
 43 41  1  0  0  0  0
M  END
>  <MODEL>
1

>  <REMARK>
 VINA RESULT:      -6.7      0.000      0.000
  Name = 
  16 active torsions:
  status: ('A' for Active; 'I' for Inactive)
    1  A    between atoms: C_1  and  C_11
    2  A    between atoms: C_1  and  O_30
    3  A    between atoms: O_2  and  C_3
    4  A    between atoms: O_2  and  C_4
    5  A    between atoms: C_3  and  C_27
    6  A    between atoms: C_4  and  C_15
    7  A    between atoms: C_4  and  C_23
    8  A    between atoms: C_6  and  C_25
    9  A    between atoms: C_6  and  C_43
   10  A    between atoms: C_7  and  C_20
   11  A    between atoms: C_7  and  C_25
   12  A    between atoms: O_17  and  C_22
   13  A    between atoms: C_22  and  C_39
   14  A    between atoms: C_25  and  O_30
   15  A    between atoms: N_37  and  N_42
   16  A    between atoms: C_39  and  C_43
                            x       y       z     vdW  Elec       q    Type
                         _______ _______ _______ _____ _____    ______ ____

>  <TORSDO>
F 16

$$$$
=
 OpenBabel11042419173D

 43 48  0  0  1  0  0  0  0  0999 V2000
  189.2240  175.5580  144.1580 C   0  0  0  0  0  0  0  0  0  0  0  0
  188.2720  173.1350  139.4870 O   0  0  0  0  0  0  0  0  0  0  0  0
  189.5620  173.9500  142.3280 C   0  0  0  0  0  0  0  0  0  0  0  0
  188.4030  176.1600  141.7260 C   0  0  2  0  0  3  0  0  0  0  0  0
  189.7960  175.7600  147.2990 N   0  0  0  0  0  0  0  0  0  0  0  0
  187.9120  175.4220  140.5520 N   0  0  0  0  0  0  0  0  0  0  0  0
  189.2110  177.0460  146.9600 C   0  0  0  0  0  2  0  0  0  0  0  0
  190.0030  174.7350  146.5250 C   0  0  0  0  0  3  0  0  0  0  0  0
  189.7080  173.7040  140.8510 C   0  0  1  0  0  3  0  0  0  0  0  0
  189.0400  175.2020  142.7840 C   0  0  0  0  0  0  0  0  0  0  0  0
  189.2280  172.4650  140.2980 C   0  0  2  0  0  3  0  0  0  0  0  0
  188.5220  174.3300  140.2520 C   0  0  0  0  0  0  0  0  0  0  0  0
  190.1140  173.0450  143.2240 C   0  0  0  0  0  3  0  0  0  0  0  0
  188.8200  176.9360  144.5960 C   0  0  0  0  0  2  0  0  0  0  0  0
  190.1800  173.3530  144.5740 C   0  0  0  0  0  3  0  0  0  0  0  0
  189.7240  177.5410  145.6360 C   0  0  0  0  0  2  0  0  0  0  0  0
  189.7530  174.5870  145.0660 C   0  0  0  0  0  0  0  0  0  0  0  0
  187.2230  176.9550  142.2660 C   0  0  0  0  0  2  0  0  0  0  0  0
  186.3240  177.2350  141.2350 O   0  0  0  0  0  0  0  0  0  0  0  0
  185.6580  178.3950  141.6480 C   0  0  1  0  0  3  0  0  0  0  0  0
  184.1530  178.1650  141.7970 C   0  0  0  0  0  2  0  0  0  0  0  0
  183.4270  178.2050  140.4870 C   0  0  0  0  0  3  0  0  0  0  0  0
  182.1330  178.2080  140.4180 N   0  0  0  0  0  0  0  0  0  0  0  0
  180.1540  178.9770  141.6650 C   0  0  0  0  0  0  0  0  0  0  0  0
  179.7870  179.6950  140.6960 O   0  0  0  0  0  0  0  0  0  0  0  0
  179.4070  178.9600  142.8350 O   0  0  0  0  0  1  0  0  0  0  0  0
  181.3340  178.1820  141.5690 N   0  0  0  0  0  2  0  0  0  0  0  0
  186.3030  179.0040  142.8930 C   0  0  0  0  0  2  0  0  0  0  0  0
  185.2740  179.5740  143.8620 C   0  0  0  0  0  2  0  0  0  0  0  0
  185.5650  179.1160  145.2780 C   0  0  0  0  0  2  0  0  0  0  0  0
  184.3790  178.3540  145.8430 C   0  0  0  0  0  2  0  0  0  0  0  0
  184.3560  178.4930  147.2300 O   0  0  0  0  0  0  0  0  0  0  0  0
  185.6910  178.3760  147.6160 C   0  0  0  0  0  1  0  0  0  0  0  0
  190.2830  171.7710  139.4370 C   0  0  0  0  0  2  0  0  0  0  0  0
  191.5550  172.3210  139.6370 O   0  0  0  0  0  0  0  0  0  0  0  0
  192.2860  171.3200  140.2860 C   0  0  2  0  0  3  0  0  0  0  0  0
  193.2970  173.2480  141.4900 C   0  0  1  0  0  3  0  0  0  0  0  0
  193.5730  171.8990  140.8520 C   0  0  1  0  0  3  0  0  0  0  0  0
  193.4630  172.0290  142.3610 C   0  0  1  0  0  3  0  0  0  0  0  0
  194.0900  173.3440  142.7800 C   0  0  0  0  0  2  0  0  0  0  0  0
  192.5950  170.1770  139.3210 C   0  0  0  0  0  3  0  0  0  0  0  0
  193.4420  170.6250  138.3080 O   0  0  0  0  0  1  0  0  0  0  0  0
  193.1950  169.1100  139.9940 O   0  0  0  0  0  1  0  0  0  0  0  0
  1 14  1  0  0  0  0
  1 17  1  0  0  0  0
  2 12  1  0  0  0  0
  2 11  1  0  0  0  0
  3 10  1  0  0  0  0
  3 13  2  0  0  0  0
  4 18  1  1  0  0  0
  4 10  1  0  0  0  0
  6  4  1  0  0  0  0
  7  5  1  0  0  0  0
  8  5  2  0  0  0  0
  9 12  1  6  0  0  0
  9  3  1  0  0  0  0
 10  1  2  0  0  0  0
 11 34  1  6  0  0  0
 11  9  1  0  0  0  0
 12  6  2  0  0  0  0
 13 15  1  0  0  0  0
 14 16  1  0  0  0  0
 15 17  2  0  0  0  0
 16  7  1  0  0  0  0
 17  8  1  0  0  0  0
 19 20  1  0  0  0  0
 19 18  1  0  0  0  0
 20 21  1  1  0  0  0
 20 28  1  0  0  0  0
 22 21  1  0  0  0  0
 23 22  2  0  0  0  0
 23 27  1  0  0  0  0
 24 26  1  0  0  0  0
 25 24  2  0  0  0  0
 27 24  1  0  0  0  0
 28 29  1  0  0  0  0
 29 30  1  0  0  0  0
 30 31  1  0  0  0  0
 31 32  1  0  0  0  0
 32 33  1  0  0  0  0
 34 35  1  0  0  0  0
 35 36  1  0  0  0  0
 36 41  1  6  0  0  0
 37 39  1  0  0  0  0
 37 40  1  1  0  0  0
 38 36  1  6  0  0  0
 38 37  1  0  0  0  0
 38 39  1  0  0  0  0
 39 40  1  1  0  0  0
 41 43  1  0  0  0  0
 42 41  1  0  0  0  0
M  END
>  <MODEL>
2

>  <REMARK>
 VINA RESULT:      -6.5      3.164      5.973
  Name = 
  16 active torsions:
  status: ('A' for Active; 'I' for Inactive)
    1  A    between atoms: C_1  and  C_11
    2  A    between atoms: C_1  and  O_30
    3  A    between atoms: O_2  and  C_3
    4  A    between atoms: O_2  and  C_4
    5  A    between atoms: C_3  and  C_27
    6  A    between atoms: C_4  and  C_15
    7  A    between atoms: C_4  and  C_23
    8  A    between atoms: C_6  and  C_25
    9  A    between atoms: C_6  and  C_43
   10  A    between atoms: C_7  and  C_20
   11  A    between atoms: C_7  and  C_25
   12  A    between atoms: O_17  and  C_22
   13  A    between atoms: C_22  and  C_39
   14  A    between atoms: C_25  and  O_30
   15  A    between atoms: N_37  and  N_42
   16  A    between atoms: C_39  and  C_43
                            x       y       z     vdW  Elec       q    Type
                         _______ _______ _______ _____ _____    ______ ____

>  <TORSDO>
F 16

$$$$
=
 OpenBabel11042419173D

 43 48  0  0  1  0  0  0  0  0999 V2000
  191.6160  173.3700  142.9580 C   0  0  0  0  0  0  0  0  0  0  0  0
  189.4810  177.4620  145.6600 O   0  0  0  0  0  0  0  0  0  0  0  0
  189.9830  174.5500  144.3690 C   0  0  0  0  0  0  0  0  0  0  0  0
  191.3630  175.9860  142.7520 C   0  0  2  0  0  3  0  0  0  0  0  0
  192.6560  170.3810  142.4940 N   0  0  0  0  0  0  0  0  0  0  0  0
  190.9950  177.0970  143.6430 N   0  0  0  0  0  0  0  0  0  0  0  0
  193.3920  171.1690  141.5190 C   0  0  0  0  0  2  0  0  0  0  0  0
  191.8030  170.7880  143.3880 C   0  0  0  0  0  3  0  0  0  0  0  0
  189.1010  175.7520  144.5760 C   0  0  1  0  0  3  0  0  0  0  0  0
  191.0220  174.6000  143.3860 C   0  0  0  0  0  0  0  0  0  0  0  0
  188.8520  176.2130  145.9160 C   0  0  2  0  0  3  0  0  0  0  0  0
  190.0060  176.9000  144.4420 C   0  0  0  0  0  0  0  0  0  0  0  0
  189.6520  173.3520  144.9890 C   0  0  0  0  0  3  0  0  0  0  0  0
  192.5890  173.4110  141.8150 C   0  0  0  0  0  2  0  0  0  0  0  0
  190.3180  172.1850  144.6490 C   0  0  0  0  0  3  0  0  0  0  0  0
  192.5110  172.2190  140.8990 C   0  0  0  0  0  2  0  0  0  0  0  0
  191.2890  172.1600  143.6480 C   0  0  0  0  0  0  0  0  0  0  0  0
  192.8420  176.1550  142.4340 C   0  0  0  0  0  2  0  0  0  0  0  0
  193.5090  176.6960  143.5340 O   0  0  0  0  0  0  0  0  0  0  0  0
  194.5390  175.7890  143.8100 C   0  0  1  0  0  3  0  0  0  0  0  0
  195.9120  176.4650  143.7950 C   0  0  0  0  0  2  0  0  0  0  0  0
  196.4720  176.6090  142.4130 C   0  0  0  0  0  3  0  0  0  0  0  0
  197.3140  175.7560  141.9200 N   0  0  0  0  0  0  0  0  0  0  0  0
  197.2130  173.3420  142.3960 C   0  0  0  0  0  0  0  0  0  0  0  0
  196.3670  173.1670  141.4780 O   0  0  0  0  0  0  0  0  0  0  0  0
  197.6310  172.2640  143.1660 O   0  0  0  0  0  1  0  0  0  0  0  0
  197.7450  174.6400  142.6510 N   0  0  0  0  0  2  0  0  0  0  0  0
  194.2680  174.9990  145.0910 C   0  0  0  0  0  2  0  0  0  0  0  0
  194.3700  175.8650  146.3410 C   0  0  0  0  0  2  0  0  0  0  0  0
  192.9950  176.3330  146.7790 C   0  0  0  0  0  2  0  0  0  0  0  0
  192.1310  175.1460  147.1680 C   0  0  0  0  0  2  0  0  0  0  0  0
  191.2760  175.5160  148.2050 O   0  0  0  0  0  0  0  0  0  0  0  0
  191.5040  176.8810  148.3770 C   0  0  0  0  0  1  0  0  0  0  0  0
  187.3600  176.4010  146.1920 C   0  0  0  0  0  2  0  0  0  0  0  0
  186.8910  177.6160  145.6810 O   0  0  0  0  0  0  0  0  0  0  0  0
  185.5570  177.3720  145.3320 C   0  0  2  0  0  3  0  0  0  0  0  0
  186.5970  178.1400  143.2060 C   0  0  1  0  0  3  0  0  0  0  0  0
  185.2860  177.8810  143.9240 C   0  0  1  0  0  3  0  0  0  0  0  0
  185.8150  176.8880  142.9050 C   0  0  1  0  0  3  0  0  0  0  0  0
  186.4670  177.6590  141.7730 C   0  0  0  0  0  2  0  0  0  0  0  0
  184.6150  178.0410  146.3310 C   0  0  0  0  0  3  0  0  0  0  0  0
  185.3460  178.8180  147.2290 O   0  0  0  0  0  1  0  0  0  0  0  0
  183.6820  178.8440  145.6700 O   0  0  0  0  0  1  0  0  0  0  0  0
  1 10  2  0  0  0  0
  1 17  1  0  0  0  0
  2 11  1  0  0  0  0
  3 13  2  0  0  0  0
  4 18  1  1  0  0  0
  4 10  1  0  0  0  0
  4  6  1  0  0  0  0
  5  8  2  0  0  0  0
  6 12  2  0  0  0  0
  7  5  1  0  0  0  0
  8 17  1  0  0  0  0
  9  3  1  1  0  0  0
  9 11  1  0  0  0  0
 10  3  1  0  0  0  0
 11 34  1  6  0  0  0
 12  9  1  0  0  0  0
 12  2  1  0  0  0  0
 14  1  1  0  0  0  0
 15 13  1  0  0  0  0
 16  7  1  0  0  0  0
 16 14  1  0  0  0  0
 17 15  2  0  0  0  0
 18 19  1  0  0  0  0
 19 20  1  0  0  0  0
 20 21  1  1  0  0  0
 20 28  1  0  0  0  0
 22 21  1  0  0  0  0
 23 22  2  0  0  0  0
 23 27  1  0  0  0  0
 24 27  1  0  0  0  0
 24 26  1  0  0  0  0
 25 24  2  0  0  0  0
 28 29  1  0  0  0  0
 29 30  1  0  0  0  0
 30 31  1  0  0  0  0
 31 32  1  0  0  0  0
 32 33  1  0  0  0  0
 35 34  1  0  0  0  0
 36 35  1  1  0  0  0
 36 41  1  0  0  0  0
 37 40  1  6  0  0  0
 37 38  1  0  0  0  0
 38 36  1  1  0  0  0
 39 40  1  6  0  0  0
 39 37  1  0  0  0  0
 39 38  1  0  0  0  0
 41 42  1  0  0  0  0
 43 41  1  0  0  0  0
M  END
>  <MODEL>
3

>  <REMARK>
 VINA RESULT:      -6.4      3.059      8.594
  Name = 
  16 active torsions:
  status: ('A' for Active; 'I' for Inactive)
    1  A    between atoms: C_1  and  C_11
    2  A    between atoms: C_1  and  O_30
    3  A    between atoms: O_2  and  C_3
    4  A    between atoms: O_2  and  C_4
    5  A    between atoms: C_3  and  C_27
    6  A    between atoms: C_4  and  C_15
    7  A    between atoms: C_4  and  C_23
    8  A    between atoms: C_6  and  C_25
    9  A    between atoms: C_6  and  C_43
   10  A    between atoms: C_7  and  C_20
   11  A    between atoms: C_7  and  C_25
   12  A    between atoms: O_17  and  C_22
   13  A    between atoms: C_22  and  C_39
   14  A    between atoms: C_25  and  O_30
   15  A    between atoms: N_37  and  N_42
   16  A    between atoms: C_39  and  C_43
                            x       y       z     vdW  Elec       q    Type
                         _______ _______ _______ _____ _____    ______ ____

>  <TORSDO>
F 16

$$$$
=
 OpenBabel11042419173D

 43 48  0  0  1  0  0  0  0  0999 V2000
  191.2910  173.4410  141.9400 C   0  0  0  0  0  0  0  0  0  0  0  0
  188.9860  177.7450  144.1240 O   0  0  0  0  0  0  0  0  0  0  0  0
  189.4770  175.0070  142.4910 C   0  0  0  0  0  0  0  0  0  0  0  0
  191.8590  175.9620  142.4650 C   0  0  2  0  0  3  0  0  0  0  0  0
  191.6410  170.3440  141.2190 N   0  0  0  0  0  0  0  0  0  0  0  0
  191.2890  177.0340  143.2960 N   0  0  0  0  0  0  0  0  0  0  0  0
  192.9860  170.8850  141.1260 C   0  0  0  0  0  2  0  0  0  0  0  0
  190.5440  170.9550  141.5620 C   0  0  0  0  0  3  0  0  0  0  0  0
  188.9810  176.4270  142.5390 C   0  0  1  0  0  3  0  0  0  0  0  0
  190.8760  174.7550  142.3270 C   0  0  0  0  0  0  0  0  0  0  0  0
  188.0630  176.8120  143.5780 C   0  0  2  0  0  3  0  0  0  0  0  0
  190.0080  177.1510  143.3000 C   0  0  0  0  0  0  0  0  0  0  0  0
  188.5570  173.9710  142.4080 C   0  0  0  0  0  3  0  0  0  0  0  0
  192.7410  173.2210  141.6130 C   0  0  0  0  0  2  0  0  0  0  0  0
  188.9850  172.6790  142.1490 C   0  0  0  0  0  3  0  0  0  0  0  0
  192.9770  172.2490  140.4900 C   0  0  0  0  0  2  0  0  0  0  0  0
  190.3270  172.3850  141.9090 C   0  0  0  0  0  0  0  0  0  0  0  0
  193.1920  175.5840  143.0940 C   0  0  0  0  0  2  0  0  0  0  0  0
  193.2250  175.9970  144.4270 O   0  0  0  0  0  0  0  0  0  0  0  0
  193.2150  174.8110  145.1700 C   0  0  1  0  0  3  0  0  0  0  0  0
  194.4370  173.9400  144.8690 C   0  0  0  0  0  2  0  0  0  0  0  0
  195.6490  174.3550  145.6460 C   0  0  0  0  0  3  0  0  0  0  0  0
  196.7410  174.7360  145.0630 N   0  0  0  0  0  0  0  0  0  0  0  0
  196.8120  176.0370  142.9730 C   0  0  0  0  0  0  0  0  0  0  0  0
  196.7140  177.1200  143.6100 O   0  0  0  0  0  1  0  0  0  0  0  0
  196.8810  176.0540  141.5860 O   0  0  0  0  0  0  0  0  0  0  0  0
  196.8510  174.7910  143.6670 N   0  0  0  0  0  2  0  0  0  0  0  0
  193.0160  175.0800  146.6620 C   0  0  0  0  0  2  0  0  0  0  0  0
  192.4940  176.4860  146.9340 C   0  0  0  0  0  2  0  0  0  0  0  0
  191.3160  176.4410  147.8880 C   0  0  0  0  0  2  0  0  0  0  0  0
  190.0200  176.2440  147.1210 C   0  0  0  0  0  2  0  0  0  0  0  0
  189.4880  174.9920  147.4230 O   0  0  0  0  0  0  0  0  0  0  0  0
  189.4760  174.3120  146.2050 C   0  0  0  0  0  1  0  0  0  0  0  0
  186.8310  177.5270  143.0210 C   0  0  0  0  0  2  0  0  0  0  0  0
  185.6730  177.1820  143.7280 O   0  0  0  0  0  0  0  0  0  0  0  0
  185.5540  178.1560  144.7270 C   0  0  2  0  0  3  0  0  0  0  0  0
  186.2750  176.6110  146.5390 C   0  0  1  0  0  3  0  0  0  0  0  0
  185.1550  177.5050  146.0430 C   0  0  1  0  0  3  0  0  0  0  0  0
  186.0790  177.9730  147.1530 C   0  0  1  0  0  3  0  0  0  0  0  0
  186.4070  176.7870  148.0410 C   0  0  0  0  0  2  0  0  0  0  0  0
  184.5280  179.2120  144.3220 C   0  0  0  0  0  3  0  0  0  0  0  0
  185.1790  180.3790  143.9210 O   0  0  0  0  0  1  0  0  0  0  0  0
  183.7230  178.7450  143.2800 O   0  0  0  0  0  1  0  0  0  0  0  0
  1 10  1  0  0  0  0
  4 18  1  1  0  0  0
  4  6  1  0  0  0  0
  5  8  2  0  0  0  0
  6 12  2  0  0  0  0
  7  5  1  0  0  0  0
  8 17  1  0  0  0  0
  9  3  1  1  0  0  0
  9 12  1  0  0  0  0
  9 11  1  0  0  0  0
 10  4  1  0  0  0  0
 10  3  2  0  0  0  0
 11 34  1  6  0  0  0
 11  2  1  0  0  0  0
 12  2  1  0  0  0  0
 13  3  1  0  0  0  0
 14  1  1  0  0  0  0
 15 13  2  0  0  0  0
 16  7  1  0  0  0  0
 16 14  1  0  0  0  0
 17  1  2  0  0  0  0
 17 15  1  0  0  0  0
 18 19  1  0  0  0  0
 19 20  1  0  0  0  0
 20 21  1  1  0  0  0
 20 28  1  0  0  0  0
 21 22  1  0  0  0  0
 23 22  2  0  0  0  0
 24 25  1  0  0  0  0
 24 27  1  0  0  0  0
 26 24  2  0  0  0  0
 27 23  1  0  0  0  0
 28 29  1  0  0  0  0
 29 30  1  0  0  0  0
 31 32  1  0  0  0  0
 31 30  1  0  0  0  0
 33 32  1  0  0  0  0
 34 35  1  0  0  0  0
 36 35  1  6  0  0  0
 37 39  1  0  0  0  0
 37 40  1  1  0  0  0
 38 36  1  6  0  0  0
 38 37  1  0  0  0  0
 38 39  1  0  0  0  0
 39 40  1  1  0  0  0
 41 36  1  0  0  0  0
 42 41  1  0  0  0  0
 43 41  1  0  0  0  0
M  END
>  <MODEL>
4

>  <REMARK>
 VINA RESULT:      -6.4      2.746      8.544
  Name = 
  16 active torsions:
  status: ('A' for Active; 'I' for Inactive)
    1  A    between atoms: C_1  and  C_11
    2  A    between atoms: C_1  and  O_30
    3  A    between atoms: O_2  and  C_3
    4  A    between atoms: O_2  and  C_4
    5  A    between atoms: C_3  and  C_27
    6  A    between atoms: C_4  and  C_15
    7  A    between atoms: C_4  and  C_23
    8  A    between atoms: C_6  and  C_25
    9  A    between atoms: C_6  and  C_43
   10  A    between atoms: C_7  and  C_20
   11  A    between atoms: C_7  and  C_25
   12  A    between atoms: O_17  and  C_22
   13  A    between atoms: C_22  and  C_39
   14  A    between atoms: C_25  and  O_30
   15  A    between atoms: N_37  and  N_42
   16  A    between atoms: C_39  and  C_43
                            x       y       z     vdW  Elec       q    Type
                         _______ _______ _______ _____ _____    ______ ____

>  <TORSDO>
F 16

$$$$
=
 OpenBabel11042419173D

 43 48  0  0  1  0  0  0  0  0999 V2000
  191.6950  175.1040  143.8380 C   0  0  0  0  0  0  0  0  0  0  0  0
  187.6090  176.2010  140.5680 O   0  0  0  0  0  0  0  0  0  0  0  0
  189.6910  176.2780  143.0290 C   0  0  0  0  0  0  0  0  0  0  0  0
  189.9750  173.8360  142.2940 C   0  0  2  0  0  3  0  0  0  0  0  0
  194.2680  175.7260  145.6340 N   0  0  0  0  0  0  0  0  0  0  0  0
  189.0390  174.1960  141.2180 N   0  0  0  0  0  0  0  0  0  0  0  0
  194.4050  174.3210  145.2900 C   0  0  0  0  0  2  0  0  0  0  0  0
  193.3430  176.5630  145.2660 C   0  0  0  0  0  3  0  0  0  0  0  0
  188.2780  176.1960  142.5160 C   0  0  1  0  0  3  0  0  0  0  0  0
  190.5020  175.0990  143.0470 C   0  0  0  0  0  0  0  0  0  0  0  0
  187.8190  177.1820  141.5750 C   0  0  2  0  0  3  0  0  0  0  0  0
  188.3520  175.2710  141.3790 C   0  0  0  0  0  0  0  0  0  0  0  0
  190.1180  177.4410  143.6560 C   0  0  0  0  0  3  0  0  0  0  0  0
  192.4570  173.8180  143.9840 C   0  0  0  0  0  2  0  0  0  0  0  0
  191.3340  177.4670  144.3210 C   0  0  0  0  0  3  0  0  0  0  0  0
  193.0750  173.6200  145.3420 C   0  0  0  0  0  2  0  0  0  0  0  0
  192.1330  176.3290  144.4330 C   0  0  0  0  0  0  0  0  0  0  0  0
  191.0820  173.0120  141.6520 C   0  0  0  0  0  2  0  0  0  0  0  0
  191.5140  173.6270  140.4760 O   0  0  0  0  0  0  0  0  0  0  0  0
  192.6290  172.8830  140.0720 C   0  0  1  0  0  3  0  0  0  0  0  0
  192.5960  172.5750  138.5730 C   0  0  0  0  0  2  0  0  0  0  0  0
  191.7320  171.3960  138.2430 C   0  0  0  0  0  3  0  0  0  0  0  0
  190.5790  171.5290  137.6680 N   0  0  0  0  0  0  0  0  0  0  0  0
  188.8250  173.2510  137.8170 C   0  0  0  0  0  0  0  0  0  0  0  0
  188.1640  172.5490  138.6280 O   0  0  0  0  0  1  0  0  0  0  0  0
  188.3330  174.4850  137.4100 O   0  0  0  0  0  0  0  0  0  0  0  0
  190.0740  172.7870  137.3100 N   0  0  0  0  0  2  0  0  0  0  0  0
  193.9360  173.5340  140.5270 C   0  0  0  0  0  2  0  0  0  0  0  0
  193.9480  175.0400  140.2940 C   0  0  0  0  0  2  0  0  0  0  0  0
  194.5160  175.7610  141.5020 C   0  0  0  0  0  2  0  0  0  0  0  0
  196.0320  175.6790  141.5020 C   0  0  0  0  0  2  0  0  0  0  0  0
  196.4880  175.5360  142.8120 O   0  0  0  0  0  0  0  0  0  0  0  0
  196.9250  176.8110  143.1720 C   0  0  0  0  0  1  0  0  0  0  0  0
  186.4950  177.8150  142.0040 C   0  0  0  0  0  2  0  0  0  0  0  0
  185.9820  177.2060  143.1560 O   0  0  0  0  0  0  0  0  0  0  0  0
  186.0800  178.1800  144.1560 C   0  0  2  0  0  3  0  0  0  0  0  0
  187.0350  176.3630  145.5630 C   0  0  1  0  0  3  0  0  0  0  0  0
  186.0560  177.5220  145.5270 C   0  0  1  0  0  3  0  0  0  0  0  0
  187.4080  177.6770  146.2000 C   0  0  1  0  0  3  0  0  0  0  0  0
  187.7520  176.3760  146.9000 C   0  0  0  0  0  2  0  0  0  0  0  0
  184.9410  179.1890  144.0290 C   0  0  0  0  0  3  0  0  0  0  0  0
  183.9600  178.9240  144.9850 O   0  0  0  0  0  1  0  0  0  0  0  0
  185.4140  180.4930  144.1960 O   0  0  0  0  0  1  0  0  0  0  0  0
  1 14  1  0  0  0  0
  1 17  1  0  0  0  0
  2 12  1  0  0  0  0
  2 11  1  0  0  0  0
  3 10  1  0  0  0  0
  3 13  2  0  0  0  0
  4 18  1  6  0  0  0
  4 10  1  0  0  0  0
  6 12  2  0  0  0  0
  6  4  1  0  0  0  0
  7 16  1  0  0  0  0
  7  5  1  0  0  0  0
  8  5  2  0  0  0  0
  9 12  1  6  0  0  0
  9  3  1  0  0  0  0
 10  1  2  0  0  0  0
 11 34  1  1  0  0  0
 11  9  1  0  0  0  0
 13 15  1  0  0  0  0
 14 16  1  0  0  0  0
 15 17  2  0  0  0  0
 17  8  1  0  0  0  0
 19 18  1  0  0  0  0
 20 21  1  6  0  0  0
 20 19  1  0  0  0  0
 20 28  1  0  0  0  0
 22 21  1  0  0  0  0
 23 22  2  0  0  0  0
 24 25  1  0  0  0  0
 26 24  2  0  0  0  0
 27 23  1  0  0  0  0
 27 24  1  0  0  0  0
 29 28  1  0  0  0  0
 29 30  1  0  0  0  0
 31 30  1  0  0  0  0
 31 32  1  0  0  0  0
 32 33  1  0  0  0  0
 34 35  1  0  0  0  0
 36 35  1  6  0  0  0
 37 39  1  0  0  0  0
 37 40  1  1  0  0  0
 38 36  1  6  0  0  0
 38 37  1  0  0  0  0
 38 39  1  0  0  0  0
 39 40  1  1  0  0  0
 41 36  1  0  0  0  0
 41 43  1  0  0  0  0
 41 42  1  0  0  0  0
M  END
>  <MODEL>
5

>  <REMARK>
 VINA RESULT:      -6.4      2.604      8.096
  Name = 
  16 active torsions:
  status: ('A' for Active; 'I' for Inactive)
    1  A    between atoms: C_1  and  C_11
    2  A    between atoms: C_1  and  O_30
    3  A    between atoms: O_2  and  C_3
    4  A    between atoms: O_2  and  C_4
    5  A    between atoms: C_3  and  C_27
    6  A    between atoms: C_4  and  C_15
    7  A    between atoms: C_4  and  C_23
    8  A    between atoms: C_6  and  C_25
    9  A    between atoms: C_6  and  C_43
   10  A    between atoms: C_7  and  C_20
   11  A    between atoms: C_7  and  C_25
   12  A    between atoms: O_17  and  C_22
   13  A    between atoms: C_22  and  C_39
   14  A    between atoms: C_25  and  O_30
   15  A    between atoms: N_37  and  N_42
   16  A    between atoms: C_39  and  C_43
                            x       y       z     vdW  Elec       q    Type
                         _______ _______ _______ _____ _____    ______ ____

>  <TORSDO>
F 16

$$$$
=
 OpenBabel11042419173D

 43 48  0  0  1  0  0  0  0  0999 V2000
  189.3950  175.7140  144.4810 C   0  0  0  0  0  0  0  0  0  0  0  0
  188.0740  173.4280  139.8300 O   0  0  0  0  0  0  0  0  0  0  0  0
  189.4940  174.0710  142.6530 C   0  0  0  0  0  0  0  0  0  0  0  0
  188.6340  176.4140  142.0560 C   0  0  2  0  0  3  0  0  0  0  0  0
  190.0250  175.8460  147.6150 N   0  0  0  0  0  0  0  0  0  0  0  0
  188.0350  175.7450  140.8900 N   0  0  0  0  0  0  0  0  0  0  0  0
  189.6130  177.1980  147.2770 C   0  0  0  0  0  2  0  0  0  0  0  0
  190.0850  174.8000  146.8420 C   0  0  0  0  0  3  0  0  0  0  0  0
  189.5890  173.8030  141.1760 C   0  0  1  0  0  3  0  0  0  0  0  0
  189.1490  175.3830  143.1110 C   0  0  0  0  0  0  0  0  0  0  0  0
  188.9420  172.6390  140.6340 C   0  0  2  0  0  3  0  0  0  0  0  0
  188.4900  174.5810  140.5880 C   0  0  0  0  0  0  0  0  0  0  0  0
  189.9310  173.1030  143.5470 C   0  0  0  0  0  3  0  0  0  0  0  0
  189.1840  177.1350  144.9180 C   0  0  0  0  0  2  0  0  0  0  0  0
  190.0530  173.4030  144.8950 C   0  0  0  0  0  3  0  0  0  0  0  0
  190.1730  177.6170  145.9450 C   0  0  0  0  0  2  0  0  0  0  0  0
  189.8010  174.6840  145.3870 C   0  0  0  0  0  0  0  0  0  0  0  0
  187.5770  177.3610  142.6060 C   0  0  0  0  0  2  0  0  0  0  0  0
  186.4670  177.3820  141.7590 O   0  0  0  0  0  0  0  0  0  0  0  0
  185.6810  178.4420  142.2270 C   0  0  1  0  0  3  0  0  0  0  0  0
  184.1870  178.1640  142.0470 C   0  0  0  0  0  2  0  0  0  0  0  0
  183.7400  178.2940  140.6230 C   0  0  0  0  0  3  0  0  0  0  0  0
  182.4880  178.2640  140.2910 N   0  0  0  0  0  0  0  0  0  0  0  0
  180.4290  179.0810  141.3660 C   0  0  0  0  0  0  0  0  0  0  0  0
  180.3770  180.0670  140.5840 O   0  0  0  0  0  0  0  0  0  0  0  0
  179.4630  178.9280  142.3530 O   0  0  0  0  0  1  0  0  0  0  0  0
  181.4750  178.1180  141.2470 N   0  0  0  0  0  2  0  0  0  0  0  0
  186.0560  178.8350  143.6560 C   0  0  0  0  0  2  0  0  0  0  0  0
  184.9730  179.6650  144.3340 C   0  0  0  0  0  2  0  0  0  0  0  0
  184.3440  178.8890  145.4760 C   0  0  0  0  0  2  0  0  0  0  0  0
  185.2700  177.7750  145.9330 C   0  0  0  0  0  2  0  0  0  0  0  0
  185.3040  177.7410  147.3260 O   0  0  0  0  0  0  0  0  0  0  0  0
  186.2980  178.6560  147.6740 C   0  0  0  0  0  1  0  0  0  0  0  0
  189.8850  171.8080  139.7630 C   0  0  0  0  0  2  0  0  0  0  0  0
  189.4910  171.8200  138.4200 O   0  0  0  0  0  0  0  0  0  0  0  0
  190.6750  172.0070  137.6960 C   0  0  2  0  0  3  0  0  0  0  0  0
  189.2970  173.7110  136.5180 C   0  0  1  0  0  3  0  0  0  0  0  0
  190.3680  172.6490  136.3520 C   0  0  1  0  0  3  0  0  0  0  0  0
  190.7420  174.1200  136.3830 C   0  0  1  0  0  3  0  0  0  0  0  0
  189.6650  174.9080  135.6600 C   0  0  0  0  0  2  0  0  0  0  0  0
  191.3940  170.6740  137.4990 C   0  0  0  0  0  3  0  0  0  0  0  0
  190.5020  169.7200  137.0100 O   0  0  0  0  0  1  0  0  0  0  0  0
  192.4610  170.8150  136.6090 O   0  0  0  0  0  1  0  0  0  0  0  0
  1 14  1  0  0  0  0
  1 17  1  0  0  0  0
  2 12  1  0  0  0  0
  2 11  1  0  0  0  0
  3 10  1  0  0  0  0
  3 13  2  0  0  0  0
  4 18  1  1  0  0  0
  4 10  1  0  0  0  0
  6  4  1  0  0  0  0
  7  5  1  0  0  0  0
  8  5  2  0  0  0  0
  9 12  1  6  0  0  0
  9  3  1  0  0  0  0
 10  1  2  0  0  0  0
 11 34  1  6  0  0  0
 11  9  1  0  0  0  0
 12  6  2  0  0  0  0
 13 15  1  0  0  0  0
 14 16  1  0  0  0  0
 15 17  2  0  0  0  0
 16  7  1  0  0  0  0
 17  8  1  0  0  0  0
 19 20  1  0  0  0  0
 19 18  1  0  0  0  0
 20 21  1  1  0  0  0
 20 28  1  0  0  0  0
 22 21  1  0  0  0  0
 23 22  2  0  0  0  0
 23 27  1  0  0  0  0
 24 26  1  0  0  0  0
 25 24  2  0  0  0  0
 27 24  1  0  0  0  0
 28 29  1  0  0  0  0
 29 30  1  0  0  0  0
 30 31  1  0  0  0  0
 31 32  1  0  0  0  0
 32 33  1  0  0  0  0
 35 34  1  0  0  0  0
 36 41  1  6  0  0  0
 36 35  1  0  0  0  0
 37 40  1  6  0  0  0
 38 39  1  0  0  0  0
 38 37  1  0  0  0  0
 38 36  1  1  0  0  0
 39 40  1  6  0  0  0
 39 37  1  0  0  0  0
 42 41  1  0  0  0  0
 43 41  1  0  0  0  0
M  END
>  <MODEL>
6

>  <REMARK>
 VINA RESULT:      -6.4      4.004      6.911
  Name = 
  16 active torsions:
  status: ('A' for Active; 'I' for Inactive)
    1  A    between atoms: C_1  and  C_11
    2  A    between atoms: C_1  and  O_30
    3  A    between atoms: O_2  and  C_3
    4  A    between atoms: O_2  and  C_4
    5  A    between atoms: C_3  and  C_27
    6  A    between atoms: C_4  and  C_15
    7  A    between atoms: C_4  and  C_23
    8  A    between atoms: C_6  and  C_25
    9  A    between atoms: C_6  and  C_43
   10  A    between atoms: C_7  and  C_20
   11  A    between atoms: C_7  and  C_25
   12  A    between atoms: O_17  and  C_22
   13  A    between atoms: C_22  and  C_39
   14  A    between atoms: C_25  and  O_30
   15  A    between atoms: N_37  and  N_42
   16  A    between atoms: C_39  and  C_43
                            x       y       z     vdW  Elec       q    Type
                         _______ _______ _______ _____ _____    ______ ____

>  <TORSDO>
F 16

$$$$
=
 OpenBabel11042419173D

 43 48  0  0  1  0  0  0  0  0999 V2000
  191.7510  175.3390  144.1220 C   0  0  0  0  0  0  0  0  0  0  0  0
  187.7640  175.9280  140.6070 O   0  0  0  0  0  0  0  0  0  0  0  0
  189.7560  176.3570  143.1060 C   0  0  0  0  0  0  0  0  0  0  0  0
  190.1100  173.8490  142.6940 C   0  0  2  0  0  3  0  0  0  0  0  0
  194.2480  176.2360  145.9090 N   0  0  0  0  0  0  0  0  0  0  0  0
  189.2070  174.0510  141.5510 N   0  0  0  0  0  0  0  0  0  0  0  0
  194.4220  174.8030  145.7490 C   0  0  0  0  0  2  0  0  0  0  0  0
  193.3210  177.0010  145.4090 C   0  0  0  0  0  3  0  0  0  0  0  0
  188.3650  176.1810  142.5620 C   0  0  1  0  0  3  0  0  0  0  0  0
  190.5880  175.2080  143.2990 C   0  0  0  0  0  0  0  0  0  0  0  0
  187.9210  177.0320  141.4890 C   0  0  2  0  0  3  0  0  0  0  0  0
  188.4950  175.1230  141.5520 C   0  0  0  0  0  0  0  0  0  0  0  0
  190.1400  177.5980  143.5950 C   0  0  0  0  0  3  0  0  0  0  0  0
  192.5300  174.0980  144.4530 C   0  0  0  0  0  2  0  0  0  0  0  0
  191.3310  177.7350  144.2920 C   0  0  0  0  0  3  0  0  0  0  0  0
  193.1030  174.0840  145.8450 C   0  0  0  0  0  2  0  0  0  0  0  0
  192.1460  176.6380  144.5730 C   0  0  0  0  0  0  0  0  0  0  0  0
  191.2540  172.9760  142.1970 C   0  0  0  0  0  2  0  0  0  0  0  0
  191.8100  173.5300  141.0420 O   0  0  0  0  0  0  0  0  0  0  0  0
  193.0180  172.8450  140.8640 C   0  0  1  0  0  3  0  0  0  0  0  0
  194.1910  173.8060  140.6590 C   0  0  0  0  0  2  0  0  0  0  0  0
  193.8980  175.1920  141.1450 C   0  0  0  0  0  3  0  0  0  0  0  0
  194.6440  175.7850  142.0220 N   0  0  0  0  0  0  0  0  0  0  0  0
  196.8070  175.9300  143.1890 C   0  0  0  0  0  0  0  0  0  0  0  0
  196.6960  177.1800  143.3010 O   0  0  0  0  0  0  0  0  0  0  0  0
  197.9390  175.2900  143.6780 O   0  0  0  0  0  1  0  0  0  0  0  0
  195.7790  175.1660  142.5630 N   0  0  0  0  0  2  0  0  0  0  0  0
  193.2590  171.8260  141.9780 C   0  0  0  0  0  2  0  0  0  0  0  0
  194.7350  171.6810  142.3250 C   0  0  0  0  0  2  0  0  0  0  0  0
  194.9020  171.2030  143.7550 C   0  0  0  0  0  2  0  0  0  0  0  0
  193.6230  170.5500  144.2470 C   0  0  0  0  0  2  0  0  0  0  0  0
  193.9400  169.4610  145.0570 O   0  0  0  0  0  0  0  0  0  0  0  0
  195.2730  169.1800  144.7600 C   0  0  0  0  0  1  0  0  0  0  0  0
  186.5720  177.6840  141.7920 C   0  0  0  0  0  2  0  0  0  0  0  0
  186.0170  177.1920  142.9790 O   0  0  0  0  0  0  0  0  0  0  0  0
  186.1710  178.2280  143.9080 C   0  0  2  0  0  3  0  0  0  0  0  0
  186.8030  176.4210  145.4980 C   0  0  1  0  0  3  0  0  0  0  0  0
  185.9920  177.6910  145.3200 C   0  0  1  0  0  3  0  0  0  0  0  0
  187.3190  177.7220  146.0580 C   0  0  1  0  0  3  0  0  0  0  0  0
  187.4500  176.4480  146.8710 C   0  0  0  0  0  2  0  0  0  0  0  0
  185.1680  179.3450  143.6310 C   0  0  0  0  0  3  0  0  0  0  0  0
  183.9010  178.9700  144.0790 O   0  0  0  0  0  1  0  0  0  0  0  0
  185.5560  180.5270  144.2660 O   0  0  0  0  0  1  0  0  0  0  0  0
  1 14  1  0  0  0  0
  1 17  1  0  0  0  0
  2 11  1  0  0  0  0
  2 12  1  0  0  0  0
  3 10  1  0  0  0  0
  3 13  2  0  0  0  0
  4 18  1  6  0  0  0
  4 10  1  0  0  0  0
  6 12  2  0  0  0  0
  6  4  1  0  0  0  0
  7 16  1  0  0  0  0
  7  5  1  0  0  0  0
  8  5  2  0  0  0  0
  9 12  1  6  0  0  0
  9  3  1  0  0  0  0
 10  1  2  0  0  0  0
 11 34  1  1  0  0  0
 11  9  1  0  0  0  0
 13 15  1  0  0  0  0
 14 16  1  0  0  0  0
 15 17  2  0  0  0  0
 17  8  1  0  0  0  0
 19 18  1  0  0  0  0
 20 21  1  1  0  0  0
 20 19  1  0  0  0  0
 20 28  1  0  0  0  0
 21 22  1  0  0  0  0
 22 23  2  0  0  0  0
 23 27  1  0  0  0  0
 24 25  2  0  0  0  0
 24 26  1  0  0  0  0
 27 24  1  0  0  0  0
 28 29  1  0  0  0  0
 29 30  1  0  0  0  0
 30 31  1  0  0  0  0
 31 32  1  0  0  0  0
 33 32  1  0  0  0  0
 34 35  1  0  0  0  0
 36 35  1  6  0  0  0
 37 39  1  0  0  0  0
 37 40  1  1  0  0  0
 38 36  1  6  0  0  0
 38 37  1  0  0  0  0
 38 39  1  0  0  0  0
 39 40  1  1  0  0  0
 41 36  1  0  0  0  0
 41 42  1  0  0  0  0
 41 43  1  0  0  0  0
M  END
>  <MODEL>
7

>  <REMARK>
 VINA RESULT:      -6.3      2.487      8.767
  Name = 
  16 active torsions:
  status: ('A' for Active; 'I' for Inactive)
    1  A    between atoms: C_1  and  C_11
    2  A    between atoms: C_1  and  O_30
    3  A    between atoms: O_2  and  C_3
    4  A    between atoms: O_2  and  C_4
    5  A    between atoms: C_3  and  C_27
    6  A    between atoms: C_4  and  C_15
    7  A    between atoms: C_4  and  C_23
    8  A    between atoms: C_6  and  C_25
    9  A    between atoms: C_6  and  C_43
   10  A    between atoms: C_7  and  C_20
   11  A    between atoms: C_7  and  C_25
   12  A    between atoms: O_17  and  C_22
   13  A    between atoms: C_22  and  C_39
   14  A    between atoms: C_25  and  O_30
   15  A    between atoms: N_37  and  N_42
   16  A    between atoms: C_39  and  C_43
                            x       y       z     vdW  Elec       q    Type
                         _______ _______ _______ _____ _____    ______ ____

>  <TORSDO>
F 16

$$$$
=
 OpenBabel11042419173D

 43 48  0  0  1  0  0  0  0  0999 V2000
  191.5250  173.0590  142.0870 C   0  0  0  0  0  0  0  0  0  0  0  0
  188.8230  177.2120  144.0980 O   0  0  0  0  0  0  0  0  0  0  0  0
  189.5670  174.4560  142.5990 C   0  0  0  0  0  0  0  0  0  0  0  0
  191.8350  175.6490  142.4650 C   0  0  2  0  0  3  0  0  0  0  0  0
  192.1840  169.9800  141.5210 N   0  0  0  0  0  0  0  0  0  0  0  0
  191.1720  176.7000  143.2530 N   0  0  0  0  0  0  0  0  0  0  0  0
  193.4630  170.6520  141.3670 C   0  0  0  0  0  2  0  0  0  0  0  0
  191.0360  170.4910  141.8570 C   0  0  0  0  0  3  0  0  0  0  0  0
  188.9270  175.8170  142.5850 C   0  0  1  0  0  3  0  0  0  0  0  0
  190.9820  174.3410  142.4140 C   0  0  0  0  0  0  0  0  0  0  0  0
  187.9920  176.1610  143.6240 C   0  0  2  0  0  3  0  0  0  0  0  0
  189.8860  176.6840  143.2810 C   0  0  0  0  0  0  0  0  0  0  0  0
  188.7590  173.3270  142.5920 C   0  0  0  0  0  3  0  0  0  0  0  0
  192.9830  172.9730  141.7370 C   0  0  0  0  0  2  0  0  0  0  0  0
  189.3160  172.0730  142.3910 C   0  0  0  0  0  3  0  0  0  0  0  0
  193.2990  171.9700  140.6600 C   0  0  0  0  0  2  0  0  0  0  0  0
  190.6770  171.9080  142.1340 C   0  0  0  0  0  0  0  0  0  0  0  0
  193.2120  175.4460  143.0810 C   0  0  0  0  0  2  0  0  0  0  0  0
  193.5680  176.5660  143.8350 O   0  0  0  0  0  0  0  0  0  0  0  0
  194.7490  176.1960  144.4900 C   0  0  1  0  0  3  0  0  0  0  0  0
  194.4700  175.5990  145.8720 C   0  0  0  0  0  2  0  0  0  0  0  0
  193.6420  176.5010  146.7360 C   0  0  0  0  0  3  0  0  0  0  0  0
  192.3790  176.2920  146.9340 N   0  0  0  0  0  0  0  0  0  0  0  0
  190.3090  175.0200  146.5340 C   0  0  0  0  0  0  0  0  0  0  0  0
  189.6330  175.8590  147.1870 O   0  0  0  0  0  1  0  0  0  0  0  0
  189.6860  173.9070  145.9830 O   0  0  0  0  0  0  0  0  0  0  0  0
  191.7120  175.2030  146.3570 N   0  0  0  0  0  2  0  0  0  0  0  0
  195.6250  175.3030  143.6110 C   0  0  0  0  0  2  0  0  0  0  0  0
  196.7920  176.0620  142.9910 C   0  0  0  0  0  2  0  0  0  0  0  0
  196.3960  176.6430  141.6480 C   0  0  0  0  0  2  0  0  0  0  0  0
  196.7970  175.7020  140.5250 C   0  0  0  0  0  2  0  0  0  0  0  0
  195.6590  175.3000  139.8280 O   0  0  0  0  0  0  0  0  0  0  0  0
  196.1270  174.9560  138.5600 C   0  0  0  0  0  1  0  0  0  0  0  0
  186.6820  176.7120  143.0610 C   0  0  0  0  0  2  0  0  0  0  0  0
  186.6840  178.1120  143.0300 O   0  0  0  0  0  0  0  0  0  0  0  0
  185.3530  178.4810  143.2540 C   0  0  2  0  0  3  0  0  0  0  0  0
  185.6790  178.4320  145.7200 C   0  0  1  0  0  3  0  0  0  0  0  0
  184.8610  177.8860  144.5640 C   0  0  1  0  0  3  0  0  0  0  0  0
  184.3020  178.9830  145.4530 C   0  0  1  0  0  3  0  0  0  0  0  0
  184.7450  178.7210  146.8800 C   0  0  0  0  0  2  0  0  0  0  0  0
  184.4710  178.0210  142.0950 C   0  0  0  0  0  3  0  0  0  0  0  0
  183.1320  178.2910  142.3790 O   0  0  0  0  0  1  0  0  0  0  0  0
  184.8350  178.6640  140.9100 O   0  0  0  0  0  1  0  0  0  0  0  0
  1 17  2  0  0  0  0
  1 10  1  0  0  0  0
  4 18  1  1  0  0  0
  4  6  1  0  0  0  0
  5  8  2  0  0  0  0
  6 12  2  0  0  0  0
  7  5  1  0  0  0  0
  8 17  1  0  0  0  0
  9  3  1  1  0  0  0
  9 12  1  0  0  0  0
  9 11  1  0  0  0  0
 10  4  1  0  0  0  0
 10  3  2  0  0  0  0
 11 34  1  6  0  0  0
 11  2  1  0  0  0  0
 12  2  1  0  0  0  0
 13  3  1  0  0  0  0
 14  1  1  0  0  0  0
 15 13  2  0  0  0  0
 16  7  1  0  0  0  0
 16 14  1  0  0  0  0
 17 15  1  0  0  0  0
 18 19  1  0  0  0  0
 19 20  1  0  0  0  0
 20 28  1  6  0  0  0
 20 21  1  0  0  0  0
 21 22  1  0  0  0  0
 22 23  2  0  0  0  0
 24 25  1  0  0  0  0
 26 24  2  0  0  0  0
 27 24  1  0  0  0  0
 27 23  1  0  0  0  0
 29 28  1  0  0  0  0
 30 29  1  0  0  0  0
 31 30  1  0  0  0  0
 32 31  1  0  0  0  0
 33 32  1  0  0  0  0
 35 34  1  0  0  0  0
 35 36  1  0  0  0  0
 36 41  1  6  0  0  0
 37 40  1  1  0  0  0
 38 36  1  6  0  0  0
 38 39  1  0  0  0  0
 38 37  1  0  0  0  0
 39 37  1  0  0  0  0
 39 40  1  1  0  0  0
 41 42  1  0  0  0  0
 43 41  1  0  0  0  0
M  END
>  <MODEL>
8

>  <REMARK>
 VINA RESULT:      -6.2      2.907      9.153
  Name = 
  16 active torsions:
  status: ('A' for Active; 'I' for Inactive)
    1  A    between atoms: C_1  and  C_11
    2  A    between atoms: C_1  and  O_30
    3  A    between atoms: O_2  and  C_3
    4  A    between atoms: O_2  and  C_4
    5  A    between atoms: C_3  and  C_27
    6  A    between atoms: C_4  and  C_15
    7  A    between atoms: C_4  and  C_23
    8  A    between atoms: C_6  and  C_25
    9  A    between atoms: C_6  and  C_43
   10  A    between atoms: C_7  and  C_20
   11  A    between atoms: C_7  and  C_25
   12  A    between atoms: O_17  and  C_22
   13  A    between atoms: C_22  and  C_39
   14  A    between atoms: C_25  and  O_30
   15  A    between atoms: N_37  and  N_42
   16  A    between atoms: C_39  and  C_43
                            x       y       z     vdW  Elec       q    Type
                         _______ _______ _______ _____ _____    ______ ____

>  <TORSDO>
F 16

$$$$
=
 OpenBabel11042419173D

 43 48  0  0  1  0  0  0  0  0999 V2000
  192.0680  173.8680  142.2740 C   0  0  0  0  0  0  0  0  0  0  0  0
  190.2270  177.9180  145.2410 O   0  0  0  0  0  0  0  0  0  0  0  0
  190.3930  175.2920  143.3770 C   0  0  0  0  0  0  0  0  0  0  0  0
  192.6320  176.3940  142.7780 C   0  0  2  0  0  3  0  0  0  0  0  0
  192.3600  170.8340  141.3030 N   0  0  0  0  0  0  0  0  0  0  0  0
  192.2560  177.3900  143.7930 N   0  0  0  0  0  0  0  0  0  0  0  0
  193.6040  171.4620  140.8890 C   0  0  0  0  0  2  0  0  0  0  0  0
  191.3670  171.3590  141.9600 C   0  0  0  0  0  3  0  0  0  0  0  0
  189.8610  176.6750  143.6390 C   0  0  1  0  0  3  0  0  0  0  0  0
  191.7080  175.1350  142.8340 C   0  0  0  0  0  0  0  0  0  0  0  0
  189.2370  176.9550  144.9040 C   0  0  2  0  0  3  0  0  0  0  0  0
  191.0180  177.4270  144.1420 C   0  0  0  0  0  0  0  0  0  0  0  0
  189.5360  174.2060  143.4790 C   0  0  0  0  0  3  0  0  0  0  0  0
  193.3850  173.7540  141.5620 C   0  0  0  0  0  2  0  0  0  0  0  0
  189.9400  172.9550  143.0390 C   0  0  0  0  0  3  0  0  0  0  0  0
  193.3590  172.8490  140.3600 C   0  0  0  0  0  2  0  0  0  0  0  0
  191.1820  172.7560  142.4360 C   0  0  0  0  0  0  0  0  0  0  0  0
  194.1020  176.0720  143.0080 C   0  0  0  0  0  2  0  0  0  0  0  0
  194.5000  176.5300  144.2650 O   0  0  0  0  0  0  0  0  0  0  0  0
  195.4500  175.5980  144.7010 C   0  0  1  0  0  3  0  0  0  0  0  0
  194.9950  174.8710  145.9680 C   0  0  0  0  0  2  0  0  0  0  0  0
  193.7590  174.0520  145.7540 C   0  0  0  0  0  3  0  0  0  0  0  0
  192.6000  174.4280  146.1950 N   0  0  0  0  0  0  0  0  0  0  0  0
  191.3000  175.8460  147.7320 C   0  0  0  0  0  0  0  0  0  0  0  0
  190.4430  174.9370  147.8920 O   0  0  0  0  0  0  0  0  0  0  0  0
  191.1430  177.0660  148.3760 O   0  0  0  0  0  1  0  0  0  0  0  0
  192.4330  175.6320  146.8920 N   0  0  0  0  0  2  0  0  0  0  0  0
  195.8680  174.6500  143.5760 C   0  0  0  0  0  2  0  0  0  0  0  0
  197.0830  173.8080  143.9460 C   0  0  0  0  0  2  0  0  0  0  0  0
  196.7200  172.3360  143.9810 C   0  0  0  0  0  2  0  0  0  0  0  0
  197.2790  171.6820  145.2320 C   0  0  0  0  0  2  0  0  0  0  0  0
  196.2280  171.2810  146.0550 O   0  0  0  0  0  0  0  0  0  0  0  0
  196.4900  169.9380  146.3280 C   0  0  0  0  0  1  0  0  0  0  0  0
  187.8680  177.6160  144.7380 C   0  0  0  0  0  2  0  0  0  0  0  0
  186.9650  176.7710  144.0810 O   0  0  0  0  0  0  0  0  0  0  0  0
  186.0110  177.6270  143.5180 C   0  0  2  0  0  3  0  0  0  0  0  0
  186.9890  177.1560  141.2790 C   0  0  1  0  0  3  0  0  0  0  0  0
  186.5580  178.2470  142.2410 C   0  0  1  0  0  3  0  0  0  0  0  0
  185.6780  177.8670  141.0630 C   0  0  1  0  0  3  0  0  0  0  0  0
  186.5690  177.5530  139.8760 C   0  0  0  0  0  2  0  0  0  0  0  0
  185.6200  178.7170  144.5140 C   0  0  0  0  0  3  0  0  0  0  0  0
  185.4830  179.9380  143.8550 O   0  0  0  0  0  1  0  0  0  0  0  0
  184.4200  178.3950  145.1540 O   0  0  0  0  0  1  0  0  0  0  0  0
  1 17  2  0  0  0  0
  1 10  1  0  0  0  0
  3 13  1  0  0  0  0
  4 10  1  0  0  0  0
  4 18  1  1  0  0  0
  4  6  1  0  0  0  0
  5  8  2  0  0  0  0
  6 12  2  0  0  0  0
  7  5  1  0  0  0  0
  8 17  1  0  0  0  0
  9  3  1  1  0  0  0
  9 12  1  0  0  0  0
  9 11  1  0  0  0  0
 10  3  2  0  0  0  0
 11 34  1  6  0  0  0
 11  2  1  0  0  0  0
 12  2  1  0  0  0  0
 14  1  1  0  0  0  0
 15 13  2  0  0  0  0
 16  7  1  0  0  0  0
 16 14  1  0  0  0  0
 17 15  1  0  0  0  0
 18 19  1  0  0  0  0
 19 20  1  0  0  0  0
 20 28  1  6  0  0  0
 20 21  1  0  0  0  0
 22 21  1  0  0  0  0
 22 23  2  0  0  0  0
 23 27  1  0  0  0  0
 24 25  2  0  0  0  0
 24 26  1  0  0  0  0
 27 24  1  0  0  0  0
 28 29  1  0  0  0  0
 29 30  1  0  0  0  0
 30 31  1  0  0  0  0
 31 32  1  0  0  0  0
 32 33  1  0  0  0  0
 35 34  1  0  0  0  0
 36 35  1  1  0  0  0
 36 41  1  0  0  0  0
 37 40  1  6  0  0  0
 37 38  1  0  0  0  0
 38 36  1  1  0  0  0
 39 40  1  6  0  0  0
 39 37  1  0  0  0  0
 39 38  1  0  0  0  0
 41 43  1  0  0  0  0
 42 41  1  0  0  0  0
M  END
>  <MODEL>
9

>  <REMARK>
 VINA RESULT:      -6.2      2.811      9.271
  Name = 
  16 active torsions:
  status: ('A' for Active; 'I' for Inactive)
    1  A    between atoms: C_1  and  C_11
    2  A    between atoms: C_1  and  O_30
    3  A    between atoms: O_2  and  C_3
    4  A    between atoms: O_2  and  C_4
    5  A    between atoms: C_3  and  C_27
    6  A    between atoms: C_4  and  C_15
    7  A    between atoms: C_4  and  C_23
    8  A    between atoms: C_6  and  C_25
    9  A    between atoms: C_6  and  C_43
   10  A    between atoms: C_7  and  C_20
   11  A    between atoms: C_7  and  C_25
   12  A    between atoms: O_17  and  C_22
   13  A    between atoms: C_22  and  C_39
   14  A    between atoms: C_25  and  O_30
   15  A    between atoms: N_37  and  N_42
   16  A    between atoms: C_39  and  C_43
                            x       y       z     vdW  Elec       q    Type
                         _______ _______ _______ _____ _____    ______ ____

>  <TORSDO>
F 16

$$$$
