=
 OpenBabel11042415373D

 39 43  0  0  1  0  0  0  0  0999 V2000
  193.4440  172.8350  144.9000 C   0  0  0  0  0  0  0  0  0  0  0  0
  187.8450  176.0040  146.5010 C   0  0  0  0  0  2  0  0  0  0  0  0
  192.4190  174.6280  145.9340 C   0  0  0  0  0  0  0  0  0  0  0  0
  191.4370  176.7040  147.1400 C   0  0  0  0  0  3  0  0  0  0  0  0
  192.1600  173.4670  145.2130 C   0  0  0  0  0  0  0  0  0  0  0  0
  195.0600  171.2780  144.0430 C   0  0  0  0  0  3  0  0  0  0  0  0
  196.0970  172.0660  144.5810 C   0  0  0  0  0  3  0  0  0  0  0  0
  194.4630  173.6110  145.4300 C   0  0  0  0  0  0  0  0  0  0  0  0
  189.1730  176.0500  146.6120 C   0  0  0  0  0  0  0  0  0  0  0  0
  196.8230  174.0250  145.8140 O   0  0  0  0  0  1  0  0  0  0  0  0
  195.8030  173.2470  145.2830 C   0  0  0  0  0  0  0  0  0  0  0  0
  193.8630  174.7640  146.0990 C   0  0  0  0  0  0  0  0  0  0  0  0
  189.7810  173.8980  145.3390 C   0  0  0  0  0  3  0  0  0  0  0  0
  191.3700  175.4340  146.3640 C   0  0  0  0  0  0  0  0  0  0  0  0
  190.8450  173.0740  144.9020 C   0  0  0  0  0  0  0  0  0  0  0  0
  189.9630  177.1230  147.3060 C   0  0  0  0  0  2  0  0  0  0  0  0
  193.7160  171.6590  144.2000 C   0  0  0  0  0  3  0  0  0  0  0  0
  190.0780  175.0670  146.0660 C   0  0  0  0  0  0  0  0  0  0  0  0
  194.4700  175.6910  146.6960 O   0  0  0  0  0  0  0  0  0  0  0  0
  186.9420  177.0400  147.0900 C   0  0  0  0  0  2  0  0  0  0  0  0
  186.7720  178.3350  145.0990 O   0  0  0  0  0  0  0  0  0  0  0  0
  186.1630  177.7280  146.0210 C   0  0  0  0  0  0  0  0  0  0  0  0
  183.9680  178.7860  145.6880 C   0  0  0  0  0  1  0  0  0  0  0  0
  184.7700  177.6690  146.0400 O   0  0  0  0  0  0  0  0  0  0  0  0
  190.6040  171.8770  144.1550 N   0  0  0  0  0  2  0  0  0  0  0  0
  190.0920  171.8700  142.7890 C   0  0  2  0  0  3  0  0  0  0  0  0
  191.2310  172.1710  141.8260 C   0  0  0  0  0  1  0  0  0  0  0  0
  188.9880  172.9150  142.6440 C   0  0  2  0  0  3  0  0  0  0  0  0
  187.7720  172.2870  142.3590 O   0  0  0  0  0  1  0  0  0  0  0  0
  189.3200  173.8830  141.5200 C   0  0  0  0  0  2  0  0  0  0  0  0
  189.0210  175.2130  141.9260 O   0  0  0  0  0  0  0  0  0  0  0  0
  192.2830  176.6480  142.9850 C   0  0  0  0  0  0  0  0  0  0  0  0
  191.8490  177.8080  143.6340 C   0  0  0  0  0  3  0  0  0  0  0  0
  191.3510  175.7780  142.4130 C   0  0  0  0  0  3  0  0  0  0  0  0
  189.5520  177.2260  143.1390 C   0  0  0  0  0  3  0  0  0  0  0  0
  189.9770  176.0630  142.4880 C   0  0  0  0  0  0  0  0  0  0  0  0
  190.4840  178.0970  143.7110 C   0  0  0  0  0  3  0  0  0  0  0  0
  194.8160  176.1120  142.8430 N   0  0  0  0  0  0  0  0  0  0  0  0
  193.6860  176.3510  142.9060 C   0  0  0  0  0  0  0  0  0  0  0  0
  1  5  1  0  0  0  0
  1  8  1  0  0  0  0
  2  9  1  0  0  0  0
  2 20  1  0  0  0  0
  3 12  1  0  0  0  0
  3 14  1  0  0  0  0
  4 16  1  0  0  0  0
  5  3  2  0  0  0  0
  6 17  1  0  0  0  0
  6  7  2  0  0  0  0
  7 11  1  0  0  0  0
  8 12  1  0  0  0  0
  9 16  1  0  0  0  0
 11  8  2  0  0  0  0
 11 10  1  0  0  0  0
 12 19  2  0  0  0  0
 13 18  1  0  0  0  0
 14  4  2  0  0  0  0
 15  5  1  0  0  0  0
 15 13  2  0  0  0  0
 17  1  2  0  0  0  0
 18 14  1  0  0  0  0
 18  9  2  0  0  0  0
 21 22  2  0  0  0  0
 22 24  1  0  0  0  0
 22 20  1  0  0  0  0
 23 24  1  0  0  0  0
 25 15  1  0  0  0  0
 26 27  1  6  0  0  0
 26 25  1  0  0  0  0
 28 29  1  6  0  0  0
 28 26  1  0  0  0  0
 30 31  1  0  0  0  0
 30 28  1  0  0  0  0
 31 36  1  0  0  0  0
 32 33  1  0  0  0  0
 33 37  2  0  0  0  0
 34 36  1  0  0  0  0
 34 32  2  0  0  0  0
 35 37  1  0  0  0  0
 36 35  2  0  0  0  0
 38 39  3  0  0  0  0
 39 32  1  0  0  0  0
M  END
>  <MODEL>
1

>  <REMARK>
 VINA RESULT:      -7.1      0.000      0.000
  Name = 
  10 active torsions:
  status: ('A' for Active; 'I' for Inactive)
    1  A    between atoms: C_1  and  C_8
    2  A    between atoms: C_6  and  C_26
    3  A    between atoms: C_6  and  C_30
    4  A    between atoms: C_9  and  C_12
    5  A    between atoms: C_12  and  C_33
    6  A    between atoms: O_14  and  C_20
    7  A    between atoms: O_14  and  C_30
    8  A    between atoms: C_26  and  N_34
    9  A    between atoms: C_31  and  N_34
   10  A    between atoms: C_33  and  O_37
                            x       y       z     vdW  Elec       q    Type
                         _______ _______ _______ _____ _____    ______ ____

>  <TORSDO>
F 10

$$$$
=
 OpenBabel11042415373D

 39 43  0  0  1  0  0  0  0  0999 V2000
  193.3000  172.8190  144.8840 C   0  0  0  0  0  0  0  0  0  0  0  0
  187.8340  176.1120  146.6850 C   0  0  0  0  0  2  0  0  0  0  0  0
  192.3540  174.6560  145.9160 C   0  0  0  0  0  0  0  0  0  0  0  0
  191.4640  176.7800  147.1110 C   0  0  0  0  0  3  0  0  0  0  0  0
  192.0420  173.4780  145.2450 C   0  0  0  0  0  0  0  0  0  0  0  0
  194.8470  171.2160  143.9890 C   0  0  0  0  0  3  0  0  0  0  0  0
  195.9210  172.0050  144.4470 C   0  0  0  0  0  3  0  0  0  0  0  0
  194.3550  173.5970  145.3350 C   0  0  0  0  0  0  0  0  0  0  0  0
  189.1670  176.1430  146.7240 C   0  0  0  0  0  0  0  0  0  0  0  0
  196.7370  173.9880  145.5810 O   0  0  0  0  0  1  0  0  0  0  0  0
  195.6800  173.2090  145.1280 C   0  0  0  0  0  0  0  0  0  0  0  0
  193.8060  174.7770  146.0000 C   0  0  0  0  0  0  0  0  0  0  0  0
  189.6790  173.9470  145.4840 C   0  0  0  0  0  3  0  0  0  0  0  0
  191.3390  175.4890  146.3780 C   0  0  0  0  0  0  0  0  0  0  0  0
  190.7080  173.0950  145.0160 C   0  0  0  0  0  0  0  0  0  0  0  0
  190.0060  177.2240  147.3430 C   0  0  0  0  0  2  0  0  0  0  0  0
  193.5180  171.6200  144.2050 C   0  0  0  0  0  3  0  0  0  0  0  0
  190.0290  175.1310  146.1600 C   0  0  0  0  0  0  0  0  0  0  0  0
  194.4560  175.7120  146.5370 O   0  0  0  0  0  0  0  0  0  0  0  0
  186.9770  177.1780  147.2900 C   0  0  0  0  0  2  0  0  0  0  0  0
  185.2710  176.3650  145.8420 O   0  0  0  0  0  0  0  0  0  0  0  0
  185.7090  177.3330  146.5210 C   0  0  0  0  0  0  0  0  0  0  0  0
  183.9870  178.8600  145.6540 C   0  0  0  0  0  1  0  0  0  0  0  0
  185.0100  178.5370  146.5840 O   0  0  0  0  0  0  0  0  0  0  0  0
  190.4120  171.8810  144.3190 N   0  0  0  0  0  2  0  0  0  0  0  0
  189.7590  171.8400  143.0160 C   0  0  2  0  0  3  0  0  0  0  0  0
  190.7010  171.2030  142.0030 C   0  0  0  0  0  1  0  0  0  0  0  0
  189.3900  173.2540  142.5750 C   0  0  2  0  0  3  0  0  0  0  0  0
  188.0540  173.2920  142.1660 O   0  0  0  0  0  1  0  0  0  0  0  0
  190.2740  173.6980  141.4220 C   0  0  0  0  0  2  0  0  0  0  0  0
  191.2700  174.5970  141.8950 O   0  0  0  0  0  0  0  0  0  0  0  0
  189.3490  177.4820  143.2390 C   0  0  0  0  0  0  0  0  0  0  0  0
  190.3910  178.2650  143.7440 C   0  0  0  0  0  3  0  0  0  0  0  0
  189.6300  176.2600  142.6220 C   0  0  0  0  0  3  0  0  0  0  0  0
  191.9930  176.6030  143.0140 C   0  0  0  0  0  3  0  0  0  0  0  0
  190.9570  175.8130  142.5060 C   0  0  0  0  0  0  0  0  0  0  0  0
  191.7130  177.8260  143.6320 C   0  0  0  0  0  3  0  0  0  0  0  0
  186.8960  178.2970  143.4480 N   0  0  0  0  0  0  0  0  0  0  0  0
  187.9900  177.9330  143.3550 C   0  0  0  0  0  0  0  0  0  0  0  0
  1  5  1  0  0  0  0
  1  8  1  0  0  0  0
  2  9  1  0  0  0  0
  2 20  1  0  0  0  0
  3 12  1  0  0  0  0
  3 14  1  0  0  0  0
  4 16  1  0  0  0  0
  5  3  2  0  0  0  0
  6 17  1  0  0  0  0
  6  7  2  0  0  0  0
  7 11  1  0  0  0  0
  8 12  1  0  0  0  0
  9 16  1  0  0  0  0
 11  8  2  0  0  0  0
 11 10  1  0  0  0  0
 12 19  2  0  0  0  0
 13 18  1  0  0  0  0
 14  4  2  0  0  0  0
 15  5  1  0  0  0  0
 15 13  2  0  0  0  0
 17  1  2  0  0  0  0
 18 14  1  0  0  0  0
 18  9  2  0  0  0  0
 21 22  2  0  0  0  0
 22 24  1  0  0  0  0
 22 20  1  0  0  0  0
 23 24  1  0  0  0  0
 25 15  1  0  0  0  0
 26 27  1  6  0  0  0
 26 25  1  0  0  0  0
 28 29  1  6  0  0  0
 28 26  1  0  0  0  0
 30 31  1  0  0  0  0
 30 28  1  0  0  0  0
 31 36  1  0  0  0  0
 32 39  1  0  0  0  0
 32 33  1  0  0  0  0
 34 32  2  0  0  0  0
 35 37  1  0  0  0  0
 36 34  1  0  0  0  0
 36 35  2  0  0  0  0
 37 33  2  0  0  0  0
 39 38  3  0  0  0  0
M  END
>  <MODEL>
2

>  <REMARK>
 VINA RESULT:      -6.8      1.365      1.930
  Name = 
  10 active torsions:
  status: ('A' for Active; 'I' for Inactive)
    1  A    between atoms: C_1  and  C_8
    2  A    between atoms: C_6  and  C_26
    3  A    between atoms: C_6  and  C_30
    4  A    between atoms: C_9  and  C_12
    5  A    between atoms: C_12  and  C_33
    6  A    between atoms: O_14  and  C_20
    7  A    between atoms: O_14  and  C_30
    8  A    between atoms: C_26  and  N_34
    9  A    between atoms: C_31  and  N_34
   10  A    between atoms: C_33  and  O_37
                            x       y       z     vdW  Elec       q    Type
                         _______ _______ _______ _____ _____    ______ ____

>  <TORSDO>
F 10

$$$$
=
 OpenBabel11042415373D

 39 43  0  0  1  0  0  0  0  0999 V2000
  192.9620  173.0410  145.0470 C   0  0  0  0  0  0  0  0  0  0  0  0
  187.4550  176.4280  146.5180 C   0  0  0  0  0  2  0  0  0  0  0  0
  191.9880  174.9030  146.0060 C   0  0  0  0  0  0  0  0  0  0  0  0
  191.0670  177.0540  147.1270 C   0  0  0  0  0  3  0  0  0  0  0  0
  191.6970  173.7210  145.3330 C   0  0  0  0  0  0  0  0  0  0  0  0
  194.5320  171.4060  144.2540 C   0  0  0  0  0  3  0  0  0  0  0  0
  195.5920  172.1870  144.7590 C   0  0  0  0  0  3  0  0  0  0  0  0
  194.0030  173.8100  145.5440 C   0  0  0  0  0  0  0  0  0  0  0  0
  188.7850  176.4420  146.6260 C   0  0  0  0  0  0  0  0  0  0  0  0
  196.3740  174.1730  145.9100 O   0  0  0  0  0  1  0  0  0  0  0  0
  195.3310  173.4030  145.4120 C   0  0  0  0  0  0  0  0  0  0  0  0
  193.4360  175.0060  146.1650 C   0  0  0  0  0  0  0  0  0  0  0  0
  189.3300  174.2230  145.4420 C   0  0  0  0  0  3  0  0  0  0  0  0
  190.9630  175.7550  146.4030 C   0  0  0  0  0  0  0  0  0  0  0  0
  190.3710  173.3530  145.0390 C   0  0  0  0  0  0  0  0  0  0  0  0
  189.6040  177.5190  147.2750 C   0  0  0  0  0  2  0  0  0  0  0  0
  193.2000  171.8300  144.3950 C   0  0  0  0  0  3  0  0  0  0  0  0
  189.6610  175.4120  146.1210 C   0  0  0  0  0  0  0  0  0  0  0  0
  194.0700  175.9390  146.7240 O   0  0  0  0  0  0  0  0  0  0  0  0
  186.5830  177.5120  147.0640 C   0  0  0  0  0  2  0  0  0  0  0  0
  184.4660  177.8570  146.0300 O   0  0  0  0  0  0  0  0  0  0  0  0
  185.7080  178.0720  145.9940 C   0  0  0  0  0  0  0  0  0  0  0  0
  185.4860  179.7230  144.1850 C   0  0  0  0  0  1  0  0  0  0  0  0
  186.2700  178.8480  144.9820 O   0  0  0  0  0  0  0  0  0  0  0  0
  190.0950  172.1330  144.3410 N   0  0  0  0  0  2  0  0  0  0  0  0
  189.4490  172.0820  143.0350 C   0  0  2  0  0  3  0  0  0  0  0  0
  190.2860  171.2250  142.0960 C   0  0  0  0  0  1  0  0  0  0  0  0
  189.3030  173.4930  142.4720 C   0  0  2  0  0  3  0  0  0  0  0  0
  188.0020  173.6850  141.9980 O   0  0  0  0  0  1  0  0  0  0  0  0
  190.2840  173.7140  141.3330 C   0  0  0  0  0  2  0  0  0  0  0  0
  191.2000  174.7460  141.6770 O   0  0  0  0  0  0  0  0  0  0  0  0
  194.8300  175.2370  142.3120 C   0  0  0  0  0  0  0  0  0  0  0  0
  195.3530  174.1190  141.6570 C   0  0  0  0  0  3  0  0  0  0  0  0
  193.4490  175.4560  142.3250 C   0  0  0  0  0  3  0  0  0  0  0  0
  193.1160  173.4390  141.0290 C   0  0  0  0  0  3  0  0  0  0  0  0
  192.5830  174.5560  141.6820 C   0  0  0  0  0  0  0  0  0  0  0  0
  194.4970  173.2200  141.0150 C   0  0  0  0  0  3  0  0  0  0  0  0
  196.4190  176.9050  143.5020 N   0  0  0  0  0  0  0  0  0  0  0  0
  195.7090  176.1610  142.9710 C   0  0  0  0  0  0  0  0  0  0  0  0
  1  5  1  0  0  0  0
  1  8  1  0  0  0  0
  2  9  1  0  0  0  0
  2 20  1  0  0  0  0
  3 12  1  0  0  0  0
  3 14  1  0  0  0  0
  4 16  1  0  0  0  0
  5  3  2  0  0  0  0
  6 17  1  0  0  0  0
  6  7  2  0  0  0  0
  7 11  1  0  0  0  0
  8 12  1  0  0  0  0
  9 16  1  0  0  0  0
 11  8  2  0  0  0  0
 11 10  1  0  0  0  0
 12 19  2  0  0  0  0
 13 18  1  0  0  0  0
 14  4  2  0  0  0  0
 15  5  1  0  0  0  0
 15 13  2  0  0  0  0
 17  1  2  0  0  0  0
 18 14  1  0  0  0  0
 18  9  2  0  0  0  0
 22 21  2  0  0  0  0
 22 20  1  0  0  0  0
 23 24  1  0  0  0  0
 24 22  1  0  0  0  0
 25 15  1  0  0  0  0
 26 27  1  6  0  0  0
 26 25  1  0  0  0  0
 28 29  1  6  0  0  0
 28 26  1  0  0  0  0
 30 31  1  0  0  0  0
 30 28  1  0  0  0  0
 31 36  1  0  0  0  0
 32 34  1  0  0  0  0
 32 39  1  0  0  0  0
 33 32  2  0  0  0  0
 35 36  1  0  0  0  0
 36 34  2  0  0  0  0
 37 35  2  0  0  0  0
 37 33  1  0  0  0  0
 39 38  3  0  0  0  0
M  END
>  <MODEL>
3

>  <REMARK>
 VINA RESULT:      -6.6      1.374      2.109
  Name = 
  10 active torsions:
  status: ('A' for Active; 'I' for Inactive)
    1  A    between atoms: C_1  and  C_8
    2  A    between atoms: C_6  and  C_26
    3  A    between atoms: C_6  and  C_30
    4  A    between atoms: C_9  and  C_12
    5  A    between atoms: C_12  and  C_33
    6  A    between atoms: O_14  and  C_20
    7  A    between atoms: O_14  and  C_30
    8  A    between atoms: C_26  and  N_34
    9  A    between atoms: C_31  and  N_34
   10  A    between atoms: C_33  and  O_37
                            x       y       z     vdW  Elec       q    Type
                         _______ _______ _______ _____ _____    ______ ____

>  <TORSDO>
F 10

$$$$
=
 OpenBabel11042415373D

 39 43  0  0  1  0  0  0  0  0999 V2000
  187.5290  176.8680  144.0060 C   0  0  0  0  0  0  0  0  0  0  0  0
  191.5320  171.5820  144.0420 C   0  0  0  0  0  2  0  0  0  0  0  0
  188.6230  175.2140  142.8220 C   0  0  0  0  0  0  0  0  0  0  0  0
  189.7790  173.4290  141.3360 C   0  0  0  0  0  3  0  0  0  0  0  0
  188.4170  175.7070  144.1060 C   0  0  2  0  0  3  0  0  0  0  0  0
  186.1840  178.7580  144.6270 C   0  0  0  0  0  3  0  0  0  0  0  0
  185.8550  178.9630  143.2720 C   0  0  0  0  0  3  0  0  0  0  0  0
  187.2060  177.0680  142.6720 C   0  0  0  0  0  0  0  0  0  0  0  0
  190.8170  172.3820  143.2480 C   0  0  0  0  0  0  0  0  0  0  0  0
  186.0450  178.3120  140.9430 O   0  0  0  0  0  1  0  0  0  0  0  0
  186.3680  178.1130  142.2790 C   0  0  0  0  0  0  0  0  0  0  0  0
  187.8770  176.0410  141.8780 C   0  0  0  0  0  0  0  0  0  0  0  0
  189.8430  173.9760  145.0180 C   0  0  0  0  0  3  0  0  0  0  0  0
  189.4360  174.1030  142.6200 C   0  0  0  0  0  0  0  0  0  0  0  0
  189.0140  175.1040  145.2280 C   0  0  0  0  0  0  0  0  0  0  0  0
  190.7100  172.2730  141.7550 C   0  0  0  0  0  3  0  0  0  0  0  0
  187.0300  177.7020  145.0070 C   0  0  0  0  0  3  0  0  0  0  0  0
  190.0300  173.5030  143.7050 C   0  0  0  0  0  0  0  0  0  0  0  0
  187.8240  175.8980  140.6280 O   0  0  0  0  0  0  0  0  0  0  0  0
  192.3270  170.4260  143.5280 C   0  0  0  0  0  2  0  0  0  0  0  0
  193.8550  168.9080  144.5450 O   0  0  0  0  0  0  0  0  0  0  0  0
  193.4410  170.0970  144.4630 C   0  0  0  0  0  0  0  0  0  0  0  0
  195.4350  171.3090  145.2400 C   0  0  0  0  0  1  0  0  0  0  0  0
  194.0300  171.1120  145.2160 O   0  0  0  0  0  0  0  0  0  0  0  0
  188.7910  175.6320  146.5400 N   0  0  0  0  0  2  0  0  0  0  0  0
  189.7970  176.3740  147.2900 C   0  0  2  0  0  3  0  0  0  0  0  0
  190.0090  177.7330  146.6380 C   0  0  0  0  0  1  0  0  0  0  0  0
  191.1080  175.5910  147.3160 C   0  0  2  0  0  3  0  0  0  0  0  0
  191.3110  175.0440  148.5850 O   0  0  0  0  0  1  0  0  0  0  0  0
  192.2750  176.5020  146.9750 C   0  0  0  0  0  2  0  0  0  0  0  0
  193.2520  175.7790  146.2350 O   0  0  0  0  0  0  0  0  0  0  0  0
  193.7010  174.3680  142.8250 C   0  0  0  0  0  0  0  0  0  0  0  0
  192.9630  175.2870  142.0740 C   0  0  0  0  0  3  0  0  0  0  0  0
  193.8030  174.5220  144.2110 C   0  0  0  0  0  3  0  0  0  0  0  0
  192.4320  176.5130  144.0930 C   0  0  0  0  0  3  0  0  0  0  0  0
  193.1680  175.5980  144.8530 C   0  0  0  0  0  0  0  0  0  0  0  0
  192.3290  176.3600  142.7070 C   0  0  0  0  0  3  0  0  0  0  0  0
  194.8760  172.3780  141.6500 N   0  0  0  0  0  0  0  0  0  0  0  0
  194.3520  173.2660  142.1750 C   0  0  0  0  0  0  0  0  0  0  0  0
  1  5  1  0  0  0  0
  1 17  1  0  0  0  0
  4 16  2  0  0  0  0
  4 14  1  0  0  0  0
  5  3  1  1  0  0  0
  5 15  1  0  0  0  0
  6 17  2  0  0  0  0
  7  6  1  0  0  0  0
  8  1  2  0  0  0  0
  9 18  2  0  0  0  0
  9  2  1  0  0  0  0
 10 11  1  0  0  0  0
 11  8  1  0  0  0  0
 11  7  2  0  0  0  0
 12  8  1  0  0  0  0
 12  3  1  0  0  0  0
 13 15  2  0  0  0  0
 14  3  2  0  0  0  0
 14 18  1  0  0  0  0
 15 25  1  0  0  0  0
 16  9  1  0  0  0  0
 18 13  1  0  0  0  0
 19 12  2  0  0  0  0
 20  2  1  0  0  0  0
 20 22  1  0  0  0  0
 22 21  2  0  0  0  0
 22 24  1  0  0  0  0
 24 23  1  0  0  0  0
 25 26  1  0  0  0  0
 26 27  1  6  0  0  0
 26 28  1  0  0  0  0
 28 29  1  1  0  0  0
 30 28  1  0  0  0  0
 31 30  1  0  0  0  0
 32 34  1  0  0  0  0
 33 37  1  0  0  0  0
 33 32  2  0  0  0  0
 34 36  2  0  0  0  0
 35 36  1  0  0  0  0
 36 31  1  0  0  0  0
 37 35  2  0  0  0  0
 38 39  3  0  0  0  0
 39 32  1  0  0  0  0
M  END
>  <MODEL>
4

>  <REMARK>
 VINA RESULT:      -6.5      2.370      7.505
  Name = 
  10 active torsions:
  status: ('A' for Active; 'I' for Inactive)
    1  A    between atoms: C_1  and  C_8
    2  A    between atoms: C_6  and  C_26
    3  A    between atoms: C_6  and  C_30
    4  A    between atoms: C_9  and  C_12
    5  A    between atoms: C_12  and  C_33
    6  A    between atoms: O_14  and  C_20
    7  A    between atoms: O_14  and  C_30
    8  A    between atoms: C_26  and  N_34
    9  A    between atoms: C_31  and  N_34
   10  A    between atoms: C_33  and  O_37
                            x       y       z     vdW  Elec       q    Type
                         _______ _______ _______ _____ _____    ______ ____

>  <TORSDO>
F 10

$$$$
=
 OpenBabel11042415373D

 39 43  0  0  1  0  0  0  0  0999 V2000
  193.3160  172.8870  144.8440 C   0  0  0  0  0  0  0  0  0  0  0  0
  187.8380  176.1540  146.6530 C   0  0  0  0  0  2  0  0  0  0  0  0
  192.3620  174.7030  145.9060 C   0  0  0  0  0  0  0  0  0  0  0  0
  191.4640  176.8040  147.1350 C   0  0  0  0  0  3  0  0  0  0  0  0
  192.0560  173.5410  145.2060 C   0  0  0  0  0  0  0  0  0  0  0  0
  194.8710  171.2990  143.9330 C   0  0  0  0  0  3  0  0  0  0  0  0
  195.9410  172.0760  144.4210 C   0  0  0  0  0  3  0  0  0  0  0  0
  194.3680  173.6520  145.3250 C   0  0  0  0  0  0  0  0  0  0  0  0
  189.1700  176.1800  146.7080 C   0  0  0  0  0  0  0  0  0  0  0  0
  196.7480  174.0320  145.6060 O   0  0  0  0  0  1  0  0  0  0  0  0
  195.6950  173.2660  145.1250 C   0  0  0  0  0  0  0  0  0  0  0  0
  193.8140  174.8190  146.0080 C   0  0  0  0  0  0  0  0  0  0  0  0
  189.6910  174.0100  145.4280 C   0  0  0  0  0  3  0  0  0  0  0  0
  191.3450  175.5290  146.3730 C   0  0  0  0  0  0  0  0  0  0  0  0
  190.7240  173.1660  144.9530 C   0  0  0  0  0  0  0  0  0  0  0  0
  190.0040  177.2460  147.3590 C   0  0  0  0  0  2  0  0  0  0  0  0
  193.5410  171.7020  144.1430 C   0  0  0  0  0  3  0  0  0  0  0  0
  190.0360  175.1790  146.1320 C   0  0  0  0  0  0  0  0  0  0  0  0
  194.4600  175.7410  146.5720 O   0  0  0  0  0  0  0  0  0  0  0  0
  186.9760  177.2080  147.2710 C   0  0  0  0  0  2  0  0  0  0  0  0
  185.3390  176.4160  145.7340 O   0  0  0  0  0  0  0  0  0  0  0  0
  185.6790  177.3210  146.5440 C   0  0  0  0  0  0  0  0  0  0  0  0
  184.0580  178.9970  145.7620 C   0  0  0  0  0  1  0  0  0  0  0  0
  184.8470  178.4120  146.7870 O   0  0  0  0  0  0  0  0  0  0  0  0
  190.4330  171.9680  144.2270 N   0  0  0  0  0  2  0  0  0  0  0  0
  189.9450  171.9580  142.8530 C   0  0  2  0  0  3  0  0  0  0  0  0
  191.1250  172.0690  141.9000 C   0  0  0  0  0  1  0  0  0  0  0  0
  188.9800  173.1210  142.6370 C   0  0  2  0  0  3  0  0  0  0  0  0
  187.8160  172.6660  142.0120 O   0  0  0  0  0  1  0  0  0  0  0  0
  189.6250  174.1890  141.7670 C   0  0  0  0  0  2  0  0  0  0  0  0
  188.6230  175.0410  141.2270 O   0  0  0  0  0  0  0  0  0  0  0  0
  186.2400  177.5880  142.5160 C   0  0  0  0  0  0  0  0  0  0  0  0
  187.0730  178.2920  143.3900 C   0  0  0  0  0  3  0  0  0  0  0  0
  186.7450  176.5050  141.7910 C   0  0  0  0  0  3  0  0  0  0  0  0
  188.9150  176.8290  142.8150 C   0  0  0  0  0  3  0  0  0  0  0  0
  188.0890  176.1190  141.9370 C   0  0  0  0  0  0  0  0  0  0  0  0
  188.4100  177.9130  143.5400 C   0  0  0  0  0  3  0  0  0  0  0  0
  183.7600  178.2900  142.2370 N   0  0  0  0  0  0  0  0  0  0  0  0
  184.8670  177.9770  142.3620 C   0  0  0  0  0  0  0  0  0  0  0  0
  1  5  1  0  0  0  0
  1  8  1  0  0  0  0
  2  9  1  0  0  0  0
  2 20  1  0  0  0  0
  3 12  1  0  0  0  0
  3 14  1  0  0  0  0
  4 16  1  0  0  0  0
  5  3  2  0  0  0  0
  6 17  1  0  0  0  0
  6  7  2  0  0  0  0
  7 11  1  0  0  0  0
  8 12  1  0  0  0  0
  9 16  1  0  0  0  0
 11  8  2  0  0  0  0
 11 10  1  0  0  0  0
 12 19  2  0  0  0  0
 13 18  1  0  0  0  0
 14  4  2  0  0  0  0
 15  5  1  0  0  0  0
 15 13  2  0  0  0  0
 17  1  2  0  0  0  0
 18 14  1  0  0  0  0
 18  9  2  0  0  0  0
 21 22  2  0  0  0  0
 22 24  1  0  0  0  0
 22 20  1  0  0  0  0
 23 24  1  0  0  0  0
 25 15  1  0  0  0  0
 26 27  1  6  0  0  0
 26 25  1  0  0  0  0
 28 29  1  6  0  0  0
 28 26  1  0  0  0  0
 30 28  1  0  0  0  0
 31 30  1  0  0  0  0
 31 36  1  0  0  0  0
 32 33  1  0  0  0  0
 33 37  2  0  0  0  0
 34 36  1  0  0  0  0
 34 32  2  0  0  0  0
 35 37  1  0  0  0  0
 36 35  2  0  0  0  0
 38 39  3  0  0  0  0
 39 32  1  0  0  0  0
M  END
>  <MODEL>
5

>  <REMARK>
 VINA RESULT:      -6.4      1.931      2.818
  Name = 
  10 active torsions:
  status: ('A' for Active; 'I' for Inactive)
    1  A    between atoms: C_1  and  C_8
    2  A    between atoms: C_6  and  C_26
    3  A    between atoms: C_6  and  C_30
    4  A    between atoms: C_9  and  C_12
    5  A    between atoms: C_12  and  C_33
    6  A    between atoms: O_14  and  C_20
    7  A    between atoms: O_14  and  C_30
    8  A    between atoms: C_26  and  N_34
    9  A    between atoms: C_31  and  N_34
   10  A    between atoms: C_33  and  O_37
                            x       y       z     vdW  Elec       q    Type
                         _______ _______ _______ _____ _____    ______ ____

>  <TORSDO>
F 10

$$$$
=
 OpenBabel11042415373D

 39 43  0  0  1  0  0  0  0  0999 V2000
  186.6220  177.7510  144.1240 C   0  0  0  0  0  0  0  0  0  0  0  0
  192.8530  175.7400  145.1650 C   0  0  0  0  0  2  0  0  0  0  0  0
  188.3500  177.3730  145.6080 C   0  0  0  0  0  0  0  0  0  0  0  0
  190.1790  177.0050  147.4120 C   0  0  0  0  0  3  0  0  0  0  0  0
  188.0060  177.2930  144.2630 C   0  0  0  0  0  0  0  0  0  0  0  0
  184.5110  178.3340  143.1370 C   0  0  0  0  0  3  0  0  0  0  0  0
  184.0210  178.6910  144.4100 C   0  0  0  0  0  3  0  0  0  0  0  0
  186.1410  178.1020  145.3760 C   0  0  0  0  0  0  0  0  0  0  0  0
  191.7630  176.2130  145.7700 C   0  0  0  0  0  0  0  0  0  0  0  0
  184.3590  178.9270  146.8000 O   0  0  0  0  0  1  0  0  0  0  0  0
  184.8390  178.5760  145.5450 C   0  0  0  0  0  0  0  0  0  0  0  0
  187.2030  177.8800  146.3550 C   0  0  0  0  0  0  0  0  0  0  0  0
  190.2130  176.4500  143.7310 C   0  0  0  0  0  3  0  0  0  0  0  0
  189.6210  176.9950  146.0300 C   0  0  0  0  0  0  0  0  0  0  0  0
  188.9220  176.8360  143.2970 C   0  0  0  0  0  0  0  0  0  0  0  0
  191.6170  176.4780  147.2410 C   0  0  0  0  0  2  0  0  0  0  0  0
  185.8250  177.8580  142.9830 C   0  0  0  0  0  3  0  0  0  0  0  0
  190.5280  176.5430  145.1000 C   0  0  0  0  0  0  0  0  0  0  0  0
  187.1410  178.0840  147.5960 O   0  0  0  0  0  0  0  0  0  0  0  0
  194.1170  175.4200  145.8970 C   0  0  0  0  0  2  0  0  0  0  0  0
  196.3510  174.9210  145.2420 O   0  0  0  0  0  0  0  0  0  0  0  0
  195.2970  175.5700  144.9990 C   0  0  0  0  0  0  0  0  0  0  0  0
  195.3140  175.9050  142.5620 C   0  0  0  0  0  1  0  0  0  0  0  0
  195.2140  176.4060  143.8870 O   0  0  0  0  0  0  0  0  0  0  0  0
  188.5430  176.7590  141.9190 N   0  0  0  0  0  2  0  0  0  0  0  0
  187.8900  175.5980  141.3280 C   0  0  2  0  0  3  0  0  0  0  0  0
  187.4530  174.6500  142.4350 C   0  0  0  0  0  1  0  0  0  0  0  0
  188.8520  174.8890  140.3770 C   0  0  2  0  0  3  0  0  0  0  0  0
  188.1890  174.5490  139.1940 O   0  0  0  0  0  1  0  0  0  0  0  0
  189.3970  173.6250  141.0200 C   0  0  0  0  0  2  0  0  0  0  0  0
  190.7980  173.7560  141.2310 O   0  0  0  0  0  0  0  0  0  0  0  0
  193.4450  172.4620  143.4980 C   0  0  0  0  0  0  0  0  0  0  0  0
  192.6850  172.1800  144.6370 C   0  0  0  0  0  3  0  0  0  0  0  0
  192.8270  172.9870  142.3590 C   0  0  0  0  0  3  0  0  0  0  0  0
  190.6910  172.9480  143.4970 C   0  0  0  0  0  3  0  0  0  0  0  0
  191.4440  173.2320  142.3530 C   0  0  0  0  0  0  0  0  0  0  0  0
  191.3080  172.4230  144.6360 C   0  0  0  0  0  3  0  0  0  0  0  0
  195.9980  172.0120  143.4980 N   0  0  0  0  0  0  0  0  0  0  0  0
  194.8590  172.2130  143.4980 C   0  0  0  0  0  0  0  0  0  0  0  0
  1  5  1  0  0  0  0
  1  8  1  0  0  0  0
  2  9  1  0  0  0  0
  2 20  1  0  0  0  0
  3 14  1  0  0  0  0
  3 12  1  0  0  0  0
  5  3  2  0  0  0  0
  6  7  2  0  0  0  0
  7 11  1  0  0  0  0
  8 11  2  0  0  0  0
  8 12  1  0  0  0  0
  9 16  1  0  0  0  0
 11 10  1  0  0  0  0
 12 19  2  0  0  0  0
 13 18  1  0  0  0  0
 14  4  2  0  0  0  0
 15 13  2  0  0  0  0
 15  5  1  0  0  0  0
 16  4  1  0  0  0  0
 17  6  1  0  0  0  0
 17  1  2  0  0  0  0
 18  9  2  0  0  0  0
 18 14  1  0  0  0  0
 22 21  2  0  0  0  0
 22 20  1  0  0  0  0
 23 24  1  0  0  0  0
 24 22  1  0  0  0  0
 25 15  1  0  0  0  0
 26 25  1  0  0  0  0
 26 27  1  1  0  0  0
 28 29  1  6  0  0  0
 28 30  1  0  0  0  0
 28 26  1  0  0  0  0
 30 31  1  0  0  0  0
 31 36  1  0  0  0  0
 32 39  1  0  0  0  0
 32 33  1  0  0  0  0
 34 32  2  0  0  0  0
 35 37  1  0  0  0  0
 36 34  1  0  0  0  0
 36 35  2  0  0  0  0
 37 33  2  0  0  0  0
 38 39  3  0  0  0  0
M  END
>  <MODEL>
6

>  <REMARK>
 VINA RESULT:      -6.4      2.010      7.111
  Name = 
  10 active torsions:
  status: ('A' for Active; 'I' for Inactive)
    1  A    between atoms: C_1  and  C_8
    2  A    between atoms: C_6  and  C_26
    3  A    between atoms: C_6  and  C_30
    4  A    between atoms: C_9  and  C_12
    5  A    between atoms: C_12  and  C_33
    6  A    between atoms: O_14  and  C_20
    7  A    between atoms: O_14  and  C_30
    8  A    between atoms: C_26  and  N_34
    9  A    between atoms: C_31  and  N_34
   10  A    between atoms: C_33  and  O_37
                            x       y       z     vdW  Elec       q    Type
                         _______ _______ _______ _____ _____    ______ ____

>  <TORSDO>
F 10

$$$$
=
 OpenBabel11042415373D

 39 43  0  0  1  0  0  0  0  0999 V2000
  186.5930  177.0000  145.4570 C   0  0  0  0  0  0  0  0  0  0  0  0
  191.0400  173.1480  142.4000 C   0  0  0  0  0  2  0  0  0  0  0  0
  187.4070  176.1060  143.4890 C   0  0  0  0  0  0  0  0  0  0  0  0
  188.1880  175.1970  141.1880 C   0  0  0  0  0  3  0  0  0  0  0  0
  187.6110  176.1290  144.8640 C   0  0  2  0  0  3  0  0  0  0  0  0
  185.3110  178.2130  147.0860 C   0  0  0  0  0  3  0  0  0  0  0  0
  184.4910  178.7170  146.0570 C   0  0  0  0  0  3  0  0  0  0  0  0
  185.7860  177.4950  144.4430 C   0  0  0  0  0  0  0  0  0  0  0  0
  189.9830  173.9350  142.1970 C   0  0  0  0  0  0  0  0  0  0  0  0
  183.9170  178.8530  143.7040 O   0  0  0  0  0  1  0  0  0  0  0  0
  184.7250  178.3580  144.7190 C   0  0  0  0  0  0  0  0  0  0  0  0
  186.2630  176.9550  143.1710 C   0  0  0  0  0  0  0  0  0  0  0  0
  189.4980  174.6310  144.6260 C   0  0  0  0  0  3  0  0  0  0  0  0
  188.2400  175.3520  142.6690 C   0  0  0  0  0  0  0  0  0  0  0  0
  188.6510  175.3960  145.4640 C   0  0  0  0  0  0  0  0  0  0  0  0
  189.3600  174.2480  140.8670 C   0  0  0  0  0  3  0  0  0  0  0  0
  186.3770  177.3440  146.7920 C   0  0  0  0  0  3  0  0  0  0  0  0
  189.2640  174.6310  143.2380 C   0  0  0  0  0  0  0  0  0  0  0  0
  185.7830  177.1790  142.0290 O   0  0  0  0  0  0  0  0  0  0  0  0
  191.7510  172.4380  141.2930 C   0  0  0  0  0  2  0  0  0  0  0  0
  190.4460  170.5840  142.0200 O   0  0  0  0  0  0  0  0  0  0  0  0
  191.3210  171.0120  141.2200 C   0  0  0  0  0  0  0  0  0  0  0  0
  191.0660  169.4060  139.3750 C   0  0  0  0  0  1  0  0  0  0  0  0
  191.8740  170.1760  140.2520 O   0  0  0  0  0  0  0  0  0  0  0  0
  188.8440  175.4380  146.8820 N   0  0  0  0  0  2  0  0  0  0  0  0
  189.8890  176.2220  147.5290 C   0  0  2  0  0  3  0  0  0  0  0  0
  190.0340  177.5550  146.8080 C   0  0  0  0  0  1  0  0  0  0  0  0
  191.2090  175.4570  147.4950 C   0  0  2  0  0  3  0  0  0  0  0  0
  191.5190  174.9840  148.7730 O   0  0  0  0  0  1  0  0  0  0  0  0
  192.3330  176.3610  147.0150 C   0  0  0  0  0  2  0  0  0  0  0  0
  193.2280  175.6230  146.1920 O   0  0  0  0  0  0  0  0  0  0  0  0
  194.0930  175.1030  142.6140 C   0  0  0  0  0  0  0  0  0  0  0  0
  193.2280  176.0210  142.0100 C   0  0  0  0  0  3  0  0  0  0  0  0
  194.1010  174.9630  144.0040 C   0  0  0  0  0  3  0  0  0  0  0  0
  192.3810  176.6560  144.1880 C   0  0  0  0  0  3  0  0  0  0  0  0
  193.2440  175.7400  144.8010 C   0  0  0  0  0  0  0  0  0  0  0  0
  192.3720  176.7970  142.7970 C   0  0  0  0  0  3  0  0  0  0  0  0
  195.6790  173.6620  141.1550 N   0  0  0  0  0  0  0  0  0  0  0  0
  194.9720  174.3060  141.8060 C   0  0  0  0  0  0  0  0  0  0  0  0
  1 17  1  0  0  0  0
  4 14  1  0  0  0  0
  5  3  1  1  0  0  0
  5  1  1  0  0  0  0
  5 15  1  0  0  0  0
  7  6  1  0  0  0  0
  8 11  1  0  0  0  0
  8  1  2  0  0  0  0
  9  2  1  0  0  0  0
  9 18  2  0  0  0  0
 10 11  1  0  0  0  0
 11  7  2  0  0  0  0
 12  3  1  0  0  0  0
 12  8  1  0  0  0  0
 13 15  2  0  0  0  0
 14 18  1  0  0  0  0
 14  3  2  0  0  0  0
 15 25  1  0  0  0  0
 16  4  2  0  0  0  0
 16  9  1  0  0  0  0
 17  6  2  0  0  0  0
 18 13  1  0  0  0  0
 19 12  2  0  0  0  0
 20  2  1  0  0  0  0
 22 20  1  0  0  0  0
 22 21  2  0  0  0  0
 23 24  1  0  0  0  0
 24 22  1  0  0  0  0
 25 26  1  0  0  0  0
 26 27  1  6  0  0  0
 28 26  1  0  0  0  0
 28 29  1  1  0  0  0
 30 28  1  0  0  0  0
 31 30  1  0  0  0  0
 32 34  1  0  0  0  0
 33 32  2  0  0  0  0
 33 37  1  0  0  0  0
 34 36  2  0  0  0  0
 35 36  1  0  0  0  0
 36 31  1  0  0  0  0
 37 35  2  0  0  0  0
 38 39  3  0  0  0  0
 39 32  1  0  0  0  0
M  END
>  <MODEL>
7

>  <REMARK>
 VINA RESULT:      -6.2      2.278      7.688
  Name = 
  10 active torsions:
  status: ('A' for Active; 'I' for Inactive)
    1  A    between atoms: C_1  and  C_8
    2  A    between atoms: C_6  and  C_26
    3  A    between atoms: C_6  and  C_30
    4  A    between atoms: C_9  and  C_12
    5  A    between atoms: C_12  and  C_33
    6  A    between atoms: O_14  and  C_20
    7  A    between atoms: O_14  and  C_30
    8  A    between atoms: C_26  and  N_34
    9  A    between atoms: C_31  and  N_34
   10  A    between atoms: C_33  and  O_37
                            x       y       z     vdW  Elec       q    Type
                         _______ _______ _______ _____ _____    ______ ____

>  <TORSDO>
F 10

$$$$
=
 OpenBabel11042415373D

 39 43  0  0  1  0  0  0  0  0999 V2000
  189.9610  175.7600  145.6020 C   0  0  0  0  0  0  0  0  0  0  0  0
  184.4250  177.8810  142.6320 C   0  0  0  0  0  2  0  0  0  0  0  0
  188.1370  177.1780  145.6090 C   0  0  0  0  0  0  0  0  0  0  0  0
  186.1530  178.8410  145.7780 C   0  0  0  0  0  3  0  0  0  0  0  0
  188.7520  176.1650  144.8800 C   0  0  0  0  0  0  0  0  0  0  0  0
  191.9890  174.6030  146.1650 C   0  0  0  0  0  3  0  0  0  0  0  0
  192.1000  175.3790  147.3360 C   0  0  0  0  0  3  0  0  0  0  0  0
  190.0680  176.5240  146.7540 C   0  0  0  0  0  0  0  0  0  0  0  0
  185.2030  178.0540  143.7020 C   0  0  0  0  0  0  0  0  0  0  0  0
  191.2400  177.1160  148.7940 O   0  0  0  0  0  1  0  0  0  0  0  0
  191.1330  176.3510  147.6400 C   0  0  0  0  0  0  0  0  0  0  0  0
  188.9310  177.4410  146.8060 C   0  0  0  0  0  0  0  0  0  0  0  0
  187.0080  176.2890  143.2050 C   0  0  0  0  0  3  0  0  0  0  0  0
  186.9580  177.7550  145.1500 C   0  0  1  0  0  3  0  0  0  0  0  0
  188.2070  175.6970  143.6700 C   0  0  0  0  0  0  0  0  0  0  0  0
  184.9750  179.0460  144.8050 C   0  0  0  0  0  3  0  0  0  0  0  0
  190.9110  174.7890  145.2820 C   0  0  0  0  0  3  0  0  0  0  0  0
  186.4120  177.3110  143.9680 C   0  0  0  0  0  0  0  0  0  0  0  0
  188.6870  178.2900  147.7020 O   0  0  0  0  0  0  0  0  0  0  0  0
  183.1750  178.6660  142.3990 C   0  0  0  0  0  2  0  0  0  0  0  0
  183.2620  177.9240  140.1380 O   0  0  0  0  0  0  0  0  0  0  0  0
  182.5380  178.2710  141.1100 C   0  0  0  0  0  0  0  0  0  0  0  0
  180.4010  179.4640  140.8630 C   0  0  0  0  0  1  0  0  0  0  0  0
  181.1480  178.2650  141.0040 O   0  0  0  0  0  0  0  0  0  0  0  0
  188.8600  174.6570  142.9350 N   0  0  0  0  0  2  0  0  0  0  0  0
  189.4780  174.8600  141.6310 C   0  0  2  0  0  3  0  0  0  0  0  0
  188.5420  174.3470  140.5460 C   0  0  0  0  0  1  0  0  0  0  0  0
  190.8130  174.1220  141.5680 C   0  0  2  0  0  3  0  0  0  0  0  0
  190.7900  173.0220  142.4300 O   0  0  0  0  0  1  0  0  0  0  0  0
  191.9490  175.0470  141.9750 C   0  0  0  0  0  2  0  0  0  0  0  0
  193.1380  174.2910  142.1750 O   0  0  0  0  0  0  0  0  0  0  0  0
  195.5630  173.7630  144.9430 C   0  0  0  0  0  0  0  0  0  0  0  0
  195.7650  175.0830  145.3550 C   0  0  0  0  0  3  0  0  0  0  0  0
  194.6910  173.4880  143.8860 C   0  0  0  0  0  3  0  0  0  0  0  0
  194.2240  175.8520  143.6540 C   0  0  0  0  0  3  0  0  0  0  0  0
  194.0150  174.5340  143.2340 C   0  0  0  0  0  0  0  0  0  0  0  0
  195.0960  176.1270  144.7110 C   0  0  0  0  0  3  0  0  0  0  0  0
  196.8050  171.8260  146.1380 N   0  0  0  0  0  0  0  0  0  0  0  0
  196.2500  172.6900  145.6050 C   0  0  0  0  0  0  0  0  0  0  0  0
  1  8  1  0  0  0  0
  2  9  1  0  0  0  0
  3 12  1  0  0  0  0
  5  1  1  0  0  0  0
  5  3  2  0  0  0  0
  6  7  2  0  0  0  0
  7 11  1  0  0  0  0
  8 12  1  0  0  0  0
  8 11  2  0  0  0  0
  9 18  2  0  0  0  0
  9 16  1  0  0  0  0
 11 10  1  0  0  0  0
 12 19  2  0  0  0  0
 13 15  2  0  0  0  0
 13 18  1  0  0  0  0
 14  3  1  0  0  0  0
 14  4  1  6  0  0  0
 15  5  1  0  0  0  0
 16  4  2  0  0  0  0
 17  1  2  0  0  0  0
 17  6  1  0  0  0  0
 18 14  1  0  0  0  0
 20  2  1  0  0  0  0
 21 22  2  0  0  0  0
 22 20  1  0  0  0  0
 23 24  1  0  0  0  0
 24 22  1  0  0  0  0
 25 15  1  0  0  0  0
 26 27  1  6  0  0  0
 26 25  1  0  0  0  0
 28 26  1  0  0  0  0
 28 30  1  0  0  0  0
 28 29  1  1  0  0  0
 30 31  1  0  0  0  0
 31 36  1  0  0  0  0
 32 33  1  0  0  0  0
 32 39  1  0  0  0  0
 34 32  2  0  0  0  0
 35 37  1  0  0  0  0
 36 35  2  0  0  0  0
 36 34  1  0  0  0  0
 37 33  2  0  0  0  0
 39 38  3  0  0  0  0
M  END
>  <MODEL>
8

>  <REMARK>
 VINA RESULT:      -6.2      2.855      5.082
  Name = 
  10 active torsions:
  status: ('A' for Active; 'I' for Inactive)
    1  A    between atoms: C_1  and  C_8
    2  A    between atoms: C_6  and  C_26
    3  A    between atoms: C_6  and  C_30
    4  A    between atoms: C_9  and  C_12
    5  A    between atoms: C_12  and  C_33
    6  A    between atoms: O_14  and  C_20
    7  A    between atoms: O_14  and  C_30
    8  A    between atoms: C_26  and  N_34
    9  A    between atoms: C_31  and  N_34
   10  A    between atoms: C_33  and  O_37
                            x       y       z     vdW  Elec       q    Type
                         _______ _______ _______ _____ _____    ______ ____

>  <TORSDO>
F 10

$$$$
=
 OpenBabel11042415373D

 39 43  0  0  1  0  0  0  0  0999 V2000
  193.1690  174.2840  141.2980 C   0  0  0  0  0  0  0  0  0  0  0  0
  187.8310  177.3320  143.7830 C   0  0  0  0  0  2  0  0  0  0  0  0
  192.2930  175.9190  142.6740 C   0  0  0  0  0  0  0  0  0  0  0  0
  191.4850  177.8050  144.2620 C   0  0  0  0  0  3  0  0  0  0  0  0
  191.9370  174.8980  141.7990 C   0  0  0  0  0  0  0  0  0  0  0  0
  194.6550  172.8350  140.0910 C   0  0  0  0  0  3  0  0  0  0  0  0
  195.7590  173.4930  140.6700 C   0  0  0  0  0  3  0  0  0  0  0  0
  194.2540  174.9320  141.8690 C   0  0  0  0  0  0  0  0  0  0  0  0
  189.1640  177.3170  143.8030 C   0  0  0  0  0  0  0  0  0  0  0  0
  196.6490  175.2030  142.1410 O   0  0  0  0  0  1  0  0  0  0  0  0
  195.5630  174.5530  141.5690 C   0  0  0  0  0  0  0  0  0  0  0  0
  193.7500  175.9810  142.7530 C   0  0  0  0  0  0  0  0  0  0  0  0
  189.5930  175.3800  142.1640 C   0  0  0  0  0  3  0  0  0  0  0  0
  191.3110  176.6790  143.3010 C   0  0  0  0  0  0  0  0  0  0  0  0
  190.5890  174.6030  141.5260 C   0  0  0  0  0  0  0  0  0  0  0  0
  190.0430  178.2380  144.5980 C   0  0  0  0  0  2  0  0  0  0  0  0
  193.3420  173.2280  140.4020 C   0  0  0  0  0  3  0  0  0  0  0  0
  189.9880  176.4060  143.0440 C   0  0  0  0  0  0  0  0  0  0  0  0
  194.4350  176.7800  143.4440 O   0  0  0  0  0  0  0  0  0  0  0  0
  187.0150  178.2880  144.5920 C   0  0  0  0  0  2  0  0  0  0  0  0
  185.5620  180.0390  143.8910 O   0  0  0  0  0  0  0  0  0  0  0  0
  185.8800  178.8230  143.7870 C   0  0  0  0  0  0  0  0  0  0  0  0
  185.0500  178.2920  141.5340 C   0  0  0  0  0  1  0  0  0  0  0  0
  185.2000  177.9800  142.9100 O   0  0  0  0  0  0  0  0  0  0  0  0
  190.2470  173.5500  140.6180 N   0  0  0  0  0  2  0  0  0  0  0  0
  189.6100  172.3060  141.0330 C   0  0  2  0  0  3  0  0  0  0  0  0
  188.3060  172.6250  141.7490 C   0  0  0  0  0  1  0  0  0  0  0  0
  190.5430  171.5280  141.9580 C   0  0  2  0  0  3  0  0  0  0  0  0
  190.4410  170.1590  141.6960 O   0  0  0  0  0  1  0  0  0  0  0  0
  190.1820  171.7840  143.4120 C   0  0  0  0  0  2  0  0  0  0  0  0
  191.3310  172.2270  144.1230 O   0  0  0  0  0  0  0  0  0  0  0  0
  190.0690  174.8720  146.4110 C   0  0  0  0  0  0  0  0  0  0  0  0
  191.2770  175.4110  146.8630 C   0  0  0  0  0  3  0  0  0  0  0  0
  190.0760  173.8120  145.4990 C   0  0  0  0  0  3  0  0  0  0  0  0
  192.4960  173.8310  145.4920 C   0  0  0  0  0  3  0  0  0  0  0  0
  191.2920  173.2850  145.0340 C   0  0  0  0  0  0  0  0  0  0  0  0
  192.4900  174.8910  146.4030 C   0  0  0  0  0  3  0  0  0  0  0  0
  187.8180  175.8360  147.2620 N   0  0  0  0  0  0  0  0  0  0  0  0
  188.8220  175.4060  146.8820 C   0  0  0  0  0  0  0  0  0  0  0  0
  1  5  1  0  0  0  0
  1  8  1  0  0  0  0
  2  9  1  0  0  0  0
  2 20  1  0  0  0  0
  3 12  1  0  0  0  0
  3 14  1  0  0  0  0
  4 16  1  0  0  0  0
  5  3  2  0  0  0  0
  6 17  1  0  0  0  0
  6  7  2  0  0  0  0
  7 11  1  0  0  0  0
  8 12  1  0  0  0  0
  9 16  1  0  0  0  0
 11  8  2  0  0  0  0
 11 10  1  0  0  0  0
 12 19  2  0  0  0  0
 13 18  1  0  0  0  0
 14  4  2  0  0  0  0
 15  5  1  0  0  0  0
 15 13  2  0  0  0  0
 17  1  2  0  0  0  0
 18 14  1  0  0  0  0
 18  9  2  0  0  0  0
 22 21  2  0  0  0  0
 22 20  1  0  0  0  0
 23 24  1  0  0  0  0
 24 22  1  0  0  0  0
 25 26  1  0  0  0  0
 25 15  1  0  0  0  0
 26 27  1  1  0  0  0
 26 28  1  0  0  0  0
 28 29  1  6  0  0  0
 28 30  1  0  0  0  0
 30 31  1  0  0  0  0
 31 36  1  0  0  0  0
 32 33  1  0  0  0  0
 32 39  1  0  0  0  0
 34 32  2  0  0  0  0
 35 37  1  0  0  0  0
 36 35  2  0  0  0  0
 36 34  1  0  0  0  0
 37 33  2  0  0  0  0
 39 38  3  0  0  0  0
M  END
>  <MODEL>
9

>  <REMARK>
 VINA RESULT:      -6.2      2.387      3.898
  Name = 
  10 active torsions:
  status: ('A' for Active; 'I' for Inactive)
    1  A    between atoms: C_1  and  C_8
    2  A    between atoms: C_6  and  C_26
    3  A    between atoms: C_6  and  C_30
    4  A    between atoms: C_9  and  C_12
    5  A    between atoms: C_12  and  C_33
    6  A    between atoms: O_14  and  C_20
    7  A    between atoms: O_14  and  C_30
    8  A    between atoms: C_26  and  N_34
    9  A    between atoms: C_31  and  N_34
   10  A    between atoms: C_33  and  O_37
                            x       y       z     vdW  Elec       q    Type
                         _______ _______ _______ _____ _____    ______ ____

>  <TORSDO>
F 10

$$$$
