=
 OpenBabel11042416593D

 38 44  0  0  1  0  0  0  0  0999 V2000
  187.1070  176.4980  140.7050 S   0  0  0  0  0  0  0  0  0  0  0  0
  189.9900  174.0160  141.6960 C   0  0  2  0  0  3  0  0  0  0  0  0
  189.0440  175.1720  141.5630 C   0  0  0  0  0  0  0  0  0  0  0  0
  189.6020  173.6610  139.2840 N   0  0  0  0  0  0  0  0  0  0  0  0
  188.8220  176.1010  142.5280 N   0  0  0  0  0  0  0  0  0  0  0  0
  188.1920  175.2340  140.4720 C   0  0  0  0  0  0  0  0  0  0  0  0
  191.2930  174.3940  142.2060 N   0  0  0  0  0  0  0  0  0  0  0  0
  187.8000  176.9230  142.1870 C   0  0  0  0  0  0  0  0  0  0  0  0
  191.7870  173.4310  140.2070 N   0  0  0  0  0  0  0  0  0  0  0  0
  188.2340  174.1880  139.3890 C   0  0  1  0  0  3  0  0  0  0  0  0
  190.3730  173.5260  140.3300 C   0  0  0  0  0  0  0  0  0  0  0  0
  192.2900  173.9320  141.2890 C   0  0  0  0  0  3  0  0  0  0  0  0
  187.8180  174.7690  138.0510 C   0  0  0  0  0  1  0  0  0  0  0  0
  194.4470  175.6630  146.0850 C   0  0  0  0  0  2  0  0  0  0  0  0
  194.1570  174.2190  146.0900 N   0  0  0  0  0  0  0  0  0  0  0  0
  191.5250  174.8960  143.4990 N   0  0  2  0  0  0  0  0  0  0  0  0
  193.4050  176.4140  144.1450 C   0  0  2  0  0  3  0  0  0  0  0  0
  192.7810  174.5120  145.6160 C   0  0  1  0  0  3  0  0  0  0  0  0
  192.1080  176.2530  143.3610 C   0  0  2  0  0  3  0  0  0  0  0  0
  193.0690  175.9970  145.5920 C   0  0  1  0  0  0  0  0  0  0  0  0
  192.3860  173.9400  144.2250 C   0  0  0  0  0  2  0  0  0  0  0  0
  192.1700  176.9100  144.7390 C   0  0  1  0  0  3  0  0  0  0  0  0
  195.0100  173.6110  145.0690 C   0  0  0  0  0  2  0  0  0  0  0  0
  196.7340  174.1320  145.3220 S   0  0  0  0  0  0  0  0  0  0  0  0
  197.1410  173.9670  143.5570 C   0  0  0  0  0  2  0  0  0  0  0  0
  196.0480  174.4800  142.7480 N   0  0  0  0  0  2  0  0  0  0  0  0
  195.3490  176.6350  141.0830 O   0  0  0  0  0  0  0  0  0  0  0  0
  197.0050  176.9500  143.0730 O   0  0  0  0  0  1  0  0  0  0  0  0
  196.6040  175.9650  141.9990 P   0  0  1  0  0  0  0  0  0  0  0  0
  197.4090  175.3460  139.7500 C   0  0  0  0  0  1  0  0  0  0  0  0
  197.9410  175.6550  141.0030 O   0  0  0  0  0  0  0  0  0  0  0  0
  186.5110  177.8300  144.0440 C   0  0  0  0  0  3  0  0  0  0  0  0
  187.3320  178.0320  143.0200 C   0  0  0  0  0  3  0  0  0  0  0  0
  186.0470  178.9710  144.8850 C   0  0  1  0  0  3  0  0  0  0  0  0
  184.7650  179.5290  144.3000 C   0  0  0  0  0  1  0  0  0  0  0  0
  185.8080  178.5330  146.1910 O   0  0  0  0  0  0  0  0  0  0  0  0
  186.5020  176.6530  147.2740 O   0  0  0  0  0  1  0  0  0  0  0  0
  185.8800  177.1400  146.1240 C   0  0  0  0  0  2  0  0  0  0  0  0
  1  8  1  0  0  0  0
  2 11  1  6  0  0  0
  2  7  1  0  0  0  0
  3  2  1  0  0  0  0
  3  5  1  0  0  0  0
  4 10  1  0  0  0  0
  4 11  2  0  0  0  0
  6  1  1  0  0  0  0
  6  3  2  0  0  0  0
  8  5  2  0  0  0  0
  8 33  1  0  0  0  0
  9 11  1  0  0  0  0
  9 12  2  0  0  0  0
 10 13  1  6  0  0  0
 10  6  1  0  0  0  0
 12  7  1  0  0  0  0
 14 15  1  0  0  0  0
 16  7  1  6  0  0  0
 16 21  1  0  0  0  0
 17 22  1  0  0  0  0
 17 20  1  0  0  0  0
 18 15  1  0  0  0  0
 19 16  1  0  0  0  0
 19 17  1  0  0  0  0
 19 22  1  0  0  0  0
 20 18  1  0  0  0  0
 20 14  1  0  0  0  0
 21 18  1  0  0  0  0
 22 20  1  0  0  0  0
 23 24  1  0  0  0  0
 23 15  1  0  0  0  0
 25 24  1  0  0  0  0
 26 25  1  0  0  0  0
 27 29  2  0  0  0  0
 29 26  1  0  0  0  0
 29 28  1  0  0  0  0
 30 31  1  0  0  0  0
 31 29  1  0  0  0  0
 32 34  1  0  0  0  0
 33 32  2  0  0  0  0
 34 36  1  0  0  0  0
 35 34  1  0  0  0  0
 38 36  1  0  0  0  0
 38 37  1  0  0  0  0
M  END
>  <MODEL>
1

>  <REMARK>
 VINA RESULT:      -6.3      0.000      0.000
  Name = 
  11 active torsions:
  status: ('A' for Active; 'I' for Inactive)
    1  A    between atoms: N_6  and  C_8
    2  A    between atoms: C_8  and  S_29
    3  A    between atoms: N_11  and  N_18
    4  A    between atoms: C_13  and  N_15
    5  A    between atoms: C_13  and  S_29
    6  A    between atoms: N_15  and  P_20
    7  A    between atoms: P_20  and  O_24
    8  A    between atoms: C_21  and  C_22
    9  A    between atoms: C_22  and  O_26
   10  A    between atoms: C_23  and  C_38
   11  A    between atoms: O_26  and  C_32
                            x       y       z     vdW  Elec       q    Type
                         _______ _______ _______ _____ _____    ______ ____

>  <TORSDO>
F 11

$$$$
=
 OpenBabel11042416593D

 38 44  0  0  1  0  0  0  0  0999 V2000
  185.1080  178.2920  140.9930 S   0  0  0  0  0  0  0  0  0  0  0  0
  188.0930  177.8880  143.5190 C   0  0  2  0  0  3  0  0  0  0  0  0
  187.1240  177.7830  142.3790 C   0  0  0  0  0  0  0  0  0  0  0  0
  186.1220  178.4500  144.8970 N   0  0  0  0  0  0  0  0  0  0  0  0
  187.4310  177.2920  141.1510 N   0  0  0  0  0  0  0  0  0  0  0  0
  185.8770  178.3760  142.4870 C   0  0  0  0  0  0  0  0  0  0  0  0
  188.8510  176.6740  143.7430 N   0  0  0  0  0  0  0  0  0  0  0  0
  186.4060  177.4750  140.2830 C   0  0  0  0  0  0  0  0  0  0  0  0
  187.8200  177.0060  145.7420 N   0  0  0  0  0  0  0  0  0  0  0  0
  185.4540  179.0800  143.7500 C   0  0  1  0  0  3  0  0  0  0  0  0
  187.3330  177.9670  144.8120 C   0  0  0  0  0  0  0  0  0  0  0  0
  188.6850  176.2800  145.1090 C   0  0  0  0  0  3  0  0  0  0  0  0
  183.9510  179.0030  143.9420 C   0  0  0  0  0  1  0  0  0  0  0  0
  193.0880  173.9340  142.6700 C   0  0  0  0  0  2  0  0  0  0  0  0
  193.4360  175.3030  143.0890 N   0  0  0  0  0  0  0  0  0  0  0  0
  189.7840  176.1410  142.8350 N   0  0  2  0  0  0  0  0  0  0  0  0
  190.7810  173.8500  142.9640 C   0  0  2  0  0  3  0  0  0  0  0  0
  192.2150  175.8020  142.4070 C   0  0  1  0  0  3  0  0  0  0  0  0
  189.5280  174.6840  142.7240 C   0  0  2  0  0  3  0  0  0  0  0  0
  191.8380  174.4000  141.9810 C   0  0  1  0  0  0  0  0  0  0  0  0
  191.1430  176.4820  143.3060 C   0  0  0  0  0  2  0  0  0  0  0  0
  190.3770  174.1160  141.5890 C   0  0  1  0  0  3  0  0  0  0  0  0
  193.3450  175.3360  144.5480 C   0  0  0  0  0  2  0  0  0  0  0  0
  194.6880  176.3600  145.2230 S   0  0  0  0  0  0  0  0  0  0  0  0
  195.9600  175.1280  144.8100 C   0  0  0  0  0  2  0  0  0  0  0  0
  196.1560  174.2240  145.9320 N   0  0  0  0  0  2  0  0  0  0  0  0
  194.3020  172.1230  145.7110 O   0  0  0  0  0  1  0  0  0  0  0  0
  196.0690  172.5640  143.8440 O   0  0  0  0  0  0  0  0  0  0  0  0
  195.8850  172.5940  145.3440 P   0  0  1  0  0  0  0  0  0  0  0  0
  197.5500  170.8060  145.0040 C   0  0  0  0  0  1  0  0  0  0  0  0
  196.9850  171.5210  146.0610 O   0  0  0  0  0  0  0  0  0  0  0  0
  187.1390  175.9840  138.5020 C   0  0  0  0  0  3  0  0  0  0  0  0
  186.4320  177.0410  138.8860 C   0  0  0  0  0  3  0  0  0  0  0  0
  187.1510  175.5530  137.0740 C   0  0  1  0  0  3  0  0  0  0  0  0
  187.1810  176.7810  136.1860 C   0  0  0  0  0  1  0  0  0  0  0  0
  188.2820  174.7720  136.8230 O   0  0  0  0  0  0  0  0  0  0  0  0
  189.7440  173.5530  138.0750 O   0  0  0  0  0  1  0  0  0  0  0  0
  188.4130  173.9530  137.9450 C   0  0  0  0  0  2  0  0  0  0  0  0
  1  6  1  0  0  0  0
  2  3  1  6  0  0  0
  2  7  1  0  0  0  0
  2 11  1  0  0  0  0
  3  6  2  0  0  0  0
  5  3  1  0  0  0  0
  6 10  1  0  0  0  0
  7 12  1  0  0  0  0
  8  1  1  0  0  0  0
  8  5  2  0  0  0  0
 10 13  1  1  0  0  0
 10  4  1  0  0  0  0
 11  4  2  0  0  0  0
 11  9  1  0  0  0  0
 12  9  2  0  0  0  0
 14 15  1  0  0  0  0
 15 23  1  0  0  0  0
 16 21  1  1  0  0  0
 16  7  1  0  0  0  0
 18 15  1  0  0  0  0
 18 21  1  0  0  0  0
 19 16  1  0  0  0  0
 19 17  1  0  0  0  0
 20 18  1  0  0  0  0
 20 14  1  0  0  0  0
 20 17  1  0  0  0  0
 22 20  1  0  0  0  0
 22 19  1  0  0  0  0
 22 17  1  0  0  0  0
 23 24  1  0  0  0  0
 25 24  1  0  0  0  0
 25 26  1  0  0  0  0
 28 29  2  0  0  0  0
 29 27  1  0  0  0  0
 29 26  1  0  0  0  0
 29 31  1  0  0  0  0
 30 31  1  0  0  0  0
 32 33  2  0  0  0  0
 33  8  1  0  0  0  0
 34 32  1  0  0  0  0
 35 34  1  0  0  0  0
 36 34  1  0  0  0  0
 36 38  1  0  0  0  0
 38 37  1  0  0  0  0
M  END
>  <MODEL>
2

>  <REMARK>
 VINA RESULT:      -6.3      3.351      5.706
  Name = 
  11 active torsions:
  status: ('A' for Active; 'I' for Inactive)
    1  A    between atoms: N_6  and  C_8
    2  A    between atoms: C_8  and  S_29
    3  A    between atoms: N_11  and  N_18
    4  A    between atoms: C_13  and  N_15
    5  A    between atoms: C_13  and  S_29
    6  A    between atoms: N_15  and  P_20
    7  A    between atoms: P_20  and  O_24
    8  A    between atoms: C_21  and  C_22
    9  A    between atoms: C_22  and  O_26
   10  A    between atoms: C_23  and  C_38
   11  A    between atoms: O_26  and  C_32
                            x       y       z     vdW  Elec       q    Type
                         _______ _______ _______ _____ _____    ______ ____

>  <TORSDO>
F 11

$$$$
=
 OpenBabel11042416593D

 38 44  0  0  1  0  0  0  0  0999 V2000
  193.8010  172.9430  140.4540 S   0  0  0  0  0  0  0  0  0  0  0  0
  190.1170  174.0820  141.2190 C   0  0  2  0  0  3  0  0  0  0  0  0
  191.5960  173.8300  141.2250 C   0  0  0  0  0  0  0  0  0  0  0  0
  189.9270  171.8360  140.2110 N   0  0  0  0  0  0  0  0  0  0  0  0
  192.5090  174.6180  141.8490 N   0  0  0  0  0  0  0  0  0  0  0  0
  192.1230  172.8440  140.4070 C   0  0  0  0  0  0  0  0  0  0  0  0
  189.5770  174.3690  142.5330 N   0  0  0  0  0  0  0  0  0  0  0  0
  193.7720  174.2360  141.5430 C   0  0  0  0  0  0  0  0  0  0  0  0
  188.3810  172.5500  141.8780 N   0  0  0  0  0  0  0  0  0  0  0  0
  191.2330  171.9810  139.5520 C   0  0  1  0  0  3  0  0  0  0  0  0
  189.3960  172.8010  140.9120 C   0  0  0  0  0  0  0  0  0  0  0  0
  188.5050  173.4580  142.7920 C   0  0  0  0  0  3  0  0  0  0  0  0
  191.8420  170.6080  139.3380 C   0  0  0  0  0  1  0  0  0  0  0  0
  189.0880  177.3060  146.7450 C   0  0  0  0  0  2  0  0  0  0  0  0
  187.9870  177.5530  145.7980 N   0  0  0  0  0  0  0  0  0  0  0  0
  189.8960  175.5120  143.2900 N   0  0  2  0  0  0  0  0  0  0  0  0
  190.2590  175.5510  145.7650 C   0  0  2  0  0  3  0  0  0  0  0  0
  188.9340  177.3470  144.6730 C   0  0  1  0  0  3  0  0  0  0  0  0
  190.7730  175.0850  144.4070 C   0  0  2  0  0  3  0  0  0  0  0  0
  190.0710  177.0780  145.6330 C   0  0  1  0  0  0  0  0  0  0  0  0
  188.6370  176.1530  143.7210 C   0  0  0  0  0  2  0  0  0  0  0  0
  191.3110  176.3250  145.1180 C   0  0  1  0  0  3  0  0  0  0  0  0
  187.0310  176.4600  145.9640 C   0  0  0  0  0  2  0  0  0  0  0  0
  185.4450  177.1190  146.5620 S   0  0  0  0  0  0  0  0  0  0  0  0
  185.5300  178.5710  145.4720 C   0  0  0  0  0  2  0  0  0  0  0  0
  184.4040  178.5670  144.5520 N   0  0  0  0  0  2  0  0  0  0  0  0
  186.3870  179.0570  142.6200 O   0  0  0  0  0  0  0  0  0  0  0  0
  185.4190  176.6620  142.9810 O   0  0  0  0  0  1  0  0  0  0  0  0
  185.0220  178.1200  142.9720 P   0  0  1  0  0  0  0  0  0  0  0  0
  184.4980  178.2510  140.5650 C   0  0  0  0  0  1  0  0  0  0  0  0
  183.8340  178.3650  141.7870 O   0  0  0  0  0  0  0  0  0  0  0  0
  195.0070  175.3790  143.3040 C   0  0  0  0  0  3  0  0  0  0  0  0
  194.9720  174.8860  142.0710 C   0  0  0  0  0  3  0  0  0  0  0  0
  196.2400  176.0350  143.8280 C   0  0  1  0  0  3  0  0  0  0  0  0
  197.0130  176.6330  142.6700 C   0  0  0  0  0  1  0  0  0  0  0  0
  195.8940  177.0480  144.7260 O   0  0  0  0  0  0  0  0  0  0  0  0
  194.5270  177.4140  146.5120 O   0  0  0  0  0  1  0  0  0  0  0  0
  194.8860  176.4990  145.5210 C   0  0  0  0  0  2  0  0  0  0  0  0
  1  8  1  0  0  0  0
  2 11  1  1  0  0  0
  2  3  1  0  0  0  0
  2  7  1  0  0  0  0
  3  5  1  0  0  0  0
  4 11  2  0  0  0  0
  6  1  1  0  0  0  0
  6  3  2  0  0  0  0
  7 12  1  0  0  0  0
  8  5  2  0  0  0  0
  8 33  1  0  0  0  0
  9 12  2  0  0  0  0
 10 13  1  1  0  0  0
 10  4  1  0  0  0  0
 10  6  1  0  0  0  0
 11  9  1  0  0  0  0
 15 23  1  0  0  0  0
 15 14  1  0  0  0  0
 16  7  1  1  0  0  0
 16 21  1  0  0  0  0
 16 19  1  0  0  0  0
 18 20  1  0  0  0  0
 18 15  1  0  0  0  0
 19 22  1  0  0  0  0
 19 17  1  0  0  0  0
 20 17  1  0  0  0  0
 20 14  1  0  0  0  0
 21 18  1  0  0  0  0
 22 20  1  0  0  0  0
 22 17  1  0  0  0  0
 23 24  1  0  0  0  0
 25 24  1  0  0  0  0
 26 25  1  0  0  0  0
 27 29  2  0  0  0  0
 29 28  1  0  0  0  0
 29 26  1  0  0  0  0
 30 31  1  0  0  0  0
 31 29  1  0  0  0  0
 32 34  1  0  0  0  0
 33 32  2  0  0  0  0
 34 36  1  0  0  0  0
 35 34  1  0  0  0  0
 36 38  1  0  0  0  0
 38 37  1  0  0  0  0
M  END
>  <MODEL>
3

>  <REMARK>
 VINA RESULT:      -6.3      3.455      7.848
  Name = 
  11 active torsions:
  status: ('A' for Active; 'I' for Inactive)
    1  A    between atoms: N_6  and  C_8
    2  A    between atoms: C_8  and  S_29
    3  A    between atoms: N_11  and  N_18
    4  A    between atoms: C_13  and  N_15
    5  A    between atoms: C_13  and  S_29
    6  A    between atoms: N_15  and  P_20
    7  A    between atoms: P_20  and  O_24
    8  A    between atoms: C_21  and  C_22
    9  A    between atoms: C_22  and  O_26
   10  A    between atoms: C_23  and  C_38
   11  A    between atoms: O_26  and  C_32
                            x       y       z     vdW  Elec       q    Type
                         _______ _______ _______ _____ _____    ______ ____

>  <TORSDO>
F 11

$$$$
=
 OpenBabel11042416593D

 38 44  0  0  1  0  0  0  0  0999 V2000
  193.6880  173.2040  139.6890 S   0  0  0  0  0  0  0  0  0  0  0  0
  190.3470  174.2850  141.4570 C   0  0  2  0  0  3  0  0  0  0  0  0
  191.7700  173.9870  141.0870 C   0  0  0  0  0  0  0  0  0  0  0  0
  189.7750  172.3020  140.1020 N   0  0  0  0  0  0  0  0  0  0  0  0
  192.8520  174.5990  141.6330 N   0  0  0  0  0  0  0  0  0  0  0  0
  192.0350  173.1730  139.9980 C   0  0  0  0  0  0  0  0  0  0  0  0
  190.1200  174.3140  142.8880 N   0  0  0  0  0  0  0  0  0  0  0  0
  193.9900  174.2450  140.9870 C   0  0  0  0  0  0  0  0  0  0  0  0
  188.6750  172.7100  142.1760 N   0  0  0  0  0  0  0  0  0  0  0  0
  190.9200  172.5350  139.2110 C   0  0  1  0  0  3  0  0  0  0  0  0
  189.4800  173.1200  141.0770 C   0  0  0  0  0  0  0  0  0  0  0  0
  189.0580  173.4060  143.1980 C   0  0  0  0  0  3  0  0  0  0  0  0
  191.3620  171.2150  138.6060 C   0  0  0  0  0  1  0  0  0  0  0  0
  190.2850  176.7700  147.4210 C   0  0  0  0  0  2  0  0  0  0  0  0
  189.2600  177.3560  146.5400 N   0  0  0  0  0  0  0  0  0  0  0  0
  190.6790  175.2650  143.7620 N   0  0  2  0  0  0  0  0  0  0  0  0
  191.0480  174.9340  146.2140 C   0  0  2  0  0  3  0  0  0  0  0  0
  190.1370  177.0870  145.3720 C   0  0  1  0  0  3  0  0  0  0  0  0
  191.4470  174.5330  144.7980 C   0  0  2  0  0  3  0  0  0  0  0  0
  191.1920  176.4700  146.2640 C   0  0  1  0  0  0  0  0  0  0  0  0
  189.5880  176.1050  144.2990 C   0  0  0  0  0  2  0  0  0  0  0  0
  192.2400  175.5370  145.6310 C   0  0  1  0  0  3  0  0  0  0  0  0
  188.0910  176.4800  146.6070 C   0  0  0  0  0  2  0  0  0  0  0  0
  186.6340  177.4400  147.1190 S   0  0  0  0  0  0  0  0  0  0  0  0
  185.6370  176.8490  145.7180 C   0  0  0  0  0  2  0  0  0  0  0  0
  185.0860  177.9810  144.9910 N   0  0  0  0  0  2  0  0  0  0  0  0
  184.0400  177.8790  142.3840 O   0  0  0  0  0  0  0  0  0  0  0  0
  186.4340  178.8070  142.8410 O   0  0  0  0  0  1  0  0  0  0  0  0
  185.4600  177.7440  143.2940 P   0  0  1  0  0  0  0  0  0  0  0  0
  186.9030  176.3270  141.8810 C   0  0  0  0  0  1  0  0  0  0  0  0
  186.1550  176.2160  143.0540 O   0  0  0  0  0  0  0  0  0  0  0  0
  195.7240  174.7630  142.6160 C   0  0  0  0  0  3  0  0  0  0  0  0
  195.3210  174.7320  141.3510 C   0  0  0  0  0  3  0  0  0  0  0  0
  197.0860  175.2580  142.9700 C   0  0  1  0  0  3  0  0  0  0  0  0
  197.0560  176.7710  143.0560 C   0  0  0  0  0  1  0  0  0  0  0  0
  197.4770  174.7310  144.2040 O   0  0  0  0  0  0  0  0  0  0  0  0
  196.4840  173.8810  146.0700 O   0  0  0  0  0  1  0  0  0  0  0  0
  196.3210  174.7450  144.9860 C   0  0  0  0  0  2  0  0  0  0  0  0
  1  6  1  0  0  0  0
  1  8  1  0  0  0  0
  2 11  1  6  0  0  0
  2  7  1  0  0  0  0
  3  2  1  0  0  0  0
  3  5  1  0  0  0  0
  4 11  2  0  0  0  0
  6  3  2  0  0  0  0
  7 12  1  0  0  0  0
  8 33  1  0  0  0  0
  8  5  2  0  0  0  0
  9 12  2  0  0  0  0
 10 13  1  1  0  0  0
 10  6  1  0  0  0  0
 10  4  1  0  0  0  0
 11  9  1  0  0  0  0
 15 23  1  0  0  0  0
 15 14  1  0  0  0  0
 16  7  1  6  0  0  0
 16 21  1  0  0  0  0
 16 19  1  0  0  0  0
 17 20  1  0  0  0  0
 18 20  1  0  0  0  0
 18 15  1  0  0  0  0
 19 22  1  0  0  0  0
 19 17  1  0  0  0  0
 20 14  1  0  0  0  0
 21 18  1  0  0  0  0
 22 17  1  0  0  0  0
 22 20  1  0  0  0  0
 23 24  1  0  0  0  0
 25 24  1  0  0  0  0
 26 25  1  0  0  0  0
 27 29  2  0  0  0  0
 28 29  1  0  0  0  0
 29 26  1  0  0  0  0
 30 31  1  0  0  0  0
 31 29  1  0  0  0  0
 32 34  1  0  0  0  0
 33 32  2  0  0  0  0
 34 35  1  0  0  0  0
 34 36  1  0  0  0  0
 36 38  1  0  0  0  0
 38 37  1  0  0  0  0
M  END
>  <MODEL>
4

>  <REMARK>
 VINA RESULT:      -6.3      3.358      7.730
  Name = 
  11 active torsions:
  status: ('A' for Active; 'I' for Inactive)
    1  A    between atoms: N_6  and  C_8
    2  A    between atoms: C_8  and  S_29
    3  A    between atoms: N_11  and  N_18
    4  A    between atoms: C_13  and  N_15
    5  A    between atoms: C_13  and  S_29
    6  A    between atoms: N_15  and  P_20
    7  A    between atoms: P_20  and  O_24
    8  A    between atoms: C_21  and  C_22
    9  A    between atoms: C_22  and  O_26
   10  A    between atoms: C_23  and  C_38
   11  A    between atoms: O_26  and  C_32
                            x       y       z     vdW  Elec       q    Type
                         _______ _______ _______ _____ _____    ______ ____

>  <TORSDO>
F 11

$$$$
=
 OpenBabel11042416593D

 38 44  0  0  1  0  0  0  0  0999 V2000
  188.9880  177.2820  146.7970 S   0  0  0  0  0  0  0  0  0  0  0  0
  191.6020  175.2940  144.6360 C   0  0  2  0  0  3  0  0  0  0  0  0
  190.3680  175.8730  145.2630 C   0  0  0  0  0  0  0  0  0  0  0  0
  192.6210  175.5250  146.8730 N   0  0  0  0  0  0  0  0  0  0  0  0
  189.1520  175.9270  144.6620 N   0  0  0  0  0  0  0  0  0  0  0  0
  190.4710  176.5650  146.4590 C   0  0  0  0  0  0  0  0  0  0  0  0
  191.3860  173.9940  144.0330 N   0  0  0  0  0  0  0  0  0  0  0  0
  188.2750  176.6490  145.4010 C   0  0  0  0  0  0  0  0  0  0  0  0
  193.0300  173.5860  145.5490 N   0  0  0  0  0  0  0  0  0  0  0  0
  191.7910  176.7020  147.1700 C   0  0  1  0  0  3  0  0  0  0  0  0
  192.5810  174.9270  145.7130 C   0  0  0  0  0  0  0  0  0  0  0  0
  192.3340  173.0750  144.5860 C   0  0  0  0  0  3  0  0  0  0  0  0
  191.5960  176.8110  148.6710 C   0  0  0  0  0  1  0  0  0  0  0  0
  190.3110  171.5890  139.5990 C   0  0  0  0  0  2  0  0  0  0  0  0
  191.2420  172.7100  139.3800 N   0  0  0  0  0  0  0  0  0  0  0  0
  190.5590  173.7630  142.9190 N   0  0  2  0  0  0  0  0  0  0  0  0
  190.0820  171.5230  141.9130 C   0  0  2  0  0  3  0  0  0  0  0  0
  190.5430  173.4730  140.4450 C   0  0  1  0  0  3  0  0  0  0  0  0
  189.8980  172.4480  143.1100 C   0  0  2  0  0  3  0  0  0  0  0  0
  189.5890  172.3250  140.6900 C   0  0  1  0  0  0  0  0  0  0  0  0
  191.3840  173.8530  141.6970 C   0  0  0  0  0  2  0  0  0  0  0  0
  188.8340  172.2660  142.0300 C   0  0  1  0  0  3  0  0  0  0  0  0
  192.5700  172.2410  139.7730 C   0  0  0  0  0  2  0  0  0  0  0  0
  193.8220  172.9380  138.6530 S   0  0  0  0  0  0  0  0  0  0  0  0
  194.7300  173.7340  140.0120 C   0  0  0  0  0  2  0  0  0  0  0  0
  194.4250  175.1560  140.0440 N   0  0  0  0  0  2  0  0  0  0  0  0
  193.4820  176.6640  142.2200 O   0  0  0  0  0  0  0  0  0  0  0  0
  194.9610  174.5470  142.5870 O   0  0  0  0  0  1  0  0  0  0  0  0
  194.7780  175.7300  141.6630 P   0  0  1  0  0  0  0  0  0  0  0  0
  196.6170  176.7010  142.9910 C   0  0  0  0  0  1  0  0  0  0  0  0
  196.1980  176.6580  141.6600 O   0  0  0  0  0  0  0  0  0  0  0  0
  186.3020  178.0620  145.1860 C   0  0  0  0  0  3  0  0  0  0  0  0
  186.8800  176.8780  145.0200 C   0  0  0  0  0  3  0  0  0  0  0  0
  184.8810  178.2790  144.7880 C   0  0  1  0  0  3  0  0  0  0  0  0
  184.0710  178.6330  146.0200 C   0  0  0  0  0  1  0  0  0  0  0  0
  184.8010  179.3250  143.8650 O   0  0  0  0  0  0  0  0  0  0  0  0
  183.7040  177.9380  142.4280 O   0  0  0  0  0  1  0  0  0  0  0  0
  184.8540  178.7070  142.6140 C   0  0  0  0  0  2  0  0  0  0  0  0
  2  3  1  1  0  0  0
  2 11  1  0  0  0  0
  3  6  2  0  0  0  0
  4 10  1  0  0  0  0
  5  3  1  0  0  0  0
  5  8  2  0  0  0  0
  6  1  1  0  0  0  0
  6 10  1  0  0  0  0
  7 12  1  0  0  0  0
  7  2  1  0  0  0  0
  8  1  1  0  0  0  0
  9 11  1  0  0  0  0
 10 13  1  1  0  0  0
 11  4  2  0  0  0  0
 12  9  2  0  0  0  0
 14 20  1  0  0  0  0
 15 14  1  0  0  0  0
 15 23  1  0  0  0  0
 15 18  1  0  0  0  0
 16 21  1  6  0  0  0
 16 19  1  0  0  0  0
 16  7  1  0  0  0  0
 17 22  1  0  0  0  0
 17 19  1  0  0  0  0
 18 20  1  0  0  0  0
 18 21  1  0  0  0  0
 20 17  1  0  0  0  0
 20 22  1  0  0  0  0
 22 19  1  0  0  0  0
 24 23  1  0  0  0  0
 24 25  1  0  0  0  0
 25 26  1  0  0  0  0
 26 29  1  0  0  0  0
 29 27  2  0  0  0  0
 29 28  1  0  0  0  0
 31 29  1  0  0  0  0
 31 30  1  0  0  0  0
 33 32  2  0  0  0  0
 33  8  1  0  0  0  0
 34 32  1  0  0  0  0
 34 35  1  0  0  0  0
 36 34  1  0  0  0  0
 37 38  1  0  0  0  0
 38 36  1  0  0  0  0
M  END
>  <MODEL>
5

>  <REMARK>
 VINA RESULT:      -6.2      2.635      5.225
  Name = 
  11 active torsions:
  status: ('A' for Active; 'I' for Inactive)
    1  A    between atoms: N_6  and  C_8
    2  A    between atoms: C_8  and  S_29
    3  A    between atoms: N_11  and  N_18
    4  A    between atoms: C_13  and  N_15
    5  A    between atoms: C_13  and  S_29
    6  A    between atoms: N_15  and  P_20
    7  A    between atoms: P_20  and  O_24
    8  A    between atoms: C_21  and  C_22
    9  A    between atoms: C_22  and  O_26
   10  A    between atoms: C_23  and  C_38
   11  A    between atoms: O_26  and  C_32
                            x       y       z     vdW  Elec       q    Type
                         _______ _______ _______ _____ _____    ______ ____

>  <TORSDO>
F 11

$$$$
=
 OpenBabel11042416593D

 38 44  0  0  1  0  0  0  0  0999 V2000
  185.1750  178.3750  144.8630 S   0  0  0  0  0  0  0  0  0  0  0  0
  188.7110  176.6570  144.8630 C   0  0  2  0  0  3  0  0  0  0  0  0
  187.3150  177.1180  144.5680 C   0  0  0  0  0  0  0  0  0  0  0  0
  188.0960  176.9220  147.2400 N   0  0  0  0  0  0  0  0  0  0  0  0
  186.7370  177.0850  143.3390 N   0  0  0  0  0  0  0  0  0  0  0  0
  186.5970  177.7890  145.5440 C   0  0  0  0  0  0  0  0  0  0  0  0
  189.0190  175.3570  144.3020 N   0  0  0  0  0  0  0  0  0  0  0  0
  185.5370  177.7160  143.3490 C   0  0  0  0  0  0  0  0  0  0  0  0
  189.3900  175.0520  146.5240 N   0  0  0  0  0  0  0  0  0  0  0  0
  187.1730  178.0190  146.9170 C   0  0  1  0  0  3  0  0  0  0  0  0
  188.8330  176.3480  146.3270 C   0  0  0  0  0  0  0  0  0  0  0  0
  189.4860  174.5070  145.3540 C   0  0  0  0  0  3  0  0  0  0  0  0
  186.0790  178.0790  147.9660 C   0  0  0  0  0  1  0  0  0  0  0  0
  190.7140  172.5740  140.3040 C   0  0  0  0  0  2  0  0  0  0  0  0
  191.7230  173.5610  140.7260 N   0  0  0  0  0  0  0  0  0  0  0  0
  189.0860  175.0830  142.9230 N   0  0  2  0  0  0  0  0  0  0  0  0
  189.0370  172.8010  141.9000 C   0  0  2  0  0  3  0  0  0  0  0  0
  190.6290  174.5100  141.0540 C   0  0  1  0  0  3  0  0  0  0  0  0
  188.2670  173.8740  142.6620 C   0  0  2  0  0  3  0  0  0  0  0  0
  189.5820  173.5020  140.6370 C   0  0  1  0  0  0  0  0  0  0  0  0
  190.5070  174.9450  142.5420 C   0  0  0  0  0  2  0  0  0  0  0  0
  188.1420  173.6760  141.1530 C   0  0  1  0  0  3  0  0  0  0  0  0
  192.3900  173.0080  141.9040 C   0  0  0  0  0  2  0  0  0  0  0  0
  194.1830  173.2820  141.7770 S   0  0  0  0  0  0  0  0  0  0  0  0
  194.3400  173.6880  143.5430 C   0  0  0  0  0  2  0  0  0  0  0  0
  193.9490  175.0700  143.7690 N   0  0  0  0  0  2  0  0  0  0  0  0
  192.8870  174.0090  146.1450 O   0  0  0  0  0  1  0  0  0  0  0  0
  195.1560  175.2950  146.1390 O   0  0  0  0  0  0  0  0  0  0  0  0
  193.7860  175.2890  145.5010 P   0  0  1  0  0  0  0  0  0  0  0  0
  192.4360  177.1620  144.6290 C   0  0  0  0  0  1  0  0  0  0  0  0
  193.0120  176.7610  145.8360 O   0  0  0  0  0  0  0  0  0  0  0  0
  183.4200  178.2740  142.2810 C   0  0  0  0  0  3  0  0  0  0  0  0
  184.6700  177.8370  142.1760 C   0  0  0  0  0  3  0  0  0  0  0  0
  182.5510  178.3960  141.0750 C   0  0  1  0  0  3  0  0  0  0  0  0
  183.1310  177.5500  139.9590 C   0  0  0  0  0  1  0  0  0  0  0  0
  181.2600  177.9490  141.3720 O   0  0  0  0  0  0  0  0  0  0  0  0
  180.5870  180.0350  140.7510 O   0  0  0  0  0  1  0  0  0  0  0  0
  180.4230  178.6690  140.5180 C   0  0  0  0  0  2  0  0  0  0  0  0
  1  6  1  0  0  0  0
  2  3  1  1  0  0  0
  2 11  1  0  0  0  0
  3  6  2  0  0  0  0
  5  8  2  0  0  0  0
  5  3  1  0  0  0  0
  6 10  1  0  0  0  0
  7  2  1  0  0  0  0
  7 12  1  0  0  0  0
  8  1  1  0  0  0  0
 10  4  1  0  0  0  0
 10 13  1  1  0  0  0
 11  9  1  0  0  0  0
 11  4  2  0  0  0  0
 12  9  2  0  0  0  0
 14 20  1  0  0  0  0
 14 15  1  0  0  0  0
 15 18  1  0  0  0  0
 15 23  1  0  0  0  0
 16 21  1  1  0  0  0
 16  7  1  0  0  0  0
 17 19  1  0  0  0  0
 18 21  1  0  0  0  0
 19 16  1  0  0  0  0
 20 18  1  0  0  0  0
 20 22  1  0  0  0  0
 20 17  1  0  0  0  0
 22 17  1  0  0  0  0
 22 19  1  0  0  0  0
 24 23  1  0  0  0  0
 24 25  1  0  0  0  0
 25 26  1  0  0  0  0
 26 29  1  0  0  0  0
 29 31  1  0  0  0  0
 29 28  2  0  0  0  0
 29 27  1  0  0  0  0
 30 31  1  0  0  0  0
 33 32  2  0  0  0  0
 33  8  1  0  0  0  0
 34 36  1  0  0  0  0
 34 32  1  0  0  0  0
 35 34  1  0  0  0  0
 38 37  1  0  0  0  0
 38 36  1  0  0  0  0
M  END
>  <MODEL>
6

>  <REMARK>
 VINA RESULT:      -6.0      3.412      5.771
  Name = 
  11 active torsions:
  status: ('A' for Active; 'I' for Inactive)
    1  A    between atoms: N_6  and  C_8
    2  A    between atoms: C_8  and  S_29
    3  A    between atoms: N_11  and  N_18
    4  A    between atoms: C_13  and  N_15
    5  A    between atoms: C_13  and  S_29
    6  A    between atoms: N_15  and  P_20
    7  A    between atoms: P_20  and  O_24
    8  A    between atoms: C_21  and  C_22
    9  A    between atoms: C_22  and  O_26
   10  A    between atoms: C_23  and  C_38
   11  A    between atoms: O_26  and  C_32
                            x       y       z     vdW  Elec       q    Type
                         _______ _______ _______ _____ _____    ______ ____

>  <TORSDO>
F 11

$$$$
=
 OpenBabel11042416593D

 38 44  0  0  1  0  0  0  0  0999 V2000
  187.8750  174.8320  139.8880 S   0  0  0  0  0  0  0  0  0  0  0  0
  188.4500  177.0500  143.0830 C   0  0  2  0  0  3  0  0  0  0  0  0
  188.2900  175.9350  142.0920 C   0  0  0  0  0  0  0  0  0  0  0  0
  186.7510  178.2370  141.7410 N   0  0  0  0  0  0  0  0  0  0  0  0
  188.8250  174.6960  142.2340 N   0  0  0  0  0  0  0  0  0  0  0  0
  187.7170  176.1970  140.8580 C   0  0  0  0  0  0  0  0  0  0  0  0
  188.1880  176.6460  144.4500 N   0  0  0  0  0  0  0  0  0  0  0  0
  188.6520  173.9590  141.1090 C   0  0  0  0  0  0  0  0  0  0  0  0
  186.6980  178.3320  144.1220 N   0  0  0  0  0  0  0  0  0  0  0  0
  187.2020  177.5690  140.5120 C   0  0  1  0  0  3  0  0  0  0  0  0
  187.3490  178.0510  142.8870 C   0  0  0  0  0  0  0  0  0  0  0  0
  187.1940  177.5180  144.9970 C   0  0  0  0  0  3  0  0  0  0  0  0
  186.0460  177.4900  139.5320 C   0  0  0  0  0  1  0  0  0  0  0  0
  192.3390  175.4380  147.2630 C   0  0  0  0  0  2  0  0  0  0  0  0
  192.6560  175.4360  145.8250 N   0  0  0  0  0  0  0  0  0  0  0  0
  188.9700  175.7250  145.1700 N   0  0  2  0  0  0  0  0  0  0  0  0
  190.1410  176.2000  147.3290 C   0  0  2  0  0  3  0  0  0  0  0  0
  191.2950  174.9130  145.5440 C   0  0  1  0  0  3  0  0  0  0  0  0
  188.8070  176.0220  146.6140 C   0  0  2  0  0  3  0  0  0  0  0  0
  190.9500  174.9220  147.0160 C   0  0  1  0  0  0  0  0  0  0  0  0
  190.3640  175.8180  144.6880 C   0  0  0  0  0  2  0  0  0  0  0  0
  189.4670  174.9110  147.4270 C   0  0  1  0  0  3  0  0  0  0  0  0
  192.8390  176.8320  145.4300 C   0  0  0  0  0  2  0  0  0  0  0  0
  194.5540  177.3420  145.7570 S   0  0  0  0  0  0  0  0  0  0  0  0
  195.2470  175.9400  144.8280 C   0  0  0  0  0  2  0  0  0  0  0  0
  196.0860  176.4300  143.7460 N   0  0  0  0  0  2  0  0  0  0  0  0
  196.2480  176.5200  140.9410 O   0  0  0  0  0  0  0  0  0  0  0  0
  195.4210  174.3760  142.1770 O   0  0  0  0  0  1  0  0  0  0  0  0
  195.3700  175.8860  142.2410 P   0  0  1  0  0  0  0  0  0  0  0  0
  193.0100  175.2250  141.9460 C   0  0  0  0  0  1  0  0  0  0  0  0
  193.7530  176.3900  142.1440 O   0  0  0  0  0  0  0  0  0  0  0  0
  190.2980  172.2940  140.4350 C   0  0  0  0  0  3  0  0  0  0  0  0
  189.1120  172.5770  140.9610 C   0  0  0  0  0  3  0  0  0  0  0  0
  190.7520  170.8810  140.2940 C   0  0  1  0  0  3  0  0  0  0  0  0
  190.8930  170.5500  138.8220 C   0  0  0  0  0  1  0  0  0  0  0  0
  191.9870  170.7140  140.9270 O   0  0  0  0  0  0  0  0  0  0  0  0
  190.8690  168.9900  141.9120 O   0  0  0  0  0  1  0  0  0  0  0  0
  191.6900  170.0960  142.1430 C   0  0  0  0  0  2  0  0  0  0  0  0
  1  6  1  0  0  0  0
  1  8  1  0  0  0  0
  2  3  1  6  0  0  0
  2  7  1  0  0  0  0
  3  5  1  0  0  0  0
  4 11  2  0  0  0  0
  6  3  2  0  0  0  0
  7 12  1  0  0  0  0
  8  5  2  0  0  0  0
  9 12  2  0  0  0  0
 10 13  1  6  0  0  0
 10  6  1  0  0  0  0
 10  4  1  0  0  0  0
 11  2  1  0  0  0  0
 11  9  1  0  0  0  0
 15 14  1  0  0  0  0
 16  7  1  6  0  0  0
 16 19  1  0  0  0  0
 17 22  1  0  0  0  0
 18 15  1  0  0  0  0
 18 20  1  0  0  0  0
 19 17  1  0  0  0  0
 19 22  1  0  0  0  0
 20 14  1  0  0  0  0
 20 17  1  0  0  0  0
 20 22  1  0  0  0  0
 21 16  1  0  0  0  0
 21 18  1  0  0  0  0
 23 24  1  0  0  0  0
 23 15  1  0  0  0  0
 25 24  1  0  0  0  0
 26 25  1  0  0  0  0
 27 29  2  0  0  0  0
 28 29  1  0  0  0  0
 29 26  1  0  0  0  0
 30 31  1  0  0  0  0
 31 29  1  0  0  0  0
 32 33  2  0  0  0  0
 33  8  1  0  0  0  0
 34 32  1  0  0  0  0
 34 36  1  0  0  0  0
 35 34  1  0  0  0  0
 36 38  1  0  0  0  0
 37 38  1  0  0  0  0
M  END
>  <MODEL>
7

>  <REMARK>
 VINA RESULT:      -6.0      2.988      5.506
  Name = 
  11 active torsions:
  status: ('A' for Active; 'I' for Inactive)
    1  A    between atoms: N_6  and  C_8
    2  A    between atoms: C_8  and  S_29
    3  A    between atoms: N_11  and  N_18
    4  A    between atoms: C_13  and  N_15
    5  A    between atoms: C_13  and  S_29
    6  A    between atoms: N_15  and  P_20
    7  A    between atoms: P_20  and  O_24
    8  A    between atoms: C_21  and  C_22
    9  A    between atoms: C_22  and  O_26
   10  A    between atoms: C_23  and  C_38
   11  A    between atoms: O_26  and  C_32
                            x       y       z     vdW  Elec       q    Type
                         _______ _______ _______ _____ _____    ______ ____

>  <TORSDO>
F 11

$$$$
=
 OpenBabel11042416593D

 38 44  0  0  1  0  0  0  0  0999 V2000
  193.4210  172.5480  141.5190 S   0  0  0  0  0  0  0  0  0  0  0  0
  189.8810  173.9990  140.6140 C   0  0  2  0  0  3  0  0  0  0  0  0
  191.1990  173.6590  141.2430 C   0  0  0  0  0  0  0  0  0  0  0  0
  189.8670  171.6600  139.8230 N   0  0  0  0  0  0  0  0  0  0  0  0
  191.8680  174.4620  142.1110 N   0  0  0  0  0  0  0  0  0  0  0  0
  191.8990  172.5470  140.8040 C   0  0  0  0  0  0  0  0  0  0  0  0
  188.8980  174.4830  141.5630 N   0  0  0  0  0  0  0  0  0  0  0  0
  193.1010  173.9670  142.3810 C   0  0  0  0  0  0  0  0  0  0  0  0
  187.8720  172.6730  140.6460 N   0  0  0  0  0  0  0  0  0  0  0  0
  191.3340  171.6400  139.7420 C   0  0  1  0  0  3  0  0  0  0  0  0
  189.2080  172.7370  140.1580 C   0  0  0  0  0  0  0  0  0  0  0  0
  187.7200  173.6790  141.4460 C   0  0  0  0  0  3  0  0  0  0  0  0
  191.8270  170.2160  139.9190 C   0  0  0  0  0  1  0  0  0  0  0  0
  186.8650  178.3060  144.3650 C   0  0  0  0  0  2  0  0  0  0  0  0
  186.6400  178.5280  142.9260 N   0  0  0  0  0  0  0  0  0  0  0  0
  189.0110  175.6890  142.2780 N   0  0  2  0  0  0  0  0  0  0  0  0
  187.8580  176.2030  144.4370 C   0  0  2  0  0  3  0  0  0  0  0  0
  187.9650  177.9200  142.6450 C   0  0  1  0  0  3  0  0  0  0  0  0
  188.9160  175.3710  143.7230 C   0  0  2  0  0  3  0  0  0  0  0  0
  188.2040  177.6740  144.1180 C   0  0  1  0  0  0  0  0  0  0  0  0
  187.9690  176.6180  141.7940 C   0  0  0  0  0  2  0  0  0  0  0  0
  189.2500  176.6230  144.5310 C   0  0  1  0  0  3  0  0  0  0  0  0
  185.5140  177.6810  142.5370 C   0  0  0  0  0  2  0  0  0  0  0  0
  184.7970  178.2910  140.9800 S   0  0  0  0  0  0  0  0  0  0  0  0
  183.1050  178.2790  141.6460 C   0  0  0  0  0  2  0  0  0  0  0  0
  182.1440  178.3060  140.5550 N   0  0  0  0  0  2  0  0  0  0  0  0
  180.8800  179.4120  142.8090 O   0  0  0  0  0  1  0  0  0  0  0  0
  180.3110  180.2400  140.4020 O   0  0  0  0  0  0  0  0  0  0  0  0
  180.6590  178.9940  141.1840 P   0  0  1  0  0  0  0  0  0  0  0  0
  178.3430  178.4070  141.8010 C   0  0  0  0  0  1  0  0  0  0  0  0
  179.3900  177.8780  141.0450 O   0  0  0  0  0  0  0  0  0  0  0  0
  193.6470  175.3530  144.3080 C   0  0  0  0  0  3  0  0  0  0  0  0
  194.0550  174.6030  143.2900 C   0  0  0  0  0  3  0  0  0  0  0  0
  194.6320  175.9900  145.2280 C   0  0  1  0  0  3  0  0  0  0  0  0
  195.6200  176.8010  144.4110 C   0  0  0  0  0  1  0  0  0  0  0  0
  193.9700  176.8340  146.1240 O   0  0  0  0  0  0  0  0  0  0  0  0
  191.9070  176.7020  147.0820 O   0  0  0  0  0  1  0  0  0  0  0  0
  193.0860  176.0040  146.8160 C   0  0  0  0  0  2  0  0  0  0  0  0
  1  8  1  0  0  0  0
  2 11  1  1  0  0  0
  2  3  1  0  0  0  0
  2  7  1  0  0  0  0
  3  5  1  0  0  0  0
  4 11  2  0  0  0  0
  5  8  2  0  0  0  0
  6  3  2  0  0  0  0
  6  1  1  0  0  0  0
  8 33  1  0  0  0  0
  9 12  2  0  0  0  0
 10  4  1  0  0  0  0
 10 13  1  1  0  0  0
 10  6  1  0  0  0  0
 11  9  1  0  0  0  0
 12  7  1  0  0  0  0
 15 14  1  0  0  0  0
 16  7  1  6  0  0  0
 16 19  1  0  0  0  0
 17 22  1  0  0  0  0
 18 15  1  0  0  0  0
 18 20  1  0  0  0  0
 19 17  1  0  0  0  0
 19 22  1  0  0  0  0
 20 14  1  0  0  0  0
 20 17  1  0  0  0  0
 20 22  1  0  0  0  0
 21 16  1  0  0  0  0
 21 18  1  0  0  0  0
 23 15  1  0  0  0  0
 24 25  1  0  0  0  0
 24 23  1  0  0  0  0
 26 29  1  0  0  0  0
 26 25  1  0  0  0  0
 28 29  2  0  0  0  0
 29 27  1  0  0  0  0
 31 29  1  0  0  0  0
 31 30  1  0  0  0  0
 32 34  1  0  0  0  0
 33 32  2  0  0  0  0
 34 36  1  0  0  0  0
 35 34  1  0  0  0  0
 36 38  1  0  0  0  0
 38 37  1  0  0  0  0
M  END
>  <MODEL>
8

>  <REMARK>
 VINA RESULT:      -5.9      4.366      9.266
  Name = 
  11 active torsions:
  status: ('A' for Active; 'I' for Inactive)
    1  A    between atoms: N_6  and  C_8
    2  A    between atoms: C_8  and  S_29
    3  A    between atoms: N_11  and  N_18
    4  A    between atoms: C_13  and  N_15
    5  A    between atoms: C_13  and  S_29
    6  A    between atoms: N_15  and  P_20
    7  A    between atoms: P_20  and  O_24
    8  A    between atoms: C_21  and  C_22
    9  A    between atoms: C_22  and  O_26
   10  A    between atoms: C_23  and  C_38
   11  A    between atoms: O_26  and  C_32
                            x       y       z     vdW  Elec       q    Type
                         _______ _______ _______ _____ _____    ______ ____

>  <TORSDO>
F 11

$$$$
=
 OpenBabel11042416593D

 38 44  0  0  1  0  0  0  0  0999 V2000
  185.3260  178.5780  142.1620 S   0  0  0  0  0  0  0  0  0  0  0  0
  188.3650  177.3290  144.3210 C   0  0  2  0  0  3  0  0  0  0  0  0
  187.3190  177.5550  143.2690 C   0  0  0  0  0  0  0  0  0  0  0  0
  186.6070  177.9540  145.9380 N   0  0  0  0  0  0  0  0  0  0  0  0
  187.4600  177.2260  141.9600 N   0  0  0  0  0  0  0  0  0  0  0  0
  186.1950  178.3050  143.5760 C   0  0  0  0  0  0  0  0  0  0  0  0
  188.9290  175.9950  144.2940 N   0  0  0  0  0  0  0  0  0  0  0  0
  186.4240  177.6980  141.2250 C   0  0  0  0  0  0  0  0  0  0  0  0
  188.0990  176.1540  146.4040 N   0  0  0  0  0  0  0  0  0  0  0  0
  185.9760  178.8530  144.9610 C   0  0  1  0  0  3  0  0  0  0  0  0
  187.7150  177.3140  145.6740 C   0  0  0  0  0  0  0  0  0  0  0  0
  188.7900  175.4170  145.5960 C   0  0  0  0  0  3  0  0  0  0  0  0
  184.4970  178.9740  145.2750 C   0  0  0  0  0  1  0  0  0  0  0  0
  191.8350  172.2970  142.1770 C   0  0  0  0  0  2  0  0  0  0  0  0
  192.6300  173.1350  143.0910 N   0  0  0  0  0  0  0  0  0  0  0  0
  189.7000  175.4800  143.2360 N   0  0  2  0  0  0  0  0  0  0  0  0
  189.6710  173.1060  142.4480 C   0  0  2  0  0  3  0  0  0  0  0  0
  191.8300  174.3140  142.6750 C   0  0  1  0  0  3  0  0  0  0  0  0
  188.9060  174.4190  142.5700 C   0  0  2  0  0  3  0  0  0  0  0  0
  190.9970  173.4640  141.7420 C   0  0  1  0  0  0  0  0  0  0  0  0
  190.9920  175.0140  143.7830 C   0  0  0  0  0  2  0  0  0  0  0  0
  189.6230  173.9910  141.2910 C   0  0  1  0  0  3  0  0  0  0  0  0
  192.3350  172.6780  144.4490 C   0  0  0  0  0  2  0  0  0  0  0  0
  193.8490  172.0260  145.2170 S   0  0  0  0  0  0  0  0  0  0  0  0
  194.7560  173.5820  144.9720 C   0  0  0  0  0  2  0  0  0  0  0  0
  195.7650  173.4090  143.9390 N   0  0  0  0  0  2  0  0  0  0  0  0
  195.8400  174.6930  141.4390 O   0  0  0  0  0  0  0  0  0  0  0  0
  194.8100  175.8680  143.5280 O   0  0  0  0  0  1  0  0  0  0  0  0
  195.9320  174.9450  143.1100 P   0  0  1  0  0  0  0  0  0  0  0  0
  197.2840  177.0090  143.1520 C   0  0  0  0  0  1  0  0  0  0  0  0
  197.4180  175.6650  143.5020 O   0  0  0  0  0  0  0  0  0  0  0  0
  186.9400  176.5240  139.1540 C   0  0  0  0  0  3  0  0  0  0  0  0
  186.2870  177.4950  139.7820 C   0  0  0  0  0  3  0  0  0  0  0  0
  186.7860  176.3270  137.6840 C   0  0  1  0  0  3  0  0  0  0  0  0
  187.5860  175.1110  137.2600 C   0  0  0  0  0  1  0  0  0  0  0  0
  185.4390  176.1280  137.3700 O   0  0  0  0  0  0  0  0  0  0  0  0
  184.0850  175.8370  135.5610 O   0  0  0  0  0  1  0  0  0  0  0  0
  185.4040  176.0240  135.9780 C   0  0  0  0  0  2  0  0  0  0  0  0
  1  6  1  0  0  0  0
  2  3  1  6  0  0  0
  2 11  1  0  0  0  0
  3  6  2  0  0  0  0
  5  3  1  0  0  0  0
  6 10  1  0  0  0  0
  7  2  1  0  0  0  0
  7 12  1  0  0  0  0
  8  5  2  0  0  0  0
  8  1  1  0  0  0  0
 10 13  1  1  0  0  0
 10  4  1  0  0  0  0
 11  4  2  0  0  0  0
 11  9  1  0  0  0  0
 12  9  2  0  0  0  0
 14 15  1  0  0  0  0
 15 23  1  0  0  0  0
 16 21  1  1  0  0  0
 16  7  1  0  0  0  0
 17 19  1  0  0  0  0
 18 15  1  0  0  0  0
 18 21  1  0  0  0  0
 19 16  1  0  0  0  0
 20 14  1  0  0  0  0
 20 17  1  0  0  0  0
 20 18  1  0  0  0  0
 22 20  1  0  0  0  0
 22 17  1  0  0  0  0
 22 19  1  0  0  0  0
 23 24  1  0  0  0  0
 25 24  1  0  0  0  0
 26 25  1  0  0  0  0
 27 29  2  0  0  0  0
 29 31  1  0  0  0  0
 29 28  1  0  0  0  0
 29 26  1  0  0  0  0
 30 31  1  0  0  0  0
 32 33  2  0  0  0  0
 33  8  1  0  0  0  0
 34 32  1  0  0  0  0
 35 34  1  0  0  0  0
 36 34  1  0  0  0  0
 37 38  1  0  0  0  0
 38 36  1  0  0  0  0
M  END
>  <MODEL>
9

>  <REMARK>
 VINA RESULT:      -5.8      3.135      5.538
  Name = 
  11 active torsions:
  status: ('A' for Active; 'I' for Inactive)
    1  A    between atoms: N_6  and  C_8
    2  A    between atoms: C_8  and  S_29
    3  A    between atoms: N_11  and  N_18
    4  A    between atoms: C_13  and  N_15
    5  A    between atoms: C_13  and  S_29
    6  A    between atoms: N_15  and  P_20
    7  A    between atoms: P_20  and  O_24
    8  A    between atoms: C_21  and  C_22
    9  A    between atoms: C_22  and  O_26
   10  A    between atoms: C_23  and  C_38
   11  A    between atoms: O_26  and  C_32
                            x       y       z     vdW  Elec       q    Type
                         _______ _______ _______ _____ _____    ______ ____

>  <TORSDO>
F 11

$$$$
