=
 OpenBabel11042414433D

 36 38  0  0  1  0  0  0  0  0999 V2000
  189.7290  173.9800  145.7860 C   0  0  0  0  0  3  0  0  0  0  0  0
  190.7260  175.7710  144.4380 C   0  0  0  0  0  0  0  0  0  0  0  0
  189.1330  176.3440  146.2290 C   0  0  2  0  0  3  0  0  0  0  0  0
  190.3660  174.3360  144.6550 C   0  0  0  0  0  0  0  0  0  0  0  0
  189.4430  174.9780  146.8740 C   0  0  2  0  0  3  0  0  0  0  0  0
  190.6320  175.0350  147.8230 C   0  0  0  0  0  1  0  0  0  0  0  0
  190.1620  176.7190  145.1960 C   0  0  0  0  0  3  0  0  0  0  0  0
  188.8050  173.8660  139.5290 C   0  0  0  0  0  3  0  0  0  0  0  0
  190.1000  173.4450  142.2750 C   0  0  0  0  0  0  0  0  0  0  0  0
  191.5630  171.6540  142.3920 N   0  0  0  0  0  0  0  0  0  0  0  0
  189.2340  174.3340  141.9000 N   0  0  0  0  0  0  0  0  0  0  0  0
  187.7150  175.6770  140.5480 N   0  0  0  0  0  1  0  0  0  0  0  0
  189.6510  172.7310  139.3460 N   0  0  0  0  0  0  0  0  0  0  0  0
  190.5620  172.0530  140.2160 C   0  0  0  0  0  0  0  0  0  0  0  0
  190.7200  172.3870  141.5060 C   0  0  0  0  0  0  0  0  0  0  0  0
  191.5080  172.2530  143.7220 C   0  0  0  0  0  3  0  0  0  0  0  0
  190.5640  173.3600  143.6190 N   0  0  0  0  0  0  0  0  0  0  0  0
  188.6180  174.5830  140.6340 C   0  0  2  0  0  3  0  0  0  0  0  0
  190.6670  169.6430  139.5510 C   0  0  0  0  0  1  0  0  0  0  0  0
  192.5570  171.1420  138.9580 C   0  0  0  0  0  1  0  0  0  0  0  0
  191.2980  170.9470  139.6620 N   0  0  0  0  0  0  0  0  0  0  0  0
  191.7270  176.1690  143.4970 N   0  0  0  0  0  2  0  0  0  0  0  0
  192.8630  176.8980  143.8750 N   0  0  0  0  0  0  0  0  0  0  0  0
  193.9640  176.3160  144.2420 C   0  0  0  0  0  3  0  0  0  0  0  0
  194.1030  174.8280  144.3040 C   0  0  0  0  0  2  0  0  0  0  0  0
  193.9290  174.3460  145.7320 C   0  0  0  0  0  1  0  0  0  0  0  0
  188.8240  177.4690  147.2150 C   0  0  0  0  0  2  0  0  0  0  0  0
  187.4610  177.9570  147.0590 N   0  0  0  0  0  2  0  0  0  0  0  0
  186.5970  176.7940  146.9720 C   0  0  0  0  0  2  0  0  0  0  0  0
  185.5870  176.9860  145.8530 C   0  0  0  0  0  2  0  0  0  0  0  0
  186.0840  178.0200  144.8530 C   0  0  2  0  0  3  0  0  0  0  0  0
  185.4040  180.2910  144.0500 O   0  0  0  0  0  0  0  0  0  0  0  0
  183.9570  179.0030  145.2740 O   0  0  0  0  0  1  0  0  0  0  0  0
  185.0890  179.1260  144.7400 C   0  0  0  0  0  0  0  0  0  0  0  0
  186.3090  177.3930  143.4840 C   0  0  0  0  0  2  0  0  0  0  0  0
  185.0890  177.2040  142.8340 O   0  0  0  0  0  1  0  0  0  0  0  0
  1  5  1  0  0  0  0
  2  4  1  0  0  0  0
  2  7  2  0  0  0  0
  3  5  1  0  0  0  0
  3 27  1  1  0  0  0
  4  1  2  0  0  0  0
  5  6  1  1  0  0  0
  7  3  1  0  0  0  0
  8 18  1  0  0  0  0
  9 17  1  0  0  0  0
 10 16  2  0  0  0  0
 11  9  2  0  0  0  0
 13  8  2  0  0  0  0
 13 14  1  0  0  0  0
 14 15  2  0  0  0  0
 15  9  1  0  0  0  0
 15 10  1  0  0  0  0
 17 16  1  0  0  0  0
 17  4  1  0  0  0  0
 18 12  1  1  0  0  0
 18 11  1  0  0  0  0
 19 21  1  0  0  0  0
 20 21  1  0  0  0  0
 21 14  1  0  0  0  0
 22 23  1  0  0  0  0
 22  2  1  0  0  0  0
 23 24  2  0  0  0  0
 24 25  1  0  0  0  0
 25 26  1  0  0  0  0
 28 27  1  0  0  0  0
 29 28  1  0  0  0  0
 30 29  1  0  0  0  0
 31 35  1  6  0  0  0
 31 30  1  0  0  0  0
 32 34  2  0  0  0  0
 34 31  1  0  0  0  0
 34 33  1  0  0  0  0
 36 35  1  0  0  0  0
M  END
>  <MODEL>
1

>  <REMARK>
 VINA RESULT:      -6.2      0.000      0.000
  Name = 
  12 active torsions:
  status: ('A' for Active; 'I' for Inactive)
    1  A    between atoms: C_3  and  C_35
    2  A    between atoms: N_4  and  C_22
    3  A    between atoms: N_4  and  C_34
    4  A    between atoms: C_5  and  C_31
    5  A    between atoms: N_10  and  N_13
    6  A    between atoms: N_13  and  C_16
    7  A    between atoms: C_17  and  C_22
    8  A    between atoms: C_19  and  N_27
    9  A    between atoms: C_21  and  N_33
   10  A    between atoms: C_25  and  C_35
   11  A    between atoms: C_32  and  C_34
   12  A    between atoms: C_32  and  C_35
                            x       y       z     vdW  Elec       q    Type
                         _______ _______ _______ _____ _____    ______ ____

>  <TORSDO>
F 12

$$$$
=
 OpenBabel11042414433D

 36 38  0  0  1  0  0  0  0  0999 V2000
  189.0290  177.5300  142.2210 C   0  0  0  0  0  3  0  0  0  0  0  0
  188.2090  175.2430  142.5640 C   0  0  0  0  0  0  0  0  0  0  0  0
  186.6120  177.1210  142.5850 C   0  0  2  0  0  3  0  0  0  0  0  0
  189.3100  176.2550  142.5470 C   0  0  0  0  0  0  0  0  0  0  0  0
  187.6480  177.9460  141.7950 C   0  0  2  0  0  3  0  0  0  0  0  0
  187.5160  177.7640  140.2900 C   0  0  0  0  0  1  0  0  0  0  0  0
  186.9340  175.6500  142.5590 C   0  0  0  0  0  3  0  0  0  0  0  0
  191.8450  176.4270  147.2890 C   0  0  0  0  0  3  0  0  0  0  0  0
  191.1040  175.9880  144.3470 C   0  0  0  0  0  0  0  0  0  0  0  0
  192.7010  174.8630  143.1030 N   0  0  0  0  0  0  0  0  0  0  0  0
  190.4410  176.5940  145.2820 N   0  0  0  0  0  0  0  0  0  0  0  0
  189.7630  177.4990  147.4400 N   0  0  0  0  0  1  0  0  0  0  0  0
  192.9630  175.7230  146.7480 N   0  0  0  0  0  2  0  0  0  0  0  0
  193.2290  175.1790  145.4520 C   0  0  0  0  0  0  0  0  0  0  0  0
  192.3920  175.3310  144.4140 C   0  0  0  0  0  0  0  0  0  0  0  0
  191.6050  175.1930  142.1980 C   0  0  0  0  0  3  0  0  0  0  0  0
  190.6290  175.9180  143.0060 N   0  0  0  0  0  0  0  0  0  0  0  0
  190.7330  176.8070  146.6650 C   0  0  0  0  0  0  0  0  0  0  0  0
  194.4930  173.0240  145.3190 C   0  0  0  0  0  1  0  0  0  0  0  0
  195.6710  175.1480  144.7950 C   0  0  0  0  0  1  0  0  0  0  0  0
  194.4740  174.4760  145.2790 N   0  0  0  0  0  0  0  0  0  0  0  0
  188.4680  173.8380  142.4980 N   0  0  0  0  0  2  0  0  0  0  0  0
  187.7850  172.9910  141.6130 N   0  0  0  0  0  0  0  0  0  0  0  0
  188.2230  172.7510  140.4160 C   0  0  0  0  0  3  0  0  0  0  0  0
  189.4760  173.3670  139.8790 C   0  0  0  0  0  2  0  0  0  0  0  0
  190.1470  172.4190  138.9030 C   0  0  0  0  0  1  0  0  0  0  0  0
  185.1520  177.4300  142.2560 C   0  0  0  0  0  2  0  0  0  0  0  0
  184.4110  177.8370  143.4420 N   0  0  0  0  0  2  0  0  0  0  0  0
  185.0290  179.0540  143.9340 C   0  0  0  0  0  2  0  0  0  0  0  0
  184.7380  179.2140  145.4170 C   0  0  0  0  0  2  0  0  0  0  0  0
  185.9190  178.7390  146.2500 C   0  0  2  0  0  3  0  0  0  0  0  0
  184.7980  176.5320  146.6200 O   0  0  0  0  0  1  0  0  0  0  0  0
  187.0040  176.6330  146.0080 O   0  0  0  0  0  0  0  0  0  0  0  0
  185.9410  177.2480  146.2840 C   0  0  0  0  0  0  0  0  0  0  0  0
  185.8390  179.2810  147.6710 C   0  0  0  0  0  2  0  0  0  0  0  0
  187.0170  178.9960  148.3630 O   0  0  0  0  0  1  0  0  0  0  0  0
  1  4  2  0  0  0  0
  3 27  1  6  0  0  0
  4  2  1  0  0  0  0
  4 17  1  0  0  0  0
  5  6  1  6  0  0  0
  5  1  1  0  0  0  0
  5  3  1  0  0  0  0
  7  2  2  0  0  0  0
  7  3  1  0  0  0  0
  9 15  1  0  0  0  0
  9 11  2  0  0  0  0
 10 15  1  0  0  0  0
 11 18  1  0  0  0  0
 13  8  1  0  0  0  0
 14 13  1  0  0  0  0
 15 14  2  0  0  0  0
 16 17  1  0  0  0  0
 16 10  2  0  0  0  0
 17  9  1  0  0  0  0
 18  8  2  0  0  0  0
 18 12  1  0  0  0  0
 20 21  1  0  0  0  0
 21 19  1  0  0  0  0
 21 14  1  0  0  0  0
 22  2  1  0  0  0  0
 23 22  1  0  0  0  0
 24 23  2  0  0  0  0
 25 24  1  0  0  0  0
 26 25  1  0  0  0  0
 27 28  1  0  0  0  0
 28 29  1  0  0  0  0
 29 30  1  0  0  0  0
 31 30  1  6  0  0  0
 31 34  1  0  0  0  0
 31 35  1  0  0  0  0
 33 34  2  0  0  0  0
 34 32  1  0  0  0  0
 35 36  1  0  0  0  0
M  END
>  <MODEL>
2

>  <REMARK>
 VINA RESULT:      -6.2      2.328      5.685
  Name = 
  12 active torsions:
  status: ('A' for Active; 'I' for Inactive)
    1  A    between atoms: C_3  and  C_35
    2  A    between atoms: N_4  and  C_22
    3  A    between atoms: N_4  and  C_34
    4  A    between atoms: C_5  and  C_31
    5  A    between atoms: N_10  and  N_13
    6  A    between atoms: N_13  and  C_16
    7  A    between atoms: C_17  and  C_22
    8  A    between atoms: C_19  and  N_27
    9  A    between atoms: C_21  and  N_33
   10  A    between atoms: C_25  and  C_35
   11  A    between atoms: C_32  and  C_34
   12  A    between atoms: C_32  and  C_35
                            x       y       z     vdW  Elec       q    Type
                         _______ _______ _______ _____ _____    ______ ____

>  <TORSDO>
F 12

$$$$
=
 OpenBabel11042414433D

 36 38  0  0  1  0  0  0  0  0999 V2000
  189.6730  173.9240  145.7760 C   0  0  0  0  0  3  0  0  0  0  0  0
  190.3460  175.6700  144.1890 C   0  0  0  0  0  0  0  0  0  0  0  0
  188.7700  176.2210  146.0010 C   0  0  2  0  0  3  0  0  0  0  0  0
  190.2010  174.2330  144.5780 C   0  0  0  0  0  0  0  0  0  0  0  0
  189.2980  174.9910  146.7680 C   0  0  2  0  0  3  0  0  0  0  0  0
  190.5080  175.3150  147.6320 C   0  0  0  0  0  1  0  0  0  0  0  0
  189.6880  176.6120  144.8740 C   0  0  0  0  0  3  0  0  0  0  0  0
  194.1180  170.5840  144.0430 C   0  0  0  0  0  3  0  0  0  0  0  0
  191.5780  172.2650  143.7030 C   0  0  0  0  0  0  0  0  0  0  0  0
  190.1320  171.5160  142.0550 N   0  0  0  0  0  0  0  0  0  0  0  0
  192.5760  172.4360  144.5120 N   0  0  0  0  0  0  0  0  0  0  0  0
  194.6650  172.1230  145.7270 N   0  0  0  0  0  1  0  0  0  0  0  0
  193.4030  169.9300  142.9950 N   0  0  0  0  0  0  0  0  0  0  0  0
  192.1290  170.1750  142.3920 C   0  0  0  0  0  0  0  0  0  0  0  0
  191.3600  171.2250  142.7190 C   0  0  0  0  0  0  0  0  0  0  0  0
  189.5450  172.7250  142.6260 C   0  0  0  0  0  3  0  0  0  0  0  0
  190.4880  173.1820  143.6410 N   0  0  0  0  0  0  0  0  0  0  0  0
  193.7660  171.6730  144.7210 C   0  0  2  0  0  3  0  0  0  0  0  0
  192.3850  169.2340  140.0880 C   0  0  0  0  0  1  0  0  0  0  0  0
  190.7820  168.1660  141.6570 C   0  0  0  0  0  1  0  0  0  0  0  0
  191.6990  169.2580  141.3690 N   0  0  0  0  0  0  0  0  0  0  0  0
  191.2370  176.0890  143.1520 N   0  0  0  0  0  2  0  0  0  0  0  0
  192.5400  175.5820  143.0340 N   0  0  0  0  0  0  0  0  0  0  0  0
  193.4920  175.9370  143.8420 C   0  0  0  0  0  3  0  0  0  0  0  0
  193.2810  176.9210  144.9490 C   0  0  0  0  0  2  0  0  0  0  0  0
  193.7460  176.3320  146.2670 C   0  0  0  0  0  1  0  0  0  0  0  0
  188.3500  177.3980  146.8800 C   0  0  0  0  0  2  0  0  0  0  0  0
  186.9550  177.2920  147.2850 N   0  0  0  0  0  2  0  0  0  0  0  0
  186.2130  176.8020  146.1380 C   0  0  0  0  0  2  0  0  0  0  0  0
  185.5210  177.9610  145.4410 C   0  0  0  0  0  2  0  0  0  0  0  0
  185.6980  177.8620  143.9320 C   0  0  2  0  0  3  0  0  0  0  0  0
  183.5260  179.1070  143.9220 O   0  0  0  0  0  1  0  0  0  0  0  0
  184.2310  177.9740  142.0600 O   0  0  0  0  0  0  0  0  0  0  0  0
  184.4500  178.3150  143.2510 C   0  0  0  0  0  0  0  0  0  0  0  0
  186.0200  176.4350  143.5120 C   0  0  0  0  0  2  0  0  0  0  0  0
  187.0790  176.4270  142.6040 O   0  0  0  0  0  1  0  0  0  0  0  0
  1  5  1  0  0  0  0
  2  4  1  0  0  0  0
  2  7  2  0  0  0  0
  3  5  1  0  0  0  0
  3 27  1  1  0  0  0
  4  1  2  0  0  0  0
  5  6  1  6  0  0  0
  7  3  1  0  0  0  0
  8 18  1  0  0  0  0
  9 11  2  0  0  0  0
 10 16  2  0  0  0  0
 10 15  1  0  0  0  0
 11 18  1  0  0  0  0
 13  8  2  0  0  0  0
 14 15  2  0  0  0  0
 14 13  1  0  0  0  0
 15  9  1  0  0  0  0
 16 17  1  0  0  0  0
 17  9  1  0  0  0  0
 17  4  1  0  0  0  0
 18 12  1  6  0  0  0
 19 21  1  0  0  0  0
 21 20  1  0  0  0  0
 21 14  1  0  0  0  0
 22  2  1  0  0  0  0
 23 22  1  0  0  0  0
 23 24  2  0  0  0  0
 24 25  1  0  0  0  0
 25 26  1  0  0  0  0
 27 28  1  0  0  0  0
 29 28  1  0  0  0  0
 30 29  1  0  0  0  0
 31 35  1  1  0  0  0
 31 30  1  0  0  0  0
 33 34  2  0  0  0  0
 34 32  1  0  0  0  0
 34 31  1  0  0  0  0
 36 35  1  0  0  0  0
M  END
>  <MODEL>
3

>  <REMARK>
 VINA RESULT:      -6.2      1.723      3.140
  Name = 
  12 active torsions:
  status: ('A' for Active; 'I' for Inactive)
    1  A    between atoms: C_3  and  C_35
    2  A    between atoms: N_4  and  C_22
    3  A    between atoms: N_4  and  C_34
    4  A    between atoms: C_5  and  C_31
    5  A    between atoms: N_10  and  N_13
    6  A    between atoms: N_13  and  C_16
    7  A    between atoms: C_17  and  C_22
    8  A    between atoms: C_19  and  N_27
    9  A    between atoms: C_21  and  N_33
   10  A    between atoms: C_25  and  C_35
   11  A    between atoms: C_32  and  C_34
   12  A    between atoms: C_32  and  C_35
                            x       y       z     vdW  Elec       q    Type
                         _______ _______ _______ _____ _____    ______ ____

>  <TORSDO>
F 12

$$$$
=
 OpenBabel11042414433D

 36 38  0  0  1  0  0  0  0  0999 V2000
  193.3880  176.3930  143.6900 C   0  0  0  0  0  3  0  0  0  0  0  0
  192.2790  175.5810  145.7230 C   0  0  0  0  0  0  0  0  0  0  0  0
  194.5290  174.7510  145.1540 C   0  0  2  0  0  3  0  0  0  0  0  0
  192.2420  176.2320  144.3770 C   0  0  0  0  0  0  0  0  0  0  0  0
  194.7170  176.0060  144.2790 C   0  0  2  0  0  3  0  0  0  0  0  0
  195.2770  177.1860  145.0600 C   0  0  0  0  0  1  0  0  0  0  0  0
  193.3670  174.9000  146.1010 C   0  0  0  0  0  3  0  0  0  0  0  0
  188.2700  173.4020  142.1060 C   0  0  0  0  0  3  0  0  0  0  0  0
  190.0290  175.6390  143.2450 C   0  0  0  0  0  0  0  0  0  0  0  0
  189.0510  177.7390  143.2390 N   0  0  0  0  0  0  0  0  0  0  0  0
  190.2940  174.3800  143.0930 N   0  0  0  0  0  0  0  0  0  0  0  0
  190.0950  172.0050  142.5820 N   0  0  0  0  0  1  0  0  0  0  0  0
  187.4590  174.5720  142.0010 N   0  0  0  0  0  0  0  0  0  0  0  0
  187.6650  175.9310  142.3970 C   0  0  0  0  0  0  0  0  0  0  0  0
  188.8180  176.3680  142.9270 C   0  0  0  0  0  0  0  0  0  0  0  0
  190.3970  177.8930  143.7820 C   0  0  0  0  0  3  0  0  0  0  0  0
  190.9910  176.5610  143.7500 N   0  0  0  0  0  0  0  0  0  0  0  0
  189.5060  173.2990  142.5880 C   0  0  2  0  0  3  0  0  0  0  0  0
  186.3880  177.4270  140.8500 C   0  0  0  0  0  1  0  0  0  0  0  0
  185.5090  177.0230  143.1390 C   0  0  0  0  0  1  0  0  0  0  0  0
  186.5820  176.8520  142.1700 N   0  0  0  0  0  0  0  0  0  0  0  0
  191.2160  175.7300  146.6680 N   0  0  0  0  0  2  0  0  0  0  0  0
  190.1850  174.7870  146.7910 N   0  0  0  0  0  0  0  0  0  0  0  0
  188.9350  175.1330  146.8030 C   0  0  0  0  0  3  0  0  0  0  0  0
  188.4940  176.5590  146.7020 C   0  0  0  0  0  2  0  0  0  0  0  0
  186.9900  176.6290  146.5190 C   0  0  0  0  0  1  0  0  0  0  0  0
  195.8000  174.2370  145.8280 C   0  0  0  0  0  2  0  0  0  0  0  0
  196.8920  174.0990  144.8750 N   0  0  0  0  0  2  0  0  0  0  0  0
  197.3900  172.7400  144.9880 C   0  0  0  0  0  2  0  0  0  0  0  0
  196.6540  172.0150  146.1020 C   0  0  0  0  0  2  0  0  0  0  0  0
  196.4170  170.5590  145.7300 C   0  0  2  0  0  3  0  0  0  0  0  0
  194.6310  169.2730  144.5370 O   0  0  0  0  0  0  0  0  0  0  0  0
  194.1350  171.2300  145.6210 O   0  0  0  0  0  1  0  0  0  0  0  0
  195.0010  170.3760  145.2970 C   0  0  0  0  0  0  0  0  0  0  0  0
  196.7150  169.6380  146.9050 C   0  0  0  0  0  2  0  0  0  0  0  0
  197.2800  168.4450  146.4540 O   0  0  0  0  0  1  0  0  0  0  0  0
  1  5  1  0  0  0  0
  1  4  2  0  0  0  0
  2  7  2  0  0  0  0
  2 22  1  0  0  0  0
  3 27  1  1  0  0  0
  3  7  1  0  0  0  0
  4  2  1  0  0  0  0
  5  6  1  1  0  0  0
  5  3  1  0  0  0  0
  8 18  1  0  0  0  0
  9 17  1  0  0  0  0
 10 16  2  0  0  0  0
 11  9  2  0  0  0  0
 13  8  2  0  0  0  0
 13 14  1  0  0  0  0
 14 15  2  0  0  0  0
 15 10  1  0  0  0  0
 15  9  1  0  0  0  0
 17 16  1  0  0  0  0
 17  4  1  0  0  0  0
 18 12  1  6  0  0  0
 18 11  1  0  0  0  0
 19 21  1  0  0  0  0
 21 14  1  0  0  0  0
 21 20  1  0  0  0  0
 22 23  1  0  0  0  0
 23 24  2  0  0  0  0
 25 24  1  0  0  0  0
 26 25  1  0  0  0  0
 28 29  1  0  0  0  0
 28 27  1  0  0  0  0
 29 30  1  0  0  0  0
 31 30  1  1  0  0  0
 31 35  1  0  0  0  0
 32 34  2  0  0  0  0
 34 33  1  0  0  0  0
 34 31  1  0  0  0  0
 36 35  1  0  0  0  0
M  END
>  <MODEL>
4

>  <REMARK>
 VINA RESULT:      -6.1      4.516      8.053
  Name = 
  12 active torsions:
  status: ('A' for Active; 'I' for Inactive)
    1  A    between atoms: C_3  and  C_35
    2  A    between atoms: N_4  and  C_22
    3  A    between atoms: N_4  and  C_34
    4  A    between atoms: C_5  and  C_31
    5  A    between atoms: N_10  and  N_13
    6  A    between atoms: N_13  and  C_16
    7  A    between atoms: C_17  and  C_22
    8  A    between atoms: C_19  and  N_27
    9  A    between atoms: C_21  and  N_33
   10  A    between atoms: C_25  and  C_35
   11  A    between atoms: C_32  and  C_34
   12  A    between atoms: C_32  and  C_35
                            x       y       z     vdW  Elec       q    Type
                         _______ _______ _______ _____ _____    ______ ____

>  <TORSDO>
F 12

$$$$
=
 OpenBabel11042414433D

 36 38  0  0  1  0  0  0  0  0999 V2000
  192.1940  175.2830  147.3670 C   0  0  0  0  0  3  0  0  0  0  0  0
  192.1380  176.3340  145.1510 C   0  0  0  0  0  0  0  0  0  0  0  0
  190.0780  176.2360  146.4990 C   0  0  2  0  0  3  0  0  0  0  0  0
  192.7750  175.4350  146.1630 C   0  0  0  0  0  0  0  0  0  0  0  0
  190.9630  176.0570  147.7490 C   0  0  2  0  0  3  0  0  0  0  0  0
  191.3810  177.3850  148.3650 C   0  0  0  0  0  1  0  0  0  0  0  0
  190.8720  176.7310  145.3200 C   0  0  0  0  0  3  0  0  0  0  0  0
  193.5440  170.9810  143.2470 C   0  0  0  0  0  3  0  0  0  0  0  0
  193.9210  173.4870  144.9710 C   0  0  0  0  0  0  0  0  0  0  0  0
  196.1270  174.0530  145.3890 N   0  0  0  0  0  0  0  0  0  0  0  0
  192.8260  172.9090  144.5860 N   0  0  0  0  0  0  0  0  0  0  0  0
  191.2490  171.3950  143.5090 N   0  0  0  0  0  1  0  0  0  0  0  0
  194.9610  171.1220  143.3550 N   0  0  0  0  0  0  0  0  0  0  0  0
  195.7910  172.1060  143.9780 C   0  0  0  0  0  0  0  0  0  0  0  0
  195.2960  173.1260  144.6960 C   0  0  0  0  0  0  0  0  0  0  0  0
  195.2930  175.0280  146.0860 C   0  0  0  0  0  3  0  0  0  0  0  0
  193.9150  174.6300  145.8220 N   0  0  0  0  0  0  0  0  0  0  0  0
  192.5990  171.7570  143.7710 C   0  0  2  0  0  3  0  0  0  0  0  0
  197.9190  170.9910  144.6790 C   0  0  0  0  0  1  0  0  0  0  0  0
  197.9400  172.5030  142.7080 C   0  0  0  0  0  1  0  0  0  0  0  0
  197.2150  171.9460  143.8390 N   0  0  0  0  0  0  0  0  0  0  0  0
  192.8670  176.8610  144.0390 N   0  0  0  0  0  2  0  0  0  0  0  0
  192.7490  176.3280  142.7460 N   0  0  0  0  0  0  0  0  0  0  0  0
  193.7870  175.9830  142.0480 C   0  0  0  0  0  3  0  0  0  0  0  0
  195.1860  176.1400  142.5550 C   0  0  0  0  0  2  0  0  0  0  0  0
  196.0690  176.7360  141.4750 C   0  0  0  0  0  1  0  0  0  0  0  0
  188.7830  177.0130  146.7300 C   0  0  0  0  0  2  0  0  0  0  0  0
  187.6440  176.1190  146.8910 N   0  0  0  0  0  2  0  0  0  0  0  0
  186.4450  176.9310  146.7890 C   0  0  0  0  0  2  0  0  0  0  0  0
  185.9480  176.9360  145.3530 C   0  0  0  0  0  2  0  0  0  0  0  0
  186.3920  178.2030  144.6360 C   0  0  2  0  0  3  0  0  0  0  0  0
  184.0310  178.8570  145.1480 O   0  0  0  0  0  1  0  0  0  0  0  0
  185.4730  180.3520  144.1810 O   0  0  0  0  0  0  0  0  0  0  0  0
  185.2800  179.1970  144.6420 C   0  0  0  0  0  0  0  0  0  0  0  0
  186.8020  177.9030  143.2010 C   0  0  0  0  0  2  0  0  0  0  0  0
  188.1190  177.4440  143.1610 O   0  0  0  0  0  1  0  0  0  0  0  0
  1  5  1  0  0  0  0
  2  7  2  0  0  0  0
  2  4  1  0  0  0  0
  3 27  1  1  0  0  0
  3  5  1  0  0  0  0
  4  1  2  0  0  0  0
  5  6  1  6  0  0  0
  7  3  1  0  0  0  0
  8 13  2  0  0  0  0
  8 18  1  0  0  0  0
  9 17  1  0  0  0  0
 10 16  2  0  0  0  0
 11  9  2  0  0  0  0
 13 14  1  0  0  0  0
 14 15  2  0  0  0  0
 15  9  1  0  0  0  0
 15 10  1  0  0  0  0
 17 16  1  0  0  0  0
 17  4  1  0  0  0  0
 18 12  1  1  0  0  0
 18 11  1  0  0  0  0
 20 21  1  0  0  0  0
 21 14  1  0  0  0  0
 21 19  1  0  0  0  0
 22  2  1  0  0  0  0
 23 22  1  0  0  0  0
 24 25  1  0  0  0  0
 24 23  2  0  0  0  0
 26 25  1  0  0  0  0
 27 28  1  0  0  0  0
 29 28  1  0  0  0  0
 30 29  1  0  0  0  0
 31 35  1  6  0  0  0
 31 34  1  0  0  0  0
 31 30  1  0  0  0  0
 33 34  2  0  0  0  0
 34 32  1  0  0  0  0
 36 35  1  0  0  0  0
M  END
>  <MODEL>
5

>  <REMARK>
 VINA RESULT:      -6.0      2.724      4.230
  Name = 
  12 active torsions:
  status: ('A' for Active; 'I' for Inactive)
    1  A    between atoms: C_3  and  C_35
    2  A    between atoms: N_4  and  C_22
    3  A    between atoms: N_4  and  C_34
    4  A    between atoms: C_5  and  C_31
    5  A    between atoms: N_10  and  N_13
    6  A    between atoms: N_13  and  C_16
    7  A    between atoms: C_17  and  C_22
    8  A    between atoms: C_19  and  N_27
    9  A    between atoms: C_21  and  N_33
   10  A    between atoms: C_25  and  C_35
   11  A    between atoms: C_32  and  C_34
   12  A    between atoms: C_32  and  C_35
                            x       y       z     vdW  Elec       q    Type
                         _______ _______ _______ _____ _____    ______ ____

>  <TORSDO>
F 12

$$$$
=
 OpenBabel11042414433D

 36 38  0  0  1  0  0  0  0  0999 V2000
  189.6950  173.9150  145.5140 C   0  0  0  0  0  3  0  0  0  0  0  0
  190.7620  175.6620  144.1600 C   0  0  0  0  0  0  0  0  0  0  0  0
  189.0380  176.2860  145.8070 C   0  0  2  0  0  3  0  0  0  0  0  0
  190.4050  174.2320  144.4150 C   0  0  0  0  0  0  0  0  0  0  0  0
  189.3190  174.9550  146.5330 C   0  0  2  0  0  3  0  0  0  0  0  0
  190.4370  175.0720  147.5590 C   0  0  0  0  0  1  0  0  0  0  0  0
  190.1330  176.6320  144.8330 C   0  0  0  0  0  3  0  0  0  0  0  0
  189.0850  173.4340  139.2620 C   0  0  0  0  0  3  0  0  0  0  0  0
  190.2790  173.2110  142.0760 C   0  0  0  0  0  0  0  0  0  0  0  0
  191.8120  171.4960  142.3450 N   0  0  0  0  0  0  0  0  0  0  0  0
  189.3920  174.0400  141.6210 N   0  0  0  0  0  0  0  0  0  0  0  0
  187.8750  175.2420  140.1410 N   0  0  0  0  0  1  0  0  0  0  0  0
  189.9860  172.3300  139.1730 N   0  0  0  0  0  0  0  0  0  0  0  0
  190.8880  171.7390  140.1130 C   0  0  0  0  0  0  0  0  0  0  0  0
  190.9770  172.1440  141.3890 C   0  0  0  0  0  0  0  0  0  0  0  0
  191.6750  172.1580  143.6390 C   0  0  0  0  0  3  0  0  0  0  0  0
  190.6890  173.2150  143.4400 N   0  0  0  0  0  0  0  0  0  0  0  0
  188.8210  174.1960  140.3200 C   0  0  2  0  0  3  0  0  0  0  0  0
  191.1240  169.3060  139.5780 C   0  0  0  0  0  1  0  0  0  0  0  0
  192.9720  170.8570  138.9860 C   0  0  0  0  0  1  0  0  0  0  0  0
  191.6940  170.6410  139.6470 N   0  0  0  0  0  0  0  0  0  0  0  0
  191.8220  176.0330  143.2750 N   0  0  0  0  0  2  0  0  0  0  0  0
  193.1030  175.4680  143.3610 N   0  0  0  0  0  0  0  0  0  0  0  0
  193.9740  175.8730  144.2330 C   0  0  0  0  0  3  0  0  0  0  0  0
  193.6910  176.9770  145.2010 C   0  0  0  0  0  2  0  0  0  0  0  0
  194.0810  176.5540  146.6050 C   0  0  0  0  0  1  0  0  0  0  0  0
  188.6450  177.4480  146.7180 C   0  0  0  0  0  2  0  0  0  0  0  0
  187.4300  177.1540  147.4650 N   0  0  0  0  0  2  0  0  0  0  0  0
  186.3570  177.9150  146.8520 C   0  0  0  0  0  2  0  0  0  0  0  0
  185.5260  177.0060  145.9620 C   0  0  0  0  0  2  0  0  0  0  0  0
  185.2390  177.6790  144.6280 C   0  0  2  0  0  3  0  0  0  0  0  0
  187.2830  178.0130  143.2220 O   0  0  0  0  0  1  0  0  0  0  0  0
  186.0790  176.0690  143.0880 O   0  0  0  0  0  0  0  0  0  0  0  0
  186.2190  177.2060  143.6070 C   0  0  0  0  0  0  0  0  0  0  0  0
  185.3200  179.1940  144.7500 C   0  0  0  0  0  2  0  0  0  0  0  0
  184.3380  179.7960  143.9630 O   0  0  0  0  0  1  0  0  0  0  0  0
  1  5  1  0  0  0  0
  2  4  1  0  0  0  0
  2  7  2  0  0  0  0
  3  5  1  0  0  0  0
  3 27  1  1  0  0  0
  4  1  2  0  0  0  0
  5  6  1  1  0  0  0
  7  3  1  0  0  0  0
  8 18  1  0  0  0  0
  9 17  1  0  0  0  0
 10 16  2  0  0  0  0
 11  9  2  0  0  0  0
 13  8  2  0  0  0  0
 13 14  1  0  0  0  0
 14 15  2  0  0  0  0
 15  9  1  0  0  0  0
 15 10  1  0  0  0  0
 17 16  1  0  0  0  0
 17  4  1  0  0  0  0
 18 12  1  1  0  0  0
 18 11  1  0  0  0  0
 19 21  1  0  0  0  0
 20 21  1  0  0  0  0
 21 14  1  0  0  0  0
 22 23  1  0  0  0  0
 22  2  1  0  0  0  0
 23 24  2  0  0  0  0
 24 25  1  0  0  0  0
 25 26  1  0  0  0  0
 27 28  1  0  0  0  0
 29 28  1  0  0  0  0
 30 29  1  0  0  0  0
 31 35  1  1  0  0  0
 31 30  1  0  0  0  0
 32 34  1  0  0  0  0
 33 34  2  0  0  0  0
 34 31  1  0  0  0  0
 36 35  1  0  0  0  0
M  END
>  <MODEL>
6

>  <REMARK>
 VINA RESULT:      -6.0      0.855      1.384
  Name = 
  12 active torsions:
  status: ('A' for Active; 'I' for Inactive)
    1  A    between atoms: C_3  and  C_35
    2  A    between atoms: N_4  and  C_22
    3  A    between atoms: N_4  and  C_34
    4  A    between atoms: C_5  and  C_31
    5  A    between atoms: N_10  and  N_13
    6  A    between atoms: N_13  and  C_16
    7  A    between atoms: C_17  and  C_22
    8  A    between atoms: C_19  and  N_27
    9  A    between atoms: C_21  and  N_33
   10  A    between atoms: C_25  and  C_35
   11  A    between atoms: C_32  and  C_34
   12  A    between atoms: C_32  and  C_35
                            x       y       z     vdW  Elec       q    Type
                         _______ _______ _______ _____ _____    ______ ____

>  <TORSDO>
F 12

$$$$
=
 OpenBabel11042414433D

 36 38  0  0  1  0  0  0  0  0999 V2000
  189.8380  175.0730  146.5940 C   0  0  0  0  0  3  0  0  0  0  0  0
  189.3500  175.9830  144.3670 C   0  0  0  0  0  0  0  0  0  0  0  0
  187.9790  176.6840  146.2910 C   0  0  2  0  0  3  0  0  0  0  0  0
  189.9750  174.9580  145.2600 C   0  0  0  0  0  0  0  0  0  0  0  0
  189.1380  176.2530  147.2120 C   0  0  2  0  0  3  0  0  0  0  0  0
  190.1490  177.3670  147.4420 C   0  0  0  0  0  1  0  0  0  0  0  0
  188.4230  176.8130  144.8580 C   0  0  0  0  0  3  0  0  0  0  0  0
  194.9750  173.6620  143.7580 C   0  0  0  0  0  3  0  0  0  0  0  0
  191.9840  173.6180  144.4250 C   0  0  0  0  0  0  0  0  0  0  0  0
  190.9790  171.5400  144.2330 N   0  0  0  0  0  0  0  0  0  0  0  0
  192.8110  174.6160  144.4160 N   0  0  0  0  0  0  0  0  0  0  0  0
  194.8400  175.9540  144.2430 N   0  0  0  0  0  1  0  0  0  0  0  0
  194.5960  172.2980  143.5750 N   0  0  0  0  0  0  0  0  0  0  0  0
  193.3610  171.6030  143.7680 C   0  0  0  0  0  0  0  0  0  0  0  0
  192.2270  172.2220  144.1270 C   0  0  0  0  0  0  0  0  0  0  0  0
  189.9390  172.4860  144.6240 C   0  0  0  0  0  3  0  0  0  0  0  0
  190.5990  173.7850  144.7130 N   0  0  0  0  0  0  0  0  0  0  0  0
  194.2100  174.6840  144.1340 C   0  0  2  0  0  3  0  0  0  0  0  0
  193.4850  169.2590  144.6370 C   0  0  0  0  0  1  0  0  0  0  0  0
  192.9750  169.6300  142.2340 C   0  0  0  0  0  1  0  0  0  0  0  0
  193.3630  170.1840  143.5230 N   0  0  0  0  0  0  0  0  0  0  0  0
  189.7700  176.1670  143.0130 N   0  0  0  0  0  2  0  0  0  0  0  0
  188.8580  176.3840  141.9690 N   0  0  0  0  0  0  0  0  0  0  0  0
  188.3080  175.4020  141.3220 C   0  0  0  0  0  3  0  0  0  0  0  0
  188.6110  173.9690  141.6260 C   0  0  0  0  0  2  0  0  0  0  0  0
  188.2660  173.0980  140.4330 C   0  0  0  0  0  1  0  0  0  0  0  0
  187.1710  177.8820  146.7880 C   0  0  0  0  0  2  0  0  0  0  0  0
  185.8640  177.4760  147.2860 N   0  0  0  0  0  2  0  0  0  0  0  0
  185.0730  177.0770  146.1350 C   0  0  0  0  0  2  0  0  0  0  0  0
  184.3960  178.2950  145.5300 C   0  0  0  0  0  2  0  0  0  0  0  0
  184.5710  178.3110  144.0180 C   0  0  2  0  0  3  0  0  0  0  0  0
  185.6480  180.5570  144.2640 O   0  0  0  0  0  1  0  0  0  0  0  0
  186.4590  179.0320  142.7590 O   0  0  0  0  0  0  0  0  0  0  0  0
  185.6110  179.3130  143.6450 C   0  0  0  0  0  0  0  0  0  0  0  0
  183.2620  178.6480  143.3190 C   0  0  0  0  0  2  0  0  0  0  0  0
  183.3180  178.2690  141.9780 O   0  0  0  0  0  1  0  0  0  0  0  0
  1  5  1  0  0  0  0
  2  7  2  0  0  0  0
  2  4  1  0  0  0  0
  3 27  1  1  0  0  0
  3  5  1  0  0  0  0
  4  1  2  0  0  0  0
  5  6  1  6  0  0  0
  7  3  1  0  0  0  0
  8 18  1  0  0  0  0
  9 17  1  0  0  0  0
 10 16  2  0  0  0  0
 11  9  2  0  0  0  0
 13  8  2  0  0  0  0
 13 14  1  0  0  0  0
 14 15  2  0  0  0  0
 15 10  1  0  0  0  0
 15  9  1  0  0  0  0
 16 17  1  0  0  0  0
 17  4  1  0  0  0  0
 18 12  1  6  0  0  0
 18 11  1  0  0  0  0
 20 21  1  0  0  0  0
 21 14  1  0  0  0  0
 21 19  1  0  0  0  0
 22  2  1  0  0  0  0
 23 22  1  0  0  0  0
 24 25  1  0  0  0  0
 24 23  2  0  0  0  0
 26 25  1  0  0  0  0
 27 28  1  0  0  0  0
 29 28  1  0  0  0  0
 30 29  1  0  0  0  0
 31 35  1  6  0  0  0
 31 30  1  0  0  0  0
 33 34  2  0  0  0  0
 34 31  1  0  0  0  0
 34 32  1  0  0  0  0
 36 35  1  0  0  0  0
M  END
>  <MODEL>
7

>  <REMARK>
 VINA RESULT:      -5.9      2.040      3.968
  Name = 
  12 active torsions:
  status: ('A' for Active; 'I' for Inactive)
    1  A    between atoms: C_3  and  C_35
    2  A    between atoms: N_4  and  C_22
    3  A    between atoms: N_4  and  C_34
    4  A    between atoms: C_5  and  C_31
    5  A    between atoms: N_10  and  N_13
    6  A    between atoms: N_13  and  C_16
    7  A    between atoms: C_17  and  C_22
    8  A    between atoms: C_19  and  N_27
    9  A    between atoms: C_21  and  N_33
   10  A    between atoms: C_25  and  C_35
   11  A    between atoms: C_32  and  C_34
   12  A    between atoms: C_32  and  C_35
                            x       y       z     vdW  Elec       q    Type
                         _______ _______ _______ _____ _____    ______ ____

>  <TORSDO>
F 12

$$$$
=
 OpenBabel11042414433D

 36 38  0  0  1  0  0  0  0  0999 V2000
  190.6090  173.2860  141.7940 C   0  0  0  0  0  3  0  0  0  0  0  0
  190.0930  174.0080  144.0820 C   0  0  0  0  0  0  0  0  0  0  0  0
  189.2890  175.3480  142.1760 C   0  0  2  0  0  3  0  0  0  0  0  0
  190.8980  173.2090  143.1070 C   0  0  0  0  0  0  0  0  0  0  0  0
  189.4440  174.0940  141.2930 C   0  0  2  0  0  3  0  0  0  0  0  0
  188.1970  173.2210  141.2910 C   0  0  0  0  0  1  0  0  0  0  0  0
  189.3160  175.0040  143.6420 C   0  0  0  0  0  3  0  0  0  0  0  0
  195.4930  174.4660  145.6060 C   0  0  0  0  0  3  0  0  0  0  0  0
  193.1760  172.9920  144.2450 C   0  0  0  0  0  0  0  0  0  0  0  0
  193.3640  170.6840  144.2420 N   0  0  0  0  0  0  0  0  0  0  0  0
  193.3710  174.2660  144.3880 N   0  0  0  0  0  0  0  0  0  0  0  0
  194.3180  176.4160  145.0340 N   0  0  0  0  0  1  0  0  0  0  0  0
  195.8310  173.0860  145.7370 N   0  0  0  0  0  2  0  0  0  0  0  0
  195.1530  171.8830  145.3620 C   0  0  0  0  0  0  0  0  0  0  0  0
  193.9920  171.8820  144.6910 C   0  0  0  0  0  0  0  0  0  0  0  0
  192.1320  171.0160  143.5320 C   0  0  0  0  0  3  0  0  0  0  0  0
  192.0560  172.4730  143.5330 N   0  0  0  0  0  0  0  0  0  0  0  0
  194.4180  174.9980  145.0280 C   0  0  0  0  0  0  0  0  0  0  0  0
  197.1090  170.3330  145.1770 C   0  0  0  0  0  1  0  0  0  0  0  0
  195.2840  169.7890  146.7730 C   0  0  0  0  0  1  0  0  0  0  0  0
  195.7900  170.6380  145.7040 N   0  0  0  0  0  0  0  0  0  0  0  0
  190.0580  173.6910  145.4760 N   0  0  0  0  0  2  0  0  0  0  0  0
  189.3060  174.4390  146.3950 N   0  0  0  0  0  0  0  0  0  0  0  0
  189.8640  175.2570  147.2340 C   0  0  0  0  0  3  0  0  0  0  0  0
  191.3450  175.4570  147.2990 C   0  0  0  0  0  2  0  0  0  0  0  0
  191.6660  176.7560  148.0130 C   0  0  0  0  0  1  0  0  0  0  0  0
  188.1360  176.2730  141.7900 C   0  0  0  0  0  2  0  0  0  0  0  0
  187.2330  176.4990  142.9100 N   0  0  0  0  0  2  0  0  0  0  0  0
  187.0890  177.9350  143.0590 C   0  0  0  0  0  2  0  0  0  0  0  0
  186.8370  178.2780  144.5180 C   0  0  0  0  0  2  0  0  0  0  0  0
  185.6720  177.4670  145.0670 C   0  0  2  0  0  3  0  0  0  0  0  0
  183.8560  178.9220  144.1450 O   0  0  0  0  0  0  0  0  0  0  0  0
  184.0520  178.5890  146.4030 O   0  0  0  0  0  1  0  0  0  0  0  0
  184.4850  178.3530  145.2460 C   0  0  0  0  0  0  0  0  0  0  0  0
  186.0330  176.8220  146.3970 C   0  0  0  0  0  2  0  0  0  0  0  0
  187.2080  177.3790  146.9020 O   0  0  0  0  0  1  0  0  0  0  0  0
  1  4  2  0  0  0  0
  2 22  1  0  0  0  0
  3 27  1  6  0  0  0
  3  7  1  0  0  0  0
  4 17  1  0  0  0  0
  4  2  1  0  0  0  0
  5  6  1  1  0  0  0
  5  1  1  0  0  0  0
  5  3  1  0  0  0  0
  7  2  2  0  0  0  0
  8 13  1  0  0  0  0
  9 11  2  0  0  0  0
  9 15  1  0  0  0  0
 10 15  1  0  0  0  0
 11 18  1  0  0  0  0
 14 21  1  0  0  0  0
 14 13  1  0  0  0  0
 15 14  2  0  0  0  0
 16 17  1  0  0  0  0
 16 10  2  0  0  0  0
 17  9  1  0  0  0  0
 18 12  1  0  0  0  0
 18  8  2  0  0  0  0
 19 21  1  0  0  0  0
 21 20  1  0  0  0  0
 22 23  1  0  0  0  0
 23 24  2  0  0  0  0
 24 25  1  0  0  0  0
 25 26  1  0  0  0  0
 27 28  1  0  0  0  0
 28 29  1  0  0  0  0
 29 30  1  0  0  0  0
 31 30  1  1  0  0  0
 31 34  1  0  0  0  0
 31 35  1  0  0  0  0
 32 34  2  0  0  0  0
 34 33  1  0  0  0  0
 35 36  1  0  0  0  0
M  END
>  <MODEL>
8

>  <REMARK>
 VINA RESULT:      -5.9      2.453      5.103
  Name = 
  12 active torsions:
  status: ('A' for Active; 'I' for Inactive)
    1  A    between atoms: C_3  and  C_35
    2  A    between atoms: N_4  and  C_22
    3  A    between atoms: N_4  and  C_34
    4  A    between atoms: C_5  and  C_31
    5  A    between atoms: N_10  and  N_13
    6  A    between atoms: N_13  and  C_16
    7  A    between atoms: C_17  and  C_22
    8  A    between atoms: C_19  and  N_27
    9  A    between atoms: C_21  and  N_33
   10  A    between atoms: C_25  and  C_35
   11  A    between atoms: C_32  and  C_34
   12  A    between atoms: C_32  and  C_35
                            x       y       z     vdW  Elec       q    Type
                         _______ _______ _______ _____ _____    ______ ____

>  <TORSDO>
F 12

$$$$
=
 OpenBabel11042414433D

 36 38  0  0  1  0  0  0  0  0999 V2000
  192.0010  177.0100  143.6120 C   0  0  0  0  0  3  0  0  0  0  0  0
  191.6190  174.7380  144.4580 C   0  0  0  0  0  0  0  0  0  0  0  0
  190.6350  176.6570  145.6500 C   0  0  2  0  0  3  0  0  0  0  0  0
  192.3830  175.7190  143.6270 C   0  0  0  0  0  0  0  0  0  0  0  0
  190.7740  177.4730  144.3490 C   0  0  2  0  0  3  0  0  0  0  0  0
  189.5640  177.3340  143.4380 C   0  0  0  0  0  1  0  0  0  0  0  0
  190.7760  175.1790  145.3990 C   0  0  0  0  0  3  0  0  0  0  0  0
  193.5560  173.5330  138.8540 C   0  0  0  0  0  3  0  0  0  0  0  0
  193.7020  174.8060  141.6380 C   0  0  0  0  0  0  0  0  0  0  0  0
  195.8450  175.3060  142.3640 N   0  0  0  0  0  0  0  0  0  0  0  0
  192.6680  174.3980  140.9730 N   0  0  0  0  0  0  0  0  0  0  0  0
  191.2370  173.5030  139.2140 N   0  0  0  0  0  1  0  0  0  0  0  0
  194.9510  173.7480  139.0670 N   0  0  0  0  0  0  0  0  0  0  0  0
  195.6850  174.3490  140.1380 C   0  0  0  0  0  0  0  0  0  0  0  0
  195.1010  174.7890  141.2630 C   0  0  0  0  0  0  0  0  0  0  0  0
  194.9280  175.6820  143.4360 C   0  0  0  0  0  3  0  0  0  0  0  0
  193.5950  175.3340  142.9570 N   0  0  0  0  0  0  0  0  0  0  0  0
  192.5460  173.8190  139.6720 C   0  0  2  0  0  3  0  0  0  0  0  0
  197.9410  173.2730  140.2510 C   0  0  0  0  0  1  0  0  0  0  0  0
  197.7430  175.5650  139.3150 C   0  0  0  0  0  1  0  0  0  0  0  0
  197.1140  174.4370  139.9850 N   0  0  0  0  0  0  0  0  0  0  0  0
  191.6920  173.3280  144.2270 N   0  0  0  0  0  2  0  0  0  0  0  0
  190.6780  172.4490  144.6350 N   0  0  0  0  0  0  0  0  0  0  0  0
  189.7370  172.0630  143.8280 C   0  0  0  0  0  3  0  0  0  0  0  0
  189.6500  172.5330  142.4110 C   0  0  0  0  0  2  0  0  0  0  0  0
  188.7090  173.7190  142.3100 C   0  0  0  0  0  1  0  0  0  0  0  0
  189.4240  177.0140  146.5100 C   0  0  0  0  0  2  0  0  0  0  0  0
  188.4420  175.9390  146.5240 N   0  0  0  0  0  2  0  0  0  0  0  0
  187.1590  176.5350  146.8500 C   0  0  0  0  0  2  0  0  0  0  0  0
  186.4250  176.9030  145.5710 C   0  0  0  0  0  2  0  0  0  0  0  0
  186.1790  178.4030  145.5070 C   0  0  2  0  0  3  0  0  0  0  0  0
  185.9370  179.7110  147.6280 O   0  0  0  0  0  1  0  0  0  0  0  0
  184.2230  178.3960  146.8650 O   0  0  0  0  0  0  0  0  0  0  0  0
  185.3900  178.8330  146.6990 C   0  0  0  0  0  0  0  0  0  0  0  0
  185.4300  178.7810  144.2360 C   0  0  0  0  0  2  0  0  0  0  0  0
  185.5570  180.1480  143.9890 O   0  0  0  0  0  1  0  0  0  0  0  0
  1  4  2  0  0  0  0
  1  5  1  0  0  0  0
  2  7  2  0  0  0  0
  3 27  1  6  0  0  0
  4  2  1  0  0  0  0
  5  6  1  6  0  0  0
  5  3  1  0  0  0  0
  7  3  1  0  0  0  0
  8 13  2  0  0  0  0
  8 18  1  0  0  0  0
  9 17  1  0  0  0  0
 10 16  2  0  0  0  0
 11  9  2  0  0  0  0
 13 14  1  0  0  0  0
 14 15  2  0  0  0  0
 15  9  1  0  0  0  0
 15 10  1  0  0  0  0
 17 16  1  0  0  0  0
 17  4  1  0  0  0  0
 18 12  1  1  0  0  0
 18 11  1  0  0  0  0
 20 21  1  0  0  0  0
 21 14  1  0  0  0  0
 21 19  1  0  0  0  0
 22  2  1  0  0  0  0
 22 23  1  0  0  0  0
 24 23  2  0  0  0  0
 25 24  1  0  0  0  0
 26 25  1  0  0  0  0
 27 28  1  0  0  0  0
 28 29  1  0  0  0  0
 30 29  1  0  0  0  0
 31 35  1  6  0  0  0
 31 30  1  0  0  0  0
 31 34  1  0  0  0  0
 34 33  2  0  0  0  0
 34 32  1  0  0  0  0
 36 35  1  0  0  0  0
M  END
>  <MODEL>
9

>  <REMARK>
 VINA RESULT:      -5.9      2.732      4.262
  Name = 
  12 active torsions:
  status: ('A' for Active; 'I' for Inactive)
    1  A    between atoms: C_3  and  C_35
    2  A    between atoms: N_4  and  C_22
    3  A    between atoms: N_4  and  C_34
    4  A    between atoms: C_5  and  C_31
    5  A    between atoms: N_10  and  N_13
    6  A    between atoms: N_13  and  C_16
    7  A    between atoms: C_17  and  C_22
    8  A    between atoms: C_19  and  N_27
    9  A    between atoms: C_21  and  N_33
   10  A    between atoms: C_25  and  C_35
   11  A    between atoms: C_32  and  C_34
   12  A    between atoms: C_32  and  C_35
                            x       y       z     vdW  Elec       q    Type
                         _______ _______ _______ _____ _____    ______ ____

>  <TORSDO>
F 12

$$$$
