=
 OpenBabel11042418583D

 41 45  0  0  1  0  0  0  0  0999 V2000
  189.8270  177.3550  145.4640 C   0  0  0  0  0  3  0  0  0  0  0  0
  188.7980  175.4000  146.0820 C   0  0  0  0  0  3  0  0  0  0  0  0
  189.7520  175.0440  145.2390 C   0  0  0  0  0  0  0  0  0  0  0  0
  188.8540  176.8480  146.2010 C   0  0  0  0  0  0  0  0  0  0  0  0
  190.5120  176.2420  144.7400 C   0  0  2  0  0  3  0  0  0  0  0  0
  195.0860  176.1510  143.0860 N   0  0  0  0  0  0  0  0  0  0  0  0
  194.0200  176.1630  142.0740 C   0  0  0  0  0  2  0  0  0  0  0  0
  192.4190  176.4130  146.3350 C   0  0  0  0  0  3  0  0  0  0  0  0
  191.9770  176.1820  145.0870 C   0  0  0  0  0  0  0  0  0  0  0  0
  193.8890  176.3620  146.6900 C   0  0  0  0  0  2  0  0  0  0  0  0
  194.4010  175.7800  144.3210 C   0  0  2  0  0  3  0  0  0  0  0  0
  195.9790  175.0550  142.7480 C   0  0  0  0  0  1  0  0  0  0  0  0
  192.7530  176.2100  142.7820 N   0  0  0  0  0  2  0  0  0  0  0  0
  192.9720  175.9760  144.0210 C   0  0  2  0  0  3  0  0  0  0  0  0
  194.7810  176.6950  145.4850 C   0  0  0  0  0  2  0  0  0  0  0  0
  187.9800  177.6590  147.0930 C   0  0  0  0  0  2  0  0  0  0  0  0
  186.5510  177.1470  147.0210 C   0  0  0  0  0  2  0  0  0  0  0  0
  184.6990  178.5100  147.6430 O   0  0  0  0  0  1  0  0  0  0  0  0
  185.6110  178.2700  146.6140 C   0  0  2  0  0  3  0  0  0  0  0  0
  184.8680  177.8900  145.3810 C   0  0  0  0  0  3  0  0  0  0  0  0
  185.4110  178.0660  144.1840 C   0  0  0  0  0  3  0  0  0  0  0  0
  183.5440  178.4020  142.5620 C   0  0  0  0  0  0  0  0  0  0  0  0
  183.1050  179.3840  143.2240 O   0  0  0  0  0  0  0  0  0  0  0  0
  184.6940  177.6850  143.0130 N   0  0  0  0  0  2  0  0  0  0  0  0
  182.9110  177.9990  141.3820 O   0  0  0  0  0  0  0  0  0  0  0  0
  181.7180  178.6140  140.9070 C   0  0  0  0  0  2  0  0  0  0  0  0
  179.9360  179.0520  142.4320 O   0  0  0  0  0  0  0  0  0  0  0  0
  179.5710  177.5850  140.6990 O   0  0  0  0  0  0  0  0  0  0  0  0
  178.5700  178.7760  142.4170 C   0  0  0  0  0  2  0  0  0  0  0  0
  180.5060  178.0540  141.6300 C   0  0  0  0  0  3  0  0  0  0  0  0
  178.3460  177.7630  141.3330 C   0  0  0  0  0  2  0  0  0  0  0  0
  190.0040  173.6140  144.8670 C   0  0  0  0  0  2  0  0  0  0  0  0
  190.2980  173.4550  143.3830 C   0  0  0  0  0  2  0  0  0  0  0  0
  190.4090  173.3860  139.8360 O   0  0  0  0  0  1  0  0  0  0  0  0
  189.1660  173.6230  140.4210 C   0  0  2  0  0  3  0  0  0  0  0  0
  189.3000  174.7000  141.4850 C   0  0  2  0  0  3  0  0  0  0  0  0
  188.9100  172.5940  141.5050 C   0  0  0  0  0  2  0  0  0  0  0  0
  189.0350  173.6720  142.5690 C   0  0  1  0  0  3  0  0  0  0  0  0
  187.1390  175.4590  142.8930 O   0  0  0  0  0  1  0  0  0  0  0  0
  188.7270  177.3090  142.0810 O   0  0  0  0  0  1  0  0  0  0  0  0
  187.8980  175.9380  141.4060 P   0  0  0  0  0  0  0  0  0  0  0  0
  1  4  2  0  0  0  0
  2  4  1  0  0  0  0
  3  2  2  0  0  0  0
  4 16  1  0  0  0  0
  5  9  1  1  0  0  0
  5  3  1  0  0  0  0
  5  1  1  0  0  0  0
  6 11  1  0  0  0  0
  7 13  1  0  0  0  0
  7  6  1  0  0  0  0
  8 10  1  0  0  0  0
  9  8  2  0  0  0  0
 11 15  1  1  0  0  0
 12  6  1  0  0  0  0
 14 13  1  6  0  0  0
 14 11  1  0  0  0  0
 14  9  1  0  0  0  0
 15 10  1  0  0  0  0
 17 16  1  0  0  0  0
 19 17  1  0  0  0  0
 19 18  1  1  0  0  0
 20 19  1  0  0  0  0
 21 20  2  0  0  0  0
 22 24  1  0  0  0  0
 22 23  2  0  0  0  0
 24 21  1  0  0  0  0
 25 22  1  0  0  0  0
 26 25  1  0  0  0  0
 26 30  1  0  0  0  0
 28 31  1  0  0  0  0
 28 30  1  0  0  0  0
 29 27  1  0  0  0  0
 30 27  1  0  0  0  0
 31 29  1  0  0  0  0
 32  3  1  0  0  0  0
 33 32  1  0  0  0  0
 35 34  1  1  0  0  0
 35 36  1  0  0  0  0
 35 37  1  0  0  0  0
 36 41  1  6  0  0  0
 36 38  1  0  0  0  0
 37 38  1  0  0  0  0
 38 33  1  1  0  0  0
 41 40  1  0  0  0  0
 41 39  1  0  0  0  0
M  END
>  <MODEL>
1

>  <REMARK>
 VINA RESULT:      -7.5      0.000      0.000
  Name = 
  13 active torsions:
  status: ('A' for Active; 'I' for Inactive)
    1  A    between atoms: C_1  and  C_20
    2  A    between atoms: C_1  and  C_33
    3  A    between atoms: C_5  and  C_15
    4  A    between atoms: C_5  and  C_36
    5  A    between atoms: C_10  and  C_15
    6  A    between atoms: C_12  and  O_28
    7  A    between atoms: C_12  and  C_34
    8  A    between atoms: C_13  and  C_22
    9  A    between atoms: C_14  and  O_28
   10  A    between atoms: C_24  and  P_25
   11  A    between atoms: C_33  and  C_41
   12  A    between atoms: N_35  and  C_40
   13  A    between atoms: C_37  and  C_41
                            x       y       z     vdW  Elec       q    Type
                         _______ _______ _______ _____ _____    ______ ____

>  <TORSDO>
F 13

$$$$
=
 OpenBabel11042418583D

 41 45  0  0  1  0  0  0  0  0999 V2000
  189.6750  176.8350  146.0750 C   0  0  0  0  0  3  0  0  0  0  0  0
  188.0840  176.3960  144.4810 C   0  0  0  0  0  3  0  0  0  0  0  0
  189.2340  176.4350  143.8300 C   0  0  0  0  0  0  0  0  0  0  0  0
  188.3780  176.6580  145.8800 C   0  0  0  0  0  0  0  0  0  0  0  0
  190.3770  176.7280  144.7610 C   0  0  2  0  0  3  0  0  0  0  0  0
  195.0710  175.5460  145.2470 N   0  0  0  0  0  0  0  0  0  0  0  0
  194.7450  176.9780  145.2970 C   0  0  0  0  0  2  0  0  0  0  0  0
  191.0540  174.3330  144.8870 C   0  0  0  0  0  3  0  0  0  0  0  0
  191.4050  175.6260  144.7770 C   0  0  0  0  0  0  0  0  0  0  0  0
  192.0800  173.2210  144.9110 C   0  0  0  0  0  2  0  0  0  0  0  0
  193.8800  174.9280  144.6710 C   0  0  2  0  0  3  0  0  0  0  0  0
  196.1430  175.3900  144.2760 C   0  0  0  0  0  1  0  0  0  0  0  0
  193.3040  177.0980  145.1540 N   0  0  0  0  0  2  0  0  0  0  0  0
  192.8380  175.9630  144.7860 C   0  0  2  0  0  3  0  0  0  0  0  0
  193.4310  173.7000  145.4620 C   0  0  0  0  0  2  0  0  0  0  0  0
  187.3680  176.6570  146.9730 C   0  0  0  0  0  2  0  0  0  0  0  0
  185.9840  176.9030  146.3970 C   0  0  0  0  0  2  0  0  0  0  0  0
  185.3230  178.8640  147.5760 O   0  0  0  0  0  1  0  0  0  0  0  0
  185.7040  178.3950  146.3190 C   0  0  2  0  0  3  0  0  0  0  0  0
  184.6080  178.6570  145.3460 C   0  0  0  0  0  3  0  0  0  0  0  0
  184.6910  178.2130  144.1000 C   0  0  0  0  0  3  0  0  0  0  0  0
  183.7670  178.2260  141.7810 C   0  0  0  0  0  0  0  0  0  0  0  0
  184.8680  177.8260  141.3070 O   0  0  0  0  0  0  0  0  0  0  0  0
  183.6280  178.4590  143.1830 N   0  0  0  0  0  2  0  0  0  0  0  0
  182.6710  178.4500  140.9420 O   0  0  0  0  0  0  0  0  0  0  0  0
  181.3290  178.4390  141.4180 C   0  0  0  0  0  2  0  0  0  0  0  0
  179.2140  177.8660  140.4750 O   0  0  0  0  0  0  0  0  0  0  0  0
  180.0050  180.0070  140.1930 O   0  0  0  0  0  0  0  0  0  0  0  0
  178.1720  178.6130  139.9300 C   0  0  0  0  0  2  0  0  0  0  0  0
  180.3560  178.6530  140.2730 C   0  0  0  0  0  3  0  0  0  0  0  0
  178.7130  179.9900  139.6790 C   0  0  0  0  0  2  0  0  0  0  0  0
  189.3290  176.2070  142.3510 C   0  0  0  0  0  2  0  0  0  0  0  0
  188.2780  175.2240  141.8580 C   0  0  0  0  0  2  0  0  0  0  0  0
  189.1160  171.9830  143.0370 O   0  0  0  0  0  1  0  0  0  0  0  0
  189.3980  172.2570  141.6990 C   0  0  2  0  0  3  0  0  0  0  0  0
  190.1220  173.5890  141.5930 C   0  0  2  0  0  3  0  0  0  0  0  0
  188.1800  172.8760  141.0390 C   0  0  0  0  0  2  0  0  0  0  0  0
  188.9080  174.2050  140.9250 C   0  0  1  0  0  3  0  0  0  0  0  0
  191.7450  171.7840  140.4370 O   0  0  0  0  0  1  0  0  0  0  0  0
  190.6510  173.5370  138.9080 O   0  0  0  0  0  1  0  0  0  0  0  0
  191.5570  173.5100  140.3920 P   0  0  0  0  0  0  0  0  0  0  0  0
  2  4  1  0  0  0  0
  3  2  2  0  0  0  0
  3  5  1  0  0  0  0
  4  1  2  0  0  0  0
  4 16  1  0  0  0  0
  5  9  1  1  0  0  0
  5  1  1  0  0  0  0
  6  7  1  0  0  0  0
  8 10  1  0  0  0  0
  9  8  2  0  0  0  0
 10 15  1  0  0  0  0
 11 14  1  0  0  0  0
 11  6  1  0  0  0  0
 11 15  1  1  0  0  0
 12  6  1  0  0  0  0
 13  7  1  0  0  0  0
 14  9  1  1  0  0  0
 14 13  1  0  0  0  0
 17 16  1  0  0  0  0
 19 17  1  0  0  0  0
 19 18  1  1  0  0  0
 20 19  1  0  0  0  0
 21 20  2  0  0  0  0
 22 24  1  0  0  0  0
 23 22  2  0  0  0  0
 24 21  1  0  0  0  0
 25 26  1  0  0  0  0
 25 22  1  0  0  0  0
 28 30  1  0  0  0  0
 29 27  1  0  0  0  0
 30 27  1  0  0  0  0
 30 26  1  0  0  0  0
 31 29  1  0  0  0  0
 31 28  1  0  0  0  0
 32  3  1  0  0  0  0
 33 32  1  0  0  0  0
 35 34  1  1  0  0  0
 36 41  1  6  0  0  0
 36 35  1  0  0  0  0
 37 35  1  0  0  0  0
 38 37  1  0  0  0  0
 38 36  1  0  0  0  0
 38 33  1  1  0  0  0
 40 41  1  0  0  0  0
 41 39  1  0  0  0  0
M  END
>  <MODEL>
2

>  <REMARK>
 VINA RESULT:      -7.4      1.746      2.487
  Name = 
  13 active torsions:
  status: ('A' for Active; 'I' for Inactive)
    1  A    between atoms: C_1  and  C_20
    2  A    between atoms: C_1  and  C_33
    3  A    between atoms: C_5  and  C_15
    4  A    between atoms: C_5  and  C_36
    5  A    between atoms: C_10  and  C_15
    6  A    between atoms: C_12  and  O_28
    7  A    between atoms: C_12  and  C_34
    8  A    between atoms: C_13  and  C_22
    9  A    between atoms: C_14  and  O_28
   10  A    between atoms: C_24  and  P_25
   11  A    between atoms: C_33  and  C_41
   12  A    between atoms: N_35  and  C_40
   13  A    between atoms: C_37  and  C_41
                            x       y       z     vdW  Elec       q    Type
                         _______ _______ _______ _____ _____    ______ ____

>  <TORSDO>
F 13

$$$$
=
 OpenBabel11042418583D

 41 45  0  0  1  0  0  0  0  0999 V2000
  191.6540  175.9480  144.9950 C   0  0  0  0  0  3  0  0  0  0  0  0
  190.7270  176.3010  147.0640 C   0  0  0  0  0  3  0  0  0  0  0  0
  189.7080  176.0490  146.2600 C   0  0  0  0  0  0  0  0  0  0  0  0
  191.9320  176.2440  146.2540 C   0  0  0  0  0  0  0  0  0  0  0  0
  190.1740  175.8050  144.8520 C   0  0  2  0  0  3  0  0  0  0  0  0
  189.2630  172.9900  140.9900 N   0  0  0  0  0  0  0  0  0  0  0  0
  189.5450  174.4070  140.7190 C   0  0  0  0  0  2  0  0  0  0  0  0
  189.8690  173.3480  145.1420 C   0  0  0  0  0  3  0  0  0  0  0  0
  189.8020  174.4340  144.3510 C   0  0  0  0  0  0  0  0  0  0  0  0
  189.5050  171.9670  144.6460 C   0  0  0  0  0  2  0  0  0  0  0  0
  188.9670  172.9510  142.4190 C   0  0  2  0  0  3  0  0  0  0  0  0
  188.0310  172.6620  140.2910 C   0  0  0  0  0  1  0  0  0  0  0  0
  189.8050  175.0470  141.9980 N   0  0  0  0  0  2  0  0  0  0  0  0
  189.4620  174.2410  142.9310 C   0  0  2  0  0  3  0  0  0  0  0  0
  189.7200  171.8280  143.1310 C   0  0  0  0  0  2  0  0  0  0  0  0
  193.3140  176.4220  146.7780 C   0  0  0  0  0  2  0  0  0  0  0  0
  194.1330  177.2530  145.8050 C   0  0  0  0  0  2  0  0  0  0  0  0
  194.9870  176.2720  143.8100 O   0  0  0  0  0  1  0  0  0  0  0  0
  195.2260  176.4030  145.1770 C   0  0  2  0  0  3  0  0  0  0  0  0
  195.2410  175.0520  145.8030 C   0  0  0  0  0  3  0  0  0  0  0  0
  195.5070  173.9750  145.0770 C   0  0  0  0  0  3  0  0  0  0  0  0
  194.4540  171.7620  145.5540 C   0  0  0  0  0  0  0  0  0  0  0  0
  193.4180  172.0810  144.9050 O   0  0  0  0  0  0  0  0  0  0  0  0
  195.5310  172.6890  145.6920 N   0  0  0  0  0  2  0  0  0  0  0  0
  194.5600  170.5020  146.1500 O   0  0  0  0  0  0  0  0  0  0  0  0
  195.4640  169.5080  145.6800 C   0  0  0  0  0  2  0  0  0  0  0  0
  193.4300  168.4740  144.9810 O   0  0  0  0  0  0  0  0  0  0  0  0
  194.9280  169.1590  143.3770 O   0  0  0  0  0  0  0  0  0  0  0  0
  192.7860  168.3560  143.7510 C   0  0  0  0  0  2  0  0  0  0  0  0
  194.7870  168.6120  144.6590 C   0  0  0  0  0  3  0  0  0  0  0  0
  193.7900  168.7330  142.7010 C   0  0  0  0  0  2  0  0  0  0  0  0
  188.2900  176.0200  146.7440 C   0  0  0  0  0  2  0  0  0  0  0  0
  187.6980  177.4160  146.8600 C   0  0  0  0  0  2  0  0  0  0  0  0
  184.1840  177.5420  146.3730 O   0  0  0  0  0  1  0  0  0  0  0  0
  184.9820  177.9070  145.2890 C   0  0  2  0  0  3  0  0  0  0  0  0
  186.0650  176.8620  145.0780 C   0  0  2  0  0  3  0  0  0  0  0  0
  186.0370  178.8980  145.7460 C   0  0  0  0  0  2  0  0  0  0  0  0
  187.1210  177.8560  145.5260 C   0  0  1  0  0  3  0  0  0  0  0  0
  185.0000  177.4500  142.6810 O   0  0  0  0  0  1  0  0  0  0  0  0
  187.5580  177.5770  142.8980 O   0  0  0  0  0  1  0  0  0  0  0  0
  186.2900  176.4460  143.2670 P   0  0  0  0  0  0  0  0  0  0  0  0
  1  4  2  0  0  0  0
  3 32  1  0  0  0  0
  3  2  2  0  0  0  0
  4 16  1  0  0  0  0
  4  2  1  0  0  0  0
  5  9  1  1  0  0  0
  5  1  1  0  0  0  0
  5  3  1  0  0  0  0
  6 11  1  0  0  0  0
  7  6  1  0  0  0  0
  7 13  1  0  0  0  0
  9  8  2  0  0  0  0
 10  8  1  0  0  0  0
 11 14  1  0  0  0  0
 11 15  1  1  0  0  0
 12  6  1  0  0  0  0
 14 13  1  6  0  0  0
 14  9  1  0  0  0  0
 15 10  1  0  0  0  0
 17 16  1  0  0  0  0
 19 18  1  6  0  0  0
 19 20  1  0  0  0  0
 19 17  1  0  0  0  0
 21 24  1  0  0  0  0
 21 20  2  0  0  0  0
 22 24  1  0  0  0  0
 22 25  1  0  0  0  0
 23 22  2  0  0  0  0
 26 25  1  0  0  0  0
 28 30  1  0  0  0  0
 29 27  1  0  0  0  0
 30 27  1  0  0  0  0
 30 26  1  0  0  0  0
 31 28  1  0  0  0  0
 31 29  1  0  0  0  0
 32 33  1  0  0  0  0
 35 37  1  0  0  0  0
 35 34  1  1  0  0  0
 36 41  1  6  0  0  0
 36 35  1  0  0  0  0
 36 38  1  0  0  0  0
 38 37  1  0  0  0  0
 38 33  1  1  0  0  0
 39 41  1  0  0  0  0
 40 41  1  0  0  0  0
M  END
>  <MODEL>
3

>  <REMARK>
 VINA RESULT:      -7.3      3.606      9.629
  Name = 
  13 active torsions:
  status: ('A' for Active; 'I' for Inactive)
    1  A    between atoms: C_1  and  C_20
    2  A    between atoms: C_1  and  C_33
    3  A    between atoms: C_5  and  C_15
    4  A    between atoms: C_5  and  C_36
    5  A    between atoms: C_10  and  C_15
    6  A    between atoms: C_12  and  O_28
    7  A    between atoms: C_12  and  C_34
    8  A    between atoms: C_13  and  C_22
    9  A    between atoms: C_14  and  O_28
   10  A    between atoms: C_24  and  P_25
   11  A    between atoms: C_33  and  C_41
   12  A    between atoms: N_35  and  C_40
   13  A    between atoms: C_37  and  C_41
                            x       y       z     vdW  Elec       q    Type
                         _______ _______ _______ _____ _____    ______ ____

>  <TORSDO>
F 13

$$$$
=
 OpenBabel11042418583D

 41 45  0  0  1  0  0  0  0  0999 V2000
  188.0080  175.8310  146.0120 C   0  0  0  0  0  3  0  0  0  0  0  0
  189.1700  177.8070  145.9090 C   0  0  0  0  0  3  0  0  0  0  0  0
  189.9530  176.9080  145.3380 C   0  0  0  0  0  0  0  0  0  0  0  0
  187.9640  177.1140  146.3330 C   0  0  0  0  0  0  0  0  0  0  0  0
  189.3130  175.5470  145.3440 C   0  0  2  0  0  3  0  0  0  0  0  0
  190.0410  171.8320  142.2890 N   0  0  0  0  0  0  0  0  0  0  0  0
  190.6160  171.6990  143.6350 C   0  0  0  0  0  2  0  0  0  0  0  0
  188.2360  175.5500  143.0970 C   0  0  0  0  0  3  0  0  0  0  0  0
  189.1110  174.9980  143.9560 C   0  0  0  0  0  0  0  0  0  0  0  0
  188.0210  175.0010  141.7040 C   0  0  0  0  0  2  0  0  0  0  0  0
  189.7380  173.2550  142.1690 C   0  0  2  0  0  3  0  0  0  0  0  0
  191.1060  171.5410  141.3430 C   0  0  0  0  0  1  0  0  0  0  0  0
  190.2640  172.8990  144.3750 N   0  0  0  0  0  2  0  0  0  0  0  0
  189.7990  173.7610  143.5510 C   0  0  2  0  0  3  0  0  0  0  0  0
  188.3310  173.4990  141.6260 C   0  0  0  0  0  2  0  0  0  0  0  0
  186.7940  177.7680  146.9790 C   0  0  0  0  0  2  0  0  0  0  0  0
  185.5450  177.5300  146.1480 C   0  0  0  0  0  2  0  0  0  0  0  0
  186.0070  179.6430  145.1500 O   0  0  0  0  0  1  0  0  0  0  0  0
  185.6070  178.3380  144.8620 C   0  0  2  0  0  3  0  0  0  0  0  0
  184.2670  178.3690  144.2140 C   0  0  0  0  0  3  0  0  0  0  0  0
  184.1550  178.3910  142.8930 C   0  0  0  0  0  3  0  0  0  0  0  0
  182.6810  178.1760  140.8900 C   0  0  0  0  0  0  0  0  0  0  0  0
  183.6790  177.9900  140.1380 O   0  0  0  0  0  0  0  0  0  0  0  0
  182.8650  178.4060  142.2880 N   0  0  0  0  0  2  0  0  0  0  0  0
  181.3840  178.1650  140.3680 O   0  0  0  0  0  0  0  0  0  0  0  0
  180.4870  179.2590  140.5250 C   0  0  0  0  0  2  0  0  0  0  0  0
  178.6660  177.7890  140.0610 O   0  0  0  0  0  0  0  0  0  0  0  0
  179.1870  178.2440  142.2540 O   0  0  0  0  0  0  0  0  0  0  0  0
  177.9130  176.9160  140.8440 C   0  0  0  0  0  2  0  0  0  0  0  0
  179.1180  178.7680  140.9570 C   0  0  0  0  0  3  0  0  0  0  0  0
  178.1990  177.2650  142.2750 C   0  0  0  0  0  2  0  0  0  0  0  0
  191.2960  177.2550  144.7710 C   0  0  0  0  0  2  0  0  0  0  0  0
  192.4160  176.4660  145.4330 C   0  0  0  0  0  2  0  0  0  0  0  0
  195.6030  175.0360  146.0630 O   0  0  0  0  0  1  0  0  0  0  0  0
  194.9710  174.6650  144.8760 C   0  0  2  0  0  3  0  0  0  0  0  0
  194.4660  175.9060  144.1580 C   0  0  2  0  0  3  0  0  0  0  0  0
  193.5380  174.2610  145.1680 C   0  0  0  0  0  2  0  0  0  0  0  0
  193.0330  175.4960  144.4410 C   0  0  1  0  0  3  0  0  0  0  0  0
  196.5150  176.1530  142.4340 O   0  0  0  0  0  1  0  0  0  0  0  0
  194.9770  174.1130  142.1530 O   0  0  0  0  0  1  0  0  0  0  0  0
  194.8110  175.8360  142.3180 P   0  0  0  0  0  0  0  0  0  0  0  0
  1  4  2  0  0  0  0
  2  4  1  0  0  0  0
  3  5  1  0  0  0  0
  3  2  2  0  0  0  0
  4 16  1  0  0  0  0
  5  9  1  6  0  0  0
  5  1  1  0  0  0  0
  6  7  1  0  0  0  0
  7 13  1  0  0  0  0
  8  9  2  0  0  0  0
 10  8  1  0  0  0  0
 11 15  1  1  0  0  0
 11  6  1  0  0  0  0
 11 14  1  0  0  0  0
 12  6  1  0  0  0  0
 14  9  1  1  0  0  0
 14 13  1  0  0  0  0
 15 10  1  0  0  0  0
 17 16  1  0  0  0  0
 19 18  1  1  0  0  0
 19 17  1  0  0  0  0
 20 19  1  0  0  0  0
 21 20  2  0  0  0  0
 22 24  1  0  0  0  0
 23 22  2  0  0  0  0
 24 21  1  0  0  0  0
 25 26  1  0  0  0  0
 25 22  1  0  0  0  0
 26 30  1  0  0  0  0
 27 29  1  0  0  0  0
 27 30  1  0  0  0  0
 28 31  1  0  0  0  0
 29 31  1  0  0  0  0
 30 28  1  0  0  0  0
 32  3  1  0  0  0  0
 32 33  1  0  0  0  0
 35 37  1  0  0  0  0
 35 34  1  1  0  0  0
 36 41  1  6  0  0  0
 36 38  1  0  0  0  0
 36 35  1  0  0  0  0
 38 37  1  0  0  0  0
 38 33  1  1  0  0  0
 40 41  1  0  0  0  0
 41 39  1  0  0  0  0
M  END
>  <MODEL>
4

>  <REMARK>
 VINA RESULT:      -7.3      2.730      4.625
  Name = 
  13 active torsions:
  status: ('A' for Active; 'I' for Inactive)
    1  A    between atoms: C_1  and  C_20
    2  A    between atoms: C_1  and  C_33
    3  A    between atoms: C_5  and  C_15
    4  A    between atoms: C_5  and  C_36
    5  A    between atoms: C_10  and  C_15
    6  A    between atoms: C_12  and  O_28
    7  A    between atoms: C_12  and  C_34
    8  A    between atoms: C_13  and  C_22
    9  A    between atoms: C_14  and  O_28
   10  A    between atoms: C_24  and  P_25
   11  A    between atoms: C_33  and  C_41
   12  A    between atoms: N_35  and  C_40
   13  A    between atoms: C_37  and  C_41
                            x       y       z     vdW  Elec       q    Type
                         _______ _______ _______ _____ _____    ______ ____

>  <TORSDO>
F 13

$$$$
=
 OpenBabel11042418583D

 41 45  0  0  1  0  0  0  0  0999 V2000
  187.6240  176.1010  146.2180 C   0  0  0  0  0  3  0  0  0  0  0  0
  189.2300  177.5220  147.0340 C   0  0  0  0  0  3  0  0  0  0  0  0
  189.8930  176.4990  146.5230 C   0  0  0  0  0  0  0  0  0  0  0  0
  187.8150  177.2510  146.8430 C   0  0  0  0  0  0  0  0  0  0  0  0
  188.9530  175.4720  145.9540 C   0  0  2  0  0  3  0  0  0  0  0  0
  190.1980  172.3280  142.4570 N   0  0  0  0  0  0  0  0  0  0  0  0
  190.2560  171.8320  143.8390 C   0  0  0  0  0  2  0  0  0  0  0  0
  188.7190  176.1140  143.5570 C   0  0  0  0  0  3  0  0  0  0  0  0
  189.1700  175.2470  144.4800 C   0  0  0  0  0  0  0  0  0  0  0  0
  188.9260  175.8920  142.0750 C   0  0  0  0  0  2  0  0  0  0  0  0
  190.1410  173.7800  142.6010 C   0  0  2  0  0  3  0  0  0  0  0  0
  191.4760  172.0110  141.8390 C   0  0  0  0  0  1  0  0  0  0  0  0
  189.8290  172.9170  144.7050 N   0  0  0  0  0  2  0  0  0  0  0  0
  189.7890  173.9940  144.0150 C   0  0  2  0  0  3  0  0  0  0  0  0
  189.0470  174.4000  141.7310 C   0  0  0  0  0  2  0  0  0  0  0  0
  186.7150  178.1760  147.2320 C   0  0  0  0  0  2  0  0  0  0  0  0
  185.4400  177.7990  146.4980 C   0  0  0  0  0  2  0  0  0  0  0  0
  183.5500  178.9820  145.6600 O   0  0  0  0  0  1  0  0  0  0  0  0
  184.9440  178.9730  145.6690 C   0  0  2  0  0  3  0  0  0  0  0  0
  185.4420  178.8540  144.2700 C   0  0  0  0  0  3  0  0  0  0  0  0
  185.2290  177.7490  143.5700 C   0  0  0  0  0  3  0  0  0  0  0  0
  184.8530  177.9140  141.1070 C   0  0  0  0  0  0  0  0  0  0  0  0
  183.6350  178.1990  141.2820 O   0  0  0  0  0  0  0  0  0  0  0  0
  185.7000  177.6540  142.2280 N   0  0  0  0  0  2  0  0  0  0  0  0
  185.3900  177.8420  139.8180 O   0  0  0  0  0  0  0  0  0  0  0  0
  186.6610  177.2600  139.5510 C   0  0  0  0  0  2  0  0  0  0  0  0
  186.7690  176.9550  137.1860 O   0  0  0  0  0  0  0  0  0  0  0  0
  187.5180  175.2640  138.5540 O   0  0  0  0  0  0  0  0  0  0  0  0
  187.4050  176.0240  136.3670 C   0  0  0  0  0  2  0  0  0  0  0  0
  186.5650  176.2780  138.3970 C   0  0  0  0  0  3  0  0  0  0  0  0
  187.8270  174.8880  137.2510 C   0  0  0  0  0  2  0  0  0  0  0  0
  191.3890  176.4240  146.5330 C   0  0  0  0  0  2  0  0  0  0  0  0
  191.9760  176.5260  145.1330 C   0  0  0  0  0  2  0  0  0  0  0  0
  195.1300  177.9050  145.9970 O   0  0  0  0  0  1  0  0  0  0  0  0
  195.1210  176.5800  145.5620 C   0  0  2  0  0  3  0  0  0  0  0  0
  194.3040  176.4680  144.2850 C   0  0  2  0  0  3  0  0  0  0  0  0
  194.0490  175.8070  146.3070 C   0  0  0  0  0  2  0  0  0  0  0  0
  193.2370  175.6870  145.0290 C   0  0  1  0  0  3  0  0  0  0  0  0
  194.1460  173.9800  143.2800 O   0  0  0  0  0  1  0  0  0  0  0  0
  194.2850  175.9220  141.6030 O   0  0  0  0  0  1  0  0  0  0  0  0
  195.1420  175.3780  143.0140 P   0  0  0  0  0  0  0  0  0  0  0  0
  1  4  2  0  0  0  0
  3 32  1  0  0  0  0
  3  2  2  0  0  0  0
  4  2  1  0  0  0  0
  4 16  1  0  0  0  0
  5  9  1  6  0  0  0
  5  1  1  0  0  0  0
  5  3  1  0  0  0  0
  6 11  1  0  0  0  0
  6  7  1  0  0  0  0
  7 13  1  0  0  0  0
  8  9  2  0  0  0  0
 10  8  1  0  0  0  0
 11 15  1  6  0  0  0
 11 14  1  0  0  0  0
 12  6  1  0  0  0  0
 14  9  1  6  0  0  0
 14 13  1  0  0  0  0
 15 10  1  0  0  0  0
 17 16  1  0  0  0  0
 19 18  1  6  0  0  0
 19 17  1  0  0  0  0
 20 19  1  0  0  0  0
 21 20  2  0  0  0  0
 22 23  2  0  0  0  0
 22 24  1  0  0  0  0
 24 21  1  0  0  0  0
 25 22  1  0  0  0  0
 26 25  1  0  0  0  0
 27 30  1  0  0  0  0
 29 27  1  0  0  0  0
 29 31  1  0  0  0  0
 30 28  1  0  0  0  0
 30 26  1  0  0  0  0
 31 28  1  0  0  0  0
 33 32  1  0  0  0  0
 35 34  1  1  0  0  0
 35 37  1  0  0  0  0
 36 41  1  6  0  0  0
 36 38  1  0  0  0  0
 36 35  1  0  0  0  0
 38 33  1  1  0  0  0
 38 37  1  0  0  0  0
 40 41  1  0  0  0  0
 41 39  1  0  0  0  0
M  END
>  <MODEL>
5

>  <REMARK>
 VINA RESULT:      -7.1      3.018      5.550
  Name = 
  13 active torsions:
  status: ('A' for Active; 'I' for Inactive)
    1  A    between atoms: C_1  and  C_20
    2  A    between atoms: C_1  and  C_33
    3  A    between atoms: C_5  and  C_15
    4  A    between atoms: C_5  and  C_36
    5  A    between atoms: C_10  and  C_15
    6  A    between atoms: C_12  and  O_28
    7  A    between atoms: C_12  and  C_34
    8  A    between atoms: C_13  and  C_22
    9  A    between atoms: C_14  and  O_28
   10  A    between atoms: C_24  and  P_25
   11  A    between atoms: C_33  and  C_41
   12  A    between atoms: N_35  and  C_40
   13  A    between atoms: C_37  and  C_41
                            x       y       z     vdW  Elec       q    Type
                         _______ _______ _______ _____ _____    ______ ____

>  <TORSDO>
F 13

$$$$
=
 OpenBabel11042418583D

 41 45  0  0  1  0  0  0  0  0999 V2000
  189.5200  173.5450  142.3740 C   0  0  0  0  0  3  0  0  0  0  0  0
  188.2380  174.7730  140.9210 C   0  0  0  0  0  3  0  0  0  0  0  0
  188.1890  175.4250  142.0700 C   0  0  0  0  0  0  0  0  0  0  0  0
  189.0650  173.5970  141.1330 C   0  0  0  0  0  0  0  0  0  0  0  0
  188.9880  174.7180  143.1300 C   0  0  2  0  0  3  0  0  0  0  0  0
  191.7080  175.8820  146.9910 N   0  0  0  0  0  0  0  0  0  0  0  0
  190.6460  174.8900  147.2100 C   0  0  0  0  0  2  0  0  0  0  0  0
  190.9440  176.2400  142.8660 C   0  0  0  0  0  3  0  0  0  0  0  0
  190.1040  175.5710  143.6750 C   0  0  0  0  0  0  0  0  0  0  0  0
  192.0720  177.0920  143.4040 C   0  0  0  0  0  2  0  0  0  0  0  0
  191.3570  176.5070  145.7190 C   0  0  2  0  0  3  0  0  0  0  0  0
  191.5560  176.8990  148.0210 C   0  0  0  0  0  1  0  0  0  0  0  0
  189.9820  174.6810  145.9350 N   0  0  0  0  0  2  0  0  0  0  0  0
  190.3660  175.5940  145.1240 C   0  0  2  0  0  3  0  0  0  0  0  0
  192.5560  176.6010  144.7770 C   0  0  0  0  0  2  0  0  0  0  0  0
  189.4200  172.6100  140.0770 C   0  0  0  0  0  2  0  0  0  0  0  0
  190.6570  173.0770  139.3280 C   0  0  0  0  0  2  0  0  0  0  0  0
  191.3450  170.9540  140.1610 O   0  0  0  0  0  1  0  0  0  0  0  0
  191.8210  172.1380  139.5980 C   0  0  2  0  0  3  0  0  0  0  0  0
  192.7820  172.7760  140.5400 C   0  0  0  0  0  3  0  0  0  0  0  0
  193.1780  172.1400  141.6340 C   0  0  0  0  0  3  0  0  0  0  0  0
  193.7310  173.2130  143.8190 C   0  0  0  0  0  0  0  0  0  0  0  0
  192.5320  173.1110  144.2060 O   0  0  0  0  0  0  0  0  0  0  0  0
  194.1080  172.7590  142.5190 N   0  0  0  0  0  2  0  0  0  0  0  0
  194.7020  173.7740  144.6530 O   0  0  0  0  0  0  0  0  0  0  0  0
  196.0890  173.4820  144.5140 C   0  0  0  0  0  2  0  0  0  0  0  0
  197.0680  174.6610  142.6850 O   0  0  0  0  0  0  0  0  0  0  0  0
  196.1270  175.8690  144.4000 O   0  0  0  0  0  0  0  0  0  0  0  0
  197.0300  175.9900  142.2690 C   0  0  0  0  0  2  0  0  0  0  0  0
  196.8510  174.7170  144.0680 C   0  0  0  0  0  3  0  0  0  0  0  0
  196.4840  176.7870  143.4180 C   0  0  0  0  0  2  0  0  0  0  0  0
  187.4230  176.7020  142.2390 C   0  0  0  0  0  2  0  0  0  0  0  0
  186.2710  176.5500  143.2210 C   0  0  0  0  0  2  0  0  0  0  0  0
  187.2580  176.1190  146.6030 O   0  0  0  0  0  1  0  0  0  0  0  0
  186.8500  177.3980  146.2250 C   0  0  2  0  0  3  0  0  0  0  0  0
  185.5380  177.3100  145.4630 C   0  0  2  0  0  3  0  0  0  0  0  0
  187.5580  177.8000  144.9450 C   0  0  0  0  0  2  0  0  0  0  0  0
  186.2440  177.7220  144.1850 C   0  0  1  0  0  3  0  0  0  0  0  0
  185.3950  179.4170  147.1270 O   0  0  0  0  0  1  0  0  0  0  0  0
  184.6070  179.7700  144.7070 O   0  0  0  0  0  1  0  0  0  0  0  0
  184.3310  178.6390  145.9970 P   0  0  0  0  0  0  0  0  0  0  0  0
  1  5  1  0  0  0  0
  2  4  1  0  0  0  0
  2  3  2  0  0  0  0
  3 32  1  0  0  0  0
  3  5  1  0  0  0  0
  4  1  2  0  0  0  0
  5  9  1  6  0  0  0
  6  7  1  0  0  0  0
  6 12  1  0  0  0  0
  8 10  1  0  0  0  0
  8  9  2  0  0  0  0
 10 15  1  0  0  0  0
 11 15  1  6  0  0  0
 11  6  1  0  0  0  0
 13  7  1  0  0  0  0
 14  9  1  6  0  0  0
 14 11  1  0  0  0  0
 14 13  1  0  0  0  0
 16  4  1  0  0  0  0
 17 19  1  0  0  0  0
 17 16  1  0  0  0  0
 19 18  1  1  0  0  0
 19 20  1  0  0  0  0
 20 21  2  0  0  0  0
 21 24  1  0  0  0  0
 22 23  2  0  0  0  0
 22 25  1  0  0  0  0
 24 22  1  0  0  0  0
 26 25  1  0  0  0  0
 27 30  1  0  0  0  0
 29 27  1  0  0  0  0
 29 31  1  0  0  0  0
 30 28  1  0  0  0  0
 30 26  1  0  0  0  0
 31 28  1  0  0  0  0
 32 33  1  0  0  0  0
 35 34  1  6  0  0  0
 36 41  1  1  0  0  0
 36 35  1  0  0  0  0
 37 35  1  0  0  0  0
 38 33  1  6  0  0  0
 38 37  1  0  0  0  0
 38 36  1  0  0  0  0
 40 41  1  0  0  0  0
 41 39  1  0  0  0  0
M  END
>  <MODEL>
6

>  <REMARK>
 VINA RESULT:      -7.0      3.551      9.509
  Name = 
  13 active torsions:
  status: ('A' for Active; 'I' for Inactive)
    1  A    between atoms: C_1  and  C_20
    2  A    between atoms: C_1  and  C_33
    3  A    between atoms: C_5  and  C_15
    4  A    between atoms: C_5  and  C_36
    5  A    between atoms: C_10  and  C_15
    6  A    between atoms: C_12  and  O_28
    7  A    between atoms: C_12  and  C_34
    8  A    between atoms: C_13  and  C_22
    9  A    between atoms: C_14  and  O_28
   10  A    between atoms: C_24  and  P_25
   11  A    between atoms: C_33  and  C_41
   12  A    between atoms: N_35  and  C_40
   13  A    between atoms: C_37  and  C_41
                            x       y       z     vdW  Elec       q    Type
                         _______ _______ _______ _____ _____    ______ ____

>  <TORSDO>
F 13

$$$$
=
 OpenBabel11042418583D

 41 45  0  0  1  0  0  0  0  0999 V2000
  189.7460  177.0990  145.0940 C   0  0  0  0  0  3  0  0  0  0  0  0
  188.7990  175.2230  146.0150 C   0  0  0  0  0  3  0  0  0  0  0  0
  189.8570  174.7930  145.3490 C   0  0  0  0  0  0  0  0  0  0  0  0
  188.7400  176.6640  145.8350 C   0  0  0  0  0  0  0  0  0  0  0  0
  190.5770  175.9300  144.6780 C   0  0  2  0  0  3  0  0  0  0  0  0
  195.2680  176.2680  143.4380 N   0  0  0  0  0  0  0  0  0  0  0  0
  194.3100  176.0770  142.3400 C   0  0  0  0  0  2  0  0  0  0  0  0
  192.2920  176.4460  146.4110 C   0  0  0  0  0  3  0  0  0  0  0  0
  191.9990  176.0720  145.1540 C   0  0  0  0  0  0  0  0  0  0  0  0
  193.7170  176.5990  146.8950 C   0  0  0  0  0  2  0  0  0  0  0  0
  194.5160  175.9090  144.6370 C   0  0  2  0  0  3  0  0  0  0  0  0
  196.3080  175.2650  143.2720 C   0  0  0  0  0  1  0  0  0  0  0  0
  192.9830  176.0230  142.9300 N   0  0  0  0  0  2  0  0  0  0  0  0
  193.1090  175.9090  144.1990 C   0  0  2  0  0  3  0  0  0  0  0  0
  194.6770  176.9460  145.7470 C   0  0  0  0  0  2  0  0  0  0  0  0
  187.7250  177.5550  146.4610 C   0  0  0  0  0  2  0  0  0  0  0  0
  186.3290  177.0330  146.1690 C   0  0  0  0  0  2  0  0  0  0  0  0
  184.2260  178.0930  145.8120 O   0  0  0  0  0  1  0  0  0  0  0  0
  185.5440  178.0520  145.3580 C   0  0  2  0  0  3  0  0  0  0  0  0
  185.5560  177.6730  143.9190 C   0  0  0  0  0  3  0  0  0  0  0  0
  186.2850  178.3550  143.0460 C   0  0  0  0  0  3  0  0  0  0  0  0
  187.5020  177.6250  140.9930 C   0  0  0  0  0  0  0  0  0  0  0  0
  188.6130  177.6880  141.5930 O   0  0  0  0  0  0  0  0  0  0  0  0
  186.2960  177.9730  141.6740 N   0  0  0  0  0  2  0  0  0  0  0  0
  187.4370  177.2190  139.6570 O   0  0  0  0  0  0  0  0  0  0  0  0
  186.2040  176.9400  139.0020 C   0  0  0  0  0  2  0  0  0  0  0  0
  186.9410  177.0440  136.7350 O   0  0  0  0  0  0  0  0  0  0  0  0
  187.3570  175.1330  137.9440 O   0  0  0  0  0  0  0  0  0  0  0  0
  187.7990  176.2590  135.9670 C   0  0  0  0  0  2  0  0  0  0  0  0
  186.4470  176.1720  137.7150 C   0  0  0  0  0  3  0  0  0  0  0  0
  188.0100  174.9820  136.7260 C   0  0  0  0  0  2  0  0  0  0  0  0
  190.2450  173.3460  145.3040 C   0  0  0  0  0  2  0  0  0  0  0  0
  190.8990  172.9710  143.9830 C   0  0  0  0  0  2  0  0  0  0  0  0
  191.8580  171.8360  140.7600 O   0  0  0  0  0  1  0  0  0  0  0  0
  190.4990  171.7810  141.0660 C   0  0  2  0  0  3  0  0  0  0  0  0
  190.0550  173.1100  141.6560 C   0  0  2  0  0  3  0  0  0  0  0  0
  190.3100  171.1250  142.4210 C   0  0  0  0  0  2  0  0  0  0  0  0
  189.8570  172.4510  143.0090 C   0  0  1  0  0  3  0  0  0  0  0  0
  188.3810  172.5510  139.6280 O   0  0  0  0  0  1  0  0  0  0  0  0
  187.3640  172.7320  141.9810 O   0  0  0  0  0  1  0  0  0  0  0  0
  188.4110  173.6690  140.9570 P   0  0  0  0  0  0  0  0  0  0  0  0
  1  4  2  0  0  0  0
  3  2  2  0  0  0  0
  4  2  1  0  0  0  0
  4 16  1  0  0  0  0
  5  1  1  0  0  0  0
  5  9  1  1  0  0  0
  5  3  1  0  0  0  0
  6 11  1  0  0  0  0
  7 13  1  0  0  0  0
  7  6  1  0  0  0  0
  8 10  1  0  0  0  0
  9  8  2  0  0  0  0
 11 15  1  1  0  0  0
 12  6  1  0  0  0  0
 14 13  1  6  0  0  0
 14 11  1  0  0  0  0
 14  9  1  0  0  0  0
 15 10  1  0  0  0  0
 17 16  1  0  0  0  0
 19 18  1  1  0  0  0
 19 17  1  0  0  0  0
 20 19  1  0  0  0  0
 21 20  2  0  0  0  0
 22 23  2  0  0  0  0
 22 24  1  0  0  0  0
 24 21  1  0  0  0  0
 25 22  1  0  0  0  0
 26 25  1  0  0  0  0
 27 30  1  0  0  0  0
 29 31  1  0  0  0  0
 29 27  1  0  0  0  0
 30 28  1  0  0  0  0
 30 26  1  0  0  0  0
 31 28  1  0  0  0  0
 32  3  1  0  0  0  0
 33 32  1  0  0  0  0
 35 34  1  1  0  0  0
 35 36  1  0  0  0  0
 35 37  1  0  0  0  0
 36 41  1  6  0  0  0
 36 38  1  0  0  0  0
 37 38  1  0  0  0  0
 38 33  1  1  0  0  0
 39 41  1  0  0  0  0
 41 40  1  0  0  0  0
M  END
>  <MODEL>
7

>  <REMARK>
 VINA RESULT:      -6.9      2.822      4.025
  Name = 
  13 active torsions:
  status: ('A' for Active; 'I' for Inactive)
    1  A    between atoms: C_1  and  C_20
    2  A    between atoms: C_1  and  C_33
    3  A    between atoms: C_5  and  C_15
    4  A    between atoms: C_5  and  C_36
    5  A    between atoms: C_10  and  C_15
    6  A    between atoms: C_12  and  O_28
    7  A    between atoms: C_12  and  C_34
    8  A    between atoms: C_13  and  C_22
    9  A    between atoms: C_14  and  O_28
   10  A    between atoms: C_24  and  P_25
   11  A    between atoms: C_33  and  C_41
   12  A    between atoms: N_35  and  C_40
   13  A    between atoms: C_37  and  C_41
                            x       y       z     vdW  Elec       q    Type
                         _______ _______ _______ _____ _____    ______ ____

>  <TORSDO>
F 13

$$$$
=
 OpenBabel11042418583D

 41 45  0  0  1  0  0  0  0  0999 V2000
  190.4210  176.7170  143.6550 C   0  0  0  0  0  3  0  0  0  0  0  0
  188.9520  175.1010  144.3580 C   0  0  0  0  0  3  0  0  0  0  0  0
  190.1320  174.5060  144.3080 C   0  0  0  0  0  0  0  0  0  0  0  0
  189.1510  176.4780  143.9370 C   0  0  0  0  0  0  0  0  0  0  0  0
  191.2010  175.4570  143.8470 C   0  0  2  0  0  3  0  0  0  0  0  0
  195.9610  175.1900  144.8130 N   0  0  0  0  0  0  0  0  0  0  0  0
  195.5380  174.7710  143.4690 C   0  0  0  0  0  2  0  0  0  0  0  0
  192.0850  176.3140  146.0140 C   0  0  0  0  0  3  0  0  0  0  0  0
  192.2920  175.6390  144.8700 C   0  0  0  0  0  0  0  0  0  0  0  0
  193.1760  176.5080  147.0430 C   0  0  0  0  0  2  0  0  0  0  0  0
  194.7250  175.2030  145.5890 C   0  0  2  0  0  3  0  0  0  0  0  0
  196.7890  174.1210  145.3490 C   0  0  0  0  0  1  0  0  0  0  0  0
  194.0980  174.9500  143.3950 N   0  0  0  0  0  2  0  0  0  0  0  0
  193.6560  175.1680  144.5760 C   0  0  2  0  0  3  0  0  0  0  0  0
  194.5740  176.4850  146.4060 C   0  0  0  0  0  2  0  0  0  0  0  0
  188.0830  177.5140  143.8950 C   0  0  0  0  0  2  0  0  0  0  0  0
  186.7280  176.8690  144.1300 C   0  0  0  0  0  2  0  0  0  0  0  0
  185.5630  176.9670  146.2050 O   0  0  0  0  0  1  0  0  0  0  0  0
  185.8980  177.7190  145.0790 C   0  0  2  0  0  3  0  0  0  0  0  0
  184.6510  178.1680  144.4010 C   0  0  0  0  0  3  0  0  0  0  0  0
  184.4530  177.9150  143.1140 C   0  0  0  0  0  3  0  0  0  0  0  0
  183.0820  178.3010  141.0640 C   0  0  0  0  0  0  0  0  0  0  0  0
  184.0310  177.9200  140.3210 O   0  0  0  0  0  0  0  0  0  0  0  0
  183.2490  178.3400  142.4820 N   0  0  0  0  0  2  0  0  0  0  0  0
  181.8600  178.6950  140.5110 O   0  0  0  0  0  0  0  0  0  0  0  0
  180.6090  178.3070  141.0700 C   0  0  0  0  0  2  0  0  0  0  0  0
  180.2240  180.5960  140.5140 O   0  0  0  0  0  0  0  0  0  0  0  0
  178.4120  179.2070  140.7910 O   0  0  0  0  0  0  0  0  0  0  0  0
  179.1030  181.3040  140.0870 C   0  0  0  0  0  2  0  0  0  0  0  0
  179.7040  179.5140  141.2380 C   0  0  0  0  0  3  0  0  0  0  0  0
  177.9140  180.4240  140.3380 C   0  0  0  0  0  2  0  0  0  0  0  0
  190.3230  173.0660  144.6770 C   0  0  0  0  0  2  0  0  0  0  0  0
  191.0410  172.2880  143.5860 C   0  0  0  0  0  2  0  0  0  0  0  0
  192.1930  171.0160  140.4780 O   0  0  0  0  0  1  0  0  0  0  0  0
  190.8120  171.0720  140.6610 C   0  0  2  0  0  3  0  0  0  0  0  0
  190.4220  172.4420  141.1900 C   0  0  2  0  0  3  0  0  0  0  0  0
  190.4520  170.4610  142.0020 C   0  0  0  0  0  2  0  0  0  0  0  0
  190.0530  171.8300  142.5280 C   0  0  1  0  0  3  0  0  0  0  0  0
  189.0320  174.7310  140.9490 O   0  0  0  0  0  1  0  0  0  0  0  0
  189.5990  173.4620  138.7870 O   0  0  0  0  0  1  0  0  0  0  0  0
  188.8950  173.1110  140.3380 P   0  0  0  0  0  0  0  0  0  0  0  0
  1  5  1  0  0  0  0
  1  4  2  0  0  0  0
  3  2  2  0  0  0  0
  3 32  1  0  0  0  0
  4  2  1  0  0  0  0
  5  3  1  0  0  0  0
  5  9  1  1  0  0  0
  6 12  1  0  0  0  0
  6 11  1  0  0  0  0
  7  6  1  0  0  0  0
  8 10  1  0  0  0  0
  9  8  2  0  0  0  0
 11 15  1  6  0  0  0
 13  7  1  0  0  0  0
 14 13  1  6  0  0  0
 14  9  1  0  0  0  0
 14 11  1  0  0  0  0
 15 10  1  0  0  0  0
 16  4  1  0  0  0  0
 16 17  1  0  0  0  0
 17 19  1  0  0  0  0
 19 18  1  1  0  0  0
 20 19  1  0  0  0  0
 21 20  2  0  0  0  0
 22 24  1  0  0  0  0
 23 22  2  0  0  0  0
 24 21  1  0  0  0  0
 25 22  1  0  0  0  0
 25 26  1  0  0  0  0
 26 30  1  0  0  0  0
 27 30  1  0  0  0  0
 28 30  1  0  0  0  0
 29 31  1  0  0  0  0
 29 27  1  0  0  0  0
 31 28  1  0  0  0  0
 33 32  1  0  0  0  0
 35 34  1  1  0  0  0
 35 36  1  0  0  0  0
 35 37  1  0  0  0  0
 36 41  1  6  0  0  0
 36 38  1  0  0  0  0
 37 38  1  0  0  0  0
 38 33  1  1  0  0  0
 40 41  1  0  0  0  0
 41 39  1  0  0  0  0
M  END
>  <MODEL>
8

>  <REMARK>
 VINA RESULT:      -6.9      1.827      2.270
  Name = 
  13 active torsions:
  status: ('A' for Active; 'I' for Inactive)
    1  A    between atoms: C_1  and  C_20
    2  A    between atoms: C_1  and  C_33
    3  A    between atoms: C_5  and  C_15
    4  A    between atoms: C_5  and  C_36
    5  A    between atoms: C_10  and  C_15
    6  A    between atoms: C_12  and  O_28
    7  A    between atoms: C_12  and  C_34
    8  A    between atoms: C_13  and  C_22
    9  A    between atoms: C_14  and  O_28
   10  A    between atoms: C_24  and  P_25
   11  A    between atoms: C_33  and  C_41
   12  A    between atoms: N_35  and  C_40
   13  A    between atoms: C_37  and  C_41
                            x       y       z     vdW  Elec       q    Type
                         _______ _______ _______ _____ _____    ______ ____

>  <TORSDO>
F 13

$$$$
=
 OpenBabel11042418583D

 41 45  0  0  1  0  0  0  0  0999 V2000
  189.0650  175.2530  146.0170 C   0  0  0  0  0  3  0  0  0  0  0  0
  190.9620  176.2830  146.7940 C   0  0  0  0  0  3  0  0  0  0  0  0
  191.3650  175.1190  146.3140 C   0  0  0  0  0  0  0  0  0  0  0  0
  189.5220  176.3440  146.6100 C   0  0  0  0  0  0  0  0  0  0  0  0
  190.2090  174.3240  145.7730 C   0  0  2  0  0  3  0  0  0  0  0  0
  191.8360  171.1960  142.4220 N   0  0  0  0  0  0  0  0  0  0  0  0
  192.1010  170.8520  143.8260 C   0  0  0  0  0  2  0  0  0  0  0  0
  189.6670  174.6790  143.3670 C   0  0  0  0  0  3  0  0  0  0  0  0
  190.3600  174.0130  144.3070 C   0  0  0  0  0  0  0  0  0  0  0  0
  189.8060  174.3680  141.8930 C   0  0  0  0  0  2  0  0  0  0  0  0
  191.4810  172.6120  142.4610 C   0  0  2  0  0  3  0  0  0  0  0  0
  193.1040  171.0950  141.7150 C   0  0  0  0  0  1  0  0  0  0  0  0
  191.5170  171.9010  144.6440 N   0  0  0  0  0  2  0  0  0  0  0  0
  191.1970  172.8790  143.8820 C   0  0  2  0  0  3  0  0  0  0  0  0
  190.2190  172.9080  141.6520 C   0  0  0  0  0  2  0  0  0  0  0  0
  188.6700  177.5100  146.9710 C   0  0  0  0  0  2  0  0  0  0  0  0
  187.4540  177.5620  146.0610 C   0  0  0  0  0  2  0  0  0  0  0  0
  185.9240  177.6220  147.8860 O   0  0  0  0  0  1  0  0  0  0  0  0
  186.3210  178.3130  146.7410 C   0  0  2  0  0  3  0  0  0  0  0  0
  185.1620  178.4320  145.8150 C   0  0  0  0  0  3  0  0  0  0  0  0
  185.2820  178.1020  144.5360 C   0  0  0  0  0  3  0  0  0  0  0  0
  184.2910  178.1080  142.2450 C   0  0  0  0  0  0  0  0  0  0  0  0
  185.4300  177.9600  141.7190 O   0  0  0  0  0  0  0  0  0  0  0  0
  184.1600  178.2090  143.6640 N   0  0  0  0  0  2  0  0  0  0  0  0
  183.1430  178.1810  141.4490 O   0  0  0  0  0  0  0  0  0  0  0  0
  181.9070  178.6920  141.9370 C   0  0  0  0  0  2  0  0  0  0  0  0
  179.7410  177.8530  141.3910 O   0  0  0  0  0  0  0  0  0  0  0  0
  180.4150  179.8500  140.4720 O   0  0  0  0  0  0  0  0  0  0  0  0
  178.6240  178.4090  140.7700 C   0  0  0  0  0  2  0  0  0  0  0  0
  180.8270  178.5740  140.8760 C   0  0  0  0  0  3  0  0  0  0  0  0
  179.0840  179.6750  140.1090 C   0  0  0  0  0  2  0  0  0  0  0  0
  192.8030  174.6980  146.3290 C   0  0  0  0  0  2  0  0  0  0  0  0
  193.7460  175.8800  146.1650 C   0  0  0  0  0  2  0  0  0  0  0  0
  194.1700  175.0850  142.7320 O   0  0  0  0  0  1  0  0  0  0  0  0
  195.2880  174.9390  143.5530 C   0  0  2  0  0  3  0  0  0  0  0  0
  194.9050  174.1640  144.8030 C   0  0  2  0  0  3  0  0  0  0  0  0
  195.4670  176.1900  144.3940 C   0  0  0  0  0  2  0  0  0  0  0  0
  195.0930  175.4120  145.6450 C   0  0  1  0  0  3  0  0  0  0  0  0
  197.3040  173.2780  143.9760 O   0  0  0  0  0  1  0  0  0  0  0  0
  197.0280  173.7690  146.4840 O   0  0  0  0  0  1  0  0  0  0  0  0
  196.1910  172.8780  145.2480 P   0  0  0  0  0  0  0  0  0  0  0  0
  1  4  2  0  0  0  0
  3 32  1  0  0  0  0
  3  2  2  0  0  0  0
  4  2  1  0  0  0  0
  4 16  1  0  0  0  0
  5  9  1  6  0  0  0
  5  1  1  0  0  0  0
  5  3  1  0  0  0  0
  6 11  1  0  0  0  0
  6  7  1  0  0  0  0
  7 13  1  0  0  0  0
  8  9  2  0  0  0  0
 10  8  1  0  0  0  0
 11 15  1  6  0  0  0
 11 14  1  0  0  0  0
 12  6  1  0  0  0  0
 14  9  1  6  0  0  0
 14 13  1  0  0  0  0
 15 10  1  0  0  0  0
 17 19  1  0  0  0  0
 17 16  1  0  0  0  0
 19 18  1  1  0  0  0
 20 19  1  0  0  0  0
 21 20  2  0  0  0  0
 22 24  1  0  0  0  0
 23 22  2  0  0  0  0
 24 21  1  0  0  0  0
 25 26  1  0  0  0  0
 25 22  1  0  0  0  0
 28 30  1  0  0  0  0
 29 27  1  0  0  0  0
 30 27  1  0  0  0  0
 30 26  1  0  0  0  0
 31 28  1  0  0  0  0
 31 29  1  0  0  0  0
 33 32  1  0  0  0  0
 35 34  1  6  0  0  0
 35 37  1  0  0  0  0
 35 36  1  0  0  0  0
 36 41  1  1  0  0  0
 36 38  1  0  0  0  0
 37 38  1  0  0  0  0
 38 33  1  6  0  0  0
 39 41  1  0  0  0  0
 41 40  1  0  0  0  0
M  END
>  <MODEL>
9

>  <REMARK>
 VINA RESULT:      -6.8      3.131      4.691
  Name = 
  13 active torsions:
  status: ('A' for Active; 'I' for Inactive)
    1  A    between atoms: C_1  and  C_20
    2  A    between atoms: C_1  and  C_33
    3  A    between atoms: C_5  and  C_15
    4  A    between atoms: C_5  and  C_36
    5  A    between atoms: C_10  and  C_15
    6  A    between atoms: C_12  and  O_28
    7  A    between atoms: C_12  and  C_34
    8  A    between atoms: C_13  and  C_22
    9  A    between atoms: C_14  and  O_28
   10  A    between atoms: C_24  and  P_25
   11  A    between atoms: C_33  and  C_41
   12  A    between atoms: N_35  and  C_40
   13  A    between atoms: C_37  and  C_41
                            x       y       z     vdW  Elec       q    Type
                         _______ _______ _______ _____ _____    ______ ____

>  <TORSDO>
F 13

$$$$
