=
 OpenBabel11042417173D

 31 34  0  0  1  0  0  0  0  0999 V2000
  188.6270  175.8730  146.2160 C   0  0  0  0  0  0  0  0  0  0  0  0
  191.2840  175.1280  146.2770 C   0  0  0  0  0  2  0  0  0  0  0  0
  191.3920  175.1210  144.9910 C   0  0  2  0  0  3  0  0  0  0  0  0
  183.6850  178.5870  145.7450 N   0  0  0  0  0  1  0  0  0  0  0  0
  184.9460  177.9370  145.8780 C   0  0  0  0  0  0  0  0  0  0  0  0
  189.2490  175.1050  147.3800 C   0  0  0  0  0  2  0  0  0  0  0  0
  190.1620  175.3740  144.2530 N   0  0  0  0  0  0  0  0  0  0  0  0
  185.2920  177.4660  147.0500 N   0  0  0  0  0  0  0  0  0  0  0  0
  188.9700  175.9280  144.8960 C   0  0  0  0  0  0  0  0  0  0  0  0
  187.3610  176.5680  146.2950 C   0  0  0  0  0  0  0  0  0  0  0  0
  186.5250  176.7660  147.3050 C   0  0  0  0  0  3  0  0  0  0  0  0
  187.9850  176.6490  144.1350 N   0  0  0  0  0  0  0  0  0  0  0  0
  190.7410  175.2070  147.4390 C   0  0  0  0  0  2  0  0  0  0  0  0
  187.0680  177.0130  144.9690 C   0  0  0  0  0  0  0  0  0  0  0  0
  185.8370  177.8090  144.6480 C   0  0  2  0  0  3  0  0  0  0  0  0
  189.6610  173.3660  141.7620 C   0  0  1  0  0  3  0  0  0  0  0  0
  190.9140  174.0830  142.2590 C   0  0  0  0  0  2  0  0  0  0  0  0
  190.0540  175.2110  142.7940 C   0  0  1  0  0  3  0  0  0  0  0  0
  188.8010  174.4750  142.3620 C   0  0  0  0  0  2  0  0  0  0  0  0
  188.3140  172.8450  139.8970 C   0  0  0  0  0  1  0  0  0  0  0  0
  190.5990  172.4710  139.7940 C   0  0  0  0  0  1  0  0  0  0  0  0
  189.5980  173.3970  140.3010 N   0  0  0  0  0  0  0  0  0  0  0  0
  193.7670  175.3160  144.2930 C   0  0  0  0  0  0  0  0  0  0  0  0
  192.6060  174.7160  144.3240 N   0  0  0  0  0  0  0  0  0  0  0  0
  194.0050  176.6430  144.9380 C   0  0  0  0  0  2  0  0  0  0  0  0
  194.5830  176.4570  146.1930 O   0  0  0  0  0  1  0  0  0  0  0  0
  195.7800  175.5120  142.8730 C   0  0  0  0  0  1  0  0  0  0  0  0
  194.8360  174.7390  143.6020 O   0  0  0  0  0  0  0  0  0  0  0  0
  186.2200  179.1960  144.1520 C   0  0  0  0  0  2  0  0  0  0  0  0
  186.2610  179.2140  142.7570 O   0  0  0  0  0  0  0  0  0  0  0  0
  185.0940  178.5580  142.3640 C   0  0  0  0  0  1  0  0  0  0  0  0
  1 10  1  0  0  0  0
  1  6  1  0  0  0  0
  2 13  1  0  0  0  0
  3 24  1  6  0  0  0
  3  2  1  0  0  0  0
  4  5  1  0  0  0  0
  5  8  2  0  0  0  0
  6 13  1  0  0  0  0
  7  9  1  0  0  0  0
  7  3  1  0  0  0  0
  8 11  1  0  0  0  0
  9  1  2  0  0  0  0
 10 11  2  0  0  0  0
 12  9  1  0  0  0  0
 12 14  2  0  0  0  0
 14 10  1  0  0  0  0
 15 29  1  1  0  0  0
 15 14  1  0  0  0  0
 15  5  1  0  0  0  0
 16 22  1  6  0  0  0
 16 17  1  0  0  0  0
 16 19  1  0  0  0  0
 18 17  1  1  0  0  0
 18  7  1  0  0  0  0
 19 18  1  0  0  0  0
 20 22  1  0  0  0  0
 21 22  1  0  0  0  0
 23 24  2  0  0  0  0
 23 25  1  0  0  0  0
 25 26  1  0  0  0  0
 27 28  1  0  0  0  0
 28 23  1  0  0  0  0
 30 29  1  0  0  0  0
 31 30  1  0  0  0  0
M  END
>  <MODEL>
1

>  <REMARK>
 VINA RESULT:      -7.1      0.000      0.000
  Name = 
  7 active torsions:
  status: ('A' for Active; 'I' for Inactive)
    1  A    between atoms: C_1  and  O_12
    2  A    between atoms: C_1  and  C_31
    3  A    between atoms: C_3  and  C_5
    4  A    between atoms: C_3  and  O_27
    5  A    between atoms: N_6  and  C_9
    6  A    between atoms: N_16  and  C_23
    7  A    between atoms: N_19  and  C_20
                            x       y       z     vdW  Elec       q    Type
                         _______ _______ _______ _____ _____    ______ ____

>  <TORSDO>
F 7

$$$$
=
 OpenBabel11042417173D

 31 34  0  0  1  0  0  0  0  0999 V2000
  188.9460  175.6370  145.7920 C   0  0  0  0  0  0  0  0  0  0  0  0
  191.4520  174.9710  146.7360 C   0  0  0  0  0  2  0  0  0  0  0  0
  191.8840  174.6200  145.5720 C   0  0  2  0  0  3  0  0  0  0  0  0
  184.4520  178.0580  143.3540 N   0  0  0  0  0  1  0  0  0  0  0  0
  185.5970  177.4850  143.9770 C   0  0  0  0  0  0  0  0  0  0  0  0
  189.2060  175.2180  147.2370 C   0  0  0  0  0  2  0  0  0  0  0  0
  190.8990  174.6490  144.5000 N   0  0  0  0  0  0  0  0  0  0  0  0
  185.6060  177.3500  145.2800 N   0  0  0  0  0  0  0  0  0  0  0  0
  189.6170  175.3400  144.6410 C   0  0  0  0  0  0  0  0  0  0  0  0
  187.7430  176.3100  145.3530 C   0  0  0  0  0  0  0  0  0  0  0  0
  186.6920  176.7610  146.0210 C   0  0  0  0  0  3  0  0  0  0  0  0
  188.9000  175.8170  143.4880 N   0  0  0  0  0  0  0  0  0  0  0  0
  190.6380  175.3520  147.6540 C   0  0  0  0  0  2  0  0  0  0  0  0
  187.8240  176.3790  143.9280 C   0  0  0  0  0  0  0  0  0  0  0  0
  186.7630  177.0430  143.1000 C   0  0  2  0  0  3  0  0  0  0  0  0
  190.3280  172.2790  142.3680 C   0  0  1  0  0  3  0  0  0  0  0  0
  191.5650  172.6400  143.1870 C   0  0  0  0  0  2  0  0  0  0  0  0
  191.1560  174.0990  143.1590 C   0  0  1  0  0  3  0  0  0  0  0  0
  189.8920  173.7420  142.4020 C   0  0  0  0  0  2  0  0  0  0  0  0
  189.5560  172.0920  140.1470 C   0  0  0  0  0  1  0  0  0  0  0  0
  190.9420  170.4500  141.0150 C   0  0  0  0  0  1  0  0  0  0  0  0
  190.7070  171.8860  141.0110 N   0  0  0  0  0  0  0  0  0  0  0  0
  194.3170  174.6830  145.0800 C   0  0  0  0  0  0  0  0  0  0  0  0
  193.2020  174.0670  145.3750 N   0  0  0  0  0  0  0  0  0  0  0  0
  194.3790  176.1530  144.8180 C   0  0  0  0  0  2  0  0  0  0  0  0
  195.1360  176.3920  143.6710 O   0  0  0  0  0  1  0  0  0  0  0  0
  196.5510  174.0380  145.9140 C   0  0  0  0  0  1  0  0  0  0  0  0
  195.5060  173.9590  144.9560 O   0  0  0  0  0  0  0  0  0  0  0  0
  187.3390  178.2510  142.3740 C   0  0  0  0  0  2  0  0  0  0  0  0
  187.8350  177.8710  141.1270 O   0  0  0  0  0  0  0  0  0  0  0  0
  186.7190  177.4020  140.4340 C   0  0  0  0  0  1  0  0  0  0  0  0
  1  6  1  0  0  0  0
  2 13  1  0  0  0  0
  3 24  1  1  0  0  0
  3  2  1  0  0  0  0
  4  5  1  0  0  0  0
  5  8  2  0  0  0  0
  6 13  1  0  0  0  0
  7  9  1  0  0  0  0
  7  3  1  0  0  0  0
  8 11  1  0  0  0  0
  9  1  2  0  0  0  0
 10  1  1  0  0  0  0
 10 11  2  0  0  0  0
 12 14  2  0  0  0  0
 12  9  1  0  0  0  0
 14 10  1  0  0  0  0
 15 29  1  1  0  0  0
 15 14  1  0  0  0  0
 15  5  1  0  0  0  0
 16 22  1  6  0  0  0
 16 19  1  0  0  0  0
 16 17  1  0  0  0  0
 18 19  1  6  0  0  0
 18 17  1  0  0  0  0
 18  7  1  0  0  0  0
 20 22  1  0  0  0  0
 22 21  1  0  0  0  0
 23 24  2  0  0  0  0
 25 23  1  0  0  0  0
 26 25  1  0  0  0  0
 28 23  1  0  0  0  0
 28 27  1  0  0  0  0
 30 29  1  0  0  0  0
 31 30  1  0  0  0  0
M  END
>  <MODEL>
2

>  <REMARK>
 VINA RESULT:      -6.6      1.628      1.749
  Name = 
  7 active torsions:
  status: ('A' for Active; 'I' for Inactive)
    1  A    between atoms: C_1  and  O_12
    2  A    between atoms: C_1  and  C_31
    3  A    between atoms: C_3  and  C_5
    4  A    between atoms: C_3  and  O_27
    5  A    between atoms: N_6  and  C_9
    6  A    between atoms: N_16  and  C_23
    7  A    between atoms: N_19  and  C_20
                            x       y       z     vdW  Elec       q    Type
                         _______ _______ _______ _____ _____    ______ ____

>  <TORSDO>
F 7

$$$$
=
 OpenBabel11042417173D

 31 34  0  0  1  0  0  0  0  0999 V2000
  189.9640  173.5590  143.5280 C   0  0  0  0  0  0  0  0  0  0  0  0
  187.7230  174.2390  142.0660 C   0  0  0  0  0  2  0  0  0  0  0  0
  187.5480  175.3480  142.7020 C   0  0  2  0  0  3  0  0  0  0  0  0
  195.1300  173.1210  145.7900 N   0  0  0  0  0  1  0  0  0  0  0  0
  193.8470  173.2390  145.1850 C   0  0  0  0  0  0  0  0  0  0  0  0
  189.0700  172.5250  142.8460 C   0  0  0  0  0  2  0  0  0  0  0  0
  188.4580  175.5870  143.8140 N   0  0  0  0  0  0  0  0  0  0  0  0
  193.3560  172.2100  144.5390 N   0  0  0  0  0  0  0  0  0  0  0  0
  189.6870  174.8120  143.9930 C   0  0  0  0  0  0  0  0  0  0  0  0
  191.3030  173.2800  143.9980 C   0  0  2  0  0  3  0  0  0  0  0  0
  192.0600  172.1960  143.9100 C   0  0  0  0  0  3  0  0  0  0  0  0
  190.8040  175.3510  144.7220 N   0  0  0  0  0  0  0  0  0  0  0  0
  188.2160  173.0930  141.7550 C   0  0  0  0  0  2  0  0  0  0  0  0
  191.7270  174.4480  144.7040 C   0  0  0  0  0  0  0  0  0  0  0  0
  193.0910  174.5560  145.3210 C   0  0  0  0  0  0  0  0  0  0  0  0
  186.5680  177.0150  146.0210 C   0  0  1  0  0  3  0  0  0  0  0  0
  186.9640  177.4160  144.6030 C   0  0  0  0  0  2  0  0  0  0  0  0
  188.2850  176.6940  144.7680 C   0  0  1  0  0  3  0  0  0  0  0  0
  187.8750  176.2360  146.1540 C   0  0  0  0  0  2  0  0  0  0  0  0
  186.0820  177.7560  148.2070 C   0  0  0  0  0  1  0  0  0  0  0  0
  185.5810  179.1210  146.4020 C   0  0  0  0  0  1  0  0  0  0  0  0
  186.5710  178.1810  146.9050 N   0  0  0  0  0  0  0  0  0  0  0  0
  186.3020  177.1720  141.5700 C   0  0  0  0  0  0  0  0  0  0  0  0
  186.4210  176.2100  142.4480 N   0  0  0  0  0  0  0  0  0  0  0  0
  187.4270  177.5940  140.6820 C   0  0  0  0  0  2  0  0  0  0  0  0
  188.3840  178.2780  141.4310 O   0  0  0  0  0  1  0  0  0  0  0  0
  184.2440  178.0990  142.5760 C   0  0  0  0  0  1  0  0  0  0  0  0
  185.1020  177.8810  141.4650 O   0  0  0  0  0  0  0  0  0  0  0  0
  193.8850  175.6690  144.6530 C   0  0  0  0  0  2  0  0  0  0  0  0
  193.6400  176.8850  145.2900 O   0  0  0  0  0  0  0  0  0  0  0  0
  194.2420  176.7520  146.5420 C   0  0  0  0  0  1  0  0  0  0  0  0
  1  9  2  0  0  0  0
  1 10  1  0  0  0  0
  2  3  1  0  0  0  0
  3 24  1  1  0  0  0
  3  7  1  0  0  0  0
  5 15  2  0  0  0  0
  5  4  1  0  0  0  0
  6  1  1  0  0  0  0
  7  9  1  0  0  0  0
  8  5  1  0  0  0  0
  9 12  1  0  0  0  0
 10 11  1  1  0  0  0
 10 14  1  0  0  0  0
 11  8  2  0  0  0  0
 13  2  1  0  0  0  0
 13  6  1  0  0  0  0
 14 12  2  0  0  0  0
 14 15  1  0  0  0  0
 16 19  1  0  0  0  0
 16 22  1  1  0  0  0
 17 18  1  0  0  0  0
 17 16  1  0  0  0  0
 18  7  1  6  0  0  0
 18 19  1  0  0  0  0
 21 22  1  0  0  0  0
 22 20  1  0  0  0  0
 23 24  2  0  0  0  0
 25 26  1  0  0  0  0
 25 23  1  0  0  0  0
 28 23  1  0  0  0  0
 28 27  1  0  0  0  0
 29 30  1  0  0  0  0
 29 15  1  0  0  0  0
 30 31  1  0  0  0  0
M  END
>  <MODEL>
3

>  <REMARK>
 VINA RESULT:      -6.5      1.896      7.654
  Name = 
  7 active torsions:
  status: ('A' for Active; 'I' for Inactive)
    1  A    between atoms: C_1  and  O_12
    2  A    between atoms: C_1  and  C_31
    3  A    between atoms: C_3  and  C_5
    4  A    between atoms: C_3  and  O_27
    5  A    between atoms: N_6  and  C_9
    6  A    between atoms: N_16  and  C_23
    7  A    between atoms: N_19  and  C_20
                            x       y       z     vdW  Elec       q    Type
                         _______ _______ _______ _____ _____    ______ ____

>  <TORSDO>
F 7

$$$$
=
 OpenBabel11042417173D

 31 34  0  0  1  0  0  0  0  0999 V2000
  187.7340  176.1730  142.5280 C   0  0  0  0  0  0  0  0  0  0  0  0
  189.5180  174.3140  141.5380 C   0  0  0  0  0  2  0  0  0  0  0  0
  190.2990  174.4030  142.5610 C   0  0  2  0  0  3  0  0  0  0  0  0
  183.7420  178.9880  145.3830 N   0  0  0  0  0  1  0  0  0  0  0  0
  184.7250  178.2460  144.6670 C   0  0  0  0  0  0  0  0  0  0  0  0
  187.8970  175.8880  141.0370 C   0  0  0  0  0  2  0  0  0  0  0  0
  189.9330  175.4100  143.5490 N   0  0  1  0  0  0  0  0  0  0  0  0
  184.5500  178.0380  143.3850 N   0  0  0  0  0  0  0  0  0  0  0  0
  188.6110  176.0360  143.5660 C   0  0  2  0  0  3  0  0  0  0  0  0
  186.5990  176.8670  143.0960 C   0  0  0  0  0  0  0  0  0  0  0  0
  185.4840  177.3290  142.5490 C   0  0  0  0  0  3  0  0  0  0  0  0
  188.0710  176.5960  144.7760 N   0  0  0  0  0  0  0  0  0  0  0  0
  188.5420  174.5700  140.7430 C   0  0  0  0  0  2  0  0  0  0  0  0
  186.9050  177.0640  144.4790 C   0  0  0  0  0  0  0  0  0  0  0  0
  185.9460  177.7310  145.4200 C   0  0  0  0  0  0  0  0  0  0  0  0
  192.9520  175.9140  144.6070 C   0  0  1  0  0  3  0  0  0  0  0  0
  191.9410  174.8060  144.8930 C   0  0  0  0  0  2  0  0  0  0  0  0
  190.8060  175.7860  144.6720 C   0  0  1  0  0  3  0  0  0  0  0  0
  191.8010  176.8760  144.3220 C   0  0  0  0  0  2  0  0  0  0  0  0
  194.5270  177.4160  145.5140 C   0  0  0  0  0  1  0  0  0  0  0  0
  194.5390  175.2020  146.1970 C   0  0  0  0  0  1  0  0  0  0  0  0
  193.6540  176.2970  145.8310 N   0  0  0  0  0  0  0  0  0  0  0  0
  191.7490  172.3990  142.7780 C   0  0  0  0  0  0  0  0  0  0  0  0
  191.5470  173.6830  142.6410 N   0  0  0  0  0  0  0  0  0  0  0  0
  190.6300  171.4230  142.9530 C   0  0  0  0  0  2  0  0  0  0  0  0
  190.3810  170.7740  141.7440 O   0  0  0  0  0  1  0  0  0  0  0  0
  193.7170  171.5710  144.0210 C   0  0  0  0  0  1  0  0  0  0  0  0
  193.0510  171.8920  142.8080 O   0  0  0  0  0  0  0  0  0  0  0  0
  185.5010  176.7550  146.5000 C   0  0  0  0  0  2  0  0  0  0  0  0
  186.3030  176.8940  147.6340 O   0  0  0  0  0  0  0  0  0  0  0  0
  186.2730  178.2590  147.9180 C   0  0  0  0  0  1  0  0  0  0  0  0
  1 10  2  0  0  0  0
  2  3  1  0  0  0  0
  3 24  1  6  0  0  0
  3  7  1  0  0  0  0
  5  4  1  0  0  0  0
  5 15  2  0  0  0  0
  6  1  1  0  0  0  0
  7  9  1  0  0  0  0
  7 18  1  1  0  0  0
  8  5  1  0  0  0  0
  9  1  1  1  0  0  0
  9 12  1  0  0  0  0
 10 14  1  0  0  0  0
 11 10  1  0  0  0  0
 11  8  2  0  0  0  0
 13  6  1  0  0  0  0
 13  2  1  0  0  0  0
 14 12  2  0  0  0  0
 14 15  1  0  0  0  0
 15 29  1  0  0  0  0
 16 17  1  0  0  0  0
 16 22  1  1  0  0  0
 18 19  1  6  0  0  0
 18 17  1  0  0  0  0
 19 16  1  0  0  0  0
 20 22  1  0  0  0  0
 22 21  1  0  0  0  0
 23 28  1  0  0  0  0
 23 25  1  0  0  0  0
 24 23  2  0  0  0  0
 26 25  1  0  0  0  0
 28 27  1  0  0  0  0
 29 30  1  0  0  0  0
 30 31  1  0  0  0  0
M  END
>  <MODEL>
4

>  <REMARK>
 VINA RESULT:      -6.4      2.340      4.759
  Name = 
  7 active torsions:
  status: ('A' for Active; 'I' for Inactive)
    1  A    between atoms: C_1  and  O_12
    2  A    between atoms: C_1  and  C_31
    3  A    between atoms: C_3  and  C_5
    4  A    between atoms: C_3  and  O_27
    5  A    between atoms: N_6  and  C_9
    6  A    between atoms: N_16  and  C_23
    7  A    between atoms: N_19  and  C_20
                            x       y       z     vdW  Elec       q    Type
                         _______ _______ _______ _____ _____    ______ ____

>  <TORSDO>
F 7

$$$$
=
 OpenBabel11042417173D

 31 34  0  0  1  0  0  0  0  0999 V2000
  194.3270  176.4320  144.5170 C   0  0  0  0  0  0  0  0  0  0  0  0
  192.3280  176.3280  146.4170 C   0  0  0  0  0  2  0  0  0  0  0  0
  191.3900  176.5410  145.5560 C   0  0  2  0  0  3  0  0  0  0  0  0
  197.9410  175.4470  140.2770 N   0  0  0  0  0  1  0  0  0  0  0  0
  197.0330  175.6560  141.3540 C   0  0  0  0  0  0  0  0  0  0  0  0
  194.5640  176.7490  145.9910 C   0  0  0  0  0  2  0  0  0  0  0  0
  191.8340  176.8070  144.1940 N   0  0  1  0  0  0  0  0  0  0  0  0
  197.5090  175.7770  142.5680 N   0  0  0  0  0  0  0  0  0  0  0  0
  193.1990  176.5230  143.7520 C   0  0  2  0  0  3  0  0  0  0  0  0
  195.3860  176.1430  143.5750 C   0  0  0  0  0  0  0  0  0  0  0  0
  196.6960  176.0180  143.7320 C   0  0  0  0  0  3  0  0  0  0  0  0
  193.4950  176.2820  142.3650 N   0  0  0  0  0  0  0  0  0  0  0  0
  193.5110  176.1990  146.9020 C   0  0  0  0  0  2  0  0  0  0  0  0
  194.7640  176.0590  142.2910 C   0  0  0  0  0  0  0  0  0  0  0  0
  195.5420  175.7400  141.0470 C   0  0  0  0  0  0  0  0  0  0  0  0
  188.7880  177.0310  143.1190 C   0  0  1  0  0  3  0  0  0  0  0  0
  189.9720  176.1810  142.6630 C   0  0  0  0  0  2  0  0  0  0  0  0
  190.9250  177.2630  143.1300 C   0  0  1  0  0  3  0  0  0  0  0  0
  189.7600  178.0850  143.6440 C   0  0  0  0  0  2  0  0  0  0  0  0
  186.9150  178.3060  142.4630 C   0  0  0  0  0  1  0  0  0  0  0  0
  187.4750  176.4020  141.2660 C   0  0  0  0  0  1  0  0  0  0  0  0
  188.0480  177.5410  141.9650 N   0  0  0  0  0  0  0  0  0  0  0  0
  189.1770  175.7710  146.3770 C   0  0  0  0  0  0  0  0  0  0  0  0
  190.0090  176.6830  145.9440 N   0  0  0  0  0  0  0  0  0  0  0  0
  189.5480  174.3260  146.4760 C   0  0  0  0  0  2  0  0  0  0  0  0
  189.6610  173.7840  145.1960 O   0  0  0  0  0  1  0  0  0  0  0  0
  187.4270  177.4720  146.7650 C   0  0  0  0  0  1  0  0  0  0  0  0
  187.8710  176.1230  146.7280 O   0  0  0  0  0  0  0  0  0  0  0  0
  195.0700  174.4190  140.4550 C   0  0  0  0  0  2  0  0  0  0  0  0
  195.3020  173.3780  141.3550 O   0  0  0  0  0  0  0  0  0  0  0  0
  194.3460  172.4160  141.0300 C   0  0  0  0  0  1  0  0  0  0  0  0
  1  6  1  0  0  0  0
  2 13  1  0  0  0  0
  3 24  1  1  0  0  0
  3  2  1  0  0  0  0
  4  5  1  0  0  0  0
  5  8  1  0  0  0  0
  6 13  1  0  0  0  0
  7 18  1  6  0  0  0
  7  3  1  0  0  0  0
  8 11  2  0  0  0  0
  9 12  1  1  0  0  0
  9  7  1  0  0  0  0
  9  1  1  0  0  0  0
 10 11  1  0  0  0  0
 10  1  2  0  0  0  0
 14 12  2  0  0  0  0
 14 10  1  0  0  0  0
 15  5  2  0  0  0  0
 15 14  1  0  0  0  0
 16 22  1  6  0  0  0
 16 19  1  0  0  0  0
 17 16  1  0  0  0  0
 18 17  1  1  0  0  0
 18 19  1  0  0  0  0
 21 22  1  0  0  0  0
 22 20  1  0  0  0  0
 23 25  1  0  0  0  0
 23 28  1  0  0  0  0
 24 23  2  0  0  0  0
 26 25  1  0  0  0  0
 28 27  1  0  0  0  0
 29 15  1  0  0  0  0
 29 30  1  0  0  0  0
 31 30  1  0  0  0  0
M  END
>  <MODEL>
5

>  <REMARK>
 VINA RESULT:      -6.3      2.873      7.684
  Name = 
  7 active torsions:
  status: ('A' for Active; 'I' for Inactive)
    1  A    between atoms: C_1  and  O_12
    2  A    between atoms: C_1  and  C_31
    3  A    between atoms: C_3  and  C_5
    4  A    between atoms: C_3  and  O_27
    5  A    between atoms: N_6  and  C_9
    6  A    between atoms: N_16  and  C_23
    7  A    between atoms: N_19  and  C_20
                            x       y       z     vdW  Elec       q    Type
                         _______ _______ _______ _____ _____    ______ ____

>  <TORSDO>
F 7

$$$$
=
 OpenBabel11042417173D

 31 34  0  0  1  0  0  0  0  0999 V2000
  188.7800  176.2590  146.0710 C   0  0  0  0  0  0  0  0  0  0  0  0
  191.3730  175.3510  145.8020 C   0  0  0  0  0  2  0  0  0  0  0  0
  191.1610  174.8550  144.6300 C   0  0  2  0  0  3  0  0  0  0  0  0
  183.8650  179.0400  145.7390 N   0  0  0  0  0  1  0  0  0  0  0  0
  185.1220  178.3750  145.8200 C   0  0  0  0  0  0  0  0  0  0  0  0
  189.6730  175.9270  147.2640 C   0  0  0  0  0  2  0  0  0  0  0  0
  189.7860  174.9250  144.1550 N   0  0  0  0  0  0  0  0  0  0  0  0
  185.7480  178.3450  146.9690 N   0  0  0  0  0  0  0  0  0  0  0  0
  188.7870  175.7860  144.7900 C   0  0  0  0  0  0  0  0  0  0  0  0
  187.5700  177.0450  146.1650 C   0  0  0  0  0  0  0  0  0  0  0  0
  187.0090  177.6800  147.1830 C   0  0  0  0  0  3  0  0  0  0  0  0
  187.6420  176.2580  144.0590 N   0  0  0  0  0  0  0  0  0  0  0  0
  191.1330  175.9060  146.9360 C   0  0  0  0  0  2  0  0  0  0  0  0
  186.9580  176.9890  144.8750 C   0  0  0  0  0  0  0  0  0  0  0  0
  185.6830  177.7160  144.5640 C   0  0  2  0  0  3  0  0  0  0  0  0
  190.5820  173.3600  141.4340 C   0  0  1  0  0  3  0  0  0  0  0  0
  189.9980  174.7490  141.6790 C   0  0  0  0  0  2  0  0  0  0  0  0
  189.3220  174.2410  142.9370 C   0  0  1  0  0  3  0  0  0  0  0  0
  189.9500  172.8760  142.7370 C   0  0  0  0  0  2  0  0  0  0  0  0
  190.4480  171.3700  140.1750 C   0  0  0  0  0  1  0  0  0  0  0  0
  190.3970  173.4150  139.0850 C   0  0  0  0  0  1  0  0  0  0  0  0
  189.9380  172.7280  140.2830 N   0  0  0  0  0  0  0  0  0  0  0  0
  193.2600  174.5670  143.3360 C   0  0  0  0  0  0  0  0  0  0  0  0
  192.1740  174.1220  143.9110 N   0  0  0  0  0  0  0  0  0  0  0  0
  193.6010  176.0220  143.2780 C   0  0  0  0  0  2  0  0  0  0  0  0
  194.4490  176.3460  144.3350 O   0  0  0  0  0  1  0  0  0  0  0  0
  195.0110  174.0820  141.6620 C   0  0  0  0  0  1  0  0  0  0  0  0
  194.1350  173.6790  142.7050 O   0  0  0  0  0  0  0  0  0  0  0  0
  185.9260  178.7770  143.5000 C   0  0  0  0  0  2  0  0  0  0  0  0
  184.9780  178.6640  142.4820 O   0  0  0  0  0  0  0  0  0  0  0  0
  185.6970  178.1910  141.3850 C   0  0  0  0  0  1  0  0  0  0  0  0
  1 10  1  0  0  0  0
  1  6  1  0  0  0  0
  2 13  1  0  0  0  0
  3 24  1  1  0  0  0
  3  2  1  0  0  0  0
  4  5  1  0  0  0  0
  5  8  2  0  0  0  0
  7  3  1  0  0  0  0
  7  9  1  0  0  0  0
  8 11  1  0  0  0  0
  9  1  2  0  0  0  0
 10 11  2  0  0  0  0
 12  9  1  0  0  0  0
 12 14  2  0  0  0  0
 13  6  1  0  0  0  0
 14 10  1  0  0  0  0
 15 29  1  6  0  0  0
 15 14  1  0  0  0  0
 15  5  1  0  0  0  0
 16 22  1  6  0  0  0
 16 17  1  0  0  0  0
 16 19  1  0  0  0  0
 18 17  1  6  0  0  0
 18  7  1  0  0  0  0
 19 18  1  0  0  0  0
 20 22  1  0  0  0  0
 21 22  1  0  0  0  0
 23 24  2  0  0  0  0
 25 23  1  0  0  0  0
 25 26  1  0  0  0  0
 27 28  1  0  0  0  0
 28 23  1  0  0  0  0
 30 29  1  0  0  0  0
 31 30  1  0  0  0  0
M  END
>  <MODEL>
6

>  <REMARK>
 VINA RESULT:      -6.3      1.099      1.176
  Name = 
  7 active torsions:
  status: ('A' for Active; 'I' for Inactive)
    1  A    between atoms: C_1  and  O_12
    2  A    between atoms: C_1  and  C_31
    3  A    between atoms: C_3  and  C_5
    4  A    between atoms: C_3  and  O_27
    5  A    between atoms: N_6  and  C_9
    6  A    between atoms: N_16  and  C_23
    7  A    between atoms: N_19  and  C_20
                            x       y       z     vdW  Elec       q    Type
                         _______ _______ _______ _____ _____    ______ ____

>  <TORSDO>
F 7

$$$$
=
 OpenBabel11042417173D

 31 34  0  0  1  0  0  0  0  0999 V2000
  191.3810  176.2820  145.3410 C   0  0  0  0  0  0  0  0  0  0  0  0
  188.8680  176.0230  146.4510 C   0  0  0  0  0  2  0  0  0  0  0  0
  188.2700  176.4630  145.3950 C   0  0  2  0  0  3  0  0  0  0  0  0
  196.1600  175.7390  142.3620 N   0  0  0  0  0  1  0  0  0  0  0  0
  194.9540  175.8360  143.1130 C   0  0  0  0  0  0  0  0  0  0  0  0
  191.1300  176.3170  146.8460 C   0  0  0  0  0  2  0  0  0  0  0  0
  189.1420  176.9220  144.3230 N   0  0  0  0  0  0  0  0  0  0  0  0
  195.0090  175.7020  144.4150 N   0  0  0  0  0  0  0  0  0  0  0  0
  190.5690  176.6020  144.2910 C   0  0  0  0  0  0  0  0  0  0  0  0
  192.6830  176.0700  144.7470 C   0  0  0  0  0  0  0  0  0  0  0  0
  193.8650  175.8080  145.2850 C   0  0  0  0  0  3  0  0  0  0  0  0
  191.2970  176.5810  143.0500 N   0  0  0  0  0  0  0  0  0  0  0  0
  189.8230  175.7110  147.2530 C   0  0  0  0  0  2  0  0  0  0  0  0
  192.5150  176.2650  143.3410 C   0  0  0  0  0  0  0  0  0  0  0  0
  193.6480  176.1000  142.3720 C   0  0  2  0  0  3  0  0  0  0  0  0
  186.8360  177.1770  142.0640 C   0  0  1  0  0  3  0  0  0  0  0  0
  188.2850  176.6990  141.9950 C   0  0  0  0  0  2  0  0  0  0  0  0
  188.6450  177.6320  143.1340 C   0  0  1  0  0  3  0  0  0  0  0  0
  187.1970  178.0650  143.2530 C   0  0  0  0  0  2  0  0  0  0  0  0
  185.0850  178.2910  140.9430 C   0  0  0  0  0  1  0  0  0  0  0  0
  186.6910  177.1620  139.7120 C   0  0  0  0  0  1  0  0  0  0  0  0
  186.5070  177.9900  140.8940 N   0  0  0  0  0  0  0  0  0  0  0  0
  186.0870  177.4260  146.0830 C   0  0  0  0  0  0  0  0  0  0  0  0
  186.8410  176.6540  145.3450 N   0  0  0  0  0  0  0  0  0  0  0  0
  186.6310  178.2320  147.2190 C   0  0  0  0  0  2  0  0  0  0  0  0
  185.9410  177.9160  148.3890 O   0  0  0  0  0  1  0  0  0  0  0  0
  184.0660  178.6660  145.3890 C   0  0  0  0  0  1  0  0  0  0  0  0
  184.7100  177.4880  145.8550 O   0  0  0  0  0  0  0  0  0  0  0  0
  193.3640  174.9480  141.4180 C   0  0  0  0  0  2  0  0  0  0  0  0
  193.1790  173.7650  142.1340 O   0  0  0  0  0  0  0  0  0  0  0  0
  192.2350  173.0520  141.3950 C   0  0  0  0  0  1  0  0  0  0  0  0
  1  6  1  0  0  0  0
  2 13  1  0  0  0  0
  3 24  1  1  0  0  0
  3  2  1  0  0  0  0
  4  5  1  0  0  0  0
  5  8  2  0  0  0  0
  6 13  1  0  0  0  0
  7  3  1  0  0  0  0
  8 11  1  0  0  0  0
  9  7  1  0  0  0  0
  9  1  2  0  0  0  0
 10 11  2  0  0  0  0
 10  1  1  0  0  0  0
 12 14  2  0  0  0  0
 12  9  1  0  0  0  0
 14 10  1  0  0  0  0
 15 29  1  6  0  0  0
 15  5  1  0  0  0  0
 15 14  1  0  0  0  0
 16 22  1  6  0  0  0
 16 19  1  0  0  0  0
 17 16  1  0  0  0  0
 18 17  1  6  0  0  0
 18 19  1  0  0  0  0
 18  7  1  0  0  0  0
 21 22  1  0  0  0  0
 22 20  1  0  0  0  0
 23 25  1  0  0  0  0
 24 23  2  0  0  0  0
 25 26  1  0  0  0  0
 27 28  1  0  0  0  0
 28 23  1  0  0  0  0
 29 30  1  0  0  0  0
 31 30  1  0  0  0  0
M  END
>  <MODEL>
7

>  <REMARK>
 VINA RESULT:      -6.3      2.347      7.094
  Name = 
  7 active torsions:
  status: ('A' for Active; 'I' for Inactive)
    1  A    between atoms: C_1  and  O_12
    2  A    between atoms: C_1  and  C_31
    3  A    between atoms: C_3  and  C_5
    4  A    between atoms: C_3  and  O_27
    5  A    between atoms: N_6  and  C_9
    6  A    between atoms: N_16  and  C_23
    7  A    between atoms: N_19  and  C_20
                            x       y       z     vdW  Elec       q    Type
                         _______ _______ _______ _____ _____    ______ ____

>  <TORSDO>
F 7

$$$$
=
 OpenBabel11042417173D

 31 34  0  0  1  0  0  0  0  0999 V2000
  188.3040  175.0420  142.8780 C   0  0  0  0  0  0  0  0  0  0  0  0
  189.3460  172.4860  142.9200 C   0  0  0  0  0  2  0  0  0  0  0  0
  190.1500  172.7450  143.8950 C   0  0  2  0  0  3  0  0  0  0  0  0
  185.5570  179.8790  143.9110 N   0  0  0  0  0  1  0  0  0  0  0  0
  186.2170  178.6410  143.6640 C   0  0  0  0  0  0  0  0  0  0  0  0
  188.3110  174.1270  141.6560 C   0  0  0  0  0  2  0  0  0  0  0  0
  190.1690  174.1310  144.3450 N   0  0  1  0  0  0  0  0  0  0  0  0
  185.9380  177.9840  142.5660 N   0  0  0  0  0  0  0  0  0  0  0  0
  189.1260  175.0850  143.9680 C   0  0  2  0  0  3  0  0  0  0  0  0
  187.4800  176.2250  142.9940 C   0  0  0  0  0  0  0  0  0  0  0  0
  186.5580  176.7380  142.1920 C   0  0  0  0  0  3  0  0  0  0  0  0
  188.8420  176.2350  144.7840 N   0  0  0  0  0  0  0  0  0  0  0  0
  188.4790  172.6770  141.9900 C   0  0  0  0  0  2  0  0  0  0  0  0
  187.8830  176.8740  144.2010 C   0  0  0  0  0  0  0  0  0  0  0  0
  187.2300  178.1350  144.6860 C   0  0  0  0  0  0  0  0  0  0  0  0
  193.1180  175.3820  144.8160 C   0  0  1  0  0  3  0  0  0  0  0  0
  192.5250  174.0150  145.1460 C   0  0  0  0  0  2  0  0  0  0  0  0
  191.1570  174.6480  145.3050 C   0  0  1  0  0  3  0  0  0  0  0  0
  191.7250  175.9990  144.9150 C   0  0  0  0  0  2  0  0  0  0  0  0
  194.3990  177.2030  145.5940 C   0  0  0  0  0  1  0  0  0  0  0  0
  195.1790  175.0430  145.9080 C   0  0  0  0  0  1  0  0  0  0  0  0
  193.9690  175.8500  145.9100 N   0  0  0  0  0  0  0  0  0  0  0  0
  192.0330  171.1340  143.7410 C   0  0  0  0  0  0  0  0  0  0  0  0
  191.0960  171.7750  144.3900 N   0  0  0  0  0  0  0  0  0  0  0  0
  192.2310  171.2750  142.2660 C   0  0  0  0  0  2  0  0  0  0  0  0
  193.0840  172.3470  142.0080 O   0  0  0  0  0  1  0  0  0  0  0  0
  194.1110  170.6430  144.9840 C   0  0  0  0  0  1  0  0  0  0  0  0
  192.8710  170.2440  144.4170 O   0  0  0  0  0  0  0  0  0  0  0  0
  186.5300  177.8890  146.0150 C   0  0  0  0  0  2  0  0  0  0  0  0
  185.4420  177.0340  145.8360 O   0  0  0  0  0  0  0  0  0  0  0  0
  184.4160  177.6110  146.5850 C   0  0  0  0  0  1  0  0  0  0  0  0
  1 10  2  0  0  0  0
  2  3  1  0  0  0  0
  3  7  1  0  0  0  0
  3 24  1  6  0  0  0
  5  4  1  0  0  0  0
  5 15  2  0  0  0  0
  6 13  1  0  0  0  0
  6  1  1  0  0  0  0
  7 18  1  1  0  0  0
  8  5  1  0  0  0  0
  9  1  1  1  0  0  0
  9  7  1  0  0  0  0
  9 12  1  0  0  0  0
 10 14  1  0  0  0  0
 11  8  2  0  0  0  0
 11 10  1  0  0  0  0
 13  2  1  0  0  0  0
 14 15  1  0  0  0  0
 14 12  2  0  0  0  0
 15 29  1  0  0  0  0
 16 19  1  0  0  0  0
 16 17  1  0  0  0  0
 16 22  1  1  0  0  0
 17 18  1  0  0  0  0
 18 19  1  6  0  0  0
 20 22  1  0  0  0  0
 21 22  1  0  0  0  0
 23 24  2  0  0  0  0
 23 28  1  0  0  0  0
 25 23  1  0  0  0  0
 26 25  1  0  0  0  0
 28 27  1  0  0  0  0
 30 29  1  0  0  0  0
 30 31  1  0  0  0  0
M  END
>  <MODEL>
8

>  <REMARK>
 VINA RESULT:      -6.3      2.430      4.661
  Name = 
  7 active torsions:
  status: ('A' for Active; 'I' for Inactive)
    1  A    between atoms: C_1  and  O_12
    2  A    between atoms: C_1  and  C_31
    3  A    between atoms: C_3  and  C_5
    4  A    between atoms: C_3  and  O_27
    5  A    between atoms: N_6  and  C_9
    6  A    between atoms: N_16  and  C_23
    7  A    between atoms: N_19  and  C_20
                            x       y       z     vdW  Elec       q    Type
                         _______ _______ _______ _____ _____    ______ ____

>  <TORSDO>
F 7

$$$$
=
 OpenBabel11042417173D

 31 34  0  0  1  0  0  0  0  0999 V2000
  190.4880  176.1980  145.9700 C   0  0  0  0  0  0  0  0  0  0  0  0
  193.1830  175.7820  146.3980 C   0  0  0  0  0  2  0  0  0  0  0  0
  193.3630  175.2370  145.2420 C   0  0  2  0  0  3  0  0  0  0  0  0
  185.4050  178.0160  144.2800 N   0  0  0  0  0  1  0  0  0  0  0  0
  186.6980  177.5960  144.7050 C   0  0  0  0  0  0  0  0  0  0  0  0
  191.0970  176.0560  147.3630 C   0  0  0  0  0  2  0  0  0  0  0  0
  192.1600  175.0450  144.4430 N   0  0  0  0  0  0  0  0  0  0  0  0
  187.0110  177.7010  145.9730 N   0  0  0  0  0  0  0  0  0  0  0  0
  190.9000  175.7150  144.7610 C   0  0  0  0  0  0  0  0  0  0  0  0
  189.1750  176.7490  145.7180 C   0  0  0  0  0  0  0  0  0  0  0  0
  188.2730  177.2850  146.5270 C   0  0  0  0  0  3  0  0  0  0  0  0
  189.9100  175.9560  143.7450 N   0  0  0  0  0  0  0  0  0  0  0  0
  192.5730  176.3010  147.4030 C   0  0  0  0  0  2  0  0  0  0  0  0
  188.9260  176.5600  144.3230 C   0  0  0  0  0  0  0  0  0  0  0  0
  187.6620  177.0330  143.6670 C   0  0  2  0  0  3  0  0  0  0  0  0
  192.0230  172.1260  143.0470 C   0  0  1  0  0  3  0  0  0  0  0  0
  193.1570  173.1390  143.1850 C   0  0  0  0  0  2  0  0  0  0  0  0
  192.1450  174.2670  143.1930 C   0  0  1  0  0  3  0  0  0  0  0  0
  191.0100  173.2650  143.1220 C   0  0  0  0  0  2  0  0  0  0  0  0
  190.8340  170.7090  141.5850 C   0  0  0  0  0  1  0  0  0  0  0  0
  193.1480  170.5990  141.6480 C   0  0  0  0  0  1  0  0  0  0  0  0
  192.0290  171.5270  141.7130 N   0  0  0  0  0  0  0  0  0  0  0  0
  195.6770  175.3130  144.3450 C   0  0  0  0  0  0  0  0  0  0  0  0
  194.6360  174.6930  144.8380 N   0  0  0  0  0  0  0  0  0  0  0  0
  195.6730  176.7770  144.0420 C   0  0  0  0  0  2  0  0  0  0  0  0
  196.9170  177.1540  143.5400 O   0  0  0  0  0  1  0  0  0  0  0  0
  197.5660  173.8690  145.0160 C   0  0  0  0  0  1  0  0  0  0  0  0
  196.8380  174.5990  144.0380 O   0  0  0  0  0  0  0  0  0  0  0  0
  187.9750  178.1040  142.6310 C   0  0  0  0  0  2  0  0  0  0  0  0
  188.1980  177.5180  141.3850 O   0  0  0  0  0  0  0  0  0  0  0  0
  187.0330  176.7950  141.1250 C   0  0  0  0  0  1  0  0  0  0  0  0
  1  6  1  0  0  0  0
  2 13  1  0  0  0  0
  3 24  1  1  0  0  0
  3  2  1  0  0  0  0
  4  5  1  0  0  0  0
  5  8  2  0  0  0  0
  6 13  1  0  0  0  0
  7  9  1  0  0  0  0
  7  3  1  0  0  0  0
  8 11  1  0  0  0  0
  9  1  2  0  0  0  0
 10  1  1  0  0  0  0
 10 11  2  0  0  0  0
 12 14  2  0  0  0  0
 12  9  1  0  0  0  0
 14 10  1  0  0  0  0
 15 29  1  6  0  0  0
 15 14  1  0  0  0  0
 15  5  1  0  0  0  0
 16 22  1  6  0  0  0
 16 19  1  0  0  0  0
 16 17  1  0  0  0  0
 17 18  1  0  0  0  0
 18 19  1  1  0  0  0
 18  7  1  0  0  0  0
 20 22  1  0  0  0  0
 21 22  1  0  0  0  0
 23 24  2  0  0  0  0
 25 23  1  0  0  0  0
 26 25  1  0  0  0  0
 28 23  1  0  0  0  0
 28 27  1  0  0  0  0
 30 29  1  0  0  0  0
 31 30  1  0  0  0  0
M  END
>  <MODEL>
9

>  <REMARK>
 VINA RESULT:      -5.9      2.079      2.494
  Name = 
  7 active torsions:
  status: ('A' for Active; 'I' for Inactive)
    1  A    between atoms: C_1  and  O_12
    2  A    between atoms: C_1  and  C_31
    3  A    between atoms: C_3  and  C_5
    4  A    between atoms: C_3  and  O_27
    5  A    between atoms: N_6  and  C_9
    6  A    between atoms: N_16  and  C_23
    7  A    between atoms: N_19  and  C_20
                            x       y       z     vdW  Elec       q    Type
                         _______ _______ _______ _____ _____    ______ ____

>  <TORSDO>
F 7

$$$$
