=
 OpenBabel11042416233D

 38 42  0  0  1  0  0  0  0  0999 V2000
  191.9030  174.1320  141.0650 C   0  0  0  0  0  0  0  0  0  0  0  0
  189.6260  174.4390  141.8360 C   0  0  0  0  0  3  0  0  0  0  0  0
  191.3940  175.7020  142.8000 N   0  0  0  0  0  0  0  0  0  0  0  0
  192.3230  175.1150  141.9950 C   0  0  0  0  0  0  0  0  0  0  0  0
  192.8760  173.3970  140.1980 C   0  0  0  0  0  1  0  0  0  0  0  0
  190.0700  175.4010  142.7440 C   0  0  0  0  0  0  0  0  0  0  0  0
  190.5380  173.8000  140.9920 C   0  0  0  0  0  0  0  0  0  0  0  0
  188.9980  175.6740  145.0130 C   0  0  0  0  0  0  0  0  0  0  0  0
  186.3980  178.1200  146.1210 N   0  0  0  0  0  2  0  0  0  0  0  0
  188.3180  177.1720  143.1920 C   0  0  0  0  0  0  0  0  0  0  0  0
  187.4410  177.7870  144.0900 C   0  0  0  0  0  0  0  0  0  0  0  0
  189.7770  174.5240  145.5630 C   0  0  0  0  0  1  0  0  0  0  0  0
  189.1150  176.0850  143.6530 C   0  0  0  0  0  0  0  0  0  0  0  0
  188.4250  177.7060  141.7980 C   0  0  0  0  0  1  0  0  0  0  0  0
  187.3410  177.3720  145.3850 C   0  0  0  0  0  0  0  0  0  0  0  0
  185.8270  179.1200  145.2180 C   0  0  1  0  0  3  0  0  0  0  0  0
  186.5110  178.9230  143.8470 C   0  0  0  0  0  2  0  0  0  0  0  0
  188.1040  176.3210  145.8780 C   0  0  0  0  0  3  0  0  0  0  0  0
  183.6540  178.6620  146.1120 O   0  0  0  0  0  1  0  0  0  0  0  0
  184.3510  178.9260  145.0960 C   0  0  0  0  0  0  0  0  0  0  0  0
  183.7460  179.0110  143.8500 O   0  0  0  0  0  0  0  0  0  0  0  0
  193.7370  175.5350  142.1530 C   0  0  0  0  0  0  0  0  0  0  0  0
  194.4410  175.1610  143.3080 C   0  0  0  0  0  3  0  0  0  0  0  0
  195.7630  175.5700  143.5070 C   0  0  0  0  0  0  0  0  0  0  0  0
  195.6960  176.7660  141.3980 C   0  0  0  0  0  3  0  0  0  0  0  0
  196.3900  176.3750  142.5450 C   0  0  0  0  0  3  0  0  0  0  0  0
  194.3760  176.3510  141.2060 C   0  0  0  0  0  3  0  0  0  0  0  0
  196.4320  175.1700  144.6640 O   0  0  0  0  0  0  0  0  0  0  0  0
  195.7910  174.4580  145.6550 N   0  0  0  0  0  2  0  0  0  0  0  0
  195.8090  173.0300  145.6720 C   0  0  0  0  0  0  0  0  0  0  0  0
  194.6020  172.3130  145.6540 C   0  0  0  0  0  0  0  0  0  0  0  0
  197.0400  170.9380  145.7280 C   0  0  0  0  0  3  0  0  0  0  0  0
  197.0260  172.3360  145.7100 C   0  0  0  0  0  3  0  0  0  0  0  0
  195.8370  170.2280  145.7060 C   0  0  0  0  0  3  0  0  0  0  0  0
  193.3850  172.9830  145.6250 O   0  0  0  0  0  1  0  0  0  0  0  0
  194.6200  170.9140  145.6710 C   0  0  0  0  0  3  0  0  0  0  0  0
  190.0890  172.8050  140.0620 N   0  0  0  0  0  2  0  0  0  0  0  0
  188.7330  172.7610  139.5390 C   0  0  0  0  0  1  0  0  0  0  0  0
  1  4  1  0  0  0  0
  2  6  2  0  0  0  0
  4 22  1  0  0  0  0
  4  3  2  0  0  0  0
  5  1  1  0  0  0  0
  6  3  1  0  0  0  0
  6 13  1  0  0  0  0
  7  1  2  0  0  0  0
  7  2  1  0  0  0  0
  8 12  1  0  0  0  0
  8 18  1  0  0  0  0
 10 13  1  0  0  0  0
 10 11  2  0  0  0  0
 11 15  1  0  0  0  0
 13  8  2  0  0  0  0
 14 10  1  0  0  0  0
 15 18  2  0  0  0  0
 15  9  1  0  0  0  0
 16 20  1  6  0  0  0
 16  9  1  0  0  0  0
 17 11  1  0  0  0  0
 17 16  1  0  0  0  0
 20 19  1  0  0  0  0
 21 20  2  0  0  0  0
 22 23  1  0  0  0  0
 23 24  2  0  0  0  0
 24 28  1  0  0  0  0
 25 26  2  0  0  0  0
 26 24  1  0  0  0  0
 27 25  1  0  0  0  0
 27 22  2  0  0  0  0
 28 29  1  0  0  0  0
 29 30  1  0  0  0  0
 30 33  1  0  0  0  0
 31 36  1  0  0  0  0
 31 30  2  0  0  0  0
 33 32  2  0  0  0  0
 34 32  1  0  0  0  0
 35 31  1  0  0  0  0
 36 34  2  0  0  0  0
 37  7  1  0  0  0  0
 38 37  1  0  0  0  0
M  END
>  <MODEL>
1

>  <REMARK>
 VINA RESULT:      -8.2      0.000      0.000
  Name = 
  7 active torsions:
  status: ('A' for Active; 'I' for Inactive)
    1  A    between atoms: C_1  and  C_28
    2  A    between atoms: N_4  and  C_6
    3  A    between atoms: N_4  and  O_23
    4  A    between atoms: N_11  and  C_33
    5  A    between atoms: C_14  and  C_32
    6  A    between atoms: C_20  and  O_23
    7  A    between atoms: C_21  and  CA_25
                            x       y       z     vdW  Elec       q    Type
                         _______ _______ _______ _____ _____    ______ ____

>  <TORSDO>
F 7

$$$$
=
 OpenBabel11042416233D

 38 42  0  0  1  0  0  0  0  0999 V2000
  193.2680  174.4890  145.0820 C   0  0  0  0  0  0  0  0  0  0  0  0
  191.8370  176.2240  145.9840 C   0  0  0  0  0  3  0  0  0  0  0  0
  190.9190  174.5070  144.6210 N   0  0  0  0  0  0  0  0  0  0  0  0
  192.1320  173.9100  144.4640 C   0  0  0  0  0  0  0  0  0  0  0  0
  194.6430  173.9270  144.8970 C   0  0  0  0  0  1  0  0  0  0  0  0
  190.7370  175.6320  145.3610 C   0  0  0  0  0  0  0  0  0  0  0  0
  193.1070  175.6570  145.8500 C   0  0  0  0  0  0  0  0  0  0  0  0
  188.5340  175.8530  146.5730 C   0  0  0  0  0  0  0  0  0  0  0  0
  185.5860  177.9970  145.7450 N   0  0  0  0  0  2  0  0  0  0  0  0
  188.9140  177.1870  144.5480 C   0  0  0  0  0  0  0  0  0  0  0  0
  187.6330  177.7210  144.7170 C   0  0  0  0  0  0  0  0  0  0  0  0
  188.9410  174.8300  147.5810 C   0  0  0  0  0  1  0  0  0  0  0  0
  189.3820  176.2260  145.4880 C   0  0  0  0  0  0  0  0  0  0  0  0
  189.7630  177.6790  143.4180 C   0  0  0  0  0  1  0  0  0  0  0  0
  186.8370  177.3450  145.7590 C   0  0  0  0  0  0  0  0  0  0  0  0
  185.5640  178.8840  144.5820 C   0  0  1  0  0  3  0  0  0  0  0  0
  186.9270  178.7240  143.8740 C   0  0  0  0  0  2  0  0  0  0  0  0
  187.2570  176.4160  146.7020 C   0  0  0  0  0  3  0  0  0  0  0  0
  183.3130  179.0340  143.7790 O   0  0  0  0  0  1  0  0  0  0  0  0
  184.4510  178.5050  143.6610 C   0  0  0  0  0  0  0  0  0  0  0  0
  184.6630  177.5410  142.6850 O   0  0  0  0  0  0  0  0  0  0  0  0
  192.1960  172.6820  143.6330 C   0  0  0  0  0  0  0  0  0  0  0  0
  192.2950  171.4310  144.2630 C   0  0  0  0  0  3  0  0  0  0  0  0
  192.3950  170.2560  143.5110 C   0  0  0  0  0  0  0  0  0  0  0  0
  192.3240  171.5690  141.4730 C   0  0  0  0  0  3  0  0  0  0  0  0
  192.4080  170.3300  142.1120 C   0  0  0  0  0  3  0  0  0  0  0  0
  192.2230  172.7380  142.2320 C   0  0  0  0  0  3  0  0  0  0  0  0
  192.4820  169.0320  144.1730 O   0  0  0  0  0  0  0  0  0  0  0  0
  193.6820  168.3640  144.2960 N   0  0  0  0  0  2  0  0  0  0  0  0
  194.6120  168.6920  145.3280 C   0  0  0  0  0  0  0  0  0  0  0  0
  195.6930  169.5450  145.0540 C   0  0  0  0  0  0  0  0  0  0  0  0
  195.3690  168.4890  147.6260 C   0  0  0  0  0  3  0  0  0  0  0  0
  194.4560  168.1660  146.6170 C   0  0  0  0  0  3  0  0  0  0  0  0
  196.4410  169.3410  147.3500 C   0  0  0  0  0  3  0  0  0  0  0  0
  195.8690  170.0710  143.7800 O   0  0  0  0  0  1  0  0  0  0  0  0
  196.6040  169.8670  146.0660 C   0  0  0  0  0  3  0  0  0  0  0  0
  194.2420  176.2650  146.4810 N   0  0  0  0  0  2  0  0  0  0  0  0
  194.7970  177.5410  146.0580 C   0  0  0  0  0  1  0  0  0  0  0  0
  1  7  1  0  0  0  0
  3  6  2  0  0  0  0
  4  3  1  0  0  0  0
  4  1  2  0  0  0  0
  5  1  1  0  0  0  0
  6 13  1  0  0  0  0
  6  2  1  0  0  0  0
  7  2  2  0  0  0  0
  7 37  1  0  0  0  0
  8 18  1  0  0  0  0
  8 12  1  0  0  0  0
  9 15  1  0  0  0  0
 10 11  2  0  0  0  0
 10 13  1  0  0  0  0
 11 15  1  0  0  0  0
 13  8  2  0  0  0  0
 14 10  1  0  0  0  0
 15 18  2  0  0  0  0
 16 20  1  6  0  0  0
 16  9  1  0  0  0  0
 17 16  1  0  0  0  0
 17 11  1  0  0  0  0
 20 19  1  0  0  0  0
 21 20  2  0  0  0  0
 22 23  1  0  0  0  0
 22  4  1  0  0  0  0
 24 28  1  0  0  0  0
 24 23  2  0  0  0  0
 25 26  2  0  0  0  0
 25 27  1  0  0  0  0
 26 24  1  0  0  0  0
 27 22  2  0  0  0  0
 28 29  1  0  0  0  0
 29 30  1  0  0  0  0
 30 33  1  0  0  0  0
 31 30  2  0  0  0  0
 31 36  1  0  0  0  0
 33 32  2  0  0  0  0
 34 32  1  0  0  0  0
 35 31  1  0  0  0  0
 36 34  2  0  0  0  0
 38 37  1  0  0  0  0
M  END
>  <MODEL>
2

>  <REMARK>
 VINA RESULT:      -8.1      2.561      4.295
  Name = 
  7 active torsions:
  status: ('A' for Active; 'I' for Inactive)
    1  A    between atoms: C_1  and  C_28
    2  A    between atoms: N_4  and  C_6
    3  A    between atoms: N_4  and  O_23
    4  A    between atoms: N_11  and  C_33
    5  A    between atoms: C_14  and  C_32
    6  A    between atoms: C_20  and  O_23
    7  A    between atoms: C_21  and  CA_25
                            x       y       z     vdW  Elec       q    Type
                         _______ _______ _______ _____ _____    ______ ____

>  <TORSDO>
F 7

$$$$
=
 OpenBabel11042416233D

 38 42  0  0  1  0  0  0  0  0999 V2000
  193.8560  174.9100  145.6160 C   0  0  0  0  0  0  0  0  0  0  0  0
  192.2410  176.7100  145.7630 C   0  0  0  0  0  3  0  0  0  0  0  0
  191.6030  174.6020  144.8670 N   0  0  0  0  0  0  0  0  0  0  0  0
  192.8490  174.0850  145.0560 C   0  0  0  0  0  0  0  0  0  0  0  0
  195.2640  174.4310  145.7880 C   0  0  0  0  0  1  0  0  0  0  0  0
  191.2700  175.8750  145.2070 C   0  0  0  0  0  0  0  0  0  0  0  0
  193.5380  176.2320  145.9710 C   0  0  0  0  0  0  0  0  0  0  0  0
  189.5690  177.0670  143.7710 C   0  0  0  0  0  0  0  0  0  0  0  0
  185.9410  177.6830  144.4250 N   0  0  0  0  0  2  0  0  0  0  0  0
  188.8580  176.1350  145.9280 C   0  0  0  0  0  0  0  0  0  0  0  0
  187.5720  176.6120  145.6550 C   0  0  0  0  0  0  0  0  0  0  0  0
  190.6010  177.3760  142.7370 C   0  0  0  0  0  1  0  0  0  0  0  0
  189.8880  176.3680  144.9730 C   0  0  0  0  0  0  0  0  0  0  0  0
  189.0940  175.3560  147.1840 C   0  0  0  0  0  1  0  0  0  0  0  0
  187.2920  177.2840  144.5030 C   0  0  0  0  0  0  0  0  0  0  0  0
  185.2760  177.2270  145.6460 C   0  0  1  0  0  3  0  0  0  0  0  0
  186.3450  176.5010  146.4900 C   0  0  0  0  0  2  0  0  0  0  0  0
  188.2650  177.5270  143.5420 C   0  0  0  0  0  3  0  0  0  0  0  0
  183.6470  178.9400  146.0270 O   0  0  0  0  0  0  0  0  0  0  0  0
  184.7190  178.3900  146.3980 C   0  0  0  0  0  0  0  0  0  0  0  0
  185.4010  178.8870  147.5000 O   0  0  0  0  0  1  0  0  0  0  0  0
  193.0830  172.6790  144.6460 C   0  0  0  0  0  0  0  0  0  0  0  0
  192.4040  172.1660  143.5290 C   0  0  0  0  0  3  0  0  0  0  0  0
  192.5720  170.8340  143.1370 C   0  0  0  0  0  0  0  0  0  0  0  0
  194.0890  170.4910  144.9970 C   0  0  0  0  0  3  0  0  0  0  0  0
  193.4190  169.9980  143.8760 C   0  0  0  0  0  3  0  0  0  0  0  0
  193.9170  171.8240  145.3810 C   0  0  0  0  0  3  0  0  0  0  0  0
  191.8870  170.3650  142.0170 O   0  0  0  0  0  0  0  0  0  0  0  0
  190.5240  170.5250  141.8870 N   0  0  0  0  0  2  0  0  0  0  0  0
  189.9480  171.8050  141.6280 C   0  0  0  0  0  0  0  0  0  0  0  0
  189.1790  172.4420  142.6150 C   0  0  0  0  0  0  0  0  0  0  0  0
  189.5760  173.6870  140.1390 C   0  0  0  0  0  3  0  0  0  0  0  0
  190.1420  172.4330  140.3900 C   0  0  0  0  0  3  0  0  0  0  0  0
  188.8150  174.3190  141.1250 C   0  0  0  0  0  3  0  0  0  0  0  0
  188.9690  171.8320  143.8460 O   0  0  0  0  0  1  0  0  0  0  0  0
  188.6160  173.6970  142.3600 C   0  0  0  0  0  3  0  0  0  0  0  0
  194.5410  177.0880  146.5340 N   0  0  0  0  0  2  0  0  0  0  0  0
  195.1800  178.1610  145.7890 C   0  0  0  0  0  1  0  0  0  0  0  0
  1  5  1  0  0  0  0
  1  7  1  0  0  0  0
  2  7  2  0  0  0  0
  3  4  1  0  0  0  0
  3  6  2  0  0  0  0
  4  1  2  0  0  0  0
  6  2  1  0  0  0  0
  7 37  1  0  0  0  0
  8 13  1  0  0  0  0
  9 15  1  0  0  0  0
  9 16  1  0  0  0  0
 10 14  1  0  0  0  0
 11 10  1  0  0  0  0
 11 17  1  0  0  0  0
 12  8  1  0  0  0  0
 13  6  1  0  0  0  0
 13 10  2  0  0  0  0
 15 11  2  0  0  0  0
 16 20  1  1  0  0  0
 16 17  1  0  0  0  0
 18  8  2  0  0  0  0
 18 15  1  0  0  0  0
 19 20  2  0  0  0  0
 20 21  1  0  0  0  0
 22  4  1  0  0  0  0
 22 27  1  0  0  0  0
 23 22  2  0  0  0  0
 24 23  1  0  0  0  0
 24 26  2  0  0  0  0
 25 27  2  0  0  0  0
 26 25  1  0  0  0  0
 28 24  1  0  0  0  0
 29 28  1  0  0  0  0
 30 29  1  0  0  0  0
 30 31  1  0  0  0  0
 31 35  1  0  0  0  0
 32 33  1  0  0  0  0
 32 34  2  0  0  0  0
 33 30  2  0  0  0  0
 34 36  1  0  0  0  0
 36 31  2  0  0  0  0
 38 37  1  0  0  0  0
M  END
>  <MODEL>
3

>  <REMARK>
 VINA RESULT:      -8.1      2.612      5.622
  Name = 
  7 active torsions:
  status: ('A' for Active; 'I' for Inactive)
    1  A    between atoms: C_1  and  C_28
    2  A    between atoms: N_4  and  C_6
    3  A    between atoms: N_4  and  O_23
    4  A    between atoms: N_11  and  C_33
    5  A    between atoms: C_14  and  C_32
    6  A    between atoms: C_20  and  O_23
    7  A    between atoms: C_21  and  CA_25
                            x       y       z     vdW  Elec       q    Type
                         _______ _______ _______ _____ _____    ______ ____

>  <TORSDO>
F 7

$$$$
=
 OpenBabel11042416233D

 38 42  0  0  1  0  0  0  0  0999 V2000
  193.3180  174.5860  145.2470 C   0  0  0  0  0  0  0  0  0  0  0  0
  191.8260  176.3430  145.9950 C   0  0  0  0  0  3  0  0  0  0  0  0
  190.9810  174.5160  144.7310 N   0  0  0  0  0  0  0  0  0  0  0  0
  192.2120  173.9390  144.6430 C   0  0  0  0  0  0  0  0  0  0  0  0
  194.7090  174.0470  145.1320 C   0  0  0  0  0  1  0  0  0  0  0  0
  190.7560  175.6840  145.3880 C   0  0  0  0  0  0  0  0  0  0  0  0
  193.1120  175.7990  145.9290 C   0  0  0  0  0  0  0  0  0  0  0  0
  188.5040  175.8990  146.5080 C   0  0  0  0  0  0  0  0  0  0  0  0
  185.5460  177.9470  145.4950 N   0  0  0  0  0  2  0  0  0  0  0  0
  188.9330  177.1690  144.4530 C   0  0  0  0  0  0  0  0  0  0  0  0
  187.6360  177.6810  144.5550 C   0  0  0  0  0  0  0  0  0  0  0  0
  188.8940  174.9210  147.5680 C   0  0  0  0  0  1  0  0  0  0  0  0
  189.3840  176.2520  145.4440 C   0  0  0  0  0  0  0  0  0  0  0  0
  189.8140  177.6390  143.3380 C   0  0  0  0  0  1  0  0  0  0  0  0
  186.8090  177.3240  145.5790 C   0  0  0  0  0  0  0  0  0  0  0  0
  185.5500  178.7920  144.3010 C   0  0  1  0  0  3  0  0  0  0  0  0
  186.9420  178.6370  143.6510 C   0  0  0  0  0  2  0  0  0  0  0  0
  187.2110  176.4370  146.5700 C   0  0  0  0  0  3  0  0  0  0  0  0
  184.7380  177.5380  142.4310 O   0  0  0  0  0  0  0  0  0  0  0  0
  184.4810  178.3570  143.3540 C   0  0  0  0  0  0  0  0  0  0  0  0
  183.2010  178.8780  143.4740 O   0  0  0  0  0  1  0  0  0  0  0  0
  192.3230  172.6590  143.9000 C   0  0  0  0  0  0  0  0  0  0  0  0
  191.7830  172.5660  142.6080 C   0  0  0  0  0  3  0  0  0  0  0  0
  191.8370  171.3650  141.8930 C   0  0  0  0  0  0  0  0  0  0  0  0
  192.9560  170.3130  143.7710 C   0  0  0  0  0  3  0  0  0  0  0  0
  192.4270  170.2370  142.4800 C   0  0  0  0  0  3  0  0  0  0  0  0
  192.8990  171.5180  144.4780 C   0  0  0  0  0  3  0  0  0  0  0  0
  191.2980  171.3140  140.6090 O   0  0  0  0  0  0  0  0  0  0  0  0
  189.9430  171.4430  140.3910 N   0  0  0  0  0  2  0  0  0  0  0  0
  189.2330  172.6110  140.8030 C   0  0  0  0  0  0  0  0  0  0  0  0
  189.2670  173.7700  140.0110 C   0  0  0  0  0  0  0  0  0  0  0  0
  187.8080  173.7580  142.4000 C   0  0  0  0  0  3  0  0  0  0  0  0
  188.5020  172.6120  141.9990 C   0  0  0  0  0  3  0  0  0  0  0  0
  187.8420  174.9080  141.6070 C   0  0  0  0  0  3  0  0  0  0  0  0
  189.9930  173.7910  138.8260 O   0  0  0  0  0  1  0  0  0  0  0  0
  188.5710  174.9140  140.4150 C   0  0  0  0  0  3  0  0  0  0  0  0
  194.2170  176.4760  146.5430 N   0  0  0  0  0  2  0  0  0  0  0  0
  194.9070  177.5950  145.9220 C   0  0  0  0  0  1  0  0  0  0  0  0
  1  7  1  0  0  0  0
  3  6  2  0  0  0  0
  4  3  1  0  0  0  0
  4  1  2  0  0  0  0
  5  1  1  0  0  0  0
  6 13  1  0  0  0  0
  6  2  1  0  0  0  0
  7  2  2  0  0  0  0
  7 37  1  0  0  0  0
  8 18  1  0  0  0  0
  8 12  1  0  0  0  0
  9 15  1  0  0  0  0
 10 11  2  0  0  0  0
 10 13  1  0  0  0  0
 11 15  1  0  0  0  0
 13  8  2  0  0  0  0
 14 10  1  0  0  0  0
 15 18  2  0  0  0  0
 16 20  1  6  0  0  0
 16  9  1  0  0  0  0
 17 16  1  0  0  0  0
 17 11  1  0  0  0  0
 19 20  2  0  0  0  0
 20 21  1  0  0  0  0
 22 27  1  0  0  0  0
 22  4  1  0  0  0  0
 23 22  2  0  0  0  0
 24 26  2  0  0  0  0
 24 23  1  0  0  0  0
 25 27  2  0  0  0  0
 26 25  1  0  0  0  0
 28 24  1  0  0  0  0
 29 28  1  0  0  0  0
 29 30  1  0  0  0  0
 30 33  1  0  0  0  0
 31 36  1  0  0  0  0
 31 30  2  0  0  0  0
 33 32  2  0  0  0  0
 34 32  1  0  0  0  0
 35 31  1  0  0  0  0
 36 34  2  0  0  0  0
 38 37  1  0  0  0  0
M  END
>  <MODEL>
4

>  <REMARK>
 VINA RESULT:      -8.0      2.748      5.721
  Name = 
  7 active torsions:
  status: ('A' for Active; 'I' for Inactive)
    1  A    between atoms: C_1  and  C_28
    2  A    between atoms: N_4  and  C_6
    3  A    between atoms: N_4  and  O_23
    4  A    between atoms: N_11  and  C_33
    5  A    between atoms: C_14  and  C_32
    6  A    between atoms: C_20  and  O_23
    7  A    between atoms: C_21  and  CA_25
                            x       y       z     vdW  Elec       q    Type
                         _______ _______ _______ _____ _____    ______ ____

>  <TORSDO>
F 7

$$$$
=
 OpenBabel11042416233D

 38 42  0  0  1  0  0  0  0  0999 V2000
  185.9210  178.3160  145.5760 C   0  0  0  0  0  0  0  0  0  0  0  0
  187.9320  177.4550  146.6190 C   0  0  0  0  0  3  0  0  0  0  0  0
  187.6170  177.2400  144.2720 N   0  0  0  0  0  0  0  0  0  0  0  0
  186.4120  177.8720  144.3230 C   0  0  0  0  0  0  0  0  0  0  0  0
  184.5750  178.9550  145.7170 C   0  0  0  0  0  1  0  0  0  0  0  0
  188.3870  177.0260  145.3710 C   0  0  0  0  0  0  0  0  0  0  0  0
  186.6980  178.1020  146.7290 C   0  0  0  0  0  0  0  0  0  0  0  0
  189.9490  175.1350  145.9700 C   0  0  0  0  0  0  0  0  0  0  0  0
  193.4140  174.4530  144.7470 N   0  0  0  0  0  2  0  0  0  0  0  0
  190.7010  176.8310  144.3640 C   0  0  0  0  0  0  0  0  0  0  0  0
  191.9100  176.1350  144.2680 C   0  0  0  0  0  0  0  0  0  0  0  0
  188.9540  174.5650  146.9280 C   0  0  0  0  0  1  0  0  0  0  0  0
  189.6940  176.3310  145.2370 C   0  0  0  0  0  0  0  0  0  0  0  0
  190.4900  178.0440  143.5130 C   0  0  0  0  0  1  0  0  0  0  0  0
  192.1340  174.9970  144.9840 C   0  0  0  0  0  0  0  0  0  0  0  0
  194.0900  175.3220  143.7830 C   0  0  1  0  0  3  0  0  0  0  0  0
  193.1030  176.4580  143.4400 C   0  0  0  0  0  2  0  0  0  0  0  0
  191.1760  174.4710  145.8420 C   0  0  0  0  0  3  0  0  0  0  0  0
  195.4360  177.1110  144.6300 O   0  0  0  0  0  1  0  0  0  0  0  0
  195.3420  175.8800  144.3760 C   0  0  0  0  0  0  0  0  0  0  0  0
  196.4190  175.0420  144.6250 O   0  0  0  0  0  0  0  0  0  0  0  0
  185.6690  178.0470  143.0500 C   0  0  0  0  0  0  0  0  0  0  0  0
  184.2700  178.1580  143.0800 C   0  0  0  0  0  3  0  0  0  0  0  0
  183.5350  178.2860  141.8970 C   0  0  0  0  0  0  0  0  0  0  0  0
  185.5940  178.1680  140.6210 C   0  0  0  0  0  3  0  0  0  0  0  0
  184.2040  178.2920  140.6660 C   0  0  0  0  0  3  0  0  0  0  0  0
  186.3210  178.0420  141.8080 C   0  0  0  0  0  3  0  0  0  0  0  0
  182.1480  178.4030  141.9690 O   0  0  0  0  0  0  0  0  0  0  0  0
  181.3710  178.4770  140.8320 N   0  0  0  0  0  2  0  0  0  0  0  0
  180.1450  179.2070  140.8170 C   0  0  0  0  0  0  0  0  0  0  0  0
  179.0020  178.6730  141.4340 C   0  0  0  0  0  0  0  0  0  0  0  0
  178.8680  181.1690  140.1740 C   0  0  0  0  0  3  0  0  0  0  0  0
  180.0710  180.4570  140.1870 C   0  0  0  0  0  3  0  0  0  0  0  0
  177.7330  180.6360  140.7910 C   0  0  0  0  0  3  0  0  0  0  0  0
  179.0540  177.4320  142.0570 O   0  0  0  0  0  1  0  0  0  0  0  0
  177.8000  179.3890  141.4190 C   0  0  0  0  0  3  0  0  0  0  0  0
  186.2210  178.5370  148.0090 N   0  0  0  0  0  2  0  0  0  0  0  0
  186.7000  179.7420  148.6680 C   0  0  0  0  0  1  0  0  0  0  0  0
  1  5  1  0  0  0  0
  1  7  1  0  0  0  0
  2  7  2  0  0  0  0
  3  4  1  0  0  0  0
  3  6  2  0  0  0  0
  4  1  2  0  0  0  0
  6  2  1  0  0  0  0
  7 37  1  0  0  0  0
  8 12  1  0  0  0  0
  9 15  1  0  0  0  0
 10 13  1  0  0  0  0
 11 10  2  0  0  0  0
 11 15  1  0  0  0  0
 13  6  1  0  0  0  0
 13  8  2  0  0  0  0
 14 10  1  0  0  0  0
 15 18  2  0  0  0  0
 16 20  1  1  0  0  0
 16  9  1  0  0  0  0
 17 16  1  0  0  0  0
 17 11  1  0  0  0  0
 18  8  1  0  0  0  0
 20 21  2  0  0  0  0
 20 19  1  0  0  0  0
 22 23  1  0  0  0  0
 22  4  1  0  0  0  0
 24 28  1  0  0  0  0
 24 23  2  0  0  0  0
 25 26  2  0  0  0  0
 25 27  1  0  0  0  0
 26 24  1  0  0  0  0
 27 22  2  0  0  0  0
 29 28  1  0  0  0  0
 30 29  1  0  0  0  0
 30 31  1  0  0  0  0
 31 35  1  0  0  0  0
 32 33  1  0  0  0  0
 32 34  2  0  0  0  0
 33 30  2  0  0  0  0
 34 36  1  0  0  0  0
 36 31  2  0  0  0  0
 37 38  1  0  0  0  0
M  END
>  <MODEL>
5

>  <REMARK>
 VINA RESULT:      -8.0      3.675     11.515
  Name = 
  7 active torsions:
  status: ('A' for Active; 'I' for Inactive)
    1  A    between atoms: C_1  and  C_28
    2  A    between atoms: N_4  and  C_6
    3  A    between atoms: N_4  and  O_23
    4  A    between atoms: N_11  and  C_33
    5  A    between atoms: C_14  and  C_32
    6  A    between atoms: C_20  and  O_23
    7  A    between atoms: C_21  and  CA_25
                            x       y       z     vdW  Elec       q    Type
                         _______ _______ _______ _____ _____    ______ ____

>  <TORSDO>
F 7

$$$$
=
 OpenBabel11042416233D

 38 42  0  0  1  0  0  0  0  0999 V2000
  191.1310  173.3870  140.5300 C   0  0  0  0  0  0  0  0  0  0  0  0
  189.0490  173.9220  141.6490 C   0  0  0  0  0  3  0  0  0  0  0  0
  191.0820  174.9260  142.3640 N   0  0  0  0  0  0  0  0  0  0  0  0
  191.8020  174.2720  141.4110 C   0  0  0  0  0  0  0  0  0  0  0  0
  191.8670  172.5830  139.5050 C   0  0  0  0  0  1  0  0  0  0  0  0
  189.7380  174.7850  142.5040 C   0  0  0  0  0  0  0  0  0  0  0  0
  189.7400  173.2200  140.6580 C   0  0  0  0  0  0  0  0  0  0  0  0
  189.1650  175.1570  144.9340 C   0  0  0  0  0  0  0  0  0  0  0  0
  186.9570  177.7520  146.4710 N   0  0  0  0  0  2  0  0  0  0  0  0
  188.1950  176.6490  143.2440 C   0  0  0  0  0  0  0  0  0  0  0  0
  187.5470  177.3260  144.2820 C   0  0  0  0  0  0  0  0  0  0  0  0
  189.9880  173.9820  145.3490 C   0  0  0  0  0  1  0  0  0  0  0  0
  189.0200  175.5340  143.5670 C   0  0  0  0  0  0  0  0  0  0  0  0
  188.0380  177.1480  141.8420 C   0  0  0  0  0  1  0  0  0  0  0  0
  187.6960  176.9430  145.5820 C   0  0  0  0  0  0  0  0  0  0  0  0
  186.2590  178.7600  145.6730 C   0  0  1  0  0  3  0  0  0  0  0  0
  186.6390  178.5020  144.1990 C   0  0  0  0  0  2  0  0  0  0  0  0
  188.4960  175.8660  145.9420 C   0  0  0  0  0  3  0  0  0  0  0  0
  184.3030  178.3030  146.9760 O   0  0  0  0  0  1  0  0  0  0  0  0
  184.7820  178.6380  145.8590 C   0  0  0  0  0  0  0  0  0  0  0  0
  183.9320  178.8690  144.7870 O   0  0  0  0  0  0  0  0  0  0  0  0
  193.2640  174.5160  141.3600 C   0  0  0  0  0  0  0  0  0  0  0  0
  194.0820  174.0100  142.3840 C   0  0  0  0  0  3  0  0  0  0  0  0
  195.4590  174.2540  142.3880 C   0  0  0  0  0  0  0  0  0  0  0  0
  195.2240  175.5430  140.3470 C   0  0  0  0  0  3  0  0  0  0  0  0
  196.0280  175.0220  141.3640 C   0  0  0  0  0  3  0  0  0  0  0  0
  193.8490  175.2940  140.3500 C   0  0  0  0  0  3  0  0  0  0  0  0
  196.2380  173.7260  143.4170 O   0  0  0  0  0  0  0  0  0  0  0  0
  196.3680  174.3750  144.6270 N   0  0  0  0  0  2  0  0  0  0  0  0
  195.2760  175.0880  145.2080 C   0  0  0  0  0  0  0  0  0  0  0  0
  195.1630  176.4740  145.0180 C   0  0  0  0  0  0  0  0  0  0  0  0
  193.2460  175.1140  146.5390 C   0  0  0  0  0  3  0  0  0  0  0  0
  194.3150  174.4130  145.9710 C   0  0  0  0  0  3  0  0  0  0  0  0
  193.1350  176.4930  146.3460 C   0  0  0  0  0  3  0  0  0  0  0  0
  196.1110  177.1630  144.2710 O   0  0  0  0  0  1  0  0  0  0  0  0
  194.0920  177.1720  145.5880 C   0  0  0  0  0  3  0  0  0  0  0  0
  189.0390  172.3260  139.7830 N   0  0  0  0  0  2  0  0  0  0  0  0
  188.2330  172.7820  138.6620 C   0  0  0  0  0  1  0  0  0  0  0  0
  1  7  2  0  0  0  0
  1  4  1  0  0  0  0
  2  6  2  0  0  0  0
  3  6  1  0  0  0  0
  4  3  2  0  0  0  0
  5  1  1  0  0  0  0
  6 13  1  0  0  0  0
  7  2  1  0  0  0  0
  8 12  1  0  0  0  0
  8 18  1  0  0  0  0
 10 13  1  0  0  0  0
 10 11  2  0  0  0  0
 11 15  1  0  0  0  0
 13  8  2  0  0  0  0
 14 10  1  0  0  0  0
 15 18  2  0  0  0  0
 15  9  1  0  0  0  0
 16 20  1  6  0  0  0
 16  9  1  0  0  0  0
 17 11  1  0  0  0  0
 17 16  1  0  0  0  0
 20 19  1  0  0  0  0
 21 20  2  0  0  0  0
 22  4  1  0  0  0  0
 22 23  1  0  0  0  0
 23 24  2  0  0  0  0
 24 28  1  0  0  0  0
 25 27  1  0  0  0  0
 25 26  2  0  0  0  0
 26 24  1  0  0  0  0
 27 22  2  0  0  0  0
 28 29  1  0  0  0  0
 29 30  1  0  0  0  0
 30 33  1  0  0  0  0
 31 30  2  0  0  0  0
 31 36  1  0  0  0  0
 33 32  2  0  0  0  0
 34 32  1  0  0  0  0
 35 31  1  0  0  0  0
 36 34  2  0  0  0  0
 37  7  1  0  0  0  0
 38 37  1  0  0  0  0
M  END
>  <MODEL>
6

>  <REMARK>
 VINA RESULT:      -7.8      1.791      2.398
  Name = 
  7 active torsions:
  status: ('A' for Active; 'I' for Inactive)
    1  A    between atoms: C_1  and  C_28
    2  A    between atoms: N_4  and  C_6
    3  A    between atoms: N_4  and  O_23
    4  A    between atoms: N_11  and  C_33
    5  A    between atoms: C_14  and  C_32
    6  A    between atoms: C_20  and  O_23
    7  A    between atoms: C_21  and  CA_25
                            x       y       z     vdW  Elec       q    Type
                         _______ _______ _______ _____ _____    ______ ____

>  <TORSDO>
F 7

$$$$
=
 OpenBabel11042416233D

 38 42  0  0  1  0  0  0  0  0999 V2000
  192.1010  173.4330  142.7850 C   0  0  0  0  0  0  0  0  0  0  0  0
  189.7710  174.0430  143.0510 C   0  0  0  0  0  3  0  0  0  0  0  0
  191.4440  175.1150  144.3580 N   0  0  0  0  0  0  0  0  0  0  0  0
  192.4380  174.3900  143.7740 C   0  0  0  0  0  0  0  0  0  0  0  0
  193.1330  172.5530  142.1520 C   0  0  0  0  0  1  0  0  0  0  0  0
  190.1330  174.9760  144.0240 C   0  0  0  0  0  0  0  0  0  0  0  0
  190.7520  173.2670  142.4260 C   0  0  0  0  0  0  0  0  0  0  0  0
  188.8020  175.5890  146.0800 C   0  0  0  0  0  0  0  0  0  0  0  0
  186.1930  178.2320  146.5050 N   0  0  0  0  0  2  0  0  0  0  0  0
  188.4170  176.8360  144.0010 C   0  0  0  0  0  0  0  0  0  0  0  0
  187.4630  177.5930  144.6880 C   0  0  0  0  0  0  0  0  0  0  0  0
  189.4580  174.5080  146.8740 C   0  0  0  0  0  1  0  0  0  0  0  0
  189.1040  175.8040  144.7030 C   0  0  0  0  0  0  0  0  0  0  0  0
  188.7180  177.1680  142.5730 C   0  0  0  0  0  1  0  0  0  0  0  0
  187.1870  177.3650  146.0030 C   0  0  0  0  0  0  0  0  0  0  0  0
  185.7820  179.1100  145.4100 C   0  0  1  0  0  3  0  0  0  0  0  0
  186.6200  178.7070  144.1770 C   0  0  0  0  0  2  0  0  0  0  0  0
  187.8380  176.3730  146.7270 C   0  0  0  0  0  3  0  0  0  0  0  0
  183.5180  178.6780  146.0600 O   0  0  0  0  0  1  0  0  0  0  0  0
  184.3250  178.9400  145.1270 C   0  0  0  0  0  0  0  0  0  0  0  0
  183.8600  179.0430  143.8240 O   0  0  0  0  0  0  0  0  0  0  0  0
  193.8300  174.6390  144.2250 C   0  0  0  0  0  0  0  0  0  0  0  0
  194.7100  175.3380  143.3840 C   0  0  0  0  0  3  0  0  0  0  0  0
  196.0390  175.5580  143.7600 C   0  0  0  0  0  0  0  0  0  0  0  0
  195.6390  174.3550  145.8270 C   0  0  0  0  0  3  0  0  0  0  0  0
  196.5000  175.0640  144.9870 C   0  0  0  0  0  3  0  0  0  0  0  0
  194.3120  174.1410  145.4450 C   0  0  0  0  0  3  0  0  0  0  0  0
  196.8800  176.2640  142.9010 O   0  0  0  0  0  0  0  0  0  0  0  0
  197.9400  175.6530  142.2670 N   0  0  0  0  0  2  0  0  0  0  0  0
  197.7670  174.9590  141.0320 C   0  0  0  0  0  0  0  0  0  0  0  0
  197.7680  173.5550  141.0090 C   0  0  0  0  0  0  0  0  0  0  0  0
  197.4290  174.9880  138.6280 C   0  0  0  0  0  3  0  0  0  0  0  0
  197.5980  175.6700  139.8360 C   0  0  0  0  0  3  0  0  0  0  0  0
  197.4270  173.5910  138.6090 C   0  0  0  0  0  3  0  0  0  0  0  0
  197.9410  172.8320  142.1820 O   0  0  0  0  0  1  0  0  0  0  0  0
  197.5970  172.8760  139.7970 C   0  0  0  0  0  3  0  0  0  0  0  0
  190.3850  172.3010  141.4320 N   0  0  0  0  0  2  0  0  0  0  0  0
  189.3300  172.5270  140.4550 C   0  0  0  0  0  1  0  0  0  0  0  0
  1  4  1  0  0  0  0
  2  6  2  0  0  0  0
  4 22  1  0  0  0  0
  4  3  2  0  0  0  0
  5  1  1  0  0  0  0
  6  3  1  0  0  0  0
  6 13  1  0  0  0  0
  7  1  2  0  0  0  0
  7  2  1  0  0  0  0
  8 18  1  0  0  0  0
  8 12  1  0  0  0  0
 10 11  2  0  0  0  0
 10 13  1  0  0  0  0
 11 15  1  0  0  0  0
 13  8  2  0  0  0  0
 14 10  1  0  0  0  0
 15  9  1  0  0  0  0
 15 18  2  0  0  0  0
 16 20  1  6  0  0  0
 16  9  1  0  0  0  0
 17 11  1  0  0  0  0
 17 16  1  0  0  0  0
 20 19  1  0  0  0  0
 21 20  2  0  0  0  0
 22 27  1  0  0  0  0
 23 24  1  0  0  0  0
 23 22  2  0  0  0  0
 24 26  2  0  0  0  0
 26 25  1  0  0  0  0
 27 25  2  0  0  0  0
 28 24  1  0  0  0  0
 29 28  1  0  0  0  0
 30 29  1  0  0  0  0
 31 30  1  0  0  0  0
 31 35  1  0  0  0  0
 32 33  1  0  0  0  0
 33 30  2  0  0  0  0
 34 32  2  0  0  0  0
 34 36  1  0  0  0  0
 36 31  2  0  0  0  0
 37  7  1  0  0  0  0
 38 37  1  0  0  0  0
M  END
>  <MODEL>
7

>  <REMARK>
 VINA RESULT:      -7.7      2.038      3.381
  Name = 
  7 active torsions:
  status: ('A' for Active; 'I' for Inactive)
    1  A    between atoms: C_1  and  C_28
    2  A    between atoms: N_4  and  C_6
    3  A    between atoms: N_4  and  O_23
    4  A    between atoms: N_11  and  C_33
    5  A    between atoms: C_14  and  C_32
    6  A    between atoms: C_20  and  O_23
    7  A    between atoms: C_21  and  CA_25
                            x       y       z     vdW  Elec       q    Type
                         _______ _______ _______ _____ _____    ______ ____

>  <TORSDO>
F 7

$$$$
=
 OpenBabel11042416233D

 38 42  0  0  1  0  0  0  0  0999 V2000
  191.7040  175.4550  146.3250 C   0  0  0  0  0  0  0  0  0  0  0  0
  189.9240  177.0680  146.6390 C   0  0  0  0  0  3  0  0  0  0  0  0
  189.7390  175.3980  144.9570 N   0  0  0  0  0  0  0  0  0  0  0  0
  190.9510  174.8650  145.2800 C   0  0  0  0  0  0  0  0  0  0  0  0
  193.0710  174.9660  146.6870 C   0  0  0  0  0  1  0  0  0  0  0  0
  189.2060  176.4680  145.6040 C   0  0  0  0  0  0  0  0  0  0  0  0
  191.1750  176.5660  147.0060 C   0  0  0  0  0  0  0  0  0  0  0  0
  186.7610  176.8830  146.0790 C   0  0  0  0  0  0  0  0  0  0  0  0
  184.1850  178.5400  143.9360 N   0  0  0  0  0  2  0  0  0  0  0  0
  187.6970  177.6290  143.9360 C   0  0  0  0  0  0  0  0  0  0  0  0
  186.4280  178.1130  143.6050 C   0  0  0  0  0  0  0  0  0  0  0  0
  186.8630  176.2030  147.4050 C   0  0  0  0  0  1  0  0  0  0  0  0
  187.8770  176.9920  145.1970 C   0  0  0  0  0  0  0  0  0  0  0  0
  188.8290  177.8390  142.9790 C   0  0  0  0  0  1  0  0  0  0  0  0
  185.3750  177.9920  144.4610 C   0  0  0  0  0  0  0  0  0  0  0  0
  184.4940  179.0700  142.6070 C   0  0  1  0  0  3  0  0  0  0  0  0
  185.9940  178.8010  142.3590 C   0  0  0  0  0  2  0  0  0  0  0  0
  185.5070  177.3840  145.7040 C   0  0  0  0  0  3  0  0  0  0  0  0
  182.4840  178.0260  141.8300 O   0  0  0  0  0  1  0  0  0  0  0  0
  183.6640  178.3870  141.5710 C   0  0  0  0  0  0  0  0  0  0  0  0
  184.2040  178.1230  140.3200 O   0  0  0  0  0  0  0  0  0  0  0  0
  191.4200  173.6940  144.4990 C   0  0  0  0  0  0  0  0  0  0  0  0
  192.4760  173.8540  143.5880 C   0  0  0  0  0  3  0  0  0  0  0  0
  192.9190  172.7800  142.8080 C   0  0  0  0  0  0  0  0  0  0  0  0
  191.2320  171.3640  143.8230 C   0  0  0  0  0  3  0  0  0  0  0  0
  192.2920  171.5330  142.9300 C   0  0  0  0  0  3  0  0  0  0  0  0
  190.7960  172.4410  144.5990 C   0  0  0  0  0  3  0  0  0  0  0  0
  193.9760  172.9760  141.9210 O   0  0  0  0  0  0  0  0  0  0  0  0
  195.2620  172.5910  142.2360 N   0  0  0  0  0  2  0  0  0  0  0  0
  195.8190  172.8480  143.5250 C   0  0  0  0  0  0  0  0  0  0  0  0
  195.9710  171.8010  144.4470 C   0  0  0  0  0  0  0  0  0  0  0  0
  196.7580  174.3950  145.1440 C   0  0  0  0  0  3  0  0  0  0  0  0
  196.2130  174.1450  143.8810 C   0  0  0  0  0  3  0  0  0  0  0  0
  196.9110  173.3490  146.0580 C   0  0  0  0  0  3  0  0  0  0  0  0
  195.5780  170.5090  144.1160 O   0  0  0  0  0  1  0  0  0  0  0  0
  196.5170  172.0540  145.7100 C   0  0  0  0  0  3  0  0  0  0  0  0
  191.9210  177.1830  148.0640 N   0  0  0  0  0  2  0  0  0  0  0  0
  191.2940  177.8560  149.1900 C   0  0  0  0  0  1  0  0  0  0  0  0
  1  5  1  0  0  0  0
  1  7  1  0  0  0  0
  2  7  2  0  0  0  0
  3  4  1  0  0  0  0
  3  6  2  0  0  0  0
  4  1  2  0  0  0  0
  6  2  1  0  0  0  0
  7 37  1  0  0  0  0
  8 12  1  0  0  0  0
  9 15  1  0  0  0  0
 10 13  1  0  0  0  0
 11 10  2  0  0  0  0
 11 15  1  0  0  0  0
 13  6  1  0  0  0  0
 13  8  2  0  0  0  0
 14 10  1  0  0  0  0
 15 18  2  0  0  0  0
 16 20  1  6  0  0  0
 16  9  1  0  0  0  0
 17 16  1  0  0  0  0
 17 11  1  0  0  0  0
 18  8  1  0  0  0  0
 20 19  1  0  0  0  0
 21 20  2  0  0  0  0
 22 27  1  0  0  0  0
 22  4  1  0  0  0  0
 23 22  2  0  0  0  0
 24 26  2  0  0  0  0
 24 23  1  0  0  0  0
 25 27  2  0  0  0  0
 26 25  1  0  0  0  0
 28 29  1  0  0  0  0
 28 24  1  0  0  0  0
 29 30  1  0  0  0  0
 30 33  2  0  0  0  0
 30 31  1  0  0  0  0
 31 36  2  0  0  0  0
 32 34  2  0  0  0  0
 33 32  1  0  0  0  0
 35 31  1  0  0  0  0
 36 34  1  0  0  0  0
 37 38  1  0  0  0  0
M  END
>  <MODEL>
8

>  <REMARK>
 VINA RESULT:      -7.5      2.676      4.486
  Name = 
  7 active torsions:
  status: ('A' for Active; 'I' for Inactive)
    1  A    between atoms: C_1  and  C_28
    2  A    between atoms: N_4  and  C_6
    3  A    between atoms: N_4  and  O_23
    4  A    between atoms: N_11  and  C_33
    5  A    between atoms: C_14  and  C_32
    6  A    between atoms: C_20  and  O_23
    7  A    between atoms: C_21  and  CA_25
                            x       y       z     vdW  Elec       q    Type
                         _______ _______ _______ _____ _____    ______ ____

>  <TORSDO>
F 7

$$$$
=
 OpenBabel11042416233D

 38 42  0  0  1  0  0  0  0  0999 V2000
  190.6580  176.7060  146.6360 C   0  0  0  0  0  0  0  0  0  0  0  0
  192.1650  175.4910  145.1770 C   0  0  0  0  0  3  0  0  0  0  0  0
  189.8540  175.6500  144.6430 N   0  0  0  0  0  0  0  0  0  0  0  0
  189.5950  176.3950  145.7530 C   0  0  0  0  0  0  0  0  0  0  0  0
  190.4350  177.4600  147.9090 C   0  0  0  0  0  1  0  0  0  0  0  0
  191.0970  175.1990  144.3280 C   0  0  0  0  0  0  0  0  0  0  0  0
  191.9530  176.2460  146.3340 C   0  0  0  0  0  0  0  0  0  0  0  0
  192.1760  174.8600  142.0710 C   0  0  0  0  0  0  0  0  0  0  0  0
  191.8170  172.0060  139.6840 N   0  0  0  0  0  2  0  0  0  0  0  0
  190.6540  173.1360  142.9300 C   0  0  0  0  0  0  0  0  0  0  0  0
  190.8880  172.4130  141.7560 C   0  0  0  0  0  0  0  0  0  0  0  0
  192.8680  176.1800  142.1610 C   0  0  0  0  0  1  0  0  0  0  0  0
  191.3030  174.3930  143.0970 C   0  0  0  0  0  0  0  0  0  0  0  0
  189.7720  172.5450  143.9840 C   0  0  0  0  0  1  0  0  0  0  0  0
  191.7220  172.8830  140.7850 C   0  0  0  0  0  0  0  0  0  0  0  0
  190.9630  170.8520  139.9650 C   0  0  1  0  0  3  0  0  0  0  0  0
  190.3280  171.0950  141.3510 C   0  0  0  0  0  2  0  0  0  0  0  0
  192.3800  174.1000  140.9110 C   0  0  0  0  0  3  0  0  0  0  0  0
  189.0880  171.6670  138.7190 O   0  0  0  0  0  1  0  0  0  0  0  0
  189.9020  170.7260  138.9210 C   0  0  0  0  0  0  0  0  0  0  0  0
  189.7940  169.5540  138.1870 O   0  0  0  0  0  0  0  0  0  0  0  0
  188.1940  176.8300  145.9810 C   0  0  0  0  0  0  0  0  0  0  0  0
  187.6570  177.8580  145.1910 C   0  0  0  0  0  3  0  0  0  0  0  0
  186.3540  178.3190  145.4040 C   0  0  0  0  0  0  0  0  0  0  0  0
  186.1070  176.7420  147.2290 C   0  0  0  0  0  3  0  0  0  0  0  0
  185.5790  177.7550  146.4270 C   0  0  0  0  0  3  0  0  0  0  0  0
  187.4100  176.2860  147.0090 C   0  0  0  0  0  3  0  0  0  0  0  0
  185.8520  179.3360  144.5920 O   0  0  0  0  0  0  0  0  0  0  0  0
  184.9700  179.0700  143.5660 N   0  0  0  0  0  2  0  0  0  0  0  0
  185.4220  178.5620  142.3110 C   0  0  0  0  0  0  0  0  0  0  0  0
  184.4920  178.1980  141.3250 C   0  0  0  0  0  0  0  0  0  0  0  0
  187.2330  177.9210  140.8260 C   0  0  0  0  0  3  0  0  0  0  0  0
  186.7930  178.4190  142.0560 C   0  0  0  0  0  3  0  0  0  0  0  0
  186.3040  177.5630  139.8450 C   0  0  0  0  0  3  0  0  0  0  0  0
  183.1280  178.3250  141.5610 O   0  0  0  0  0  1  0  0  0  0  0  0
  184.9360  177.7010  140.0940 C   0  0  0  0  0  3  0  0  0  0  0  0
  193.0450  176.5420  147.2150 N   0  0  0  0  0  2  0  0  0  0  0  0
  194.3070  177.1010  146.7550 C   0  0  0  0  0  1  0  0  0  0  0  0
  1  5  1  0  0  0  0
  2  7  2  0  0  0  0
  3  4  1  0  0  0  0
  4 22  1  0  0  0  0
  4  1  2  0  0  0  0
  6  3  2  0  0  0  0
  6  2  1  0  0  0  0
  7  1  1  0  0  0  0
  7 37  1  0  0  0  0
  8 12  1  0  0  0  0
  8 13  1  0  0  0  0
  9 16  1  0  0  0  0
  9 15  1  0  0  0  0
 10 13  2  0  0  0  0
 10 14  1  0  0  0  0
 11 10  1  0  0  0  0
 13  6  1  0  0  0  0
 15 18  1  0  0  0  0
 15 11  2  0  0  0  0
 16 20  1  6  0  0  0
 16 17  1  0  0  0  0
 17 11  1  0  0  0  0
 18  8  2  0  0  0  0
 19 20  1  0  0  0  0
 21 20  2  0  0  0  0
 22 27  1  0  0  0  0
 23 24  1  0  0  0  0
 23 22  2  0  0  0  0
 24 26  2  0  0  0  0
 26 25  1  0  0  0  0
 27 25  2  0  0  0  0
 28 24  1  0  0  0  0
 29 28  1  0  0  0  0
 30 29  1  0  0  0  0
 31 35  1  0  0  0  0
 31 30  2  0  0  0  0
 32 33  2  0  0  0  0
 33 30  1  0  0  0  0
 34 36  2  0  0  0  0
 34 32  1  0  0  0  0
 36 31  1  0  0  0  0
 38 37  1  0  0  0  0
M  END
>  <MODEL>
9

>  <REMARK>
 VINA RESULT:      -7.4      3.557      9.365
  Name = 
  7 active torsions:
  status: ('A' for Active; 'I' for Inactive)
    1  A    between atoms: C_1  and  C_28
    2  A    between atoms: N_4  and  C_6
    3  A    between atoms: N_4  and  O_23
    4  A    between atoms: N_11  and  C_33
    5  A    between atoms: C_14  and  C_32
    6  A    between atoms: C_20  and  O_23
    7  A    between atoms: C_21  and  CA_25
                            x       y       z     vdW  Elec       q    Type
                         _______ _______ _______ _____ _____    ______ ____

>  <TORSDO>
F 7

$$$$
