=
 OpenBabel11042419203D

 43 48  0  0  1  0  0  0  0  0999 V2000
  184.4360  177.9300  143.4030 C   0  0  0  0  0  3  0  0  0  0  0  0
  186.8490  178.0940  142.8950 C   0  0  1  0  0  3  0  0  0  0  0  0
  187.3490  178.1320  140.5370 F   0  0  0  0  0  0  0  0  0  0  0  0
  186.4950  177.5850  141.4740 C   0  0  2  0  0  3  0  0  0  0  0  0
  185.1140  177.8800  141.0970 N   0  0  0  0  0  0  0  0  0  0  0  0
  182.8100  178.1880  141.5260 N   0  0  0  0  0  2  0  0  0  0  0  0
  184.1500  177.9710  141.9630 C   0  0  0  0  0  0  0  0  0  0  0  0
  185.6880  177.9590  143.8740 C   0  0  0  0  0  0  0  0  0  0  0  0
  191.1500  173.6620  143.1030 C   0  0  0  0  0  2  0  0  0  0  0  0
  188.1520  176.0530  143.0450 C   0  0  0  0  0  2  0  0  0  0  0  0
  189.1880  178.1480  142.8740 N   0  0  0  0  0  2  0  0  0  0  0  0
  191.8780  174.4130  144.1360 N   0  0  2  0  0  0  0  0  0  0  0  0
  189.6580  174.0320  143.1100 C   0  0  0  0  0  2  0  0  0  0  0  0
  189.4390  175.4620  143.5960 C   0  0  1  0  0  3  0  0  0  0  0  0
  191.9220  175.8400  143.7610 C   0  0  0  0  0  2  0  0  0  0  0  0
  190.3400  177.7270  143.5700 N   0  0  0  0  0  2  0  0  0  0  0  0
  190.6010  176.3480  143.1670 C   0  0  2  0  0  3  0  0  0  0  0  0
  188.0760  177.4720  143.4220 N   0  0  1  0  0  0  0  0  0  0  0  0
  194.8890  174.8740  145.6760 S   0  0  0  0  0  0  0  0  0  0  0  0
  194.5510  175.9690  146.6490 O   0  0  0  0  0  0  0  0  0  0  0  0
  196.3130  174.3980  145.7590 O   0  0  0  0  0  0  0  0  0  0  0  0
  193.2590  173.9250  144.1730 C   0  0  2  0  0  3  0  0  0  0  0  0
  193.6900  173.5790  145.6090 C   0  0  0  0  0  2  0  0  0  0  0  0
  194.2400  175.0990  144.0430 C   0  0  2  0  0  3  0  0  0  0  0  0
  195.2810  174.7760  142.9830 C   0  0  0  0  0  2  0  0  0  0  0  0
  196.8180  176.7010  142.9680 C   0  0  0  0  0  2  0  0  0  0  0  0
  195.6740  176.0330  142.2330 C   0  0  0  0  0  3  0  0  0  0  0  0
  197.0950  175.8820  141.7280 C   0  0  0  0  0  2  0  0  0  0  0  0
  185.8940  178.0120  145.3470 C   0  0  0  0  0  0  0  0  0  0  0  0
  185.9970  179.2740  147.4280 C   0  0  0  0  0  3  0  0  0  0  0  0
  186.3520  176.8810  147.4550 C   0  0  0  0  0  3  0  0  0  0  0  0
  186.1630  176.8370  146.0720 C   0  0  0  0  0  3  0  0  0  0  0  0
  186.2720  178.1000  148.1330 C   0  0  0  0  0  3  0  0  0  0  0  0
  185.8050  179.2290  146.0440 C   0  0  0  0  0  3  0  0  0  0  0  0
  182.4820  178.1840  140.1620 N   0  0  0  0  0  2  0  0  0  0  0  0
  181.1200  177.8630  140.0710 N   0  0  0  0  0  2  0  0  0  0  0  0
  180.4130  178.7380  140.9900 C   0  0  0  0  0  2  0  0  0  0  0  0
  179.3210  177.9590  141.7010 C   0  0  0  0  0  2  0  0  0  0  0  0
  178.0040  178.7140  141.6220 C   0  0  2  0  0  3  0  0  0  0  0  0
  178.0470  179.6300  140.5700 O   0  0  0  0  0  1  0  0  0  0  0  0
  177.7830  179.3920  142.8240 O   0  0  0  0  0  0  0  0  0  0  0  0
  178.4180  179.3130  145.1130 C   0  0  0  0  0  1  0  0  0  0  0  0
  178.3020  178.5500  143.8100 C   0  0  0  0  0  2  0  0  0  0  0  0
  1  8  2  0  0  0  0
  2 18  1  0  0  0  0
  2  8  1  1  0  0  0
  4  3  1  6  0  0  0
  4  2  1  0  0  0  0
  5  4  1  0  0  0  0
  5  7  2  0  0  0  0
  6  7  1  0  0  0  0
  7  1  1  0  0  0  0
  8 29  1  0  0  0  0
  9 13  1  0  0  0  0
 11 18  1  0  0  0  0
 11 16  1  0  0  0  0
 12  9  1  6  0  0  0
 12 22  1  0  0  0  0
 13 14  1  0  0  0  0
 14 10  1  6  0  0  0
 15 12  1  0  0  0  0
 17 16  1  0  0  0  0
 17 14  1  0  0  0  0
 17 15  1  1  0  0  0
 18 10  1  6  0  0  0
 19 21  2  0  0  0  0
 19 20  2  0  0  0  0
 22 23  1  1  0  0  0
 23 19  1  0  0  0  0
 24 25  1  6  0  0  0
 24 22  1  0  0  0  0
 24 19  1  0  0  0  0
 27 26  1  0  0  0  0
 27 25  1  0  0  0  0
 28 27  1  0  0  0  0
 28 26  1  0  0  0  0
 29 34  2  0  0  0  0
 29 32  1  0  0  0  0
 30 33  2  0  0  0  0
 31 33  1  0  0  0  0
 32 31  2  0  0  0  0
 34 30  1  0  0  0  0
 35  6  1  0  0  0  0
 36 35  1  0  0  0  0
 36 37  1  0  0  0  0
 37 38  1  0  0  0  0
 39 40  1  6  0  0  0
 39 38  1  0  0  0  0
 39 41  1  0  0  0  0
 41 43  1  0  0  0  0
 43 42  1  0  0  0  0
M  END
>  <MODEL>
1

>  <REMARK>
 VINA RESULT:      -8.4      0.000      0.000
  Name = 
  12 active torsions:
  status: ('A' for Active; 'I' for Inactive)
    1  A    between atoms: C_3  and  C_29
    2  A    between atoms: C_5  and  N_43
    3  A    between atoms: N_10  and  C_23
    4  A    between atoms: N_17  and  N_26
    5  A    between atoms: C_22  and  C_24
    6  A    between atoms: C_22  and  C_39
    7  A    between atoms: C_24  and  O_38
    8  A    between atoms: N_26  and  N_34
    9  A    between atoms: C_28  and  C_36
   10  A    between atoms: C_31  and  O_38
   11  A    between atoms: N_34  and  C_39
   12  A    between atoms: C_35  and  C_36
                            x       y       z     vdW  Elec       q    Type
                         _______ _______ _______ _____ _____    ______ ____

>  <TORSDO>
F 12

$$$$
=
 OpenBabel11042419203D

 43 48  0  0  1  0  0  0  0  0999 V2000
  184.1780  178.0490  143.4400 C   0  0  0  0  0  3  0  0  0  0  0  0
  186.5680  178.2470  142.8380 C   0  0  1  0  0  3  0  0  0  0  0  0
  186.9740  178.2910  140.4620 F   0  0  0  0  0  0  0  0  0  0  0  0
  186.1650  177.7320  141.4320 C   0  0  2  0  0  3  0  0  0  0  0  0
  184.7660  178.0050  141.1090 N   0  0  0  0  0  0  0  0  0  0  0  0
  182.4760  178.2790  141.6290 N   0  0  0  0  0  2  0  0  0  0  0  0
  183.8360  178.0830  142.0120 C   0  0  0  0  0  0  0  0  0  0  0  0
  185.4480  178.0970  143.8620 C   0  0  0  0  0  0  0  0  0  0  0  0
  190.8620  173.8070  142.9900 C   0  0  0  0  0  2  0  0  0  0  0  0
  187.8720  176.2090  143.0030 C   0  0  0  0  0  2  0  0  0  0  0  0
  188.9000  178.2880  142.6680 N   0  0  0  0  0  2  0  0  0  0  0  0
  191.6550  174.6030  143.9380 N   0  0  2  0  0  0  0  0  0  0  0  0
  189.3740  174.1850  143.0710 C   0  0  0  0  0  2  0  0  0  0  0  0
  189.1900  175.6390  143.5010 C   0  0  1  0  0  3  0  0  0  0  0  0
  191.6790  176.0100  143.4930 C   0  0  0  0  0  2  0  0  0  0  0  0
  190.0920  177.8940  143.3100 N   0  0  0  0  0  2  0  0  0  0  0  0
  190.3250  176.4970  142.9580 C   0  0  2  0  0  3  0  0  0  0  0  0
  187.8230  177.6450  143.3160 N   0  0  1  0  0  0  0  0  0  0  0  0
  194.6950  174.9370  145.4530 S   0  0  0  0  0  0  0  0  0  0  0  0
  194.3800  175.9550  146.5120 O   0  0  0  0  0  0  0  0  0  0  0  0
  196.1190  174.4520  145.4730 O   0  0  0  0  0  0  0  0  0  0  0  0
  193.0340  174.1100  143.9120 C   0  0  2  0  0  3  0  0  0  0  0  0
  193.4900  173.6540  145.3100 C   0  0  0  0  0  2  0  0  0  0  0  0
  194.0170  175.2880  143.8530 C   0  0  2  0  0  3  0  0  0  0  0  0
  195.0380  175.0440  142.7530 C   0  0  0  0  0  2  0  0  0  0  0  0
  196.4410  176.4120  141.2610 C   0  0  0  0  0  2  0  0  0  0  0  0
  195.0290  176.1940  141.7650 C   0  0  0  0  0  3  0  0  0  0  0  0
  195.4400  175.6750  140.4020 C   0  0  0  0  0  2  0  0  0  0  0  0
  185.7110  178.1550  145.3250 C   0  0  0  0  0  0  0  0  0  0  0  0
  185.9420  179.4310  147.3870 C   0  0  0  0  0  3  0  0  0  0  0  0
  186.2020  177.0250  147.4270 C   0  0  0  0  0  3  0  0  0  0  0  0
  185.9600  176.9770  146.0520 C   0  0  0  0  0  3  0  0  0  0  0  0
  186.1960  178.2530  148.0940 C   0  0  0  0  0  3  0  0  0  0  0  0
  185.6960  179.3810  146.0130 C   0  0  0  0  0  3  0  0  0  0  0  0
  182.0950  178.2680  140.2790 N   0  0  0  0  0  2  0  0  0  0  0  0
  180.6940  178.3170  140.2490 N   0  0  0  0  0  2  0  0  0  0  0  0
  180.3050  179.6570  140.6540 C   0  0  0  0  0  2  0  0  0  0  0  0
  178.7920  179.7440  140.7470 C   0  0  0  0  0  2  0  0  0  0  0  0
  178.2830  180.9100  139.9160 C   0  0  2  0  0  3  0  0  0  0  0  0
  178.1240  180.5100  138.5880 O   0  0  0  0  0  1  0  0  0  0  0  0
  179.2000  181.9630  139.9790 O   0  0  0  0  0  0  0  0  0  0  0  0
  179.1470  183.9460  138.6710 C   0  0  0  0  0  1  0  0  0  0  0  0
  178.4460  183.1100  139.7210 C   0  0  0  0  0  2  0  0  0  0  0  0
  1  8  2  0  0  0  0
  2 18  1  0  0  0  0
  2  8  1  1  0  0  0
  4  3  1  6  0  0  0
  4  2  1  0  0  0  0
  5  4  1  0  0  0  0
  5  7  2  0  0  0  0
  6  7  1  0  0  0  0
  7  1  1  0  0  0  0
  8 29  1  0  0  0  0
  9 13  1  0  0  0  0
 11 16  1  0  0  0  0
 11 18  1  0  0  0  0
 12  9  1  6  0  0  0
 13 14  1  0  0  0  0
 14 10  1  6  0  0  0
 15 12  1  0  0  0  0
 17 16  1  0  0  0  0
 17 15  1  1  0  0  0
 17 14  1  0  0  0  0
 18 10  1  6  0  0  0
 19 21  2  0  0  0  0
 19 20  2  0  0  0  0
 22 12  1  0  0  0  0
 22 23  1  1  0  0  0
 23 19  1  0  0  0  0
 24 25  1  6  0  0  0
 24 22  1  0  0  0  0
 24 19  1  0  0  0  0
 26 27  1  0  0  0  0
 27 25  1  0  0  0  0
 28 26  1  0  0  0  0
 28 27  1  0  0  0  0
 29 34  2  0  0  0  0
 29 32  1  0  0  0  0
 30 33  2  0  0  0  0
 31 33  1  0  0  0  0
 32 31  2  0  0  0  0
 34 30  1  0  0  0  0
 35  6  1  0  0  0  0
 36 35  1  0  0  0  0
 36 37  1  0  0  0  0
 37 38  1  0  0  0  0
 39 40  1  6  0  0  0
 39 41  1  0  0  0  0
 39 38  1  0  0  0  0
 42 43  1  0  0  0  0
 43 41  1  0  0  0  0
M  END
>  <MODEL>
2

>  <REMARK>
 VINA RESULT:      -8.2      1.441      1.854
  Name = 
  12 active torsions:
  status: ('A' for Active; 'I' for Inactive)
    1  A    between atoms: C_3  and  C_29
    2  A    between atoms: C_5  and  N_43
    3  A    between atoms: N_10  and  C_23
    4  A    between atoms: N_17  and  N_26
    5  A    between atoms: C_22  and  C_24
    6  A    between atoms: C_22  and  C_39
    7  A    between atoms: C_24  and  O_38
    8  A    between atoms: N_26  and  N_34
    9  A    between atoms: C_28  and  C_36
   10  A    between atoms: C_31  and  O_38
   11  A    between atoms: N_34  and  C_39
   12  A    between atoms: C_35  and  C_36
                            x       y       z     vdW  Elec       q    Type
                         _______ _______ _______ _____ _____    ______ ____

>  <TORSDO>
F 12

$$$$
=
 OpenBabel11042419203D

 43 48  0  0  1  0  0  0  0  0999 V2000
  183.6010  178.2550  143.4180 C   0  0  0  0  0  3  0  0  0  0  0  0
  185.9120  178.3050  142.5440 C   0  0  1  0  0  3  0  0  0  0  0  0
  186.0430  178.4420  140.1410 F   0  0  0  0  0  0  0  0  0  0  0  0
  185.3100  177.8960  141.1760 C   0  0  2  0  0  3  0  0  0  0  0  0
  183.9090  178.2890  141.0350 N   0  0  0  0  0  0  0  0  0  0  0  0
  181.7240  178.7070  141.8360 N   0  0  0  0  0  2  0  0  0  0  0  0
  183.0990  178.3890  142.0450 C   0  0  0  0  0  0  0  0  0  0  0  0
  184.9100  178.1850  143.6870 C   0  0  0  0  0  0  0  0  0  0  0  0
  190.0120  173.7610  141.6990 C   0  0  0  0  0  2  0  0  0  0  0  0
  187.1340  176.2260  142.2870 C   0  0  0  0  0  2  0  0  0  0  0  0
  188.2340  178.2940  142.2560 N   0  0  0  0  0  2  0  0  0  0  0  0
  190.8840  174.3520  142.7240 N   0  0  2  0  0  0  0  0  0  0  0  0
  188.5480  174.1700  141.9250 C   0  0  0  0  0  2  0  0  0  0  0  0
  188.4480  175.5320  142.6070 C   0  0  1  0  0  3  0  0  0  0  0  0
  190.9480  175.8140  142.5250 C   0  0  0  0  0  2  0  0  0  0  0  0
  189.4370  177.7550  142.7550 N   0  0  0  0  0  2  0  0  0  0  0  0
  189.5920  176.4320  142.1570 C   0  0  2  0  0  3  0  0  0  0  0  0
  187.1620  177.5860  142.8430 N   0  0  1  0  0  0  0  0  0  0  0  0
  192.9020  171.7050  143.4790 S   0  0  0  0  0  0  0  0  0  0  0  0
  191.9560  170.8340  144.2580 O   0  0  0  0  0  0  0  0  0  0  0  0
  194.2740  171.1160  143.3040 O   0  0  0  0  0  0  0  0  0  0  0  0
  192.2380  173.8240  142.5380 C   0  0  2  0  0  3  0  0  0  0  0  0
  192.2050  172.3810  142.0040 C   0  0  0  0  0  2  0  0  0  0  0  0
  192.8430  173.4280  143.8920 C   0  0  2  0  0  3  0  0  0  0  0  0
  194.2390  174.0160  144.0170 C   0  0  0  0  0  2  0  0  0  0  0  0
  195.8010  173.1640  145.7210 C   0  0  0  0  0  2  0  0  0  0  0  0
  194.6420  174.1080  145.4750 C   0  0  0  0  0  3  0  0  0  0  0  0
  196.0570  174.6440  145.5630 C   0  0  0  0  0  2  0  0  0  0  0  0
  185.3440  178.1470  145.1100 C   0  0  0  0  0  0  0  0  0  0  0  0
  185.8920  179.2910  147.1900 C   0  0  0  0  0  3  0  0  0  0  0  0
  186.0070  176.8760  147.0800 C   0  0  0  0  0  3  0  0  0  0  0  0
  185.6040  176.9180  145.7430 C   0  0  0  0  0  3  0  0  0  0  0  0
  186.1540  178.0630  147.8030 C   0  0  0  0  0  3  0  0  0  0  0  0
  185.4850  179.3320  145.8530 C   0  0  0  0  0  3  0  0  0  0  0  0
  181.1900  178.7940  140.5410 N   0  0  0  0  0  2  0  0  0  0  0  0
  179.7940  178.7820  140.6740 N   0  0  0  0  0  2  0  0  0  0  0  0
  179.2620  179.6980  139.6800 C   0  0  0  0  0  2  0  0  0  0  0  0
  179.6040  181.1260  140.0650 C   0  0  0  0  0  2  0  0  0  0  0  0
  178.8780  182.1010  139.1520 C   0  0  2  0  0  3  0  0  0  0  0  0
  178.4790  181.4490  137.9850 O   0  0  0  0  0  1  0  0  0  0  0  0
  179.7330  183.1590  138.8280 O   0  0  0  0  0  0  0  0  0  0  0  0
  181.0500  183.9690  137.0240 C   0  0  0  0  0  1  0  0  0  0  0  0
  179.9160  183.0590  137.4470 C   0  0  0  0  0  2  0  0  0  0  0  0
  1  8  2  0  0  0  0
  2 18  1  0  0  0  0
  2  8  1  1  0  0  0
  4  3  1  6  0  0  0
  4  2  1  0  0  0  0
  5  4  1  0  0  0  0
  5  7  2  0  0  0  0
  6  7  1  0  0  0  0
  7  1  1  0  0  0  0
  8 29  1  0  0  0  0
  9 13  1  0  0  0  0
 10 14  1  0  0  0  0
 11 16  1  0  0  0  0
 11 18  1  0  0  0  0
 12  9  1  6  0  0  0
 14 13  1  6  0  0  0
 15 12  1  0  0  0  0
 17 15  1  1  0  0  0
 17 14  1  0  0  0  0
 17 16  1  0  0  0  0
 18 10  1  6  0  0  0
 19 24  1  0  0  0  0
 19 20  2  0  0  0  0
 21 19  2  0  0  0  0
 22 23  1  6  0  0  0
 22 12  1  0  0  0  0
 22 24  1  0  0  0  0
 23 19  1  0  0  0  0
 24 25  1  6  0  0  0
 25 27  1  0  0  0  0
 27 28  1  0  0  0  0
 27 26  1  0  0  0  0
 28 26  1  0  0  0  0
 29 32  2  0  0  0  0
 29 34  1  0  0  0  0
 30 33  1  0  0  0  0
 31 33  2  0  0  0  0
 32 31  1  0  0  0  0
 34 30  2  0  0  0  0
 35 36  1  0  0  0  0
 35  6  1  0  0  0  0
 37 38  1  0  0  0  0
 37 36  1  0  0  0  0
 39 40  1  6  0  0  0
 39 38  1  0  0  0  0
 41 39  1  0  0  0  0
 42 43  1  0  0  0  0
 43 41  1  0  0  0  0
M  END
>  <MODEL>
3

>  <REMARK>
 VINA RESULT:      -7.9      2.436      3.181
  Name = 
  12 active torsions:
  status: ('A' for Active; 'I' for Inactive)
    1  A    between atoms: C_3  and  C_29
    2  A    between atoms: C_5  and  N_43
    3  A    between atoms: N_10  and  C_23
    4  A    between atoms: N_17  and  N_26
    5  A    between atoms: C_22  and  C_24
    6  A    between atoms: C_22  and  C_39
    7  A    between atoms: C_24  and  O_38
    8  A    between atoms: N_26  and  N_34
    9  A    between atoms: C_28  and  C_36
   10  A    between atoms: C_31  and  O_38
   11  A    between atoms: N_34  and  C_39
   12  A    between atoms: C_35  and  C_36
                            x       y       z     vdW  Elec       q    Type
                         _______ _______ _______ _____ _____    ______ ____

>  <TORSDO>
F 12

$$$$
=
 OpenBabel11042419203D

 43 48  0  0  1  0  0  0  0  0999 V2000
  183.4970  178.4050  143.3520 C   0  0  0  0  0  3  0  0  0  0  0  0
  185.7830  178.2720  142.4220 C   0  0  1  0  0  3  0  0  0  0  0  0
  185.8610  178.3280  140.0140 F   0  0  0  0  0  0  0  0  0  0  0  0
  185.1190  177.8640  141.0820 C   0  0  2  0  0  3  0  0  0  0  0  0
  183.7450  178.3480  140.9620 N   0  0  0  0  0  0  0  0  0  0  0  0
  181.6150  178.9380  141.8010 N   0  0  0  0  0  2  0  0  0  0  0  0
  182.9700  178.5330  141.9870 C   0  0  0  0  0  0  0  0  0  0  0  0
  184.8050  178.2540  143.5920 C   0  0  0  0  0  0  0  0  0  0  0  0
  189.4110  173.3060  141.8200 C   0  0  0  0  0  2  0  0  0  0  0  0
  186.8030  176.0730  142.3210 C   0  0  0  0  0  2  0  0  0  0  0  0
  188.0650  178.0170  141.9750 N   0  0  0  0  0  2  0  0  0  0  0  0
  190.4070  173.9230  142.7070 N   0  0  2  0  0  0  0  0  0  0  0  0
  188.0080  173.8700  142.1010 C   0  0  0  0  0  2  0  0  0  0  0  0
  188.0760  175.3020  142.6260 C   0  0  1  0  0  3  0  0  0  0  0  0
  190.5770  175.3430  142.3380 C   0  0  0  0  0  2  0  0  0  0  0  0
  189.2550  177.4270  142.4480 N   0  0  0  0  0  2  0  0  0  0  0  0
  189.2510  176.0380  141.9970 C   0  0  2  0  0  3  0  0  0  0  0  0
  186.9880  177.4780  142.7140 N   0  0  1  0  0  0  0  0  0  0  0  0
  193.7240  174.0760  143.5020 S   0  0  0  0  0  0  0  0  0  0  0  0
  193.7470  175.2700  144.4140 O   0  0  0  0  0  0  0  0  0  0  0  0
  195.0640  173.4180  143.3180 O   0  0  0  0  0  0  0  0  0  0  0  0
  191.6930  173.2560  142.4890 C   0  0  2  0  0  3  0  0  0  0  0  0
  192.3980  172.9540  143.8240 C   0  0  0  0  0  2  0  0  0  0  0  0
  192.7490  174.2750  142.0350 C   0  0  2  0  0  3  0  0  0  0  0  0
  193.4750  173.7420  140.8100 C   0  0  0  0  0  2  0  0  0  0  0  0
  194.8380  174.4100  138.8700 C   0  0  0  0  0  2  0  0  0  0  0  0
  193.7750  174.8720  139.8450 C   0  0  0  0  0  3  0  0  0  0  0  0
  193.3890  174.4400  138.4450 C   0  0  0  0  0  2  0  0  0  0  0  0
  185.2720  178.2290  145.0050 C   0  0  0  0  0  0  0  0  0  0  0  0
  187.0070  177.7840  146.6550 C   0  0  0  0  0  3  0  0  0  0  0  0
  184.8560  178.6310  147.3710 C   0  0  0  0  0  3  0  0  0  0  0  0
  184.4210  178.6480  146.0440 C   0  0  0  0  0  3  0  0  0  0  0  0
  186.1480  178.1960  147.6770 C   0  0  0  0  0  3  0  0  0  0  0  0
  186.5730  177.8060  145.3270 C   0  0  0  0  0  3  0  0  0  0  0  0
  181.0550  179.0240  140.5180 N   0  0  0  0  0  2  0  0  0  0  0  0
  179.7070  179.3730  140.6830 N   0  0  0  0  0  2  0  0  0  0  0  0
  179.3220  180.1520  139.5190 C   0  0  0  0  0  2  0  0  0  0  0  0
  179.5810  181.6250  139.7810 C   0  0  0  0  0  2  0  0  0  0  0  0
  178.6930  182.4790  138.8900 C   0  0  2  0  0  3  0  0  0  0  0  0
  178.3390  181.7600  137.7480 O   0  0  0  0  0  1  0  0  0  0  0  0
  179.3830  183.6360  138.5190 O   0  0  0  0  0  0  0  0  0  0  0  0
  181.2410  184.1190  137.1180 C   0  0  0  0  0  1  0  0  0  0  0  0
  179.9610  183.3270  137.2860 C   0  0  0  0  0  2  0  0  0  0  0  0
  1  8  2  0  0  0  0
  2 18  1  0  0  0  0
  2  8  1  1  0  0  0
  4  3  1  6  0  0  0
  4  2  1  0  0  0  0
  5  4  1  0  0  0  0
  5  7  2  0  0  0  0
  6  7  1  0  0  0  0
  7  1  1  0  0  0  0
  8 29  1  0  0  0  0
  9 13  1  0  0  0  0
 10 14  1  0  0  0  0
 11 16  1  0  0  0  0
 11 18  1  0  0  0  0
 12  9  1  6  0  0  0
 14 13  1  6  0  0  0
 15 12  1  0  0  0  0
 17 15  1  1  0  0  0
 17 16  1  0  0  0  0
 17 14  1  0  0  0  0
 18 10  1  6  0  0  0
 19 23  1  0  0  0  0
 19 20  2  0  0  0  0
 21 19  2  0  0  0  0
 22 12  1  0  0  0  0
 22 23  1  1  0  0  0
 24 25  1  6  0  0  0
 24 22  1  0  0  0  0
 24 19  1  0  0  0  0
 26 27  1  0  0  0  0
 27 25  1  0  0  0  0
 28 26  1  0  0  0  0
 28 27  1  0  0  0  0
 29 34  2  0  0  0  0
 29 32  1  0  0  0  0
 30 33  2  0  0  0  0
 31 33  1  0  0  0  0
 32 31  2  0  0  0  0
 34 30  1  0  0  0  0
 35 36  1  0  0  0  0
 35  6  1  0  0  0  0
 37 38  1  0  0  0  0
 37 36  1  0  0  0  0
 39 40  1  6  0  0  0
 39 38  1  0  0  0  0
 41 39  1  0  0  0  0
 42 43  1  0  0  0  0
 43 41  1  0  0  0  0
M  END
>  <MODEL>
4

>  <REMARK>
 VINA RESULT:      -7.1      2.567      3.212
  Name = 
  12 active torsions:
  status: ('A' for Active; 'I' for Inactive)
    1  A    between atoms: C_3  and  C_29
    2  A    between atoms: C_5  and  N_43
    3  A    between atoms: N_10  and  C_23
    4  A    between atoms: N_17  and  N_26
    5  A    between atoms: C_22  and  C_24
    6  A    between atoms: C_22  and  C_39
    7  A    between atoms: C_24  and  O_38
    8  A    between atoms: N_26  and  N_34
    9  A    between atoms: C_28  and  C_36
   10  A    between atoms: C_31  and  O_38
   11  A    between atoms: N_34  and  C_39
   12  A    between atoms: C_35  and  C_36
                            x       y       z     vdW  Elec       q    Type
                         _______ _______ _______ _____ _____    ______ ____

>  <TORSDO>
F 12

$$$$
=
 OpenBabel11042419203D

 43 48  0  0  1  0  0  0  0  0999 V2000
  183.7140  178.3170  143.5520 C   0  0  0  0  0  3  0  0  0  0  0  0
  186.0150  178.3450  142.6500 C   0  0  1  0  0  3  0  0  0  0  0  0
  186.1170  178.4750  140.2450 F   0  0  0  0  0  0  0  0  0  0  0  0
  185.3920  177.9380  141.2900 C   0  0  2  0  0  3  0  0  0  0  0  0
  183.9930  178.3430  141.1650 N   0  0  0  0  0  0  0  0  0  0  0  0
  181.8220  178.7820  141.9920 N   0  0  0  0  0  2  0  0  0  0  0  0
  183.1970  178.4530  142.1850 C   0  0  0  0  0  0  0  0  0  0  0  0
  185.0260  178.2370  143.8050 C   0  0  0  0  0  0  0  0  0  0  0  0
  190.0130  173.7050  141.8390 C   0  0  0  0  0  2  0  0  0  0  0  0
  187.1950  176.2370  142.4290 C   0  0  0  0  0  2  0  0  0  0  0  0
  188.3260  178.2840  142.2900 N   0  0  0  0  0  2  0  0  0  0  0  0
  190.9260  174.3160  142.8150 N   0  0  2  0  0  0  0  0  0  0  0  0
  188.5640  174.1460  142.0960 C   0  0  0  0  0  2  0  0  0  0  0  0
  188.5070  175.5330  142.7310 C   0  0  1  0  0  3  0  0  0  0  0  0
  191.0070  175.7690  142.5620 C   0  0  0  0  0  2  0  0  0  0  0  0
  189.5360  177.7420  142.7700 N   0  0  0  0  0  2  0  0  0  0  0  0
  189.6500  176.3970  142.2150 C   0  0  2  0  0  3  0  0  0  0  0  0
  187.2620  177.6150  142.9350 N   0  0  1  0  0  0  0  0  0  0  0  0
  192.8140  172.5190  140.6110 S   0  0  0  0  0  0  0  0  0  0  0  0
  191.8270  172.2980  139.4990 O   0  0  0  0  0  0  0  0  0  0  0  0
  194.1760  171.9400  140.3460 O   0  0  0  0  0  0  0  0  0  0  0  0
  192.2650  173.7590  142.6060 C   0  0  2  0  0  3  0  0  0  0  0  0
  192.8320  174.1700  141.2360 C   0  0  0  0  0  2  0  0  0  0  0  0
  192.1690  172.2700  142.2430 C   0  0  2  0  0  3  0  0  0  0  0  0
  193.1350  171.4740  143.1060 C   0  0  0  0  0  2  0  0  0  0  0  0
  192.7560  169.0490  143.3190 C   0  0  0  0  0  2  0  0  0  0  0  0
  192.3880  170.4070  143.8820 C   0  0  0  0  0  3  0  0  0  0  0  0
  193.3910  169.5290  144.6030 C   0  0  0  0  0  2  0  0  0  0  0  0
  185.4780  178.1980  145.2230 C   0  0  0  0  0  0  0  0  0  0  0  0
  186.3030  176.9600  147.1510 C   0  0  0  0  0  3  0  0  0  0  0  0
  185.9550  179.3490  147.3170 C   0  0  0  0  0  3  0  0  0  0  0  0
  185.5280  179.3780  145.9870 C   0  0  0  0  0  3  0  0  0  0  0  0
  186.3390  178.1390  147.9000 C   0  0  0  0  0  3  0  0  0  0  0  0
  185.8790  176.9910  145.8200 C   0  0  0  0  0  3  0  0  0  0  0  0
  181.2730  178.8720  140.7040 N   0  0  0  0  0  2  0  0  0  0  0  0
  180.0370  178.2100  140.7400 N   0  0  0  0  0  2  0  0  0  0  0  0
  179.1030  179.0070  139.9650 C   0  0  0  0  0  2  0  0  0  0  0  0
  178.6340  180.1920  140.7890 C   0  0  0  0  0  2  0  0  0  0  0  0
  178.7500  181.4730  139.9780 C   0  0  2  0  0  3  0  0  0  0  0  0
  177.8010  182.3970  140.4160 O   0  0  0  0  0  1  0  0  0  0  0  0
  178.5370  181.1890  138.6270 O   0  0  0  0  0  0  0  0  0  0  0  0
  177.8390  182.4860  136.7620 C   0  0  0  0  0  1  0  0  0  0  0  0
  178.7500  182.4020  137.9690 C   0  0  0  0  0  2  0  0  0  0  0  0
  1  8  2  0  0  0  0
  2 18  1  0  0  0  0
  2  8  1  1  0  0  0
  4  3  1  6  0  0  0
  4  2  1  0  0  0  0
  5  4  1  0  0  0  0
  5  7  2  0  0  0  0
  6  7  1  0  0  0  0
  7  1  1  0  0  0  0
  8 29  1  0  0  0  0
  9 13  1  0  0  0  0
 10 14  1  0  0  0  0
 11 16  1  0  0  0  0
 11 18  1  0  0  0  0
 12  9  1  6  0  0  0
 14 13  1  6  0  0  0
 15 12  1  0  0  0  0
 17 15  1  1  0  0  0
 17 14  1  0  0  0  0
 17 16  1  0  0  0  0
 18 10  1  6  0  0  0
 19 23  1  0  0  0  0
 19 24  1  0  0  0  0
 20 19  2  0  0  0  0
 21 19  2  0  0  0  0
 22 23  1  6  0  0  0
 22 12  1  0  0  0  0
 24 22  1  0  0  0  0
 24 25  1  1  0  0  0
 25 27  1  0  0  0  0
 26 27  1  0  0  0  0
 26 28  1  0  0  0  0
 27 28  1  0  0  0  0
 29 34  2  0  0  0  0
 29 32  1  0  0  0  0
 30 33  2  0  0  0  0
 31 33  1  0  0  0  0
 32 31  2  0  0  0  0
 34 30  1  0  0  0  0
 35 36  1  0  0  0  0
 35  6  1  0  0  0  0
 37 36  1  0  0  0  0
 37 38  1  0  0  0  0
 39 40  1  1  0  0  0
 39 38  1  0  0  0  0
 41 39  1  0  0  0  0
 42 43  1  0  0  0  0
 43 41  1  0  0  0  0
M  END
>  <MODEL>
5

>  <REMARK>
 VINA RESULT:      -6.9      2.784      3.793
  Name = 
  12 active torsions:
  status: ('A' for Active; 'I' for Inactive)
    1  A    between atoms: C_3  and  C_29
    2  A    between atoms: C_5  and  N_43
    3  A    between atoms: N_10  and  C_23
    4  A    between atoms: N_17  and  N_26
    5  A    between atoms: C_22  and  C_24
    6  A    between atoms: C_22  and  C_39
    7  A    between atoms: C_24  and  O_38
    8  A    between atoms: N_26  and  N_34
    9  A    between atoms: C_28  and  C_36
   10  A    between atoms: C_31  and  O_38
   11  A    between atoms: N_34  and  C_39
   12  A    between atoms: C_35  and  C_36
                            x       y       z     vdW  Elec       q    Type
                         _______ _______ _______ _____ _____    ______ ____

>  <TORSDO>
F 12

$$$$
=
 OpenBabel11042419203D

 43 48  0  0  1  0  0  0  0  0999 V2000
  189.5310  176.6770  146.3240 C   0  0  0  0  0  3  0  0  0  0  0  0
  189.6880  175.9640  143.9620 C   0  0  1  0  0  3  0  0  0  0  0  0
  187.5610  175.8580  142.8330 F   0  0  0  0  0  0  0  0  0  0  0  0
  188.1740  175.6420  144.0510 C   0  0  2  0  0  3  0  0  0  0  0  0
  187.4900  176.4220  145.0810 N   0  0  0  0  0  0  0  0  0  0  0  0
  187.3420  177.5360  147.1610 N   0  0  0  0  0  2  0  0  0  0  0  0
  188.0810  176.8420  146.1580 C   0  0  0  0  0  0  0  0  0  0  0  0
  190.3110  176.2430  145.3260 C   0  0  0  0  0  0  0  0  0  0  0  0
  190.4460  170.2980  141.6190 C   0  0  0  0  0  2  0  0  0  0  0  0
  189.9040  173.5920  143.5060 C   0  0  0  0  0  2  0  0  0  0  0  0
  190.3110  175.1920  141.8440 N   0  0  0  0  0  2  0  0  0  0  0  0
  191.7310  170.7080  141.0350 N   0  0  2  0  0  0  0  0  0  0  0  0
  190.0970  171.1690  142.8360 C   0  0  0  0  0  2  0  0  0  0  0  0
  190.6980  172.5670  142.7130 C   0  0  1  0  0  3  0  0  0  0  0  0
  191.5820  172.0400  140.4160 C   0  0  0  0  0  2  0  0  0  0  0  0
  191.2290  174.3690  141.1600 N   0  0  0  0  0  2  0  0  0  0  0  0
  190.7270  173.0010  141.2540 C   0  0  2  0  0  3  0  0  0  0  0  0
  190.4380  174.9320  143.2260 N   0  0  1  0  0  0  0  0  0  0  0  0
  193.9120  170.1810  138.4620 S   0  0  0  0  0  0  0  0  0  0  0  0
  194.7900  171.3950  138.5760 O   0  0  0  0  0  0  0  0  0  0  0  0
  194.3100  169.2360  137.3620 O   0  0  0  0  0  0  0  0  0  0  0  0
  192.0740  169.7640  139.9680 C   0  0  2  0  0  3  0  0  0  0  0  0
  193.5680  169.3970  140.0070 C   0  0  0  0  0  2  0  0  0  0  0  0
  192.1750  170.4980  138.6230 C   0  0  2  0  0  3  0  0  0  0  0  0
  191.3750  169.7450  137.5720 C   0  0  0  0  0  2  0  0  0  0  0  0
  191.4850  171.6180  135.9760 C   0  0  0  0  0  2  0  0  0  0  0  0
  190.5480  170.7130  136.7500 C   0  0  0  0  0  3  0  0  0  0  0  0
  190.8110  170.4600  135.2790 C   0  0  0  0  0  2  0  0  0  0  0  0
  191.7830  176.1940  145.5410 C   0  0  0  0  0  0  0  0  0  0  0  0
  194.0060  177.1280  145.1980 C   0  0  0  0  0  3  0  0  0  0  0  0
  193.7360  175.1230  146.5260 C   0  0  0  0  0  3  0  0  0  0  0  0
  192.3560  175.1700  146.3170 C   0  0  0  0  0  3  0  0  0  0  0  0
  194.5620  176.1000  145.9640 C   0  0  0  0  0  3  0  0  0  0  0  0
  192.6240  177.1770  144.9930 C   0  0  0  0  0  3  0  0  0  0  0  0
  185.9490  177.6720  147.0690 N   0  0  0  0  0  2  0  0  0  0  0  0
  185.6890  179.0180  146.7740 N   0  0  0  0  0  2  0  0  0  0  0  0
  184.6780  179.0390  145.7310 C   0  0  0  0  0  2  0  0  0  0  0  0
  185.2650  179.6280  144.4610 C   0  0  0  0  0  2  0  0  0  0  0  0
  185.5800  178.5200  143.4680 C   0  0  2  0  0  3  0  0  0  0  0  0
  186.3130  179.0380  142.3990 O   0  0  0  0  0  1  0  0  0  0  0  0
  184.3880  177.9680  142.9930 O   0  0  0  0  0  0  0  0  0  0  0  0
  183.0320  178.2920  141.0690 C   0  0  0  0  0  1  0  0  0  0  0  0
  184.4390  178.1450  141.6090 C   0  0  0  0  0  2  0  0  0  0  0  0
  2  4  1  0  0  0  0
  2  8  1  1  0  0  0
  4  3  1  6  0  0  0
  4  5  1  0  0  0  0
  5  7  2  0  0  0  0
  7  1  1  0  0  0  0
  7  6  1  0  0  0  0
  8 29  1  0  0  0  0
  8  1  2  0  0  0  0
  9 13  1  0  0  0  0
 11 18  1  0  0  0  0
 12 15  1  6  0  0  0
 12  9  1  0  0  0  0
 14 13  1  6  0  0  0
 14 10  1  0  0  0  0
 16 17  1  0  0  0  0
 16 11  1  0  0  0  0
 17 15  1  6  0  0  0
 17 14  1  0  0  0  0
 18 10  1  6  0  0  0
 18  2  1  0  0  0  0
 19 20  2  0  0  0  0
 19 24  1  0  0  0  0
 19 23  1  0  0  0  0
 21 19  2  0  0  0  0
 22 23  1  1  0  0  0
 22 12  1  0  0  0  0
 24 25  1  6  0  0  0
 24 22  1  0  0  0  0
 26 27  1  0  0  0  0
 27 25  1  0  0  0  0
 28 26  1  0  0  0  0
 28 27  1  0  0  0  0
 29 32  1  0  0  0  0
 30 33  2  0  0  0  0
 32 31  2  0  0  0  0
 33 31  1  0  0  0  0
 34 30  1  0  0  0  0
 34 29  2  0  0  0  0
 35  6  1  0  0  0  0
 36 35  1  0  0  0  0
 37 36  1  0  0  0  0
 38 37  1  0  0  0  0
 39 40  1  6  0  0  0
 39 38  1  0  0  0  0
 41 39  1  0  0  0  0
 42 43  1  0  0  0  0
 43 41  1  0  0  0  0
M  END
>  <MODEL>
6

>  <REMARK>
 VINA RESULT:      -6.7      4.495      6.722
  Name = 
  12 active torsions:
  status: ('A' for Active; 'I' for Inactive)
    1  A    between atoms: C_3  and  C_29
    2  A    between atoms: C_5  and  N_43
    3  A    between atoms: N_10  and  C_23
    4  A    between atoms: N_17  and  N_26
    5  A    between atoms: C_22  and  C_24
    6  A    between atoms: C_22  and  C_39
    7  A    between atoms: C_24  and  O_38
    8  A    between atoms: N_26  and  N_34
    9  A    between atoms: C_28  and  C_36
   10  A    between atoms: C_31  and  O_38
   11  A    between atoms: N_34  and  C_39
   12  A    between atoms: C_35  and  C_36
                            x       y       z     vdW  Elec       q    Type
                         _______ _______ _______ _____ _____    ______ ____

>  <TORSDO>
F 12

$$$$
=
 OpenBabel11042419203D

 43 48  0  0  1  0  0  0  0  0999 V2000
  183.6310  178.3990  143.6370 C   0  0  0  0  0  3  0  0  0  0  0  0
  185.9300  178.2830  142.7350 C   0  0  1  0  0  3  0  0  0  0  0  0
  186.0320  178.2700  140.3260 F   0  0  0  0  0  0  0  0  0  0  0  0
  185.2880  177.8230  141.4000 C   0  0  2  0  0  3  0  0  0  0  0  0
  183.9070  178.2760  141.2520 N   0  0  0  0  0  0  0  0  0  0  0  0
  181.7560  178.8480  142.0510 N   0  0  0  0  0  2  0  0  0  0  0  0
  183.1170  178.4760  142.2630 C   0  0  0  0  0  0  0  0  0  0  0  0
  184.9400  178.2810  143.8940 C   0  0  0  0  0  0  0  0  0  0  0  0
  190.0830  173.8130  141.7630 C   0  0  0  0  0  2  0  0  0  0  0  0
  187.1670  176.2310  142.3610 C   0  0  0  0  0  2  0  0  0  0  0  0
  188.2670  178.2790  142.6520 N   0  0  0  0  0  2  0  0  0  0  0  0
  190.8610  174.2810  142.9190 N   0  0  2  0  0  0  0  0  0  0  0  0
  188.6050  174.2110  141.9030 C   0  0  0  0  0  2  0  0  0  0  0  0
  188.4470  175.4930  142.7170 C   0  0  1  0  0  3  0  0  0  0  0  0
  190.9440  175.7550  142.8870 C   0  0  0  0  0  2  0  0  0  0  0  0
  189.4210  177.6750  143.1930 N   0  0  0  0  0  2  0  0  0  0  0  0
  189.6270  176.4230  142.4710 C   0  0  2  0  0  3  0  0  0  0  0  0
  187.1470  177.5230  143.0620 N   0  0  1  0  0  0  0  0  0  0  0  0
  192.8390  171.6110  143.7000 S   0  0  0  0  0  0  0  0  0  0  0  0
  191.8510  170.7110  144.3880 O   0  0  0  0  0  0  0  0  0  0  0  0
  194.2220  171.0300  143.5870 O   0  0  0  0  0  0  0  0  0  0  0  0
  192.2260  173.7620  142.7960 C   0  0  2  0  0  3  0  0  0  0  0  0
  192.2300  172.3380  142.2100 C   0  0  0  0  0  2  0  0  0  0  0  0
  192.7490  173.3170  144.1700 C   0  0  2  0  0  3  0  0  0  0  0  0
  194.1340  173.9030  144.3990 C   0  0  0  0  0  2  0  0  0  0  0  0
  194.0360  175.6990  146.0820 C   0  0  0  0  0  2  0  0  0  0  0  0
  194.0430  175.4030  144.5960 C   0  0  0  0  0  3  0  0  0  0  0  0
  195.3040  175.8870  145.2830 C   0  0  0  0  0  2  0  0  0  0  0  0
  185.3910  178.3070  145.3120 C   0  0  0  0  0  0  0  0  0  0  0  0
  185.7940  179.5180  147.3860 C   0  0  0  0  0  3  0  0  0  0  0  0
  186.2520  177.1450  147.2730 C   0  0  0  0  0  3  0  0  0  0  0  0
  185.8320  177.1280  145.9410 C   0  0  0  0  0  3  0  0  0  0  0  0
  186.2370  178.3410  147.9940 C   0  0  0  0  0  3  0  0  0  0  0  0
  185.3700  179.5000  146.0550 C   0  0  0  0  0  3  0  0  0  0  0  0
  181.2090  178.8840  140.7600 N   0  0  0  0  0  2  0  0  0  0  0  0
  180.4300  177.7270  140.6140 N   0  0  0  0  0  2  0  0  0  0  0  0
  179.1390  178.0020  141.2200 C   0  0  0  0  0  2  0  0  0  0  0  0
  178.2910  178.8250  140.2670 C   0  0  0  0  0  2  0  0  0  0  0  0
  178.4420  178.3030  138.8470 C   0  0  2  0  0  3  0  0  0  0  0  0
  177.8780  179.2090  137.9480 O   0  0  0  0  0  1  0  0  0  0  0  0
  177.7970  177.0690  138.7340 O   0  0  0  0  0  0  0  0  0  0  0  0
  178.1910  175.0630  137.5220 C   0  0  0  0  0  1  0  0  0  0  0  0
  178.1840  176.5770  137.4850 C   0  0  0  0  0  2  0  0  0  0  0  0
  1  8  2  0  0  0  0
  2 18  1  0  0  0  0
  2  8  1  1  0  0  0
  4  3  1  6  0  0  0
  4  2  1  0  0  0  0
  5  4  1  0  0  0  0
  5  7  2  0  0  0  0
  6  7  1  0  0  0  0
  7  1  1  0  0  0  0
  8 29  1  0  0  0  0
  9 13  1  0  0  0  0
 10 14  1  0  0  0  0
 11 18  1  0  0  0  0
 11 16  1  0  0  0  0
 12  9  1  6  0  0  0
 14 13  1  6  0  0  0
 15 12  1  0  0  0  0
 17 14  1  0  0  0  0
 17 15  1  1  0  0  0
 17 16  1  0  0  0  0
 18 10  1  6  0  0  0
 19 24  1  0  0  0  0
 19 20  2  0  0  0  0
 21 19  2  0  0  0  0
 22 23  1  6  0  0  0
 22 12  1  0  0  0  0
 22 24  1  0  0  0  0
 23 19  1  0  0  0  0
 24 25  1  6  0  0  0
 25 27  1  0  0  0  0
 27 28  1  0  0  0  0
 27 26  1  0  0  0  0
 28 26  1  0  0  0  0
 29 32  2  0  0  0  0
 29 34  1  0  0  0  0
 30 33  1  0  0  0  0
 31 33  2  0  0  0  0
 32 31  1  0  0  0  0
 34 30  2  0  0  0  0
 35  6  1  0  0  0  0
 36 35  1  0  0  0  0
 36 37  1  0  0  0  0
 38 37  1  0  0  0  0
 39 40  1  6  0  0  0
 39 38  1  0  0  0  0
 41 39  1  0  0  0  0
 43 42  1  0  0  0  0
 43 41  1  0  0  0  0
M  END
>  <MODEL>
7

>  <REMARK>
 VINA RESULT:      -6.7      2.148      2.834
  Name = 
  12 active torsions:
  status: ('A' for Active; 'I' for Inactive)
    1  A    between atoms: C_3  and  C_29
    2  A    between atoms: C_5  and  N_43
    3  A    between atoms: N_10  and  C_23
    4  A    between atoms: N_17  and  N_26
    5  A    between atoms: C_22  and  C_24
    6  A    between atoms: C_22  and  C_39
    7  A    between atoms: C_24  and  O_38
    8  A    between atoms: N_26  and  N_34
    9  A    between atoms: C_28  and  C_36
   10  A    between atoms: C_31  and  O_38
   11  A    between atoms: N_34  and  C_39
   12  A    between atoms: C_35  and  C_36
                            x       y       z     vdW  Elec       q    Type
                         _______ _______ _______ _____ _____    ______ ____

>  <TORSDO>
F 12

$$$$
=
 OpenBabel11042419203D

 43 48  0  0  1  0  0  0  0  0999 V2000
  187.6990  177.6150  145.6170 C   0  0  0  0  0  3  0  0  0  0  0  0
  189.2270  177.1110  143.7400 C   0  0  1  0  0  3  0  0  0  0  0  0
  188.4270  177.8780  141.6000 F   0  0  0  0  0  0  0  0  0  0  0  0
  188.0130  177.3460  142.8050 C   0  0  2  0  0  3  0  0  0  0  0  0
  187.0050  178.2230  143.3980 N   0  0  0  0  0  0  0  0  0  0  0  0
  185.7550  179.1210  145.1920 N   0  0  0  0  0  2  0  0  0  0  0  0
  186.8040  178.3020  144.6780 C   0  0  0  0  0  0  0  0  0  0  0  0
  188.8290  177.0220  145.2090 C   0  0  0  0  0  0  0  0  0  0  0  0
  190.5360  172.3070  140.0820 C   0  0  0  0  0  2  0  0  0  0  0  0
  189.2810  175.0820  142.4120 C   0  0  0  0  0  2  0  0  0  0  0  0
  191.1850  176.4250  142.6600 N   0  0  0  0  0  2  0  0  0  0  0  0
  191.7520  172.0390  140.8630 N   0  0  2  0  0  0  0  0  0  0  0  0
  189.4950  173.0520  140.9320 C   0  0  0  0  0  2  0  0  0  0  0  0
  190.1600  173.9120  142.0040 C   0  0  1  0  0  3  0  0  0  0  0  0
  192.4460  173.3140  141.1360 C   0  0  0  0  0  2  0  0  0  0  0  0
  192.0720  175.3400  142.4980 N   0  0  0  0  0  2  0  0  0  0  0  0
  191.4870  174.4580  141.4930 C   0  0  2  0  0  3  0  0  0  0  0  0
  190.0350  175.9510  143.3280 N   0  0  1  0  0  0  0  0  0  0  0  0
  193.6440  172.0630  138.0220 S   0  0  0  0  0  0  0  0  0  0  0  0
  193.4110  173.4650  137.5320 O   0  0  0  0  0  0  0  0  0  0  0  0
  194.5810  171.2610  137.1620 O   0  0  0  0  0  0  0  0  0  0  0  0
  192.6500  171.2160  140.0500 C   0  0  2  0  0  3  0  0  0  0  0  0
  193.9680  171.9530  139.7540 C   0  0  0  0  0  2  0  0  0  0  0  0
  192.1910  171.2180  138.5850 C   0  0  2  0  0  3  0  0  0  0  0  0
  192.1430  169.7900  138.0650 C   0  0  0  0  0  2  0  0  0  0  0  0
  190.5890  170.7790  136.4290 C   0  0  0  0  0  2  0  0  0  0  0  0
  190.8650  169.5590  137.2830 C   0  0  0  0  0  3  0  0  0  0  0  0
  191.1890  169.5420  135.8030 C   0  0  0  0  0  2  0  0  0  0  0  0
  189.7320  176.4300  146.2330 C   0  0  0  0  0  0  0  0  0  0  0  0
  191.7040  176.5730  147.6570 C   0  0  0  0  0  3  0  0  0  0  0  0
  190.3040  174.6000  147.7360 C   0  0  0  0  0  3  0  0  0  0  0  0
  189.4620  175.1590  146.7710 C   0  0  0  0  0  3  0  0  0  0  0  0
  191.4270  175.3060  148.1760 C   0  0  0  0  0  3  0  0  0  0  0  0
  190.8580  177.1330  146.6950 C   0  0  0  0  0  3  0  0  0  0  0  0
  184.8450  179.7560  144.3340 N   0  0  0  0  0  2  0  0  0  0  0  0
  183.6840  178.9690  144.3160 N   0  0  0  0  0  2  0  0  0  0  0  0
  183.1270  179.0600  142.9780 C   0  0  0  0  0  2  0  0  0  0  0  0
  183.8800  178.1280  142.0450 C   0  0  0  0  0  2  0  0  0  0  0  0
  183.4220  178.3400  140.6120 C   0  0  2  0  0  3  0  0  0  0  0  0
  182.0800  177.9790  140.4860 O   0  0  0  0  0  1  0  0  0  0  0  0
  184.1980  177.5560  139.7540 O   0  0  0  0  0  0  0  0  0  0  0  0
  186.4610  177.2040  139.1170 C   0  0  0  0  0  1  0  0  0  0  0  0
  185.5180  177.8080  140.1370 C   0  0  0  0  0  2  0  0  0  0  0  0
  2  8  1  1  0  0  0
  4  3  1  6  0  0  0
  4  5  1  0  0  0  0
  4  2  1  0  0  0  0
  5  7  2  0  0  0  0
  7  6  1  0  0  0  0
  7  1  1  0  0  0  0
  8  1  2  0  0  0  0
  8 29  1  0  0  0  0
  9 13  1  0  0  0  0
 11 18  1  0  0  0  0
 12  9  1  6  0  0  0
 12 15  1  0  0  0  0
 14 13  1  6  0  0  0
 14 10  1  0  0  0  0
 16 11  1  0  0  0  0
 17 15  1  1  0  0  0
 17 14  1  0  0  0  0
 17 16  1  0  0  0  0
 18 10  1  6  0  0  0
 18  2  1  0  0  0  0
 19 24  1  0  0  0  0
 19 23  1  0  0  0  0
 20 19  2  0  0  0  0
 21 19  2  0  0  0  0
 22 23  1  6  0  0  0
 22 12  1  0  0  0  0
 24 25  1  6  0  0  0
 24 22  1  0  0  0  0
 26 27  1  0  0  0  0
 27 25  1  0  0  0  0
 28 26  1  0  0  0  0
 28 27  1  0  0  0  0
 29 34  2  0  0  0  0
 29 32  1  0  0  0  0
 30 33  2  0  0  0  0
 31 33  1  0  0  0  0
 32 31  2  0  0  0  0
 34 30  1  0  0  0  0
 35  6  1  0  0  0  0
 36 35  1  0  0  0  0
 37 36  1  0  0  0  0
 38 37  1  0  0  0  0
 39 40  1  1  0  0  0
 39 38  1  0  0  0  0
 41 43  1  0  0  0  0
 41 39  1  0  0  0  0
 42 43  1  0  0  0  0
M  END
>  <MODEL>
8

>  <REMARK>
 VINA RESULT:      -6.4      4.243      5.749
  Name = 
  12 active torsions:
  status: ('A' for Active; 'I' for Inactive)
    1  A    between atoms: C_3  and  C_29
    2  A    between atoms: C_5  and  N_43
    3  A    between atoms: N_10  and  C_23
    4  A    between atoms: N_17  and  N_26
    5  A    between atoms: C_22  and  C_24
    6  A    between atoms: C_22  and  C_39
    7  A    between atoms: C_24  and  O_38
    8  A    between atoms: N_26  and  N_34
    9  A    between atoms: C_28  and  C_36
   10  A    between atoms: C_31  and  O_38
   11  A    between atoms: N_34  and  C_39
   12  A    between atoms: C_35  and  C_36
                            x       y       z     vdW  Elec       q    Type
                         _______ _______ _______ _____ _____    ______ ____

>  <TORSDO>
F 12

$$$$
=
 OpenBabel11042419203D

 43 48  0  0  1  0  0  0  0  0999 V2000
  183.3930  178.4390  143.4970 C   0  0  0  0  0  3  0  0  0  0  0  0
  185.6760  178.4290  142.5490 C   0  0  1  0  0  3  0  0  0  0  0  0
  185.7370  178.6550  140.1500 F   0  0  0  0  0  0  0  0  0  0  0  0
  185.0140  178.0990  141.1870 C   0  0  2  0  0  3  0  0  0  0  0  0
  183.6280  178.5550  141.1070 N   0  0  0  0  0  0  0  0  0  0  0  0
  181.4890  179.0290  141.9960 N   0  0  0  0  0  2  0  0  0  0  0  0
  182.8550  178.6480  142.1470 C   0  0  0  0  0  0  0  0  0  0  0  0
  184.7070  178.3050  143.7190 C   0  0  0  0  0  0  0  0  0  0  0  0
  189.9020  174.1920  141.0080 C   0  0  0  0  0  2  0  0  0  0  0  0
  186.9460  176.4640  141.9080 C   0  0  0  0  0  2  0  0  0  0  0  0
  188.0140  178.4690  142.4840 N   0  0  0  0  0  2  0  0  0  0  0  0
  190.6660  174.5090  142.2220 N   0  0  2  0  0  0  0  0  0  0  0  0
  188.4170  174.5460  141.1900 C   0  0  0  0  0  2  0  0  0  0  0  0
  188.2350  175.7030  142.1700 C   0  0  1  0  0  3  0  0  0  0  0  0
  190.7270  175.9740  142.3920 C   0  0  0  0  0  2  0  0  0  0  0  0
  189.1740  177.8130  142.9460 N   0  0  0  0  0  2  0  0  0  0  0  0
  189.4020  176.6750  142.0610 C   0  0  2  0  0  3  0  0  0  0  0  0
  186.9030  177.6480  142.7790 N   0  0  1  0  0  0  0  0  0  0  0  0
  192.5700  172.3140  140.4310 S   0  0  0  0  0  0  0  0  0  0  0  0
  191.5320  171.6950  139.5360 O   0  0  0  0  0  0  0  0  0  0  0  0
  193.9640  171.8000  140.1980 O   0  0  0  0  0  0  0  0  0  0  0  0
  192.0390  174.0300  142.0400 C   0  0  2  0  0  3  0  0  0  0  0  0
  192.4510  174.0710  140.5580 C   0  0  0  0  0  2  0  0  0  0  0  0
  192.0820  172.4980  142.1250 C   0  0  2  0  0  3  0  0  0  0  0  0
  193.1930  172.0720  143.0710 C   0  0  0  0  0  2  0  0  0  0  0  0
  192.3700  169.9860  144.0900 C   0  0  0  0  0  2  0  0  0  0  0  0
  192.6060  171.4630  144.3290 C   0  0  0  0  0  3  0  0  0  0  0  0
  193.5770  170.4370  144.8790 C   0  0  0  0  0  2  0  0  0  0  0  0
  185.1830  178.1930  145.1250 C   0  0  0  0  0  0  0  0  0  0  0  0
  185.7170  179.2170  147.2690 C   0  0  0  0  0  3  0  0  0  0  0  0
  185.9820  176.8300  146.9790 C   0  0  0  0  0  3  0  0  0  0  0  0
  185.5380  176.9410  145.6590 C   0  0  0  0  0  3  0  0  0  0  0  0
  186.0740  177.9680  147.7830 C   0  0  0  0  0  3  0  0  0  0  0  0
  185.2700  179.3280  145.9500 C   0  0  0  0  0  3  0  0  0  0  0  0
  180.9180  179.1900  140.7240 N   0  0  0  0  0  2  0  0  0  0  0  0
  180.4810  177.9230  140.3100 N   0  0  0  0  0  2  0  0  0  0  0  0
  179.0520  177.8620  140.5630 C   0  0  0  0  0  2  0  0  0  0  0  0
  178.2930  178.3030  139.3240 C   0  0  0  0  0  2  0  0  0  0  0  0
  178.3960  177.2410  138.2410 C   0  0  2  0  0  3  0  0  0  0  0  0
  177.6910  177.6500  137.1090 O   0  0  0  0  0  1  0  0  0  0  0  0
  177.8620  176.0400  138.7150 O   0  0  0  0  0  0  0  0  0  0  0  0
  179.0150  174.3310  137.5320 C   0  0  0  0  0  1  0  0  0  0  0  0
  177.7860  175.2140  137.5910 C   0  0  0  0  0  2  0  0  0  0  0  0
  1  8  2  0  0  0  0
  2 18  1  0  0  0  0
  2  8  1  1  0  0  0
  4  3  1  6  0  0  0
  4  2  1  0  0  0  0
  5  4  1  0  0  0  0
  5  7  2  0  0  0  0
  6  7  1  0  0  0  0
  7  1  1  0  0  0  0
  8 29  1  0  0  0  0
  9 13  1  0  0  0  0
 10 14  1  0  0  0  0
 11 18  1  0  0  0  0
 11 16  1  0  0  0  0
 12  9  1  6  0  0  0
 12 15  1  0  0  0  0
 14 13  1  6  0  0  0
 17 14  1  0  0  0  0
 17 15  1  1  0  0  0
 17 16  1  0  0  0  0
 18 10  1  6  0  0  0
 19 23  1  0  0  0  0
 19 24  1  0  0  0  0
 20 19  2  0  0  0  0
 21 19  2  0  0  0  0
 22 23  1  6  0  0  0
 22 24  1  0  0  0  0
 22 12  1  0  0  0  0
 24 25  1  1  0  0  0
 25 27  1  0  0  0  0
 26 27  1  0  0  0  0
 26 28  1  0  0  0  0
 27 28  1  0  0  0  0
 29 32  2  0  0  0  0
 29 34  1  0  0  0  0
 30 33  1  0  0  0  0
 31 33  2  0  0  0  0
 32 31  1  0  0  0  0
 34 30  2  0  0  0  0
 35  6  1  0  0  0  0
 36 37  1  0  0  0  0
 36 35  1  0  0  0  0
 38 37  1  0  0  0  0
 39 40  1  6  0  0  0
 39 41  1  0  0  0  0
 39 38  1  0  0  0  0
 42 43  1  0  0  0  0
 43 41  1  0  0  0  0
M  END
>  <MODEL>
9

>  <REMARK>
 VINA RESULT:      -6.4      2.960      3.833
  Name = 
  12 active torsions:
  status: ('A' for Active; 'I' for Inactive)
    1  A    between atoms: C_3  and  C_29
    2  A    between atoms: C_5  and  N_43
    3  A    between atoms: N_10  and  C_23
    4  A    between atoms: N_17  and  N_26
    5  A    between atoms: C_22  and  C_24
    6  A    between atoms: C_22  and  C_39
    7  A    between atoms: C_24  and  O_38
    8  A    between atoms: N_26  and  N_34
    9  A    between atoms: C_28  and  C_36
   10  A    between atoms: C_31  and  O_38
   11  A    between atoms: N_34  and  C_39
   12  A    between atoms: C_35  and  C_36
                            x       y       z     vdW  Elec       q    Type
                         _______ _______ _______ _____ _____    ______ ____

>  <TORSDO>
F 12

$$$$
