=
 OpenBabel11042418453D

 44 47  0  0  1  0  0  0  0  0999 V2000
  188.8990  177.2400  143.2240 C   0  0  0  0  0  0  0  0  0  0  0  0
  189.0620  177.7940  144.4940 C   0  0  0  0  0  3  0  0  0  0  0  0
  189.5650  175.6040  145.4080 C   0  0  0  0  0  0  0  0  0  0  0  0
  189.3870  176.9820  145.5810 C   0  0  0  0  0  3  0  0  0  0  0  0
  189.4360  175.0320  144.1240 C   0  0  0  0  0  0  0  0  0  0  0  0
  189.0810  175.8630  143.0460 C   0  0  0  0  0  3  0  0  0  0  0  0
  189.6560  173.5500  143.9270 C   0  0  2  0  0  3  0  0  0  0  0  0
  190.5260  172.8430  141.7490 C   0  0  0  0  0  0  0  0  0  0  0  0
  191.0120  172.7110  140.5530 N   0  0  0  0  0  0  0  0  0  0  0  0
  191.2980  173.1250  143.3820 S   0  0  0  0  0  0  0  0  0  0  0  0
  188.8400  172.9890  142.4570 S   0  0  0  0  0  0  0  0  0  0  0  0
  190.0860  171.4240  138.8240 O   0  0  0  0  0  0  0  0  0  0  0  0
  189.5740  173.7010  138.8160 N   0  0  0  0  0  2  0  0  0  0  0  0
  190.2190  172.5540  139.3720 C   0  0  0  0  0  0  0  0  0  0  0  0
  189.3980  174.0940  136.2030 S   0  0  0  0  0  0  0  0  0  0  0  0
  188.7770  173.6230  137.6360 C   0  0  0  0  0  3  0  0  0  0  0  0
  189.8930  174.7760  146.6100 C   0  0  0  0  0  2  0  0  0  0  0  0
  191.2050  175.1720  147.2070 C   0  0  0  0  0  0  0  0  0  0  0  0
  191.2360  175.8940  148.1930 O   0  0  0  0  0  0  0  0  0  0  0  0
  192.4760  174.6850  146.5900 C   0  0  0  0  0  2  0  0  0  0  0  0
  193.1050  175.8050  145.7760 C   0  0  0  0  0  2  0  0  0  0  0  0
  194.5860  175.5450  145.5550 C   0  0  2  0  0  3  0  0  0  0  0  0
  194.7760  177.7300  145.8760 C   0  0  0  0  0  1  0  0  0  0  0  0
  195.1900  176.6930  145.0360 O   0  0  0  0  0  0  0  0  0  0  0  0
  194.7480  174.4490  144.6140 N   0  0  0  0  0  2  0  0  0  0  0  0
  194.5370  175.2610  139.7830 C   0  0  0  0  0  1  0  0  0  0  0  0
  195.2780  174.6350  143.2990 C   0  0  0  0  0  0  0  0  0  0  0  0
  194.4980  174.8730  142.2670 C   0  0  0  0  0  3  0  0  0  0  0  0
  196.6450  174.8590  141.1570 C   0  0  0  0  0  2  0  0  0  0  0  0
  197.0300  174.5550  142.9210 S   0  0  0  0  0  0  0  0  0  0  0  0
  195.2060  175.0170  141.0480 N   0  0  0  0  0  0  0  0  0  0  0  0
  188.5740  178.0740  142.1550 O   0  0  0  0  0  0  0  0  0  0  0  0
  187.7530  177.6450  141.0740 C   0  0  0  0  0  2  0  0  0  0  0  0
  185.9400  178.2090  142.6890 C   0  0  0  0  0  3  0  0  0  0  0  0
  184.6000  178.4790  142.9930 C   0  0  0  0  0  0  0  0  0  0  0  0
  183.6390  178.4530  141.9770 C   0  0  0  0  0  3  0  0  0  0  0  0
  186.3180  177.9160  141.3770 C   0  0  0  0  0  0  0  0  0  0  0  0
  185.3550  177.8980  140.3600 C   0  0  0  0  0  3  0  0  0  0  0  0
  184.0150  178.1620  140.6620 C   0  0  0  0  0  3  0  0  0  0  0  0
  184.1990  178.8160  144.3890 C   0  0  0  0  0  2  0  0  0  0  0  0
  185.3780  179.0590  145.2110 N   0  0  0  0  0  2  0  0  0  0  0  0
  184.0120  177.9470  146.7430 O   0  0  0  0  0  1  0  0  0  0  0  0
  185.3320  178.1290  146.3320 C   0  0  0  0  0  3  0  0  0  0  0  0
  185.8710  176.9030  145.9410 O   0  0  0  0  0  1  0  0  0  0  0  0
  1  2  1  0  0  0  0
  2  4  2  0  0  0  0
  3  4  1  0  0  0  0
  3 17  1  0  0  0  0
  5  3  2  0  0  0  0
  6  1  2  0  0  0  0
  6  5  1  0  0  0  0
  7  5  1  6  0  0  0
  8 11  1  0  0  0  0
  8 10  1  0  0  0  0
  9  8  2  0  0  0  0
 10  7  1  0  0  0  0
 11  7  1  0  0  0  0
 12 14  2  0  0  0  0
 13 14  1  0  0  0  0
 14  9  1  0  0  0  0
 15 16  2  0  0  0  0
 16 13  1  0  0  0  0
 17 18  1  0  0  0  0
 18 19  2  0  0  0  0
 20 18  1  0  0  0  0
 21 20  1  0  0  0  0
 22 21  1  6  0  0  0
 24 22  1  0  0  0  0
 24 23  1  0  0  0  0
 25 22  1  0  0  0  0
 26 31  1  0  0  0  0
 27 25  1  0  0  0  0
 28 27  2  0  0  0  0
 29 30  1  0  0  0  0
 30 27  1  0  0  0  0
 31 29  1  0  0  0  0
 31 28  1  0  0  0  0
 32  1  1  0  0  0  0
 33 37  1  0  0  0  0
 33 32  1  0  0  0  0
 34 35  1  0  0  0  0
 35 40  1  0  0  0  0
 36 35  2  0  0  0  0
 37 34  2  0  0  0  0
 38 39  2  0  0  0  0
 38 37  1  0  0  0  0
 39 36  1  0  0  0  0
 40 41  1  0  0  0  0
 41 43  1  0  0  0  0
 43 42  1  0  0  0  0
 44 43  1  0  0  0  0
M  END
>  <MODEL>
1

>  <REMARK>
 VINA RESULT:      -6.7      0.000      0.000
  Name = 
  17 active torsions:
  status: ('A' for Active; 'I' for Inactive)
    1  A    between atoms: O_2  and  C_19
    2  A    between atoms: O_3  and  C_9
    3  A    between atoms: O_3  and  C_42
    4  A    between atoms: C_5  and  N_27
    5  A    between atoms: C_6  and  C_8
    6  A    between atoms: C_6  and  C_32
    7  A    between atoms: C_7  and  C_28
    8  A    between atoms: C_8  and  C_13
    9  A    between atoms: C_13  and  C_19
   10  A    between atoms: C_16  and  N_33
   11  A    between atoms: C_17  and  C_20
   12  A    between atoms: C_17  and  N_35
   13  A    between atoms: C_19  and  N_27
   14  A    between atoms: C_24  and  C_32
   15  A    between atoms: N_29  and  C_37
   16  A    between atoms: C_31  and  N_35
   17  A    between atoms: C_36  and  C_42
                            x       y       z     vdW  Elec       q    Type
                         _______ _______ _______ _____ _____    ______ ____

>  <TORSDO>
F 17

$$$$
=
 OpenBabel11042418453D

 44 47  0  0  1  0  0  0  0  0999 V2000
  193.1370  176.5040  144.8330 C   0  0  0  0  0  0  0  0  0  0  0  0
  193.4680  175.9940  146.0890 C   0  0  0  0  0  3  0  0  0  0  0  0
  195.5220  175.0650  145.1930 C   0  0  0  0  0  0  0  0  0  0  0  0
  194.6500  175.2740  146.2680 C   0  0  0  0  0  3  0  0  0  0  0  0
  195.2190  175.6020  143.9230 C   0  0  0  0  0  0  0  0  0  0  0  0
  194.0110  176.3020  143.7570 C   0  0  0  0  0  3  0  0  0  0  0  0
  196.1720  175.4040  142.7670 C   0  0  2  0  0  3  0  0  0  0  0  0
  195.1850  175.3120  140.5260 C   0  0  0  0  0  0  0  0  0  0  0  0
  194.4530  175.3260  139.4560 N   0  0  0  0  0  0  0  0  0  0  0  0
  196.0180  176.6300  141.4820 S   0  0  0  0  0  0  0  0  0  0  0  0
  195.6570  174.0390  141.7610 S   0  0  0  0  0  0  0  0  0  0  0  0
  194.5170  173.2620  138.3420 O   0  0  0  0  0  0  0  0  0  0  0  0
  192.4070  174.0510  138.9490 N   0  0  0  0  0  2  0  0  0  0  0  0
  193.8290  174.1690  138.8880 C   0  0  0  0  0  0  0  0  0  0  0  0
  191.2780  172.9420  136.8260 S   0  0  0  0  0  0  0  0  0  0  0  0
  191.7160  172.9330  138.3970 C   0  0  0  0  0  3  0  0  0  0  0  0
  196.7660  174.2680  145.4350 C   0  0  0  0  0  2  0  0  0  0  0  0
  196.5520  172.8170  145.1470 C   0  0  0  0  0  0  0  0  0  0  0  0
  197.3530  172.2060  144.4550 O   0  0  0  0  0  0  0  0  0  0  0  0
  195.3530  172.1200  145.7040 C   0  0  0  0  0  2  0  0  0  0  0  0
  194.6490  171.3570  144.5930 C   0  0  0  0  0  2  0  0  0  0  0  0
  193.1550  171.6380  144.6080 C   0  0  2  0  0  3  0  0  0  0  0  0
  193.0810  169.4420  144.3220 C   0  0  0  0  0  1  0  0  0  0  0  0
  192.4830  170.6350  143.9060 O   0  0  0  0  0  0  0  0  0  0  0  0
  192.9000  172.9210  143.9750 N   0  0  0  0  0  2  0  0  0  0  0  0
  189.3140  174.3360  140.9450 C   0  0  0  0  0  1  0  0  0  0  0  0
  191.5840  173.3620  143.6280 C   0  0  0  0  0  0  0  0  0  0  0  0
  191.2350  173.5780  142.3780 C   0  0  0  0  0  3  0  0  0  0  0  0
  189.1690  174.1680  143.4830 C   0  0  0  0  0  2  0  0  0  0  0  0
  190.2960  173.6700  144.8370 S   0  0  0  0  0  0  0  0  0  0  0  0
  189.8970  174.0190  142.2360 N   0  0  0  0  0  0  0  0  0  0  0  0
  191.9510  177.2210  144.6810 O   0  0  0  0  0  0  0  0  0  0  0  0
  191.4560  177.6170  143.4070 C   0  0  0  0  0  2  0  0  0  0  0  0
  189.3010  177.5970  144.6610 C   0  0  0  0  0  3  0  0  0  0  0  0
  187.9060  177.7000  144.7150 C   0  0  0  0  0  0  0  0  0  0  0  0
  187.1790  177.9190  143.5400 C   0  0  0  0  0  3  0  0  0  0  0  0
  189.9680  177.7150  143.4390 C   0  0  0  0  0  0  0  0  0  0  0  0
  189.2390  177.9430  142.2650 C   0  0  0  0  0  3  0  0  0  0  0  0
  187.8450  178.0410  142.3160 C   0  0  0  0  0  3  0  0  0  0  0  0
  187.1950  177.5980  146.0220 C   0  0  0  0  0  2  0  0  0  0  0  0
  186.1860  178.6430  146.1340 N   0  0  0  0  0  2  0  0  0  0  0  0
  183.8620  178.5660  145.9360 O   0  0  0  0  0  1  0  0  0  0  0  0
  184.9570  178.0210  146.6070 C   0  0  0  0  0  3  0  0  0  0  0  0
  185.0100  176.6470  146.3710 O   0  0  0  0  0  1  0  0  0  0  0  0
  1  2  1  0  0  0  0
  2  4  2  0  0  0  0
  3 17  1  0  0  0  0
  3  4  1  0  0  0  0
  5  3  2  0  0  0  0
  6  5  1  0  0  0  0
  6  1  2  0  0  0  0
  7  5  1  1  0  0  0
  8 10  1  0  0  0  0
  8 11  1  0  0  0  0
  9  8  2  0  0  0  0
 10  7  1  0  0  0  0
 11  7  1  0  0  0  0
 12 14  2  0  0  0  0
 14 13  1  0  0  0  0
 14  9  1  0  0  0  0
 15 16  2  0  0  0  0
 16 13  1  0  0  0  0
 18 17  1  0  0  0  0
 18 20  1  0  0  0  0
 19 18  2  0  0  0  0
 21 20  1  0  0  0  0
 22 21  1  6  0  0  0
 24 23  1  0  0  0  0
 24 22  1  0  0  0  0
 25 22  1  0  0  0  0
 26 31  1  0  0  0  0
 27 25  1  0  0  0  0
 27 30  1  0  0  0  0
 28 27  2  0  0  0  0
 29 30  1  0  0  0  0
 31 28  1  0  0  0  0
 31 29  1  0  0  0  0
 32  1  1  0  0  0  0
 33 37  1  0  0  0  0
 33 32  1  0  0  0  0
 34 35  1  0  0  0  0
 35 40  1  0  0  0  0
 36 35  2  0  0  0  0
 37 34  2  0  0  0  0
 38 39  2  0  0  0  0
 38 37  1  0  0  0  0
 39 36  1  0  0  0  0
 40 41  1  0  0  0  0
 41 43  1  0  0  0  0
 42 43  1  0  0  0  0
 44 43  1  0  0  0  0
M  END
>  <MODEL>
2

>  <REMARK>
 VINA RESULT:      -6.5      2.438      5.012
  Name = 
  17 active torsions:
  status: ('A' for Active; 'I' for Inactive)
    1  A    between atoms: O_2  and  C_19
    2  A    between atoms: O_3  and  C_9
    3  A    between atoms: O_3  and  C_42
    4  A    between atoms: C_5  and  N_27
    5  A    between atoms: C_6  and  C_8
    6  A    between atoms: C_6  and  C_32
    7  A    between atoms: C_7  and  C_28
    8  A    between atoms: C_8  and  C_13
    9  A    between atoms: C_13  and  C_19
   10  A    between atoms: C_16  and  N_33
   11  A    between atoms: C_17  and  C_20
   12  A    between atoms: C_17  and  N_35
   13  A    between atoms: C_19  and  N_27
   14  A    between atoms: C_24  and  C_32
   15  A    between atoms: N_29  and  C_37
   16  A    between atoms: C_31  and  N_35
   17  A    between atoms: C_36  and  C_42
                            x       y       z     vdW  Elec       q    Type
                         _______ _______ _______ _____ _____    ______ ____

>  <TORSDO>
F 17

$$$$
=
 OpenBabel11042418453D

 44 47  0  0  1  0  0  0  0  0999 V2000
  189.9810  174.8570  145.8330 C   0  0  0  0  0  0  0  0  0  0  0  0
  191.0780  175.4530  146.4560 C   0  0  0  0  0  3  0  0  0  0  0  0
  192.5290  173.6940  145.6280 C   0  0  0  0  0  0  0  0  0  0  0  0
  192.3430  174.8730  146.3600 C   0  0  0  0  0  3  0  0  0  0  0  0
  191.4360  173.0960  144.9650 C   0  0  0  0  0  0  0  0  0  0  0  0
  190.1640  173.6810  145.0960 C   0  0  0  0  0  3  0  0  0  0  0  0
  191.6360  171.8390  144.1490 C   0  0  2  0  0  3  0  0  0  0  0  0
  191.5840  172.0840  141.7120 C   0  0  0  0  0  0  0  0  0  0  0  0
  191.5480  172.4560  140.4700 N   0  0  0  0  0  0  0  0  0  0  0  0
  192.9360  171.9600  142.9370 S   0  0  0  0  0  0  0  0  0  0  0  0
  190.3250  171.6430  142.9730 S   0  0  0  0  0  0  0  0  0  0  0  0
  189.6420  171.5210  139.4720 O   0  0  0  0  0  0  0  0  0  0  0  0
  189.9720  173.8090  139.1470 N   0  0  0  0  0  2  0  0  0  0  0  0
  190.3530  172.5430  139.6870 C   0  0  0  0  0  0  0  0  0  0  0  0
  188.9350  174.1520  136.7340 S   0  0  0  0  0  0  0  0  0  0  0  0
  188.8010  173.9690  138.3490 C   0  0  0  0  0  3  0  0  0  0  0  0
  193.9020  173.1030  145.5740 C   0  0  0  0  0  2  0  0  0  0  0  0
  194.9340  174.1400  145.2680 C   0  0  0  0  0  0  0  0  0  0  0  0
  195.2400  174.9670  146.1140 O   0  0  0  0  0  0  0  0  0  0  0  0
  195.5850  174.1630  143.9220 C   0  0  0  0  0  2  0  0  0  0  0  0
  195.5210  175.5720  143.3540 C   0  0  0  0  0  2  0  0  0  0  0  0
  194.2150  175.7940  142.6080 C   0  0  2  0  0  3  0  0  0  0  0  0
  195.8510  176.5730  141.3330 C   0  0  0  0  0  1  0  0  0  0  0  0
  194.4840  176.2830  141.3280 O   0  0  0  0  0  0  0  0  0  0  0  0
  193.4060  176.7610  143.3320 N   0  0  0  0  0  2  0  0  0  0  0  0
  188.9630  175.2390  141.9250 C   0  0  0  0  0  1  0  0  0  0  0  0
  191.9860  176.8460  143.1810 C   0  0  0  0  0  0  0  0  0  0  0  0
  191.2950  175.8860  142.6060 C   0  0  0  0  0  3  0  0  0  0  0  0
  189.5060  177.4350  143.0960 C   0  0  0  0  0  2  0  0  0  0  0  0
  191.0150  178.2460  143.7420 S   0  0  0  0  0  0  0  0  0  0  0  0
  189.9060  176.1550  142.5390 N   0  0  0  0  0  0  0  0  0  0  0  0
  188.7270  175.4580  145.9450 O   0  0  0  0  0  0  0  0  0  0  0  0
  188.4960  176.5940  146.7700 C   0  0  0  0  0  2  0  0  0  0  0  0
  186.6130  177.1040  145.2180 C   0  0  0  0  0  3  0  0  0  0  0  0
  185.3340  177.6100  144.9570 C   0  0  0  0  0  0  0  0  0  0  0  0
  184.5810  178.1660  145.9970 C   0  0  0  0  0  3  0  0  0  0  0  0
  187.1380  177.1520  146.5120 C   0  0  0  0  0  0  0  0  0  0  0  0
  186.3780  177.7010  147.5530 C   0  0  0  0  0  3  0  0  0  0  0  0
  185.1020  178.2120  147.2940 C   0  0  0  0  0  3  0  0  0  0  0  0
  184.7640  177.5380  143.5810 C   0  0  0  0  0  2  0  0  0  0  0  0
  185.7380  176.9710  142.6570 N   0  0  0  0  0  2  0  0  0  0  0  0
  186.7630  178.9680  142.0200 O   0  0  0  0  0  1  0  0  0  0  0  0
  185.9370  177.9320  141.5820 C   0  0  0  0  0  3  0  0  0  0  0  0
  186.5310  177.2950  140.4910 O   0  0  0  0  0  1  0  0  0  0  0  0
  1 32  1  0  0  0  0
  1  2  1  0  0  0  0
  3  4  1  0  0  0  0
  4  2  2  0  0  0  0
  5  6  1  0  0  0  0
  5  3  2  0  0  0  0
  6  1  2  0  0  0  0
  7  5  1  6  0  0  0
  8 10  1  0  0  0  0
  8 11  1  0  0  0  0
  9  8  2  0  0  0  0
 10  7  1  0  0  0  0
 11  7  1  0  0  0  0
 12 14  2  0  0  0  0
 13 14  1  0  0  0  0
 14  9  1  0  0  0  0
 15 16  2  0  0  0  0
 16 13  1  0  0  0  0
 17  3  1  0  0  0  0
 18 17  1  0  0  0  0
 18 19  2  0  0  0  0
 20 18  1  0  0  0  0
 21 20  1  0  0  0  0
 22 25  1  0  0  0  0
 22 21  1  1  0  0  0
 24 23  1  0  0  0  0
 24 22  1  0  0  0  0
 26 31  1  0  0  0  0
 27 25  1  0  0  0  0
 27 30  1  0  0  0  0
 28 27  2  0  0  0  0
 29 30  1  0  0  0  0
 31 28  1  0  0  0  0
 31 29  1  0  0  0  0
 32 33  1  0  0  0  0
 34 37  1  0  0  0  0
 35 34  2  0  0  0  0
 35 36  1  0  0  0  0
 36 39  2  0  0  0  0
 37 33  1  0  0  0  0
 37 38  2  0  0  0  0
 39 38  1  0  0  0  0
 40 35  1  0  0  0  0
 41 40  1  0  0  0  0
 43 42  1  0  0  0  0
 43 41  1  0  0  0  0
 44 43  1  0  0  0  0
M  END
>  <MODEL>
3

>  <REMARK>
 VINA RESULT:      -6.4      2.062      4.131
  Name = 
  17 active torsions:
  status: ('A' for Active; 'I' for Inactive)
    1  A    between atoms: O_2  and  C_19
    2  A    between atoms: O_3  and  C_9
    3  A    between atoms: O_3  and  C_42
    4  A    between atoms: C_5  and  N_27
    5  A    between atoms: C_6  and  C_8
    6  A    between atoms: C_6  and  C_32
    7  A    between atoms: C_7  and  C_28
    8  A    between atoms: C_8  and  C_13
    9  A    between atoms: C_13  and  C_19
   10  A    between atoms: C_16  and  N_33
   11  A    between atoms: C_17  and  C_20
   12  A    between atoms: C_17  and  N_35
   13  A    between atoms: C_19  and  N_27
   14  A    between atoms: C_24  and  C_32
   15  A    between atoms: N_29  and  C_37
   16  A    between atoms: C_31  and  N_35
   17  A    between atoms: C_36  and  C_42
                            x       y       z     vdW  Elec       q    Type
                         _______ _______ _______ _____ _____    ______ ____

>  <TORSDO>
F 17

$$$$
=
 OpenBabel11042418453D

 44 47  0  0  1  0  0  0  0  0999 V2000
  188.6290  176.0510  142.2610 C   0  0  0  0  0  0  0  0  0  0  0  0
  188.1830  175.0940  141.3490 C   0  0  0  0  0  3  0  0  0  0  0  0
  189.0200  173.3170  142.7710 C   0  0  0  0  0  0  0  0  0  0  0  0
  188.3810  173.7360  141.5980 C   0  0  0  0  0  3  0  0  0  0  0  0
  189.4480  174.2700  143.7210 C   0  0  0  0  0  0  0  0  0  0  0  0
  189.2630  175.6350  143.4390 C   0  0  0  0  0  3  0  0  0  0  0  0
  190.1110  173.8210  145.0030 C   0  0  2  0  0  3  0  0  0  0  0  0
  191.6130  175.4230  146.0890 C   0  0  0  0  0  0  0  0  0  0  0  0
  192.3250  176.4290  146.4920 N   0  0  0  0  0  0  0  0  0  0  0  0
  189.8730  174.9360  146.3720 S   0  0  0  0  0  0  0  0  0  0  0  0
  191.8660  174.0420  144.9070 S   0  0  0  0  0  0  0  0  0  0  0  0
  194.5250  177.1190  146.9250 O   0  0  0  0  0  0  0  0  0  0  0  0
  194.0720  176.3850  144.7570 N   0  0  0  0  0  2  0  0  0  0  0  0
  193.6810  176.6670  146.1010 C   0  0  0  0  0  0  0  0  0  0  0  0
  196.3750  175.3370  143.9740 S   0  0  0  0  0  0  0  0  0  0  0  0
  195.4020  176.6060  144.2930 C   0  0  0  0  0  3  0  0  0  0  0  0
  189.2250  171.8490  142.9800 C   0  0  0  0  0  2  0  0  0  0  0  0
  190.1040  171.2630  141.9220 C   0  0  0  0  0  0  0  0  0  0  0  0
  190.5040  170.1130  142.0280 O   0  0  0  0  0  0  0  0  0  0  0  0
  190.4930  172.0910  140.7400 C   0  0  0  0  0  2  0  0  0  0  0  0
  190.7890  171.1790  139.5600 C   0  0  0  0  0  2  0  0  0  0  0  0
  190.2240  171.7600  138.2740 C   0  0  2  0  0  3  0  0  0  0  0  0
  190.1630  170.5690  136.4060 C   0  0  0  0  0  1  0  0  0  0  0  0
  191.0100  171.3540  137.1920 O   0  0  0  0  0  0  0  0  0  0  0  0
  190.2320  173.2110  138.3570 N   0  0  0  0  0  2  0  0  0  0  0  0
  186.3270  175.8730  137.0510 C   0  0  0  0  0  1  0  0  0  0  0  0
  189.4480  174.0370  137.4930 C   0  0  0  0  0  0  0  0  0  0  0  0
  188.2700  174.4960  137.8580 C   0  0  0  0  0  3  0  0  0  0  0  0
  188.3950  175.4280  135.6320 C   0  0  0  0  0  2  0  0  0  0  0  0
  189.9710  174.5200  135.8460 S   0  0  0  0  0  0  0  0  0  0  0  0
  187.6410  175.2860  136.8640 N   0  0  0  0  0  0  0  0  0  0  0  0
  188.4180  177.4020  141.9880 O   0  0  0  0  0  0  0  0  0  0  0  0
  187.2890  177.8640  141.2540 C   0  0  0  0  0  2  0  0  0  0  0  0
  186.4270  178.4990  143.5060 C   0  0  0  0  0  3  0  0  0  0  0  0
  185.3790  178.7880  144.3880 C   0  0  0  0  0  0  0  0  0  0  0  0
  184.0560  178.7280  143.9380 C   0  0  0  0  0  3  0  0  0  0  0  0
  186.1560  178.1540  142.1800 C   0  0  0  0  0  0  0  0  0  0  0  0
  184.8310  178.1030  141.7290 C   0  0  0  0  0  3  0  0  0  0  0  0
  183.7820  178.3860  142.6090 C   0  0  0  0  0  3  0  0  0  0  0  0
  185.6680  179.1800  145.7970 C   0  0  0  0  0  2  0  0  0  0  0  0
  184.9150  178.3430  146.7220 N   0  0  0  0  0  2  0  0  0  0  0  0
  186.6050  176.7600  147.0090 O   0  0  0  0  0  1  0  0  0  0  0  0
  185.8640  177.7500  147.6540 C   0  0  0  0  0  3  0  0  0  0  0  0
  186.7260  178.7380  148.1330 O   0  0  0  0  0  1  0  0  0  0  0  0
  1  6  1  0  0  0  0
  2  4  1  0  0  0  0
  2  1  2  0  0  0  0
  3 17  1  0  0  0  0
  3  5  1  0  0  0  0
  4  3  2  0  0  0  0
  6  5  2  0  0  0  0
  7  5  1  6  0  0  0
  7 10  1  0  0  0  0
  8 10  1  0  0  0  0
  8  9  2  0  0  0  0
 11  7  1  0  0  0  0
 11  8  1  0  0  0  0
 13 14  1  0  0  0  0
 14  9  1  0  0  0  0
 14 12  2  0  0  0  0
 15 16  2  0  0  0  0
 16 13  1  0  0  0  0
 18 19  2  0  0  0  0
 18 17  1  0  0  0  0
 20 18  1  0  0  0  0
 21 20  1  0  0  0  0
 22 25  1  0  0  0  0
 22 21  1  1  0  0  0
 23 24  1  0  0  0  0
 24 22  1  0  0  0  0
 27 28  2  0  0  0  0
 27 25  1  0  0  0  0
 29 30  1  0  0  0  0
 29 31  1  0  0  0  0
 30 27  1  0  0  0  0
 31 26  1  0  0  0  0
 31 28  1  0  0  0  0
 32  1  1  0  0  0  0
 33 32  1  0  0  0  0
 33 37  1  0  0  0  0
 34 35  1  0  0  0  0
 35 40  1  0  0  0  0
 36 35  2  0  0  0  0
 37 34  2  0  0  0  0
 38 37  1  0  0  0  0
 38 39  2  0  0  0  0
 39 36  1  0  0  0  0
 40 41  1  0  0  0  0
 41 43  1  0  0  0  0
 42 43  1  0  0  0  0
 43 44  1  0  0  0  0
M  END
>  <MODEL>
4

>  <REMARK>
 VINA RESULT:      -6.3      2.024      6.425
  Name = 
  17 active torsions:
  status: ('A' for Active; 'I' for Inactive)
    1  A    between atoms: O_2  and  C_19
    2  A    between atoms: O_3  and  C_9
    3  A    between atoms: O_3  and  C_42
    4  A    between atoms: C_5  and  N_27
    5  A    between atoms: C_6  and  C_8
    6  A    between atoms: C_6  and  C_32
    7  A    between atoms: C_7  and  C_28
    8  A    between atoms: C_8  and  C_13
    9  A    between atoms: C_13  and  C_19
   10  A    between atoms: C_16  and  N_33
   11  A    between atoms: C_17  and  C_20
   12  A    between atoms: C_17  and  N_35
   13  A    between atoms: C_19  and  N_27
   14  A    between atoms: C_24  and  C_32
   15  A    between atoms: N_29  and  C_37
   16  A    between atoms: C_31  and  N_35
   17  A    between atoms: C_36  and  C_42
                            x       y       z     vdW  Elec       q    Type
                         _______ _______ _______ _____ _____    ______ ____

>  <TORSDO>
F 17

$$$$
=
 OpenBabel11042418453D

 44 47  0  0  1  0  0  0  0  0999 V2000
  183.8420  178.5840  142.2460 C   0  0  0  0  0  0  0  0  0  0  0  0
  183.3270  178.7710  143.5300 C   0  0  0  0  0  3  0  0  0  0  0  0
  185.5320  178.4360  144.4840 C   0  0  0  0  0  0  0  0  0  0  0  0
  184.1650  178.6920  144.6420 C   0  0  0  0  0  3  0  0  0  0  0  0
  186.0750  178.2770  143.1900 C   0  0  0  0  0  0  0  0  0  0  0  0
  185.2100  178.3330  142.0830 C   0  0  0  0  0  3  0  0  0  0  0  0
  187.5550  178.0300  143.0120 C   0  0  2  0  0  3  0  0  0  0  0  0
  188.1960  176.1120  141.6290 C   0  0  0  0  0  0  0  0  0  0  0  0
  188.2930  175.0810  140.8480 N   0  0  0  0  0  0  0  0  0  0  0  0
  188.0710  177.9080  141.3110 S   0  0  0  0  0  0  0  0  0  0  0  0
  187.9630  176.3570  143.4330 S   0  0  0  0  0  0  0  0  0  0  0  0
  187.4550  172.8900  140.9020 O   0  0  0  0  0  0  0  0  0  0  0  0
  189.3360  173.3180  142.2150 N   0  0  0  0  0  2  0  0  0  0  0  0
  188.3170  173.7230  141.3000 C   0  0  0  0  0  0  0  0  0  0  0  0
  190.4320  170.9150  142.0190 S   0  0  0  0  0  0  0  0  0  0  0  0
  189.4170  171.9850  142.7150 C   0  0  0  0  0  3  0  0  0  0  0  0
  186.3820  178.3420  145.7120 C   0  0  0  0  0  2  0  0  0  0  0  0
  186.1970  177.0310  146.4070 C   0  0  0  0  0  0  0  0  0  0  0  0
  185.1200  176.4560  146.3520 O   0  0  0  0  0  0  0  0  0  0  0  0
  187.3330  176.4310  147.1700 C   0  0  0  0  0  2  0  0  0  0  0  0
  188.6070  177.2090  146.8770 C   0  0  0  0  0  2  0  0  0  0  0  0
  189.7660  176.2640  146.6050 C   0  0  2  0  0  3  0  0  0  0  0  0
  191.2460  176.8070  148.1620 C   0  0  0  0  0  1  0  0  0  0  0  0
  190.3090  175.8290  147.8170 O   0  0  0  0  0  0  0  0  0  0  0  0
  190.7870  176.9610  145.8420 N   0  0  0  0  0  2  0  0  0  0  0  0
  193.0160  173.4980  143.1820 C   0  0  0  0  0  1  0  0  0  0  0  0
  191.3920  176.4030  144.6720 C   0  0  0  0  0  0  0  0  0  0  0  0
  191.8550  175.1730  144.6550 C   0  0  0  0  0  3  0  0  0  0  0  0
  192.4110  175.8470  142.4020 C   0  0  0  0  0  2  0  0  0  0  0  0
  191.5860  177.3070  143.1350 S   0  0  0  0  0  0  0  0  0  0  0  0
  192.4260  174.8040  143.4120 N   0  0  0  0  0  0  0  0  0  0  0  0
  182.9830  178.6680  141.1500 O   0  0  0  0  0  0  0  0  0  0  0  0
  181.9330  177.7330  140.9300 C   0  0  0  0  0  2  0  0  0  0  0  0
  180.3100  179.5840  140.5380 C   0  0  0  0  0  3  0  0  0  0  0  0
  179.0680  180.1980  140.7410 C   0  0  0  0  0  0  0  0  0  0  0  0
  178.1260  179.5990  141.5840 C   0  0  0  0  0  3  0  0  0  0  0  0
  180.6090  178.3760  141.1720 C   0  0  0  0  0  0  0  0  0  0  0  0
  179.6610  177.7730  142.0080 C   0  0  0  0  0  3  0  0  0  0  0  0
  178.4220  178.3870  142.2170 C   0  0  0  0  0  3  0  0  0  0  0  0
  178.7390  181.4750  140.0460 C   0  0  0  0  0  2  0  0  0  0  0  0
  179.4880  181.5840  138.8000 N   0  0  0  0  0  2  0  0  0  0  0  0
  179.1130  183.2000  137.1590 O   0  0  0  0  0  1  0  0  0  0  0  0
  179.5750  182.9970  138.4600 C   0  0  0  0  0  3  0  0  0  0  0  0
  178.7990  183.7400  139.3500 O   0  0  0  0  0  1  0  0  0  0  0  0
  1  2  1  0  0  0  0
  2  4  2  0  0  0  0
  3  4  1  0  0  0  0
  3 17  1  0  0  0  0
  5  3  2  0  0  0  0
  6  1  2  0  0  0  0
  6  5  1  0  0  0  0
  7  5  1  6  0  0  0
  7 11  1  0  0  0  0
  8 11  1  0  0  0  0
  9 14  1  0  0  0  0
  9  8  2  0  0  0  0
 10  8  1  0  0  0  0
 10  7  1  0  0  0  0
 12 14  2  0  0  0  0
 13 16  1  0  0  0  0
 14 13  1  0  0  0  0
 15 16  2  0  0  0  0
 17 18  1  0  0  0  0
 18 20  1  0  0  0  0
 19 18  2  0  0  0  0
 21 20  1  0  0  0  0
 22 21  1  1  0  0  0
 22 24  1  0  0  0  0
 24 23  1  0  0  0  0
 25 22  1  0  0  0  0
 26 31  1  0  0  0  0
 27 25  1  0  0  0  0
 28 27  2  0  0  0  0
 29 30  1  0  0  0  0
 29 31  1  0  0  0  0
 30 27  1  0  0  0  0
 31 28  1  0  0  0  0
 32  1  1  0  0  0  0
 33 32  1  0  0  0  0
 33 37  1  0  0  0  0
 34 35  2  0  0  0  0
 34 37  1  0  0  0  0
 35 36  1  0  0  0  0
 36 39  2  0  0  0  0
 37 38  2  0  0  0  0
 38 39  1  0  0  0  0
 40 35  1  0  0  0  0
 41 40  1  0  0  0  0
 42 43  1  0  0  0  0
 43 41  1  0  0  0  0
 43 44  1  0  0  0  0
M  END
>  <MODEL>
5

>  <REMARK>
 VINA RESULT:      -6.2      4.166      5.962
  Name = 
  17 active torsions:
  status: ('A' for Active; 'I' for Inactive)
    1  A    between atoms: O_2  and  C_19
    2  A    between atoms: O_3  and  C_9
    3  A    between atoms: O_3  and  C_42
    4  A    between atoms: C_5  and  N_27
    5  A    between atoms: C_6  and  C_8
    6  A    between atoms: C_6  and  C_32
    7  A    between atoms: C_7  and  C_28
    8  A    between atoms: C_8  and  C_13
    9  A    between atoms: C_13  and  C_19
   10  A    between atoms: C_16  and  N_33
   11  A    between atoms: C_17  and  C_20
   12  A    between atoms: C_17  and  N_35
   13  A    between atoms: C_19  and  N_27
   14  A    between atoms: C_24  and  C_32
   15  A    between atoms: N_29  and  C_37
   16  A    between atoms: C_31  and  N_35
   17  A    between atoms: C_36  and  C_42
                            x       y       z     vdW  Elec       q    Type
                         _______ _______ _______ _____ _____    ______ ____

>  <TORSDO>
F 17

$$$$
=
 OpenBabel11042418453D

 44 47  0  0  1  0  0  0  0  0999 V2000
  188.8240  176.1360  142.5520 C   0  0  0  0  0  0  0  0  0  0  0  0
  188.3900  175.1710  141.6410 C   0  0  0  0  0  3  0  0  0  0  0  0
  189.2760  173.4090  143.0530 C   0  0  0  0  0  0  0  0  0  0  0  0
  188.6190  173.8170  141.8860 C   0  0  0  0  0  3  0  0  0  0  0  0
  189.6920  174.3690  144.0010 C   0  0  0  0  0  0  0  0  0  0  0  0
  189.4760  175.7300  143.7230 C   0  0  0  0  0  3  0  0  0  0  0  0
  190.3750  173.9310  145.2760 C   0  0  2  0  0  3  0  0  0  0  0  0
  192.3520  175.2060  145.9630 C   0  0  0  0  0  0  0  0  0  0  0  0
  193.3370  176.0310  146.1400 N   0  0  0  0  0  0  0  0  0  0  0  0
  190.5940  175.2380  146.4680 S   0  0  0  0  0  0  0  0  0  0  0  0
  192.1050  173.6650  144.9970 S   0  0  0  0  0  0  0  0  0  0  0  0
  195.5090  175.1460  146.2060 O   0  0  0  0  0  0  0  0  0  0  0  0
  194.9820  176.4740  144.3610 N   0  0  0  0  0  2  0  0  0  0  0  0
  194.6500  175.8480  145.6020 C   0  0  0  0  0  0  0  0  0  0  0  0
  196.4490  176.5170  142.1580 S   0  0  0  0  0  0  0  0  0  0  0  0
  196.2720  176.3450  143.7700 C   0  0  0  0  0  3  0  0  0  0  0  0
  189.5130  171.9460  143.2570 C   0  0  0  0  0  2  0  0  0  0  0  0
  190.4590  171.3970  142.2380 C   0  0  0  0  0  0  0  0  0  0  0  0
  190.2140  170.3340  141.6860 O   0  0  0  0  0  0  0  0  0  0  0  0
  191.7050  172.1510  141.9010 C   0  0  0  0  0  2  0  0  0  0  0  0
  191.8470  172.2440  140.3900 C   0  0  0  0  0  2  0  0  0  0  0  0
  193.3110  172.3230  139.9900 C   0  0  2  0  0  3  0  0  0  0  0  0
  192.8660  170.4980  138.8140 C   0  0  0  0  0  1  0  0  0  0  0  0
  193.4830  171.7490  138.7280 O   0  0  0  0  0  0  0  0  0  0  0  0
  194.1150  171.6000  140.9600 N   0  0  0  0  0  2  0  0  0  0  0  0
  197.5230  172.9130  144.2320 C   0  0  0  0  0  1  0  0  0  0  0  0
  195.3990  172.0580  141.3930 C   0  0  0  0  0  0  0  0  0  0  0  0
  195.6900  172.1950  142.6680 C   0  0  0  0  0  3  0  0  0  0  0  0
  197.7750  172.9340  141.6970 C   0  0  0  0  0  2  0  0  0  0  0  0
  196.7230  172.4960  140.2640 S   0  0  0  0  0  0  0  0  0  0  0  0
  197.0040  172.6700  142.8990 N   0  0  0  0  0  0  0  0  0  0  0  0
  188.5830  177.4820  142.2830 O   0  0  0  0  0  0  0  0  0  0  0  0
  187.6940  177.9080  141.2560 C   0  0  0  0  0  2  0  0  0  0  0  0
  186.2150  178.6790  143.1100 C   0  0  0  0  0  3  0  0  0  0  0  0
  184.9500  178.9320  143.6520 C   0  0  0  0  0  0  0  0  0  0  0  0
  183.8030  178.6570  142.9000 C   0  0  0  0  0  3  0  0  0  0  0  0
  186.3350  178.1560  141.8200 C   0  0  0  0  0  0  0  0  0  0  0  0
  185.1860  177.8900  141.0650 C   0  0  0  0  0  3  0  0  0  0  0  0
  183.9210  178.1360  141.6070 C   0  0  0  0  0  3  0  0  0  0  0  0
  184.8210  179.5140  145.0200 C   0  0  0  0  0  2  0  0  0  0  0  0
  183.9030  178.7180  145.8250 N   0  0  0  0  0  2  0  0  0  0  0  0
  185.0130  176.7490  146.4060 O   0  0  0  0  0  1  0  0  0  0  0  0
  184.6890  178.0340  146.8420 C   0  0  0  0  0  3  0  0  0  0  0  0
  185.8600  178.7510  147.0870 O   0  0  0  0  0  1  0  0  0  0  0  0
  1  6  1  0  0  0  0
  2  4  1  0  0  0  0
  2  1  2  0  0  0  0
  3 17  1  0  0  0  0
  3  5  1  0  0  0  0
  4  3  2  0  0  0  0
  6  5  2  0  0  0  0
  7  5  1  6  0  0  0
  7 10  1  0  0  0  0
  8  9  2  0  0  0  0
  8 10  1  0  0  0  0
 11  7  1  0  0  0  0
 11  8  1  0  0  0  0
 13 14  1  0  0  0  0
 14  9  1  0  0  0  0
 14 12  2  0  0  0  0
 15 16  2  0  0  0  0
 16 13  1  0  0  0  0
 18 17  1  0  0  0  0
 19 18  2  0  0  0  0
 20 18  1  0  0  0  0
 21 20  1  0  0  0  0
 22 21  1  1  0  0  0
 22 25  1  0  0  0  0
 24 23  1  0  0  0  0
 24 22  1  0  0  0  0
 25 27  1  0  0  0  0
 27 28  2  0  0  0  0
 28 31  1  0  0  0  0
 29 31  1  0  0  0  0
 30 27  1  0  0  0  0
 30 29  1  0  0  0  0
 31 26  1  0  0  0  0
 32  1  1  0  0  0  0
 33 37  1  0  0  0  0
 33 32  1  0  0  0  0
 34 35  1  0  0  0  0
 35 40  1  0  0  0  0
 36 35  2  0  0  0  0
 37 34  2  0  0  0  0
 38 39  2  0  0  0  0
 38 37  1  0  0  0  0
 39 36  1  0  0  0  0
 40 41  1  0  0  0  0
 41 43  1  0  0  0  0
 42 43  1  0  0  0  0
 43 44  1  0  0  0  0
M  END
>  <MODEL>
6

>  <REMARK>
 VINA RESULT:      -6.1      2.529      5.069
  Name = 
  17 active torsions:
  status: ('A' for Active; 'I' for Inactive)
    1  A    between atoms: O_2  and  C_19
    2  A    between atoms: O_3  and  C_9
    3  A    between atoms: O_3  and  C_42
    4  A    between atoms: C_5  and  N_27
    5  A    between atoms: C_6  and  C_8
    6  A    between atoms: C_6  and  C_32
    7  A    between atoms: C_7  and  C_28
    8  A    between atoms: C_8  and  C_13
    9  A    between atoms: C_13  and  C_19
   10  A    between atoms: C_16  and  N_33
   11  A    between atoms: C_17  and  C_20
   12  A    between atoms: C_17  and  N_35
   13  A    between atoms: C_19  and  N_27
   14  A    between atoms: C_24  and  C_32
   15  A    between atoms: N_29  and  C_37
   16  A    between atoms: C_31  and  N_35
   17  A    between atoms: C_36  and  C_42
                            x       y       z     vdW  Elec       q    Type
                         _______ _______ _______ _____ _____    ______ ____

>  <TORSDO>
F 17

$$$$
=
 OpenBabel11042418453D

 44 47  0  0  1  0  0  0  0  0999 V2000
  188.5190  177.1330  142.5660 C   0  0  0  0  0  0  0  0  0  0  0  0
  188.7620  177.5190  143.8840 C   0  0  0  0  0  3  0  0  0  0  0  0
  189.3740  175.2430  144.4600 C   0  0  0  0  0  0  0  0  0  0  0  0
  189.1810  176.5800  144.8270 C   0  0  0  0  0  3  0  0  0  0  0  0
  189.1650  174.8420  143.1220 C   0  0  0  0  0  0  0  0  0  0  0  0
  188.7160  175.7970  142.1930 C   0  0  0  0  0  3  0  0  0  0  0  0
  189.4000  173.4060  142.7140 C   0  0  2  0  0  3  0  0  0  0  0  0
  190.2440  173.0280  140.4450 C   0  0  0  0  0  0  0  0  0  0  0  0
  190.7110  173.0750  139.2360 N   0  0  0  0  0  0  0  0  0  0  0  0
  191.0390  173.0880  142.0910 S   0  0  0  0  0  0  0  0  0  0  0  0
  188.5680  173.0470  141.1920 S   0  0  0  0  0  0  0  0  0  0  0  0
  189.0940  172.1320  137.8210 O   0  0  0  0  0  0  0  0  0  0  0  0
  190.0160  174.1650  137.1400 N   0  0  0  0  0  2  0  0  0  0  0  0
  189.9010  173.0750  138.0560 C   0  0  0  0  0  0  0  0  0  0  0  0
  188.9790  175.6680  135.2220 S   0  0  0  0  0  0  0  0  0  0  0  0
  189.2490  174.2290  135.9400 C   0  0  0  0  0  3  0  0  0  0  0  0
  189.8060  174.2740  145.5150 C   0  0  0  0  0  2  0  0  0  0  0  0
  189.7800  174.8950  146.8740 C   0  0  0  0  0  0  0  0  0  0  0  0
  188.8780  174.6260  147.6530 O   0  0  0  0  0  0  0  0  0  0  0  0
  190.8590  175.8500  147.2720 C   0  0  0  0  0  2  0  0  0  0  0  0
  192.2000  175.1330  147.2580 C   0  0  0  0  0  2  0  0  0  0  0  0
  193.1110  175.7140  146.1890 C   0  0  2  0  0  3  0  0  0  0  0  0
  192.8730  176.7200  144.2290 C   0  0  0  0  0  1  0  0  0  0  0  0
  192.4750  176.7900  145.5660 O   0  0  0  0  0  0  0  0  0  0  0  0
  193.4050  174.6910  145.1990 N   0  0  0  0  0  2  0  0  0  0  0  0
  195.2340  170.1700  145.7100 C   0  0  0  0  0  1  0  0  0  0  0  0
  194.4330  173.7130  145.3830 C   0  0  0  0  0  0  0  0  0  0  0  0
  194.1640  172.4260  145.4180 C   0  0  0  0  0  3  0  0  0  0  0  0
  196.5540  172.3490  145.7650 C   0  0  0  0  0  2  0  0  0  0  0  0
  196.1660  174.1300  145.5890 S   0  0  0  0  0  0  0  0  0  0  0  0
  195.3090  171.6170  145.6180 N   0  0  0  0  0  0  0  0  0  0  0  0
  188.1000  178.0910  141.6430 O   0  0  0  0  0  0  0  0  0  0  0  0
  187.0120  177.8690  140.7530 C   0  0  0  0  0  2  0  0  0  0  0  0
  184.5240  178.0310  140.7240 C   0  0  0  0  0  3  0  0  0  0  0  0
  183.2990  178.2880  141.3510 C   0  0  0  0  0  0  0  0  0  0  0  0
  183.2730  178.6780  142.6940 C   0  0  0  0  0  3  0  0  0  0  0  0
  185.7190  178.1610  141.4360 C   0  0  0  0  0  0  0  0  0  0  0  0
  185.6900  178.5450  142.7830 C   0  0  0  0  0  3  0  0  0  0  0  0
  184.4680  178.8070  143.4100 C   0  0  0  0  0  3  0  0  0  0  0  0
  182.0210  178.1250  140.5990 C   0  0  0  0  0  2  0  0  0  0  0  0
  180.8830  178.4130  141.4620 N   0  0  0  0  0  2  0  0  0  0  0  0
  179.2920  177.8850  139.8390 O   0  0  0  0  0  1  0  0  0  0  0  0
  179.8080  178.9190  140.6200 C   0  0  0  0  0  3  0  0  0  0  0  0
  178.7950  179.4450  141.4240 O   0  0  0  0  0  1  0  0  0  0  0  0
  1  2  1  0  0  0  0
  2  4  2  0  0  0  0
  3  4  1  0  0  0  0
  3 17  1  0  0  0  0
  5  3  2  0  0  0  0
  6  1  2  0  0  0  0
  6  5  1  0  0  0  0
  7  5  1  6  0  0  0
  8 11  1  0  0  0  0
  8 10  1  0  0  0  0
  9  8  2  0  0  0  0
 10  7  1  0  0  0  0
 11  7  1  0  0  0  0
 12 14  2  0  0  0  0
 13 14  1  0  0  0  0
 14  9  1  0  0  0  0
 15 16  2  0  0  0  0
 16 13  1  0  0  0  0
 17 18  1  0  0  0  0
 18 20  1  0  0  0  0
 18 19  2  0  0  0  0
 21 20  1  0  0  0  0
 22 21  1  1  0  0  0
 23 24  1  0  0  0  0
 24 22  1  0  0  0  0
 25 27  1  0  0  0  0
 25 22  1  0  0  0  0
 27 28  2  0  0  0  0
 27 30  1  0  0  0  0
 28 31  1  0  0  0  0
 30 29  1  0  0  0  0
 31 26  1  0  0  0  0
 31 29  1  0  0  0  0
 32  1  1  0  0  0  0
 33 37  1  0  0  0  0
 33 32  1  0  0  0  0
 34 35  2  0  0  0  0
 34 37  1  0  0  0  0
 35 36  1  0  0  0  0
 36 39  2  0  0  0  0
 37 38  2  0  0  0  0
 38 39  1  0  0  0  0
 40 35  1  0  0  0  0
 40 41  1  0  0  0  0
 42 43  1  0  0  0  0
 43 44  1  0  0  0  0
 43 41  1  0  0  0  0
M  END
>  <MODEL>
7

>  <REMARK>
 VINA RESULT:      -6.1      2.637      3.408
  Name = 
  17 active torsions:
  status: ('A' for Active; 'I' for Inactive)
    1  A    between atoms: O_2  and  C_19
    2  A    between atoms: O_3  and  C_9
    3  A    between atoms: O_3  and  C_42
    4  A    between atoms: C_5  and  N_27
    5  A    between atoms: C_6  and  C_8
    6  A    between atoms: C_6  and  C_32
    7  A    between atoms: C_7  and  C_28
    8  A    between atoms: C_8  and  C_13
    9  A    between atoms: C_13  and  C_19
   10  A    between atoms: C_16  and  N_33
   11  A    between atoms: C_17  and  C_20
   12  A    between atoms: C_17  and  N_35
   13  A    between atoms: C_19  and  N_27
   14  A    between atoms: C_24  and  C_32
   15  A    between atoms: N_29  and  C_37
   16  A    between atoms: C_31  and  N_35
   17  A    between atoms: C_36  and  C_42
                            x       y       z     vdW  Elec       q    Type
                         _______ _______ _______ _____ _____    ______ ____

>  <TORSDO>
F 17

$$$$
=
 OpenBabel11042418453D

 44 47  0  0  1  0  0  0  0  0999 V2000
  189.2300  177.3530  142.9190 C   0  0  0  0  0  0  0  0  0  0  0  0
  189.7380  177.7580  144.1550 C   0  0  0  0  0  3  0  0  0  0  0  0
  190.5700  175.5180  144.5700 C   0  0  0  0  0  0  0  0  0  0  0  0
  190.3980  176.8460  144.9780 C   0  0  0  0  0  3  0  0  0  0  0  0
  190.0930  175.1000  143.3090 C   0  0  0  0  0  0  0  0  0  0  0  0
  189.4060  176.0270  142.5050 C   0  0  0  0  0  3  0  0  0  0  0  0
  190.3020  173.6750  142.8510 C   0  0  2  0  0  3  0  0  0  0  0  0
  190.7720  173.3380  140.4700 C   0  0  0  0  0  0  0  0  0  0  0  0
  191.0320  173.4070  139.2010 N   0  0  0  0  0  0  0  0  0  0  0  0
  191.8250  173.4140  141.9630 S   0  0  0  0  0  0  0  0  0  0  0  0
  189.2420  173.2980  141.4820 S   0  0  0  0  0  0  0  0  0  0  0  0
  188.9830  172.7070  138.2980 O   0  0  0  0  0  0  0  0  0  0  0  0
  190.2580  174.1570  136.9860 N   0  0  0  0  0  2  0  0  0  0  0  0
  190.0390  173.3880  138.1700 C   0  0  0  0  0  0  0  0  0  0  0  0
  188.1920  175.3570  135.8440 S   0  0  0  0  0  0  0  0  0  0  0  0
  189.3180  174.1790  135.9150 C   0  0  0  0  0  3  0  0  0  0  0  0
  191.2680  174.5760  145.4990 C   0  0  0  0  0  2  0  0  0  0  0  0
  192.0350  175.3110  146.5510 C   0  0  0  0  0  0  0  0  0  0  0  0
  191.6070  175.3660  147.6950 O   0  0  0  0  0  0  0  0  0  0  0  0
  193.3230  175.9820  146.1960 C   0  0  0  0  0  2  0  0  0  0  0  0
  194.3890  174.9270  145.9440 C   0  0  0  0  0  2  0  0  0  0  0  0
  195.5830  175.5300  145.2220 C   0  0  2  0  0  3  0  0  0  0  0  0
  196.3340  176.4240  143.3370 C   0  0  0  0  0  1  0  0  0  0  0  0
  195.1580  176.1230  144.0300 O   0  0  0  0  0  0  0  0  0  0  0  0
  196.5440  174.4820  144.9210 N   0  0  0  0  0  2  0  0  0  0  0  0
  196.5210  169.8550  146.5460 C   0  0  0  0  0  1  0  0  0  0  0  0
  196.1910  173.0950  144.9040 C   0  0  0  0  0  0  0  0  0  0  0  0
  196.6040  172.2660  145.8380 C   0  0  0  0  0  3  0  0  0  0  0  0
  195.3580  170.7270  144.4530 C   0  0  0  0  0  2  0  0  0  0  0  0
  195.1750  172.3510  143.6270 S   0  0  0  0  0  0  0  0  0  0  0  0
  196.1620  170.9350  145.6440 N   0  0  0  0  0  0  0  0  0  0  0  0
  188.5740  178.2850  142.1150 O   0  0  0  0  0  0  0  0  0  0  0  0
  187.6490  177.9030  141.1040 C   0  0  0  0  0  2  0  0  0  0  0  0
  186.0190  178.0920  142.9820 C   0  0  0  0  0  3  0  0  0  0  0  0
  184.7160  178.2360  143.4720 C   0  0  0  0  0  0  0  0  0  0  0  0
  183.6430  178.3290  142.5790 C   0  0  0  0  0  3  0  0  0  0  0  0
  186.2510  178.0420  141.6040 C   0  0  0  0  0  0  0  0  0  0  0  0
  185.1760  178.1440  140.7120 C   0  0  0  0  0  3  0  0  0  0  0  0
  183.8730  178.2820  141.2000 C   0  0  0  0  0  3  0  0  0  0  0  0
  184.4700  178.3140  144.9410 C   0  0  0  0  0  2  0  0  0  0  0  0
  185.2230  177.2780  145.6370 N   0  0  0  0  0  2  0  0  0  0  0  0
  187.0090  177.4780  147.1260 O   0  0  0  0  0  1  0  0  0  0  0  0
  185.6810  177.8390  146.9010 C   0  0  0  0  0  3  0  0  0  0  0  0
  185.5780  179.2300  146.8570 O   0  0  0  0  0  1  0  0  0  0  0  0
  1  2  1  0  0  0  0
  2  4  2  0  0  0  0
  3  4  1  0  0  0  0
  3 17  1  0  0  0  0
  5  3  2  0  0  0  0
  6  1  2  0  0  0  0
  6  5  1  0  0  0  0
  7  5  1  6  0  0  0
  8 11  1  0  0  0  0
  8 10  1  0  0  0  0
  9  8  2  0  0  0  0
 10  7  1  0  0  0  0
 11  7  1  0  0  0  0
 13 14  1  0  0  0  0
 14 12  2  0  0  0  0
 14  9  1  0  0  0  0
 15 16  2  0  0  0  0
 16 13  1  0  0  0  0
 17 18  1  0  0  0  0
 18 19  2  0  0  0  0
 20 18  1  0  0  0  0
 21 20  1  0  0  0  0
 22 21  1  6  0  0  0
 23 24  1  0  0  0  0
 24 22  1  0  0  0  0
 25 22  1  0  0  0  0
 27 25  1  0  0  0  0
 27 28  2  0  0  0  0
 29 31  1  0  0  0  0
 30 29  1  0  0  0  0
 30 27  1  0  0  0  0
 31 28  1  0  0  0  0
 31 26  1  0  0  0  0
 32  1  1  0  0  0  0
 33 37  1  0  0  0  0
 33 32  1  0  0  0  0
 34 35  1  0  0  0  0
 35 40  1  0  0  0  0
 36 35  2  0  0  0  0
 37 34  2  0  0  0  0
 38 39  2  0  0  0  0
 38 37  1  0  0  0  0
 39 36  1  0  0  0  0
 40 41  1  0  0  0  0
 41 43  1  0  0  0  0
 43 42  1  0  0  0  0
 44 43  1  0  0  0  0
M  END
>  <MODEL>
8

>  <REMARK>
 VINA RESULT:      -6.1      1.871      2.453
  Name = 
  17 active torsions:
  status: ('A' for Active; 'I' for Inactive)
    1  A    between atoms: O_2  and  C_19
    2  A    between atoms: O_3  and  C_9
    3  A    between atoms: O_3  and  C_42
    4  A    between atoms: C_5  and  N_27
    5  A    between atoms: C_6  and  C_8
    6  A    between atoms: C_6  and  C_32
    7  A    between atoms: C_7  and  C_28
    8  A    between atoms: C_8  and  C_13
    9  A    between atoms: C_13  and  C_19
   10  A    between atoms: C_16  and  N_33
   11  A    between atoms: C_17  and  C_20
   12  A    between atoms: C_17  and  N_35
   13  A    between atoms: C_19  and  N_27
   14  A    between atoms: C_24  and  C_32
   15  A    between atoms: N_29  and  C_37
   16  A    between atoms: C_31  and  N_35
   17  A    between atoms: C_36  and  C_42
                            x       y       z     vdW  Elec       q    Type
                         _______ _______ _______ _____ _____    ______ ____

>  <TORSDO>
F 17

$$$$
=
 OpenBabel11042418453D

 44 47  0  0  1  0  0  0  0  0999 V2000
  191.3700  176.4270  142.8730 C   0  0  0  0  0  0  0  0  0  0  0  0
  190.6490  177.6200  142.7960 C   0  0  0  0  0  3  0  0  0  0  0  0
  188.5980  176.3800  142.4200 C   0  0  0  0  0  0  0  0  0  0  0  0
  189.2730  177.5980  142.5660 C   0  0  0  0  0  3  0  0  0  0  0  0
  189.3060  175.1630  142.5280 C   0  0  0  0  0  0  0  0  0  0  0  0
  190.6970  175.2070  142.7340 C   0  0  0  0  0  3  0  0  0  0  0  0
  188.5770  173.8450  142.4010 C   0  0  2  0  0  3  0  0  0  0  0  0
  189.8050  172.0000  141.3560 C   0  0  0  0  0  0  0  0  0  0  0  0
  190.6470  171.1790  140.8110 N   0  0  0  0  0  0  0  0  0  0  0  0
  189.4580  172.4590  143.0920 S   0  0  0  0  0  0  0  0  0  0  0  0
  188.6300  173.2630  140.7290 S   0  0  0  0  0  0  0  0  0  0  0  0
  191.4570  171.8420  138.7120 O   0  0  0  0  0  0  0  0  0  0  0  0
  190.2240  169.8620  138.7740 N   0  0  0  0  0  2  0  0  0  0  0  0
  190.8090  171.0050  139.4000 C   0  0  0  0  0  0  0  0  0  0  0  0
  191.5660  168.7290  136.7920 S   0  0  0  0  0  0  0  0  0  0  0  0
  190.3350  169.6280  137.3720 C   0  0  0  0  0  3  0  0  0  0  0  0
  187.1260  176.4130  142.1550 C   0  0  0  0  0  2  0  0  0  0  0  0
  186.5630  177.7830  142.3600 C   0  0  0  0  0  0  0  0  0  0  0  0
  186.2480  178.4650  141.3960 O   0  0  0  0  0  0  0  0  0  0  0  0
  186.3920  178.3130  143.7470 C   0  0  0  0  0  2  0  0  0  0  0  0
  185.4900  177.3790  144.5380 C   0  0  0  0  0  2  0  0  0  0  0  0
  186.2200  176.8240  145.7510 C   0  0  2  0  0  3  0  0  0  0  0  0
  184.4810  177.9640  146.5180 C   0  0  0  0  0  1  0  0  0  0  0  0
  185.4440  177.0240  146.8950 O   0  0  0  0  0  0  0  0  0  0  0  0
  187.4900  177.5120  145.9050 N   0  0  0  0  0  2  0  0  0  0  0  0
  191.6470  177.2820  148.4960 C   0  0  0  0  0  1  0  0  0  0  0  0
  188.6470  176.8800  146.4610 C   0  0  0  0  0  0  0  0  0  0  0  0
  189.4960  177.5390  147.2190 C   0  0  0  0  0  3  0  0  0  0  0  0
  190.5680  175.3740  147.1980 C   0  0  0  0  0  2  0  0  0  0  0  0
  189.0590  175.1560  146.1850 S   0  0  0  0  0  0  0  0  0  0  0  0
  190.5820  176.7480  147.6670 N   0  0  0  0  0  0  0  0  0  0  0  0
  192.7440  176.4770  143.1040 O   0  0  0  0  0  0  0  0  0  0  0  0
  193.6990  176.1840  142.0910 C   0  0  0  0  0  2  0  0  0  0  0  0
  194.9910  175.0420  143.8920 C   0  0  0  0  0  3  0  0  0  0  0  0
  196.1970  174.6410  144.4780 C   0  0  0  0  0  0  0  0  0  0  0  0
  197.4110  174.9860  143.8760 C   0  0  0  0  0  3  0  0  0  0  0  0
  194.9970  175.7810  142.7060 C   0  0  0  0  0  0  0  0  0  0  0  0
  196.2140  176.1170  142.1000 C   0  0  0  0  0  3  0  0  0  0  0  0
  197.4200  175.7240  142.6870 C   0  0  0  0  0  3  0  0  0  0  0  0
  196.1910  173.8310  145.7310 C   0  0  0  0  0  2  0  0  0  0  0  0
  195.1360  172.8270  145.6810 N   0  0  0  0  0  2  0  0  0  0  0  0
  196.9750  171.4410  146.0550 O   0  0  0  0  0  1  0  0  0  0  0  0
  195.7590  171.5460  145.3800 C   0  0  0  0  0  3  0  0  0  0  0  0
  194.9140  170.5110  145.7800 O   0  0  0  0  0  1  0  0  0  0  0  0
  1 32  1  0  0  0  0
  2  1  1  0  0  0  0
  3  5  2  0  0  0  0
  3  4  1  0  0  0  0
  4  2  2  0  0  0  0
  5  6  1  0  0  0  0
  6  1  2  0  0  0  0
  7  5  1  6  0  0  0
  7 10  1  0  0  0  0
  8 10  1  0  0  0  0
  9  8  2  0  0  0  0
 11  8  1  0  0  0  0
 11  7  1  0  0  0  0
 12 14  2  0  0  0  0
 13 14  1  0  0  0  0
 14  9  1  0  0  0  0
 15 16  2  0  0  0  0
 16 13  1  0  0  0  0
 17 18  1  0  0  0  0
 17  3  1  0  0  0  0
 18 20  1  0  0  0  0
 19 18  2  0  0  0  0
 20 21  1  0  0  0  0
 22 21  1  6  0  0  0
 22 25  1  0  0  0  0
 22 24  1  0  0  0  0
 23 24  1  0  0  0  0
 25 27  1  0  0  0  0
 27 28  2  0  0  0  0
 28 31  1  0  0  0  0
 29 31  1  0  0  0  0
 30 27  1  0  0  0  0
 30 29  1  0  0  0  0
 31 26  1  0  0  0  0
 33 37  1  0  0  0  0
 33 32  1  0  0  0  0
 34 35  1  0  0  0  0
 35 40  1  0  0  0  0
 36 35  2  0  0  0  0
 37 34  2  0  0  0  0
 38 39  2  0  0  0  0
 38 37  1  0  0  0  0
 39 36  1  0  0  0  0
 41 40  1  0  0  0  0
 43 41  1  0  0  0  0
 43 44  1  0  0  0  0
 43 42  1  0  0  0  0
M  END
>  <MODEL>
9

>  <REMARK>
 VINA RESULT:      -6.0      2.620      8.065
  Name = 
  17 active torsions:
  status: ('A' for Active; 'I' for Inactive)
    1  A    between atoms: O_2  and  C_19
    2  A    between atoms: O_3  and  C_9
    3  A    between atoms: O_3  and  C_42
    4  A    between atoms: C_5  and  N_27
    5  A    between atoms: C_6  and  C_8
    6  A    between atoms: C_6  and  C_32
    7  A    between atoms: C_7  and  C_28
    8  A    between atoms: C_8  and  C_13
    9  A    between atoms: C_13  and  C_19
   10  A    between atoms: C_16  and  N_33
   11  A    between atoms: C_17  and  C_20
   12  A    between atoms: C_17  and  N_35
   13  A    between atoms: C_19  and  N_27
   14  A    between atoms: C_24  and  C_32
   15  A    between atoms: N_29  and  C_37
   16  A    between atoms: C_31  and  N_35
   17  A    between atoms: C_36  and  C_42
                            x       y       z     vdW  Elec       q    Type
                         _______ _______ _______ _____ _____    ______ ____

>  <TORSDO>
F 17

$$$$
