=
 OpenBabel11042419163D

 43 50  0  0  1  0  0  0  0  0999 V2000
  185.2750  178.0360  146.7840 C   0  0  0  0  0  0  0  0  0  0  0  0
  189.0050  175.3540  144.6500 C   0  0  0  0  0  0  0  0  0  0  0  0
  188.4370  175.2180  141.8980 C   0  0  0  0  0  0  0  0  0  0  0  0
  187.2740  176.7250  146.3910 C   0  0  0  0  0  0  0  0  0  0  0  0
  184.9770  178.0010  145.4200 C   0  0  0  0  0  3  0  0  0  0  0  0
  184.4300  178.7030  147.6590 O   0  0  0  0  0  1  0  0  0  0  0  0
  186.9800  176.6820  145.0050 C   0  0  0  0  0  0  0  0  0  0  0  0
  186.4200  177.4000  147.2680 C   0  0  0  0  0  3  0  0  0  0  0  0
  185.8230  177.3290  144.5350 C   0  0  0  0  0  3  0  0  0  0  0  0
  187.5810  175.9140  142.7580 C   0  0  0  0  0  3  0  0  0  0  0  0
  187.8470  175.9910  144.1330 C   0  0  0  0  0  0  0  0  0  0  0  0
  189.2730  175.4140  146.0250 C   0  0  0  0  0  3  0  0  0  0  0  0
  189.8790  174.6670  143.7900 C   0  0  0  0  0  0  0  0  0  0  0  0
  189.5770  174.5990  142.4220 C   0  0  0  0  0  3  0  0  0  0  0  0
  188.4130  176.0930  146.8870 C   0  0  0  0  0  3  0  0  0  0  0  0
  188.1360  175.1310  140.4590 C   0  0  0  0  0  0  0  0  0  0  0  0
  188.6140  174.0120  139.6980 N   0  0  0  0  0  2  0  0  0  0  0  0
  187.4630  176.0410  139.9020 O   0  0  0  0  0  0  0  0  0  0  0  0
  188.4290  173.8320  138.2900 C   0  0  0  0  0  0  0  0  0  0  0  0
  187.8240  174.6940  137.5960 O   0  0  0  0  0  0  0  0  0  0  0  0
  188.9410  172.5950  137.6420 C   0  0  0  0  0  2  0  0  0  0  0  0
  189.9270  172.9420  136.6270 N   0  0  0  0  0  0  0  0  0  0  0  0
  191.8440  171.3870  136.4390 C   0  0  0  0  0  2  0  0  0  0  0  0
  191.7860  173.2670  138.3380 C   0  0  2  0  0  3  0  0  0  0  0  0
  189.6980  172.0310  135.5070 C   0  0  0  0  0  2  0  0  0  0  0  0
  191.2440  172.5790  137.1330 C   0  0  2  0  0  0  0  0  0  0  0  0
  192.1140  173.6800  137.0310 O   0  0  0  0  0  0  0  0  0  0  0  0
  190.9820  171.2600  135.2090 C   0  0  0  0  0  2  0  0  0  0  0  0
  192.9000  172.5140  138.9130 N   0  0  0  0  0  0  0  0  0  0  0  0
  193.7770  174.5520  140.0890 C   0  0  0  0  0  2  0  0  0  0  0  0
  193.4960  172.3740  141.2430 C   0  0  0  0  0  3  0  0  0  0  0  0
  194.4830  173.3000  140.5700 C   0  0  1  0  0  3  0  0  0  0  0  0
  192.4750  171.9780  140.2010 C   0  0  0  0  0  3  0  0  0  0  0  0
  194.0540  173.4050  139.1200 C   0  0  1  0  0  3  0  0  0  0  0  0
  191.0170  174.0340  144.3260 O   0  0  0  0  0  0  0  0  0  0  0  0
  194.0450  176.0410  143.4740 C   0  0  0  0  0  3  0  0  0  0  0  0
  195.0480  175.2040  143.9740 C   0  0  0  0  0  0  0  0  0  0  0  0
  193.3620  173.6130  144.6780 C   0  0  0  0  0  3  0  0  0  0  0  0
  192.7050  175.6630  143.5790 C   0  0  0  0  0  3  0  0  0  0  0  0
  192.3520  174.4410  144.1750 C   0  0  0  0  0  0  0  0  0  0  0  0
  194.7050  173.9880  144.5720 C   0  0  0  0  0  3  0  0  0  0  0  0
  196.5660  176.9460  143.5120 O   0  0  0  0  0  1  0  0  0  0  0  0
  196.4770  175.5950  143.8440 C   0  0  0  0  0  2  0  0  0  0  0  0
  1  8  1  0  0  0  0
  1  6  1  0  0  0  0
  2 12  1  0  0  0  0
  3 14  2  0  0  0  0
  3 10  1  0  0  0  0
  4 15  1  0  0  0  0
  4  8  2  0  0  0  0
  5  1  2  0  0  0  0
  7  4  1  0  0  0  0
  9  7  2  0  0  0  0
  9  5  1  0  0  0  0
 10 11  2  0  0  0  0
 11  2  1  0  0  0  0
 11  7  1  0  0  0  0
 12 15  2  0  0  0  0
 13 35  1  0  0  0  0
 13  2  2  0  0  0  0
 14 13  1  0  0  0  0
 16  3  1  0  0  0  0
 17 16  1  0  0  0  0
 18 16  2  0  0  0  0
 19 17  1  0  0  0  0
 20 19  2  0  0  0  0
 21 19  1  0  0  0  0
 22 26  1  0  0  0  0
 22 21  1  0  0  0  0
 24 29  1  1  0  0  0
 25 22  1  0  0  0  0
 26 23  1  6  0  0  0
 26 24  1  0  0  0  0
 27 26  1  0  0  0  0
 27 24  1  0  0  0  0
 28 25  1  0  0  0  0
 28 23  1  0  0  0  0
 29 34  1  0  0  0  0
 29 33  1  0  0  0  0
 32 30  1  1  0  0  0
 32 31  1  0  0  0  0
 33 31  2  0  0  0  0
 34 30  1  1  0  0  0
 34 32  1  0  0  0  0
 36 39  2  0  0  0  0
 36 37  1  0  0  0  0
 37 41  2  0  0  0  0
 39 40  1  0  0  0  0
 40 35  1  0  0  0  0
 40 38  2  0  0  0  0
 41 38  1  0  0  0  0
 42 43  1  0  0  0  0
 43 37  1  0  0  0  0
M  END
>  <MODEL>
1

>  <REMARK>
 VINA RESULT:      -7.9      0.000      0.000
  Name = 
  7 active torsions:
  status: ('A' for Active; 'I' for Inactive)
    1  A    between atoms: O_1  and  C_34
    2  A    between atoms: O_1  and  C_35
    3  A    between atoms: C_2  and  C_13
    4  A    between atoms: C_3  and  N_4
    5  A    between atoms: C_3  and  C_12
    6  A    between atoms: N_11  and  C_14
    7  A    between atoms: C_19  and  C_37
                            x       y       z     vdW  Elec       q    Type
                         _______ _______ _______ _____ _____    ______ ____

>  <TORSDO>
F 7

$$$$
=
 OpenBabel11042419163D

 43 50  0  0  1  0  0  0  0  0999 V2000
  184.8140  178.4000  144.2960 C   0  0  0  0  0  0  0  0  0  0  0  0
  189.1140  175.8080  144.9660 C   0  0  0  0  0  0  0  0  0  0  0  0
  189.5510  174.3370  142.6070 C   0  0  0  0  0  0  0  0  0  0  0  0
  186.8520  177.4610  145.2080 C   0  0  0  0  0  0  0  0  0  0  0  0
  185.0140  177.6970  143.1070 C   0  0  0  0  0  3  0  0  0  0  0  0
  183.7010  179.2170  144.4370 O   0  0  0  0  0  1  0  0  0  0  0  0
  187.0640  176.7410  144.0060 C   0  0  0  0  0  0  0  0  0  0  0  0
  185.7300  178.2830  145.3440 C   0  0  0  0  0  3  0  0  0  0  0  0
  186.1320  176.8710  142.9610 C   0  0  0  0  0  3  0  0  0  0  0  0
  188.4330  175.1690  142.7180 C   0  0  0  0  0  3  0  0  0  0  0  0
  188.1970  175.9090  143.8860 C   0  0  0  0  0  0  0  0  0  0  0  0
  188.8810  176.5330  146.1420 C   0  0  0  0  0  3  0  0  0  0  0  0
  190.2500  174.9870  144.8550 C   0  0  0  0  0  0  0  0  0  0  0  0
  190.4490  174.2520  143.6780 C   0  0  0  0  0  3  0  0  0  0  0  0
  187.7580  177.3520  146.2620 C   0  0  0  0  0  3  0  0  0  0  0  0
  189.7770  173.5530  141.3810 C   0  0  0  0  0  0  0  0  0  0  0  0
  191.0480  173.6170  140.7190 N   0  0  0  0  0  2  0  0  0  0  0  0
  188.8520  172.8310  140.9180 O   0  0  0  0  0  0  0  0  0  0  0  0
  191.3810  172.9420  139.5010 C   0  0  0  0  0  0  0  0  0  0  0  0
  190.5320  172.2320  138.8970 O   0  0  0  0  0  0  0  0  0  0  0  0
  192.7590  173.0630  138.9550 C   0  0  0  0  0  2  0  0  0  0  0  0
  193.0420  174.4570  138.6380 N   0  0  0  0  0  0  0  0  0  0  0  0
  195.2700  174.8850  137.6490 C   0  0  0  0  0  2  0  0  0  0  0  0
  194.9770  174.5900  140.2890 C   0  0  2  0  0  3  0  0  0  0  0  0
  192.9080  174.5810  137.1880 C   0  0  0  0  0  2  0  0  0  0  0  0
  194.4540  174.7030  138.8990 C   0  0  2  0  0  0  0  0  0  0  0  0
  194.5960  175.8270  139.7320 O   0  0  0  0  0  0  0  0  0  0  0  0
  194.2110  175.1170  136.6010 C   0  0  0  0  0  2  0  0  0  0  0  0
  196.4350  174.4760  140.2920 N   0  0  0  0  0  0  0  0  0  0  0  0
  196.6140  175.7730  142.4340 C   0  0  0  0  0  2  0  0  0  0  0  0
  197.8130  173.6300  142.0770 C   0  0  0  0  0  3  0  0  0  0  0  0
  197.9410  175.1360  142.0700 C   0  0  1  0  0  3  0  0  0  0  0  0
  196.7990  173.2640  141.0170 C   0  0  0  0  0  3  0  0  0  0  0  0
  197.0280  175.6400  140.9700 C   0  0  1  0  0  3  0  0  0  0  0  0
  191.1400  174.8940  145.9410 O   0  0  0  0  0  0  0  0  0  0  0  0
  194.8020  175.5800  146.1570 C   0  0  0  0  0  3  0  0  0  0  0  0
  195.3130  174.3390  145.7620 C   0  0  0  0  0  0  0  0  0  0  0  0
  193.0550  173.5060  145.4840 C   0  0  0  0  0  3  0  0  0  0  0  0
  193.4210  175.7800  146.2160 C   0  0  0  0  0  3  0  0  0  0  0  0
  192.5350  174.7460  145.8720 C   0  0  0  0  0  0  0  0  0  0  0  0
  194.4380  173.3040  145.4210 C   0  0  0  0  0  3  0  0  0  0  0  0
  197.1600  173.1000  146.5380 O   0  0  0  0  0  1  0  0  0  0  0  0
  196.7830  174.1310  145.6790 C   0  0  0  0  0  2  0  0  0  0  0  0
  1  6  1  0  0  0  0
  1  8  1  0  0  0  0
  2 12  1  0  0  0  0
  3 10  2  0  0  0  0
  3 14  1  0  0  0  0
  4  8  2  0  0  0  0
  4 15  1  0  0  0  0
  5  1  2  0  0  0  0
  7  4  1  0  0  0  0
  9  5  1  0  0  0  0
  9  7  2  0  0  0  0
 10 11  1  0  0  0  0
 11  7  1  0  0  0  0
 11  2  2  0  0  0  0
 12 15  2  0  0  0  0
 13  2  1  0  0  0  0
 13 35  1  0  0  0  0
 14 13  2  0  0  0  0
 16  3  1  0  0  0  0
 17 16  1  0  0  0  0
 18 16  2  0  0  0  0
 19 17  1  0  0  0  0
 20 19  2  0  0  0  0
 21 19  1  0  0  0  0
 22 26  1  0  0  0  0
 22 21  1  0  0  0  0
 24 29  1  6  0  0  0
 25 22  1  0  0  0  0
 26 23  1  6  0  0  0
 26 27  1  0  0  0  0
 26 24  1  0  0  0  0
 27 24  1  0  0  0  0
 28 25  1  0  0  0  0
 28 23  1  0  0  0  0
 29 34  1  0  0  0  0
 29 33  1  0  0  0  0
 32 31  1  6  0  0  0
 32 30  1  0  0  0  0
 33 31  2  0  0  0  0
 34 32  1  0  0  0  0
 34 30  1  1  0  0  0
 36 39  1  0  0  0  0
 37 36  2  0  0  0  0
 38 40  1  0  0  0  0
 40 35  1  0  0  0  0
 40 39  2  0  0  0  0
 41 38  2  0  0  0  0
 41 37  1  0  0  0  0
 43 37  1  0  0  0  0
 43 42  1  0  0  0  0
M  END
>  <MODEL>
2

>  <REMARK>
 VINA RESULT:      -7.8      2.321      3.136
  Name = 
  7 active torsions:
  status: ('A' for Active; 'I' for Inactive)
    1  A    between atoms: O_1  and  C_34
    2  A    between atoms: O_1  and  C_35
    3  A    between atoms: C_2  and  C_13
    4  A    between atoms: C_3  and  N_4
    5  A    between atoms: C_3  and  C_12
    6  A    between atoms: N_11  and  C_14
    7  A    between atoms: C_19  and  C_37
                            x       y       z     vdW  Elec       q    Type
                         _______ _______ _______ _____ _____    ______ ____

>  <TORSDO>
F 7

$$$$
=
 OpenBabel11042419163D

 43 50  0  0  1  0  0  0  0  0999 V2000
  196.0220  174.3940  144.8970 C   0  0  0  0  0  0  0  0  0  0  0  0
  191.0910  175.4460  145.3850 C   0  0  0  0  0  0  0  0  0  0  0  0
  189.7930  174.3060  143.1630 C   0  0  0  0  0  0  0  0  0  0  0  0
  193.8770  175.2020  145.6800 C   0  0  0  0  0  0  0  0  0  0  0  0
  195.4040  173.8020  143.7940 C   0  0  0  0  0  3  0  0  0  0  0  0
  197.3970  174.2890  145.0580 O   0  0  0  0  0  1  0  0  0  0  0  0
  193.2390  174.6070  144.5640 C   0  0  0  0  0  0  0  0  0  0  0  0
  195.2610  175.0920  145.8380 C   0  0  0  0  0  3  0  0  0  0  0  0
  194.0200  173.9070  143.6260 C   0  0  0  0  0  3  0  0  0  0  0  0
  191.1770  174.1700  143.3140 C   0  0  0  0  0  3  0  0  0  0  0  0
  191.8420  174.7330  144.4130 C   0  0  0  0  0  0  0  0  0  0  0  0
  191.7480  176.0230  146.4800 C   0  0  0  0  0  3  0  0  0  0  0  0
  189.6970  175.5730  145.2490 C   0  0  0  0  0  0  0  0  0  0  0  0
  189.0660  175.0080  144.1310 C   0  0  0  0  0  3  0  0  0  0  0  0
  193.1290  175.9020  146.6250 C   0  0  0  0  0  3  0  0  0  0  0  0
  189.1110  173.7250  141.9950 C   0  0  0  0  0  0  0  0  0  0  0  0
  189.8850  173.1830  140.9150 N   0  0  0  0  0  2  0  0  0  0  0  0
  187.8500  173.7080  141.9480 O   0  0  0  0  0  0  0  0  0  0  0  0
  189.3460  172.6310  139.7090 C   0  0  0  0  0  0  0  0  0  0  0  0
  188.1030  172.6030  139.5030 O   0  0  0  0  0  0  0  0  0  0  0  0
  190.2720  172.0600  138.6940 C   0  0  0  0  0  2  0  0  0  0  0  0
  190.4600  173.0130  137.6070 N   0  0  0  0  0  0  0  0  0  0  0  0
  192.4780  172.6520  136.2210 C   0  0  0  0  0  2  0  0  0  0  0  0
  192.6400  173.9060  138.5750 C   0  0  2  0  0  3  0  0  0  0  0  0
  190.0810  172.3140  136.3810 C   0  0  0  0  0  2  0  0  0  0  0  0
  191.8880  173.2600  137.4640 C   0  0  2  0  0  0  0  0  0  0  0  0
  192.1380  174.6440  137.4850 O   0  0  0  0  0  0  0  0  0  0  0  0
  191.2530  172.3330  135.4030 C   0  0  0  0  0  2  0  0  0  0  0  0
  194.0800  173.7080  138.4180 N   0  0  0  0  0  0  0  0  0  0  0  0
  194.5930  175.4470  140.1550 C   0  0  0  0  0  2  0  0  0  0  0  0
  195.6680  173.2120  140.1600 C   0  0  0  0  0  3  0  0  0  0  0  0
  195.8370  174.6660  139.7830 C   0  0  1  0  0  3  0  0  0  0  0  0
  194.5070  172.6750  139.3540 C   0  0  0  0  0  3  0  0  0  0  0  0
  194.7950  174.9590  138.7220 C   0  0  1  0  0  3  0  0  0  0  0  0
  188.9740  176.2930  146.2180 O   0  0  0  0  0  0  0  0  0  0  0  0
  185.4140  177.3050  146.6950 C   0  0  0  0  0  3  0  0  0  0  0  0
  185.2780  178.2370  145.6610 C   0  0  0  0  0  0  0  0  0  0  0  0
  187.5810  177.8490  145.0170 C   0  0  0  0  0  3  0  0  0  0  0  0
  186.6320  176.6490  146.8880 C   0  0  0  0  0  3  0  0  0  0  0  0
  187.7250  176.9100  146.0450 C   0  0  0  0  0  0  0  0  0  0  0  0
  186.3620  178.5050  144.8200 C   0  0  0  0  0  3  0  0  0  0  0  0
  183.7010  178.9770  144.0760 O   0  0  0  0  0  1  0  0  0  0  0  0
  183.9760  178.9210  145.4410 C   0  0  0  0  0  2  0  0  0  0  0  0
  1  6  1  0  0  0  0
  1  8  1  0  0  0  0
  2 12  1  0  0  0  0
  3 10  2  0  0  0  0
  3 14  1  0  0  0  0
  4  8  2  0  0  0  0
  4 15  1  0  0  0  0
  5  1  2  0  0  0  0
  7  4  1  0  0  0  0
  9  5  1  0  0  0  0
  9  7  2  0  0  0  0
 10 11  1  0  0  0  0
 11  7  1  0  0  0  0
 11  2  2  0  0  0  0
 12 15  2  0  0  0  0
 13  2  1  0  0  0  0
 13 35  1  0  0  0  0
 14 13  2  0  0  0  0
 16  3  1  0  0  0  0
 17 16  1  0  0  0  0
 18 16  2  0  0  0  0
 19 17  1  0  0  0  0
 20 19  2  0  0  0  0
 21 19  1  0  0  0  0
 22 21  1  0  0  0  0
 24 29  1  6  0  0  0
 25 22  1  0  0  0  0
 26 23  1  6  0  0  0
 26 27  1  0  0  0  0
 26 22  1  0  0  0  0
 26 24  1  0  0  0  0
 27 24  1  0  0  0  0
 28 23  1  0  0  0  0
 28 25  1  0  0  0  0
 29 34  1  0  0  0  0
 29 33  1  0  0  0  0
 32 30  1  1  0  0  0
 32 31  1  0  0  0  0
 33 31  2  0  0  0  0
 34 32  1  0  0  0  0
 34 30  1  1  0  0  0
 36 39  1  0  0  0  0
 37 36  2  0  0  0  0
 38 40  1  0  0  0  0
 40 35  1  0  0  0  0
 40 39  2  0  0  0  0
 41 38  2  0  0  0  0
 41 37  1  0  0  0  0
 42 43  1  0  0  0  0
 43 37  1  0  0  0  0
M  END
>  <MODEL>
3

>  <REMARK>
 VINA RESULT:      -7.7      1.754      6.147
  Name = 
  7 active torsions:
  status: ('A' for Active; 'I' for Inactive)
    1  A    between atoms: O_1  and  C_34
    2  A    between atoms: O_1  and  C_35
    3  A    between atoms: C_2  and  C_13
    4  A    between atoms: C_3  and  N_4
    5  A    between atoms: C_3  and  C_12
    6  A    between atoms: N_11  and  C_14
    7  A    between atoms: C_19  and  C_37
                            x       y       z     vdW  Elec       q    Type
                         _______ _______ _______ _____ _____    ______ ____

>  <TORSDO>
F 7

$$$$
=
 OpenBabel11042419163D

 43 50  0  0  1  0  0  0  0  0999 V2000
  196.3080  170.4000  144.7680 C   0  0  0  0  0  0  0  0  0  0  0  0
  191.7700  171.9770  143.1600 C   0  0  0  0  0  0  0  0  0  0  0  0
  191.0400  174.1490  144.7930 C   0  0  0  0  0  0  0  0  0  0  0  0
  194.2180  170.6540  143.5700 C   0  0  0  0  0  0  0  0  0  0  0  0
  195.9810  171.4870  145.5820 C   0  0  0  0  0  3  0  0  0  0  0  0
  197.5090  169.7310  144.9580 O   0  0  0  0  0  1  0  0  0  0  0  0
  193.8750  171.7570  144.3910 C   0  0  0  0  0  0  0  0  0  0  0  0
  195.4290  169.9850  143.7650 C   0  0  0  0  0  3  0  0  0  0  0  0
  194.7720  172.1620  145.3960 C   0  0  0  0  0  3  0  0  0  0  0  0
  192.2650  173.5040  144.9900 C   0  0  0  0  0  3  0  0  0  0  0  0
  192.6450  172.4180  144.1880 C   0  0  0  0  0  0  0  0  0  0  0  0
  192.1360  170.8850  142.3620 C   0  0  0  0  0  3  0  0  0  0  0  0
  190.5450  172.6320  142.9450 C   0  0  0  0  0  0  0  0  0  0  0  0
  190.1900  173.7060  143.7730 C   0  0  0  0  0  3  0  0  0  0  0  0
  193.3490  170.2280  142.5660 C   0  0  0  0  0  3  0  0  0  0  0  0
  190.6460  175.2770  145.6530 C   0  0  0  0  0  0  0  0  0  0  0  0
  189.2670  175.4580  146.0050 N   0  0  0  0  0  2  0  0  0  0  0  0
  191.5220  176.0810  146.0760 O   0  0  0  0  0  0  0  0  0  0  0  0
  188.7490  176.5330  146.7940 C   0  0  0  0  0  0  0  0  0  0  0  0
  189.5050  177.4420  147.2340 O   0  0  0  0  0  0  0  0  0  0  0  0
  187.2970  176.5650  147.1190 C   0  0  0  0  0  2  0  0  0  0  0  0
  186.7560  177.8860  146.8280 N   0  0  0  0  0  0  0  0  0  0  0  0
  184.7800  177.9140  145.3380 C   0  0  0  0  0  2  0  0  0  0  0  0
  187.2480  177.6970  144.3350 C   0  0  2  0  0  3  0  0  0  0  0  0
  185.5470  178.0180  147.6370 C   0  0  0  0  0  2  0  0  0  0  0  0
  186.2800  177.8860  145.4510 C   0  0  2  0  0  0  0  0  0  0  0  0
  186.8320  178.9760  144.7560 O   0  0  0  0  0  0  0  0  0  0  0  0
  184.3570  178.3150  146.7280 C   0  0  0  0  0  2  0  0  0  0  0  0
  186.5580  177.3330  143.0990 N   0  0  0  0  0  0  0  0  0  0  0  0
  188.4040  178.2860  141.6900 C   0  0  0  0  0  2  0  0  0  0  0  0
  187.4490  176.0340  141.2770 C   0  0  0  0  0  3  0  0  0  0  0  0
  187.4350  177.4830  140.8460 C   0  0  1  0  0  3  0  0  0  0  0  0
  186.9820  175.9920  142.7140 C   0  0  0  0  0  3  0  0  0  0  0  0
  186.9150  178.2780  142.0280 C   0  0  1  0  0  3  0  0  0  0  0  0
  189.6880  172.1710  141.9270 O   0  0  0  0  0  0  0  0  0  0  0  0
  190.5760  173.5750  138.5850 C   0  0  0  0  0  3  0  0  0  0  0  0
  189.3130  173.6110  137.9860 C   0  0  0  0  0  0  0  0  0  0  0  0
  188.3330  172.7090  140.0100 C   0  0  0  0  0  3  0  0  0  0  0  0
  190.7150  173.1050  139.8930 C   0  0  0  0  0  3  0  0  0  0  0  0
  189.5920  172.6750  140.6200 C   0  0  0  0  0  0  0  0  0  0  0  0
  188.1910  173.1820  138.7010 C   0  0  0  0  0  3  0  0  0  0  0  0
  190.3820  174.6310  136.1500 O   0  0  0  0  0  1  0  0  0  0  0  0
  189.1610  174.1310  136.6010 C   0  0  0  0  0  2  0  0  0  0  0  0
  1  6  1  0  0  0  0
  1  5  1  0  0  0  0
  2 11  1  0  0  0  0
  3 10  1  0  0  0  0
  3 16  1  0  0  0  0
  4  8  1  0  0  0  0
  4  7  2  0  0  0  0
  7  9  1  0  0  0  0
  8  1  2  0  0  0  0
  9  5  2  0  0  0  0
 11  7  1  0  0  0  0
 11 10  2  0  0  0  0
 12 15  2  0  0  0  0
 12  2  1  0  0  0  0
 13  2  2  0  0  0  0
 13 14  1  0  0  0  0
 14  3  2  0  0  0  0
 15  4  1  0  0  0  0
 16 17  1  0  0  0  0
 16 18  2  0  0  0  0
 17 19  1  0  0  0  0
 19 21  1  0  0  0  0
 19 20  2  0  0  0  0
 22 21  1  0  0  0  0
 22 25  1  0  0  0  0
 23 28  1  0  0  0  0
 24 29  1  6  0  0  0
 24 27  1  0  0  0  0
 24 26  1  0  0  0  0
 26 23  1  6  0  0  0
 26 22  1  0  0  0  0
 27 26  1  0  0  0  0
 28 25  1  0  0  0  0
 31 33  2  0  0  0  0
 32 31  1  1  0  0  0
 32 30  1  0  0  0  0
 32 34  1  0  0  0  0
 33 29  1  0  0  0  0
 34 30  1  1  0  0  0
 34 29  1  0  0  0  0
 35 13  1  0  0  0  0
 36 39  1  0  0  0  0
 37 36  2  0  0  0  0
 37 41  1  0  0  0  0
 38 40  1  0  0  0  0
 39 40  2  0  0  0  0
 40 35  1  0  0  0  0
 41 38  2  0  0  0  0
 42 43  1  0  0  0  0
 43 37  1  0  0  0  0
M  END
>  <MODEL>
4

>  <REMARK>
 VINA RESULT:      -7.5      3.144      9.171
  Name = 
  7 active torsions:
  status: ('A' for Active; 'I' for Inactive)
    1  A    between atoms: O_1  and  C_34
    2  A    between atoms: O_1  and  C_35
    3  A    between atoms: C_2  and  C_13
    4  A    between atoms: C_3  and  N_4
    5  A    between atoms: C_3  and  C_12
    6  A    between atoms: N_11  and  C_14
    7  A    between atoms: C_19  and  C_37
                            x       y       z     vdW  Elec       q    Type
                         _______ _______ _______ _____ _____    ______ ____

>  <TORSDO>
F 7

$$$$
=
 OpenBabel11042419163D

 43 50  0  0  1  0  0  0  0  0999 V2000
  185.0930  178.0670  146.5990 C   0  0  0  0  0  0  0  0  0  0  0  0
  188.4380  175.9000  143.4720 C   0  0  0  0  0  0  0  0  0  0  0  0
  190.9320  175.9690  144.7750 C   0  0  0  0  0  0  0  0  0  0  0  0
  186.1560  176.9720  144.7170 C   0  0  0  0  0  0  0  0  0  0  0  0
  186.3130  178.0980  147.2780 C   0  0  0  0  0  3  0  0  0  0  0  0
  183.9570  178.5950  147.1940 O   0  0  0  0  0  1  0  0  0  0  0  0
  187.4000  177.0010  145.3960 C   0  0  0  0  0  0  0  0  0  0  0  0
  185.0150  177.5050  145.3220 C   0  0  0  0  0  3  0  0  0  0  0  0
  187.4610  177.5690  146.6810 C   0  0  0  0  0  3  0  0  0  0  0  0
  189.7960  176.4900  145.4040 C   0  0  0  0  0  3  0  0  0  0  0  0
  188.5450  176.4660  144.7690 C   0  0  0  0  0  0  0  0  0  0  0  0
  187.1960  175.8840  142.8240 C   0  0  0  0  0  3  0  0  0  0  0  0
  189.5720  175.3590  142.8400 C   0  0  0  0  0  0  0  0  0  0  0  0
  190.8100  175.4100  143.4980 C   0  0  0  0  0  3  0  0  0  0  0  0
  186.0650  176.4170  143.4420 C   0  0  0  0  0  3  0  0  0  0  0  0
  192.2410  176.0160  145.4460 C   0  0  0  0  0  0  0  0  0  0  0  0
  193.4180  175.5890  144.7440 N   0  0  0  0  0  2  0  0  0  0  0  0
  192.3230  176.4290  146.6360 O   0  0  0  0  0  0  0  0  0  0  0  0
  194.7380  175.5430  145.2940 C   0  0  0  0  0  0  0  0  0  0  0  0
  194.9570  175.8720  146.4920 O   0  0  0  0  0  0  0  0  0  0  0  0
  195.8730  175.1220  144.4300 C   0  0  0  0  0  2  0  0  0  0  0  0
  195.7510  173.7040  144.1140 N   0  0  0  0  0  0  0  0  0  0  0  0
  197.8110  172.6320  143.2580 C   0  0  0  0  0  2  0  0  0  0  0  0
  196.2400  174.0660  141.6400 C   0  0  2  0  0  3  0  0  0  0  0  0
  196.4070  172.9860  145.2050 C   0  0  0  0  0  2  0  0  0  0  0  0
  196.5750  173.4290  142.9440 C   0  0  2  0  0  0  0  0  0  0  0  0
  195.8110  172.7640  141.9690 O   0  0  0  0  0  0  0  0  0  0  0  0
  197.5130  172.1000  144.6370 C   0  0  0  0  0  2  0  0  0  0  0  0
  197.3720  173.9960  140.7180 N   0  0  0  0  0  0  0  0  0  0  0  0
  195.8670  174.2360  138.7220 C   0  0  0  0  0  2  0  0  0  0  0  0
  197.9310  175.5850  138.9960 C   0  0  0  0  0  3  0  0  0  0  0  0
  197.3240  174.3740  138.3250 C   0  0  1  0  0  3  0  0  0  0  0  0
  197.8610  175.3510  140.4880 C   0  0  0  0  0  3  0  0  0  0  0  0
  196.9400  173.4150  139.4350 C   0  0  1  0  0  3  0  0  0  0  0  0
  189.4450  174.8130  141.5490 O   0  0  0  0  0  0  0  0  0  0  0  0
  191.1630  172.1750  139.5440 C   0  0  0  0  0  3  0  0  0  0  0  0
  190.9280  171.0560  140.3500 C   0  0  0  0  0  0  0  0  0  0  0  0
  189.7110  172.4470  141.9160 C   0  0  0  0  0  3  0  0  0  0  0  0
  190.6730  173.4250  139.9270 C   0  0  0  0  0  3  0  0  0  0  0  0
  189.9350  173.5710  141.1130 C   0  0  0  0  0  0  0  0  0  0  0  0
  190.1980  171.1930  141.5340 C   0  0  0  0  0  3  0  0  0  0  0  0
  190.6840  168.7220  140.5570 O   0  0  0  0  0  1  0  0  0  0  0  0
  191.4310  169.7200  139.9330 C   0  0  0  0  0  2  0  0  0  0  0  0
  1  6  1  0  0  0  0
  1  5  1  0  0  0  0
  2 11  1  0  0  0  0
  3 10  1  0  0  0  0
  3 16  1  0  0  0  0
  4  8  1  0  0  0  0
  4  7  2  0  0  0  0
  7  9  1  0  0  0  0
  8  1  2  0  0  0  0
  9  5  2  0  0  0  0
 11  7  1  0  0  0  0
 11 10  2  0  0  0  0
 12 15  2  0  0  0  0
 12  2  1  0  0  0  0
 13  2  2  0  0  0  0
 13 14  1  0  0  0  0
 14  3  2  0  0  0  0
 15  4  1  0  0  0  0
 16 18  2  0  0  0  0
 17 19  1  0  0  0  0
 17 16  1  0  0  0  0
 19 20  2  0  0  0  0
 21 19  1  0  0  0  0
 22 21  1  0  0  0  0
 22 25  1  0  0  0  0
 23 28  1  0  0  0  0
 24 29  1  6  0  0  0
 24 27  1  0  0  0  0
 24 26  1  0  0  0  0
 26 23  1  1  0  0  0
 26 22  1  0  0  0  0
 27 26  1  0  0  0  0
 28 25  1  0  0  0  0
 31 33  2  0  0  0  0
 32 30  1  1  0  0  0
 32 31  1  0  0  0  0
 32 34  1  0  0  0  0
 33 29  1  0  0  0  0
 34 30  1  1  0  0  0
 34 29  1  0  0  0  0
 35 13  1  0  0  0  0
 36 39  2  0  0  0  0
 36 37  1  0  0  0  0
 37 41  2  0  0  0  0
 39 40  1  0  0  0  0
 40 35  1  0  0  0  0
 40 38  2  0  0  0  0
 41 38  1  0  0  0  0
 43 37  1  0  0  0  0
 43 42  1  0  0  0  0
M  END
>  <MODEL>
5

>  <REMARK>
 VINA RESULT:      -7.5      2.939      6.228
  Name = 
  7 active torsions:
  status: ('A' for Active; 'I' for Inactive)
    1  A    between atoms: O_1  and  C_34
    2  A    between atoms: O_1  and  C_35
    3  A    between atoms: C_2  and  C_13
    4  A    between atoms: C_3  and  N_4
    5  A    between atoms: C_3  and  C_12
    6  A    between atoms: N_11  and  C_14
    7  A    between atoms: C_19  and  C_37
                            x       y       z     vdW  Elec       q    Type
                         _______ _______ _______ _____ _____    ______ ____

>  <TORSDO>
F 7

$$$$
=
 OpenBabel11042419163D

 43 50  0  0  1  0  0  0  0  0999 V2000
  190.6520  175.4980  147.1960 C   0  0  0  0  0  0  0  0  0  0  0  0
  188.1090  176.9100  143.0480 C   0  0  0  0  0  0  0  0  0  0  0  0
  188.6420  174.9780  141.0720 C   0  0  0  0  0  0  0  0  0  0  0  0
  189.2560  176.6770  145.6050 C   0  0  0  0  0  0  0  0  0  0  0  0
  190.9190  174.5140  146.2410 C   0  0  0  0  0  3  0  0  0  0  0  0
  191.2120  175.4040  148.4620 O   0  0  0  0  0  1  0  0  0  0  0  0
  189.5220  175.6860  144.6280 C   0  0  0  0  0  0  0  0  0  0  0  0
  189.8220  176.5760  146.8790 C   0  0  0  0  0  3  0  0  0  0  0  0
  190.3590  174.6060  144.9650 C   0  0  0  0  0  3  0  0  0  0  0  0
  189.2020  174.8510  142.3470 C   0  0  0  0  0  3  0  0  0  0  0  0
  188.9500  175.8050  143.3440 C   0  0  0  0  0  0  0  0  0  0  0  0
  187.8610  177.8740  144.0330 C   0  0  0  0  0  3  0  0  0  0  0  0
  187.5280  177.0350  141.7740 C   0  0  0  0  0  0  0  0  0  0  0  0
  187.8110  176.0700  140.7960 C   0  0  0  0  0  3  0  0  0  0  0  0
  188.4310  177.7590  145.3010 C   0  0  0  0  0  3  0  0  0  0  0  0
  188.9290  173.9780  140.0300 C   0  0  0  0  0  0  0  0  0  0  0  0
  190.2610  173.4670  139.8800 N   0  0  0  0  0  2  0  0  0  0  0  0
  188.0020  173.5770  139.2720 O   0  0  0  0  0  0  0  0  0  0  0  0
  190.6790  172.5300  138.8820 C   0  0  0  0  0  0  0  0  0  0  0  0
  189.8690  172.0890  138.0220 O   0  0  0  0  0  0  0  0  0  0  0  0
  192.0880  172.0520  138.8780 C   0  0  0  0  0  2  0  0  0  0  0  0
  192.9440  173.0510  138.2510 N   0  0  0  0  0  0  0  0  0  0  0  0
  195.2730  173.1210  139.0890 C   0  0  0  0  0  2  0  0  0  0  0  0
  193.2980  174.3230  140.4300 C   0  0  2  0  0  3  0  0  0  0  0  0
  193.8100  172.3230  137.3260 C   0  0  0  0  0  2  0  0  0  0  0  0
  193.8490  173.5720  139.2680 C   0  0  2  0  0  0  0  0  0  0  0  0
  193.7900  174.9770  139.2830 O   0  0  0  0  0  0  0  0  0  0  0  0
  195.2710  172.5930  137.6780 C   0  0  0  0  0  2  0  0  0  0  0  0
  194.2800  174.4110  141.5100 N   0  0  0  0  0  0  0  0  0  0  0  0
  192.9710  176.2170  142.6640 C   0  0  0  0  0  2  0  0  0  0  0  0
  193.8460  174.2350  143.8730 C   0  0  0  0  0  3  0  0  0  0  0  0
  194.0810  175.6940  143.5550 C   0  0  1  0  0  3  0  0  0  0  0  0
  193.8880  173.4810  142.5630 C   0  0  0  0  0  3  0  0  0  0  0  0
  194.3030  175.7780  142.0580 C   0  0  1  0  0  3  0  0  0  0  0  0
  186.7060  178.1440  141.4980 O   0  0  0  0  0  0  0  0  0  0  0  0
  183.1760  178.4270  142.6740 C   0  0  0  0  0  3  0  0  0  0  0  0
  182.4960  178.2800  141.4610 C   0  0  0  0  0  0  0  0  0  0  0  0
  184.6140  178.0340  140.3100 C   0  0  0  0  0  3  0  0  0  0  0  0
  184.5710  178.3790  142.7020 C   0  0  0  0  0  3  0  0  0  0  0  0
  185.3030  178.1730  141.5200 C   0  0  0  0  0  0  0  0  0  0  0  0
  183.2160  178.0790  140.2800 C   0  0  0  0  0  3  0  0  0  0  0  0
  180.5770  179.3510  140.6120 O   0  0  0  0  0  1  0  0  0  0  0  0
  181.0090  178.3100  141.4320 C   0  0  0  0  0  2  0  0  0  0  0  0
  1  6  1  0  0  0  0
  2 11  1  0  0  0  0
  2 12  1  0  0  0  0
  3 10  1  0  0  0  0
  4  8  2  0  0  0  0
  5  1  2  0  0  0  0
  7  9  2  0  0  0  0
  7  4  1  0  0  0  0
  8  1  1  0  0  0  0
  9  5  1  0  0  0  0
 10 11  2  0  0  0  0
 11  7  1  0  0  0  0
 12 15  2  0  0  0  0
 13  2  2  0  0  0  0
 14  3  2  0  0  0  0
 14 13  1  0  0  0  0
 15  4  1  0  0  0  0
 16  3  1  0  0  0  0
 17 16  1  0  0  0  0
 18 16  2  0  0  0  0
 19 17  1  0  0  0  0
 20 19  2  0  0  0  0
 21 19  1  0  0  0  0
 22 21  1  0  0  0  0
 22 26  1  0  0  0  0
 24 29  1  1  0  0  0
 25 28  1  0  0  0  0
 25 22  1  0  0  0  0
 26 23  1  1  0  0  0
 26 27  1  0  0  0  0
 26 24  1  0  0  0  0
 27 24  1  0  0  0  0
 28 23  1  0  0  0  0
 29 34  1  0  0  0  0
 29 33  1  0  0  0  0
 32 30  1  6  0  0  0
 32 31  1  0  0  0  0
 33 31  2  0  0  0  0
 34 30  1  6  0  0  0
 34 32  1  0  0  0  0
 35 40  1  0  0  0  0
 35 13  1  0  0  0  0
 36 39  1  0  0  0  0
 37 36  2  0  0  0  0
 38 40  1  0  0  0  0
 40 39  2  0  0  0  0
 41 38  2  0  0  0  0
 41 37  1  0  0  0  0
 42 43  1  0  0  0  0
 43 37  1  0  0  0  0
M  END
>  <MODEL>
6

>  <REMARK>
 VINA RESULT:      -7.4      2.642      6.400
  Name = 
  7 active torsions:
  status: ('A' for Active; 'I' for Inactive)
    1  A    between atoms: O_1  and  C_34
    2  A    between atoms: O_1  and  C_35
    3  A    between atoms: C_2  and  C_13
    4  A    between atoms: C_3  and  N_4
    5  A    between atoms: C_3  and  C_12
    6  A    between atoms: N_11  and  C_14
    7  A    between atoms: C_19  and  C_37
                            x       y       z     vdW  Elec       q    Type
                         _______ _______ _______ _____ _____    ______ ____

>  <TORSDO>
F 7

$$$$
=
 OpenBabel11042419163D

 43 50  0  0  1  0  0  0  0  0999 V2000
  185.4550  177.9830  146.9310 C   0  0  0  0  0  0  0  0  0  0  0  0
  190.0480  176.5130  145.3800 C   0  0  0  0  0  0  0  0  0  0  0  0
  189.6910  175.1940  142.9190 C   0  0  0  0  0  0  0  0  0  0  0  0
  187.8360  177.5660  146.7590 C   0  0  0  0  0  0  0  0  0  0  0  0
  185.2500  177.3500  145.7030 C   0  0  0  0  0  3  0  0  0  0  0  0
  184.3760  178.5040  147.6300 O   0  0  0  0  0  1  0  0  0  0  0  0
  187.6380  176.9200  145.5140 C   0  0  0  0  0  0  0  0  0  0  0  0
  186.7450  178.0910  147.4580 C   0  0  0  0  0  3  0  0  0  0  0  0
  186.3340  176.8210  144.9980 C   0  0  0  0  0  3  0  0  0  0  0  0
  188.5900  175.7290  143.5950 C   0  0  0  0  0  3  0  0  0  0  0  0
  188.7480  176.3880  144.8230 C   0  0  0  0  0  0  0  0  0  0  0  0
  190.2150  177.1580  146.6120 C   0  0  0  0  0  3  0  0  0  0  0  0
  191.1620  175.9920  144.6980 C   0  0  0  0  0  0  0  0  0  0  0  0
  190.9670  175.3290  143.4780 C   0  0  0  0  0  3  0  0  0  0  0  0
  189.1170  177.6790  147.2970 C   0  0  0  0  0  3  0  0  0  0  0  0
  189.5080  174.4900  141.6390 C   0  0  0  0  0  0  0  0  0  0  0  0
  190.3840  173.4090  141.2890 N   0  0  0  0  0  2  0  0  0  0  0  0
  188.5840  174.8420  140.8550 O   0  0  0  0  0  0  0  0  0  0  0  0
  190.3410  172.6750  140.0610 C   0  0  0  0  0  0  0  0  0  0  0  0
  189.5050  172.9590  139.1610 O   0  0  0  0  0  0  0  0  0  0  0  0
  191.2850  171.5440  139.8550 C   0  0  0  0  0  2  0  0  0  0  0  0
  191.9860  171.7110  138.5880 N   0  0  0  0  0  0  0  0  0  0  0  0
  194.2600  170.7380  138.5020 C   0  0  0  0  0  2  0  0  0  0  0  0
  193.8330  173.1230  139.6310 C   0  0  2  0  0  3  0  0  0  0  0  0
  191.9280  170.4150  137.9170 C   0  0  0  0  0  2  0  0  0  0  0  0
  193.3990  171.9140  138.8770 C   0  0  2  0  0  0  0  0  0  0  0  0
  193.8590  173.0710  138.2230 O   0  0  0  0  0  0  0  0  0  0  0  0
  193.3460  169.9380  137.6110 C   0  0  0  0  0  2  0  0  0  0  0  0
  195.1860  172.9540  140.1580 N   0  0  0  0  0  0  0  0  0  0  0  0
  195.6020  175.4300  140.1090 C   0  0  0  0  0  2  0  0  0  0  0  0
  196.1270  174.0370  142.0930 C   0  0  0  0  0  3  0  0  0  0  0  0
  196.6990  174.7080  140.8660 C   0  0  1  0  0  3  0  0  0  0  0  0
  195.1230  173.0130  141.6140 C   0  0  0  0  0  3  0  0  0  0  0  0
  196.0540  174.0380  139.6690 C   0  0  1  0  0  3  0  0  0  0  0  0
  192.4410  176.1170  145.2720 O   0  0  0  0  0  0  0  0  0  0  0  0
  194.0780  172.7660  145.3970 C   0  0  0  0  0  3  0  0  0  0  0  0
  195.4040  173.1440  145.6270 C   0  0  0  0  0  0  0  0  0  0  0  0
  194.7340  175.4720  145.6300 C   0  0  0  0  0  3  0  0  0  0  0  0
  193.0840  173.7400  145.2820 C   0  0  0  0  0  3  0  0  0  0  0  0
  193.4030  175.1030  145.4060 C   0  0  0  0  0  0  0  0  0  0  0  0
  195.7310  174.4980  145.7480 C   0  0  0  0  0  3  0  0  0  0  0  0
  196.3820  171.2070  144.7080 O   0  0  0  0  0  1  0  0  0  0  0  0
  196.4600  172.1070  145.7700 C   0  0  0  0  0  2  0  0  0  0  0  0
  1  8  1  0  0  0  0
  1  6  1  0  0  0  0
  2 12  1  0  0  0  0
  3 14  2  0  0  0  0
  3 10  1  0  0  0  0
  4 15  1  0  0  0  0
  4  8  2  0  0  0  0
  5  1  2  0  0  0  0
  7  4  1  0  0  0  0
  9  7  2  0  0  0  0
  9  5  1  0  0  0  0
 10 11  2  0  0  0  0
 11  2  1  0  0  0  0
 11  7  1  0  0  0  0
 12 15  2  0  0  0  0
 13 35  1  0  0  0  0
 13  2  2  0  0  0  0
 14 13  1  0  0  0  0
 16  3  1  0  0  0  0
 17 16  1  0  0  0  0
 18 16  2  0  0  0  0
 19 17  1  0  0  0  0
 20 19  2  0  0  0  0
 21 19  1  0  0  0  0
 22 26  1  0  0  0  0
 22 21  1  0  0  0  0
 24 29  1  1  0  0  0
 25 22  1  0  0  0  0
 26 23  1  1  0  0  0
 26 24  1  0  0  0  0
 27 26  1  0  0  0  0
 27 24  1  0  0  0  0
 28 25  1  0  0  0  0
 28 23  1  0  0  0  0
 29 33  1  0  0  0  0
 32 30  1  1  0  0  0
 32 31  1  0  0  0  0
 33 31  2  0  0  0  0
 34 30  1  1  0  0  0
 34 29  1  0  0  0  0
 34 32  1  0  0  0  0
 35 40  1  0  0  0  0
 36 37  1  0  0  0  0
 37 41  2  0  0  0  0
 37 43  1  0  0  0  0
 38 41  1  0  0  0  0
 39 36  2  0  0  0  0
 39 40  1  0  0  0  0
 40 38  2  0  0  0  0
 42 43  1  0  0  0  0
M  END
>  <MODEL>
7

>  <REMARK>
 VINA RESULT:      -7.2      1.954      2.532
  Name = 
  7 active torsions:
  status: ('A' for Active; 'I' for Inactive)
    1  A    between atoms: O_1  and  C_34
    2  A    between atoms: O_1  and  C_35
    3  A    between atoms: C_2  and  C_13
    4  A    between atoms: C_3  and  N_4
    5  A    between atoms: C_3  and  C_12
    6  A    between atoms: N_11  and  C_14
    7  A    between atoms: C_19  and  C_37
                            x       y       z     vdW  Elec       q    Type
                         _______ _______ _______ _____ _____    ______ ____

>  <TORSDO>
F 7

$$$$
=
 OpenBabel11042419163D

 43 50  0  0  1  0  0  0  0  0999 V2000
  184.7900  178.2980  145.5340 C   0  0  0  0  0  0  0  0  0  0  0  0
  189.1720  175.7960  145.0890 C   0  0  0  0  0  0  0  0  0  0  0  0
  189.2480  174.7480  142.4780 C   0  0  0  0  0  0  0  0  0  0  0  0
  186.9580  177.3000  145.9510 C   0  0  0  0  0  0  0  0  0  0  0  0
  184.8080  177.8070  144.2270 C   0  0  0  0  0  3  0  0  0  0  0  0
  183.7040  179.0380  145.9790 O   0  0  0  0  0  1  0  0  0  0  0  0
  186.9860  176.7950  144.6270 C   0  0  0  0  0  0  0  0  0  0  0  0
  185.8620  178.0460  146.3930 C   0  0  0  0  0  3  0  0  0  0  0  0
  185.8990  177.0590  143.7740 C   0  0  0  0  0  3  0  0  0  0  0  0
  188.1520  175.5080  142.8980 C   0  0  0  0  0  3  0  0  0  0  0  0
  188.0950  176.0370  144.1960 C   0  0  0  0  0  0  0  0  0  0  0  0
  189.1190  176.3090  146.3920 C   0  0  0  0  0  3  0  0  0  0  0  0
  190.2860  175.0470  144.6690 C   0  0  0  0  0  0  0  0  0  0  0  0
  190.3050  174.5230  143.3680 C   0  0  0  0  0  3  0  0  0  0  0  0
  188.0200  177.0540  146.8190 C   0  0  0  0  0  3  0  0  0  0  0  0
  189.2870  174.1850  141.1180 C   0  0  0  0  0  0  0  0  0  0  0  0
  190.1980  173.1190  140.8140 N   0  0  0  0  0  2  0  0  0  0  0  0
  188.5200  174.6440  140.2270 O   0  0  0  0  0  0  0  0  0  0  0  0
  190.3640  172.5170  139.5260 C   0  0  0  0  0  0  0  0  0  0  0  0
  189.7030  172.9170  138.5290 O   0  0  0  0  0  0  0  0  0  0  0  0
  191.3160  171.3850  139.3700 C   0  0  0  0  0  2  0  0  0  0  0  0
  192.6840  171.8690  139.5060 N   0  0  0  0  0  0  0  0  0  0  0  0
  194.4250  170.1110  139.5750 C   0  0  0  0  0  2  0  0  0  0  0  0
  193.0160  170.7300  141.7600 C   0  0  2  0  0  3  0  0  0  0  0  0
  193.2930  171.7450  138.1840 C   0  0  0  0  0  2  0  0  0  0  0  0
  193.4170  170.9250  140.3390 C   0  0  2  0  0  0  0  0  0  0  0  0
  194.0520  171.6100  141.3900 O   0  0  0  0  0  0  0  0  0  0  0  0
  194.5430  170.8740  138.2800 C   0  0  0  0  0  2  0  0  0  0  0  0
  193.5840  169.4960  142.3000 N   0  0  0  0  0  0  0  0  0  0  0  0
  193.5970  170.4240  144.6320 C   0  0  0  0  0  2  0  0  0  0  0  0
  192.7030  168.1700  144.1070 C   0  0  0  0  0  3  0  0  0  0  0  0
  193.8930  168.9370  144.6360 C   0  0  1  0  0  3  0  0  0  0  0  0
  192.4870  168.6120  142.6770 C   0  0  0  0  0  3  0  0  0  0  0  0
  194.3950  169.7950  143.4920 C   0  0  1  0  0  3  0  0  0  0  0  0
  191.3380  174.8110  145.5740 O   0  0  0  0  0  0  0  0  0  0  0  0
  194.6790  175.9420  144.3540 C   0  0  0  0  0  3  0  0  0  0  0  0
  195.4830  174.9000  144.8280 C   0  0  0  0  0  0  0  0  0  0  0  0
  193.5260  173.8240  145.7670 C   0  0  0  0  0  3  0  0  0  0  0  0
  193.3020  175.9230  144.5900 C   0  0  0  0  0  3  0  0  0  0  0  0
  192.7120  174.8580  145.2920 C   0  0  0  0  0  0  0  0  0  0  0  0
  194.9040  173.8380  145.5300 C   0  0  0  0  0  3  0  0  0  0  0  0
  197.4910  173.6690  144.8970 O   0  0  0  0  0  1  0  0  0  0  0  0
  196.9460  174.9070  144.5590 C   0  0  0  0  0  2  0  0  0  0  0  0
  1  6  1  0  0  0  0
  1  8  1  0  0  0  0
  2 12  1  0  0  0  0
  3 10  2  0  0  0  0
  3 14  1  0  0  0  0
  4  8  2  0  0  0  0
  4 15  1  0  0  0  0
  5  1  2  0  0  0  0
  7  4  1  0  0  0  0
  9  5  1  0  0  0  0
  9  7  2  0  0  0  0
 10 11  1  0  0  0  0
 11  7  1  0  0  0  0
 11  2  2  0  0  0  0
 12 15  2  0  0  0  0
 13  2  1  0  0  0  0
 13 35  1  0  0  0  0
 14 13  2  0  0  0  0
 16  3  1  0  0  0  0
 17 16  1  0  0  0  0
 18 16  2  0  0  0  0
 19 17  1  0  0  0  0
 20 19  2  0  0  0  0
 21 22  1  0  0  0  0
 21 19  1  0  0  0  0
 22 26  1  0  0  0  0
 24 29  1  1  0  0  0
 25 28  1  0  0  0  0
 25 22  1  0  0  0  0
 26 23  1  6  0  0  0
 26 27  1  0  0  0  0
 26 24  1  0  0  0  0
 27 24  1  0  0  0  0
 28 23  1  0  0  0  0
 29 33  1  0  0  0  0
 29 34  1  0  0  0  0
 30 32  1  0  0  0  0
 32 31  1  6  0  0  0
 33 31  2  0  0  0  0
 34 30  1  1  0  0  0
 34 32  1  0  0  0  0
 36 39  2  0  0  0  0
 36 37  1  0  0  0  0
 37 41  2  0  0  0  0
 39 40  1  0  0  0  0
 40 35  1  0  0  0  0
 40 38  2  0  0  0  0
 41 38  1  0  0  0  0
 43 37  1  0  0  0  0
 43 42  1  0  0  0  0
M  END
>  <MODEL>
8

>  <REMARK>
 VINA RESULT:      -7.2      2.249      3.007
  Name = 
  7 active torsions:
  status: ('A' for Active; 'I' for Inactive)
    1  A    between atoms: O_1  and  C_34
    2  A    between atoms: O_1  and  C_35
    3  A    between atoms: C_2  and  C_13
    4  A    between atoms: C_3  and  N_4
    5  A    between atoms: C_3  and  C_12
    6  A    between atoms: N_11  and  C_14
    7  A    between atoms: C_19  and  C_37
                            x       y       z     vdW  Elec       q    Type
                         _______ _______ _______ _____ _____    ______ ____

>  <TORSDO>
F 7

$$$$
=
 OpenBabel11042419163D

 43 50  0  0  1  0  0  0  0  0999 V2000
  195.9540  173.6700  145.6090 C   0  0  0  0  0  0  0  0  0  0  0  0
  191.5350  175.9310  144.5980 C   0  0  0  0  0  0  0  0  0  0  0  0
  190.2940  174.4210  142.5730 C   0  0  0  0  0  0  0  0  0  0  0  0
  194.0520  175.1710  145.5950 C   0  0  0  0  0  0  0  0  0  0  0  0
  195.3550  172.8910  144.6170 C   0  0  0  0  0  3  0  0  0  0  0  0
  197.1980  173.3150  146.1100 O   0  0  0  0  0  1  0  0  0  0  0  0
  193.4350  174.3880  144.5870 C   0  0  0  0  0  0  0  0  0  0  0  0
  195.3040  174.8070  146.0970 C   0  0  0  0  0  3  0  0  0  0  0  0
  194.1030  173.2470  144.1080 C   0  0  0  0  0  3  0  0  0  0  0  0
  191.5390  174.0310  143.0760 C   0  0  0  0  0  3  0  0  0  0  0  0
  192.1740  174.7720  144.0840 C   0  0  0  0  0  0  0  0  0  0  0  0
  192.1660  176.6850  145.5960 C   0  0  0  0  0  3  0  0  0  0  0  0
  190.2750  176.3190  144.1090 C   0  0  0  0  0  0  0  0  0  0  0  0
  189.6740  175.5630  143.0930 C   0  0  0  0  0  3  0  0  0  0  0  0
  193.4150  176.3080  146.0890 C   0  0  0  0  0  3  0  0  0  0  0  0
  189.6470  173.6440  141.5030 C   0  0  0  0  0  0  0  0  0  0  0  0
  190.4440  173.0710  140.4570 N   0  0  0  0  0  2  0  0  0  0  0  0
  188.3950  173.4860  141.5100 O   0  0  0  0  0  0  0  0  0  0  0  0
  189.9360  172.3340  139.3400 C   0  0  0  0  0  0  0  0  0  0  0  0
  188.6980  172.1500  139.1890 O   0  0  0  0  0  0  0  0  0  0  0  0
  190.8890  171.7570  138.3540 C   0  0  0  0  0  2  0  0  0  0  0  0
  190.2400  171.6320  137.0560 N   0  0  0  0  0  0  0  0  0  0  0  0
  191.7590  171.7000  135.1030 C   0  0  0  0  0  2  0  0  0  0  0  0
  190.9730  173.9540  136.3050 C   0  0  2  0  0  3  0  0  0  0  0  0
  190.4970  170.2680  136.6010 C   0  0  0  0  0  2  0  0  0  0  0  0
  190.9560  172.4770  136.1090 C   0  0  2  0  0  0  0  0  0  0  0  0
  190.0500  173.3250  135.4460 O   0  0  0  0  0  0  0  0  0  0  0  0
  191.1970  170.3080  135.2450 C   0  0  0  0  0  2  0  0  0  0  0  0
  192.0380  174.5730  135.5180 N   0  0  0  0  0  0  0  0  0  0  0  0
  190.6750  176.6510  135.1570 C   0  0  0  0  0  2  0  0  0  0  0  0
  193.0420  176.7310  135.8940 C   0  0  0  0  0  3  0  0  0  0  0  0
  192.1090  176.8570  134.7120 C   0  0  1  0  0  3  0  0  0  0  0  0
  192.9030  175.3220  136.4240 C   0  0  0  0  0  3  0  0  0  0  0  0
  191.4590  175.4990  134.5300 C   0  0  1  0  0  3  0  0  0  0  0  0
  189.6640  177.4780  144.6260 O   0  0  0  0  0  0  0  0  0  0  0  0
  186.0120  178.2320  144.7860 C   0  0  0  0  0  3  0  0  0  0  0  0
  185.7100  177.7310  146.0560 C   0  0  0  0  0  0  0  0  0  0  0  0
  188.0280  177.0900  146.3500 C   0  0  0  0  0  3  0  0  0  0  0  0
  187.3200  178.1590  144.3010 C   0  0  0  0  0  3  0  0  0  0  0  0
  188.3420  177.5950  145.0830 C   0  0  0  0  0  0  0  0  0  0  0  0
  186.7200  177.1650  146.8400 C   0  0  0  0  0  3  0  0  0  0  0  0
  183.6130  178.7880  145.8650 O   0  0  0  0  0  1  0  0  0  0  0  0
  184.3220  177.8260  146.5830 C   0  0  0  0  0  2  0  0  0  0  0  0
  1  8  1  0  0  0  0
  1  6  1  0  0  0  0
  2 12  1  0  0  0  0
  3 10  2  0  0  0  0
  3 14  1  0  0  0  0
  4 15  1  0  0  0  0
  4  8  2  0  0  0  0
  5  1  2  0  0  0  0
  7  4  1  0  0  0  0
  9  7  2  0  0  0  0
  9  5  1  0  0  0  0
 10 11  1  0  0  0  0
 11  7  1  0  0  0  0
 11  2  2  0  0  0  0
 12 15  2  0  0  0  0
 13  2  1  0  0  0  0
 13 35  1  0  0  0  0
 14 13  2  0  0  0  0
 16 18  2  0  0  0  0
 16  3  1  0  0  0  0
 17 16  1  0  0  0  0
 19 17  1  0  0  0  0
 20 19  2  0  0  0  0
 21 19  1  0  0  0  0
 22 21  1  0  0  0  0
 23 28  1  0  0  0  0
 24 29  1  6  0  0  0
 25 22  1  0  0  0  0
 26 23  1  6  0  0  0
 26 24  1  0  0  0  0
 26 22  1  0  0  0  0
 27 26  1  0  0  0  0
 27 24  1  0  0  0  0
 28 25  1  0  0  0  0
 29 33  1  0  0  0  0
 31 33  2  0  0  0  0
 32 30  1  1  0  0  0
 32 31  1  0  0  0  0
 34 32  1  0  0  0  0
 34 30  1  1  0  0  0
 34 29  1  0  0  0  0
 35 40  1  0  0  0  0
 36 37  1  0  0  0  0
 37 43  1  0  0  0  0
 37 41  2  0  0  0  0
 38 41  1  0  0  0  0
 39 36  2  0  0  0  0
 39 40  1  0  0  0  0
 40 38  2  0  0  0  0
 42 43  1  0  0  0  0
M  END
>  <MODEL>
9

>  <REMARK>
 VINA RESULT:      -7.1      2.311      6.478
  Name = 
  7 active torsions:
  status: ('A' for Active; 'I' for Inactive)
    1  A    between atoms: O_1  and  C_34
    2  A    between atoms: O_1  and  C_35
    3  A    between atoms: C_2  and  C_13
    4  A    between atoms: C_3  and  N_4
    5  A    between atoms: C_3  and  C_12
    6  A    between atoms: N_11  and  C_14
    7  A    between atoms: C_19  and  C_37
                            x       y       z     vdW  Elec       q    Type
                         _______ _______ _______ _____ _____    ______ ____

>  <TORSDO>
F 7

$$$$
