=
 OpenBabel11042415103D

 27 29  0  0  1  0  0  0  0  0999 V2000
  188.6850  177.7090  144.6550 N   0  0  0  0  0  0  0  0  0  0  0  0
  189.4760  176.7170  144.3600 C   0  0  0  0  0  0  0  0  0  0  0  0
  189.3230  173.4940  141.5310 C   0  0  0  0  0  0  0  0  0  0  0  0
  189.3700  174.2130  143.9520 C   0  0  0  0  0  2  0  0  0  0  0  0
  189.2270  174.7260  141.1220 N   0  0  0  0  0  0  0  0  0  0  0  0
  189.6250  175.8440  141.9780 C   0  0  0  0  0  2  0  0  0  0  0  0
  189.8600  173.1990  142.9060 C   0  0  0  0  0  2  0  0  0  0  0  0
  189.1020  175.6200  143.4000 C   0  0  2  0  0  3  0  0  0  0  0  0
  188.9680  172.4070  140.6670 N   0  0  0  0  0  2  0  0  0  0  0  0
  188.2100  172.7550  138.2440 N   0  0  0  0  0  0  0  0  0  0  0  0
  188.5540  172.6000  139.3400 C   0  0  0  0  0  0  0  0  0  0  0  0
  192.2780  176.8260  144.4070 S   0  0  0  0  0  0  0  0  0  0  0  0
  193.0730  176.5830  145.8640 C   0  0  0  0  0  0  0  0  0  0  0  0
  190.7540  176.5930  145.0810 C   0  0  0  0  0  0  0  0  0  0  0  0
  192.1280  176.3220  146.8460 C   0  0  0  0  0  3  0  0  0  0  0  0
  190.8430  176.3360  146.4020 N   0  0  0  0  0  0  0  0  0  0  0  0
  195.1290  177.7490  146.0560 O   0  0  0  0  0  0  0  0  0  0  0  0
  194.5270  176.6400  146.0640 C   0  0  0  0  0  0  0  0  0  0  0  0
  195.2430  175.4710  146.2870 O   0  0  0  0  0  1  0  0  0  0  0  0
  187.4140  178.0150  144.0680 C   0  0  0  0  0  0  0  0  0  0  0  0
  187.3390  178.3410  142.8510 O   0  0  0  0  0  0  0  0  0  0  0  0
  186.1920  177.9780  144.8930 C   0  0  0  0  0  0  0  0  0  0  0  0
  184.1210  178.9740  145.6420 C   0  0  0  0  0  3  0  0  0  0  0  0
  183.9550  177.9550  146.5310 N   0  0  0  0  0  0  0  0  0  0  0  0
  184.8570  176.9420  146.6300 C   0  0  0  0  0  3  0  0  0  0  0  0
  185.9900  176.9370  145.8150 C   0  0  0  0  0  3  0  0  0  0  0  0
  185.2460  179.0080  144.8090 C   0  0  0  0  0  3  0  0  0  0  0  0
  2  1  2  0  0  0  0
  2 14  1  0  0  0  0
  3  7  1  0  0  0  0
  5  3  2  0  0  0  0
  5  6  1  0  0  0  0
  6  8  1  0  0  0  0
  7  4  1  0  0  0  0
  8  4  1  0  0  0  0
  8  2  1  1  0  0  0
  9  3  1  0  0  0  0
 10 11  3  0  0  0  0
 11  9  1  0  0  0  0
 12 14  1  0  0  0  0
 12 13  1  0  0  0  0
 13 18  1  0  0  0  0
 13 15  2  0  0  0  0
 14 16  2  0  0  0  0
 16 15  1  0  0  0  0
 17 18  2  0  0  0  0
 18 19  1  0  0  0  0
 20  1  1  0  0  0  0
 20 22  1  0  0  0  0
 21 20  2  0  0  0  0
 22 26  1  0  0  0  0
 23 24  2  0  0  0  0
 24 25  1  0  0  0  0
 26 25  2  0  0  0  0
 27 22  2  0  0  0  0
 27 23  1  0  0  0  0
M  END
>  <MODEL>
1

>  <REMARK>
 VINA RESULT:      -6.4      0.000      0.000
  Name = 
  6 active torsions:
  status: ('A' for Active; 'I' for Inactive)
    1  A    between atoms: C_1  and  C_8
    2  A    between atoms: N_6  and  C_8
    3  A    between atoms: C_9  and  N_25
    4  A    between atoms: C_10  and  C_11
    5  A    between atoms: C_15  and  C_16
    6  A    between atoms: C_15  and  C_24
                            x       y       z     vdW  Elec       q    Type
                         _______ _______ _______ _____ _____    ______ ____

>  <TORSDO>
F 6

$$$$
=
 OpenBabel11042415103D

 27 29  0  0  1  0  0  0  0  0999 V2000
  188.7990  174.2120  142.7280 N   0  0  0  0  0  0  0  0  0  0  0  0
  188.2440  175.3500  143.0400 C   0  0  0  0  0  0  0  0  0  0  0  0
  185.1880  177.7830  141.2630 C   0  0  0  0  0  0  0  0  0  0  0  0
  187.4460  176.6730  141.0270 C   0  0  0  0  0  2  0  0  0  0  0  0
  184.9790  177.2090  142.4140 N   0  0  0  0  0  0  0  0  0  0  0  0
  186.0870  176.6820  143.2110 C   0  0  0  0  0  2  0  0  0  0  0  0
  186.5930  177.9180  140.7360 C   0  0  0  0  0  2  0  0  0  0  0  0
  187.0600  175.9210  142.3080 C   0  0  2  0  0  3  0  0  0  0  0  0
  184.1000  178.3320  140.5120 N   0  0  0  0  0  2  0  0  0  0  0  0
  181.6860  178.3340  141.3710 N   0  0  0  0  0  0  0  0  0  0  0  0
  182.7780  178.3320  140.9840 C   0  0  0  0  0  0  0  0  0  0  0  0
  188.9370  175.7850  145.7230 S   0  0  0  0  0  0  0  0  0  0  0  0
  189.8320  177.1490  146.1160 C   0  0  0  0  0  0  0  0  0  0  0  0
  188.8680  176.1760  144.0870 C   0  0  0  0  0  0  0  0  0  0  0  0
  190.0550  177.8810  144.9590 C   0  0  0  0  0  3  0  0  0  0  0  0
  189.5200  177.3290  143.8370 N   0  0  0  0  0  0  0  0  0  0  0  0
  189.7500  178.4410  148.1020 O   0  0  0  0  0  1  0  0  0  0  0  0
  190.3010  177.5040  147.4610 C   0  0  0  0  0  0  0  0  0  0  0  0
  191.3410  176.7910  148.0460 O   0  0  0  0  0  0  0  0  0  0  0  0
  188.3480  173.2620  141.7540 C   0  0  0  0  0  0  0  0  0  0  0  0
  187.3680  172.5090  142.0090 O   0  0  0  0  0  0  0  0  0  0  0  0
  189.0490  173.1410  140.4620 C   0  0  0  0  0  0  0  0  0  0  0  0
  191.0290  173.4120  139.1020 C   0  0  0  0  0  3  0  0  0  0  0  0
  190.3250  173.0200  138.0030 N   0  0  0  0  0  0  0  0  0  0  0  0
  189.0110  172.6780  138.0840 C   0  0  0  0  0  3  0  0  0  0  0  0
  188.3510  172.7340  139.3120 C   0  0  0  0  0  3  0  0  0  0  0  0
  190.4020  173.4860  140.3520 C   0  0  0  0  0  3  0  0  0  0  0  0
  1  2  2  0  0  0  0
  2 14  1  0  0  0  0
  3  5  2  0  0  0  0
  4  8  1  0  0  0  0
  5  6  1  0  0  0  0
  7  4  1  0  0  0  0
  7  3  1  0  0  0  0
  8  2  1  1  0  0  0
  8  6  1  0  0  0  0
  9 11  1  0  0  0  0
  9  3  1  0  0  0  0
 11 10  3  0  0  0  0
 12 13  1  0  0  0  0
 13 18  1  0  0  0  0
 14 12  1  0  0  0  0
 15 13  2  0  0  0  0
 16 14  2  0  0  0  0
 16 15  1  0  0  0  0
 18 19  2  0  0  0  0
 18 17  1  0  0  0  0
 20 21  2  0  0  0  0
 20  1  1  0  0  0  0
 22 20  1  0  0  0  0
 23 27  2  0  0  0  0
 24 25  2  0  0  0  0
 24 23  1  0  0  0  0
 25 26  1  0  0  0  0
 26 22  2  0  0  0  0
 27 22  1  0  0  0  0
M  END
>  <MODEL>
2

>  <REMARK>
 VINA RESULT:      -6.0      3.243      6.435
  Name = 
  6 active torsions:
  status: ('A' for Active; 'I' for Inactive)
    1  A    between atoms: C_1  and  C_8
    2  A    between atoms: N_6  and  C_8
    3  A    between atoms: C_9  and  N_25
    4  A    between atoms: C_10  and  C_11
    5  A    between atoms: C_15  and  C_16
    6  A    between atoms: C_15  and  C_24
                            x       y       z     vdW  Elec       q    Type
                         _______ _______ _______ _____ _____    ______ ____

>  <TORSDO>
F 6

$$$$
=
 OpenBabel11042415103D

 27 29  0  0  1  0  0  0  0  0999 V2000
  190.3580  177.5130  144.8150 N   0  0  0  0  0  0  0  0  0  0  0  0
  189.2690  176.9970  144.3170 C   0  0  0  0  0  0  0  0  0  0  0  0
  188.2370  174.9110  140.7110 C   0  0  0  0  0  0  0  0  0  0  0  0
  188.5010  177.1250  141.9000 C   0  0  0  0  0  2  0  0  0  0  0  0
  188.7380  174.2600  141.7210 N   0  0  0  0  0  0  0  0  0  0  0  0
  188.7690  174.8440  143.0620 C   0  0  0  0  0  2  0  0  0  0  0  0
  187.6670  176.2900  140.9160 C   0  0  0  0  0  2  0  0  0  0  0  0
  189.2200  176.3050  142.9810 C   0  0  2  0  0  3  0  0  0  0  0  0
  188.1750  174.3110  139.4110 N   0  0  0  0  0  2  0  0  0  0  0  0
  188.9430  171.9090  138.9580 N   0  0  0  0  0  0  0  0  0  0  0  0
  188.5960  172.9950  139.1650 C   0  0  0  0  0  0  0  0  0  0  0  0
  186.7960  178.2870  144.6060 S   0  0  0  0  0  0  0  0  0  0  0  0
  185.7680  177.7980  145.8390 C   0  0  0  0  0  0  0  0  0  0  0  0
  188.0000  177.1930  145.0360 C   0  0  0  0  0  0  0  0  0  0  0  0
  186.3920  176.7910  146.5620 C   0  0  0  0  0  3  0  0  0  0  0  0
  187.6280  176.4580  146.1050 N   0  0  0  0  0  0  0  0  0  0  0  0
  183.9400  178.2900  147.2660 O   0  0  0  0  0  1  0  0  0  0  0  0
  184.4320  178.3450  146.1050 C   0  0  0  0  0  0  0  0  0  0  0  0
  183.7120  178.9490  145.0820 O   0  0  0  0  0  0  0  0  0  0  0  0
  191.6850  177.4280  144.2820 C   0  0  0  0  0  0  0  0  0  0  0  0
  192.0480  178.2040  143.3550 O   0  0  0  0  0  0  0  0  0  0  0  0
  192.6230  176.4120  144.7970 C   0  0  0  0  0  0  0  0  0  0  0  0
  193.2810  174.1050  145.0890 C   0  0  0  0  0  3  0  0  0  0  0  0
  194.3290  174.5050  145.8650 N   0  0  0  0  0  0  0  0  0  0  0  0
  194.5640  175.8200  146.1210 C   0  0  0  0  0  3  0  0  0  0  0  0
  193.7150  176.7950  145.5940 C   0  0  0  0  0  3  0  0  0  0  0  0
  192.4050  175.0510  144.5450 C   0  0  0  0  0  3  0  0  0  0  0  0
  2  1  2  0  0  0  0
  2 14  1  0  0  0  0
  3  7  1  0  0  0  0
  3  5  2  0  0  0  0
  4  8  1  0  0  0  0
  5  6  1  0  0  0  0
  7  4  1  0  0  0  0
  8  6  1  0  0  0  0
  8  2  1  1  0  0  0
  9  3  1  0  0  0  0
 10 11  3  0  0  0  0
 11  9  1  0  0  0  0
 12 14  1  0  0  0  0
 12 13  1  0  0  0  0
 13 18  1  0  0  0  0
 13 15  2  0  0  0  0
 14 16  2  0  0  0  0
 16 15  1  0  0  0  0
 18 17  1  0  0  0  0
 19 18  2  0  0  0  0
 20 22  1  0  0  0  0
 20  1  1  0  0  0  0
 21 20  2  0  0  0  0
 22 26  1  0  0  0  0
 23 24  2  0  0  0  0
 24 25  1  0  0  0  0
 26 25  2  0  0  0  0
 27 22  2  0  0  0  0
 27 23  1  0  0  0  0
M  END
>  <MODEL>
3

>  <REMARK>
 VINA RESULT:      -6.0      2.454      6.391
  Name = 
  6 active torsions:
  status: ('A' for Active; 'I' for Inactive)
    1  A    between atoms: C_1  and  C_8
    2  A    between atoms: N_6  and  C_8
    3  A    between atoms: C_9  and  N_25
    4  A    between atoms: C_10  and  C_11
    5  A    between atoms: C_15  and  C_16
    6  A    between atoms: C_15  and  C_24
                            x       y       z     vdW  Elec       q    Type
                         _______ _______ _______ _____ _____    ______ ____

>  <TORSDO>
F 6

$$$$
=
 OpenBabel11042415103D

 27 29  0  0  1  0  0  0  0  0999 V2000
  188.7100  176.7690  145.9190 N   0  0  0  0  0  0  0  0  0  0  0  0
  189.6000  176.1830  145.1700 C   0  0  0  0  0  0  0  0  0  0  0  0
  189.4980  173.5500  141.7820 C   0  0  0  0  0  0  0  0  0  0  0  0
  189.6790  173.8030  144.2900 C   0  0  0  0  0  2  0  0  0  0  0  0
  189.2630  174.8220  141.6280 N   0  0  0  0  0  0  0  0  0  0  0  0
  189.6320  175.7920  142.6580 C   0  0  0  0  0  2  0  0  0  0  0  0
  190.1680  173.0580  143.0380 C   0  0  0  0  0  2  0  0  0  0  0  0
  189.2470  175.2540  144.0390 C   0  0  2  0  0  3  0  0  0  0  0  0
  189.1700  172.6150  140.7470 N   0  0  0  0  0  2  0  0  0  0  0  0
  188.1900  173.3390  138.4930 N   0  0  0  0  0  0  0  0  0  0  0  0
  188.6350  173.0110  139.5120 C   0  0  0  0  0  0  0  0  0  0  0  0
  192.2320  176.8160  144.4360 S   0  0  0  0  0  0  0  0  0  0  0  0
  193.4250  176.8110  145.6170 C   0  0  0  0  0  0  0  0  0  0  0  0
  191.0240  176.3420  145.5080 C   0  0  0  0  0  0  0  0  0  0  0  0
  192.8510  176.4360  146.8230 C   0  0  0  0  0  3  0  0  0  0  0  0
  191.5170  176.1830  146.7540 N   0  0  0  0  0  0  0  0  0  0  0  0
  195.2840  178.2740  145.7620 O   0  0  0  0  0  1  0  0  0  0  0  0
  194.8370  177.1490  145.4050 C   0  0  0  0  0  0  0  0  0  0  0  0
  195.6960  176.2190  144.8320 O   0  0  0  0  0  0  0  0  0  0  0  0
  187.2860  176.7510  145.7570 C   0  0  0  0  0  0  0  0  0  0  0  0
  186.5600  176.1430  146.5910 O   0  0  0  0  0  0  0  0  0  0  0  0
  186.6680  177.4200  144.5960 C   0  0  0  0  0  0  0  0  0  0  0  0
  185.8740  179.4160  143.4880 C   0  0  0  0  0  3  0  0  0  0  0  0
  185.4010  178.6550  142.4610 N   0  0  0  0  0  0  0  0  0  0  0  0
  185.5410  177.3020  142.4540 C   0  0  0  0  0  3  0  0  0  0  0  0
  186.1750  176.6620  143.5200 C   0  0  0  0  0  3  0  0  0  0  0  0
  186.5120  178.8120  144.5780 C   0  0  0  0  0  3  0  0  0  0  0  0
  2 14  1  0  0  0  0
  2  1  2  0  0  0  0
  3  7  1  0  0  0  0
  5  3  2  0  0  0  0
  5  6  1  0  0  0  0
  6  8  1  0  0  0  0
  7  4  1  0  0  0  0
  8  4  1  0  0  0  0
  8  2  1  1  0  0  0
  9  3  1  0  0  0  0
 10 11  3  0  0  0  0
 11  9  1  0  0  0  0
 12 14  1  0  0  0  0
 12 13  1  0  0  0  0
 13 15  2  0  0  0  0
 14 16  2  0  0  0  0
 16 15  1  0  0  0  0
 18 13  1  0  0  0  0
 18 17  1  0  0  0  0
 19 18  2  0  0  0  0
 20  1  1  0  0  0  0
 20 21  2  0  0  0  0
 22 20  1  0  0  0  0
 23 27  2  0  0  0  0
 24 23  1  0  0  0  0
 25 24  2  0  0  0  0
 25 26  1  0  0  0  0
 26 22  2  0  0  0  0
 27 22  1  0  0  0  0
M  END
>  <MODEL>
4

>  <REMARK>
 VINA RESULT:      -6.0      1.601      1.810
  Name = 
  6 active torsions:
  status: ('A' for Active; 'I' for Inactive)
    1  A    between atoms: C_1  and  C_8
    2  A    between atoms: N_6  and  C_8
    3  A    between atoms: C_9  and  N_25
    4  A    between atoms: C_10  and  C_11
    5  A    between atoms: C_15  and  C_16
    6  A    between atoms: C_15  and  C_24
                            x       y       z     vdW  Elec       q    Type
                         _______ _______ _______ _____ _____    ______ ____

>  <TORSDO>
F 6

$$$$
=
 OpenBabel11042415103D

 27 29  0  0  1  0  0  0  0  0999 V2000
  187.8650  174.5370  142.5150 N   0  0  0  0  0  0  0  0  0  0  0  0
  188.2610  175.4750  143.3280 C   0  0  0  0  0  0  0  0  0  0  0  0
  191.7130  176.0220  145.8190 C   0  0  0  0  0  0  0  0  0  0  0  0
  189.6900  174.6220  145.2460 C   0  0  0  0  0  2  0  0  0  0  0  0
  191.5190  176.7990  144.7930 N   0  0  0  0  0  0  0  0  0  0  0  0
  190.2110  176.8870  144.1430 C   0  0  0  0  0  2  0  0  0  0  0  0
  190.5760  175.1980  146.3620 C   0  0  0  0  0  2  0  0  0  0  0  0
  189.6190  175.4850  143.9790 C   0  0  2  0  0  3  0  0  0  0  0  0
  192.9880  175.9770  146.4720 N   0  0  0  0  0  2  0  0  0  0  0  0
  194.9530  177.4600  145.7620 N   0  0  0  0  0  0  0  0  0  0  0  0
  194.0650  176.7880  146.0850 C   0  0  0  0  0  0  0  0  0  0  0  0
  186.6530  176.7120  145.2650 S   0  0  0  0  0  0  0  0  0  0  0  0
  185.7980  178.0920  144.8430 C   0  0  0  0  0  0  0  0  0  0  0  0
  187.3020  176.5190  143.7240 C   0  0  0  0  0  0  0  0  0  0  0  0
  186.0360  178.3700  143.5050 C   0  0  0  0  0  3  0  0  0  0  0  0
  186.8780  177.4940  142.8940 N   0  0  0  0  0  0  0  0  0  0  0  0
  183.7190  179.0410  145.4760 O   0  0  0  0  0  0  0  0  0  0  0  0
  184.9410  178.8740  145.7430 C   0  0  0  0  0  0  0  0  0  0  0  0
  185.4680  179.4150  146.9090 O   0  0  0  0  0  1  0  0  0  0  0  0
  188.6380  173.4450  142.0010 C   0  0  0  0  0  0  0  0  0  0  0  0
  188.8070  172.4050  142.6960 O   0  0  0  0  0  0  0  0  0  0  0  0
  189.2650  173.5470  140.6690 C   0  0  0  0  0  0  0  0  0  0  0  0
  189.0930  173.7910  138.2710 C   0  0  0  0  0  3  0  0  0  0  0  0
  190.4410  173.6220  138.1600 N   0  0  0  0  0  0  0  0  0  0  0  0
  191.2260  173.4250  139.2520 C   0  0  0  0  0  3  0  0  0  0  0  0
  190.6530  173.3830  140.5240 C   0  0  0  0  0  3  0  0  0  0  0  0
  188.4780  173.7510  139.5270 C   0  0  0  0  0  3  0  0  0  0  0  0
  1  2  2  0  0  0  0
  2 14  1  0  0  0  0
  3  7  1  0  0  0  0
  3  9  1  0  0  0  0
  4  7  1  0  0  0  0
  5  3  2  0  0  0  0
  6  5  1  0  0  0  0
  8  2  1  1  0  0  0
  8  6  1  0  0  0  0
  8  4  1  0  0  0  0
 10 11  3  0  0  0  0
 11  9  1  0  0  0  0
 13 12  1  0  0  0  0
 13 18  1  0  0  0  0
 14 12  1  0  0  0  0
 15 13  2  0  0  0  0
 16 15  1  0  0  0  0
 16 14  2  0  0  0  0
 17 18  2  0  0  0  0
 18 19  1  0  0  0  0
 20  1  1  0  0  0  0
 20 21  2  0  0  0  0
 22 20  1  0  0  0  0
 23 27  1  0  0  0  0
 24 23  2  0  0  0  0
 24 25  1  0  0  0  0
 25 26  2  0  0  0  0
 26 22  1  0  0  0  0
 27 22  2  0  0  0  0
M  END
>  <MODEL>
5

>  <REMARK>
 VINA RESULT:      -6.0      3.179      7.420
  Name = 
  6 active torsions:
  status: ('A' for Active; 'I' for Inactive)
    1  A    between atoms: C_1  and  C_8
    2  A    between atoms: N_6  and  C_8
    3  A    between atoms: C_9  and  N_25
    4  A    between atoms: C_10  and  C_11
    5  A    between atoms: C_15  and  C_16
    6  A    between atoms: C_15  and  C_24
                            x       y       z     vdW  Elec       q    Type
                         _______ _______ _______ _____ _____    ______ ____

>  <TORSDO>
F 6

$$$$
=
 OpenBabel11042415103D

 27 29  0  0  1  0  0  0  0  0999 V2000
  190.3890  175.6370  146.5940 N   0  0  0  0  0  0  0  0  0  0  0  0
  190.9510  175.3040  145.4650 C   0  0  0  0  0  0  0  0  0  0  0  0
  189.7000  173.0090  142.0610 C   0  0  0  0  0  0  0  0  0  0  0  0
  190.1210  173.0860  144.5520 C   0  0  0  0  0  2  0  0  0  0  0  0
  189.9220  174.2870  141.9410 N   0  0  0  0  0  0  0  0  0  0  0  0
  190.6780  175.0240  142.9540 C   0  0  0  0  0  2  0  0  0  0  0  0
  190.2320  172.2640  143.2570 C   0  0  0  0  0  2  0  0  0  0  0  0
  190.2180  174.6050  144.3530 C   0  0  2  0  0  3  0  0  0  0  0  0
  188.9950  172.2910  141.0420 N   0  0  0  0  0  2  0  0  0  0  0  0
  188.1950  173.3950  138.8730 N   0  0  0  0  0  0  0  0  0  0  0  0
  188.5560  172.8970  139.8550 C   0  0  0  0  0  0  0  0  0  0  0  0
  193.5710  174.3120  145.3420 S   0  0  0  0  0  0  0  0  0  0  0  0
  194.8250  175.3770  145.0160 C   0  0  0  0  0  0  0  0  0  0  0  0
  192.3980  175.5180  145.3060 C   0  0  0  0  0  0  0  0  0  0  0  0
  194.2990  176.6550  144.8890 C   0  0  0  0  0  3  0  0  0  0  0  0
  192.9500  176.7220  145.0460 N   0  0  0  0  0  0  0  0  0  0  0  0
  196.7560  174.1630  145.6610 O   0  0  0  0  0  1  0  0  0  0  0  0
  196.2420  175.0150  144.8860 C   0  0  0  0  0  0  0  0  0  0  0  0
  197.0190  175.5940  143.8900 O   0  0  0  0  0  0  0  0  0  0  0  0
  189.0050  175.5230  146.9440 C   0  0  0  0  0  0  0  0  0  0  0  0
  188.6040  174.5480  147.6390 O   0  0  0  0  0  0  0  0  0  0  0  0
  188.0380  176.5310  146.4690 C   0  0  0  0  0  0  0  0  0  0  0  0
  185.9500  177.7270  146.7040 C   0  0  0  0  0  3  0  0  0  0  0  0
  186.1720  178.3440  145.5100 N   0  0  0  0  0  0  0  0  0  0  0  0
  187.2930  178.0980  144.7780 C   0  0  0  0  0  3  0  0  0  0  0  0
  188.2430  177.1880  145.2440 C   0  0  0  0  0  3  0  0  0  0  0  0
  186.8760  176.8040  147.2040 C   0  0  0  0  0  3  0  0  0  0  0  0
  1 20  1  0  0  0  0
  2  1  2  0  0  0  0
  3  7  1  0  0  0  0
  5  3  2  0  0  0  0
  5  6  1  0  0  0  0
  6  8  1  0  0  0  0
  7  4  1  0  0  0  0
  8  4  1  0  0  0  0
  8  2  1  1  0  0  0
  9  3  1  0  0  0  0
 10 11  3  0  0  0  0
 11  9  1  0  0  0  0
 13 12  1  0  0  0  0
 14 12  1  0  0  0  0
 14  2  1  0  0  0  0
 15 13  2  0  0  0  0
 15 16  1  0  0  0  0
 16 14  2  0  0  0  0
 18 13  1  0  0  0  0
 18 17  1  0  0  0  0
 19 18  2  0  0  0  0
 20 21  2  0  0  0  0
 22 20  1  0  0  0  0
 22 27  1  0  0  0  0
 23 27  2  0  0  0  0
 24 23  1  0  0  0  0
 25 26  1  0  0  0  0
 25 24  2  0  0  0  0
 26 22  2  0  0  0  0
M  END
>  <MODEL>
6

>  <REMARK>
 VINA RESULT:      -5.9      2.103      2.715
  Name = 
  6 active torsions:
  status: ('A' for Active; 'I' for Inactive)
    1  A    between atoms: C_1  and  C_8
    2  A    between atoms: N_6  and  C_8
    3  A    between atoms: C_9  and  N_25
    4  A    between atoms: C_10  and  C_11
    5  A    between atoms: C_15  and  C_16
    6  A    between atoms: C_15  and  C_24
                            x       y       z     vdW  Elec       q    Type
                         _______ _______ _______ _____ _____    ______ ____

>  <TORSDO>
F 6

$$$$
=
 OpenBabel11042415103D

 27 29  0  0  1  0  0  0  0  0999 V2000
  190.0270  173.8210  142.4050 N   0  0  0  0  0  0  0  0  0  0  0  0
  189.9260  174.9380  143.0700 C   0  0  0  0  0  0  0  0  0  0  0  0
  186.9140  177.9730  143.4310 C   0  0  0  0  0  0  0  0  0  0  0  0
  188.5530  176.7530  141.9450 C   0  0  0  0  0  2  0  0  0  0  0  0
  187.1560  177.1710  144.4290 N   0  0  0  0  0  0  0  0  0  0  0  0
  188.3850  176.3800  144.4860 C   0  0  0  0  0  2  0  0  0  0  0  0
  187.9130  178.1010  142.3120 C   0  0  0  0  0  2  0  0  0  0  0  0
  188.6690  175.7630  143.1130 C   0  0  2  0  0  3  0  0  0  0  0  0
  185.7260  178.7740  143.4080 N   0  0  0  0  0  2  0  0  0  0  0  0
  184.0340  178.7850  145.3330 N   0  0  0  0  0  0  0  0  0  0  0  0
  184.7980  178.7810  144.4610 C   0  0  0  0  0  0  0  0  0  0  0  0
  191.7410  174.9830  145.2080 S   0  0  0  0  0  0  0  0  0  0  0  0
  193.0680  176.0070  145.1220 C   0  0  0  0  0  0  0  0  0  0  0  0
  191.1290  175.4820  143.7220 C   0  0  0  0  0  0  0  0  0  0  0  0
  193.0000  176.7200  143.9330 C   0  0  0  0  0  3  0  0  0  0  0  0
  191.9230  176.4170  143.1600 N   0  0  0  0  0  0  0  0  0  0  0  0
  194.1120  177.0830  146.9580 O   0  0  0  0  0  1  0  0  0  0  0  0
  194.1220  176.1260  146.1360 C   0  0  0  0  0  0  0  0  0  0  0  0
  195.1260  175.1680  146.2100 O   0  0  0  0  0  0  0  0  0  0  0  0
  188.9840  173.1220  141.7150 C   0  0  0  0  0  0  0  0  0  0  0  0
  188.0670  172.5470  142.3640 O   0  0  0  0  0  0  0  0  0  0  0  0
  188.9960  173.0480  140.2410 C   0  0  0  0  0  0  0  0  0  0  0  0
  189.7070  171.9880  138.1890 C   0  0  0  0  0  3  0  0  0  0  0  0
  189.1080  172.9800  137.4720 N   0  0  0  0  0  0  0  0  0  0  0  0
  188.4480  174.0010  138.0820 C   0  0  0  0  0  3  0  0  0  0  0  0
  188.3820  174.0530  139.4750 C   0  0  0  0  0  3  0  0  0  0  0  0
  189.6670  172.0060  139.5870 C   0  0  0  0  0  3  0  0  0  0  0  0
  1  2  2  0  0  0  0
  2 14  1  0  0  0  0
  3  5  2  0  0  0  0
  4  7  1  0  0  0  0
  4  8  1  0  0  0  0
  5  6  1  0  0  0  0
  7  3  1  0  0  0  0
  8  2  1  1  0  0  0
  8  6  1  0  0  0  0
  9  3  1  0  0  0  0
  9 11  1  0  0  0  0
 11 10  3  0  0  0  0
 13 12  1  0  0  0  0
 13 18  1  0  0  0  0
 14 12  1  0  0  0  0
 15 13  2  0  0  0  0
 16 14  2  0  0  0  0
 16 15  1  0  0  0  0
 18 19  2  0  0  0  0
 18 17  1  0  0  0  0
 20 21  2  0  0  0  0
 20  1  1  0  0  0  0
 22 20  1  0  0  0  0
 23 27  2  0  0  0  0
 24 25  2  0  0  0  0
 24 23  1  0  0  0  0
 25 26  1  0  0  0  0
 26 22  2  0  0  0  0
 27 22  1  0  0  0  0
M  END
>  <MODEL>
7

>  <REMARK>
 VINA RESULT:      -5.9      1.981      6.184
  Name = 
  6 active torsions:
  status: ('A' for Active; 'I' for Inactive)
    1  A    between atoms: C_1  and  C_8
    2  A    between atoms: N_6  and  C_8
    3  A    between atoms: C_9  and  N_25
    4  A    between atoms: C_10  and  C_11
    5  A    between atoms: C_15  and  C_16
    6  A    between atoms: C_15  and  C_24
                            x       y       z     vdW  Elec       q    Type
                         _______ _______ _______ _____ _____    ______ ____

>  <TORSDO>
F 6

$$$$
=
 OpenBabel11042415103D

 27 29  0  0  1  0  0  0  0  0999 V2000
  191.5430  176.6560  144.7950 N   0  0  0  0  0  0  0  0  0  0  0  0
  191.7010  175.5130  144.1890 C   0  0  0  0  0  0  0  0  0  0  0  0
  189.4020  173.1960  141.4020 C   0  0  0  0  0  0  0  0  0  0  0  0
  189.6960  174.0120  143.7760 C   0  0  0  0  0  2  0  0  0  0  0  0
  190.3800  173.9440  140.9790 N   0  0  0  0  0  0  0  0  0  0  0  0
  191.3970  174.4570  141.8970 C   0  0  0  0  0  2  0  0  0  0  0  0
  189.3100  172.8380  142.8630 C   0  0  0  0  0  2  0  0  0  0  0  0
  190.7290  174.9750  143.1740 C   0  0  2  0  0  3  0  0  0  0  0  0
  188.4370  172.6650  140.4870 N   0  0  0  0  0  2  0  0  0  0  0  0
  188.5800  173.0440  137.9560 N   0  0  0  0  0  0  0  0  0  0  0  0
  188.5150  172.8750  139.1010 C   0  0  0  0  0  0  0  0  0  0  0  0
  194.4430  175.1060  144.6170 S   0  0  0  0  0  0  0  0  0  0  0  0
  194.9550  173.6330  145.2380 C   0  0  0  0  0  0  0  0  0  0  0  0
  192.8230  174.6490  144.5910 C   0  0  0  0  0  0  0  0  0  0  0  0
  193.8470  172.8150  145.4080 C   0  0  0  0  0  3  0  0  0  0  0  0
  192.6670  173.3910  145.0520 N   0  0  0  0  0  0  0  0  0  0  0  0
  196.6150  172.1430  146.0390 O   0  0  0  0  0  1  0  0  0  0  0  0
  196.3440  173.2740  145.5490 C   0  0  0  0  0  0  0  0  0  0  0  0
  197.3700  174.1700  145.2810 O   0  0  0  0  0  0  0  0  0  0  0  0
  190.5320  177.6400  144.5480 C   0  0  0  0  0  0  0  0  0  0  0  0
  190.8090  178.6840  143.8950 O   0  0  0  0  0  0  0  0  0  0  0  0
  189.1700  177.4500  145.0830 C   0  0  0  0  0  0  0  0  0  0  0  0
  187.6770  176.8550  146.8880 C   0  0  0  0  0  3  0  0  0  0  0  0
  186.6120  176.9830  146.0460 N   0  0  0  0  0  0  0  0  0  0  0  0
  186.7730  177.3430  144.7440 C   0  0  0  0  0  3  0  0  0  0  0  0
  188.0530  177.5810  144.2410 C   0  0  0  0  0  3  0  0  0  0  0  0
  188.9760  177.0800  146.4200 C   0  0  0  0  0  3  0  0  0  0  0  0
  2 14  1  0  0  0  0
  2  1  2  0  0  0  0
  3  7  1  0  0  0  0
  5  3  2  0  0  0  0
  5  6  1  0  0  0  0
  6  8  1  0  0  0  0
  7  4  1  0  0  0  0
  8  4  1  0  0  0  0
  8  2  1  1  0  0  0
  9  3  1  0  0  0  0
 10 11  3  0  0  0  0
 11  9  1  0  0  0  0
 12 13  1  0  0  0  0
 13 15  2  0  0  0  0
 13 18  1  0  0  0  0
 14 12  1  0  0  0  0
 14 16  2  0  0  0  0
 16 15  1  0  0  0  0
 18 17  1  0  0  0  0
 19 18  2  0  0  0  0
 20  1  1  0  0  0  0
 20 22  1  0  0  0  0
 21 20  2  0  0  0  0
 22 27  1  0  0  0  0
 24 23  1  0  0  0  0
 25 24  2  0  0  0  0
 26 25  1  0  0  0  0
 26 22  2  0  0  0  0
 27 23  2  0  0  0  0
M  END
>  <MODEL>
8

>  <REMARK>
 VINA RESULT:      -5.8      2.254      2.964
  Name = 
  6 active torsions:
  status: ('A' for Active; 'I' for Inactive)
    1  A    between atoms: C_1  and  C_8
    2  A    between atoms: N_6  and  C_8
    3  A    between atoms: C_9  and  N_25
    4  A    between atoms: C_10  and  C_11
    5  A    between atoms: C_15  and  C_16
    6  A    between atoms: C_15  and  C_24
                            x       y       z     vdW  Elec       q    Type
                         _______ _______ _______ _____ _____    ______ ____

>  <TORSDO>
F 6

$$$$
=
 OpenBabel11042415103D

 27 29  0  0  1  0  0  0  0  0999 V2000
  189.0650  175.7100  145.1160 N   0  0  0  0  0  0  0  0  0  0  0  0
  188.8740  175.4280  143.8580 C   0  0  0  0  0  0  0  0  0  0  0  0
  190.5920  172.6630  141.0610 C   0  0  0  0  0  0  0  0  0  0  0  0
  190.8620  174.7770  142.4190 C   0  0  0  0  0  2  0  0  0  0  0  0
  189.4490  172.3960  141.6250 N   0  0  0  0  0  0  0  0  0  0  0  0
  188.6680  173.4390  142.2890 C   0  0  0  0  0  2  0  0  0  0  0  0
  191.1270  174.0710  141.0800 C   0  0  0  0  0  2  0  0  0  0  0  0
  189.5900  174.3140  143.1430 C   0  0  2  0  0  3  0  0  0  0  0  0
  191.3280  171.6420  140.3770 N   0  0  0  0  0  2  0  0  0  0  0  0
  190.4460  169.2500  140.1140 N   0  0  0  0  0  0  0  0  0  0  0  0
  190.8470  170.3310  140.2340 C   0  0  0  0  0  0  0  0  0  0  0  0
  186.3210  176.3420  143.1420 S   0  0  0  0  0  0  0  0  0  0  0  0
  186.1910  177.6000  142.0390 C   0  0  0  0  0  0  0  0  0  0  0  0
  188.0020  176.3070  143.0610 C   0  0  0  0  0  0  0  0  0  0  0  0
  187.4670  177.9630  141.6300 C   0  0  0  0  0  3  0  0  0  0  0  0
  188.4650  177.2430  142.2080 N   0  0  0  0  0  0  0  0  0  0  0  0
  184.8330  178.6590  140.4100 O   0  0  0  0  0  0  0  0  0  0  0  0
  184.9370  178.2130  141.5860 C   0  0  0  0  0  0  0  0  0  0  0  0
  183.8470  178.2840  142.4450 O   0  0  0  0  0  1  0  0  0  0  0  0
  189.8600  174.9820  146.0600 C   0  0  0  0  0  0  0  0  0  0  0  0
  189.3180  174.1460  146.8350 O   0  0  0  0  0  0  0  0  0  0  0  0
  191.3110  175.2310  146.1500 C   0  0  0  0  0  0  0  0  0  0  0  0
  193.5980  174.5040  145.8600 C   0  0  0  0  0  3  0  0  0  0  0  0
  194.0360  175.6630  146.4280 N   0  0  0  0  0  0  0  0  0  0  0  0
  193.1680  176.6190  146.8560 C   0  0  0  0  0  3  0  0  0  0  0  0
  191.7930  176.4190  146.7250 C   0  0  0  0  0  3  0  0  0  0  0  0
  192.2270  174.2640  145.7150 C   0  0  0  0  0  3  0  0  0  0  0  0
  1 20  1  0  0  0  0
  2  1  2  0  0  0  0
  3  7  1  0  0  0  0
  3  5  2  0  0  0  0
  4  8  1  0  0  0  0
  5  6  1  0  0  0  0
  6  8  1  0  0  0  0
  7  4  1  0  0  0  0
  8  2  1  6  0  0  0
  9  3  1  0  0  0  0
 10 11  3  0  0  0  0
 11  9  1  0  0  0  0
 13 12  1  0  0  0  0
 14 12  1  0  0  0  0
 14  2  1  0  0  0  0
 15 13  2  0  0  0  0
 15 16  1  0  0  0  0
 16 14  2  0  0  0  0
 17 18  2  0  0  0  0
 18 13  1  0  0  0  0
 18 19  1  0  0  0  0
 20 22  1  0  0  0  0
 20 21  2  0  0  0  0
 22 26  1  0  0  0  0
 23 24  2  0  0  0  0
 24 25  1  0  0  0  0
 26 25  2  0  0  0  0
 27 23  1  0  0  0  0
 27 22  2  0  0  0  0
M  END
>  <MODEL>
9

>  <REMARK>
 VINA RESULT:      -5.8      3.307      6.528
  Name = 
  6 active torsions:
  status: ('A' for Active; 'I' for Inactive)
    1  A    between atoms: C_1  and  C_8
    2  A    between atoms: N_6  and  C_8
    3  A    between atoms: C_9  and  N_25
    4  A    between atoms: C_10  and  C_11
    5  A    between atoms: C_15  and  C_16
    6  A    between atoms: C_15  and  C_24
                            x       y       z     vdW  Elec       q    Type
                         _______ _______ _______ _____ _____    ______ ____

>  <TORSDO>
F 6

$$$$
