=
 OpenBabel11042416493D

 29 34  0  0  0  0  0  0  0  0999 V2000
  187.6960  177.2340  143.9170 C   0  0  0  0  0  0  0  0  0  0  0  0
  189.6330  177.6470  144.7630 C   0  0  0  0  0  0  0  0  0  0  0  0
  185.4260  177.4030  144.6000 O   0  0  0  0  0  0  0  0  0  0  0  0
  191.6590  176.8940  144.6040 C   0  0  0  0  0  0  0  0  0  0  0  0
  189.8290  177.5760  143.4290 C   0  0  0  0  0  0  0  0  0  0  0  0
  191.1860  177.0290  143.1750 C   0  0  0  0  0  3  0  0  0  0  0  0
  188.6020  177.2830  142.8650 C   0  0  0  0  0  0  0  0  0  0  0  0
  186.3950  177.4760  146.7750 C   0  0  0  0  0  2  0  0  0  0  0  0
  190.7650  177.2150  145.4940 N   0  0  0  0  0  2  0  0  0  0  0  0
  188.3430  177.4340  145.0970 N   0  0  0  0  0  0  0  0  0  0  0  0
  186.3090  176.6800  143.7960 C   0  0  0  0  0  2  0  0  0  0  0  0
  185.4450  176.7520  145.8370 C   0  0  0  0  0  2  0  0  0  0  0  0
  188.6200  176.9090  147.3600 O   0  0  0  0  0  0  0  0  0  0  0  0
  187.8330  177.2260  146.4290 C   0  0  0  0  0  0  0  0  0  0  0  0
  194.6160  174.9640  145.3580 C   0  0  0  0  0  0  0  0  0  0  0  0
  192.9870  176.3820  144.9680 C   0  0  0  0  0  0  0  0  0  0  0  0
  193.7620  176.7660  146.1700 C   0  0  0  0  0  3  0  0  0  0  0  0
  194.6590  173.6470  145.4590 C   0  0  0  0  0  3  0  0  0  0  0  0
  193.6640  173.1690  144.4640 C   0  0  0  0  0  3  0  0  0  0  0  0
  192.9980  174.1480  143.9190 N   0  0  0  0  0  0  0  0  0  0  0  0
  194.7140  175.9080  146.4120 N   0  0  0  0  0  0  0  0  0  0  0  0
  193.5820  175.3090  144.4760 C   0  0  0  0  0  0  0  0  0  0  0  0
  188.4790  173.6510  140.0160 C   0  0  0  0  0  0  0  0  0  0  0  0
  188.3610  176.7570  141.5540 N   0  0  0  0  0  2  0  0  0  0  0  0
  188.1480  174.9150  140.0190 O   0  0  0  0  0  0  0  0  0  0  0  0
  189.0940  173.3360  141.2090 C   0  0  0  0  0  3  0  0  0  0  0  0
  189.1300  174.4610  141.9540 N   0  0  0  0  0  0  0  0  0  0  0  0
  188.5340  175.3880  141.1770 C   0  0  0  0  0  0  0  0  0  0  0  0
  188.2260  172.7130  138.8910 C   0  0  0  0  0  1  0  0  0  0  0  0
  1 10  1  0  0  0  0
  2 10  1  0  0  0  0
  2  9  1  0  0  0  0
  3 12  1  0  0  0  0
  4 16  1  0  0  0  0
  4  9  1  0  0  0  0
  5  2  2  0  0  0  0
  6  5  1  0  0  0  0
  6  4  2  0  0  0  0
  7  5  1  0  0  0  0
  7  1  2  0  0  0  0
 10 14  1  0  0  0  0
 11  1  1  0  0  0  0
 11  3  1  0  0  0  0
 12  8  1  0  0  0  0
 14  8  1  0  0  0  0
 14 13  2  0  0  0  0
 15 18  2  0  0  0  0
 15 21  1  0  0  0  0
 16 17  1  0  0  0  0
 17 21  2  0  0  0  0
 19 18  1  0  0  0  0
 20 19  2  0  0  0  0
 20 22  1  0  0  0  0
 22 16  2  0  0  0  0
 22 15  1  0  0  0  0
 23 25  1  0  0  0  0
 23 26  2  0  0  0  0
 24  7  1  0  0  0  0
 25 28  1  0  0  0  0
 26 27  1  0  0  0  0
 28 24  1  0  0  0  0
 28 27  2  0  0  0  0
 29 23  1  0  0  0  0
M  END
>  <MODEL>
1

>  <REMARK>
 VINA RESULT:      -7.7      0.000      0.000
  Name = 
  2 active torsions:
  status: ('A' for Active; 'I' for Inactive)
    1  A    between atoms: C_3  and  C_6
    2  A    between atoms: C_10  and  N_15
                            x       y       z     vdW  Elec       q    Type
                         _______ _______ _______ _____ _____    ______ ____

>  <TORSDO>
F 2

$$$$
=
 OpenBabel11042416493D

 29 34  0  0  0  0  0  0  0  0999 V2000
  190.3230  174.9250  141.7190 C   0  0  0  0  0  0  0  0  0  0  0  0
  188.4690  175.7350  142.4560 C   0  0  0  0  0  0  0  0  0  0  0  0
  191.0100  173.4050  140.0260 O   0  0  0  0  0  0  0  0  0  0  0  0
  187.6550  176.4630  144.3270 C   0  0  0  0  0  0  0  0  0  0  0  0
  189.4310  176.5700  142.9030 C   0  0  0  0  0  0  0  0  0  0  0  0
  189.0130  177.1170  144.2190 C   0  0  0  0  0  3  0  0  0  0  0  0
  190.6360  176.0540  142.4660 C   0  0  0  0  0  0  0  0  0  0  0  0
  188.7320  172.7140  140.1390 C   0  0  0  0  0  2  0  0  0  0  0  0
  187.3690  175.6610  143.3430 N   0  0  0  0  0  2  0  0  0  0  0  0
  188.9800  174.7140  141.7360 N   0  0  0  0  0  0  0  0  0  0  0  0
  191.3350  173.9070  141.2880 C   0  0  0  0  0  2  0  0  0  0  0  0
  190.1870  172.3020  140.2750 C   0  0  0  0  0  2  0  0  0  0  0  0
  187.1720  173.2330  141.8440 O   0  0  0  0  0  0  0  0  0  0  0  0
  188.2660  173.5390  141.3010 C   0  0  0  0  0  0  0  0  0  0  0  0
  185.1660  177.5060  146.7260 C   0  0  0  0  0  0  0  0  0  0  0  0
  186.7550  176.6590  145.4720 C   0  0  0  0  0  0  0  0  0  0  0  0
  187.1670  176.7290  146.8930 C   0  0  0  0  0  3  0  0  0  0  0  0
  184.4370  178.6050  146.6360 C   0  0  0  0  0  3  0  0  0  0  0  0
  184.2180  178.7840  145.1780 C   0  0  0  0  0  3  0  0  0  0  0  0
  184.8860  177.9200  144.4660 N   0  0  0  0  0  0  0  0  0  0  0  0
  186.2290  177.2540  147.6310 N   0  0  0  0  0  0  0  0  0  0  0  0
  185.5060  177.0920  145.4310 C   0  0  0  0  0  0  0  0  0  0  0  0
  194.0370  175.1410  145.4530 C   0  0  0  0  0  0  0  0  0  0  0  0
  191.9390  176.3620  142.9750 N   0  0  0  0  0  2  0  0  0  0  0  0
  193.8180  175.8920  144.4050 O   0  0  0  0  0  0  0  0  0  0  0  0
  192.8820  174.4650  145.7820 C   0  0  0  0  0  3  0  0  0  0  0  0
  191.9350  174.8280  144.8920 N   0  0  0  0  0  0  0  0  0  0  0  0
  192.5660  175.6950  144.0750 C   0  0  0  0  0  0  0  0  0  0  0  0
  195.3370  175.0470  146.1670 C   0  0  0  0  0  1  0  0  0  0  0  0
  1 10  1  0  0  0  0
  1  7  2  0  0  0  0
  2  5  2  0  0  0  0
  2  9  1  0  0  0  0
  3 12  1  0  0  0  0
  3 11  1  0  0  0  0
  4 16  1  0  0  0  0
  5  6  1  0  0  0  0
  6  4  2  0  0  0  0
  7  5  1  0  0  0  0
  7 24  1  0  0  0  0
  8 12  1  0  0  0  0
  8 14  1  0  0  0  0
  9  4  1  0  0  0  0
 10  2  1  0  0  0  0
 11  1  1  0  0  0  0
 14 10  1  0  0  0  0
 14 13  2  0  0  0  0
 15 21  1  0  0  0  0
 16 17  1  0  0  0  0
 17 21  2  0  0  0  0
 18 15  2  0  0  0  0
 19 18  1  0  0  0  0
 20 19  2  0  0  0  0
 20 22  1  0  0  0  0
 22 16  2  0  0  0  0
 22 15  1  0  0  0  0
 23 26  2  0  0  0  0
 23 29  1  0  0  0  0
 24 28  1  0  0  0  0
 25 23  1  0  0  0  0
 27 26  1  0  0  0  0
 28 25  1  0  0  0  0
 28 27  2  0  0  0  0
M  END
>  <MODEL>
2

>  <REMARK>
 VINA RESULT:      -7.7      2.168      6.967
  Name = 
  2 active torsions:
  status: ('A' for Active; 'I' for Inactive)
    1  A    between atoms: C_3  and  C_6
    2  A    between atoms: C_10  and  N_15
                            x       y       z     vdW  Elec       q    Type
                         _______ _______ _______ _____ _____    ______ ____

>  <TORSDO>
F 2

$$$$
=
 OpenBabel11042416493D

 29 34  0  0  0  0  0  0  0  0999 V2000
  191.4390  175.6560  144.5360 C   0  0  0  0  0  0  0  0  0  0  0  0
  189.7660  175.6260  145.8910 C   0  0  0  0  0  0  0  0  0  0  0  0
  193.8100  175.6210  144.6950 O   0  0  0  0  0  0  0  0  0  0  0  0
  187.7330  176.3730  145.9640 C   0  0  0  0  0  0  0  0  0  0  0  0
  189.2650  175.2660  144.6900 C   0  0  0  0  0  0  0  0  0  0  0  0
  187.8680  175.7590  144.5890 C   0  0  0  0  0  3  0  0  0  0  0  0
  190.3170  175.3050  143.7950 C   0  0  0  0  0  0  0  0  0  0  0  0
  193.3730  176.3040  146.9360 C   0  0  0  0  0  2  0  0  0  0  0  0
  188.8190  176.3210  146.6790 N   0  0  0  0  0  2  0  0  0  0  0  0
  191.0910  175.8800  145.8310 N   0  0  0  0  0  0  0  0  0  0  0  0
  192.7400  176.0790  143.9240 C   0  0  0  0  0  2  0  0  0  0  0  0
  194.0550  176.6400  145.6210 C   0  0  0  0  0  2  0  0  0  0  0  0
  191.3250  177.1270  147.7970 O   0  0  0  0  0  0  0  0  0  0  0  0
  191.8870  176.4890  146.8670 C   0  0  0  0  0  0  0  0  0  0  0  0
  184.6580  178.2130  146.4050 C   0  0  0  0  0  0  0  0  0  0  0  0
  186.5080  177.0330  146.4350 C   0  0  0  0  0  0  0  0  0  0  0  0
  186.3950  177.8920  147.6350 C   0  0  0  0  0  3  0  0  0  0  0  0
  184.1060  179.0000  145.4970 C   0  0  0  0  0  3  0  0  0  0  0  0
  184.4340  178.3530  144.2010 C   0  0  0  0  0  3  0  0  0  0  0  0
  185.2320  177.3330  144.3430 N   0  0  0  0  0  0  0  0  0  0  0  0
  185.3070  178.6090  147.6030 N   0  0  0  0  0  0  0  0  0  0  0  0
  185.3970  177.2230  145.7430 C   0  0  0  0  0  0  0  0  0  0  0  0
  188.6990  173.5330  139.8500 C   0  0  0  0  0  0  0  0  0  0  0  0
  190.2300  175.3630  142.3670 N   0  0  0  0  0  2  0  0  0  0  0  0
  189.3410  174.5930  140.2660 O   0  0  0  0  0  0  0  0  0  0  0  0
  188.4980  172.6740  140.9090 C   0  0  0  0  0  3  0  0  0  0  0  0
  189.0420  173.2460  142.0030 N   0  0  0  0  0  0  0  0  0  0  0  0
  189.5360  174.4170  141.5490 C   0  0  0  0  0  0  0  0  0  0  0  0
  188.2640  173.3060  138.4470 C   0  0  0  0  0  1  0  0  0  0  0  0
  1 10  1  0  0  0  0
  2  9  1  0  0  0  0
  3 12  1  0  0  0  0
  4 16  1  0  0  0  0
  4  9  1  0  0  0  0
  5  2  2  0  0  0  0
  6  5  1  0  0  0  0
  6  4  2  0  0  0  0
  7  1  2  0  0  0  0
  7  5  1  0  0  0  0
 10  2  1  0  0  0  0
 10 14  1  0  0  0  0
 11  1  1  0  0  0  0
 11  3  1  0  0  0  0
 12  8  1  0  0  0  0
 14  8  1  0  0  0  0
 14 13  2  0  0  0  0
 15 21  1  0  0  0  0
 16 17  1  0  0  0  0
 18 15  2  0  0  0  0
 19 20  2  0  0  0  0
 19 18  1  0  0  0  0
 20 22  1  0  0  0  0
 21 17  2  0  0  0  0
 22 15  1  0  0  0  0
 22 16  2  0  0  0  0
 23 25  1  0  0  0  0
 23 26  2  0  0  0  0
 24  7  1  0  0  0  0
 25 28  1  0  0  0  0
 26 27  1  0  0  0  0
 28 27  2  0  0  0  0
 28 24  1  0  0  0  0
 29 23  1  0  0  0  0
M  END
>  <MODEL>
3

>  <REMARK>
 VINA RESULT:      -7.6      2.257      6.069
  Name = 
  2 active torsions:
  status: ('A' for Active; 'I' for Inactive)
    1  A    between atoms: C_3  and  C_6
    2  A    between atoms: C_10  and  N_15
                            x       y       z     vdW  Elec       q    Type
                         _______ _______ _______ _____ _____    ______ ____

>  <TORSDO>
F 2

$$$$
=
 OpenBabel11042416493D

 29 34  0  0  0  0  0  0  0  0999 V2000
  191.2510  174.7530  144.0720 C   0  0  0  0  0  0  0  0  0  0  0  0
  189.4080  175.5270  144.8730 C   0  0  0  0  0  0  0  0  0  0  0  0
  193.3120  173.9340  144.9240 O   0  0  0  0  0  0  0  0  0  0  0  0
  187.8580  176.9270  144.2970 C   0  0  0  0  0  0  0  0  0  0  0  0
  189.1260  175.1650  143.6040 C   0  0  0  0  0  0  0  0  0  0  0  0
  188.0910  176.0830  143.0650 C   0  0  0  0  0  3  0  0  0  0  0  0
  190.3030  174.6900  143.0580 C   0  0  0  0  0  0  0  0  0  0  0  0
  192.6190  175.0910  146.8880 C   0  0  0  0  0  2  0  0  0  0  0  0
  188.6280  176.6270  145.3020 N   0  0  0  0  0  2  0  0  0  0  0  0
  190.7000  175.2970  145.1900 N   0  0  0  0  0  0  0  0  0  0  0  0
  192.7240  174.5960  143.8450 C   0  0  0  0  0  2  0  0  0  0  0  0
  193.6830  174.9470  145.8130 C   0  0  0  0  0  2  0  0  0  0  0  0
  190.8870  176.6990  147.0550 O   0  0  0  0  0  0  0  0  0  0  0  0
  191.3810  175.7610  146.3730 C   0  0  0  0  0  0  0  0  0  0  0  0
  185.1200  179.2050  144.8890 C   0  0  0  0  0  0  0  0  0  0  0  0
  186.8950  178.0360  144.3440 C   0  0  0  0  0  0  0  0  0  0  0  0
  186.3300  178.7410  143.1700 C   0  0  0  0  0  3  0  0  0  0  0  0
  184.0110  178.9070  145.5430 C   0  0  0  0  0  3  0  0  0  0  0  0
  184.4460  177.9440  146.5870 C   0  0  0  0  0  3  0  0  0  0  0  0
  185.6990  177.6080  146.4600 N   0  0  0  0  0  0  0  0  0  0  0  0
  185.2620  179.4160  143.4940 N   0  0  0  0  0  0  0  0  0  0  0  0
  186.1550  178.3970  145.3790 C   0  0  0  0  0  0  0  0  0  0  0  0
  189.0610  173.1550  138.8830 C   0  0  0  0  0  0  0  0  0  0  0  0
  190.6050  174.5340  141.6660 N   0  0  0  0  0  2  0  0  0  0  0  0
  190.0010  173.8820  139.4290 O   0  0  0  0  0  0  0  0  0  0  0  0
  188.2300  172.6660  139.8680 C   0  0  0  0  0  3  0  0  0  0  0  0
  188.6940  173.1210  141.0510 N   0  0  0  0  0  0  0  0  0  0  0  0
  189.7720  173.8610  140.7180 C   0  0  0  0  0  0  0  0  0  0  0  0
  188.9280  172.9040  137.4240 C   0  0  0  0  0  1  0  0  0  0  0  0
  1 10  1  0  0  0  0
  2 10  1  0  0  0  0
  2  9  1  0  0  0  0
  3 12  1  0  0  0  0
  4 16  1  0  0  0  0
  4  9  1  0  0  0  0
  5  2  2  0  0  0  0
  6  5  1  0  0  0  0
  6  4  2  0  0  0  0
  7  5  1  0  0  0  0
  7  1  2  0  0  0  0
 10 14  1  0  0  0  0
 11  1  1  0  0  0  0
 11  3  1  0  0  0  0
 12  8  1  0  0  0  0
 14  8  1  0  0  0  0
 14 13  2  0  0  0  0
 15 22  1  0  0  0  0
 15 18  1  0  0  0  0
 16 22  1  0  0  0  0
 17 21  1  0  0  0  0
 17 16  2  0  0  0  0
 18 19  2  0  0  0  0
 20 19  1  0  0  0  0
 21 15  2  0  0  0  0
 22 20  2  0  0  0  0
 23 25  1  0  0  0  0
 23 26  2  0  0  0  0
 24  7  1  0  0  0  0
 25 28  1  0  0  0  0
 26 27  1  0  0  0  0
 28 27  2  0  0  0  0
 28 24  1  0  0  0  0
 29 23  1  0  0  0  0
M  END
>  <MODEL>
4

>  <REMARK>
 VINA RESULT:      -7.6      2.257      6.107
  Name = 
  2 active torsions:
  status: ('A' for Active; 'I' for Inactive)
    1  A    between atoms: C_3  and  C_6
    2  A    between atoms: C_10  and  N_15
                            x       y       z     vdW  Elec       q    Type
                         _______ _______ _______ _____ _____    ______ ____

>  <TORSDO>
F 2

$$$$
=
 OpenBabel11042416493D

 29 34  0  0  0  0  0  0  0  0999 V2000
  190.8140  174.5150  142.1770 C   0  0  0  0  0  0  0  0  0  0  0  0
  189.0750  175.6610  142.7220 C   0  0  0  0  0  0  0  0  0  0  0  0
  191.3930  172.9050  140.5270 O   0  0  0  0  0  0  0  0  0  0  0  0
  188.1990  176.5160  144.5100 C   0  0  0  0  0  0  0  0  0  0  0  0
  190.1190  176.2910  143.3020 C   0  0  0  0  0  0  0  0  0  0  0  0
  189.6600  176.8970  144.5770 C   0  0  0  0  0  3  0  0  0  0  0  0
  191.2460  175.5560  142.9890 C   0  0  0  0  0  0  0  0  0  0  0  0
  189.0280  172.6660  140.3570 C   0  0  0  0  0  2  0  0  0  0  0  0
  187.8840  175.7920  143.4750 N   0  0  0  0  0  2  0  0  0  0  0  0
  189.4630  174.5660  142.0340 N   0  0  0  0  0  0  0  0  0  0  0  0
  191.6570  173.3240  141.8320 C   0  0  0  0  0  2  0  0  0  0  0  0
  190.3520  171.9790  140.6460 C   0  0  0  0  0  2  0  0  0  0  0  0
  187.4060  173.4610  141.8890 O   0  0  0  0  0  0  0  0  0  0  0  0
  188.5950  173.5550  141.4840 C   0  0  0  0  0  0  0  0  0  0  0  0
  185.4740  177.7790  146.5140 C   0  0  0  0  0  0  0  0  0  0  0  0
  187.2250  176.8720  145.5500 C   0  0  0  0  0  0  0  0  0  0  0  0
  187.5510  177.3690  146.9070 C   0  0  0  0  0  3  0  0  0  0  0  0
  184.6070  178.6990  146.1260 C   0  0  0  0  0  3  0  0  0  0  0  0
  184.4410  178.4570  144.6700 C   0  0  0  0  0  3  0  0  0  0  0  0
  185.2550  177.5430  144.2220 N   0  0  0  0  0  0  0  0  0  0  0  0
  186.5140  177.9280  147.4670 N   0  0  0  0  0  0  0  0  0  0  0  0
  185.9320  177.0940  145.3800 C   0  0  0  0  0  0  0  0  0  0  0  0
  195.7770  176.4310  142.8170 C   0  0  0  0  0  0  0  0  0  0  0  0
  192.5150  175.6020  143.6530 N   0  0  0  0  0  2  0  0  0  0  0  0
  194.8600  176.1450  143.7040 O   0  0  0  0  0  0  0  0  0  0  0  0
  195.2200  176.4100  141.5570 C   0  0  0  0  0  3  0  0  0  0  0  0
  193.9140  176.1000  141.6980 N   0  0  0  0  0  0  0  0  0  0  0  0
  193.7530  175.9550  143.0300 C   0  0  0  0  0  0  0  0  0  0  0  0
  197.1980  176.7260  143.1380 C   0  0  0  0  0  1  0  0  0  0  0  0
  1  7  2  0  0  0  0
  2  5  2  0  0  0  0
  2  9  1  0  0  0  0
  3 12  1  0  0  0  0
  3 11  1  0  0  0  0
  4  6  2  0  0  0  0
  4 16  1  0  0  0  0
  5  6  1  0  0  0  0
  7  5  1  0  0  0  0
  7 24  1  0  0  0  0
  8 12  1  0  0  0  0
  8 14  1  0  0  0  0
  9  4  1  0  0  0  0
 10  1  1  0  0  0  0
 10  2  1  0  0  0  0
 11  1  1  0  0  0  0
 14 13  2  0  0  0  0
 14 10  1  0  0  0  0
 15 21  1  0  0  0  0
 16 17  1  0  0  0  0
 17 21  2  0  0  0  0
 18 15  2  0  0  0  0
 19 18  1  0  0  0  0
 20 19  2  0  0  0  0
 20 22  1  0  0  0  0
 22 16  2  0  0  0  0
 22 15  1  0  0  0  0
 23 29  1  0  0  0  0
 23 25  1  0  0  0  0
 26 27  1  0  0  0  0
 26 23  2  0  0  0  0
 27 28  2  0  0  0  0
 28 24  1  0  0  0  0
 28 25  1  0  0  0  0
M  END
>  <MODEL>
5

>  <REMARK>
 VINA RESULT:      -7.4      2.545      6.988
  Name = 
  2 active torsions:
  status: ('A' for Active; 'I' for Inactive)
    1  A    between atoms: C_3  and  C_6
    2  A    between atoms: C_10  and  N_15
                            x       y       z     vdW  Elec       q    Type
                         _______ _______ _______ _____ _____    ______ ____

>  <TORSDO>
F 2

$$$$
=
 OpenBabel11042416493D

 29 34  0  0  0  0  0  0  0  0999 V2000
  187.0840  177.8410  144.4980 C   0  0  0  0  0  0  0  0  0  0  0  0
  189.1260  177.4960  145.0900 C   0  0  0  0  0  0  0  0  0  0  0  0
  184.9610  177.9670  145.5590 O   0  0  0  0  0  0  0  0  0  0  0  0
  190.9300  176.6440  144.2460 C   0  0  0  0  0  0  0  0  0  0  0  0
  189.1950  178.0740  143.8720 C   0  0  0  0  0  0  0  0  0  0  0  0
  190.3830  177.5390  143.1590 C   0  0  0  0  0  3  0  0  0  0  0  0
  187.8930  178.2790  143.4570 C   0  0  0  0  0  0  0  0  0  0  0  0
  186.0940  176.8060  147.3040 C   0  0  0  0  0  2  0  0  0  0  0  0
  190.1970  176.6010  145.3210 N   0  0  0  0  0  2  0  0  0  0  0  0
  187.8500  177.3310  145.5000 N   0  0  0  0  0  0  0  0  0  0  0  0
  185.6060  177.6250  144.3690 C   0  0  0  0  0  2  0  0  0  0  0  0
  184.9420  176.7910  146.3140 C   0  0  0  0  0  2  0  0  0  0  0  0
  188.1910  175.7130  147.1550 O   0  0  0  0  0  0  0  0  0  0  0  0
  187.4150  176.5610  146.6380 C   0  0  0  0  0  0  0  0  0  0  0  0
  194.1820  175.0840  144.4210 C   0  0  0  0  0  0  0  0  0  0  0  0
  192.1470  175.8360  144.0880 C   0  0  0  0  0  0  0  0  0  0  0  0
  192.8330  175.5460  142.8080 C   0  0  0  0  0  3  0  0  0  0  0  0
  195.1990  175.5250  145.1410 C   0  0  0  0  0  3  0  0  0  0  0  0
  194.5660  176.1180  146.3470 C   0  0  0  0  0  3  0  0  0  0  0  0
  193.2650  176.1350  146.2680 N   0  0  0  0  0  0  0  0  0  0  0  0
  194.0490  175.1220  143.0090 N   0  0  0  0  0  0  0  0  0  0  0  0
  192.9910  175.4830  145.0440 C   0  0  0  0  0  0  0  0  0  0  0  0
  186.8390  176.6200  139.2790 C   0  0  0  0  0  0  0  0  0  0  0  0
  187.4430  178.5180  142.1180 N   0  0  0  0  0  2  0  0  0  0  0  0
  186.7540  177.7410  139.9460 O   0  0  0  0  0  0  0  0  0  0  0  0
  187.4860  175.6760  140.0470 C   0  0  0  0  0  3  0  0  0  0  0  0
  187.7980  176.2590  141.2240 N   0  0  0  0  0  0  0  0  0  0  0  0
  187.3220  177.5160  141.1050 C   0  0  0  0  0  0  0  0  0  0  0  0
  186.3170  176.4150  137.9020 C   0  0  0  0  0  1  0  0  0  0  0  0
  1 10  1  0  0  0  0
  2  9  1  0  0  0  0
  2 10  1  0  0  0  0
  3 12  1  0  0  0  0
  4  9  1  0  0  0  0
  5  2  2  0  0  0  0
  6  5  1  0  0  0  0
  6  4  2  0  0  0  0
  7  5  1  0  0  0  0
  7  1  2  0  0  0  0
 10 14  1  0  0  0  0
 11  1  1  0  0  0  0
 11  3  1  0  0  0  0
 12  8  1  0  0  0  0
 14 13  2  0  0  0  0
 14  8  1  0  0  0  0
 15 22  1  0  0  0  0
 15 18  1  0  0  0  0
 16  4  1  0  0  0  0
 16 22  1  0  0  0  0
 17 21  1  0  0  0  0
 17 16  2  0  0  0  0
 18 19  2  0  0  0  0
 20 19  1  0  0  0  0
 21 15  2  0  0  0  0
 22 20  2  0  0  0  0
 23 25  1  0  0  0  0
 23 26  2  0  0  0  0
 24  7  1  0  0  0  0
 25 28  1  0  0  0  0
 26 27  1  0  0  0  0
 28 27  2  0  0  0  0
 28 24  1  0  0  0  0
 29 23  1  0  0  0  0
M  END
>  <MODEL>
6

>  <REMARK>
 VINA RESULT:      -7.4      1.581      2.162
  Name = 
  2 active torsions:
  status: ('A' for Active; 'I' for Inactive)
    1  A    between atoms: C_3  and  C_6
    2  A    between atoms: C_10  and  N_15
                            x       y       z     vdW  Elec       q    Type
                         _______ _______ _______ _____ _____    ______ ____

>  <TORSDO>
F 2

$$$$
=
 OpenBabel11042416493D

 29 34  0  0  1  0  0  0  0  0999 V2000
  190.7570  174.4080  143.1390 C   0  0  0  0  0  0  0  0  0  0  0  0
  189.2950  175.4810  141.9780 C   0  0  0  0  0  0  0  0  0  0  0  0
  191.6710  172.2150  143.1930 O   0  0  0  0  0  0  0  0  0  0  0  0
  187.8880  177.1050  142.2550 C   0  0  0  0  0  0  0  0  0  0  0  0
  190.0390  176.4290  142.5860 C   0  0  1  0  0  3  0  0  0  0  0  0
  189.1740  177.6010  142.8740 C   0  0  0  0  0  3  0  0  0  0  0  0
  190.9690  175.7630  143.3620 C   0  0  0  0  0  0  0  0  0  0  0  0
  189.7060  171.6870  141.9530 C   0  0  0  0  0  2  0  0  0  0  0  0
  187.9560  175.8960  141.7800 N   0  0  0  0  0  0  0  0  0  0  0  0
  189.7010  174.2340  142.3010 N   0  0  0  0  0  0  0  0  0  0  0  0
  191.3570  173.3230  143.9810 C   0  0  0  0  0  2  0  0  0  0  0  0
  190.5210  171.4210  143.2070 C   0  0  0  0  0  2  0  0  0  0  0  0
  187.7800  173.0420  141.6950 O   0  0  0  0  0  0  0  0  0  0  0  0
  189.0010  173.0090  142.0060 C   0  0  0  0  0  0  0  0  0  0  0  0
  184.7830  178.8120  142.9500 C   0  0  0  0  0  0  0  0  0  0  0  0
  186.6450  177.8880  142.2450 C   0  0  0  0  0  0  0  0  0  0  0  0
  185.5780  177.8030  141.2220 C   0  0  0  0  0  3  0  0  0  0  0  0
  184.0660  178.6690  144.0510 C   0  0  0  0  0  3  0  0  0  0  0  0
  185.0740  178.4450  145.1190 C   0  0  0  0  0  3  0  0  0  0  0  0
  186.2840  178.3360  144.6460 N   0  0  0  0  0  0  0  0  0  0  0  0
  184.4670  178.3330  141.6530 N   0  0  0  0  0  0  0  0  0  0  0  0
  186.1270  178.5620  143.2590 C   0  0  0  0  0  0  0  0  0  0  0  0
  191.1390  177.1380  147.7670 C   0  0  0  0  0  0  0  0  0  0  0  0
  191.7260  176.3040  144.4520 N   0  0  0  0  0  2  0  0  0  0  0  0
  191.9530  176.9320  146.7650 O   0  0  0  0  0  0  0  0  0  0  0  0
  189.8410  176.9280  147.3540 C   0  0  0  0  0  3  0  0  0  0  0  0
  189.8840  176.5800  146.0510 N   0  0  0  0  0  0  0  0  0  0  0  0
  191.1980  176.5950  145.7490 C   0  0  0  0  0  0  0  0  0  0  0  0
  191.5660  177.5410  149.1330 C   0  0  0  0  0  1  0  0  0  0  0  0
  1  7  2  0  0  0  0
  1 11  1  0  0  0  0
  2 10  1  0  0  0  0
  2  5  1  0  0  0  0
  3 12  1  0  0  0  0
  3 11  1  0  0  0  0
  4  6  2  0  0  0  0
  5  6  1  1  0  0  0
  5  7  1  0  0  0  0
  7 24  1  0  0  0  0
  8 14  1  0  0  0  0
  8 12  1  0  0  0  0
  9  2  2  0  0  0  0
  9  4  1  0  0  0  0
 10  1  1  0  0  0  0
 13 14  2  0  0  0  0
 14 10  1  0  0  0  0
 15 22  1  0  0  0  0
 15 18  1  0  0  0  0
 16  4  1  0  0  0  0
 16 22  1  0  0  0  0
 17 21  1  0  0  0  0
 17 16  2  0  0  0  0
 18 19  2  0  0  0  0
 20 19  1  0  0  0  0
 21 15  2  0  0  0  0
 22 20  2  0  0  0  0
 23 29  1  0  0  0  0
 24 28  1  0  0  0  0
 25 23  1  0  0  0  0
 26 23  2  0  0  0  0
 27 26  1  0  0  0  0
 28 27  2  0  0  0  0
 28 25  1  0  0  0  0
M  END
>  <MODEL>
7

>  <REMARK>
 VINA RESULT:      -7.1      2.463      7.425
  Name = 
  2 active torsions:
  status: ('A' for Active; 'I' for Inactive)
    1  A    between atoms: C_3  and  C_6
    2  A    between atoms: C_10  and  N_15
                            x       y       z     vdW  Elec       q    Type
                         _______ _______ _______ _____ _____    ______ ____

>  <TORSDO>
F 2

$$$$
=
 OpenBabel11042416493D

 29 34  0  0  0  0  0  0  0  0999 V2000
  190.2530  176.0310  144.7880 C   0  0  0  0  0  0  0  0  0  0  0  0
  192.3370  176.5640  144.6920 C   0  0  0  0  0  0  0  0  0  0  0  0
  188.6410  175.6050  146.4820 O   0  0  0  0  0  0  0  0  0  0  0  0
  194.0220  176.2580  143.3650 C   0  0  0  0  0  0  0  0  0  0  0  0
  191.8290  176.8690  143.4780 C   0  0  0  0  0  0  0  0  0  0  0  0
  192.8850  176.6600  142.4550 C   0  0  0  0  0  3  0  0  0  0  0  0
  190.4960  176.5090  143.5070 C   0  0  0  0  0  0  0  0  0  0  0  0
  190.5790  175.3020  147.8350 C   0  0  0  0  0  2  0  0  0  0  0  0
  193.6960  176.1760  144.6220 N   0  0  0  0  0  2  0  0  0  0  0  0
  191.4030  176.0420  145.5140 N   0  0  0  0  0  0  0  0  0  0  0  0
  189.0140  175.2820  145.1760 C   0  0  0  0  0  2  0  0  0  0  0  0
  189.3060  174.6770  147.2900 C   0  0  0  0  0  2  0  0  0  0  0  0
  192.8080  175.0220  147.0830 O   0  0  0  0  0  0  0  0  0  0  0  0
  191.6470  175.4140  146.7890 C   0  0  0  0  0  0  0  0  0  0  0  0
  197.1850  174.7630  142.4700 C   0  0  0  0  0  0  0  0  0  0  0  0
  195.3660  175.9230  142.8740 C   0  0  0  0  0  0  0  0  0  0  0  0
  196.5840  176.7450  143.0580 C   0  0  0  0  0  3  0  0  0  0  0  0
  197.6220  173.5920  142.9020 C   0  0  0  0  0  3  0  0  0  0  0  0
  196.3930  172.7680  143.0350 C   0  0  0  0  0  3  0  0  0  0  0  0
  195.3080  173.4550  142.8200 N   0  0  0  0  0  0  0  0  0  0  0  0
  197.6630  176.0460  142.8400 N   0  0  0  0  0  0  0  0  0  0  0  0
  195.7840  174.7380  142.4610 C   0  0  0  0  0  0  0  0  0  0  0  0
  186.7370  177.7080  141.1070 C   0  0  0  0  0  0  0  0  0  0  0  0
  189.6380  176.2950  142.3790 N   0  0  0  0  0  2  0  0  0  0  0  0
  187.7720  176.9170  140.9910 O   0  0  0  0  0  0  0  0  0  0  0  0
  186.7640  178.3200  142.3410 C   0  0  0  0  0  3  0  0  0  0  0  0
  187.8620  177.8770  142.9880 N   0  0  0  0  0  0  0  0  0  0  0  0
  188.4390  177.0280  142.1130 C   0  0  0  0  0  0  0  0  0  0  0  0
  185.7000  177.9000  140.0590 C   0  0  0  0  0  1  0  0  0  0  0  0
  1 11  1  0  0  0  0
  1 10  1  0  0  0  0
  2 10  1  0  0  0  0
  3 12  1  0  0  0  0
  4  9  1  0  0  0  0
  5  7  1  0  0  0  0
  5  2  2  0  0  0  0
  6  4  2  0  0  0  0
  6  5  1  0  0  0  0
  7  1  2  0  0  0  0
  9  2  1  0  0  0  0
 10 14  1  0  0  0  0
 11  3  1  0  0  0  0
 12  8  1  0  0  0  0
 14 13  2  0  0  0  0
 14  8  1  0  0  0  0
 15 21  1  0  0  0  0
 15 18  2  0  0  0  0
 16 17  1  0  0  0  0
 16  4  1  0  0  0  0
 18 19  1  0  0  0  0
 20 19  2  0  0  0  0
 21 17  2  0  0  0  0
 22 15  1  0  0  0  0
 22 20  1  0  0  0  0
 22 16  2  0  0  0  0
 23 26  2  0  0  0  0
 24  7  1  0  0  0  0
 25 23  1  0  0  0  0
 25 28  1  0  0  0  0
 26 27  1  0  0  0  0
 28 24  1  0  0  0  0
 28 27  2  0  0  0  0
 29 23  1  0  0  0  0
M  END
>  <MODEL>
8

>  <REMARK>
 VINA RESULT:      -7.1      2.691      3.665
  Name = 
  2 active torsions:
  status: ('A' for Active; 'I' for Inactive)
    1  A    between atoms: C_3  and  C_6
    2  A    between atoms: C_10  and  N_15
                            x       y       z     vdW  Elec       q    Type
                         _______ _______ _______ _____ _____    ______ ____

>  <TORSDO>
F 2

$$$$
=
 OpenBabel11042416493D

 29 34  0  0  0  0  0  0  0  0999 V2000
  192.7140  173.5710  144.8080 C   0  0  0  0  0  0  0  0  0  0  0  0
  191.3700  174.9970  145.7010 C   0  0  0  0  0  0  0  0  0  0  0  0
  195.0360  173.0730  144.8980 O   0  0  0  0  0  0  0  0  0  0  0  0
  189.5270  176.0160  145.1930 C   0  0  0  0  0  0  0  0  0  0  0  0
  190.5850  173.9980  145.2420 C   0  0  0  0  0  0  0  0  0  0  0  0
  189.2850  174.5730  144.8150 C   0  0  0  0  0  3  0  0  0  0  0  0
  191.4250  173.0820  144.6380 C   0  0  0  0  0  0  0  0  0  0  0  0
  195.1750  175.2880  145.7660 C   0  0  0  0  0  2  0  0  0  0  0  0
  190.7170  176.2520  145.6630 N   0  0  0  0  0  2  0  0  0  0  0  0
  192.6760  174.7720  145.4450 N   0  0  0  0  0  0  0  0  0  0  0  0
  193.9090  173.0390  144.0760 C   0  0  0  0  0  2  0  0  0  0  0  0
  195.6120  174.3280  144.6740 C   0  0  0  0  0  2  0  0  0  0  0  0
  193.4900  176.9520  145.6910 O   0  0  0  0  0  0  0  0  0  0  0  0
  193.7490  175.7220  145.6010 C   0  0  0  0  0  0  0  0  0  0  0  0
  186.6650  178.2180  145.1610 C   0  0  0  0  0  0  0  0  0  0  0  0
  188.5340  177.0790  144.9900 C   0  0  0  0  0  0  0  0  0  0  0  0
  188.1170  177.6350  143.6820 C   0  0  0  0  0  3  0  0  0  0  0  0
  185.4850  177.9380  145.6870 C   0  0  0  0  0  3  0  0  0  0  0  0
  185.8000  177.1070  146.8770 C   0  0  0  0  0  3  0  0  0  0  0  0
  187.0680  176.8170  146.9580 N   0  0  0  0  0  0  0  0  0  0  0  0
  186.9940  178.2910  143.7830 N   0  0  0  0  0  0  0  0  0  0  0  0
  187.6460  177.5110  145.8700 C   0  0  0  0  0  0  0  0  0  0  0  0
  190.4420  171.8560  140.2950 C   0  0  0  0  0  0  0  0  0  0  0  0
  191.0550  172.0610  143.7030 N   0  0  0  0  0  2  0  0  0  0  0  0
  190.6460  171.2940  141.4580 O   0  0  0  0  0  0  0  0  0  0  0  0
  190.4860  173.2260  140.4350 C   0  0  0  0  0  3  0  0  0  0  0  0
  190.7280  173.4920  141.7360 N   0  0  0  0  0  0  0  0  0  0  0  0
  190.8210  172.2750  142.3080 C   0  0  0  0  0  0  0  0  0  0  0  0
  190.1980  171.1150  139.0300 C   0  0  0  0  0  1  0  0  0  0  0  0
  1 10  1  0  0  0  0
  4  9  1  0  0  0  0
  5  2  2  0  0  0  0
  6  4  2  0  0  0  0
  6  5  1  0  0  0  0
  7  1  2  0  0  0  0
  7  5  1  0  0  0  0
  9  2  1  0  0  0  0
 10 14  1  0  0  0  0
 10  2  1  0  0  0  0
 11  1  1  0  0  0  0
 11  3  1  0  0  0  0
 12  3  1  0  0  0  0
 12  8  1  0  0  0  0
 14 13  2  0  0  0  0
 14  8  1  0  0  0  0
 15 18  1  0  0  0  0
 15 22  1  0  0  0  0
 16  4  1  0  0  0  0
 16 22  1  0  0  0  0
 17 21  1  0  0  0  0
 17 16  2  0  0  0  0
 18 19  2  0  0  0  0
 19 20  1  0  0  0  0
 21 15  2  0  0  0  0
 22 20  2  0  0  0  0
 23 26  2  0  0  0  0
 23 25  1  0  0  0  0
 24  7  1  0  0  0  0
 25 28  1  0  0  0  0
 26 27  1  0  0  0  0
 27 28  2  0  0  0  0
 28 24  1  0  0  0  0
 29 23  1  0  0  0  0
M  END
>  <MODEL>
9

>  <REMARK>
 VINA RESULT:      -7.0      2.622      6.315
  Name = 
  2 active torsions:
  status: ('A' for Active; 'I' for Inactive)
    1  A    between atoms: C_3  and  C_6
    2  A    between atoms: C_10  and  N_15
                            x       y       z     vdW  Elec       q    Type
                         _______ _______ _______ _____ _____    ______ ____

>  <TORSDO>
F 2

$$$$
