=
 OpenBabel11042415403D

 46 48  0  0  1  0  0  0  0  0999 V2000
  187.9580  175.2830  140.6340 N   0  0  0  0  0  2  0  0  0  0  0  0
  188.5830  173.9690  140.5500 C   0  0  2  0  0  3  0  0  0  0  0  0
  189.2310  175.6890  142.6780 C   0  0  0  0  0  3  0  0  0  0  0  0
  187.8620  175.6250  142.0510 C   0  0  1  0  0  3  0  0  0  0  0  0
  190.0500  174.0670  140.9890 C   0  0  0  0  0  2  0  0  0  0  0  0
  190.2280  174.9190  142.2310 C   0  0  0  0  0  0  0  0  0  0  0  0
  187.0800  177.4650  143.3840 N   0  0  0  0  0  0  0  0  0  0  0  0
  183.9960  178.7360  143.4420 N   0  0  0  0  0  0  0  0  0  0  0  0
  185.6350  178.6180  144.9940 C   0  0  0  0  0  0  0  0  0  0  0  0
  187.0690  176.8840  142.2170 C   0  0  0  0  0  0  0  0  0  0  0  0
  186.3110  178.6790  143.6680 C   0  0  2  0  0  3  0  0  0  0  0  0
  184.3190  178.6930  144.8270 C   0  0  0  0  0  3  0  0  0  0  0  0
  185.1090  178.7200  142.7890 C   0  0  0  0  0  0  0  0  0  0  0  0
  185.1860  178.2160  141.4560 N   0  0  0  0  0  0  0  0  0  0  0  0
  186.1180  177.3540  141.1670 C   0  0  0  0  0  3  0  0  0  0  0  0
  186.3380  178.3950  146.3020 C   0  0  1  0  0  3  0  0  0  0  0  0
  185.4430  178.7140  147.4880 C   0  0  0  0  0  1  0  0  0  0  0  0
  186.7960  177.0300  146.3840 N   0  0  0  0  0  0  0  0  0  0  0  0
  187.9860  176.7760  146.7920 C   0  0  0  0  0  3  0  0  0  0  0  0
  188.5000  175.3730  146.8180 C   0  0  0  0  0  2  0  0  0  0  0  0
  189.7250  175.2880  146.1510 O   0  0  0  0  0  0  0  0  0  0  0  0
  190.6590  175.7470  147.0840 C   0  0  0  0  0  2  0  0  0  0  0  0
  191.7920  176.4110  146.3820 C   0  0  0  0  0  0  0  0  0  0  0  0
  193.0870  176.2710  146.8650 O   0  0  0  0  0  1  0  0  0  0  0  0
  191.5740  177.1180  145.3630 O   0  0  0  0  0  0  0  0  0  0  0  0
  191.5070  175.0350  142.8680 N   0  0  0  0  0  2  0  0  0  0  0  0
  192.1570  174.0330  143.6610 C   0  0  0  0  0  0  0  0  0  0  0  0
  191.5380  172.9930  144.0090 O   0  0  0  0  0  0  0  0  0  0  0  0
  194.0260  176.0920  142.8000 O   0  0  0  0  0  0  0  0  0  0  0  0
  194.3840  175.2710  143.6890 C   0  0  0  0  0  0  0  0  0  0  0  0
  193.5060  174.2130  144.1030 N   0  0  0  0  0  2  0  0  0  0  0  0
  195.7180  175.3910  144.3010 C   0  0  0  0  0  0  0  0  0  0  0  0
  196.6060  176.1660  143.7670 N   0  0  0  0  0  2  0  0  0  0  0  0
  196.0950  174.5620  145.4890 C   0  0  0  0  0  2  0  0  0  0  0  0
  197.4640  173.8970  145.3100 C   0  0  0  0  0  2  0  0  0  0  0  0
  196.6170  171.6000  145.9430 C   0  0  0  0  0  1  0  0  0  0  0  0
  197.4000  172.4140  144.9250 C   0  0  1  0  0  3  0  0  0  0  0  0
  196.0800  171.1900  143.2430 C   0  0  0  0  0  2  0  0  0  0  0  0
  196.8700  172.2190  143.5370 C   0  0  0  0  0  3  0  0  0  0  0  0
  188.4780  173.4650  139.1520 C   0  0  0  0  0  3  0  0  0  0  0  0
  189.3180  173.8750  138.2120 C   0  0  0  0  0  3  0  0  0  0  0  0
  189.8650  171.8190  135.0820 N   0  0  0  0  0  2  0  0  0  0  0  0
  191.0210  171.9040  137.1080 O   0  0  0  0  0  0  0  0  0  0  0  0
  190.7180  170.7870  134.5140 C   0  0  0  0  0  1  0  0  0  0  0  0
  189.2050  173.3550  136.8900 N   0  0  0  0  0  2  0  0  0  0  0  0
  190.0750  172.3380  136.3940 C   0  0  0  0  0  0  0  0  0  0  0  0
  1  4  1  0  0  0  0
  2 40  1  6  0  0  0
  2  1  1  0  0  0  0
  2  5  1  0  0  0  0
  4 10  1  6  0  0  0
  4  3  1  0  0  0  0
  5  6  1  0  0  0  0
  6  3  2  0  0  0  0
  6 26  1  0  0  0  0
  7 11  1  0  0  0  0
  8 12  1  0  0  0  0
  9 16  1  0  0  0  0
 10  7  2  0  0  0  0
 11 13  1  6  0  0  0
 11  9  1  0  0  0  0
 12  9  2  0  0  0  0
 13  8  2  0  0  0  0
 14 13  1  0  0  0  0
 15 14  2  0  0  0  0
 15 10  1  0  0  0  0
 16 18  1  0  0  0  0
 16 17  1  1  0  0  0
 18 19  2  0  0  0  0
 19 20  1  0  0  0  0
 21 20  1  0  0  0  0
 21 22  1  0  0  0  0
 23 24  1  0  0  0  0
 23 22  1  0  0  0  0
 25 23  2  0  0  0  0
 26 27  1  0  0  0  0
 27 28  2  0  0  0  0
 27 31  1  0  0  0  0
 29 30  2  0  0  0  0
 30 31  1  0  0  0  0
 30 32  1  0  0  0  0
 32 34  1  0  0  0  0
 33 32  2  0  0  0  0
 35 34  1  0  0  0  0
 37 35  1  0  0  0  0
 37 36  1  1  0  0  0
 38 39  2  0  0  0  0
 39 37  1  0  0  0  0
 41 40  2  0  0  0  0
 42 46  1  0  0  0  0
 44 42  1  0  0  0  0
 45 41  1  0  0  0  0
 46 45  1  0  0  0  0
 46 43  2  0  0  0  0
M  END
>  <MODEL>
1

>  <REMARK>
 VINA RESULT:      -7.0      0.000      0.000
  Name = 
  15 active torsions:
  status: ('A' for Active; 'I' for Inactive)
    1  A    between atoms: N_1  and  C_15
    2  A    between atoms: C_2  and  C_17
    3  A    between atoms: C_3  and  C_36
    4  A    between atoms: C_3  and  C_42
    5  A    between atoms: C_7  and  C_20
    6  A    between atoms: N_8  and  C_30
    7  A    between atoms: C_9  and  C_41
    8  A    between atoms: O_13  and  C_17
    9  A    between atoms: O_13  and  C_41
   10  A    between atoms: C_15  and  C_16
   11  A    between atoms: C_18  and  C_19
   12  A    between atoms: C_24  and  C_28
   13  A    between atoms: C_28  and  C_39
   14  A    between atoms: N_34  and  C_38
   15  A    between atoms: C_36  and  C_39
                            x       y       z     vdW  Elec       q    Type
                         _______ _______ _______ _____ _____    ______ ____

>  <TORSDO>
F 15

$$$$
=
 OpenBabel11042415403D

 46 48  0  0  1  0  0  0  0  0999 V2000
  190.9180  172.7040  141.2570 N   0  0  0  0  0  2  0  0  0  0  0  0
  190.4830  173.5060  140.1200 C   0  0  2  0  0  3  0  0  0  0  0  0
  190.3690  174.5860  142.7140 C   0  0  0  0  0  3  0  0  0  0  0  0
  191.4410  173.6280  142.2610 C   0  0  1  0  0  3  0  0  0  0  0  0
  189.2520  174.3330  140.5130 C   0  0  0  0  0  2  0  0  0  0  0  0
  189.3920  174.9660  141.8840 C   0  0  0  0  0  0  0  0  0  0  0  0
  193.0650  173.4050  144.0170 N   0  0  0  0  0  0  0  0  0  0  0  0
  194.8480  170.6870  144.7720 N   0  0  0  0  0  0  0  0  0  0  0  0
  195.2520  172.8990  145.0030 C   0  0  0  0  0  0  0  0  0  0  0  0
  192.0670  172.8580  143.3810 C   0  0  0  0  0  0  0  0  0  0  0  0
  193.7760  172.7260  145.1030 C   0  0  2  0  0  3  0  0  0  0  0  0
  195.8300  171.7110  144.8550 C   0  0  0  0  0  3  0  0  0  0  0  0
  193.6940  171.2520  144.9020 C   0  0  0  0  0  0  0  0  0  0  0  0
  192.5120  170.6750  144.3480 N   0  0  0  0  0  0  0  0  0  0  0  0
  191.7250  171.4280  143.6350 C   0  0  0  0  0  3  0  0  0  0  0  0
  195.9570  174.2240  144.9650 C   0  0  1  0  0  3  0  0  0  0  0  0
  195.8720  174.8720  143.5940 C   0  0  0  0  0  1  0  0  0  0  0  0
  195.3990  175.1030  145.9630 N   0  0  0  0  0  0  0  0  0  0  0  0
  194.6720  176.0990  145.6070 C   0  0  0  0  0  3  0  0  0  0  0  0
  194.1430  177.0590  146.6210 C   0  0  0  0  0  2  0  0  0  0  0  0
  193.0550  176.5050  147.3000 O   0  0  0  0  0  0  0  0  0  0  0  0
  192.1630  176.1450  146.2850 C   0  0  0  0  0  2  0  0  0  0  0  0
  191.0680  175.3070  146.8480 C   0  0  0  0  0  0  0  0  0  0  0  0
  190.3690  174.4320  146.0250 O   0  0  0  0  0  0  0  0  0  0  0  0
  190.7590  175.4080  148.0640 O   0  0  0  0  0  1  0  0  0  0  0  0
  188.4000  175.8730  142.3820 N   0  0  0  0  0  2  0  0  0  0  0  0
  188.4260  177.3020  142.2770 C   0  0  0  0  0  0  0  0  0  0  0  0
  189.4590  177.8950  141.8690 O   0  0  0  0  0  0  0  0  0  0  0  0
  185.7610  176.3270  142.9300 O   0  0  0  0  0  0  0  0  0  0  0  0
  186.0050  177.5610  143.0290 C   0  0  0  0  0  0  0  0  0  0  0  0
  187.2920  178.0830  142.6700 N   0  0  0  0  0  2  0  0  0  0  0  0
  184.9550  178.4770  143.5090 C   0  0  0  0  0  0  0  0  0  0  0  0
  183.7880  178.4690  142.9530 N   0  0  0  0  0  2  0  0  0  0  0  0
  185.2450  179.4810  144.5810 C   0  0  0  0  0  2  0  0  0  0  0  0
  186.2390  178.9410  145.6160 C   0  0  0  0  0  2  0  0  0  0  0  0
  184.1000  178.1790  146.7270 C   0  0  0  0  0  1  0  0  0  0  0  0
  185.5900  178.4290  146.9060 C   0  0  1  0  0  3  0  0  0  0  0  0
  187.1100  176.5030  146.6770 C   0  0  0  0  0  2  0  0  0  0  0  0
  186.2910  177.2190  147.4440 C   0  0  0  0  0  3  0  0  0  0  0  0
  190.1760  172.6050  138.9740 C   0  0  0  0  0  3  0  0  0  0  0  0
  190.4730  172.9550  137.7300 C   0  0  0  0  0  3  0  0  0  0  0  0
  190.7810  170.2250  135.1270 N   0  0  0  0  0  2  0  0  0  0  0  0
  192.3260  171.1250  136.6280 O   0  0  0  0  0  0  0  0  0  0  0  0
  191.7180  169.2620  134.5720 C   0  0  0  0  0  1  0  0  0  0  0  0
  190.1880  172.0600  136.6580 N   0  0  0  0  0  2  0  0  0  0  0  0
  191.1540  171.1350  136.1600 C   0  0  0  0  0  0  0  0  0  0  0  0
  1  4  1  0  0  0  0
  2 40  1  6  0  0  0
  2  5  1  0  0  0  0
  2  1  1  0  0  0  0
  4  3  1  0  0  0  0
  4 10  1  1  0  0  0
  5  6  1  0  0  0  0
  6 26  1  0  0  0  0
  6  3  2  0  0  0  0
  8 12  1  0  0  0  0
  8 13  2  0  0  0  0
  9 11  1  0  0  0  0
 10 15  1  0  0  0  0
 10  7  2  0  0  0  0
 11  7  1  6  0  0  0
 12  9  2  0  0  0  0
 13 11  1  0  0  0  0
 14 13  1  0  0  0  0
 15 14  2  0  0  0  0
 16 17  1  6  0  0  0
 16  9  1  0  0  0  0
 16 18  1  0  0  0  0
 19 18  2  0  0  0  0
 19 20  1  0  0  0  0
 20 21  1  0  0  0  0
 22 23  1  0  0  0  0
 22 21  1  0  0  0  0
 23 25  1  0  0  0  0
 24 23  2  0  0  0  0
 27 26  1  0  0  0  0
 27 31  1  0  0  0  0
 28 27  2  0  0  0  0
 29 30  2  0  0  0  0
 30 32  1  0  0  0  0
 31 30  1  0  0  0  0
 32 34  1  0  0  0  0
 33 32  2  0  0  0  0
 34 35  1  0  0  0  0
 35 37  1  0  0  0  0
 37 36  1  6  0  0  0
 37 39  1  0  0  0  0
 38 39  2  0  0  0  0
 41 40  2  0  0  0  0
 42 46  1  0  0  0  0
 44 42  1  0  0  0  0
 45 41  1  0  0  0  0
 46 43  2  0  0  0  0
 46 45  1  0  0  0  0
M  END
>  <MODEL>
2

>  <REMARK>
 VINA RESULT:      -6.4      1.971      8.117
  Name = 
  15 active torsions:
  status: ('A' for Active; 'I' for Inactive)
    1  A    between atoms: N_1  and  C_15
    2  A    between atoms: C_2  and  C_17
    3  A    between atoms: C_3  and  C_36
    4  A    between atoms: C_3  and  C_42
    5  A    between atoms: C_7  and  C_20
    6  A    between atoms: N_8  and  C_30
    7  A    between atoms: C_9  and  C_41
    8  A    between atoms: O_13  and  C_17
    9  A    between atoms: O_13  and  C_41
   10  A    between atoms: C_15  and  C_16
   11  A    between atoms: C_18  and  C_19
   12  A    between atoms: C_24  and  C_28
   13  A    between atoms: C_28  and  C_39
   14  A    between atoms: N_34  and  C_38
   15  A    between atoms: C_36  and  C_39
                            x       y       z     vdW  Elec       q    Type
                         _______ _______ _______ _____ _____    ______ ____

>  <TORSDO>
F 15

$$$$
=
 OpenBabel11042415403D

 46 48  0  0  1  0  0  0  0  0999 V2000
  185.9870  177.1380  141.3470 N   0  0  0  0  0  2  0  0  0  0  0  0
  185.9330  178.3070  142.2150 C   0  0  2  0  0  3  0  0  0  0  0  0
  188.3680  176.9480  141.8570 C   0  0  0  0  0  3  0  0  0  0  0  0
  187.3300  177.0890  140.7740 C   0  0  1  0  0  3  0  0  0  0  0  0
  186.8310  178.0840  143.4390 C   0  0  0  0  0  2  0  0  0  0  0  0
  188.1680  177.4670  143.0730 C   0  0  0  0  0  0  0  0  0  0  0  0
  188.0930  174.9430  140.0080 N   0  0  0  0  0  0  0  0  0  0  0  0
  189.2330  174.1830  136.9660 N   0  0  0  0  0  0  0  0  0  0  0  0
  189.6600  173.3380  139.0190 C   0  0  0  0  0  0  0  0  0  0  0  0
  187.4000  176.0130  139.7360 C   0  0  0  0  0  0  0  0  0  0  0  0
  188.2600  173.8460  139.0530 C   0  0  2  0  0  3  0  0  0  0  0  0
  190.1670  173.5120  137.8030 C   0  0  0  0  0  3  0  0  0  0  0  0
  188.1660  174.3800  137.6650 C   0  0  0  0  0  0  0  0  0  0  0  0
  187.2700  175.4520  137.3760 N   0  0  0  0  0  0  0  0  0  0  0  0
  186.8880  176.2280  138.3500 C   0  0  0  0  0  3  0  0  0  0  0  0
  190.4090  172.8150  140.2100 C   0  0  1  0  0  3  0  0  0  0  0  0
  191.4100  171.7400  139.8230 C   0  0  0  0  0  1  0  0  0  0  0  0
  191.0840  173.9000  140.8780 N   0  0  0  0  0  0  0  0  0  0  0  0
  192.2800  173.7410  141.3160 C   0  0  0  0  0  3  0  0  0  0  0  0
  192.9680  174.8310  142.0700 C   0  0  0  0  0  2  0  0  0  0  0  0
  194.2160  175.1050  141.5060 O   0  0  0  0  0  0  0  0  0  0  0  0
  194.6200  176.2930  142.1220 C   0  0  0  0  0  2  0  0  0  0  0  0
  196.0810  176.2430  142.4100 C   0  0  0  0  0  0  0  0  0  0  0  0
  196.5960  176.9110  143.5140 O   0  0  0  0  0  1  0  0  0  0  0  0
  196.8530  175.6150  141.6390 O   0  0  0  0  0  0  0  0  0  0  0  0
  189.1920  177.2890  144.0590 N   0  0  0  0  0  2  0  0  0  0  0  0
  189.1000  176.4910  145.2470 C   0  0  0  0  0  0  0  0  0  0  0  0
  187.9950  176.0030  145.6050 O   0  0  0  0  0  0  0  0  0  0  0  0
  191.8660  177.1330  144.6010 O   0  0  0  0  0  0  0  0  0  0  0  0
  191.5970  176.6380  145.7310 C   0  0  0  0  0  0  0  0  0  0  0  0
  190.2520  176.2650  146.0650 N   0  0  0  0  0  2  0  0  0  0  0  0
  192.6750  176.4320  146.7140 C   0  0  0  0  0  0  0  0  0  0  0  0
  192.5210  176.8300  147.9340 N   0  0  0  0  0  2  0  0  0  0  0  0
  193.9880  175.8430  146.3000 C   0  0  0  0  0  2  0  0  0  0  0  0
  193.8310  174.4120  145.7750 C   0  0  0  0  0  2  0  0  0  0  0  0
  196.3500  174.2140  145.8670 C   0  0  0  0  0  1  0  0  0  0  0  0
  195.0870  173.8460  145.1030 C   0  0  1  0  0  3  0  0  0  0  0  0
  193.8870  171.6970  145.2150 C   0  0  0  0  0  2  0  0  0  0  0  0
  194.9870  172.3670  144.8810 C   0  0  0  0  0  3  0  0  0  0  0  0
  184.5210  178.5470  142.6270 C   0  0  0  0  0  2  0  0  0  0  0  0
  183.5150  178.2890  141.8030 C   0  0  0  0  0  3  0  0  0  0  0  0
  179.7370  178.5090  141.8840 N   0  0  0  0  0  2  0  0  0  0  0  0
  181.2310  178.0350  140.1540 O   0  0  0  0  0  0  0  0  0  0  0  0
  178.5550  178.3550  141.0520 C   0  0  0  0  0  1  0  0  0  0  0  0
  182.1750  178.5060  142.2360 N   0  0  0  0  0  0  0  0  0  0  0  0
  181.0560  178.3350  141.3670 C   0  0  0  0  0  0  0  0  0  0  0  0
  1  2  1  0  0  0  0
  2 40  1  1  0  0  0
  2  5  1  0  0  0  0
  3  6  2  0  0  0  0
  4 10  1  6  0  0  0
  4  1  1  0  0  0  0
  4  3  1  0  0  0  0
  6  5  1  0  0  0  0
  6 26  1  0  0  0  0
  8 13  2  0  0  0  0
  8 12  1  0  0  0  0
  9 11  1  0  0  0  0
  9 16  1  0  0  0  0
 10  7  2  0  0  0  0
 11 13  1  6  0  0  0
 11  7  1  0  0  0  0
 12  9  2  0  0  0  0
 14 13  1  0  0  0  0
 14 15  2  0  0  0  0
 15 10  1  0  0  0  0
 16 17  1  6  0  0  0
 16 18  1  0  0  0  0
 18 19  2  0  0  0  0
 19 20  1  0  0  0  0
 21 20  1  0  0  0  0
 21 22  1  0  0  0  0
 22 23  1  0  0  0  0
 23 24  1  0  0  0  0
 25 23  2  0  0  0  0
 26 27  1  0  0  0  0
 27 28  2  0  0  0  0
 27 31  1  0  0  0  0
 29 30  2  0  0  0  0
 30 31  1  0  0  0  0
 30 32  1  0  0  0  0
 32 33  2  0  0  0  0
 34 32  1  0  0  0  0
 35 34  1  0  0  0  0
 37 35  1  0  0  0  0
 37 36  1  1  0  0  0
 39 37  1  0  0  0  0
 39 38  2  0  0  0  0
 41 45  2  0  0  0  0
 41 40  1  0  0  0  0
 43 46  2  0  0  0  0
 44 42  1  0  0  0  0
 46 42  1  0  0  0  0
 46 45  1  0  0  0  0
M  END
>  <MODEL>
3

>  <REMARK>
 VINA RESULT:      -6.3      2.860      6.997
  Name = 
  15 active torsions:
  status: ('A' for Active; 'I' for Inactive)
    1  A    between atoms: N_1  and  C_15
    2  A    between atoms: C_2  and  C_17
    3  A    between atoms: C_3  and  C_36
    4  A    between atoms: C_3  and  C_42
    5  A    between atoms: C_7  and  C_20
    6  A    between atoms: N_8  and  C_30
    7  A    between atoms: C_9  and  C_41
    8  A    between atoms: O_13  and  C_17
    9  A    between atoms: O_13  and  C_41
   10  A    between atoms: C_15  and  C_16
   11  A    between atoms: C_18  and  C_19
   12  A    between atoms: C_24  and  C_28
   13  A    between atoms: C_28  and  C_39
   14  A    between atoms: N_34  and  C_38
   15  A    between atoms: C_36  and  C_39
                            x       y       z     vdW  Elec       q    Type
                         _______ _______ _______ _____ _____    ______ ____

>  <TORSDO>
F 15

$$$$
=
 OpenBabel11042415403D

 46 48  0  0  1  0  0  0  0  0999 V2000
  185.9160  177.2250  141.2950 N   0  0  0  0  0  2  0  0  0  0  0  0
  185.8470  178.4070  142.1450 C   0  0  2  0  0  3  0  0  0  0  0  0
  188.2740  177.0080  141.8940 C   0  0  0  0  0  3  0  0  0  0  0  0
  187.2780  177.1500  140.7710 C   0  0  1  0  0  3  0  0  0  0  0  0
  186.6970  178.1860  143.4040 C   0  0  0  0  0  2  0  0  0  0  0  0
  188.0360  177.5450  143.0950 C   0  0  0  0  0  0  0  0  0  0  0  0
  188.1530  175.0480  140.0030 N   0  0  0  0  0  0  0  0  0  0  0  0
  189.1790  174.3060  136.9150 N   0  0  0  0  0  0  0  0  0  0  0  0
  189.7760  173.5380  138.9560 C   0  0  0  0  0  0  0  0  0  0  0  0
  187.3690  176.0590  139.7500 C   0  0  0  0  0  0  0  0  0  0  0  0
  188.3470  173.9450  139.0590 C   0  0  2  0  0  3  0  0  0  0  0  0
  190.2030  173.7220  137.7110 C   0  0  0  0  0  3  0  0  0  0  0  0
  188.1390  174.4410  137.6700 C   0  0  0  0  0  0  0  0  0  0  0  0
  187.1530  175.4400  137.4110 N   0  0  0  0  0  0  0  0  0  0  0  0
  186.7700  176.2070  138.3910 C   0  0  0  0  0  3  0  0  0  0  0  0
  190.6240  173.0960  140.1130 C   0  0  1  0  0  3  0  0  0  0  0  0
  191.9260  173.8760  140.1930 C   0  0  0  0  0  1  0  0  0  0  0  0
  189.8860  173.2400  141.3430 N   0  0  0  0  0  0  0  0  0  0  0  0
  190.4940  173.5820  142.4210 C   0  0  0  0  0  3  0  0  0  0  0  0
  189.7570  173.6690  143.7170 C   0  0  0  0  0  2  0  0  0  0  0  0
  190.4310  172.9560  144.7120 O   0  0  0  0  0  0  0  0  0  0  0  0
  191.7850  173.1600  144.4260 C   0  0  0  0  0  2  0  0  0  0  0  0
  192.5250  171.8730  144.5390 C   0  0  0  0  0  0  0  0  0  0  0  0
  193.7600  171.8350  145.1760 O   0  0  0  0  0  1  0  0  0  0  0  0
  192.0440  170.8240  144.0370 O   0  0  0  0  0  0  0  0  0  0  0  0
  189.0210  177.3660  144.1200 N   0  0  0  0  0  2  0  0  0  0  0  0
  188.8340  176.6880  145.3700 C   0  0  0  0  0  0  0  0  0  0  0  0
  187.6840  176.3330  145.7390 O   0  0  0  0  0  0  0  0  0  0  0  0
  191.6590  177.0210  144.7460 O   0  0  0  0  0  0  0  0  0  0  0  0
  191.3250  176.6550  145.9070 C   0  0  0  0  0  0  0  0  0  0  0  0
  189.9460  176.4340  146.2350 N   0  0  0  0  0  2  0  0  0  0  0  0
  192.3610  176.4420  146.9320 C   0  0  0  0  0  0  0  0  0  0  0  0
  192.0220  176.2980  148.1720 N   0  0  0  0  0  2  0  0  0  0  0  0
  193.8140  176.4760  146.5730 C   0  0  0  0  0  2  0  0  0  0  0  0
  194.3560  175.0780  146.2550 C   0  0  0  0  0  2  0  0  0  0  0  0
  196.6210  174.0760  145.7470 C   0  0  0  0  0  1  0  0  0  0  0  0
  195.5580  175.0690  145.3040 C   0  0  1  0  0  3  0  0  0  0  0  0
  194.5740  175.8070  143.1690 C   0  0  0  0  0  2  0  0  0  0  0  0
  195.1450  174.8400  143.8820 C   0  0  0  0  0  3  0  0  0  0  0  0
  184.4260  178.6720  142.5020 C   0  0  0  0  0  2  0  0  0  0  0  0
  183.4360  178.2600  141.7210 C   0  0  0  0  0  3  0  0  0  0  0  0
  179.6590  178.5050  141.6820 N   0  0  0  0  0  2  0  0  0  0  0  0
  181.1980  177.9280  140.0240 O   0  0  0  0  0  0  0  0  0  0  0  0
  178.5000  178.3130  140.8260 C   0  0  0  0  0  1  0  0  0  0  0  0
  182.0860  178.5080  142.1030 N   0  0  0  0  0  0  0  0  0  0  0  0
  180.9900  178.2960  141.2130 C   0  0  0  0  0  0  0  0  0  0  0  0
  1  2  1  0  0  0  0
  2 40  1  1  0  0  0
  2  5  1  0  0  0  0
  3  6  2  0  0  0  0
  4 10  1  6  0  0  0
  4  1  1  0  0  0  0
  4  3  1  0  0  0  0
  6  5  1  0  0  0  0
  6 26  1  0  0  0  0
  8 13  2  0  0  0  0
  8 12  1  0  0  0  0
  9 11  1  0  0  0  0
  9 16  1  0  0  0  0
 10  7  2  0  0  0  0
 11 13  1  6  0  0  0
 11  7  1  0  0  0  0
 12  9  2  0  0  0  0
 14 13  1  0  0  0  0
 14 15  2  0  0  0  0
 15 10  1  0  0  0  0
 16 17  1  1  0  0  0
 16 18  1  0  0  0  0
 18 19  2  0  0  0  0
 19 20  1  0  0  0  0
 20 21  1  0  0  0  0
 22 23  1  0  0  0  0
 22 21  1  0  0  0  0
 23 24  1  0  0  0  0
 25 23  2  0  0  0  0
 26 27  1  0  0  0  0
 27 28  2  0  0  0  0
 27 31  1  0  0  0  0
 29 30  2  0  0  0  0
 30 31  1  0  0  0  0
 30 32  1  0  0  0  0
 32 33  2  0  0  0  0
 34 32  1  0  0  0  0
 35 34  1  0  0  0  0
 37 36  1  1  0  0  0
 37 35  1  0  0  0  0
 38 39  2  0  0  0  0
 39 37  1  0  0  0  0
 41 45  2  0  0  0  0
 41 40  1  0  0  0  0
 43 46  2  0  0  0  0
 44 42  1  0  0  0  0
 46 42  1  0  0  0  0
 46 45  1  0  0  0  0
M  END
>  <MODEL>
4

>  <REMARK>
 VINA RESULT:      -6.3      2.773      6.819
  Name = 
  15 active torsions:
  status: ('A' for Active; 'I' for Inactive)
    1  A    between atoms: N_1  and  C_15
    2  A    between atoms: C_2  and  C_17
    3  A    between atoms: C_3  and  C_36
    4  A    between atoms: C_3  and  C_42
    5  A    between atoms: C_7  and  C_20
    6  A    between atoms: N_8  and  C_30
    7  A    between atoms: C_9  and  C_41
    8  A    between atoms: O_13  and  C_17
    9  A    between atoms: O_13  and  C_41
   10  A    between atoms: C_15  and  C_16
   11  A    between atoms: C_18  and  C_19
   12  A    between atoms: C_24  and  C_28
   13  A    between atoms: C_28  and  C_39
   14  A    between atoms: N_34  and  C_38
   15  A    between atoms: C_36  and  C_39
                            x       y       z     vdW  Elec       q    Type
                         _______ _______ _______ _____ _____    ______ ____

>  <TORSDO>
F 15

$$$$
=
 OpenBabel11042415403D

 46 48  0  0  1  0  0  0  0  0999 V2000
  190.6040  172.2140  140.6320 N   0  0  0  0  0  2  0  0  0  0  0  0
  189.8410  171.7160  141.7700 C   0  0  2  0  0  3  0  0  0  0  0  0
  189.0100  174.0550  140.4490 C   0  0  0  0  0  3  0  0  0  0  0  0
  189.6610  172.8920  139.7450 C   0  0  1  0  0  3  0  0  0  0  0  0
  189.3470  172.8960  142.6170 C   0  0  0  0  0  2  0  0  0  0  0  0
  188.8020  174.0310  141.7700 C   0  0  0  0  0  0  0  0  0  0  0  0
  191.6530  173.2720  138.4550 N   0  0  0  0  0  0  0  0  0  0  0  0
  192.2240  175.7820  136.3320 N   0  0  0  0  0  0  0  0  0  0  0  0
  193.5880  174.5300  137.6290 C   0  0  0  0  0  0  0  0  0  0  0  0
  190.3490  173.2740  138.4720 C   0  0  0  0  0  0  0  0  0  0  0  0
  192.4280  173.6650  137.2770 C   0  0  2  0  0  3  0  0  0  0  0  0
  193.4550  175.7150  137.0410 C   0  0  0  0  0  3  0  0  0  0  0  0
  191.6410  174.6380  136.4690 C   0  0  0  0  0  0  0  0  0  0  0  0
  190.2220  174.5070  136.3820 N   0  0  0  0  0  0  0  0  0  0  0  0
  189.5970  173.8530  137.3190 C   0  0  0  0  0  3  0  0  0  0  0  0
  194.6760  174.1510  138.5910 C   0  0  1  0  0  3  0  0  0  0  0  0
  196.0540  174.2570  137.9590 C   0  0  0  0  0  1  0  0  0  0  0  0
  194.6050  174.9870  139.7640 N   0  0  0  0  0  0  0  0  0  0  0  0
  195.6440  175.6290  140.1590 C   0  0  0  0  0  3  0  0  0  0  0  0
  195.6070  176.4450  141.4100 C   0  0  0  0  0  2  0  0  0  0  0  0
  195.6410  175.6180  142.5350 O   0  0  0  0  0  0  0  0  0  0  0  0
  195.9150  176.4880  143.5950 C   0  0  0  0  0  2  0  0  0  0  0  0
  194.8240  176.4140  144.6060 C   0  0  0  0  0  0  0  0  0  0  0  0
  193.7830  175.5080  144.4410 O   0  0  0  0  0  0  0  0  0  0  0  0
  194.8320  177.1890  145.5980 O   0  0  0  0  0  1  0  0  0  0  0  0
  188.1850  175.1730  142.3760 N   0  0  0  0  0  2  0  0  0  0  0  0
  188.7940  176.4510  142.5980 C   0  0  0  0  0  0  0  0  0  0  0  0
  190.0310  176.6100  142.4190 O   0  0  0  0  0  0  0  0  0  0  0  0
  185.8930  176.6010  142.7980 O   0  0  0  0  0  0  0  0  0  0  0  0
  186.5880  177.5790  143.1910 C   0  0  0  0  0  0  0  0  0  0  0  0
  188.0170  177.5590  143.0630 N   0  0  0  0  0  2  0  0  0  0  0  0
  185.9250  178.7560  143.7780 C   0  0  0  0  0  0  0  0  0  0  0  0
  186.0440  179.9130  143.2120 N   0  0  0  0  0  2  0  0  0  0  0  0
  185.1830  178.6520  145.0730 C   0  0  0  0  0  2  0  0  0  0  0  0
  186.1320  178.6390  146.2770 C   0  0  0  0  0  2  0  0  0  0  0  0
  185.0460  176.3800  146.6110 C   0  0  0  0  0  1  0  0  0  0  0  0
  186.1830  177.3030  147.0260 C   0  0  1  0  0  3  0  0  0  0  0  0
  188.5820  177.3090  146.4690 C   0  0  0  0  0  2  0  0  0  0  0  0
  187.5160  176.6330  146.8880 C   0  0  0  0  0  3  0  0  0  0  0  0
  190.7010  170.8050  142.5760 C   0  0  0  0  0  3  0  0  0  0  0  0
  191.9850  171.0720  142.7730 C   0  0  0  0  0  3  0  0  0  0  0  0
  194.5060  169.7350  145.2600 N   0  0  0  0  0  2  0  0  0  0  0  0
  194.0700  171.8980  144.4960 O   0  0  0  0  0  0  0  0  0  0  0  0
  195.5620  170.1520  146.1680 C   0  0  0  0  0  1  0  0  0  0  0  0
  192.7740  170.1920  143.5690 N   0  0  0  0  0  2  0  0  0  0  0  0
  193.7960  170.6670  144.4450 C   0  0  0  0  0  0  0  0  0  0  0  0
  1  2  1  0  0  0  0
  2 40  1  1  0  0  0
  2  5  1  0  0  0  0
  3  6  2  0  0  0  0
  4 10  1  6  0  0  0
  4  3  1  0  0  0  0
  4  1  1  0  0  0  0
  6 26  1  0  0  0  0
  6  5  1  0  0  0  0
  7 10  2  0  0  0  0
  8 13  2  0  0  0  0
  8 12  1  0  0  0  0
  9 16  1  0  0  0  0
 11 13  1  6  0  0  0
 11  9  1  0  0  0  0
 11  7  1  0  0  0  0
 12  9  2  0  0  0  0
 14 13  1  0  0  0  0
 14 15  2  0  0  0  0
 15 10  1  0  0  0  0
 16 17  1  6  0  0  0
 16 18  1  0  0  0  0
 18 19  2  0  0  0  0
 19 20  1  0  0  0  0
 20 21  1  0  0  0  0
 21 22  1  0  0  0  0
 22 23  1  0  0  0  0
 23 25  1  0  0  0  0
 24 23  2  0  0  0  0
 26 27  1  0  0  0  0
 27 31  1  0  0  0  0
 28 27  2  0  0  0  0
 29 30  2  0  0  0  0
 30 32  1  0  0  0  0
 31 30  1  0  0  0  0
 32 34  1  0  0  0  0
 33 32  2  0  0  0  0
 34 35  1  0  0  0  0
 35 37  1  0  0  0  0
 37 36  1  6  0  0  0
 38 39  2  0  0  0  0
 39 37  1  0  0  0  0
 40 41  2  0  0  0  0
 41 45  1  0  0  0  0
 42 44  1  0  0  0  0
 45 46  1  0  0  0  0
 46 43  2  0  0  0  0
 46 42  1  0  0  0  0
M  END
>  <MODEL>
5

>  <REMARK>
 VINA RESULT:      -6.1      2.850      8.721
  Name = 
  15 active torsions:
  status: ('A' for Active; 'I' for Inactive)
    1  A    between atoms: N_1  and  C_15
    2  A    between atoms: C_2  and  C_17
    3  A    between atoms: C_3  and  C_36
    4  A    between atoms: C_3  and  C_42
    5  A    between atoms: C_7  and  C_20
    6  A    between atoms: N_8  and  C_30
    7  A    between atoms: C_9  and  C_41
    8  A    between atoms: O_13  and  C_17
    9  A    between atoms: O_13  and  C_41
   10  A    between atoms: C_15  and  C_16
   11  A    between atoms: C_18  and  C_19
   12  A    between atoms: C_24  and  C_28
   13  A    between atoms: C_28  and  C_39
   14  A    between atoms: N_34  and  C_38
   15  A    between atoms: C_36  and  C_39
                            x       y       z     vdW  Elec       q    Type
                         _______ _______ _______ _____ _____    ______ ____

>  <TORSDO>
F 15

$$$$
=
 OpenBabel11042415403D

 46 48  0  0  1  0  0  0  0  0999 V2000
  192.5280  171.6720  141.2670 N   0  0  0  0  0  2  0  0  0  0  0  0
  192.2700  172.3230  139.9890 C   0  0  2  0  0  3  0  0  0  0  0  0
  191.5060  173.5900  142.3800 C   0  0  0  0  0  3  0  0  0  0  0  0
  192.7360  172.7280  142.2550 C   0  0  1  0  0  3  0  0  0  0  0  0
  190.9110  173.0330  140.0370 C   0  0  0  0  0  2  0  0  0  0  0  0
  190.6950  173.7870  141.3350 C   0  0  0  0  0  0  0  0  0  0  0  0
  194.0290  172.8020  144.2790 N   0  0  0  0  0  0  0  0  0  0  0  0
  195.7490  170.2970  145.6570 N   0  0  0  0  0  0  0  0  0  0  0  0
  196.0220  172.5410  145.6820 C   0  0  0  0  0  0  0  0  0  0  0  0
  193.1810  172.1290  143.5530 C   0  0  0  0  0  0  0  0  0  0  0  0
  194.5590  172.2950  145.5460 C   0  0  2  0  0  3  0  0  0  0  0  0
  196.6620  171.3800  145.7820 C   0  0  0  0  0  3  0  0  0  0  0  0
  194.5700  170.8050  145.5160 C   0  0  0  0  0  0  0  0  0  0  0  0
  193.5280  170.1000  144.8420 N   0  0  0  0  0  0  0  0  0  0  0  0
  192.8530  170.7190  143.9160 C   0  0  0  0  0  3  0  0  0  0  0  0
  196.6720  173.8920  145.6040 C   0  0  1  0  0  3  0  0  0  0  0  0
  197.2720  174.1540  144.2340 C   0  0  0  0  0  1  0  0  0  0  0  0
  195.7090  174.9170  145.9260 N   0  0  0  0  0  0  0  0  0  0  0  0
  195.5020  175.8830  145.1080 C   0  0  0  0  0  3  0  0  0  0  0  0
  194.5600  176.9890  145.4550 C   0  0  0  0  0  2  0  0  0  0  0  0
  193.3890  176.4760  146.0190 O   0  0  0  0  0  0  0  0  0  0  0  0
  192.4750  176.4620  144.9610 C   0  0  0  0  0  2  0  0  0  0  0  0
  191.0950  176.2730  145.4880 C   0  0  0  0  0  0  0  0  0  0  0  0
  190.8110  176.5700  146.8160 O   0  0  0  0  0  1  0  0  0  0  0  0
  190.1910  175.8230  144.7370 O   0  0  0  0  0  0  0  0  0  0  0  0
  189.5390  174.6120  141.5250 N   0  0  0  0  0  2  0  0  0  0  0  0
  188.2660  174.1870  142.0320 C   0  0  0  0  0  0  0  0  0  0  0  0
  188.0170  172.9630  142.1920 O   0  0  0  0  0  0  0  0  0  0  0  0
  188.5460  177.0840  142.1350 O   0  0  0  0  0  0  0  0  0  0  0  0
  187.4100  176.5690  142.3250 C   0  0  0  0  0  0  0  0  0  0  0  0
  187.2440  175.1440  142.3290 N   0  0  0  0  0  2  0  0  0  0  0  0
  186.2430  177.4390  142.5540 C   0  0  0  0  0  0  0  0  0  0  0  0
  185.8820  178.2870  141.6470 N   0  0  0  0  0  2  0  0  0  0  0  0
  185.5160  177.4170  143.8620 C   0  0  0  0  0  2  0  0  0  0  0  0
  186.3320  178.0740  144.9810 C   0  0  0  0  0  2  0  0  0  0  0  0
  187.3590  176.2740  146.4300 C   0  0  0  0  0  1  0  0  0  0  0  0
  186.2730  177.3340  146.3220 C   0  0  1  0  0  3  0  0  0  0  0  0
  185.6180  179.4170  147.4630 C   0  0  0  0  0  2  0  0  0  0  0  0
  186.3060  178.2790  147.4850 C   0  0  0  0  0  3  0  0  0  0  0  0
  192.3000  171.3030  138.9040 C   0  0  0  0  0  3  0  0  0  0  0  0
  192.6190  171.6350  137.6610 C   0  0  0  0  0  3  0  0  0  0  0  0
  193.8500  168.9900  135.2500 N   0  0  0  0  0  2  0  0  0  0  0  0
  194.9880  170.4300  136.6910 O   0  0  0  0  0  0  0  0  0  0  0  0
  195.0590  168.3460  134.7630 C   0  0  0  0  0  1  0  0  0  0  0  0
  192.6630  170.6300  136.6510 N   0  0  0  0  0  2  0  0  0  0  0  0
  193.8860  170.0350  136.2200 C   0  0  0  0  0  0  0  0  0  0  0  0
  1  4  1  0  0  0  0
  2 40  1  6  0  0  0
  2  5  1  0  0  0  0
  2  1  1  0  0  0  0
  4  3  1  0  0  0  0
  4 10  1  1  0  0  0
  5  6  1  0  0  0  0
  6 26  1  0  0  0  0
  6  3  2  0  0  0  0
  8 12  1  0  0  0  0
  9 12  2  0  0  0  0
 10 15  1  0  0  0  0
 10  7  2  0  0  0  0
 11  7  1  6  0  0  0
 11  9  1  0  0  0  0
 13 11  1  0  0  0  0
 13  8  2  0  0  0  0
 14 13  1  0  0  0  0
 15 14  2  0  0  0  0
 16 17  1  6  0  0  0
 16  9  1  0  0  0  0
 16 18  1  0  0  0  0
 19 20  1  0  0  0  0
 19 18  2  0  0  0  0
 20 21  1  0  0  0  0
 22 23  1  0  0  0  0
 22 21  1  0  0  0  0
 23 24  1  0  0  0  0
 25 23  2  0  0  0  0
 26 27  1  0  0  0  0
 27 28  2  0  0  0  0
 27 31  1  0  0  0  0
 29 30  2  0  0  0  0
 30 31  1  0  0  0  0
 30 32  1  0  0  0  0
 32 34  1  0  0  0  0
 33 32  2  0  0  0  0
 34 35  1  0  0  0  0
 35 37  1  0  0  0  0
 37 36  1  1  0  0  0
 37 39  1  0  0  0  0
 38 39  2  0  0  0  0
 41 40  2  0  0  0  0
 42 46  1  0  0  0  0
 44 42  1  0  0  0  0
 45 41  1  0  0  0  0
 46 45  1  0  0  0  0
 46 43  2  0  0  0  0
M  END
>  <MODEL>
6

>  <REMARK>
 VINA RESULT:      -5.9      2.529      8.393
  Name = 
  15 active torsions:
  status: ('A' for Active; 'I' for Inactive)
    1  A    between atoms: N_1  and  C_15
    2  A    between atoms: C_2  and  C_17
    3  A    between atoms: C_3  and  C_36
    4  A    between atoms: C_3  and  C_42
    5  A    between atoms: C_7  and  C_20
    6  A    between atoms: N_8  and  C_30
    7  A    between atoms: C_9  and  C_41
    8  A    between atoms: O_13  and  C_17
    9  A    between atoms: O_13  and  C_41
   10  A    between atoms: C_15  and  C_16
   11  A    between atoms: C_18  and  C_19
   12  A    between atoms: C_24  and  C_28
   13  A    between atoms: C_28  and  C_39
   14  A    between atoms: N_34  and  C_38
   15  A    between atoms: C_36  and  C_39
                            x       y       z     vdW  Elec       q    Type
                         _______ _______ _______ _____ _____    ______ ____

>  <TORSDO>
F 15

$$$$
=
 OpenBabel11042415403D

 46 48  0  0  1  0  0  0  0  0999 V2000
  188.9610  174.1680  139.4890 N   0  0  0  0  0  2  0  0  0  0  0  0
  189.5330  172.8440  139.7000 C   0  0  2  0  0  3  0  0  0  0  0  0
  189.7990  174.8130  141.6900 C   0  0  0  0  0  3  0  0  0  0  0  0
  188.5880  174.6910  140.8010 C   0  0  1  0  0  3  0  0  0  0  0  0
  190.8800  172.9730  140.4240 C   0  0  0  0  0  2  0  0  0  0  0  0
  190.8340  173.9760  141.5620 C   0  0  0  0  0  0  0  0  0  0  0  0
  187.7660  176.7780  141.6640 N   0  0  0  0  0  0  0  0  0  0  0  0
  184.7390  178.0970  141.1840 N   0  0  0  0  0  0  0  0  0  0  0  0
  186.2330  178.2600  142.8730 C   0  0  0  0  0  0  0  0  0  0  0  0
  187.8340  175.9740  140.6390 C   0  0  0  0  0  0  0  0  0  0  0  0
  187.0230  178.0390  141.6290 C   0  0  2  0  0  3  0  0  0  0  0  0
  184.9400  178.3270  142.5730 C   0  0  0  0  0  3  0  0  0  0  0  0
  185.9030  177.9270  140.6530 C   0  0  0  0  0  0  0  0  0  0  0  0
  186.0760  177.1640  139.4590 N   0  0  0  0  0  0  0  0  0  0  0  0
  186.9950  176.2420  139.4340 C   0  0  0  0  0  3  0  0  0  0  0  0
  186.8100  178.2900  144.2580 C   0  0  1  0  0  3  0  0  0  0  0  0
  185.8610  178.9350  145.2540 C   0  0  0  0  0  1  0  0  0  0  0  0
  187.1340  176.9500  144.6820 N   0  0  0  0  0  0  0  0  0  0  0  0
  188.3110  176.6800  145.1160 C   0  0  0  0  0  3  0  0  0  0  0  0
  188.6830  175.2840  145.4940 C   0  0  0  0  0  2  0  0  0  0  0  0
  189.4470  175.2800  146.6630 O   0  0  0  0  0  0  0  0  0  0  0  0
  189.8560  176.6080  146.8140 C   0  0  0  0  0  2  0  0  0  0  0  0
  190.9600  176.6880  147.8100 C   0  0  0  0  0  0  0  0  0  0  0  0
  191.0920  177.8150  148.6120 O   0  0  0  0  0  1  0  0  0  0  0  0
  191.7880  175.7450  147.9090 O   0  0  0  0  0  0  0  0  0  0  0  0
  191.9570  174.1530  142.4340 N   0  0  0  0  0  2  0  0  0  0  0  0
  193.1820  174.8250  142.1170 C   0  0  0  0  0  0  0  0  0  0  0  0
  193.4310  175.1750  140.9330 O   0  0  0  0  0  0  0  0  0  0  0  0
  192.8550  174.5000  144.9920 O   0  0  0  0  0  0  0  0  0  0  0  0
  193.9760  174.8610  144.5380 C   0  0  0  0  0  0  0  0  0  0  0  0
  194.1600  175.0770  143.1310 N   0  0  0  0  0  2  0  0  0  0  0  0
  195.1050  175.0710  145.4600 C   0  0  0  0  0  0  0  0  0  0  0  0
  194.9470  175.7970  146.5190 N   0  0  0  0  0  2  0  0  0  0  0  0
  196.4630  174.5250  145.1480 C   0  0  0  0  0  2  0  0  0  0  0  0
  196.7770  173.2700  145.9700 C   0  0  0  0  0  2  0  0  0  0  0  0
  197.7190  171.6610  144.2620 C   0  0  0  0  0  1  0  0  0  0  0  0
  196.5700  171.9520  145.2140 C   0  0  1  0  0  3  0  0  0  0  0  0
  197.1060  169.7320  146.1380 C   0  0  0  0  0  2  0  0  0  0  0  0
  196.3200  170.8050  146.1460 C   0  0  0  0  0  3  0  0  0  0  0  0
  189.6980  172.1660  138.3850 C   0  0  0  0  0  3  0  0  0  0  0  0
  189.8180  170.8470  138.3050 C   0  0  0  0  0  3  0  0  0  0  0  0
  191.2800  169.2460  135.2030 N   0  0  0  0  0  2  0  0  0  0  0  0
  192.2840  170.2550  137.0530 O   0  0  0  0  0  0  0  0  0  0  0  0
  192.5430  168.9130  134.5630 C   0  0  0  0  0  1  0  0  0  0  0  0
  189.9500  170.2270  137.0290 N   0  0  0  0  0  2  0  0  0  0  0  0
  191.2230  169.9250  136.4570 C   0  0  0  0  0  0  0  0  0  0  0  0
  1  2  1  0  0  0  0
  1  4  1  0  0  0  0
  2 40  1  6  0  0  0
  2  5  1  0  0  0  0
  4 10  1  6  0  0  0
  4  3  1  0  0  0  0
  5  6  1  0  0  0  0
  6  3  2  0  0  0  0
  6 26  1  0  0  0  0
  8 12  1  0  0  0  0
  9 16  1  0  0  0  0
 10  7  2  0  0  0  0
 11 13  1  6  0  0  0
 11  7  1  0  0  0  0
 11  9  1  0  0  0  0
 12  9  2  0  0  0  0
 13  8  2  0  0  0  0
 14 13  1  0  0  0  0
 15 14  2  0  0  0  0
 15 10  1  0  0  0  0
 16 18  1  0  0  0  0
 16 17  1  1  0  0  0
 18 19  2  0  0  0  0
 19 20  1  0  0  0  0
 20 21  1  0  0  0  0
 21 22  1  0  0  0  0
 22 23  1  0  0  0  0
 23 25  2  0  0  0  0
 23 24  1  0  0  0  0
 27 26  1  0  0  0  0
 27 31  1  0  0  0  0
 28 27  2  0  0  0  0
 30 29  2  0  0  0  0
 30 32  1  0  0  0  0
 31 30  1  0  0  0  0
 32 33  2  0  0  0  0
 34 32  1  0  0  0  0
 34 35  1  0  0  0  0
 37 36  1  1  0  0  0
 37 35  1  0  0  0  0
 37 39  1  0  0  0  0
 38 39  2  0  0  0  0
 41 40  2  0  0  0  0
 42 46  1  0  0  0  0
 44 42  1  0  0  0  0
 45 41  1  0  0  0  0
 46 45  1  0  0  0  0
 46 43  2  0  0  0  0
M  END
>  <MODEL>
7

>  <REMARK>
 VINA RESULT:      -5.9      1.683      2.218
  Name = 
  15 active torsions:
  status: ('A' for Active; 'I' for Inactive)
    1  A    between atoms: N_1  and  C_15
    2  A    between atoms: C_2  and  C_17
    3  A    between atoms: C_3  and  C_36
    4  A    between atoms: C_3  and  C_42
    5  A    between atoms: C_7  and  C_20
    6  A    between atoms: N_8  and  C_30
    7  A    between atoms: C_9  and  C_41
    8  A    between atoms: O_13  and  C_17
    9  A    between atoms: O_13  and  C_41
   10  A    between atoms: C_15  and  C_16
   11  A    between atoms: C_18  and  C_19
   12  A    between atoms: C_24  and  C_28
   13  A    between atoms: C_28  and  C_39
   14  A    between atoms: N_34  and  C_38
   15  A    between atoms: C_36  and  C_39
                            x       y       z     vdW  Elec       q    Type
                         _______ _______ _______ _____ _____    ______ ____

>  <TORSDO>
F 15

$$$$
=
 OpenBabel11042415403D

 46 48  0  0  1  0  0  0  0  0999 V2000
  191.1600  173.1980  144.8990 N   0  0  0  0  0  2  0  0  0  0  0  0
  189.7430  173.4640  144.6900 C   0  0  2  0  0  3  0  0  0  0  0  0
  191.2120  172.1030  142.7170 C   0  0  0  0  0  3  0  0  0  0  0  0
  191.4740  171.9570  144.1940 C   0  0  1  0  0  3  0  0  0  0  0  0
  189.4960  173.8230  143.2190 C   0  0  0  0  0  2  0  0  0  0  0  0
  190.2510  172.9160  142.2660 C   0  0  0  0  0  0  0  0  0  0  0  0
  193.7440  172.4590  144.8010 N   0  0  0  0  0  0  0  0  0  0  0  0
  196.5120  171.0840  143.5430 N   0  0  0  0  0  0  0  0  0  0  0  0
  196.0760  173.1180  144.4280 C   0  0  0  0  0  0  0  0  0  0  0  0
  192.8730  171.5320  144.5140 C   0  0  0  0  0  0  0  0  0  0  0  0
  195.1480  172.1600  145.0920 C   0  0  2  0  0  3  0  0  0  0  0  0
  196.8630  172.4620  143.5820 C   0  0  0  0  0  3  0  0  0  0  0  0
  195.5450  170.9120  144.3820 C   0  0  0  0  0  0  0  0  0  0  0  0
  194.6030  169.8510  144.2300 N   0  0  0  0  0  0  0  0  0  0  0  0
  193.3330  170.1280  144.3010 C   0  0  0  0  0  3  0  0  0  0  0  0
  196.0410  174.6080  144.6120 C   0  0  1  0  0  3  0  0  0  0  0  0
  197.1880  175.2940  143.8880 C   0  0  0  0  0  1  0  0  0  0  0  0
  194.7810  175.1290  144.1460 N   0  0  0  0  0  0  0  0  0  0  0  0
  194.0670  175.8680  144.9140 C   0  0  0  0  0  3  0  0  0  0  0  0
  192.7280  176.3600  144.4730 C   0  0  0  0  0  2  0  0  0  0  0  0
  192.0390  176.9360  145.5430 O   0  0  0  0  0  0  0  0  0  0  0  0
  192.6150  176.3540  146.6770 C   0  0  0  0  0  2  0  0  0  0  0  0
  191.6320  176.3460  147.7960 C   0  0  0  0  0  0  0  0  0  0  0  0
  191.2330  177.5420  148.3790 O   0  0  0  0  0  1  0  0  0  0  0  0
  191.1800  175.2540  148.2290 O   0  0  0  0  0  0  0  0  0  0  0  0
  190.0600  173.0130  140.8490 N   0  0  0  0  0  2  0  0  0  0  0  0
  188.8030  173.0760  140.1630 C   0  0  0  0  0  0  0  0  0  0  0  0
  187.7260  172.8690  140.7810 O   0  0  0  0  0  0  0  0  0  0  0  0
  190.9980  173.9440  138.4570 O   0  0  0  0  0  0  0  0  0  0  0  0
  189.8680  173.7210  137.9390 C   0  0  0  0  0  0  0  0  0  0  0  0
  188.7520  173.3390  138.7570 N   0  0  0  0  0  2  0  0  0  0  0  0
  189.6900  173.8640  136.4840 C   0  0  0  0  0  0  0  0  0  0  0  0
  188.9360  174.8030  136.0150 N   0  0  0  0  0  2  0  0  0  0  0  0
  190.3040  172.8810  135.5370 C   0  0  0  0  0  2  0  0  0  0  0  0
  189.5640  171.5380  135.5470 C   0  0  0  0  0  2  0  0  0  0  0  0
  191.8000  170.7400  136.4180 C   0  0  0  0  0  1  0  0  0  0  0  0
  190.3270  170.4040  136.2410 C   0  0  1  0  0  3  0  0  0  0  0  0
  190.3770  170.0450  138.6770 C   0  0  0  0  0  2  0  0  0  0  0  0
  189.6900  170.0120  137.5390 C   0  0  0  0  0  3  0  0  0  0  0  0
  189.3150  174.5730  145.5880 C   0  0  0  0  0  3  0  0  0  0  0  0
  188.8600  175.7170  145.0940 C   0  0  0  0  0  3  0  0  0  0  0  0
  186.7020  178.0840  147.1110 N   0  0  0  0  0  2  0  0  0  0  0  0
  186.1690  176.4970  145.4840 O   0  0  0  0  0  0  0  0  0  0  0  0
  185.3210  178.4740  147.3380 C   0  0  0  0  0  1  0  0  0  0  0  0
  188.4360  176.7490  145.9800 N   0  0  0  0  0  2  0  0  0  0  0  0
  187.0600  177.0820  146.1600 C   0  0  0  0  0  0  0  0  0  0  0  0
  2  1  1  0  0  0  0
  2 40  1  1  0  0  0
  3  4  1  0  0  0  0
  4 10  1  6  0  0  0
  4  1  1  0  0  0  0
  5  2  1  0  0  0  0
  6  3  2  0  0  0  0
  6  5  1  0  0  0  0
  7 11  1  0  0  0  0
  8 12  1  0  0  0  0
  8 13  2  0  0  0  0
  9 16  1  0  0  0  0
  9 11  1  0  0  0  0
 10  7  2  0  0  0  0
 11 13  1  6  0  0  0
 12  9  2  0  0  0  0
 14 15  2  0  0  0  0
 14 13  1  0  0  0  0
 15 10  1  0  0  0  0
 16 17  1  6  0  0  0
 18 16  1  0  0  0  0
 18 19  2  0  0  0  0
 20 19  1  0  0  0  0
 20 21  1  0  0  0  0
 21 22  1  0  0  0  0
 22 23  1  0  0  0  0
 23 25  2  0  0  0  0
 23 24  1  0  0  0  0
 26  6  1  0  0  0  0
 27 28  2  0  0  0  0
 27 26  1  0  0  0  0
 30 29  2  0  0  0  0
 30 31  1  0  0  0  0
 31 27  1  0  0  0  0
 32 30  1  0  0  0  0
 33 32  2  0  0  0  0
 34 35  1  0  0  0  0
 34 32  1  0  0  0  0
 35 37  1  0  0  0  0
 37 36  1  1  0  0  0
 37 39  1  0  0  0  0
 39 38  2  0  0  0  0
 41 40  2  0  0  0  0
 41 45  1  0  0  0  0
 42 44  1  0  0  0  0
 43 46  2  0  0  0  0
 45 46  1  0  0  0  0
 46 42  1  0  0  0  0
M  END
>  <MODEL>
8

>  <REMARK>
 VINA RESULT:      -5.9      2.456      9.101
  Name = 
  15 active torsions:
  status: ('A' for Active; 'I' for Inactive)
    1  A    between atoms: N_1  and  C_15
    2  A    between atoms: C_2  and  C_17
    3  A    between atoms: C_3  and  C_36
    4  A    between atoms: C_3  and  C_42
    5  A    between atoms: C_7  and  C_20
    6  A    between atoms: N_8  and  C_30
    7  A    between atoms: C_9  and  C_41
    8  A    between atoms: O_13  and  C_17
    9  A    between atoms: O_13  and  C_41
   10  A    between atoms: C_15  and  C_16
   11  A    between atoms: C_18  and  C_19
   12  A    between atoms: C_24  and  C_28
   13  A    between atoms: C_28  and  C_39
   14  A    between atoms: N_34  and  C_38
   15  A    between atoms: C_36  and  C_39
                            x       y       z     vdW  Elec       q    Type
                         _______ _______ _______ _____ _____    ______ ____

>  <TORSDO>
F 15

$$$$
=
 OpenBabel11042415403D

 46 48  0  0  1  0  0  0  0  0999 V2000
  185.2050  177.1600  139.7930 N   0  0  0  0  0  2  0  0  0  0  0  0
  184.7930  178.3890  140.4590 C   0  0  2  0  0  3  0  0  0  0  0  0
  187.2770  177.2280  141.0850 C   0  0  0  0  0  3  0  0  0  0  0  0
  186.6640  177.1830  139.7080 C   0  0  1  0  0  3  0  0  0  0  0  0
  185.2330  178.3510  141.9290 C   0  0  0  0  0  2  0  0  0  0  0  0
  186.6460  177.8270  142.0990 C   0  0  0  0  0  0  0  0  0  0  0  0
  187.8160  175.0880  139.4710 N   0  0  0  0  0  0  0  0  0  0  0  0
  189.8870  174.2000  137.0100 N   0  0  0  0  0  0  0  0  0  0  0  0
  189.7480  173.6070  139.1870 C   0  0  0  0  0  0  0  0  0  0  0  0
  187.1420  176.0330  138.8780 C   0  0  0  0  0  0  0  0  0  0  0  0
  188.3630  173.9370  138.7500 C   0  0  2  0  0  3  0  0  0  0  0  0
  190.5810  173.7300  138.1590 C   0  0  0  0  0  3  0  0  0  0  0  0
  188.6450  174.3260  137.3390 C   0  0  0  0  0  0  0  0  0  0  0  0
  187.7840  175.2470  136.6710 N   0  0  0  0  0  0  0  0  0  0  0  0
  187.0560  176.0550  137.3880 C   0  0  0  0  0  3  0  0  0  0  0  0
  190.1460  173.2920  140.6000 C   0  0  1  0  0  3  0  0  0  0  0  0
  190.0930  171.8010  140.8850 C   0  0  0  0  0  1  0  0  0  0  0  0
  191.4720  173.7960  140.8580 N   0  0  0  0  0  0  0  0  0  0  0  0
  192.4020  172.9960  141.2350 C   0  0  0  0  0  3  0  0  0  0  0  0
  193.7630  173.5130  141.5720 C   0  0  0  0  0  2  0  0  0  0  0  0
  193.6940  174.4190  142.6330 O   0  0  0  0  0  0  0  0  0  0  0  0
  194.6780  175.3680  142.3400 C   0  0  0  0  0  2  0  0  0  0  0  0
  195.5920  175.5250  143.5050 C   0  0  0  0  0  0  0  0  0  0  0  0
  196.0290  176.7890  143.8820 O   0  0  0  0  0  0  0  0  0  0  0  0
  195.9890  174.5090  144.1350 O   0  0  0  0  0  1  0  0  0  0  0  0
  187.2820  177.8260  143.3840 N   0  0  0  0  0  2  0  0  0  0  0  0
  186.8200  177.1510  144.5610 C   0  0  0  0  0  0  0  0  0  0  0  0
  185.6750  176.6260  144.5890 O   0  0  0  0  0  0  0  0  0  0  0  0
  189.6190  177.9170  144.7970 O   0  0  0  0  0  0  0  0  0  0  0  0
  189.0000  177.5250  145.8250 C   0  0  0  0  0  0  0  0  0  0  0  0
  187.6340  177.0940  145.7360 N   0  0  0  0  0  2  0  0  0  0  0  0
  189.6890  177.4990  147.1270 C   0  0  0  0  0  0  0  0  0  0  0  0
  189.4040  178.3840  148.0250 N   0  0  0  0  0  2  0  0  0  0  0  0
  190.7800  176.5110  147.3980 C   0  0  0  0  0  2  0  0  0  0  0  0
  190.5270  175.1730  146.6950 C   0  0  0  0  0  2  0  0  0  0  0  0
  192.8930  174.5040  146.1040 C   0  0  0  0  0  1  0  0  0  0  0  0
  191.5150  174.8580  145.5660 C   0  0  1  0  0  3  0  0  0  0  0  0
  189.9930  173.0010  145.0130 C   0  0  0  0  0  2  0  0  0  0  0  0
  190.9930  173.7970  144.6440 C   0  0  0  0  0  3  0  0  0  0  0  0
  183.3160  178.5350  140.3490 C   0  0  0  0  0  3  0  0  0  0  0  0
  182.5010  177.9160  141.1930 C   0  0  0  0  0  3  0  0  0  0  0  0
  178.9440  179.0590  141.7950 N   0  0  0  0  0  2  0  0  0  0  0  0
  180.9080  179.3760  143.0170 O   0  0  0  0  0  0  0  0  0  0  0  0
  178.1200  179.8290  142.7130 C   0  0  0  0  0  1  0  0  0  0  0  0
  181.0930  178.0960  141.0740 N   0  0  0  0  0  2  0  0  0  0  0  0
  180.3420  178.8680  142.0100 C   0  0  0  0  0  0  0  0  0  0  0  0
  1  2  1  0  0  0  0
  2 40  1  1  0  0  0
  2  5  1  0  0  0  0
  3  6  2  0  0  0  0
  4 10  1  1  0  0  0
  4  1  1  0  0  0  0
  4  3  1  0  0  0  0
  5  6  1  0  0  0  0
  6 26  1  0  0  0  0
  8 13  2  0  0  0  0
  8 12  1  0  0  0  0
  9 16  1  0  0  0  0
 10  7  2  0  0  0  0
 11 13  1  6  0  0  0
 11  9  1  0  0  0  0
 11  7  1  0  0  0  0
 12  9  2  0  0  0  0
 14 13  1  0  0  0  0
 14 15  2  0  0  0  0
 15 10  1  0  0  0  0
 16 18  1  0  0  0  0
 16 17  1  6  0  0  0
 18 19  2  0  0  0  0
 19 20  1  0  0  0  0
 20 21  1  0  0  0  0
 22 21  1  0  0  0  0
 22 23  1  0  0  0  0
 23 24  2  0  0  0  0
 23 25  1  0  0  0  0
 26 27  1  0  0  0  0
 27 28  2  0  0  0  0
 27 31  1  0  0  0  0
 29 30  2  0  0  0  0
 30 32  1  0  0  0  0
 31 30  1  0  0  0  0
 32 34  1  0  0  0  0
 32 33  2  0  0  0  0
 35 34  1  0  0  0  0
 37 36  1  1  0  0  0
 37 35  1  0  0  0  0
 39 38  2  0  0  0  0
 39 37  1  0  0  0  0
 40 41  2  0  0  0  0
 42 46  1  0  0  0  0
 42 44  1  0  0  0  0
 45 41  1  0  0  0  0
 45 46  1  0  0  0  0
 46 43  2  0  0  0  0
M  END
>  <MODEL>
9

>  <REMARK>
 VINA RESULT:      -5.9      2.911      7.824
  Name = 
  15 active torsions:
  status: ('A' for Active; 'I' for Inactive)
    1  A    between atoms: N_1  and  C_15
    2  A    between atoms: C_2  and  C_17
    3  A    between atoms: C_3  and  C_36
    4  A    between atoms: C_3  and  C_42
    5  A    between atoms: C_7  and  C_20
    6  A    between atoms: N_8  and  C_30
    7  A    between atoms: C_9  and  C_41
    8  A    between atoms: O_13  and  C_17
    9  A    between atoms: O_13  and  C_41
   10  A    between atoms: C_15  and  C_16
   11  A    between atoms: C_18  and  C_19
   12  A    between atoms: C_24  and  C_28
   13  A    between atoms: C_28  and  C_39
   14  A    between atoms: N_34  and  C_38
   15  A    between atoms: C_36  and  C_39
                            x       y       z     vdW  Elec       q    Type
                         _______ _______ _______ _____ _____    ______ ____

>  <TORSDO>
F 15

$$$$
