=
 OpenBabel11042415293D

 42 44  0  0  1  0  0  0  0  0999 V2000
  190.6340  175.0300  145.1760 C   0  0  1  0  0  3  0  0  0  0  0  0
  190.4720  173.7610  144.3230 C   0  0  1  0  0  3  0  0  0  0  0  0
  189.5190  172.9160  144.8950 O   0  0  0  0  0  1  0  0  0  0  0  0
  191.5000  172.5940  141.9400 O   0  0  0  0  0  0  0  0  0  0  0  0
  190.0560  174.1070  142.9700 N   0  0  0  0  0  2  0  0  0  0  0  0
  190.1120  173.8450  140.5200 N   0  0  0  0  0  2  0  0  0  0  0  0
  190.6010  173.4710  141.8150 C   0  0  0  0  0  0  0  0  0  0  0  0
  192.2620  173.1330  137.4360 C   0  0  0  0  0  2  0  0  0  0  0  0
  188.3850  173.3460  138.0090 C   0  0  0  0  0  1  0  0  0  0  0  0
  189.5580  172.4930  138.4630 C   0  0  1  0  0  3  0  0  0  0  0  0
  190.1730  171.7720  137.2560 C   0  0  1  0  0  3  0  0  0  0  0  0
  191.1350  172.6950  136.5080 C   0  0  0  0  0  2  0  0  0  0  0  0
  191.7360  173.6720  138.7360 C   0  0  0  0  0  3  0  0  0  0  0  0
  190.5400  173.3360  139.2470 C   0  0  0  0  0  0  0  0  0  0  0  0
  189.8290  169.7680  138.1290 C   0  0  0  0  0  1  0  0  0  0  0  0
  190.8370  170.6170  137.6740 O   0  0  0  0  0  0  0  0  0  0  0  0
  192.0440  175.3100  147.2800 C   0  0  0  0  0  1  0  0  0  0  0  0
  192.0460  175.1430  145.7690 C   0  0  1  0  0  3  0  0  0  0  0  0
  193.0710  173.7180  145.2960 S   0  0  0  0  0  0  0  0  0  0  0  0
  194.1100  174.7400  144.2140 C   0  0  1  0  0  3  0  0  0  0  0  0
  195.6340  175.0470  146.0170 O   0  0  0  0  0  1  0  0  0  0  0  0
  195.2690  176.8980  144.7140 O   0  0  0  0  0  0  0  0  0  0  0  0
  195.0420  175.5640  145.0340 C   0  0  0  0  0  0  0  0  0  0  0  0
  194.8380  173.9190  143.3480 O   0  0  0  0  0  0  0  0  0  0  0  0
  194.6900  174.6300  141.8150 P   0  0  0  0  0  0  0  0  0  0  0  0
  196.0390  175.5980  141.4910 O   0  0  0  0  0  1  0  0  0  0  0  0
  193.2890  175.5750  141.7480 O   0  0  0  0  0  1  0  0  0  0  0  0
  194.6010  173.5400  140.7720 O   0  0  0  0  0  0  0  0  0  0  0  0
  190.2020  176.3280  144.4690 C   0  0  2  0  0  3  0  0  0  0  0  0
  191.3880  177.2420  144.2260 C   0  0  0  0  0  1  0  0  0  0  0  0
  189.1610  177.0320  145.2090 N   0  0  0  0  0  2  0  0  0  0  0  0
  185.9760  177.7770  141.5280 N   0  0  0  0  0  0  0  0  0  0  0  0
  183.7850  178.2140  140.5370 N   0  0  0  0  0  1  0  0  0  0  0  0
  185.4930  177.7850  145.0170 C   0  0  0  0  0  3  0  0  0  0  0  0
  184.2210  178.0910  142.9380 N   0  0  0  0  0  0  0  0  0  0  0  0
  184.6530  178.0310  141.6500 C   0  0  0  0  0  0  0  0  0  0  0  0
  186.4090  177.6730  142.7910 C   0  0  0  0  0  0  0  0  0  0  0  0
  186.7470  177.6330  140.3030 C   0  0  0  0  0  1  0  0  0  0  0  0
  187.8770  177.3230  144.6530 C   0  0  0  0  0  0  0  0  0  0  0  0
  185.3520  177.8580  143.6340 C   0  0  0  0  0  0  0  0  0  0  0  0
  187.6940  177.4030  143.2550 C   0  0  0  0  0  3  0  0  0  0  0  0
  186.7790  177.5110  145.5230 C   0  0  0  0  0  3  0  0  0  0  0  0
  1  2  1  6  0  0  0
  1 18  1  0  0  0  0
  2  3  1  1  0  0  0
  5  2  1  0  0  0  0
  6  7  1  0  0  0  0
  7  4  2  0  0  0  0
  7  5  1  0  0  0  0
  8 13  1  0  0  0  0
 10  9  1  6  0  0  0
 10 14  1  0  0  0  0
 11 16  1  1  0  0  0
 11 10  1  0  0  0  0
 12 11  1  0  0  0  0
 12  8  1  0  0  0  0
 13 14  2  0  0  0  0
 14  6  1  0  0  0  0
 16 15  1  0  0  0  0
 18 17  1  1  0  0  0
 19 18  1  0  0  0  0
 20 24  1  6  0  0  0
 20 23  1  0  0  0  0
 20 19  1  0  0  0  0
 22 23  2  0  0  0  0
 23 21  1  0  0  0  0
 25 24  1  0  0  0  0
 26 25  1  0  0  0  0
 27 25  1  0  0  0  0
 28 25  2  0  0  0  0
 29 30  1  1  0  0  0
 29  1  1  0  0  0  0
 29 31  1  0  0  0  0
 32 36  1  0  0  0  0
 32 37  1  0  0  0  0
 33 36  1  0  0  0  0
 34 42  1  0  0  0  0
 35 40  1  0  0  0  0
 36 35  2  0  0  0  0
 37 41  2  0  0  0  0
 37 40  1  0  0  0  0
 38 32  1  0  0  0  0
 39 31  1  0  0  0  0
 39 42  2  0  0  0  0
 40 34  2  0  0  0  0
 41 39  1  0  0  0  0
M  END
>  <MODEL>
1

>  <REMARK>
 VINA RESULT:      -6.3      0.000      0.000
  Name = 
  13 active torsions:
  status: ('A' for Active; 'I' for Inactive)
    1  A    between atoms: N_3  and  C_19
    2  A    between atoms: N_3  and  C_29
    3  A    between atoms: P_7  and  O_42
    4  A    between atoms: C_12  and  N_15
    5  A    between atoms: C_12  and  C_36
    6  A    between atoms: C_16  and  S_27
    7  A    between atoms: C_16  and  C_41
    8  A    between atoms: C_16  and  O_42
    9  A    between atoms: N_22  and  C_33
   10  A    between atoms: C_25  and  O_30
   11  A    between atoms: S_27  and  C_38
   12  A    between atoms: C_29  and  C_36
   13  A    between atoms: C_36  and  C_38
                            x       y       z     vdW  Elec       q    Type
                         _______ _______ _______ _____ _____    ______ ____

>  <TORSDO>
F 13

$$$$
=
 OpenBabel11042415293D

 42 44  0  0  1  0  0  0  0  0999 V2000
  190.4720  174.9000  144.9570 C   0  0  1  0  0  3  0  0  0  0  0  0
  190.4070  173.6030  144.1340 C   0  0  1  0  0  3  0  0  0  0  0  0
  189.5990  172.6650  144.7800 O   0  0  0  0  0  1  0  0  0  0  0  0
  191.0940  172.1830  141.7660 O   0  0  0  0  0  0  0  0  0  0  0  0
  189.8660  173.8700  142.8080 N   0  0  0  0  0  2  0  0  0  0  0  0
  189.6360  173.4120  140.3970 N   0  0  0  0  0  2  0  0  0  0  0  0
  190.2420  173.1080  141.6600 C   0  0  0  0  0  0  0  0  0  0  0  0
  189.7400  170.7880  137.6140 C   0  0  0  0  0  2  0  0  0  0  0  0
  192.0770  173.8010  138.5450 C   0  0  0  0  0  1  0  0  0  0  0  0
  190.6460  173.5680  138.0900 C   0  0  1  0  0  3  0  0  0  0  0  0
  190.6440  172.9310  136.6940 C   0  0  1  0  0  3  0  0  0  0  0  0
  190.8570  171.4190  136.7910 C   0  0  0  0  0  2  0  0  0  0  0  0
  189.5470  171.4940  138.9260 C   0  0  0  0  0  3  0  0  0  0  0  0
  189.8910  172.7750  139.1340 C   0  0  0  0  0  0  0  0  0  0  0  0
  189.4660  174.5830  135.8130 C   0  0  0  0  0  1  0  0  0  0  0  0
  189.4400  173.2080  136.0410 O   0  0  0  0  0  0  0  0  0  0  0  0
  191.8710  175.2450  147.0600 C   0  0  0  0  0  1  0  0  0  0  0  0
  191.8720  175.1340  145.5430 C   0  0  1  0  0  3  0  0  0  0  0  0
  193.0310  173.8380  145.0110 S   0  0  0  0  0  0  0  0  0  0  0  0
  194.0830  175.0400  144.1480 C   0  0  1  0  0  3  0  0  0  0  0  0
  195.0920  177.0250  144.9910 O   0  0  0  0  0  0  0  0  0  0  0  0
  195.4860  175.1260  146.2140 O   0  0  0  0  0  1  0  0  0  0  0  0
  194.9140  175.7870  145.1330 C   0  0  0  0  0  0  0  0  0  0  0  0
  194.9080  174.3750  143.2370 O   0  0  0  0  0  0  0  0  0  0  0  0
  194.5790  175.0760  141.7280 P   0  0  0  0  0  0  0  0  0  0  0  0
  195.3930  176.5520  141.5830 O   0  0  0  0  0  1  0  0  0  0  0  0
  192.9140  175.3310  141.5590 O   0  0  0  0  0  1  0  0  0  0  0  0
  195.0480  174.1430  140.6360 O   0  0  0  0  0  0  0  0  0  0  0  0
  189.9430  176.1440  144.2220 C   0  0  2  0  0  3  0  0  0  0  0  0
  191.0710  177.0910  143.8600 C   0  0  0  0  0  1  0  0  0  0  0  0
  188.9220  176.8420  144.9960 N   0  0  0  0  0  2  0  0  0  0  0  0
  185.7320  177.7680  141.3620 N   0  0  0  0  0  0  0  0  0  0  0  0
  183.5490  178.3040  140.4010 N   0  0  0  0  0  1  0  0  0  0  0  0
  185.2840  177.7380  144.8550 C   0  0  0  0  0  3  0  0  0  0  0  0
  184.0040  178.1260  142.7950 N   0  0  0  0  0  0  0  0  0  0  0  0
  184.4210  178.0700  141.5020 C   0  0  0  0  0  0  0  0  0  0  0  0
  186.1730  177.6270  142.6180 C   0  0  0  0  0  0  0  0  0  0  0  0
  186.4850  177.6150  140.1260 C   0  0  0  0  0  1  0  0  0  0  0  0
  187.6450  177.1910  144.4590 C   0  0  0  0  0  0  0  0  0  0  0  0
  185.1320  177.8390  143.4750 C   0  0  0  0  0  0  0  0  0  0  0  0
  187.4510  177.3010  143.0640 C   0  0  0  0  0  3  0  0  0  0  0  0
  186.5630  177.4070  145.3430 C   0  0  0  0  0  3  0  0  0  0  0  0
  1  2  1  6  0  0  0
  1 18  1  0  0  0  0
  2  3  1  1  0  0  0
  5  2  1  0  0  0  0
  6  7  1  0  0  0  0
  7  4  2  0  0  0  0
  7  5  1  0  0  0  0
  8 13  1  0  0  0  0
 10  9  1  1  0  0  0
 10 14  1  0  0  0  0
 11 16  1  1  0  0  0
 11 12  1  0  0  0  0
 11 10  1  0  0  0  0
 12  8  1  0  0  0  0
 13 14  2  0  0  0  0
 14  6  1  0  0  0  0
 15 16  1  0  0  0  0
 18 17  1  1  0  0  0
 19 18  1  0  0  0  0
 20 24  1  6  0  0  0
 20 19  1  0  0  0  0
 20 23  1  0  0  0  0
 21 23  2  0  0  0  0
 23 22  1  0  0  0  0
 25 24  1  0  0  0  0
 26 25  1  0  0  0  0
 27 25  1  0  0  0  0
 28 25  2  0  0  0  0
 29 30  1  1  0  0  0
 29  1  1  0  0  0  0
 29 31  1  0  0  0  0
 32 36  1  0  0  0  0
 32 37  1  0  0  0  0
 33 36  1  0  0  0  0
 34 42  1  0  0  0  0
 35 40  1  0  0  0  0
 36 35  2  0  0  0  0
 37 41  2  0  0  0  0
 37 40  1  0  0  0  0
 38 32  1  0  0  0  0
 39 31  1  0  0  0  0
 39 42  2  0  0  0  0
 40 34  2  0  0  0  0
 41 39  1  0  0  0  0
M  END
>  <MODEL>
2

>  <REMARK>
 VINA RESULT:      -6.3      0.848      1.537
  Name = 
  13 active torsions:
  status: ('A' for Active; 'I' for Inactive)
    1  A    between atoms: N_3  and  C_19
    2  A    between atoms: N_3  and  C_29
    3  A    between atoms: P_7  and  O_42
    4  A    between atoms: C_12  and  N_15
    5  A    between atoms: C_12  and  C_36
    6  A    between atoms: C_16  and  S_27
    7  A    between atoms: C_16  and  C_41
    8  A    between atoms: C_16  and  O_42
    9  A    between atoms: N_22  and  C_33
   10  A    between atoms: C_25  and  O_30
   11  A    between atoms: S_27  and  C_38
   12  A    between atoms: C_29  and  C_36
   13  A    between atoms: C_36  and  C_38
                            x       y       z     vdW  Elec       q    Type
                         _______ _______ _______ _____ _____    ______ ____

>  <TORSDO>
F 13

$$$$
=
 OpenBabel11042415293D

 42 44  0  0  1  0  0  0  0  0999 V2000
  191.6350  174.8890  143.8740 C   0  0  1  0  0  3  0  0  0  0  0  0
  191.8970  175.0710  142.3700 C   0  0  1  0  0  3  0  0  0  0  0  0
  192.9240  175.9950  142.1700 O   0  0  0  0  0  1  0  0  0  0  0  0
  190.5390  173.8290  140.2000 O   0  0  0  0  0  0  0  0  0  0  0  0
  192.2700  173.8010  141.7620 N   0  0  0  0  0  2  0  0  0  0  0  0
  192.0070  172.0000  140.0980 N   0  0  0  0  0  2  0  0  0  0  0  0
  191.5540  173.2380  140.6620 C   0  0  0  0  0  0  0  0  0  0  0  0
  189.9740  169.4160  138.1410 C   0  0  0  0  0  2  0  0  0  0  0  0
  193.2360  171.4410  137.3210 C   0  0  0  0  0  1  0  0  0  0  0  0
  191.7680  171.7130  137.6040 C   0  0  1  0  0  3  0  0  0  0  0  0
  190.9020  171.0700  136.5110 C   0  0  1  0  0  3  0  0  0  0  0  0
  190.6820  169.5850  136.8010 C   0  0  0  0  0  2  0  0  0  0  0  0
  190.6580  170.1890  139.2330 C   0  0  0  0  0  3  0  0  0  0  0  0
  191.4180  171.2730  139.0080 C   0  0  0  0  0  0  0  0  0  0  0  0
  189.8320  172.6290  135.3620 C   0  0  0  0  0  1  0  0  0  0  0  0
  189.6760  171.7330  136.4190 O   0  0  0  0  0  0  0  0  0  0  0  0
  191.2250  177.1110  145.0540 C   0  0  0  0  0  1  0  0  0  0  0  0
  192.2380  176.0340  144.7010 C   0  0  1  0  0  3  0  0  0  0  0  0
  193.0350  175.4040  146.2080 S   0  0  0  0  0  0  0  0  0  0  0  0
  194.6570  175.3210  145.3960 C   0  0  1  0  0  3  0  0  0  0  0  0
  194.8310  177.6780  145.6850 O   0  0  0  0  0  1  0  0  0  0  0  0
  195.7400  176.8570  143.7470 O   0  0  0  0  0  0  0  0  0  0  0  0
  195.0740  176.6820  144.9550 C   0  0  0  0  0  0  0  0  0  0  0  0
  195.6020  174.7990  146.2840 O   0  0  0  0  0  0  0  0  0  0  0  0
  196.4850  173.6590  145.3900 P   0  0  0  0  0  0  0  0  0  0  0  0
  197.8340  174.3940  144.6820 O   0  0  0  0  0  1  0  0  0  0  0  0
  195.5080  172.9890  144.1810 O   0  0  0  0  0  0  0  0  0  0  0  0
  196.9490  172.5580  146.3150 O   0  0  0  0  0  1  0  0  0  0  0  0
  190.1590  174.6380  144.2330 C   0  0  2  0  0  3  0  0  0  0  0  0
  189.9440  173.2150  144.7120 C   0  0  0  0  0  1  0  0  0  0  0  0
  189.2670  174.9390  143.1180 N   0  0  0  0  0  2  0  0  0  0  0  0
  185.8730  177.4300  145.6710 N   0  0  0  0  0  0  0  0  0  0  0  0
  183.8710  178.8020  145.9610 N   0  0  0  0  0  1  0  0  0  0  0  0
  186.1670  176.8430  142.2110 C   0  0  0  0  0  3  0  0  0  0  0  0
  184.6950  177.9880  143.8100 N   0  0  0  0  0  0  0  0  0  0  0  0
  184.8020  178.0810  145.1620 C   0  0  0  0  0  0  0  0  0  0  0  0
  186.4750  176.8980  144.6010 C   0  0  0  0  0  0  0  0  0  0  0  0
  186.2850  177.3440  147.0640 C   0  0  0  0  0  1  0  0  0  0  0  0
  188.0740  175.7110  143.2660 C   0  0  0  0  0  0  0  0  0  0  0  0
  185.7670  177.2380  143.4850 C   0  0  0  0  0  0  0  0  0  0  0  0
  187.6380  176.1330  144.5410 C   0  0  0  0  0  3  0  0  0  0  0  0
  187.3400  176.0700  142.1120 C   0  0  0  0  0  3  0  0  0  0  0  0
  1  2  1  6  0  0  0
  1 29  1  0  0  0  0
  1 18  1  0  0  0  0
  2  3  1  1  0  0  0
  4  7  2  0  0  0  0
  5  2  1  0  0  0  0
  6  7  1  0  0  0  0
  7  5  1  0  0  0  0
  8 13  1  0  0  0  0
 10  9  1  6  0  0  0
 10 14  1  0  0  0  0
 11 16  1  1  0  0  0
 11 12  1  0  0  0  0
 11 10  1  0  0  0  0
 12  8  1  0  0  0  0
 14 13  2  0  0  0  0
 14  6  1  0  0  0  0
 15 16  1  0  0  0  0
 18 17  1  1  0  0  0
 18 19  1  0  0  0  0
 20 23  1  1  0  0  0
 20 19  1  0  0  0  0
 20 24  1  0  0  0  0
 22 23  2  0  0  0  0
 23 21  1  0  0  0  0
 25 24  1  0  0  0  0
 25 28  1  0  0  0  0
 26 25  1  0  0  0  0
 27 25  2  0  0  0  0
 29 30  1  6  0  0  0
 31 39  1  0  0  0  0
 31 29  1  0  0  0  0
 32 38  1  0  0  0  0
 34 40  1  0  0  0  0
 35 36  2  0  0  0  0
 36 32  1  0  0  0  0
 36 33  1  0  0  0  0
 37 32  1  0  0  0  0
 39 41  2  0  0  0  0
 40 35  1  0  0  0  0
 40 37  2  0  0  0  0
 41 37  1  0  0  0  0
 42 34  2  0  0  0  0
 42 39  1  0  0  0  0
M  END
>  <MODEL>
3

>  <REMARK>
 VINA RESULT:      -6.0      2.041      3.306
  Name = 
  13 active torsions:
  status: ('A' for Active; 'I' for Inactive)
    1  A    between atoms: N_3  and  C_19
    2  A    between atoms: N_3  and  C_29
    3  A    between atoms: P_7  and  O_42
    4  A    between atoms: C_12  and  N_15
    5  A    between atoms: C_12  and  C_36
    6  A    between atoms: C_16  and  S_27
    7  A    between atoms: C_16  and  C_41
    8  A    between atoms: C_16  and  O_42
    9  A    between atoms: N_22  and  C_33
   10  A    between atoms: C_25  and  O_30
   11  A    between atoms: S_27  and  C_38
   12  A    between atoms: C_29  and  C_36
   13  A    between atoms: C_36  and  C_38
                            x       y       z     vdW  Elec       q    Type
                         _______ _______ _______ _____ _____    ______ ____

>  <TORSDO>
F 13

$$$$
=
 OpenBabel11042415293D

 42 44  0  0  1  0  0  0  0  0999 V2000
  191.0650  175.1120  144.8290 C   0  0  1  0  0  3  0  0  0  0  0  0
  190.7350  173.7760  144.1440 C   0  0  1  0  0  3  0  0  0  0  0  0
  189.8350  173.0460  144.9230 O   0  0  0  0  0  1  0  0  0  0  0  0
  191.3230  172.2800  141.7960 O   0  0  0  0  0  0  0  0  0  0  0  0
  190.1510  174.0100  142.8300 N   0  0  0  0  0  2  0  0  0  0  0  0
  189.8320  173.4840  140.4430 N   0  0  0  0  0  2  0  0  0  0  0  0
  190.4780  173.2110  141.6930 C   0  0  0  0  0  0  0  0  0  0  0  0
  189.8230  170.7740  137.7420 C   0  0  0  0  0  2  0  0  0  0  0  0
  192.1950  173.8130  138.4820 C   0  0  0  0  0  1  0  0  0  0  0  0
  190.7470  173.5670  138.0930 C   0  0  1  0  0  3  0  0  0  0  0  0
  190.6880  172.8860  136.7190 C   0  0  1  0  0  3  0  0  0  0  0  0
  190.9060  171.3780  136.8550 C   0  0  0  0  0  2  0  0  0  0  0  0
  189.6840  171.5210  139.0380 C   0  0  0  0  0  3  0  0  0  0  0  0
  190.0350  172.8080  139.1910 C   0  0  0  0  0  0  0  0  0  0  0  0
  189.4090  174.5310  135.9760 C   0  0  0  0  0  1  0  0  0  0  0  0
  189.4590  173.1440  136.1080 O   0  0  0  0  0  0  0  0  0  0  0  0
  192.2790  175.2920  147.0630 C   0  0  0  0  0  1  0  0  0  0  0  0
  192.4110  175.0570  145.5670 C   0  0  1  0  0  3  0  0  0  0  0  0
  193.2680  173.4850  145.2520 S   0  0  0  0  0  0  0  0  0  0  0  0
  194.4070  174.2650  144.0730 C   0  0  1  0  0  3  0  0  0  0  0  0
  195.9430  174.6690  145.8470 O   0  0  0  0  0  1  0  0  0  0  0  0
  195.7190  176.3780  144.3340 O   0  0  0  0  0  0  0  0  0  0  0  0
  195.3940  175.1100  144.8040 C   0  0  0  0  0  0  0  0  0  0  0  0
  195.0750  173.2800  143.3410 O   0  0  0  0  0  0  0  0  0  0  0  0
  194.9380  173.7480  141.7170 P   0  0  0  0  0  0  0  0  0  0  0  0
  196.3620  174.5080  141.2090 O   0  0  0  0  0  1  0  0  0  0  0  0
  193.6340  174.8100  141.5290 O   0  0  0  0  0  1  0  0  0  0  0  0
  194.7010  172.5210  140.8670 O   0  0  0  0  0  0  0  0  0  0  0  0
  190.9660  176.3390  143.9060 C   0  0  2  0  0  3  0  0  0  0  0  0
  192.2720  177.1110  143.8740 C   0  0  0  0  0  1  0  0  0  0  0  0
  189.8650  177.2190  144.2840 N   0  0  0  0  0  2  0  0  0  0  0  0
  185.0680  178.0620  143.5670 N   0  0  0  0  0  0  0  0  0  0  0  0
  183.0400  178.3870  142.2400 N   0  0  0  0  0  1  0  0  0  0  0  0
  187.6550  177.4290  141.2630 C   0  0  0  0  0  3  0  0  0  0  0  0
  185.2420  177.8870  141.3070 N   0  0  0  0  0  0  0  0  0  0  0  0
  184.4310  178.1140  142.3740 C   0  0  0  0  0  0  0  0  0  0  0  0
  186.3390  177.7880  143.2490 C   0  0  0  0  0  0  0  0  0  0  0  0
  184.5010  178.2730  144.8900 C   0  0  0  0  0  1  0  0  0  0  0  0
  188.6870  177.3700  143.4900 C   0  0  0  0  0  0  0  0  0  0  0  0
  186.4400  177.6880  141.8920 C   0  0  0  0  0  0  0  0  0  0  0  0
  187.4370  177.6360  144.0920 C   0  0  0  0  0  3  0  0  0  0  0  0
  188.7880  177.2710  142.0840 C   0  0  0  0  0  3  0  0  0  0  0  0
  1 29  1  6  0  0  0
  1 18  1  0  0  0  0
  2  1  1  0  0  0  0
  2  3  1  1  0  0  0
  5  2  1  0  0  0  0
  6  7  1  0  0  0  0
  7  4  2  0  0  0  0
  7  5  1  0  0  0  0
  8 13  1  0  0  0  0
 10  9  1  1  0  0  0
 10 14  1  0  0  0  0
 11 16  1  1  0  0  0
 11 12  1  0  0  0  0
 11 10  1  0  0  0  0
 12  8  1  0  0  0  0
 13 14  2  0  0  0  0
 14  6  1  0  0  0  0
 15 16  1  0  0  0  0
 18 17  1  1  0  0  0
 19 18  1  0  0  0  0
 20 24  1  1  0  0  0
 20 23  1  0  0  0  0
 20 19  1  0  0  0  0
 22 23  2  0  0  0  0
 23 21  1  0  0  0  0
 25 24  1  0  0  0  0
 26 25  1  0  0  0  0
 27 25  1  0  0  0  0
 28 25  2  0  0  0  0
 29 30  1  1  0  0  0
 29 31  1  0  0  0  0
 32 38  1  0  0  0  0
 33 36  1  0  0  0  0
 34 40  2  0  0  0  0
 34 42  1  0  0  0  0
 35 40  1  0  0  0  0
 35 36  2  0  0  0  0
 36 32  1  0  0  0  0
 37 32  1  0  0  0  0
 37 41  2  0  0  0  0
 39 41  1  0  0  0  0
 39 31  1  0  0  0  0
 40 37  1  0  0  0  0
 42 39  2  0  0  0  0
M  END
>  <MODEL>
4

>  <REMARK>
 VINA RESULT:      -6.0      1.051      2.029
  Name = 
  13 active torsions:
  status: ('A' for Active; 'I' for Inactive)
    1  A    between atoms: N_3  and  C_19
    2  A    between atoms: N_3  and  C_29
    3  A    between atoms: P_7  and  O_42
    4  A    between atoms: C_12  and  N_15
    5  A    between atoms: C_12  and  C_36
    6  A    between atoms: C_16  and  S_27
    7  A    between atoms: C_16  and  C_41
    8  A    between atoms: C_16  and  O_42
    9  A    between atoms: N_22  and  C_33
   10  A    between atoms: C_25  and  O_30
   11  A    between atoms: S_27  and  C_38
   12  A    between atoms: C_29  and  C_36
   13  A    between atoms: C_36  and  C_38
                            x       y       z     vdW  Elec       q    Type
                         _______ _______ _______ _____ _____    ______ ____

>  <TORSDO>
F 13

$$$$
=
 OpenBabel11042415293D

 42 44  0  0  1  0  0  0  0  0999 V2000
  191.8660  174.1650  143.7860 C   0  0  1  0  0  3  0  0  0  0  0  0
  191.9130  175.0670  142.5420 C   0  0  1  0  0  3  0  0  0  0  0  0
  192.7580  176.1550  142.7690 O   0  0  0  0  0  1  0  0  0  0  0  0
  190.2870  173.5130  140.7980 O   0  0  0  0  0  0  0  0  0  0  0  0
  192.3940  174.3190  141.3890 N   0  0  0  0  0  2  0  0  0  0  0  0
  192.0720  172.8890  139.4060 N   0  0  0  0  0  2  0  0  0  0  0  0
  191.5220  173.5700  140.5420 C   0  0  0  0  0  0  0  0  0  0  0  0
  189.8920  170.1280  137.9020 C   0  0  0  0  0  2  0  0  0  0  0  0
  192.9240  172.2030  136.5180 C   0  0  0  0  0  1  0  0  0  0  0  0
  191.4990  172.4440  136.9900 C   0  0  1  0  0  3  0  0  0  0  0  0
  190.5170  171.7090  136.0680 C   0  0  1  0  0  3  0  0  0  0  0  0
  190.3990  170.2380  136.4680 C   0  0  0  0  0  2  0  0  0  0  0  0
  190.6900  170.9860  138.8420 C   0  0  0  0  0  3  0  0  0  0  0  0
  191.3670  172.0790  138.4520 C   0  0  0  0  0  0  0  0  0  0  0  0
  189.5040  173.6510  135.7570 C   0  0  0  0  0  1  0  0  0  0  0  0
  189.2640  172.3250  136.1130 O   0  0  0  0  0  0  0  0  0  0  0  0
  192.4760  174.9940  146.1180 C   0  0  0  0  0  1  0  0  0  0  0  0
  192.9920  174.5000  144.7750 C   0  0  1  0  0  3  0  0  0  0  0  0
  194.0990  173.0780  145.0130 S   0  0  0  0  0  0  0  0  0  0  0  0
  195.5760  174.0940  144.7220 C   0  0  1  0  0  3  0  0  0  0  0  0
  197.1150  173.6670  146.4860 O   0  0  0  0  0  1  0  0  0  0  0  0
  197.5140  172.5260  144.5380 O   0  0  0  0  0  0  0  0  0  0  0  0
  196.7750  173.4240  145.3000 C   0  0  0  0  0  0  0  0  0  0  0  0
  195.7530  174.2840  143.3490 O   0  0  0  0  0  0  0  0  0  0  0  0
  196.3050  175.8780  143.1770 P   0  0  0  0  0  0  0  0  0  0  0  0
  195.6790  176.8460  144.4150 O   0  0  0  0  0  1  0  0  0  0  0  0
  195.8250  176.4990  141.6780 O   0  0  0  0  0  0  0  0  0  0  0  0
  197.8140  175.8900  143.2550 O   0  0  0  0  0  1  0  0  0  0  0  0
  190.4920  174.1100  144.4770 C   0  0  2  0  0  3  0  0  0  0  0  0
  189.9340  172.6990  144.4810 C   0  0  0  0  0  1  0  0  0  0  0  0
  189.5380  175.0320  143.8680 N   0  0  0  0  0  2  0  0  0  0  0  0
  185.4230  177.6720  144.4520 N   0  0  0  0  0  0  0  0  0  0  0  0
  183.7040  178.8600  145.7200 N   0  0  0  0  0  1  0  0  0  0  0  0
  187.7560  176.5070  146.8190 C   0  0  0  0  0  3  0  0  0  0  0  0
  185.6650  177.7900  146.7090 N   0  0  0  0  0  0  0  0  0  0  0  0
  184.9150  178.1180  145.6230 C   0  0  0  0  0  0  0  0  0  0  0  0
  186.5460  177.0340  144.8020 C   0  0  0  0  0  0  0  0  0  0  0  0
  184.8660  177.8360  143.1180 C   0  0  0  0  0  1  0  0  0  0  0  0
  188.5640  175.7510  144.6260 C   0  0  0  0  0  0  0  0  0  0  0  0
  186.6860  177.1030  146.1590 C   0  0  0  0  0  0  0  0  0  0  0  0
  187.4630  176.3680  143.9920 C   0  0  0  0  0  3  0  0  0  0  0  0
  188.7020  175.8210  146.0320 C   0  0  0  0  0  3  0  0  0  0  0  0
  1  2  1  6  0  0  0
  1 29  1  0  0  0  0
  1 18  1  0  0  0  0
  2  3  1  1  0  0  0
  5  2  1  0  0  0  0
  6  7  1  0  0  0  0
  7  4  2  0  0  0  0
  7  5  1  0  0  0  0
  8 13  1  0  0  0  0
 10  9  1  6  0  0  0
 10 14  1  0  0  0  0
 11 16  1  1  0  0  0
 11 12  1  0  0  0  0
 11 10  1  0  0  0  0
 12  8  1  0  0  0  0
 14 13  2  0  0  0  0
 14  6  1  0  0  0  0
 15 16  1  0  0  0  0
 18 19  1  0  0  0  0
 18 17  1  1  0  0  0
 20 24  1  6  0  0  0
 20 19  1  0  0  0  0
 20 23  1  0  0  0  0
 22 23  2  0  0  0  0
 23 21  1  0  0  0  0
 25 28  1  0  0  0  0
 25 24  1  0  0  0  0
 25 26  1  0  0  0  0
 27 25  2  0  0  0  0
 29 30  1  6  0  0  0
 31 29  1  0  0  0  0
 31 39  1  0  0  0  0
 32 37  1  0  0  0  0
 32 36  1  0  0  0  0
 36 33  1  0  0  0  0
 36 35  2  0  0  0  0
 37 40  2  0  0  0  0
 38 32  1  0  0  0  0
 39 42  1  0  0  0  0
 40 35  1  0  0  0  0
 40 34  1  0  0  0  0
 41 39  2  0  0  0  0
 41 37  1  0  0  0  0
 42 34  2  0  0  0  0
M  END
>  <MODEL>
5

>  <REMARK>
 VINA RESULT:      -5.9      1.948      3.043
  Name = 
  13 active torsions:
  status: ('A' for Active; 'I' for Inactive)
    1  A    between atoms: N_3  and  C_19
    2  A    between atoms: N_3  and  C_29
    3  A    between atoms: P_7  and  O_42
    4  A    between atoms: C_12  and  N_15
    5  A    between atoms: C_12  and  C_36
    6  A    between atoms: C_16  and  S_27
    7  A    between atoms: C_16  and  C_41
    8  A    between atoms: C_16  and  O_42
    9  A    between atoms: N_22  and  C_33
   10  A    between atoms: C_25  and  O_30
   11  A    between atoms: S_27  and  C_38
   12  A    between atoms: C_29  and  C_36
   13  A    between atoms: C_36  and  C_38
                            x       y       z     vdW  Elec       q    Type
                         _______ _______ _______ _____ _____    ______ ____

>  <TORSDO>
F 13

$$$$
=
 OpenBabel11042415293D

 42 44  0  0  1  0  0  0  0  0999 V2000
  191.4980  174.9550  144.3500 C   0  0  1  0  0  3  0  0  0  0  0  0
  190.9930  173.6350  143.7470 C   0  0  1  0  0  3  0  0  0  0  0  0
  190.1020  173.0160  144.6260 O   0  0  0  0  0  1  0  0  0  0  0  0
  191.4880  172.2200  141.3280 O   0  0  0  0  0  0  0  0  0  0  0  0
  190.3220  173.8800  142.4770 N   0  0  0  0  0  2  0  0  0  0  0  0
  189.8750  173.4040  140.1000 N   0  0  0  0  0  2  0  0  0  0  0  0
  190.6060  173.1220  141.3020 C   0  0  0  0  0  0  0  0  0  0  0  0
  189.7390  170.7830  137.3160 C   0  0  0  0  0  2  0  0  0  0  0  0
  192.1670  173.7750  138.0640 C   0  0  0  0  0  1  0  0  0  0  0  0
  190.7030  173.5550  137.7220 C   0  0  1  0  0  3  0  0  0  0  0  0
  190.5860  172.9190  136.3300 C   0  0  1  0  0  3  0  0  0  0  0  0
  190.7930  171.4060  136.4090 C   0  0  0  0  0  2  0  0  0  0  0  0
  189.6550  171.4890  138.6390 C   0  0  0  0  0  3  0  0  0  0  0  0
  190.0250  172.7670  138.8210 C   0  0  0  0  0  0  0  0  0  0  0  0
  189.3400  174.5900  135.5860 C   0  0  0  0  0  1  0  0  0  0  0  0
  189.3370  173.2080  135.7740 O   0  0  0  0  0  0  0  0  0  0  0  0
  193.2090  174.9490  146.2400 C   0  0  0  0  0  1  0  0  0  0  0  0
  192.9820  174.8740  144.7380 C   0  0  1  0  0  3  0  0  0  0  0  0
  193.7560  173.3760  144.0610 S   0  0  0  0  0  0  0  0  0  0  0  0
  195.4060  174.1320  144.0940 C   0  0  1  0  0  3  0  0  0  0  0  0
  197.0080  173.5610  145.7600 O   0  0  0  0  0  1  0  0  0  0  0  0
  196.5890  171.9330  144.2010 O   0  0  0  0  0  0  0  0  0  0  0  0
  196.3790  173.2010  144.7310 C   0  0  0  0  0  0  0  0  0  0  0  0
  195.8150  174.4270  142.7900 O   0  0  0  0  0  0  0  0  0  0  0  0
  196.4310  176.0070  142.8530 P   0  0  0  0  0  0  0  0  0  0  0  0
  195.8490  176.8030  144.2270 O   0  0  0  0  0  1  0  0  0  0  0  0
  195.9720  176.8630  141.4680 O   0  0  0  0  0  0  0  0  0  0  0  0
  197.9400  175.9460  142.9180 O   0  0  0  0  0  1  0  0  0  0  0  0
  191.1960  176.2000  143.4960 C   0  0  2  0  0  3  0  0  0  0  0  0
  192.4530  176.7310  142.8330 C   0  0  0  0  0  1  0  0  0  0  0  0
  190.5470  177.2510  144.2730 N   0  0  0  0  0  2  0  0  0  0  0  0
  186.1070  178.1660  146.1930 N   0  0  0  0  0  0  0  0  0  0  0  0
  183.7150  178.6640  146.1270 N   0  0  0  0  0  1  0  0  0  0  0  0
  187.1390  177.8710  142.8390 C   0  0  0  0  0  3  0  0  0  0  0  0
  185.1120  178.3090  144.1540 N   0  0  0  0  0  0  0  0  0  0  0  0
  184.9630  178.3820  145.5040 C   0  0  0  0  0  0  0  0  0  0  0  0
  187.0250  177.9440  145.2450 C   0  0  0  0  0  0  0  0  0  0  0  0
  186.2960  178.1880  147.6350 C   0  0  0  0  0  1  0  0  0  0  0  0
  189.1430  177.5060  144.2110 C   0  0  0  0  0  0  0  0  0  0  0  0
  186.4250  178.0350  144.0220 C   0  0  0  0  0  0  0  0  0  0  0  0
  188.3850  177.6800  145.3900 C   0  0  0  0  0  3  0  0  0  0  0  0
  188.5180  177.6050  142.9460 C   0  0  0  0  0  3  0  0  0  0  0  0
  1 29  1  6  0  0  0
  1 18  1  0  0  0  0
  2  1  1  0  0  0  0
  2  3  1  1  0  0  0
  5  2  1  0  0  0  0
  6  7  1  0  0  0  0
  7  4  2  0  0  0  0
  7  5  1  0  0  0  0
  8 13  1  0  0  0  0
 10  9  1  1  0  0  0
 10 14  1  0  0  0  0
 11 16  1  1  0  0  0
 11 12  1  0  0  0  0
 11 10  1  0  0  0  0
 12  8  1  0  0  0  0
 13 14  2  0  0  0  0
 14  6  1  0  0  0  0
 15 16  1  0  0  0  0
 18 17  1  1  0  0  0
 19 20  1  0  0  0  0
 19 18  1  0  0  0  0
 20 24  1  6  0  0  0
 20 23  1  0  0  0  0
 22 23  2  0  0  0  0
 23 21  1  0  0  0  0
 24 25  1  0  0  0  0
 25 28  1  0  0  0  0
 25 26  1  0  0  0  0
 27 25  2  0  0  0  0
 29 30  1  1  0  0  0
 29 31  1  0  0  0  0
 32 38  1  0  0  0  0
 34 42  2  0  0  0  0
 34 40  1  0  0  0  0
 35 36  2  0  0  0  0
 36 33  1  0  0  0  0
 36 32  1  0  0  0  0
 37 41  1  0  0  0  0
 37 32  1  0  0  0  0
 39 31  1  0  0  0  0
 39 41  2  0  0  0  0
 40 35  1  0  0  0  0
 40 37  2  0  0  0  0
 42 39  1  0  0  0  0
M  END
>  <MODEL>
6

>  <REMARK>
 VINA RESULT:      -5.9      1.676      2.883
  Name = 
  13 active torsions:
  status: ('A' for Active; 'I' for Inactive)
    1  A    between atoms: N_3  and  C_19
    2  A    between atoms: N_3  and  C_29
    3  A    between atoms: P_7  and  O_42
    4  A    between atoms: C_12  and  N_15
    5  A    between atoms: C_12  and  C_36
    6  A    between atoms: C_16  and  S_27
    7  A    between atoms: C_16  and  C_41
    8  A    between atoms: C_16  and  O_42
    9  A    between atoms: N_22  and  C_33
   10  A    between atoms: C_25  and  O_30
   11  A    between atoms: S_27  and  C_38
   12  A    between atoms: C_29  and  C_36
   13  A    between atoms: C_36  and  C_38
                            x       y       z     vdW  Elec       q    Type
                         _______ _______ _______ _____ _____    ______ ____

>  <TORSDO>
F 13

$$$$
=
 OpenBabel11042415293D

 42 44  0  0  1  0  0  0  0  0999 V2000
  191.9290  175.7490  143.8220 C   0  0  1  0  0  3  0  0  0  0  0  0
  191.8090  177.1970  144.3250 C   0  0  1  0  0  3  0  0  0  0  0  0
  191.9330  178.0880  143.2570 O   0  0  0  0  0  1  0  0  0  0  0  0
  189.3930  177.9020  142.9980 O   0  0  0  0  0  0  0  0  0  0  0  0
  190.5230  177.4040  144.9760 N   0  0  0  0  0  2  0  0  0  0  0  0
  188.1070  177.8940  144.9610 N   0  0  0  0  0  2  0  0  0  0  0  0
  189.3410  177.7420  144.2480 C   0  0  0  0  0  0  0  0  0  0  0  0
  184.8490  179.7800  144.2770 C   0  0  0  0  0  2  0  0  0  0  0  0
  185.8340  175.9840  144.1110 C   0  0  0  0  0  1  0  0  0  0  0  0
  186.2020  177.2880  143.4220 C   0  0  1  0  0  3  0  0  0  0  0  0
  184.9760  177.8510  142.6910 C   0  0  1  0  0  3  0  0  0  0  0  0
  184.0770  178.6200  143.6590 C   0  0  0  0  0  2  0  0  0  0  0  0
  186.1670  179.3340  144.8430 C   0  0  0  0  0  3  0  0  0  0  0  0
  186.8240  178.2440  144.4160 C   0  0  0  0  0  0  0  0  0  0  0  0
  186.2650  177.9080  140.8930 C   0  0  0  0  0  1  0  0  0  0  0  0
  185.3820  178.6830  141.6440 O   0  0  0  0  0  0  0  0  0  0  0  0
  193.6830  175.5210  141.9860 C   0  0  0  0  0  1  0  0  0  0  0  0
  193.3790  175.3850  143.4700 C   0  0  1  0  0  3  0  0  0  0  0  0
  194.5560  176.3690  144.4450 S   0  0  0  0  0  0  0  0  0  0  0  0
  195.9500  175.3180  143.9450 C   0  0  1  0  0  3  0  0  0  0  0  0
  197.7920  175.6030  142.4640 O   0  0  0  0  0  0  0  0  0  0  0  0
  197.0780  177.5080  143.5190 O   0  0  0  0  0  1  0  0  0  0  0  0
  196.9920  176.1430  143.2700 C   0  0  0  0  0  0  0  0  0  0  0  0
  196.4950  174.6930  145.0700 O   0  0  0  0  0  0  0  0  0  0  0  0
  196.4730  173.0330  144.7220 P   0  0  0  0  0  0  0  0  0  0  0  0
  196.7400  172.1400  146.1340 O   0  0  0  0  0  1  0  0  0  0  0  0
  197.6720  172.6640  143.5860 O   0  0  0  0  0  0  0  0  0  0  0  0
  195.1230  172.6640  144.1510 O   0  0  0  0  0  1  0  0  0  0  0  0
  191.2820  174.7020  144.7460 C   0  0  2  0  0  3  0  0  0  0  0  0
  192.2820  174.1640  145.7520 C   0  0  0  0  0  1  0  0  0  0  0  0
  190.6800  173.6070  143.9920 N   0  0  0  0  0  2  0  0  0  0  0  0
  190.2100  173.1720  139.1100 N   0  0  0  0  0  0  0  0  0  0  0  0
  189.0920  173.4270  136.9520 N   0  0  0  0  0  1  0  0  0  0  0  0
  188.0830  174.6480  141.4970 C   0  0  0  0  0  3  0  0  0  0  0  0
  188.2020  174.2350  139.0790 N   0  0  0  0  0  0  0  0  0  0  0  0
  189.1720  173.6080  138.3610 C   0  0  0  0  0  0  0  0  0  0  0  0
  189.8930  173.5370  140.3580 C   0  0  0  0  0  0  0  0  0  0  0  0
  191.3940  172.4540  138.6620 C   0  0  0  0  0  1  0  0  0  0  0  0
  190.0250  173.7990  142.7370 C   0  0  0  0  0  0  0  0  0  0  0  0
  188.6840  174.1720  140.3360 C   0  0  0  0  0  0  0  0  0  0  0  0
  190.6020  173.3270  141.5380 C   0  0  0  0  0  3  0  0  0  0  0  0
  188.7710  174.4520  142.7100 C   0  0  0  0  0  3  0  0  0  0  0  0
  1 18  1  1  0  0  0
  1  2  1  0  0  0  0
  1 29  1  0  0  0  0
  2  3  1  6  0  0  0
  2  5  1  0  0  0  0
  4  7  2  0  0  0  0
  7  6  1  0  0  0  0
  7  5  1  0  0  0  0
  8 13  1  0  0  0  0
 10  9  1  1  0  0  0
 10 14  1  0  0  0  0
 11 16  1  6  0  0  0
 11 10  1  0  0  0  0
 11 12  1  0  0  0  0
 12  8  1  0  0  0  0
 14 13  2  0  0  0  0
 14  6  1  0  0  0  0
 15 16  1  0  0  0  0
 18 17  1  6  0  0  0
 18 19  1  0  0  0  0
 20 23  1  1  0  0  0
 20 19  1  0  0  0  0
 20 24  1  0  0  0  0
 21 23  2  0  0  0  0
 23 22  1  0  0  0  0
 25 24  1  0  0  0  0
 25 26  1  0  0  0  0
 27 25  2  0  0  0  0
 28 25  1  0  0  0  0
 29 30  1  1  0  0  0
 31 29  1  0  0  0  0
 32 37  1  0  0  0  0
 33 36  1  0  0  0  0
 34 42  1  0  0  0  0
 35 40  1  0  0  0  0
 36 35  2  0  0  0  0
 36 32  1  0  0  0  0
 37 41  2  0  0  0  0
 38 32  1  0  0  0  0
 39 31  1  0  0  0  0
 40 37  1  0  0  0  0
 40 34  2  0  0  0  0
 41 39  1  0  0  0  0
 42 39  2  0  0  0  0
M  END
>  <MODEL>
7

>  <REMARK>
 VINA RESULT:      -5.8      2.685      6.272
  Name = 
  13 active torsions:
  status: ('A' for Active; 'I' for Inactive)
    1  A    between atoms: N_3  and  C_19
    2  A    between atoms: N_3  and  C_29
    3  A    between atoms: P_7  and  O_42
    4  A    between atoms: C_12  and  N_15
    5  A    between atoms: C_12  and  C_36
    6  A    between atoms: C_16  and  S_27
    7  A    between atoms: C_16  and  C_41
    8  A    between atoms: C_16  and  O_42
    9  A    between atoms: N_22  and  C_33
   10  A    between atoms: C_25  and  O_30
   11  A    between atoms: S_27  and  C_38
   12  A    between atoms: C_29  and  C_36
   13  A    between atoms: C_36  and  C_38
                            x       y       z     vdW  Elec       q    Type
                         _______ _______ _______ _____ _____    ______ ____

>  <TORSDO>
F 13

$$$$
=
 OpenBabel11042415293D

 42 44  0  0  1  0  0  0  0  0999 V2000
  193.1550  174.7150  144.6440 C   0  0  1  0  0  3  0  0  0  0  0  0
  192.0880  175.7400  144.2290 C   0  0  1  0  0  3  0  0  0  0  0  0
  192.0110  175.8170  142.8370 O   0  0  0  0  0  1  0  0  0  0  0  0
  189.8830  177.5040  144.5800 O   0  0  0  0  0  0  0  0  0  0  0  0
  190.7860  175.3620  144.7620 N   0  0  0  0  0  2  0  0  0  0  0  0
  188.4510  175.8340  145.3970 N   0  0  0  0  0  2  0  0  0  0  0  0
  189.7130  176.2950  144.8970 C   0  0  0  0  0  0  0  0  0  0  0  0
  185.5370  177.5830  147.1540 C   0  0  0  0  0  2  0  0  0  0  0  0
  185.9870  176.0850  143.5530 C   0  0  0  0  0  1  0  0  0  0  0  0
  186.5750  177.1980  144.4060 C   0  0  1  0  0  3  0  0  0  0  0  0
  185.4860  178.2270  144.7380 C   0  0  1  0  0  3  0  0  0  0  0  0
  184.6470  177.7600  145.9280 C   0  0  0  0  0  2  0  0  0  0  0  0
  186.7430  176.7420  146.8500 C   0  0  0  0  0  3  0  0  0  0  0  0
  187.2650  176.6140  145.6190 C   0  0  0  0  0  0  0  0  0  0  0  0
  185.3200  180.3830  144.2690 C   0  0  0  0  0  1  0  0  0  0  0  0
  186.0660  179.4680  145.0110 O   0  0  0  0  0  0  0  0  0  0  0  0
  194.4320  172.7100  143.7240 C   0  0  0  0  0  1  0  0  0  0  0  0
  193.1070  173.4550  143.7670 C   0  0  1  0  0  3  0  0  0  0  0  0
  191.7760  172.3370  144.2970 S   0  0  0  0  0  0  0  0  0  0  0  0
  191.1980  172.1070  142.5910 C   0  0  1  0  0  3  0  0  0  0  0  0
  192.5940  170.2170  142.2110 O   0  0  0  0  0  1  0  0  0  0  0  0
  190.3770  169.9160  141.7140 O   0  0  0  0  0  0  0  0  0  0  0  0
  191.4340  170.7000  142.1610 C   0  0  0  0  0  0  0  0  0  0  0  0
  189.8360  172.4070  142.5120 O   0  0  0  0  0  0  0  0  0  0  0  0
  189.6760  173.4460  141.1800 P   0  0  0  0  0  0  0  0  0  0  0  0
  188.6060  172.7820  140.0510 O   0  0  0  0  0  0  0  0  0  0  0  0
  191.1840  173.6900  140.4520 O   0  0  0  0  0  1  0  0  0  0  0  0
  189.1350  174.7750  141.6520 O   0  0  0  0  0  1  0  0  0  0  0  0
  194.5800  175.2890  144.7460 C   0  0  2  0  0  3  0  0  0  0  0  0
  194.8270  175.9100  146.1080 C   0  0  0  0  0  1  0  0  0  0  0  0
  194.8540  176.2580  143.6890 N   0  0  0  0  0  2  0  0  0  0  0  0
  195.6770  175.2670  138.9360 N   0  0  0  0  0  0  0  0  0  0  0  0
  197.0480  174.8120  136.9640 N   0  0  0  0  0  1  0  0  0  0  0  0
  197.9200  175.6180  141.6290 C   0  0  0  0  0  3  0  0  0  0  0  0
  197.9290  175.1550  139.2170 N   0  0  0  0  0  0  0  0  0  0  0  0
  196.8820  175.0730  138.3540 C   0  0  0  0  0  0  0  0  0  0  0  0
  195.9650  175.4790  140.2260 C   0  0  0  0  0  0  0  0  0  0  0  0
  194.3680  175.2630  138.3010 C   0  0  0  0  0  1  0  0  0  0  0  0
  195.6720  175.9580  142.5570 C   0  0  0  0  0  0  0  0  0  0  0  0
  197.3190  175.4150  140.3900 C   0  0  0  0  0  0  0  0  0  0  0  0
  195.0990  175.7480  141.2830 C   0  0  0  0  0  3  0  0  0  0  0  0
  197.0750  175.8950  142.7210 C   0  0  0  0  0  3  0  0  0  0  0  0
  1 18  1  6  0  0  0
  1 29  1  0  0  0  0
  2  3  1  6  0  0  0
  2  1  1  0  0  0  0
  2  5  1  0  0  0  0
  4  7  2  0  0  0  0
  5  7  1  0  0  0  0
  6 14  1  0  0  0  0
  7  6  1  0  0  0  0
 10  9  1  1  0  0  0
 10 11  1  0  0  0  0
 10 14  1  0  0  0  0
 11 16  1  1  0  0  0
 11 12  1  0  0  0  0
 12  8  1  0  0  0  0
 13  8  1  0  0  0  0
 14 13  2  0  0  0  0
 15 16  1  0  0  0  0
 18 17  1  1  0  0  0
 18 19  1  0  0  0  0
 20 23  1  1  0  0  0
 20 19  1  0  0  0  0
 22 23  2  0  0  0  0
 23 21  1  0  0  0  0
 24 20  1  0  0  0  0
 25 28  1  0  0  0  0
 25 24  1  0  0  0  0
 26 25  2  0  0  0  0
 27 25  1  0  0  0  0
 29 30  1  1  0  0  0
 31 29  1  0  0  0  0
 32 37  1  0  0  0  0
 33 36  1  0  0  0  0
 34 42  1  0  0  0  0
 35 40  1  0  0  0  0
 36 32  1  0  0  0  0
 36 35  2  0  0  0  0
 37 40  1  0  0  0  0
 37 41  2  0  0  0  0
 38 32  1  0  0  0  0
 39 42  2  0  0  0  0
 39 31  1  0  0  0  0
 40 34  2  0  0  0  0
 41 39  1  0  0  0  0
M  END
>  <MODEL>
8

>  <REMARK>
 VINA RESULT:      -5.8      3.536      8.522
  Name = 
  13 active torsions:
  status: ('A' for Active; 'I' for Inactive)
    1  A    between atoms: N_3  and  C_19
    2  A    between atoms: N_3  and  C_29
    3  A    between atoms: P_7  and  O_42
    4  A    between atoms: C_12  and  N_15
    5  A    between atoms: C_12  and  C_36
    6  A    between atoms: C_16  and  S_27
    7  A    between atoms: C_16  and  C_41
    8  A    between atoms: C_16  and  O_42
    9  A    between atoms: N_22  and  C_33
   10  A    between atoms: C_25  and  O_30
   11  A    between atoms: S_27  and  C_38
   12  A    between atoms: C_29  and  C_36
   13  A    between atoms: C_36  and  C_38
                            x       y       z     vdW  Elec       q    Type
                         _______ _______ _______ _____ _____    ______ ____

>  <TORSDO>
F 13

$$$$
=
 OpenBabel11042415293D

 42 44  0  0  1  0  0  0  0  0999 V2000
  190.4000  175.3920  144.8370 C   0  0  1  0  0  3  0  0  0  0  0  0
  190.1930  173.9450  144.3640 C   0  0  1  0  0  3  0  0  0  0  0  0
  189.6700  173.1710  145.4020 O   0  0  0  0  0  1  0  0  0  0  0  0
  190.9760  173.8900  141.6290 O   0  0  0  0  0  0  0  0  0  0  0  0
  189.2800  173.9060  143.2300 N   0  0  0  0  0  2  0  0  0  0  0  0
  188.7740  173.7910  140.8200 N   0  0  0  0  0  2  0  0  0  0  0  0
  189.7390  173.8630  141.8780 C   0  0  0  0  0  0  0  0  0  0  0  0
  188.4840  174.4490  137.0620 C   0  0  0  0  0  2  0  0  0  0  0  0
  189.8380  171.4170  139.1550 C   0  0  0  0  0  1  0  0  0  0  0  0
  190.1710  172.8820  138.9260 C   0  0  1  0  0  3  0  0  0  0  0  0
  190.5540  173.1020  137.4560 C   0  0  1  0  0  3  0  0  0  0  0  0
  189.3030  173.2520  136.5900 C   0  0  0  0  0  2  0  0  0  0  0  0
  188.2380  174.4050  138.5430 C   0  0  0  0  0  3  0  0  0  0  0  0
  189.0340  173.7550  139.4070 C   0  0  0  0  0  0  0  0  0  0  0  0
  192.4950  173.9450  138.1000 C   0  0  0  0  0  1  0  0  0  0  0  0
  191.3650  174.2320  137.3350 O   0  0  0  0  0  0  0  0  0  0  0  0
  190.6940  175.3070  147.3670 C   0  0  0  0  0  1  0  0  0  0  0  0
  189.7630  175.6400  146.2120 C   0  0  1  0  0  3  0  0  0  0  0  0
  189.1670  177.3510  146.3590 S   0  0  0  0  0  0  0  0  0  0  0  0
  187.6660  176.9810  145.4070 C   0  0  1  0  0  3  0  0  0  0  0  0
  186.7360  176.6420  147.5720 O   0  0  0  0  0  1  0  0  0  0  0  0
  185.2400  176.5580  145.8370 O   0  0  0  0  0  0  0  0  0  0  0  0
  186.5290  176.7150  146.3330 C   0  0  0  0  0  0  0  0  0  0  0  0
  187.3580  178.0610  144.5750 O   0  0  0  0  0  0  0  0  0  0  0  0
  187.4080  177.4470  142.9950 P   0  0  0  0  0  0  0  0  0  0  0  0
  186.6470  178.5190  141.9300 O   0  0  0  0  0  0  0  0  0  0  0  0
  186.6320  175.9440  142.9330 O   0  0  0  0  0  1  0  0  0  0  0  0
  188.8500  177.2750  142.5760 O   0  0  0  0  0  1  0  0  0  0  0  0
  191.8620  175.8720  144.7870 C   0  0  2  0  0  3  0  0  0  0  0  0
  191.9620  177.2760  144.2210 C   0  0  0  0  0  1  0  0  0  0  0  0
  192.7100  174.9570  144.0300 N   0  0  0  0  0  2  0  0  0  0  0  0
  195.2010  170.9360  145.3980 N   0  0  0  0  0  0  0  0  0  0  0  0
  197.0920  169.7030  146.3340 N   0  0  0  0  0  1  0  0  0  0  0  0
  196.0190  174.3500  145.6840 C   0  0  0  0  0  3  0  0  0  0  0  0
  196.9500  172.1390  146.2120 N   0  0  0  0  0  0  0  0  0  0  0  0
  196.4190  170.9070  145.9860 C   0  0  0  0  0  0  0  0  0  0  0  0
  194.9410  172.2400  145.2430 C   0  0  0  0  0  0  0  0  0  0  0  0
  194.3720  169.8060  145.0080 C   0  0  0  0  0  1  0  0  0  0  0  0
  193.8110  174.2580  144.6140 C   0  0  0  0  0  0  0  0  0  0  0  0
  195.9950  172.9590  145.7290 C   0  0  0  0  0  0  0  0  0  0  0  0
  193.8240  172.8480  144.6760 C   0  0  0  0  0  3  0  0  0  0  0  0
  194.9070  174.9990  145.1140 C   0  0  0  0  0  3  0  0  0  0  0  0
  1  2  1  1  0  0  0
  1 18  1  0  0  0  0
  2  3  1  1  0  0  0
  4  7  2  0  0  0  0
  5  2  1  0  0  0  0
  6  7  1  0  0  0  0
  7  5  1  0  0  0  0
  8 13  1  0  0  0  0
 10  9  1  6  0  0  0
 10 14  1  0  0  0  0
 11 16  1  1  0  0  0
 11 10  1  0  0  0  0
 12  8  1  0  0  0  0
 12 11  1  0  0  0  0
 13 14  2  0  0  0  0
 14  6  1  0  0  0  0
 16 15  1  0  0  0  0
 18 19  1  0  0  0  0
 18 17  1  1  0  0  0
 20 24  1  6  0  0  0
 20 23  1  0  0  0  0
 20 19  1  0  0  0  0
 22 23  2  0  0  0  0
 23 21  1  0  0  0  0
 25 24  1  0  0  0  0
 26 25  2  0  0  0  0
 27 25  1  0  0  0  0
 28 25  1  0  0  0  0
 29 30  1  6  0  0  0
 29  1  1  0  0  0  0
 31 39  1  0  0  0  0
 31 29  1  0  0  0  0
 32 36  1  0  0  0  0
 34 40  1  0  0  0  0
 36 35  2  0  0  0  0
 36 33  1  0  0  0  0
 37 32  1  0  0  0  0
 37 40  2  0  0  0  0
 38 32  1  0  0  0  0
 39 41  2  0  0  0  0
 39 42  1  0  0  0  0
 40 35  1  0  0  0  0
 41 37  1  0  0  0  0
 42 34  2  0  0  0  0
M  END
>  <MODEL>
9

>  <REMARK>
 VINA RESULT:      -5.8      3.729      7.442
  Name = 
  13 active torsions:
  status: ('A' for Active; 'I' for Inactive)
    1  A    between atoms: N_3  and  C_19
    2  A    between atoms: N_3  and  C_29
    3  A    between atoms: P_7  and  O_42
    4  A    between atoms: C_12  and  N_15
    5  A    between atoms: C_12  and  C_36
    6  A    between atoms: C_16  and  S_27
    7  A    between atoms: C_16  and  C_41
    8  A    between atoms: C_16  and  O_42
    9  A    between atoms: N_22  and  C_33
   10  A    between atoms: C_25  and  O_30
   11  A    between atoms: S_27  and  C_38
   12  A    between atoms: C_29  and  C_36
   13  A    between atoms: C_36  and  C_38
                            x       y       z     vdW  Elec       q    Type
                         _______ _______ _______ _____ _____    ______ ____

>  <TORSDO>
F 13

$$$$
