=
 OpenBabel11042414233D

 27 30  0  0  1  0  0  0  0  0999 V2000
  185.3050  178.2980  141.4570 C   0  0  1  0  0  3  0  0  0  0  0  0
  187.7910  177.8870  141.5310 C   0  0  0  0  0  2  0  0  0  0  0  0
  190.0470  173.8390  145.4000 C   0  0  0  0  0  3  0  0  0  0  0  0
  189.7300  175.1050  144.8860 C   0  0  0  0  0  0  0  0  0  0  0  0
  186.9820  177.7750  146.2610 C   0  0  0  0  0  0  0  0  0  0  0  0
  189.2770  173.4850  143.0470 S   0  0  0  0  0  0  0  0  0  0  0  0
  187.0760  177.2860  143.8650 C   0  0  0  0  0  0  0  0  0  0  0  0
  185.5930  177.8400  146.1940 C   0  0  0  0  0  3  0  0  0  0  0  0
  189.8370  172.8020  144.4880 C   0  0  0  0  0  3  0  0  0  0  0  0
  187.7590  176.8100  142.5940 C   0  0  2  0  0  3  0  0  0  0  0  0
  189.0750  176.2210  142.7750 N   0  0  0  0  0  2  0  0  0  0  0  0
  184.9620  177.4130  142.5670 N   0  0  0  0  0  2  0  0  0  0  0  0
  187.7430  177.5120  145.1050 C   0  0  0  0  0  0  0  0  0  0  0  0
  185.6720  177.4440  143.8100 C   0  0  0  0  0  0  0  0  0  0  0  0
  190.7400  176.4480  146.5520 O   0  0  0  0  0  0  0  0  0  0  0  0
  186.5260  177.7890  140.6950 C   0  0  0  0  0  2  0  0  0  0  0  0
  189.2690  175.0670  143.5890 C   0  0  0  0  0  0  0  0  0  0  0  0
  189.1740  177.5290  145.2140 N   0  0  0  0  0  2  0  0  0  0  0  0
  184.9430  177.6860  144.9740 C   0  0  0  0  0  3  0  0  0  0  0  0
  189.9080  176.3680  145.6110 C   0  0  0  0  0  0  0  0  0  0  0  0
  187.6360  177.9940  147.5840 C   0  0  0  0  0  1  0  0  0  0  0  0
  184.1180  178.3940  140.5170 C   0  0  0  0  0  2  0  0  0  0  0  0
  182.8360  178.0430  141.2470 C   0  0  0  0  0  2  0  0  0  0  0  0
  179.5350  179.9070  140.4780 C   0  0  0  0  0  1  0  0  0  0  0  0
  180.7040  179.4490  142.4960 O   0  0  0  0  0  0  0  0  0  0  0  0
  180.6680  179.3260  141.2430 C   0  0  0  0  0  0  0  0  0  0  0  0
  181.7050  178.6310  140.5500 N   0  0  0  0  0  2  0  0  0  0  0  0
  1 22  1  6  0  0  0
  1 12  1  0  0  0  0
  4  3  1  0  0  0  0
  4 20  1  0  0  0  0
  5 21  1  0  0  0  0
  6 17  1  0  0  0  0
  6  9  1  0  0  0  0
  7 13  1  0  0  0  0
  8  5  1  0  0  0  0
  9  3  2  0  0  0  0
 10  2  1  6  0  0  0
 10 11  1  0  0  0  0
 10  7  1  0  0  0  0
 11 17  1  0  0  0  0
 12 14  1  0  0  0  0
 13 18  1  0  0  0  0
 13  5  2  0  0  0  0
 14  7  2  0  0  0  0
 14 19  1  0  0  0  0
 16  1  1  0  0  0  0
 16  2  1  0  0  0  0
 17  4  2  0  0  0  0
 18 20  1  0  0  0  0
 19  8  2  0  0  0  0
 20 15  2  0  0  0  0
 22 23  1  0  0  0  0
 24 26  1  0  0  0  0
 26 25  2  0  0  0  0
 27 26  1  0  0  0  0
 27 23  1  0  0  0  0
M  END
>  <MODEL>
1

>  <REMARK>
 VINA RESULT:      -7.9      0.000      0.000
  Name = 
  3 active torsions:
  status: ('A' for Active; 'I' for Inactive)
    1  A    between atoms: C_1  and  C_22
    2  A    between atoms: C_2  and  N_8
    3  A    between atoms: C_2  and  C_22
                            x       y       z     vdW  Elec       q    Type
                         _______ _______ _______ _____ _____    ______ ____

>  <TORSDO>
F 3

$$$$
=
 OpenBabel11042414233D

 27 30  0  0  1  0  0  0  0  0999 V2000
  187.2440  178.0340  143.3340 C   0  0  1  0  0  3  0  0  0  0  0  0
  189.6490  177.9330  142.5850 C   0  0  0  0  0  2  0  0  0  0  0  0
  192.8960  172.9460  143.5920 C   0  0  0  0  0  3  0  0  0  0  0  0
  192.4500  174.2610  143.7800 C   0  0  0  0  0  0  0  0  0  0  0  0
  190.2070  175.7600  146.8280 C   0  0  0  0  0  0  0  0  0  0  0  0
  191.4920  173.5150  141.6020 S   0  0  0  0  0  0  0  0  0  0  0  0
  189.6200  176.3310  144.5220 C   0  0  0  0  0  0  0  0  0  0  0  0
  188.8550  175.6790  147.1530 C   0  0  0  0  0  3  0  0  0  0  0  0
  192.4350  172.3670  142.4080 C   0  0  0  0  0  3  0  0  0  0  0  0
  189.9160  176.5150  143.0430 C   0  0  2  0  0  3  0  0  0  0  0  0
  191.2280  176.0690  142.6080 N   0  0  0  0  0  2  0  0  0  0  0  0
  187.2250  176.7320  143.9950 N   0  0  0  0  0  2  0  0  0  0  0  0
  190.6100  176.0980  145.5210 C   0  0  0  0  0  0  0  0  0  0  0  0
  188.2570  176.3270  144.9010 C   0  0  0  0  0  0  0  0  0  0  0  0
  193.8920  174.8970  145.5440 O   0  0  0  0  0  0  0  0  0  0  0  0
  188.1980  178.0410  142.1430 C   0  0  0  0  0  2  0  0  0  0  0  0
  191.6410  174.7130  142.7600 C   0  0  0  0  0  0  0  0  0  0  0  0
  192.0130  176.2410  145.2580 N   0  0  0  0  0  2  0  0  0  0  0  0
  187.8880  175.9710  146.1980 C   0  0  0  0  0  3  0  0  0  0  0  0
  192.8270  175.1180  144.9090 C   0  0  0  0  0  0  0  0  0  0  0  0
  191.2080  175.4840  147.8990 C   0  0  0  0  0  1  0  0  0  0  0  0
  185.8390  178.3690  142.8660 C   0  0  0  0  0  2  0  0  0  0  0  0
  185.2570  179.4920  143.7030 C   0  0  0  0  0  2  0  0  0  0  0  0
  185.7570  178.9610  147.5020 C   0  0  0  0  0  1  0  0  0  0  0  0
  183.9270  178.5650  146.0380 O   0  0  0  0  0  0  0  0  0  0  0  0
  185.1110  178.9750  146.1640 C   0  0  0  0  0  0  0  0  0  0  0  0
  185.8390  179.4550  145.0340 N   0  0  0  0  0  2  0  0  0  0  0  0
  1 22  1  6  0  0  0
  1 12  1  0  0  0  0
  3  4  1  0  0  0  0
  4 20  1  0  0  0  0
  5  8  1  0  0  0  0
  5 21  1  0  0  0  0
  6  9  1  0  0  0  0
  6 17  1  0  0  0  0
  7 14  2  0  0  0  0
  7 13  1  0  0  0  0
  9  3  2  0  0  0  0
 10  2  1  1  0  0  0
 10  7  1  0  0  0  0
 11 17  1  0  0  0  0
 11 10  1  0  0  0  0
 12 14  1  0  0  0  0
 13  5  2  0  0  0  0
 14 19  1  0  0  0  0
 16  2  1  0  0  0  0
 16  1  1  0  0  0  0
 17  4  2  0  0  0  0
 18 13  1  0  0  0  0
 19  8  2  0  0  0  0
 20 18  1  0  0  0  0
 20 15  2  0  0  0  0
 22 23  1  0  0  0  0
 23 27  1  0  0  0  0
 25 26  2  0  0  0  0
 26 24  1  0  0  0  0
 27 26  1  0  0  0  0
M  END
>  <MODEL>
2

>  <REMARK>
 VINA RESULT:      -7.7      2.968      3.952
  Name = 
  3 active torsions:
  status: ('A' for Active; 'I' for Inactive)
    1  A    between atoms: C_1  and  C_22
    2  A    between atoms: C_2  and  N_8
    3  A    between atoms: C_2  and  C_22
                            x       y       z     vdW  Elec       q    Type
                         _______ _______ _______ _____ _____    ______ ____

>  <TORSDO>
F 3

$$$$
=
 OpenBabel11042414233D

 27 30  0  0  1  0  0  0  0  0999 V2000
  186.7900  177.2550  145.5340 C   0  0  1  0  0  3  0  0  0  0  0  0
  188.1960  175.6940  146.9270 C   0  0  0  0  0  2  0  0  0  0  0  0
  193.9340  174.6380  145.3790 C   0  0  0  0  0  3  0  0  0  0  0  0
  192.5610  174.3870  145.5170 C   0  0  0  0  0  0  0  0  0  0  0  0
  189.7140  174.2440  142.6110 C   0  0  0  0  0  0  0  0  0  0  0  0
  193.0290  176.4160  146.8880 S   0  0  0  0  0  0  0  0  0  0  0  0
  189.2650  175.5040  144.6600 C   0  0  0  0  0  0  0  0  0  0  0  0
  189.0550  175.2180  141.8670 C   0  0  0  0  0  3  0  0  0  0  0  0
  194.3660  175.7630  146.0850 C   0  0  0  0  0  3  0  0  0  0  0  0
  189.4720  175.8450  146.1260 C   0  0  2  0  0  3  0  0  0  0  0  0
  190.5760  175.1620  146.7780 N   0  0  0  0  0  2  0  0  0  0  0  0
  187.7930  177.4990  144.5010 N   0  0  0  0  0  2  0  0  0  0  0  0
  189.8180  174.3610  144.0110 C   0  0  0  0  0  0  0  0  0  0  0  0
  188.5280  176.4330  143.8900 C   0  0  0  0  0  0  0  0  0  0  0  0
  192.4910  172.1960  144.6270 O   0  0  0  0  0  0  0  0  0  0  0  0
  187.4370  177.0110  146.8940 C   0  0  0  0  0  2  0  0  0  0  0  0
  191.9170  175.3060  146.3160 C   0  0  0  0  0  0  0  0  0  0  0  0
  190.4420  173.2930  144.7390 N   0  0  0  0  0  2  0  0  0  0  0  0
  188.4570  176.3000  142.5030 C   0  0  0  0  0  3  0  0  0  0  0  0
  191.8590  173.2430  144.9270 C   0  0  0  0  0  0  0  0  0  0  0  0
  190.2980  173.0770  141.8870 C   0  0  0  0  0  1  0  0  0  0  0  0
  185.8650  178.4560  145.6150 C   0  0  0  0  0  2  0  0  0  0  0  0
  185.9080  179.2450  144.3210 C   0  0  0  0  0  2  0  0  0  0  0  0
  182.9610  178.2890  142.0060 C   0  0  0  0  0  1  0  0  0  0  0  0
  185.1910  177.4910  142.2030 O   0  0  0  0  0  0  0  0  0  0  0  0
  184.3130  178.2910  142.6220 C   0  0  0  0  0  0  0  0  0  0  0  0
  184.6040  179.2000  143.6830 N   0  0  0  0  0  2  0  0  0  0  0  0
  1 22  1  1  0  0  0
  1 16  1  0  0  0  0
  3  4  1  0  0  0  0
  3  9  2  0  0  0  0
  4 17  2  0  0  0  0
  5 13  1  0  0  0  0
  7 10  1  0  0  0  0
  8 19  1  0  0  0  0
  8  5  2  0  0  0  0
  9  6  1  0  0  0  0
 10 11  1  0  0  0  0
 10  2  1  1  0  0  0
 12  1  1  0  0  0  0
 13  7  2  0  0  0  0
 13 18  1  0  0  0  0
 14 12  1  0  0  0  0
 14  7  1  0  0  0  0
 15 20  2  0  0  0  0
 16  2  1  0  0  0  0
 17 11  1  0  0  0  0
 17  6  1  0  0  0  0
 18 20  1  0  0  0  0
 19 14  2  0  0  0  0
 20  4  1  0  0  0  0
 21  5  1  0  0  0  0
 23 22  1  0  0  0  0
 24 26  1  0  0  0  0
 25 26  2  0  0  0  0
 26 27  1  0  0  0  0
 27 23  1  0  0  0  0
M  END
>  <MODEL>
3

>  <REMARK>
 VINA RESULT:      -7.6      2.733      4.798
  Name = 
  3 active torsions:
  status: ('A' for Active; 'I' for Inactive)
    1  A    between atoms: C_1  and  C_22
    2  A    between atoms: C_2  and  N_8
    3  A    between atoms: C_2  and  C_22
                            x       y       z     vdW  Elec       q    Type
                         _______ _______ _______ _____ _____    ______ ____

>  <TORSDO>
F 3

$$$$
=
 OpenBabel11042414233D

 27 30  0  0  1  0  0  0  0  0999 V2000
  187.6570  176.9200  146.2170 C   0  0  1  0  0  3  0  0  0  0  0  0
  188.7830  177.3710  144.0070 C   0  0  0  0  0  2  0  0  0  0  0  0
  193.1090  173.6530  142.0340 C   0  0  0  0  0  3  0  0  0  0  0  0
  192.5520  174.8110  142.5950 C   0  0  0  0  0  0  0  0  0  0  0  0
  192.6930  176.0640  146.4650 C   0  0  0  0  0  0  0  0  0  0  0  0
  190.6440  173.5270  141.6310 S   0  0  0  0  0  0  0  0  0  0  0  0
  190.5580  176.1170  145.2700 C   0  0  0  0  0  0  0  0  0  0  0  0
  192.0350  175.6670  147.6250 C   0  0  0  0  0  3  0  0  0  0  0  0
  192.1620  172.8060  141.4530 C   0  0  0  0  0  3  0  0  0  0  0  0
  189.6910  176.1600  144.0230 C   0  0  2  0  0  3  0  0  0  0  0  0
  190.4030  176.0290  142.7630 N   0  0  0  0  0  2  0  0  0  0  0  0
  188.4790  175.7720  146.5860 N   0  0  0  0  0  2  0  0  0  0  0  0
  191.9710  176.3080  145.2800 C   0  0  0  0  0  0  0  0  0  0  0  0
  189.9070  175.7970  146.4850 C   0  0  0  0  0  0  0  0  0  0  0  0
  194.5340  176.0610  142.9180 O   0  0  0  0  0  0  0  0  0  0  0  0
  187.4800  177.0160  144.7040 C   0  0  0  0  0  2  0  0  0  0  0  0
  191.1820  174.8740  142.4650 C   0  0  0  0  0  0  0  0  0  0  0  0
  192.6880  176.7880  144.1330 N   0  0  0  0  0  2  0  0  0  0  0  0
  190.6500  175.5440  147.6370 C   0  0  0  0  0  3  0  0  0  0  0  0
  193.3230  175.8900  143.2190 C   0  0  0  0  0  0  0  0  0  0  0  0
  194.1750  176.2280  146.5140 C   0  0  0  0  0  1  0  0  0  0  0  0
  186.2990  176.7900  146.8840 C   0  0  0  0  0  2  0  0  0  0  0  0
  185.6120  178.1410  146.9510 C   0  0  0  0  0  2  0  0  0  0  0  0
  183.4440  179.0410  143.8770 C   0  0  0  0  0  1  0  0  0  0  0  0
  185.5660  179.7920  144.6380 O   0  0  0  0  0  0  0  0  0  0  0  0
  184.5770  179.0380  144.8380 C   0  0  0  0  0  0  0  0  0  0  0  0
  184.5330  178.1830  145.9790 N   0  0  0  0  0  2  0  0  0  0  0  0
  1 12  1  0  0  0  0
  1 22  1  1  0  0  0
  2 16  1  0  0  0  0
  3  4  1  0  0  0  0
  4 20  1  0  0  0  0
  5 21  1  0  0  0  0
  5  8  1  0  0  0  0
  6 17  1  0  0  0  0
  7 13  1  0  0  0  0
  7 14  2  0  0  0  0
  8 19  2  0  0  0  0
  9  6  1  0  0  0  0
  9  3  2  0  0  0  0
 10  2  1  6  0  0  0
 10  7  1  0  0  0  0
 11 10  1  0  0  0  0
 13  5  2  0  0  0  0
 14 12  1  0  0  0  0
 14 19  1  0  0  0  0
 15 20  2  0  0  0  0
 16  1  1  0  0  0  0
 17  4  2  0  0  0  0
 17 11  1  0  0  0  0
 18 13  1  0  0  0  0
 20 18  1  0  0  0  0
 22 23  1  0  0  0  0
 24 26  1  0  0  0  0
 25 26  2  0  0  0  0
 26 27  1  0  0  0  0
 27 23  1  0  0  0  0
M  END
>  <MODEL>
4

>  <REMARK>
 VINA RESULT:      -7.5      3.035      4.940
  Name = 
  3 active torsions:
  status: ('A' for Active; 'I' for Inactive)
    1  A    between atoms: C_1  and  C_22
    2  A    between atoms: C_2  and  N_8
    3  A    between atoms: C_2  and  C_22
                            x       y       z     vdW  Elec       q    Type
                         _______ _______ _______ _____ _____    ______ ____

>  <TORSDO>
F 3

$$$$
=
 OpenBabel11042414233D

 27 30  0  0  1  0  0  0  0  0999 V2000
  191.7700  174.7780  144.6380 C   0  0  1  0  0  3  0  0  0  0  0  0
  190.8330  177.0310  145.2690 C   0  0  0  0  0  2  0  0  0  0  0  0
  184.8630  177.9190  145.2100 C   0  0  0  0  0  3  0  0  0  0  0  0
  186.1900  177.9980  144.7630 C   0  0  0  0  0  0  0  0  0  0  0  0
  187.9010  176.1300  141.5770 C   0  0  0  0  0  0  0  0  0  0  0  0
  186.3010  177.1250  147.0960 S   0  0  0  0  0  0  0  0  0  0  0  0
  189.0650  176.1240  143.7310 C   0  0  0  0  0  0  0  0  0  0  0  0
  188.3230  174.8230  141.3460 C   0  0  0  0  0  3  0  0  0  0  0  0
  184.7440  177.4310  146.5130 C   0  0  0  0  0  3  0  0  0  0  0  0
  189.3730  176.6630  145.1180 C   0  0  2  0  0  3  0  0  0  0  0  0
  188.5160  177.7430  145.5740 N   0  0  0  0  0  2  0  0  0  0  0  0
  190.4950  174.1670  144.2760 N   0  0  0  0  0  2  0  0  0  0  0  0
  188.2730  176.8030  142.7580 C   0  0  0  0  0  0  0  0  0  0  0  0
  189.5490  174.8300  143.4300 C   0  0  0  0  0  0  0  0  0  0  0  0
  185.8550  179.3250  142.8330 O   0  0  0  0  0  0  0  0  0  0  0  0
  191.6010  175.8100  145.7490 C   0  0  0  0  0  2  0  0  0  0  0  0
  187.1060  177.5720  145.7000 C   0  0  0  0  0  0  0  0  0  0  0  0
  187.8760  178.1730  142.9140 N   0  0  0  0  0  2  0  0  0  0  0  0
  189.1490  174.1810  142.2620 C   0  0  0  0  0  3  0  0  0  0  0  0
  186.6010  178.5250  143.4570 C   0  0  0  0  0  0  0  0  0  0  0  0
  187.0550  176.7920  140.5430 C   0  0  0  0  0  1  0  0  0  0  0  0
  192.7270  173.6900  145.0910 C   0  0  0  0  0  2  0  0  0  0  0  0
  193.9480  174.3020  145.7520 C   0  0  0  0  0  2  0  0  0  0  0  0
  196.2850  176.4210  143.5140 C   0  0  0  0  0  1  0  0  0  0  0  0
  194.8530  176.9630  145.3320 O   0  0  0  0  0  0  0  0  0  0  0  0
  195.3100  176.0640  144.5770 C   0  0  0  0  0  0  0  0  0  0  0  0
  194.8990  174.7060  144.7310 N   0  0  0  0  0  2  0  0  0  0  0  0
  1 22  1  1  0  0  0
  1 16  1  0  0  0  0
  2 16  1  0  0  0  0
  3  9  2  0  0  0  0
  4  3  1  0  0  0  0
  4 17  2  0  0  0  0
  5 13  1  0  0  0  0
  7 10  1  0  0  0  0
  8  5  2  0  0  0  0
  8 19  1  0  0  0  0
  9  6  1  0  0  0  0
 10  2  1  6  0  0  0
 10 11  1  0  0  0  0
 11 17  1  0  0  0  0
 12  1  1  0  0  0  0
 13 18  1  0  0  0  0
 13  7  2  0  0  0  0
 14  7  1  0  0  0  0
 14 12  1  0  0  0  0
 15 20  2  0  0  0  0
 17  6  1  0  0  0  0
 18 20  1  0  0  0  0
 19 14  2  0  0  0  0
 20  4  1  0  0  0  0
 21  5  1  0  0  0  0
 22 23  1  0  0  0  0
 24 26  1  0  0  0  0
 26 27  1  0  0  0  0
 26 25  2  0  0  0  0
 27 23  1  0  0  0  0
M  END
>  <MODEL>
5

>  <REMARK>
 VINA RESULT:      -7.5      3.310      8.328
  Name = 
  3 active torsions:
  status: ('A' for Active; 'I' for Inactive)
    1  A    between atoms: C_1  and  C_22
    2  A    between atoms: C_2  and  N_8
    3  A    between atoms: C_2  and  C_22
                            x       y       z     vdW  Elec       q    Type
                         _______ _______ _______ _____ _____    ______ ____

>  <TORSDO>
F 3

$$$$
=
 OpenBabel11042414233D

 27 30  0  0  1  0  0  0  0  0999 V2000
  191.9130  175.1650  143.7530 C   0  0  1  0  0  3  0  0  0  0  0  0
  190.9050  177.2650  144.7160 C   0  0  0  0  0  2  0  0  0  0  0  0
  184.9180  177.6970  145.3530 C   0  0  0  0  0  3  0  0  0  0  0  0
  186.1800  177.9220  144.7870 C   0  0  0  0  0  0  0  0  0  0  0  0
  187.6560  176.5200  141.2620 C   0  0  0  0  0  0  0  0  0  0  0  0
  186.6000  176.8290  146.9880 S   0  0  0  0  0  0  0  0  0  0  0  0
  189.0430  176.3860  143.2740 C   0  0  0  0  0  0  0  0  0  0  0  0
  188.1340  175.2790  140.8490 C   0  0  0  0  0  3  0  0  0  0  0  0
  184.9730  177.0730  146.6010 C   0  0  0  0  0  3  0  0  0  0  0  0
  189.4640  176.8040  144.6730 C   0  0  2  0  0  3  0  0  0  0  0  0
  188.5920  177.7640  145.3270 N   0  0  0  0  0  2  0  0  0  0  0  0
  190.6480  174.4990  143.4580 N   0  0  0  0  0  2  0  0  0  0  0  0
  188.1090  177.0970  142.4650 C   0  0  0  0  0  0  0  0  0  0  0  0
  189.5750  175.1690  142.7880 C   0  0  0  0  0  0  0  0  0  0  0  0
  185.5540  179.4080  143.0550 O   0  0  0  0  0  0  0  0  0  0  0  0
  191.7970  176.0640  144.9810 C   0  0  0  0  0  2  0  0  0  0  0  0
  187.2180  177.4750  145.5750 C   0  0  0  0  0  0  0  0  0  0  0  0
  187.6420  178.4100  142.8070 N   0  0  0  0  0  2  0  0  0  0  0  0
  189.0940  174.6130  141.6020 C   0  0  0  0  0  3  0  0  0  0  0  0
  186.4130  178.6080  143.5110 C   0  0  0  0  0  0  0  0  0  0  0  0
  186.6620  177.2180  140.3960 C   0  0  0  0  0  1  0  0  0  0  0  0
  192.9820  174.1130  143.9870 C   0  0  0  0  0  2  0  0  0  0  0  0
  194.3290  174.6120  143.5020 C   0  0  0  0  0  2  0  0  0  0  0  0
  196.9040  173.5410  146.1820 C   0  0  0  0  0  1  0  0  0  0  0  0
  195.2820  175.2760  146.0960 O   0  0  0  0  0  0  0  0  0  0  0  0
  195.8160  174.2980  145.5100 C   0  0  0  0  0  0  0  0  0  0  0  0
  195.3870  173.9080  144.2060 N   0  0  0  0  0  2  0  0  0  0  0  0
  1 22  1  1  0  0  0
  1 16  1  0  0  0  0
  2 16  1  0  0  0  0
  3  9  2  0  0  0  0
  4  3  1  0  0  0  0
  4 17  2  0  0  0  0
  5 13  1  0  0  0  0
  7 10  1  0  0  0  0
  8  5  2  0  0  0  0
  8 19  1  0  0  0  0
  9  6  1  0  0  0  0
 10  2  1  6  0  0  0
 10 11  1  0  0  0  0
 11 17  1  0  0  0  0
 12  1  1  0  0  0  0
 13 18  1  0  0  0  0
 13  7  2  0  0  0  0
 14  7  1  0  0  0  0
 14 12  1  0  0  0  0
 15 20  2  0  0  0  0
 17  6  1  0  0  0  0
 18 20  1  0  0  0  0
 19 14  2  0  0  0  0
 20  4  1  0  0  0  0
 21  5  1  0  0  0  0
 23 22  1  0  0  0  0
 23 27  1  0  0  0  0
 26 25  2  0  0  0  0
 26 24  1  0  0  0  0
 27 26  1  0  0  0  0
M  END
>  <MODEL>
6

>  <REMARK>
 VINA RESULT:      -7.3      3.290      8.575
  Name = 
  3 active torsions:
  status: ('A' for Active; 'I' for Inactive)
    1  A    between atoms: C_1  and  C_22
    2  A    between atoms: C_2  and  N_8
    3  A    between atoms: C_2  and  C_22
                            x       y       z     vdW  Elec       q    Type
                         _______ _______ _______ _____ _____    ______ ____

>  <TORSDO>
F 3

$$$$
=
 OpenBabel11042414233D

 27 30  0  0  1  0  0  0  0  0999 V2000
  193.3180  175.3370  144.9390 C   0  0  1  0  0  3  0  0  0  0  0  0
  191.7840  177.2390  144.3190 C   0  0  0  0  0  2  0  0  0  0  0  0
  185.8620  176.7880  145.3950 C   0  0  0  0  0  3  0  0  0  0  0  0
  187.0460  176.7910  144.6450 C   0  0  0  0  0  0  0  0  0  0  0  0
  188.9430  173.6380  142.9040 C   0  0  0  0  0  0  0  0  0  0  0  0
  187.6520  177.6960  146.8880 S   0  0  0  0  0  0  0  0  0  0  0  0
  190.2510  175.2500  144.2000 C   0  0  0  0  0  0  0  0  0  0  0  0
  189.7300  172.6020  143.3990 C   0  0  0  0  0  3  0  0  0  0  0  0
  186.0300  177.2610  146.6990 C   0  0  0  0  0  3  0  0  0  0  0  0
  190.5070  176.6090  144.8310 C   0  0  2  0  0  3  0  0  0  0  0  0
  189.4010  177.5480  144.7620 N   0  0  0  0  0  2  0  0  0  0  0  0
  192.2710  174.4240  145.3880 N   0  0  0  0  0  2  0  0  0  0  0  0
  189.1970  174.9720  143.2820 C   0  0  0  0  0  0  0  0  0  0  0  0
  191.0870  174.1890  144.6180 C   0  0  0  0  0  0  0  0  0  0  0  0
  186.1260  176.4430  142.4930 O   0  0  0  0  0  0  0  0  0  0  0  0
  192.9400  176.7920  145.1990 C   0  0  0  0  0  2  0  0  0  0  0  0
  188.1360  177.2540  145.3490 C   0  0  0  0  0  0  0  0  0  0  0  0
  188.4040  176.0090  142.6860 N   0  0  0  0  0  2  0  0  0  0  0  0
  190.8010  172.8760  144.2420 C   0  0  0  0  0  3  0  0  0  0  0  0
  187.1420  176.3970  143.2360 C   0  0  0  0  0  0  0  0  0  0  0  0
  187.8360  173.2980  141.9650 C   0  0  0  0  0  1  0  0  0  0  0  0
  194.6080  175.0050  145.6670 C   0  0  0  0  0  2  0  0  0  0  0  0
  195.6790  174.5840  144.6790 C   0  0  0  0  0  2  0  0  0  0  0  0
  195.7830  176.7900  141.5040 C   0  0  0  0  0  1  0  0  0  0  0  0
  197.0740  176.7610  143.4990 O   0  0  0  0  0  0  0  0  0  0  0  0
  196.1290  176.2490  142.8430 C   0  0  0  0  0  0  0  0  0  0  0  0
  195.3850  175.1530  143.3750 N   0  0  0  0  0  2  0  0  0  0  0  0
  1 16  1  0  0  0  0
  1 12  1  0  0  0  0
  1 22  1  1  0  0  0
  2 16  1  0  0  0  0
  3  9  2  0  0  0  0
  4 17  2  0  0  0  0
  4  3  1  0  0  0  0
  5 13  2  0  0  0  0
  5  8  1  0  0  0  0
  7 14  2  0  0  0  0
  7 10  1  0  0  0  0
  8 19  2  0  0  0  0
  9  6  1  0  0  0  0
 10  2  1  6  0  0  0
 11 10  1  0  0  0  0
 11 17  1  0  0  0  0
 13  7  1  0  0  0  0
 14 12  1  0  0  0  0
 15 20  2  0  0  0  0
 17  6  1  0  0  0  0
 18 20  1  0  0  0  0
 18 13  1  0  0  0  0
 19 14  1  0  0  0  0
 20  4  1  0  0  0  0
 21  5  1  0  0  0  0
 23 22  1  0  0  0  0
 24 26  1  0  0  0  0
 26 27  1  0  0  0  0
 26 25  2  0  0  0  0
 27 23  1  0  0  0  0
M  END
>  <MODEL>
7

>  <REMARK>
 VINA RESULT:      -7.1      3.823      8.713
  Name = 
  3 active torsions:
  status: ('A' for Active; 'I' for Inactive)
    1  A    between atoms: C_1  and  C_22
    2  A    between atoms: C_2  and  N_8
    3  A    between atoms: C_2  and  C_22
                            x       y       z     vdW  Elec       q    Type
                         _______ _______ _______ _____ _____    ______ ____

>  <TORSDO>
F 3

$$$$
=
 OpenBabel11042414233D

 27 30  0  0  1  0  0  0  0  0999 V2000
  193.3630  175.4940  145.1960 C   0  0  1  0  0  3  0  0  0  0  0  0
  191.7840  177.3280  144.4920 C   0  0  0  0  0  2  0  0  0  0  0  0
  185.8450  176.6560  145.3330 C   0  0  0  0  0  3  0  0  0  0  0  0
  187.0580  176.6980  144.6310 C   0  0  0  0  0  0  0  0  0  0  0  0
  189.1450  173.6040  143.0050 C   0  0  0  0  0  0  0  0  0  0  0  0
  187.5350  177.6480  146.8860 S   0  0  0  0  0  0  0  0  0  0  0  0
  190.3350  175.2800  144.3350 C   0  0  0  0  0  0  0  0  0  0  0  0
  189.9510  172.6050  143.5440 C   0  0  0  0  0  3  0  0  0  0  0  0
  185.9400  177.1490  146.6360 C   0  0  0  0  0  3  0  0  0  0  0  0
  190.5120  176.6530  144.9600 C   0  0  2  0  0  3  0  0  0  0  0  0
  189.3750  177.5480  144.8340 N   0  0  0  0  0  2  0  0  0  0  0  0
  192.3350  174.5450  145.6130 N   0  0  0  0  0  2  0  0  0  0  0  0
  189.3310  174.9510  143.3780 C   0  0  0  0  0  0  0  0  0  0  0  0
  191.1940  174.2560  144.7990 C   0  0  0  0  0  0  0  0  0  0  0  0
  186.2410  176.2930  142.4480 O   0  0  0  0  0  0  0  0  0  0  0  0
  192.9190  176.9360  145.4240 C   0  0  0  0  0  2  0  0  0  0  0  0
  188.0990  177.2100  145.3740 C   0  0  0  0  0  0  0  0  0  0  0  0
  188.5240  175.9500  142.7380 N   0  0  0  0  0  2  0  0  0  0  0  0
  190.9740  172.9300  144.4260 C   0  0  0  0  0  3  0  0  0  0  0  0
  187.2270  176.2940  143.2310 C   0  0  0  0  0  0  0  0  0  0  0  0
  188.0910  173.2110  142.0260 C   0  0  0  0  0  1  0  0  0  0  0  0
  194.6340  175.2200  145.9800 C   0  0  0  0  0  2  0  0  0  0  0  0
  195.7330  174.7370  145.0530 C   0  0  0  0  0  2  0  0  0  0  0  0
  196.6800  171.1130  146.0180 C   0  0  0  0  0  1  0  0  0  0  0  0
  194.9870  172.0280  144.6230 O   0  0  0  0  0  0  0  0  0  0  0  0
  195.9660  172.2520  145.3840 C   0  0  0  0  0  0  0  0  0  0  0  0
  196.3950  173.5880  145.6450 N   0  0  0  0  0  2  0  0  0  0  0  0
  1 16  1  0  0  0  0
  1 12  1  0  0  0  0
  1 22  1  1  0  0  0
  2 16  1  0  0  0  0
  3  9  2  0  0  0  0
  4  3  1  0  0  0  0
  4 17  2  0  0  0  0
  5 13  2  0  0  0  0
  5  8  1  0  0  0  0
  7 14  2  0  0  0  0
  7 10  1  0  0  0  0
  8 19  2  0  0  0  0
  9  6  1  0  0  0  0
 10  2  1  6  0  0  0
 11 10  1  0  0  0  0
 11 17  1  0  0  0  0
 13  7  1  0  0  0  0
 14 12  1  0  0  0  0
 15 20  2  0  0  0  0
 17  6  1  0  0  0  0
 18 20  1  0  0  0  0
 18 13  1  0  0  0  0
 19 14  1  0  0  0  0
 20  4  1  0  0  0  0
 21  5  1  0  0  0  0
 23 27  1  0  0  0  0
 23 22  1  0  0  0  0
 25 26  2  0  0  0  0
 26 27  1  0  0  0  0
 26 24  1  0  0  0  0
M  END
>  <MODEL>
8

>  <REMARK>
 VINA RESULT:      -7.0      3.865      9.206
  Name = 
  3 active torsions:
  status: ('A' for Active; 'I' for Inactive)
    1  A    between atoms: C_1  and  C_22
    2  A    between atoms: C_2  and  N_8
    3  A    between atoms: C_2  and  C_22
                            x       y       z     vdW  Elec       q    Type
                         _______ _______ _______ _____ _____    ______ ____

>  <TORSDO>
F 3

$$$$
=
 OpenBabel11042414233D

 27 30  0  0  1  0  0  0  0  0999 V2000
  191.6570  174.4710  144.4190 C   0  0  1  0  0  3  0  0  0  0  0  0
  190.8430  176.7270  145.1950 C   0  0  0  0  0  2  0  0  0  0  0  0
  184.9260  177.9200  145.2540 C   0  0  0  0  0  3  0  0  0  0  0  0
  186.2520  177.9590  144.7980 C   0  0  0  0  0  0  0  0  0  0  0  0
  187.8390  176.2010  141.4880 C   0  0  0  0  0  0  0  0  0  0  0  0
  186.3360  176.9420  147.0730 S   0  0  0  0  0  0  0  0  0  0  0  0
  189.0180  176.0060  143.6240 C   0  0  0  0  0  0  0  0  0  0  0  0
  188.1910  174.8910  141.1740 C   0  0  0  0  0  3  0  0  0  0  0  0
  184.7930  177.3620  146.5260 C   0  0  0  0  0  3  0  0  0  0  0  0
  189.3640  176.4430  145.0370 C   0  0  2  0  0  3  0  0  0  0  0  0
  188.5680  177.5360  145.5660 N   0  0  0  0  0  2  0  0  0  0  0  0
  190.3490  173.9490  144.0360 N   0  0  0  0  0  2  0  0  0  0  0  0
  188.2550  176.7820  142.7030 C   0  0  0  0  0  0  0  0  0  0  0  0
  189.4320  174.7090  143.2410 C   0  0  0  0  0  0  0  0  0  0  0  0
  185.9710  179.4150  142.9550 O   0  0  0  0  0  0  0  0  0  0  0  0
  191.5500  175.4410  145.5920 C   0  0  0  0  0  2  0  0  0  0  0  0
  187.1520  177.4310  145.6970 C   0  0  0  0  0  0  0  0  0  0  0  0
  187.9300  178.1580  142.9440 N   0  0  0  0  0  2  0  0  0  0  0  0
  188.9900  174.1540  142.0400 C   0  0  0  0  0  3  0  0  0  0  0  0
  186.6790  178.5420  143.5220 C   0  0  0  0  0  0  0  0  0  0  0  0
  187.0210  176.9670  140.5050 C   0  0  0  0  0  1  0  0  0  0  0  0
  192.5600  173.3100  144.7960 C   0  0  0  0  0  2  0  0  0  0  0  0
  191.9970  172.0070  144.2610 C   0  0  0  0  0  2  0  0  0  0  0  0
  192.1220  171.0640  140.5120 C   0  0  0  0  0  1  0  0  0  0  0  0
  190.4250  170.9000  142.1680 O   0  0  0  0  0  0  0  0  0  0  0  0
  191.6040  171.2460  141.8930 C   0  0  0  0  0  0  0  0  0  0  0  0
  192.4500  171.8080  142.8960 N   0  0  0  0  0  2  0  0  0  0  0  0
  1 22  1  1  0  0  0
  1 16  1  0  0  0  0
  2 16  1  0  0  0  0
  3  9  2  0  0  0  0
  4  3  1  0  0  0  0
  4 17  2  0  0  0  0
  5 13  1  0  0  0  0
  7 10  1  0  0  0  0
  8  5  2  0  0  0  0
  8 19  1  0  0  0  0
  9  6  1  0  0  0  0
 10  2  1  6  0  0  0
 10 11  1  0  0  0  0
 11 17  1  0  0  0  0
 12  1  1  0  0  0  0
 13 18  1  0  0  0  0
 13  7  2  0  0  0  0
 14  7  1  0  0  0  0
 14 12  1  0  0  0  0
 15 20  2  0  0  0  0
 17  6  1  0  0  0  0
 18 20  1  0  0  0  0
 19 14  2  0  0  0  0
 20  4  1  0  0  0  0
 21  5  1  0  0  0  0
 23 22  1  0  0  0  0
 24 26  1  0  0  0  0
 26 25  2  0  0  0  0
 26 27  1  0  0  0  0
 27 23  1  0  0  0  0
M  END
>  <MODEL>
9

>  <REMARK>
 VINA RESULT:      -6.9      3.454      7.774
  Name = 
  3 active torsions:
  status: ('A' for Active; 'I' for Inactive)
    1  A    between atoms: C_1  and  C_22
    2  A    between atoms: C_2  and  N_8
    3  A    between atoms: C_2  and  C_22
                            x       y       z     vdW  Elec       q    Type
                         _______ _______ _______ _____ _____    ______ ____

>  <TORSDO>
F 3

$$$$
