=
 OpenBabel11042416153D

 33 36  0  0  1  0  0  0  0  0999 V2000
  188.7490  177.1330  146.5170 C   0  0  0  0  0  0  0  0  0  0  0  0
  186.9380  175.7310  142.3160 C   0  0  0  0  0  2  0  0  0  0  0  0
  186.5290  177.5350  145.5990 C   0  0  0  0  0  3  0  0  0  0  0  0
  188.2370  175.6080  143.0510 C   0  0  0  0  0  0  0  0  0  0  0  0
  189.6740  177.2850  147.5530 C   0  0  0  0  0  3  0  0  0  0  0  0
  186.0430  176.5670  143.2510 C   0  0  1  0  0  3  0  0  0  0  0  0
  191.3140  176.0280  146.2820 C   0  0  0  0  0  0  0  0  0  0  0  0
  190.9540  176.7330  147.4360 C   0  0  0  0  0  3  0  0  0  0  0  0
  192.9170  175.3420  146.1430 Cl  0  0  0  0  0  0  0  0  0  0  0  0
  187.4620  177.6840  146.6360 C   0  0  0  0  0  3  0  0  0  0  0  0
  188.1570  176.2860  144.3270 C   0  0  0  0  0  0  0  0  0  0  0  0
  189.2860  174.9810  142.6210 N   0  0  0  0  0  0  0  0  0  0  0  0
  186.9010  176.8340  144.4490 C   0  0  0  0  0  0  0  0  0  0  0  0
  189.1120  176.4180  145.3460 C   0  0  0  0  0  0  0  0  0  0  0  0
  190.3960  175.8700  145.2400 C   0  0  0  0  0  3  0  0  0  0  0  0
  185.7000  177.8190  142.5940 N   0  0  0  0  0  2  0  0  0  0  0  0
  184.0100  178.1010  140.3990 O   0  0  0  0  0  0  0  0  0  0  0  0
  184.3120  177.9730  142.7060 N   0  0  0  0  0  2  0  0  0  0  0  0
  183.4920  178.1150  141.5490 C   0  0  0  0  0  0  0  0  0  0  0  0
  182.0830  178.2750  141.7040 N   0  0  0  0  0  2  0  0  0  0  0  0
  181.1930  178.4220  140.5630 C   0  0  0  0  0  2  0  0  0  0  0  0
  179.0570  179.3140  139.8270 N   0  0  0  0  0  1  0  0  0  0  0  0
  179.9350  179.1680  140.9740 C   0  0  1  0  0  3  0  0  0  0  0  0
  178.7110  177.1790  141.8450 O   0  0  0  0  0  0  0  0  0  0  0  0
  179.2200  178.4490  142.0740 C   0  0  0  0  0  0  0  0  0  0  0  0
  179.0660  178.9910  143.2010 O   0  0  0  0  0  1  0  0  0  0  0  0
  189.3330  174.3050  141.3330 C   0  0  0  0  0  2  0  0  0  0  0  0
  191.5730  173.6390  142.3560 C   0  0  0  0  0  2  0  0  0  0  0  0
  191.3580  171.2510  143.1070 C   0  0  0  0  0  2  0  0  0  0  0  0
  192.3290  172.3630  142.6990 C   0  0  0  0  0  2  0  0  0  0  0  0
  190.1160  171.9910  141.1620 O   0  0  0  0  0  0  0  0  0  0  0  0
  190.5220  173.3500  141.2670 C   0  0  1  0  0  3  0  0  0  0  0  0
  189.9860  171.4320  142.4510 C   0  0  0  0  0  2  0  0  0  0  0  0
  1 10  2  0  0  0  0
  1  5  1  0  0  0  0
  2  4  1  0  0  0  0
  2  6  1  0  0  0  0
  3 10  1  0  0  0  0
  4 11  1  0  0  0  0
  6 16  1  6  0  0  0
  6 13  1  0  0  0  0
  7  8  1  0  0  0  0
  8  5  2  0  0  0  0
  9  7  1  0  0  0  0
 11 13  1  0  0  0  0
 11 14  2  0  0  0  0
 12  4  2  0  0  0  0
 13  3  2  0  0  0  0
 14  1  1  0  0  0  0
 15 14  1  0  0  0  0
 15  7  2  0  0  0  0
 16 18  1  0  0  0  0
 17 19  2  0  0  0  0
 19 20  1  0  0  0  0
 19 18  1  0  0  0  0
 21 23  1  0  0  0  0
 21 20  1  0  0  0  0
 23 22  1  6  0  0  0
 23 25  1  0  0  0  0
 24 25  2  0  0  0  0
 25 26  1  0  0  0  0
 27 12  1  0  0  0  0
 28 30  1  0  0  0  0
 30 29  1  0  0  0  0
 31 32  1  0  0  0  0
 31 33  1  0  0  0  0
 32 27  1  1  0  0  0
 32 28  1  0  0  0  0
 33 29  1  0  0  0  0
M  END
>  <MODEL>
1

>  <REMARK>
 VINA RESULT:      -7.5      0.000      0.000
  Name = 
  7 active torsions:
  status: ('A' for Active; 'I' for Inactive)
    1  A    between atoms: C_10  and  N_24
    2  A    between atoms: C_11  and  CA_30
    3  A    between atoms: N_20  and  N_24
    4  A    between atoms: N_21  and  C_25
    5  A    between atoms: C_23  and  C_25
    6  A    between atoms: CA_30  and  C_32
    7  A    between atoms: N_31  and  C_32
                            x       y       z     vdW  Elec       q    Type
                         _______ _______ _______ _____ _____    ______ ____

>  <TORSDO>
F 7

$$$$
=
 OpenBabel11042416153D

 33 36  0  0  1  0  0  0  0  0999 V2000
  185.7710  178.3410  146.0610 C   0  0  0  0  0  0  0  0  0  0  0  0
  189.7370  176.2920  144.3390 C   0  0  0  0  0  2  0  0  0  0  0  0
  187.8440  177.8090  147.2230 C   0  0  0  0  0  3  0  0  0  0  0  0
  188.3880  176.6870  143.8220 C   0  0  0  0  0  0  0  0  0  0  0  0
  184.4790  178.8730  146.0760 C   0  0  0  0  0  3  0  0  0  0  0  0
  189.7060  176.6760  145.8310 C   0  0  1  0  0  3  0  0  0  0  0  0
  184.2250  178.3440  143.7230 C   0  0  0  0  0  0  0  0  0  0  0  0
  183.7080  178.8750  144.9100 C   0  0  0  0  0  3  0  0  0  0  0  0
  183.2540  178.3490  142.2680 Cl  0  0  0  0  0  0  0  0  0  0  0  0
  186.5470  178.3420  147.2320 C   0  0  0  0  0  3  0  0  0  0  0  0
  187.5980  177.2770  144.8810 C   0  0  0  0  0  0  0  0  0  0  0  0
  187.9790  176.5380  142.6010 N   0  0  0  0  0  0  0  0  0  0  0  0
  188.3480  177.2760  146.0340 C   0  0  0  0  0  0  0  0  0  0  0  0
  186.2970  177.8020  144.8580 C   0  0  0  0  0  0  0  0  0  0  0  0
  185.5160  177.8100  143.6960 C   0  0  0  0  0  3  0  0  0  0  0  0
  189.8460  175.4740  146.6380 N   0  0  0  0  0  2  0  0  0  0  0  0
  192.5040  176.1630  147.1020 O   0  0  0  0  0  0  0  0  0  0  0  0
  190.9290  174.7550  146.1170 N   0  0  0  0  0  2  0  0  0  0  0  0
  192.2720  175.1520  146.3850 C   0  0  0  0  0  0  0  0  0  0  0  0
  193.3490  174.3960  145.8320 N   0  0  0  0  0  2  0  0  0  0  0  0
  194.7400  174.7480  146.0710 C   0  0  0  0  0  2  0  0  0  0  0  0
  194.7550  174.2270  143.6990 N   0  0  0  0  0  1  0  0  0  0  0  0
  195.4650  174.9350  144.7490 C   0  0  1  0  0  3  0  0  0  0  0  0
  195.0100  177.3380  145.2340 O   0  0  0  0  0  1  0  0  0  0  0  0
  195.5770  176.3850  144.3990 C   0  0  0  0  0  0  0  0  0  0  0  0
  196.1720  176.7480  143.3490 O   0  0  0  0  0  0  0  0  0  0  0  0
  188.8010  175.9450  141.5570 C   0  0  0  0  0  2  0  0  0  0  0  0
  188.4740  174.2250  139.7020 C   0  0  0  0  0  2  0  0  0  0  0  0
  189.7580  172.1700  140.3690 C   0  0  0  0  0  2  0  0  0  0  0  0
  188.6150  172.7200  139.5120 C   0  0  0  0  0  2  0  0  0  0  0  0
  188.7720  173.5560  142.0950 O   0  0  0  0  0  0  0  0  0  0  0  0
  188.2950  174.5510  141.1970 C   0  0  1  0  0  3  0  0  0  0  0  0
  189.9900  173.0280  141.6170 C   0  0  0  0  0  2  0  0  0  0  0  0
  1  5  1  0  0  0  0
  1 10  2  0  0  0  0
  2  6  1  0  0  0  0
  3 10  1  0  0  0  0
  4  2  1  0  0  0  0
  4 11  1  0  0  0  0
  6 13  1  0  0  0  0
  6 16  1  1  0  0  0
  7  8  1  0  0  0  0
  8  5  2  0  0  0  0
  9  7  1  0  0  0  0
 11 13  1  0  0  0  0
 12  4  2  0  0  0  0
 13  3  2  0  0  0  0
 14 11  2  0  0  0  0
 14  1  1  0  0  0  0
 15  7  2  0  0  0  0
 15 14  1  0  0  0  0
 18 19  1  0  0  0  0
 18 16  1  0  0  0  0
 19 17  2  0  0  0  0
 20 21  1  0  0  0  0
 20 19  1  0  0  0  0
 23 22  1  6  0  0  0
 23 21  1  0  0  0  0
 25 23  1  0  0  0  0
 25 24  1  0  0  0  0
 26 25  2  0  0  0  0
 27 12  1  0  0  0  0
 28 32  1  0  0  0  0
 29 33  1  0  0  0  0
 30 28  1  0  0  0  0
 30 29  1  0  0  0  0
 32 27  1  1  0  0  0
 32 31  1  0  0  0  0
 33 31  1  0  0  0  0
M  END
>  <MODEL>
2

>  <REMARK>
 VINA RESULT:      -7.4      4.579      8.842
  Name = 
  7 active torsions:
  status: ('A' for Active; 'I' for Inactive)
    1  A    between atoms: C_10  and  N_24
    2  A    between atoms: C_11  and  CA_30
    3  A    between atoms: N_20  and  N_24
    4  A    between atoms: N_21  and  C_25
    5  A    between atoms: C_23  and  C_25
    6  A    between atoms: CA_30  and  C_32
    7  A    between atoms: N_31  and  C_32
                            x       y       z     vdW  Elec       q    Type
                         _______ _______ _______ _____ _____    ______ ____

>  <TORSDO>
F 7

$$$$
=
 OpenBabel11042416153D

 33 36  0  0  1  0  0  0  0  0999 V2000
  185.7240  177.8240  144.6390 C   0  0  0  0  0  0  0  0  0  0  0  0
  189.2350  174.7580  143.5590 C   0  0  0  0  0  2  0  0  0  0  0  0
  186.0230  176.4930  142.6220 C   0  0  0  0  0  3  0  0  0  0  0  0
  188.8730  175.6610  144.6980 C   0  0  0  0  0  0  0  0  0  0  0  0
  184.9810  178.7480  145.3780 C   0  0  0  0  0  3  0  0  0  0  0  0
  188.1210  174.9850  142.5180 C   0  0  1  0  0  3  0  0  0  0  0  0
  186.6050  178.6270  147.1760 C   0  0  0  0  0  0  0  0  0  0  0  0
  185.4200  179.1480  146.6440 C   0  0  0  0  0  3  0  0  0  0  0  0
  187.1480  179.1330  148.7600 Cl  0  0  0  0  0  0  0  0  0  0  0  0
  185.2810  177.4200  143.3690 C   0  0  0  0  0  3  0  0  0  0  0  0
  187.6450  176.3690  144.4060 C   0  0  0  0  0  0  0  0  0  0  0  0
  189.5490  175.7920  145.7960 N   0  0  0  0  0  0  0  0  0  0  0  0
  187.2070  175.9830  143.1610 C   0  0  0  0  0  0  0  0  0  0  0  0
  186.9260  177.2940  145.1770 C   0  0  0  0  0  0  0  0  0  0  0  0
  187.3550  177.7020  146.4460 C   0  0  0  0  0  3  0  0  0  0  0  0
  188.7020  175.5450  141.3090 N   0  0  0  0  0  2  0  0  0  0  0  0
  190.5140  173.7720  140.1560 O   0  0  0  0  0  0  0  0  0  0  0  0
  188.3700  174.6810  140.2570 N   0  0  0  0  0  2  0  0  0  0  0  0
  189.3370  173.7940  139.7020 C   0  0  0  0  0  0  0  0  0  0  0  0
  188.9620  172.9320  138.6280 N   0  0  0  0  0  2  0  0  0  0  0  0
  189.9020  172.0020  138.0210 C   0  0  0  0  0  2  0  0  0  0  0  0
  189.6990  169.6270  137.5580 N   0  0  0  0  0  1  0  0  0  0  0  0
  189.7250  170.6170  138.6200 C   0  0  1  0  0  3  0  0  0  0  0  0
  190.6220  170.4860  140.9420 O   0  0  0  0  0  1  0  0  0  0  0  0
  190.8260  170.3030  139.5820 C   0  0  0  0  0  0  0  0  0  0  0  0
  191.9410  169.8850  139.1670 O   0  0  0  0  0  0  0  0  0  0  0  0
  190.7790  175.0610  146.0610 C   0  0  0  0  0  2  0  0  0  0  0  0
  192.7530  176.4260  146.9260 C   0  0  0  0  0  2  0  0  0  0  0  0
  194.8400  175.3530  146.0250 C   0  0  0  0  0  2  0  0  0  0  0  0
  194.2220  176.6380  146.5850 C   0  0  0  0  0  2  0  0  0  0  0  0
  192.8080  175.2710  144.7070 O   0  0  0  0  0  0  0  0  0  0  0  0
  191.9970  175.9020  145.6890 C   0  0  1  0  0  3  0  0  0  0  0  0
  193.7890  174.4760  145.3370 C   0  0  0  0  0  2  0  0  0  0  0  0
  1 14  1  0  0  0  0
  1  5  1  0  0  0  0
  2  4  1  0  0  0  0
  3 13  2  0  0  0  0
  3 10  1  0  0  0  0
  4 12  2  0  0  0  0
  5  8  2  0  0  0  0
  6 16  1  6  0  0  0
  6 13  1  0  0  0  0
  6  2  1  0  0  0  0
  7  9  1  0  0  0  0
  8  7  1  0  0  0  0
 10  1  2  0  0  0  0
 11  4  1  0  0  0  0
 11 14  2  0  0  0  0
 12 27  1  0  0  0  0
 13 11  1  0  0  0  0
 14 15  1  0  0  0  0
 15  7  2  0  0  0  0
 18 16  1  0  0  0  0
 19 17  2  0  0  0  0
 19 18  1  0  0  0  0
 20 19  1  0  0  0  0
 21 23  1  0  0  0  0
 21 20  1  0  0  0  0
 23 22  1  6  0  0  0
 23 25  1  0  0  0  0
 25 24  1  0  0  0  0
 26 25  2  0  0  0  0
 29 30  1  0  0  0  0
 30 28  1  0  0  0  0
 31 33  1  0  0  0  0
 31 32  1  0  0  0  0
 32 27  1  1  0  0  0
 32 28  1  0  0  0  0
 33 29  1  0  0  0  0
M  END
>  <MODEL>
3

>  <REMARK>
 VINA RESULT:      -7.4      5.003      7.553
  Name = 
  7 active torsions:
  status: ('A' for Active; 'I' for Inactive)
    1  A    between atoms: C_10  and  N_24
    2  A    between atoms: C_11  and  CA_30
    3  A    between atoms: N_20  and  N_24
    4  A    between atoms: N_21  and  C_25
    5  A    between atoms: C_23  and  C_25
    6  A    between atoms: CA_30  and  C_32
    7  A    between atoms: N_31  and  C_32
                            x       y       z     vdW  Elec       q    Type
                         _______ _______ _______ _____ _____    ______ ____

>  <TORSDO>
F 7

$$$$
=
 OpenBabel11042416153D

 33 36  0  0  1  0  0  0  0  0999 V2000
  193.7430  176.1360  145.5770 C   0  0  0  0  0  0  0  0  0  0  0  0
  189.2610  174.8130  144.5530 C   0  0  0  0  0  2  0  0  0  0  0  0
  191.8710  175.7810  147.0930 C   0  0  0  0  0  3  0  0  0  0  0  0
  190.5250  175.0920  143.8010 C   0  0  0  0  0  0  0  0  0  0  0  0
  195.0830  176.4730  145.3700 C   0  0  0  0  0  3  0  0  0  0  0  0
  189.6220  175.0790  146.0270 C   0  0  1  0  0  3  0  0  0  0  0  0
  194.7980  176.1680  142.9800 C   0  0  0  0  0  0  0  0  0  0  0  0
  195.6100  176.4890  144.0740 C   0  0  0  0  0  3  0  0  0  0  0  0
  195.4630  176.1900  141.3630 Cl  0  0  0  0  0  0  0  0  0  0  0  0
  193.2150  176.1180  146.8790 C   0  0  0  0  0  3  0  0  0  0  0  0
  191.5780  175.4780  144.7160 C   0  0  0  0  0  0  0  0  0  0  0  0
  190.6720  174.9980  142.5160 N   0  0  0  0  0  0  0  0  0  0  0  0
  191.0680  175.4680  145.9930 C   0  0  0  0  0  0  0  0  0  0  0  0
  192.9180  175.8110  144.4690 C   0  0  0  0  0  0  0  0  0  0  0  0
  193.4570  175.8290  143.1760 C   0  0  0  0  0  3  0  0  0  0  0  0
  188.8190  176.1840  146.5260 N   0  0  0  0  0  2  0  0  0  0  0  0
  186.7860  178.0470  146.9130 O   0  0  0  0  0  0  0  0  0  0  0  0
  187.6920  176.2770  145.6970 N   0  0  0  0  0  2  0  0  0  0  0  0
  186.6790  177.2500  145.9410 C   0  0  0  0  0  0  0  0  0  0  0  0
  185.5440  177.3110  145.0780 N   0  0  0  0  0  2  0  0  0  0  0  0
  184.4790  178.2830  145.2730 C   0  0  0  0  0  2  0  0  0  0  0  0
  185.6020  180.1730  144.2420 N   0  0  0  0  0  1  0  0  0  0  0  0
  184.4650  179.2780  144.1250 C   0  0  1  0  0  3  0  0  0  0  0  0
  185.6660  178.6030  142.0480 O   0  0  0  0  0  0  0  0  0  0  0  0
  184.5040  178.5750  142.8050 C   0  0  0  0  0  0  0  0  0  0  0  0
  183.4880  177.9690  142.3710 O   0  0  0  0  0  1  0  0  0  0  0  0
  189.5930  174.6020  141.6230 C   0  0  0  0  0  2  0  0  0  0  0  0
  191.3910  172.9230  140.9530 C   0  0  0  0  0  2  0  0  0  0  0  0
  190.9020  170.7890  142.1870 C   0  0  0  0  0  2  0  0  0  0  0  0
  191.6000  171.4140  140.9760 C   0  0  0  0  0  2  0  0  0  0  0  0
  189.0590  172.2150  141.5200 O   0  0  0  0  0  0  0  0  0  0  0  0
  189.8850  173.2440  140.9910 C   0  0  1  0  0  3  0  0  0  0  0  0
  189.6930  171.6190  142.6310 C   0  0  0  0  0  2  0  0  0  0  0  0
  1 10  2  0  0  0  0
  2  6  1  0  0  0  0
  4  2  1  0  0  0  0
  4 11  1  0  0  0  0
  5  1  1  0  0  0  0
  6 16  1  6  0  0  0
  7 15  2  0  0  0  0
  7  8  1  0  0  0  0
  8  5  2  0  0  0  0
  9  7  1  0  0  0  0
 10  3  1  0  0  0  0
 11 13  1  0  0  0  0
 12  4  2  0  0  0  0
 13  6  1  0  0  0  0
 13  3  2  0  0  0  0
 14 11  2  0  0  0  0
 14  1  1  0  0  0  0
 15 14  1  0  0  0  0
 18 19  1  0  0  0  0
 18 16  1  0  0  0  0
 19 17  2  0  0  0  0
 20 21  1  0  0  0  0
 20 19  1  0  0  0  0
 23 22  1  1  0  0  0
 23 21  1  0  0  0  0
 24 25  2  0  0  0  0
 25 23  1  0  0  0  0
 26 25  1  0  0  0  0
 27 12  1  0  0  0  0
 28 30  1  0  0  0  0
 28 32  1  0  0  0  0
 29 33  1  0  0  0  0
 30 29  1  0  0  0  0
 31 33  1  0  0  0  0
 32 31  1  0  0  0  0
 32 27  1  1  0  0  0
M  END
>  <MODEL>
4

>  <REMARK>
 VINA RESULT:      -7.3      3.052      4.656
  Name = 
  7 active torsions:
  status: ('A' for Active; 'I' for Inactive)
    1  A    between atoms: C_10  and  N_24
    2  A    between atoms: C_11  and  CA_30
    3  A    between atoms: N_20  and  N_24
    4  A    between atoms: N_21  and  C_25
    5  A    between atoms: C_23  and  C_25
    6  A    between atoms: CA_30  and  C_32
    7  A    between atoms: N_31  and  C_32
                            x       y       z     vdW  Elec       q    Type
                         _______ _______ _______ _____ _____    ______ ____

>  <TORSDO>
F 7

$$$$
=
 OpenBabel11042416153D

 33 36  0  0  1  0  0  0  0  0999 V2000
  185.6230  177.7390  144.8060 C   0  0  0  0  0  0  0  0  0  0  0  0
  189.3270  174.9630  143.5990 C   0  0  0  0  0  2  0  0  0  0  0  0
  185.9540  176.4310  142.7790 C   0  0  0  0  0  3  0  0  0  0  0  0
  188.9350  175.8370  144.7500 C   0  0  0  0  0  0  0  0  0  0  0  0
  184.8340  178.6030  145.5720 C   0  0  0  0  0  3  0  0  0  0  0  0
  188.1620  175.0960  142.5990 C   0  0  1  0  0  3  0  0  0  0  0  0
  186.5270  178.6180  147.3090 C   0  0  0  0  0  0  0  0  0  0  0  0
  185.2860  179.0410  146.8210 C   0  0  0  0  0  3  0  0  0  0  0  0
  187.0850  179.1700  148.8720 Cl  0  0  0  0  0  0  0  0  0  0  0  0
  185.1680  177.2970  143.5520 C   0  0  0  0  0  3  0  0  0  0  0  0
  187.6440  176.4430  144.5030 C   0  0  0  0  0  0  0  0  0  0  0  0
  189.6380  176.0250  145.8230 N   0  0  0  0  0  0  0  0  0  0  0  0
  187.1940  176.0200  143.2740 C   0  0  0  0  0  0  0  0  0  0  0  0
  186.8820  177.3100  145.3000 C   0  0  0  0  0  0  0  0  0  0  0  0
  187.3220  177.7540  146.5520 C   0  0  0  0  0  3  0  0  0  0  0  0
  188.6510  175.6980  141.3690 N   0  0  0  0  0  2  0  0  0  0  0  0
  190.1810  173.6870  140.1980 O   0  0  0  0  0  0  0  0  0  0  0  0
  188.1940  174.9000  140.3120 N   0  0  0  0  0  2  0  0  0  0  0  0
  189.0200  173.8840  139.7480 C   0  0  0  0  0  0  0  0  0  0  0  0
  188.5200  173.0940  138.6690 N   0  0  0  0  0  2  0  0  0  0  0  0
  189.3120  172.0410  138.0540 C   0  0  0  0  0  2  0  0  0  0  0  0
  191.3910  172.8560  137.0980 N   0  0  0  0  0  1  0  0  0  0  0  0
  189.9990  172.5670  136.8040 C   0  0  1  0  0  3  0  0  0  0  0  0
  189.2500  171.9260  134.5150 O   0  0  0  0  0  0  0  0  0  0  0  0
  189.9080  171.5790  135.6860 C   0  0  0  0  0  0  0  0  0  0  0  0
  190.4150  170.4300  135.8010 O   0  0  0  0  0  1  0  0  0  0  0  0
  190.9320  175.3960  146.0420 C   0  0  0  0  0  2  0  0  0  0  0  0
  193.3100  175.9920  146.7470 C   0  0  0  0  0  2  0  0  0  0  0  0
  194.6440  176.3070  144.6410 C   0  0  0  0  0  2  0  0  0  0  0  0
  194.5480  176.6330  146.1340 C   0  0  0  0  0  2  0  0  0  0  0  0
  192.2890  176.8760  144.6410 O   0  0  0  0  0  0  0  0  0  0  0  0
  192.0530  176.4290  145.9700 C   0  0  1  0  0  3  0  0  0  0  0  0
  193.2620  176.0590  144.0280 C   0  0  0  0  0  2  0  0  0  0  0  0
  1 14  1  0  0  0  0
  1  5  1  0  0  0  0
  2  4  1  0  0  0  0
  3 13  2  0  0  0  0
  3 10  1  0  0  0  0
  4 12  2  0  0  0  0
  5  8  2  0  0  0  0
  6 16  1  6  0  0  0
  6 13  1  0  0  0  0
  6  2  1  0  0  0  0
  7  9  1  0  0  0  0
  8  7  1  0  0  0  0
 10  1  2  0  0  0  0
 11  4  1  0  0  0  0
 11 14  2  0  0  0  0
 12 27  1  0  0  0  0
 13 11  1  0  0  0  0
 14 15  1  0  0  0  0
 15  7  2  0  0  0  0
 18 16  1  0  0  0  0
 19 17  2  0  0  0  0
 19 18  1  0  0  0  0
 20 19  1  0  0  0  0
 21 20  1  0  0  0  0
 23 22  1  1  0  0  0
 23 21  1  0  0  0  0
 24 25  2  0  0  0  0
 25 26  1  0  0  0  0
 25 23  1  0  0  0  0
 29 30  1  0  0  0  0
 30 28  1  0  0  0  0
 31 32  1  0  0  0  0
 32 27  1  6  0  0  0
 32 28  1  0  0  0  0
 33 31  1  0  0  0  0
 33 29  1  0  0  0  0
M  END
>  <MODEL>
5

>  <REMARK>
 VINA RESULT:      -7.2      4.965      7.468
  Name = 
  7 active torsions:
  status: ('A' for Active; 'I' for Inactive)
    1  A    between atoms: C_10  and  N_24
    2  A    between atoms: C_11  and  CA_30
    3  A    between atoms: N_20  and  N_24
    4  A    between atoms: N_21  and  C_25
    5  A    between atoms: C_23  and  C_25
    6  A    between atoms: CA_30  and  C_32
    7  A    between atoms: N_31  and  C_32
                            x       y       z     vdW  Elec       q    Type
                         _______ _______ _______ _____ _____    ______ ____

>  <TORSDO>
F 7

$$$$
=
 OpenBabel11042416153D

 33 36  0  0  1  0  0  0  0  0999 V2000
  186.0380  177.9070  143.3670 C   0  0  0  0  0  0  0  0  0  0  0  0
  189.3460  174.4940  143.9120 C   0  0  0  0  0  2  0  0  0  0  0  0
  186.9510  176.3840  141.7000 C   0  0  0  0  0  3  0  0  0  0  0  0
  188.6700  175.5180  144.7700 C   0  0  0  0  0  0  0  0  0  0  0  0
  185.1690  178.9470  143.7070 C   0  0  0  0  0  3  0  0  0  0  0  0
  188.7530  174.7140  142.5070 C   0  0  1  0  0  3  0  0  0  0  0  0
  185.9480  178.8590  146.0020 C   0  0  0  0  0  0  0  0  0  0  0  0
  185.1240  179.4220  145.0210 C   0  0  0  0  0  3  0  0  0  0  0  0
  185.8860  179.4580  147.6440 Cl  0  0  0  0  0  0  0  0  0  0  0  0
  186.0810  177.4280  142.0470 C   0  0  0  0  0  3  0  0  0  0  0  0
  187.7330  176.2910  143.9820 C   0  0  0  0  0  0  0  0  0  0  0  0
  188.8780  175.6920  146.0370 N   0  0  0  0  0  0  0  0  0  0  0  0
  187.7730  175.8330  142.6870 C   0  0  0  0  0  0  0  0  0  0  0  0
  186.8740  177.3340  144.3610 C   0  0  0  0  0  0  0  0  0  0  0  0
  186.8200  177.8170  145.6740 C   0  0  0  0  0  3  0  0  0  0  0  0
  189.8120  175.1190  141.5970 N   0  0  0  0  0  2  0  0  0  0  0  0
  192.2330  174.0840  140.6900 O   0  0  0  0  0  0  0  0  0  0  0  0
  190.9980  175.1650  142.3440 N   0  0  0  0  0  2  0  0  0  0  0  0
  192.2100  174.6190  141.8320 C   0  0  0  0  0  0  0  0  0  0  0  0
  193.3960  174.6810  142.6240 N   0  0  0  0  0  2  0  0  0  0  0  0
  194.6640  174.1440  142.1560 C   0  0  0  0  0  2  0  0  0  0  0  0
  195.2070  176.4110  141.4750 N   0  0  0  0  0  1  0  0  0  0  0  0
  195.7220  175.2350  142.1520 C   0  0  1  0  0  3  0  0  0  0  0  0
  196.3590  174.5810  144.4710 O   0  0  0  0  0  1  0  0  0  0  0  0
  196.1340  175.5890  143.5450 C   0  0  0  0  0  0  0  0  0  0  0  0
  196.2660  176.7950  143.8890 O   0  0  0  0  0  0  0  0  0  0  0  0
  189.8250  174.8940  146.8010 C   0  0  0  0  0  2  0  0  0  0  0  0
  192.3740  174.9220  146.8850 C   0  0  0  0  0  2  0  0  0  0  0  0
  193.1380  176.7900  145.3880 C   0  0  0  0  0  2  0  0  0  0  0  0
  193.5090  175.8870  146.5680 C   0  0  0  0  0  2  0  0  0  0  0  0
  191.0330  177.0110  146.5670 O   0  0  0  0  0  0  0  0  0  0  0  0
  191.0720  175.7080  147.1350 C   0  0  1  0  0  3  0  0  0  0  0  0
  191.6230  176.9900  145.2860 C   0  0  0  0  0  2  0  0  0  0  0  0
  1  5  2  0  0  0  0
  1 14  1  0  0  0  0
  2  4  1  0  0  0  0
  3 10  2  0  0  0  0
  3 13  1  0  0  0  0
  4 12  2  0  0  0  0
  5  8  1  0  0  0  0
  6 16  1  6  0  0  0
  6 13  1  0  0  0  0
  6  2  1  0  0  0  0
  7  9  1  0  0  0  0
  8  7  2  0  0  0  0
 10  1  1  0  0  0  0
 11 14  1  0  0  0  0
 11  4  1  0  0  0  0
 12 27  1  0  0  0  0
 13 11  2  0  0  0  0
 14 15  2  0  0  0  0
 15  7  1  0  0  0  0
 16 18  1  0  0  0  0
 17 19  2  0  0  0  0
 19 18  1  0  0  0  0
 19 20  1  0  0  0  0
 21 20  1  0  0  0  0
 23 22  1  1  0  0  0
 23 21  1  0  0  0  0
 23 25  1  0  0  0  0
 25 26  2  0  0  0  0
 25 24  1  0  0  0  0
 28 32  1  0  0  0  0
 29 30  1  0  0  0  0
 30 28  1  0  0  0  0
 31 32  1  0  0  0  0
 32 27  1  6  0  0  0
 33 29  1  0  0  0  0
 33 31  1  0  0  0  0
M  END
>  <MODEL>
6

>  <REMARK>
 VINA RESULT:      -7.2      5.312      8.922
  Name = 
  7 active torsions:
  status: ('A' for Active; 'I' for Inactive)
    1  A    between atoms: C_10  and  N_24
    2  A    between atoms: C_11  and  CA_30
    3  A    between atoms: N_20  and  N_24
    4  A    between atoms: N_21  and  C_25
    5  A    between atoms: C_23  and  C_25
    6  A    between atoms: CA_30  and  C_32
    7  A    between atoms: N_31  and  C_32
                            x       y       z     vdW  Elec       q    Type
                         _______ _______ _______ _____ _____    ______ ____

>  <TORSDO>
F 7

$$$$
=
 OpenBabel11042416153D

 33 36  0  0  1  0  0  0  0  0999 V2000
  189.7010  172.5500  142.3200 C   0  0  0  0  0  0  0  0  0  0  0  0
  188.7810  175.9560  145.5510 C   0  0  0  0  0  2  0  0  0  0  0  0
  190.1930  172.5650  144.7050 C   0  0  0  0  0  3  0  0  0  0  0  0
  188.5830  175.7500  144.0810 C   0  0  0  0  0  0  0  0  0  0  0  0
  189.7390  171.9010  141.0820 C   0  0  0  0  0  3  0  0  0  0  0  0
  189.4990  174.6770  146.0260 C   0  0  1  0  0  3  0  0  0  0  0  0
  188.6480  173.8030  140.0450 C   0  0  0  0  0  0  0  0  0  0  0  0
  189.2130  172.5270  139.9470 C   0  0  0  0  0  3  0  0  0  0  0  0
  187.9920  174.5790  138.6210 Cl  0  0  0  0  0  0  0  0  0  0  0  0
  190.2270  171.9200  143.4600 C   0  0  0  0  0  3  0  0  0  0  0  0
  189.1090  174.4630  143.6790 C   0  0  0  0  0  0  0  0  0  0  0  0
  188.0160  176.5920  143.2750 N   0  0  0  0  0  0  0  0  0  0  0  0
  189.6310  173.8420  144.7890 C   0  0  0  0  0  0  0  0  0  0  0  0
  189.1290  173.8440  142.4200 C   0  0  0  0  0  0  0  0  0  0  0  0
  188.6040  174.4600  141.2770 C   0  0  0  0  0  3  0  0  0  0  0  0
  190.8150  175.0270  146.5350 N   0  0  0  0  0  2  0  0  0  0  0  0
  193.5650  174.9700  146.0980 O   0  0  0  0  0  0  0  0  0  0  0  0
  191.4520  175.7810  145.5400 N   0  0  0  0  0  2  0  0  0  0  0  0
  192.8650  175.7150  145.3590 C   0  0  0  0  0  0  0  0  0  0  0  0
  193.4770  176.5010  144.3380 N   0  0  0  0  0  2  0  0  0  0  0  0
  194.9120  176.4750  144.1020 C   0  0  0  0  0  2  0  0  0  0  0  0
  194.1520  176.0800  141.8290 N   0  0  0  0  0  1  0  0  0  0  0  0
  195.2110  175.7900  142.7790 C   0  0  1  0  0  3  0  0  0  0  0  0
  197.5370  176.6290  143.0940 O   0  0  0  0  0  1  0  0  0  0  0  0
  196.5270  176.2380  142.2270 C   0  0  0  0  0  0  0  0  0  0  0  0
  196.7220  176.2750  140.9820 O   0  0  0  0  0  0  0  0  0  0  0  0
  187.4930  177.8780  143.7120 C   0  0  0  0  0  2  0  0  0  0  0  0
  186.4730  177.6230  141.3890 C   0  0  0  0  0  2  0  0  0  0  0  0
  184.0190  178.1190  141.6040 C   0  0  0  0  0  2  0  0  0  0  0  0
  185.2140  178.0550  140.6490 C   0  0  0  0  0  2  0  0  0  0  0  0
  185.5850  179.2650  143.0550 O   0  0  0  0  0  0  0  0  0  0  0  0
  186.7280  178.5620  142.5830 C   0  0  1  0  0  3  0  0  0  0  0  0
  184.4620  178.4110  143.0410 C   0  0  0  0  0  2  0  0  0  0  0  0
  1 14  1  0  0  0  0
  1 10  1  0  0  0  0
  2  6  1  0  0  0  0
  3 13  1  0  0  0  0
  4  2  1  0  0  0  0
  5  1  2  0  0  0  0
  6 16  1  6  0  0  0
  7 15  1  0  0  0  0
  8  7  2  0  0  0  0
  8  5  1  0  0  0  0
  9  7  1  0  0  0  0
 10  3  2  0  0  0  0
 11  4  1  0  0  0  0
 11 13  2  0  0  0  0
 12 27  1  0  0  0  0
 12  4  2  0  0  0  0
 13  6  1  0  0  0  0
 14 11  1  0  0  0  0
 15 14  2  0  0  0  0
 18 16  1  0  0  0  0
 19 18  1  0  0  0  0
 19 17  2  0  0  0  0
 20 19  1  0  0  0  0
 21 20  1  0  0  0  0
 23 22  1  6  0  0  0
 23 21  1  0  0  0  0
 25 23  1  0  0  0  0
 25 24  1  0  0  0  0
 26 25  2  0  0  0  0
 28 32  1  0  0  0  0
 29 33  1  0  0  0  0
 30 28  1  0  0  0  0
 30 29  1  0  0  0  0
 32 31  1  0  0  0  0
 32 27  1  1  0  0  0
 33 31  1  0  0  0  0
M  END
>  <MODEL>
7

>  <REMARK>
 VINA RESULT:      -7.0      3.949      9.753
  Name = 
  7 active torsions:
  status: ('A' for Active; 'I' for Inactive)
    1  A    between atoms: C_10  and  N_24
    2  A    between atoms: C_11  and  CA_30
    3  A    between atoms: N_20  and  N_24
    4  A    between atoms: N_21  and  C_25
    5  A    between atoms: C_23  and  C_25
    6  A    between atoms: CA_30  and  C_32
    7  A    between atoms: N_31  and  C_32
                            x       y       z     vdW  Elec       q    Type
                         _______ _______ _______ _____ _____    ______ ____

>  <TORSDO>
F 7

$$$$
=
 OpenBabel11042416153D

 33 36  0  0  1  0  0  0  0  0999 V2000
  186.2360  178.1430  146.2480 C   0  0  0  0  0  0  0  0  0  0  0  0
  189.9620  176.1710  143.9870 C   0  0  0  0  0  2  0  0  0  0  0  0
  188.4180  177.5370  147.1420 C   0  0  0  0  0  3  0  0  0  0  0  0
  188.5700  176.6020  143.6450 C   0  0  0  0  0  0  0  0  0  0  0  0
  184.9590  178.6810  146.4350 C   0  0  0  0  0  3  0  0  0  0  0  0
  190.1010  176.4720  145.4920 C   0  0  1  0  0  3  0  0  0  0  0  0
  184.4400  178.2840  144.0990 C   0  0  0  0  0  0  0  0  0  0  0  0
  184.0640  178.7510  145.3640 C   0  0  0  0  0  3  0  0  0  0  0  0
  183.3150  178.3750  142.7640 Cl  0  0  0  0  0  0  0  0  0  0  0  0
  187.1360  178.0750  147.3240 C   0  0  0  0  0  3  0  0  0  0  0  0
  187.9080  177.1360  144.8160 C   0  0  0  0  0  0  0  0  0  0  0  0
  188.0260  176.5220  142.4710 N   0  0  0  0  0  0  0  0  0  0  0  0
  188.7810  177.0680  145.8770 C   0  0  0  0  0  0  0  0  0  0  0  0
  186.6190  177.6690  144.9660 C   0  0  0  0  0  0  0  0  0  0  0  0
  185.7140  177.7450  143.9010 C   0  0  0  0  0  3  0  0  0  0  0  0
  190.3150  175.2270  146.2120 N   0  0  0  0  0  2  0  0  0  0  0  0
  192.1530  173.6930  144.7880 O   0  0  0  0  0  0  0  0  0  0  0  0
  191.6790  175.1670  146.5300 N   0  0  0  0  0  2  0  0  0  0  0  0
  192.5770  174.3640  145.7680 C   0  0  0  0  0  0  0  0  0  0  0  0
  193.9580  174.3260  146.1260 N   0  0  0  0  0  2  0  0  0  0  0  0
  194.9240  173.5290  145.3860 C   0  0  0  0  0  2  0  0  0  0  0  0
  197.0730  173.4970  146.5160 N   0  0  0  0  0  1  0  0  0  0  0  0
  196.3020  174.1610  145.4800 C   0  0  1  0  0  3  0  0  0  0  0  0
  196.7170  173.0480  143.2880 O   0  0  0  0  0  0  0  0  0  0  0  0
  197.0240  174.0720  144.1730 C   0  0  0  0  0  0  0  0  0  0  0  0
  197.9160  174.9110  143.8730 O   0  0  0  0  0  1  0  0  0  0  0  0
  188.7210  175.9830  141.3110 C   0  0  0  0  0  2  0  0  0  0  0  0
  188.5340  174.1640  139.5340 C   0  0  0  0  0  2  0  0  0  0  0  0
  189.6910  172.1260  140.4420 C   0  0  0  0  0  2  0  0  0  0  0  0
  188.6530  172.6480  139.4450 C   0  0  0  0  0  2  0  0  0  0  0  0
  188.5750  173.6320  141.9790 O   0  0  0  0  0  0  0  0  0  0  0  0
  188.2160  174.5810  140.9830 C   0  0  1  0  0  3  0  0  0  0  0  0
  189.8200  173.0510  141.6570 C   0  0  0  0  0  2  0  0  0  0  0  0
  1  5  1  0  0  0  0
  1 10  2  0  0  0  0
  2  6  1  0  0  0  0
  3 10  1  0  0  0  0
  4  2  1  0  0  0  0
  4 11  1  0  0  0  0
  6 13  1  0  0  0  0
  6 16  1  1  0  0  0
  7  8  1  0  0  0  0
  8  5  2  0  0  0  0
  9  7  1  0  0  0  0
 11 14  2  0  0  0  0
 11 13  1  0  0  0  0
 12  4  2  0  0  0  0
 13  3  2  0  0  0  0
 14  1  1  0  0  0  0
 15  7  2  0  0  0  0
 15 14  1  0  0  0  0
 16 18  1  0  0  0  0
 17 19  2  0  0  0  0
 19 20  1  0  0  0  0
 19 18  1  0  0  0  0
 21 23  1  0  0  0  0
 21 20  1  0  0  0  0
 23 22  1  1  0  0  0
 24 25  2  0  0  0  0
 25 23  1  0  0  0  0
 26 25  1  0  0  0  0
 27 12  1  0  0  0  0
 28 32  1  0  0  0  0
 29 33  1  0  0  0  0
 30 28  1  0  0  0  0
 30 29  1  0  0  0  0
 32 27  1  1  0  0  0
 32 31  1  0  0  0  0
 33 31  1  0  0  0  0
M  END
>  <MODEL>
8

>  <REMARK>
 VINA RESULT:      -6.9      4.580      9.438
  Name = 
  7 active torsions:
  status: ('A' for Active; 'I' for Inactive)
    1  A    between atoms: C_10  and  N_24
    2  A    between atoms: C_11  and  CA_30
    3  A    between atoms: N_20  and  N_24
    4  A    between atoms: N_21  and  C_25
    5  A    between atoms: C_23  and  C_25
    6  A    between atoms: CA_30  and  C_32
    7  A    between atoms: N_31  and  C_32
                            x       y       z     vdW  Elec       q    Type
                         _______ _______ _______ _____ _____    ______ ____

>  <TORSDO>
F 7

$$$$
=
 OpenBabel11042416153D

 33 36  0  0  1  0  0  0  0  0999 V2000
  191.6330  175.1460  145.6590 C   0  0  0  0  0  0  0  0  0  0  0  0
  188.5250  175.2340  142.0230 C   0  0  0  0  0  2  0  0  0  0  0  0
  191.6440  173.8320  143.6080 C   0  0  0  0  0  3  0  0  0  0  0  0
  188.6970  175.9230  143.3410 C   0  0  0  0  0  0  0  0  0  0  0  0
  192.2200  175.4810  146.8820 C   0  0  0  0  0  3  0  0  0  0  0  0
  189.7060  174.2470  141.9460 C   0  0  1  0  0  3  0  0  0  0  0  0
  190.4520  177.0900  147.2970 C   0  0  0  0  0  0  0  0  0  0  0  0
  191.6300  176.4510  147.6990 C   0  0  0  0  0  3  0  0  0  0  0  0
  189.7210  178.3020  148.3240 Cl  0  0  0  0  0  0  0  0  0  0  0  0
  192.2270  174.1730  144.8370 C   0  0  0  0  0  3  0  0  0  0  0  0
  189.8800  175.4300  144.0140 C   0  0  0  0  0  0  0  0  0  0  0  0
  187.9130  176.8380  143.8180 N   0  0  0  0  0  0  0  0  0  0  0  0
  190.4640  174.4720  143.2190 C   0  0  0  0  0  0  0  0  0  0  0  0
  190.4390  175.7930  145.2490 C   0  0  0  0  0  0  0  0  0  0  0  0
  189.8580  176.7630  146.0750 C   0  0  0  0  0  3  0  0  0  0  0  0
  189.1940  172.8870  141.9040 N   0  0  0  0  0  2  0  0  0  0  0  0
  188.2570  172.8880  139.2810 O   0  0  0  0  0  0  0  0  0  0  0  0
  189.8500  172.2340  140.8520 N   0  0  0  0  0  2  0  0  0  0  0  0
  189.3260  172.2650  139.5270 C   0  0  0  0  0  0  0  0  0  0  0  0
  190.0210  171.5840  138.4830 N   0  0  0  0  0  2  0  0  0  0  0  0
  189.5390  171.5810  137.1110 C   0  0  0  0  0  2  0  0  0  0  0  0
  190.3340  171.9230  134.8410 N   0  0  0  0  0  1  0  0  0  0  0  0
  190.5000  172.3510  136.2190 C   0  0  1  0  0  3  0  0  0  0  0  0
  191.3550  174.6860  136.3900 O   0  0  0  0  0  1  0  0  0  0  0  0
  190.2690  173.8240  136.3270 C   0  0  0  0  0  0  0  0  0  0  0  0
  189.0980  174.2890  136.3710 O   0  0  0  0  0  0  0  0  0  0  0  0
  186.7330  177.3160  143.1130 C   0  0  0  0  0  2  0  0  0  0  0  0
  185.8080  176.9170  145.4560 C   0  0  0  0  0  2  0  0  0  0  0  0
  184.3020  178.8560  145.9920 C   0  0  0  0  0  2  0  0  0  0  0  0
  184.6450  177.3990  146.3140 C   0  0  0  0  0  2  0  0  0  0  0  0
  184.4910  178.1110  143.6940 O   0  0  0  0  0  0  0  0  0  0  0  0
  185.4810  177.1270  143.9640 C   0  0  1  0  0  3  0  0  0  0  0  0
  184.6730  179.2170  144.5510 C   0  0  0  0  0  2  0  0  0  0  0  0
  1  5  1  0  0  0  0
  2  4  1  0  0  0  0
  3 10  1  0  0  0  0
  4 12  2  0  0  0  0
  4 11  1  0  0  0  0
  5  8  2  0  0  0  0
  6 16  1  1  0  0  0
  6  2  1  0  0  0  0
  6 13  1  0  0  0  0
  7  8  1  0  0  0  0
  7  9  1  0  0  0  0
 10  1  2  0  0  0  0
 11 14  2  0  0  0  0
 13  3  2  0  0  0  0
 13 11  1  0  0  0  0
 14  1  1  0  0  0  0
 14 15  1  0  0  0  0
 15  7  2  0  0  0  0
 17 19  2  0  0  0  0
 18 16  1  0  0  0  0
 19 18  1  0  0  0  0
 20 19  1  0  0  0  0
 21 20  1  0  0  0  0
 23 22  1  6  0  0  0
 23 25  1  0  0  0  0
 23 21  1  0  0  0  0
 25 26  2  0  0  0  0
 25 24  1  0  0  0  0
 27 12  1  0  0  0  0
 28 30  1  0  0  0  0
 29 30  1  0  0  0  0
 31 32  1  0  0  0  0
 31 33  1  0  0  0  0
 32 27  1  6  0  0  0
 32 28  1  0  0  0  0
 33 29  1  0  0  0  0
M  END
>  <MODEL>
9

>  <REMARK>
 VINA RESULT:      -6.9      3.618      7.960
  Name = 
  7 active torsions:
  status: ('A' for Active; 'I' for Inactive)
    1  A    between atoms: C_10  and  N_24
    2  A    between atoms: C_11  and  CA_30
    3  A    between atoms: N_20  and  N_24
    4  A    between atoms: N_21  and  C_25
    5  A    between atoms: C_23  and  C_25
    6  A    between atoms: CA_30  and  C_32
    7  A    between atoms: N_31  and  C_32
                            x       y       z     vdW  Elec       q    Type
                         _______ _______ _______ _____ _____    ______ ____

>  <TORSDO>
F 7

$$$$
