=
 OpenBabel11042418013D

 35 38  0  0  1  0  0  0  0  0999 V2000
  190.9420  175.8840  146.5810 N   0  0  0  0  0  0  0  0  0  0  0  0
  189.7330  176.3360  146.7100 C   0  0  0  0  0  3  0  0  0  0  0  0
  191.8020  177.0340  144.6310 C   0  0  0  0  0  3  0  0  0  0  0  0
  189.3470  177.5000  144.5190 C   0  0  0  0  0  0  0  0  0  0  0  0
  190.7740  177.7970  144.2690 C   0  0  0  0  0  3  0  0  0  0  0  0
  188.8830  176.8280  145.6020 C   0  0  0  0  0  0  0  0  0  0  0  0
  191.6260  175.7170  145.3080 C   0  0  1  0  0  3  0  0  0  0  0  0
  195.4220  173.8680  145.9280 C   0  0  0  0  0  0  0  0  0  0  0  0
  192.9530  175.0690  145.5340 C   0  0  0  0  0  0  0  0  0  0  0  0
  194.3330  173.1350  145.4540 C   0  0  0  0  0  3  0  0  0  0  0  0
  193.1320  173.7450  145.2670 N   0  0  0  0  0  0  0  0  0  0  0  0
  195.2640  175.2270  146.2020 C   0  0  0  0  0  3  0  0  0  0  0  0
  194.0230  175.8340  146.0030 C   0  0  0  0  0  3  0  0  0  0  0  0
  196.7370  173.2090  146.1360 C   0  0  0  0  0  1  0  0  0  0  0  0
  188.3950  178.1270  143.5440 C   0  0  0  0  0  2  0  0  0  0  0  0
  188.7030  177.7360  142.1010 C   0  0  0  0  0  2  0  0  0  0  0  0
  187.6890  176.8260  141.5710 N   0  0  0  0  0  0  0  0  0  0  0  0
  188.2000  174.9760  140.0850 N   0  0  0  0  0  0  0  0  0  0  0  0
  188.5490  173.6880  139.8250 C   0  0  0  0  0  3  0  0  0  0  0  0
  188.6800  173.2630  142.1890 C   0  0  0  0  0  0  0  0  0  0  0  0
  188.9190  172.4000  143.2490 O   0  0  0  0  0  1  0  0  0  0  0  0
  188.0870  175.4560  141.3570 C   0  0  0  0  0  0  0  0  0  0  0  0
  188.7990  172.8070  140.8760 C   0  0  0  0  0  3  0  0  0  0  0  0
  188.3190  174.5870  142.4340 C   0  0  0  0  0  3  0  0  0  0  0  0
  186.3270  177.2740  141.3510 C   0  0  0  0  0  0  0  0  0  0  0  0
  185.7460  177.5700  140.1880 C   0  0  0  0  0  0  0  0  0  0  0  0
  185.3330  177.5920  142.4240 C   0  0  0  0  0  2  0  0  0  0  0  0
  184.4310  178.0430  140.4100 N   0  0  0  0  0  0  0  0  0  0  0  0
  186.3340  177.4730  138.8230 C   0  0  0  0  0  1  0  0  0  0  0  0
  184.1880  178.0590  141.6550 N   0  0  0  0  0  0  0  0  0  0  0  0
  187.4080  176.6730  145.8140 C   0  0  0  0  0  2  0  0  0  0  0  0
  186.2650  177.0110  147.8550 C   0  0  0  0  0  1  0  0  0  0  0  0
  186.9270  177.6860  146.7480 N   0  0  0  0  0  0  0  0  0  0  0  0
  184.5120  178.2110  146.3270 C   0  0  0  0  0  1  0  0  0  0  0  0
  185.9750  178.5780  146.0760 C   0  0  0  0  0  2  0  0  0  0  0  0
  1  2  2  0  0  0  0
  3  7  1  0  0  0  0
  4  6  2  0  0  0  0
  5  4  1  0  0  0  0
  5  3  2  0  0  0  0
  6 31  1  0  0  0  0
  6  2  1  0  0  0  0
  7  9  1  1  0  0  0
  7  1  1  0  0  0  0
  8 14  1  0  0  0  0
  8 12  1  0  0  0  0
  9 13  1  0  0  0  0
 10  8  2  0  0  0  0
 11 10  1  0  0  0  0
 11  9  2  0  0  0  0
 13 12  2  0  0  0  0
 15  4  1  0  0  0  0
 16 15  1  0  0  0  0
 17 16  1  0  0  0  0
 18 22  1  0  0  0  0
 19 18  2  0  0  0  0
 19 23  1  0  0  0  0
 20 24  1  0  0  0  0
 20 21  1  0  0  0  0
 22 17  1  0  0  0  0
 22 24  2  0  0  0  0
 23 20  2  0  0  0  0
 25 17  1  0  0  0  0
 25 27  1  0  0  0  0
 26 28  1  0  0  0  0
 26 25  2  0  0  0  0
 28 30  2  0  0  0  0
 29 26  1  0  0  0  0
 30 27  1  0  0  0  0
 31 33  1  0  0  0  0
 33 32  1  0  0  0  0
 35 34  1  0  0  0  0
 35 33  1  0  0  0  0
M  END
>  <MODEL>
1

>  <REMARK>
 VINA RESULT:      -7.4      0.000      0.000
  Name = 
  9 active torsions:
  status: ('A' for Active; 'I' for Inactive)
    1  A    between atoms: C_1  and  C_8
    2  A    between atoms: C_1  and  C_17
    3  A    between atoms: C_2  and  N_7
    4  A    between atoms: N_7  and  C_8
    5  A    between atoms: N_7  and  C_28
    6  A    between atoms: C_11  and  C_35
    7  A    between atoms: C_13  and  N_32
    8  A    between atoms: C_23  and  C_25
    9  A    between atoms: C_25  and  N_32
                            x       y       z     vdW  Elec       q    Type
                         _______ _______ _______ _____ _____    ______ ____

>  <TORSDO>
F 9

$$$$
=
 OpenBabel11042418013D

 35 38  0  0  1  0  0  0  0  0999 V2000
  188.1670  175.8310  142.5340 N   0  0  0  0  0  0  0  0  0  0  0  0
  188.9780  175.1650  141.7710 C   0  0  0  0  0  3  0  0  0  0  0  0
  189.6130  177.3200  143.7810 C   0  0  0  0  0  3  0  0  0  0  0  0
  191.2230  175.7050  142.7550 C   0  0  0  0  0  0  0  0  0  0  0  0
  190.8180  177.0140  143.3090 C   0  0  0  0  0  3  0  0  0  0  0  0
  190.3940  174.8670  142.0840 C   0  0  0  0  0  0  0  0  0  0  0  0
  188.5050  176.3260  143.8590 C   0  0  1  0  0  3  0  0  0  0  0  0
  185.0400  178.0690  145.6410 C   0  0  0  0  0  0  0  0  0  0  0  0
  187.2980  176.9430  144.4860 C   0  0  0  0  0  0  0  0  0  0  0  0
  185.3640  178.3160  144.3060 C   0  0  0  0  0  3  0  0  0  0  0  0
  186.4760  177.7520  143.7600 N   0  0  0  0  0  0  0  0  0  0  0  0
  185.8640  177.2380  146.4020 C   0  0  0  0  0  3  0  0  0  0  0  0
  186.9990  176.6690  145.8230 C   0  0  0  0  0  3  0  0  0  0  0  0
  183.8300  178.6820  146.2440 C   0  0  0  0  0  1  0  0  0  0  0  0
  192.6900  175.4050  142.8590 C   0  0  0  0  0  2  0  0  0  0  0  0
  193.3430  176.1180  144.0390 C   0  0  0  0  0  2  0  0  0  0  0  0
  193.2770  175.3040  145.2520 N   0  0  0  0  0  0  0  0  0  0  0  0
  195.5930  174.7590  145.7340 N   0  0  0  0  0  0  0  0  0  0  0  0
  196.6250  173.8910  145.9060 C   0  0  0  0  0  3  0  0  0  0  0  0
  195.1330  172.0540  145.4810 C   0  0  0  0  0  0  0  0  0  0  0  0
  194.9000  170.6920  145.3510 O   0  0  0  0  0  1  0  0  0  0  0  0
  194.3280  174.3350  145.4480 C   0  0  0  0  0  0  0  0  0  0  0  0
  196.4110  172.5190  145.7860 C   0  0  0  0  0  3  0  0  0  0  0  0
  194.0880  172.9600  145.3060 C   0  0  0  0  0  3  0  0  0  0  0  0
  192.2410  175.5270  146.2440 C   0  0  0  0  0  0  0  0  0  0  0  0
  191.0670  174.9050  146.3470 C   0  0  0  0  0  0  0  0  0  0  0  0
  192.2610  176.5920  147.2960 C   0  0  0  0  0  2  0  0  0  0  0  0
  190.3120  175.4670  147.4040 N   0  0  0  0  0  0  0  0  0  0  0  0
  190.5420  173.7980  145.4990 C   0  0  0  0  0  1  0  0  0  0  0  0
  190.9680  176.4100  147.9420 N   0  0  0  0  0  0  0  0  0  0  0  0
  190.9310  173.6100  141.4700 C   0  0  0  0  0  2  0  0  0  0  0  0
  190.1720  171.6460  142.5420 C   0  0  0  0  0  1  0  0  0  0  0  0
  189.8990  172.5780  141.4590 N   0  0  0  0  0  0  0  0  0  0  0  0
  189.0830  172.5360  139.0880 C   0  0  0  0  0  1  0  0  0  0  0  0
  189.9190  171.8630  140.1770 C   0  0  0  0  0  2  0  0  0  0  0  0
  1  7  1  0  0  0  0
  2  6  1  0  0  0  0
  2  1  2  0  0  0  0
  3  7  1  0  0  0  0
  4 15  1  0  0  0  0
  4  5  1  0  0  0  0
  5  3  2  0  0  0  0
  6  4  2  0  0  0  0
  7  9  1  6  0  0  0
  8 14  1  0  0  0  0
  8 12  1  0  0  0  0
  9 13  1  0  0  0  0
 10  8  2  0  0  0  0
 11 10  1  0  0  0  0
 11  9  2  0  0  0  0
 13 12  2  0  0  0  0
 15 16  1  0  0  0  0
 16 17  1  0  0  0  0
 17 22  1  0  0  0  0
 17 25  1  0  0  0  0
 18 19  1  0  0  0  0
 20 23  1  0  0  0  0
 21 20  1  0  0  0  0
 22 18  2  0  0  0  0
 23 19  2  0  0  0  0
 24 22  1  0  0  0  0
 24 20  2  0  0  0  0
 25 26  2  0  0  0  0
 25 27  1  0  0  0  0
 26 28  1  0  0  0  0
 27 30  1  0  0  0  0
 28 30  2  0  0  0  0
 29 26  1  0  0  0  0
 31  6  1  0  0  0  0
 33 31  1  0  0  0  0
 33 32  1  0  0  0  0
 34 35  1  0  0  0  0
 35 33  1  0  0  0  0
M  END
>  <MODEL>
2

>  <REMARK>
 VINA RESULT:      -7.3      2.310      7.892
  Name = 
  9 active torsions:
  status: ('A' for Active; 'I' for Inactive)
    1  A    between atoms: C_1  and  C_8
    2  A    between atoms: C_1  and  C_17
    3  A    between atoms: C_2  and  N_7
    4  A    between atoms: N_7  and  C_8
    5  A    between atoms: N_7  and  C_28
    6  A    between atoms: C_11  and  C_35
    7  A    between atoms: C_13  and  N_32
    8  A    between atoms: C_23  and  C_25
    9  A    between atoms: C_25  and  N_32
                            x       y       z     vdW  Elec       q    Type
                         _______ _______ _______ _____ _____    ______ ____

>  <TORSDO>
F 9

$$$$
=
 OpenBabel11042418013D

 35 38  0  0  1  0  0  0  0  0999 V2000
  188.3940  175.6200  142.4830 N   0  0  0  0  0  0  0  0  0  0  0  0
  189.1860  174.9000  141.7500 C   0  0  0  0  0  3  0  0  0  0  0  0
  189.8590  177.2420  143.5260 C   0  0  0  0  0  3  0  0  0  0  0  0
  191.4580  175.5650  142.5850 C   0  0  0  0  0  0  0  0  0  0  0  0
  191.0500  176.9140  143.0330 C   0  0  0  0  0  3  0  0  0  0  0  0
  190.6200  174.6560  142.0300 C   0  0  0  0  0  0  0  0  0  0  0  0
  188.7750  176.2410  143.7420 C   0  0  1  0  0  3  0  0  0  0  0  0
  185.3810  178.1200  145.5220 C   0  0  0  0  0  0  0  0  0  0  0  0
  187.5820  176.8940  144.3600 C   0  0  0  0  0  0  0  0  0  0  0  0
  186.0170  177.0430  146.1440 C   0  0  0  0  0  3  0  0  0  0  0  0
  187.0950  176.4580  145.5560 N   0  0  0  0  0  0  0  0  0  0  0  0
  185.8670  178.5880  144.3010 C   0  0  0  0  0  3  0  0  0  0  0  0
  186.9750  177.9740  143.7140 C   0  0  0  0  0  3  0  0  0  0  0  0
  184.2040  178.7630  146.1570 C   0  0  0  0  0  1  0  0  0  0  0  0
  192.9340  175.3010  142.6540 C   0  0  0  0  0  2  0  0  0  0  0  0
  193.5970  176.0240  143.8230 C   0  0  0  0  0  2  0  0  0  0  0  0
  193.5970  175.1950  145.0270 N   0  0  0  0  0  0  0  0  0  0  0  0
  191.3730  174.6180  145.8110 N   0  0  0  0  0  0  0  0  0  0  0  0
  190.3010  174.7620  146.6340 C   0  0  0  0  0  3  0  0  0  0  0  0
  191.4590  176.5100  147.8120 C   0  0  0  0  0  0  0  0  0  0  0  0
  191.5020  177.4650  148.8180 O   0  0  0  0  0  1  0  0  0  0  0  0
  192.5000  175.3750  145.9470 C   0  0  0  0  0  0  0  0  0  0  0  0
  190.3270  175.7110  147.6550 C   0  0  0  0  0  3  0  0  0  0  0  0
  192.5470  176.3490  146.9560 C   0  0  0  0  0  3  0  0  0  0  0  0
  194.6170  174.1830  145.2360 C   0  0  0  0  0  0  0  0  0  0  0  0
  194.5080  172.8680  145.0470 C   0  0  0  0  0  0  0  0  0  0  0  0
  195.9760  174.4260  145.8120 C   0  0  0  0  0  2  0  0  0  0  0  0
  195.7040  172.2210  145.4390 N   0  0  0  0  0  0  0  0  0  0  0  0
  193.3300  172.1130  144.5350 C   0  0  0  0  0  1  0  0  0  0  0  0
  196.5330  173.0810  145.8670 N   0  0  0  0  0  0  0  0  0  0  0  0
  191.1570  173.3560  141.5120 C   0  0  0  0  0  2  0  0  0  0  0  0
  190.1870  171.4260  142.4710 C   0  0  0  0  0  1  0  0  0  0  0  0
  190.0760  172.3840  141.3810 N   0  0  0  0  0  0  0  0  0  0  0  0
  189.8920  172.5720  138.8880 C   0  0  0  0  0  1  0  0  0  0  0  0
  190.1850  171.6830  140.0970 C   0  0  0  0  0  2  0  0  0  0  0  0
  1  7  1  0  0  0  0
  2  6  1  0  0  0  0
  2  1  2  0  0  0  0
  3  7  1  0  0  0  0
  4 15  1  0  0  0  0
  4  5  1  0  0  0  0
  5  3  2  0  0  0  0
  6  4  2  0  0  0  0
  7  9  1  6  0  0  0
  8 10  1  0  0  0  0
  8 14  1  0  0  0  0
  9 11  1  0  0  0  0
 11 10  2  0  0  0  0
 12  8  2  0  0  0  0
 13 12  1  0  0  0  0
 13  9  2  0  0  0  0
 15 16  1  0  0  0  0
 16 17  1  0  0  0  0
 17 25  1  0  0  0  0
 17 22  1  0  0  0  0
 18 22  2  0  0  0  0
 18 19  1  0  0  0  0
 19 23  2  0  0  0  0
 20 21  1  0  0  0  0
 22 24  1  0  0  0  0
 23 20  1  0  0  0  0
 24 20  2  0  0  0  0
 25 27  1  0  0  0  0
 26 25  2  0  0  0  0
 26 28  1  0  0  0  0
 27 30  1  0  0  0  0
 28 30  2  0  0  0  0
 29 26  1  0  0  0  0
 31  6  1  0  0  0  0
 33 31  1  0  0  0  0
 33 32  1  0  0  0  0
 34 35  1  0  0  0  0
 35 33  1  0  0  0  0
M  END
>  <MODEL>
3

>  <REMARK>
 VINA RESULT:      -7.2      2.532      8.337
  Name = 
  9 active torsions:
  status: ('A' for Active; 'I' for Inactive)
    1  A    between atoms: C_1  and  C_8
    2  A    between atoms: C_1  and  C_17
    3  A    between atoms: C_2  and  N_7
    4  A    between atoms: N_7  and  C_8
    5  A    between atoms: N_7  and  C_28
    6  A    between atoms: C_11  and  C_35
    7  A    between atoms: C_13  and  N_32
    8  A    between atoms: C_23  and  C_25
    9  A    between atoms: C_25  and  N_32
                            x       y       z     vdW  Elec       q    Type
                         _______ _______ _______ _____ _____    ______ ____

>  <TORSDO>
F 9

$$$$
=
 OpenBabel11042418013D

 35 38  0  0  1  0  0  0  0  0999 V2000
  190.0440  177.1490  145.9880 N   0  0  0  0  0  0  0  0  0  0  0  0
  191.3180  176.9060  145.9610 C   0  0  0  0  0  3  0  0  0  0  0  0
  189.0170  174.9600  145.8720 C   0  0  0  0  0  3  0  0  0  0  0  0
  191.4000  174.4940  145.2700 C   0  0  0  0  0  0  0  0  0  0  0  0
  190.0710  174.1490  145.8190 C   0  0  0  0  0  3  0  0  0  0  0  0
  191.9490  175.7330  145.3150 C   0  0  0  0  0  0  0  0  0  0  0  0
  189.0380  176.3420  145.3150 C   0  0  1  0  0  3  0  0  0  0  0  0
  185.1980  178.1580  145.7320 C   0  0  0  0  0  0  0  0  0  0  0  0
  187.6970  176.9830  145.4680 C   0  0  0  0  0  0  0  0  0  0  0  0
  186.0750  178.5520  144.7200 C   0  0  0  0  0  3  0  0  0  0  0  0
  187.2950  177.9620  144.6080 N   0  0  0  0  0  0  0  0  0  0  0  0
  185.5860  177.1520  146.6190 C   0  0  0  0  0  3  0  0  0  0  0  0
  186.8420  176.5590  146.4870 C   0  0  0  0  0  3  0  0  0  0  0  0
  183.8650  178.7980  145.8620 C   0  0  0  0  0  1  0  0  0  0  0  0
  192.1930  173.3250  144.7660 C   0  0  0  0  0  2  0  0  0  0  0  0
  191.4010  172.4700  143.7810 C   0  0  0  0  0  2  0  0  0  0  0  0
  191.7190  172.8210  142.3980 N   0  0  0  0  0  0  0  0  0  0  0  0
  190.5020  172.8650  140.2980 N   0  0  0  0  0  0  0  0  0  0  0  0
  189.5140  173.3080  139.4770 C   0  0  0  0  0  3  0  0  0  0  0  0
  188.7140  174.7390  141.2360 C   0  0  0  0  0  0  0  0  0  0  0  0
  187.8150  175.6850  141.7090 O   0  0  0  0  0  1  0  0  0  0  0  0
  190.6350  173.3100  141.5810 C   0  0  0  0  0  0  0  0  0  0  0  0
  188.5970  174.2530  139.9340 C   0  0  0  0  0  3  0  0  0  0  0  0
  189.7360  174.2730  142.0620 C   0  0  0  0  0  3  0  0  0  0  0  0
  193.0830  172.7540  141.9060 C   0  0  0  0  0  0  0  0  0  0  0  0
  193.8270  173.7550  141.4350 C   0  0  0  0  0  0  0  0  0  0  0  0
  193.8850  171.5020  141.7390 C   0  0  0  0  0  2  0  0  0  0  0  0
  195.0740  173.2610  140.9840 N   0  0  0  0  0  0  0  0  0  0  0  0
  193.4630  175.1960  141.3360 C   0  0  0  0  0  1  0  0  0  0  0  0
  195.1190  172.0030  141.1490 N   0  0  0  0  0  0  0  0  0  0  0  0
  193.3480  175.9530  144.8240 C   0  0  0  0  0  2  0  0  0  0  0  0
  194.8790  177.4880  145.7620 C   0  0  0  0  0  1  0  0  0  0  0  0
  194.2430  176.1940  145.9510 N   0  0  0  0  0  0  0  0  0  0  0  0
  195.7440  174.6770  144.6360 C   0  0  0  0  0  1  0  0  0  0  0  0
  195.2680  175.1450  146.0110 C   0  0  0  0  0  2  0  0  0  0  0  0
  2  1  2  0  0  0  0
  4  6  2  0  0  0  0
  4  5  1  0  0  0  0
  5  3  2  0  0  0  0
  6  2  1  0  0  0  0
  7  9  1  1  0  0  0
  7  3  1  0  0  0  0
  7  1  1  0  0  0  0
  8 14  1  0  0  0  0
  8 12  1  0  0  0  0
  9 13  1  0  0  0  0
 10  8  2  0  0  0  0
 11 10  1  0  0  0  0
 11  9  2  0  0  0  0
 13 12  2  0  0  0  0
 15  4  1  0  0  0  0
 16 15  1  0  0  0  0
 17 16  1  0  0  0  0
 18 22  1  0  0  0  0
 19 23  1  0  0  0  0
 19 18  2  0  0  0  0
 20 21  1  0  0  0  0
 20 24  1  0  0  0  0
 22 24  2  0  0  0  0
 22 17  1  0  0  0  0
 23 20  2  0  0  0  0
 25 17  1  0  0  0  0
 26 25  2  0  0  0  0
 27 25  1  0  0  0  0
 28 30  2  0  0  0  0
 28 26  1  0  0  0  0
 29 26  1  0  0  0  0
 30 27  1  0  0  0  0
 31  6  1  0  0  0  0
 31 33  1  0  0  0  0
 32 33  1  0  0  0  0
 33 35  1  0  0  0  0
 34 35  1  0  0  0  0
M  END
>  <MODEL>
4

>  <REMARK>
 VINA RESULT:      -7.0      2.458      7.366
  Name = 
  9 active torsions:
  status: ('A' for Active; 'I' for Inactive)
    1  A    between atoms: C_1  and  C_8
    2  A    between atoms: C_1  and  C_17
    3  A    between atoms: C_2  and  N_7
    4  A    between atoms: N_7  and  C_8
    5  A    between atoms: N_7  and  C_28
    6  A    between atoms: C_11  and  C_35
    7  A    between atoms: C_13  and  N_32
    8  A    between atoms: C_23  and  C_25
    9  A    between atoms: C_25  and  N_32
                            x       y       z     vdW  Elec       q    Type
                         _______ _______ _______ _____ _____    ______ ____

>  <TORSDO>
F 9

$$$$
=
 OpenBabel11042418013D

 35 38  0  0  1  0  0  0  0  0999 V2000
  190.0040  177.1080  146.0620 N   0  0  0  0  0  0  0  0  0  0  0  0
  191.2800  176.8750  146.0280 C   0  0  0  0  0  3  0  0  0  0  0  0
  188.9930  174.9220  145.8210 C   0  0  0  0  0  3  0  0  0  0  0  0
  191.3810  174.5060  145.2050 C   0  0  0  0  0  0  0  0  0  0  0  0
  190.0520  174.1220  145.7280 C   0  0  0  0  0  3  0  0  0  0  0  0
  191.9220  175.7430  145.3210 C   0  0  0  0  0  0  0  0  0  0  0  0
  189.0060  176.3330  145.3410 C   0  0  1  0  0  3  0  0  0  0  0  0
  185.1720  178.1290  145.8790 C   0  0  0  0  0  0  0  0  0  0  0  0
  187.6610  176.9560  145.5230 C   0  0  0  0  0  0  0  0  0  0  0  0
  185.5970  177.0800  146.6960 C   0  0  0  0  0  3  0  0  0  0  0  0
  186.8220  176.5200  146.5040 N   0  0  0  0  0  0  0  0  0  0  0  0
  186.0180  178.5960  144.8720 C   0  0  0  0  0  3  0  0  0  0  0  0
  187.2720  178.0090  144.6920 C   0  0  0  0  0  3  0  0  0  0  0  0
  183.8360  178.7440  146.0810 C   0  0  0  0  0  1  0  0  0  0  0  0
  192.1840  173.3710  144.6400 C   0  0  0  0  0  2  0  0  0  0  0  0
  191.3860  172.5380  143.6410 C   0  0  0  0  0  2  0  0  0  0  0  0
  191.5230  173.0630  142.2840 N   0  0  0  0  0  0  0  0  0  0  0  0
  193.8230  172.4520  141.8050 N   0  0  0  0  0  0  0  0  0  0  0  0
  195.0990  172.7280  141.4250 C   0  0  0  0  0  3  0  0  0  0  0  0
  194.4920  175.0340  141.1170 C   0  0  0  0  0  0  0  0  0  0  0  0
  194.8280  176.3360  140.7730 O   0  0  0  0  0  1  0  0  0  0  0  0
  192.8550  173.4120  141.8490 C   0  0  0  0  0  0  0  0  0  0  0  0
  195.4560  174.0280  141.0700 C   0  0  0  0  0  3  0  0  0  0  0  0
  193.1900  174.7310  141.5110 C   0  0  0  0  0  3  0  0  0  0  0  0
  190.3780  173.1500  141.3970 C   0  0  0  0  0  0  0  0  0  0  0  0
  189.4930  174.1420  141.3070 C   0  0  1  0  0  3  0  0  0  0  0  0
  189.9110  172.0680  140.4730 C   0  0  0  0  0  3  0  0  0  0  0  0
  188.4820  173.8080  140.3750 N   0  0  0  0  0  0  0  0  0  0  0  0
  189.4820  175.4280  142.0600 C   0  0  0  0  0  1  0  0  0  0  0  0
  188.7050  172.6510  139.9020 N   0  0  0  0  0  0  0  0  0  0  0  0
  193.3210  175.9990  144.8490 C   0  0  0  0  0  2  0  0  0  0  0  0
  194.8320  177.5340  145.8190 C   0  0  0  0  0  1  0  0  0  0  0  0
  194.1990  176.2350  145.9900 N   0  0  0  0  0  0  0  0  0  0  0  0
  195.8560  174.8650  144.7000 C   0  0  0  0  0  1  0  0  0  0  0  0
  195.2280  175.1910  146.0560 C   0  0  0  0  0  2  0  0  0  0  0  0
  2  1  2  0  0  0  0
  4  6  2  0  0  0  0
  4  5  1  0  0  0  0
  5  3  2  0  0  0  0
  6  2  1  0  0  0  0
  7  9  1  1  0  0  0
  7  3  1  0  0  0  0
  7  1  1  0  0  0  0
  8 14  1  0  0  0  0
  8 10  1  0  0  0  0
  9 11  1  0  0  0  0
 11 10  2  0  0  0  0
 12  8  2  0  0  0  0
 13 12  1  0  0  0  0
 13  9  2  0  0  0  0
 15  4  1  0  0  0  0
 16 15  1  0  0  0  0
 17 16  1  0  0  0  0
 18 22  1  0  0  0  0
 19 18  2  0  0  0  0
 20 24  1  0  0  0  0
 21 20  1  0  0  0  0
 22 17  1  0  0  0  0
 23 20  2  0  0  0  0
 23 19  1  0  0  0  0
 24 22  2  0  0  0  0
 25 17  1  0  0  0  0
 26 25  1  0  0  0  0
 26 29  1  1  0  0  0
 27 25  2  0  0  0  0
 28 26  1  0  0  0  0
 30 28  2  0  0  0  0
 30 27  1  0  0  0  0
 31  6  1  0  0  0  0
 31 33  1  0  0  0  0
 32 33  1  0  0  0  0
 33 35  1  0  0  0  0
 34 35  1  0  0  0  0
M  END
>  <MODEL>
5

>  <REMARK>
 VINA RESULT:      -7.0      2.760      7.035
  Name = 
  9 active torsions:
  status: ('A' for Active; 'I' for Inactive)
    1  A    between atoms: C_1  and  C_8
    2  A    between atoms: C_1  and  C_17
    3  A    between atoms: C_2  and  N_7
    4  A    between atoms: N_7  and  C_8
    5  A    between atoms: N_7  and  C_28
    6  A    between atoms: C_11  and  C_35
    7  A    between atoms: C_13  and  N_32
    8  A    between atoms: C_23  and  C_25
    9  A    between atoms: C_25  and  N_32
                            x       y       z     vdW  Elec       q    Type
                         _______ _______ _______ _____ _____    ______ ____

>  <TORSDO>
F 9

$$$$
=
 OpenBabel11042418013D

 35 38  0  0  1  0  0  0  0  0999 V2000
  188.9600  176.0640  143.6020 N   0  0  0  0  0  0  0  0  0  0  0  0
  189.9750  175.3820  143.1670 C   0  0  0  0  0  3  0  0  0  0  0  0
  189.8430  177.3150  145.4770 C   0  0  0  0  0  3  0  0  0  0  0  0
  191.6410  175.6350  145.0280 C   0  0  0  0  0  0  0  0  0  0  0  0
  191.1170  176.9330  145.5050 C   0  0  0  0  0  3  0  0  0  0  0  0
  191.1170  174.9310  143.9950 C   0  0  0  0  0  0  0  0  0  0  0  0
  188.7480  176.4270  144.9950 C   0  0  1  0  0  3  0  0  0  0  0  0
  184.9620  178.3560  145.3870 C   0  0  0  0  0  0  0  0  0  0  0  0
  187.4260  177.1060  145.1390 C   0  0  0  0  0  0  0  0  0  0  0  0
  185.9330  178.8470  144.5120 C   0  0  0  0  0  3  0  0  0  0  0  0
  187.1340  178.2180  144.4060 N   0  0  0  0  0  0  0  0  0  0  0  0
  185.2360  177.2150  146.1420 C   0  0  0  0  0  3  0  0  0  0  0  0
  186.4750  176.5830  146.0180 C   0  0  0  0  0  3  0  0  0  0  0  0
  183.6490  179.0380  145.5090 C   0  0  0  0  0  1  0  0  0  0  0  0
  192.9150  175.1930  145.6860 C   0  0  0  0  0  2  0  0  0  0  0  0
  194.1010  176.0710  145.2990 C   0  0  0  0  0  2  0  0  0  0  0  0
  194.9950  175.3780  144.3730 N   0  0  0  0  0  0  0  0  0  0  0  0
  196.3540  174.1540  145.9690 N   0  0  0  0  0  0  0  0  0  0  0  0
  196.9590  173.0310  146.4390 C   0  0  0  0  0  3  0  0  0  0  0  0
  196.0560  171.7880  144.5890 C   0  0  0  0  0  0  0  0  0  0  0  0
  195.9060  170.5970  143.8910 O   0  0  0  0  0  1  0  0  0  0  0  0
  195.5920  174.1490  144.8370 C   0  0  0  0  0  0  0  0  0  0  0  0
  196.8170  171.8230  145.7560 C   0  0  0  0  0  3  0  0  0  0  0  0
  195.4450  172.9510  144.1220 C   0  0  0  0  0  3  0  0  0  0  0  0
  195.1990  175.8700  143.0230 C   0  0  0  0  0  0  0  0  0  0  0  0
  196.3260  176.3440  142.4930 C   0  0  1  0  0  3  0  0  0  0  0  0
  194.1300  176.0350  141.9880 C   0  0  0  0  0  3  0  0  0  0  0  0
  196.0880  176.7940  141.1720 N   0  0  0  0  0  0  0  0  0  0  0  0
  197.6660  176.4470  143.1360 C   0  0  0  0  0  1  0  0  0  0  0  0
  194.8650  176.6260  140.8780 N   0  0  0  0  0  0  0  0  0  0  0  0
  191.7890  173.6770  143.5230 C   0  0  0  0  0  2  0  0  0  0  0  0
  190.1300  172.3800  144.5940 C   0  0  0  0  0  1  0  0  0  0  0  0
  190.7990  172.6230  143.3250 N   0  0  0  0  0  0  0  0  0  0  0  0
  192.3610  170.7590  143.9340 C   0  0  0  0  0  1  0  0  0  0  0  0
  191.4600  171.3930  142.8740 C   0  0  0  0  0  2  0  0  0  0  0  0
  1  7  1  0  0  0  0
  2  1  2  0  0  0  0
  2  6  1  0  0  0  0
  3  5  2  0  0  0  0
  4  5  1  0  0  0  0
  4 15  1  0  0  0  0
  6  4  2  0  0  0  0
  7  9  1  6  0  0  0
  7  3  1  0  0  0  0
  8 14  1  0  0  0  0
  8 12  1  0  0  0  0
  9 13  1  0  0  0  0
 10  8  2  0  0  0  0
 11 10  1  0  0  0  0
 11  9  2  0  0  0  0
 13 12  2  0  0  0  0
 16 15  1  0  0  0  0
 17 22  1  0  0  0  0
 17 16  1  0  0  0  0
 18 19  1  0  0  0  0
 20 23  1  0  0  0  0
 21 20  1  0  0  0  0
 22 18  2  0  0  0  0
 23 19  2  0  0  0  0
 24 20  2  0  0  0  0
 24 22  1  0  0  0  0
 25 17  1  0  0  0  0
 26 25  1  0  0  0  0
 26 29  1  1  0  0  0
 27 25  2  0  0  0  0
 28 26  1  0  0  0  0
 30 28  2  0  0  0  0
 30 27  1  0  0  0  0
 31  6  1  0  0  0  0
 33 31  1  0  0  0  0
 33 32  1  0  0  0  0
 35 33  1  0  0  0  0
 35 34  1  0  0  0  0
M  END
>  <MODEL>
6

>  <REMARK>
 VINA RESULT:      -6.9      2.901      8.408
  Name = 
  9 active torsions:
  status: ('A' for Active; 'I' for Inactive)
    1  A    between atoms: C_1  and  C_8
    2  A    between atoms: C_1  and  C_17
    3  A    between atoms: C_2  and  N_7
    4  A    between atoms: N_7  and  C_8
    5  A    between atoms: N_7  and  C_28
    6  A    between atoms: C_11  and  C_35
    7  A    between atoms: C_13  and  N_32
    8  A    between atoms: C_23  and  C_25
    9  A    between atoms: C_25  and  N_32
                            x       y       z     vdW  Elec       q    Type
                         _______ _______ _______ _____ _____    ______ ____

>  <TORSDO>
F 9

$$$$
=
 OpenBabel11042418013D

 35 38  0  0  1  0  0  0  0  0999 V2000
  187.8570  175.5650  142.7670 N   0  0  0  0  0  0  0  0  0  0  0  0
  188.3520  174.8030  141.8420 C   0  0  0  0  0  3  0  0  0  0  0  0
  189.7230  176.9380  143.4700 C   0  0  0  0  0  3  0  0  0  0  0  0
  190.8240  175.1480  142.1150 C   0  0  0  0  0  0  0  0  0  0  0  0
  190.7100  176.5050  142.6920 C   0  0  0  0  0  3  0  0  0  0  0  0
  189.7680  174.3770  141.7540 C   0  0  0  0  0  0  0  0  0  0  0  0
  188.6040  176.0590  143.9140 C   0  0  1  0  0  3  0  0  0  0  0  0
  186.0020  178.2100  146.5260 C   0  0  0  0  0  0  0  0  0  0  0  0
  187.6860  176.8070  144.8250 C   0  0  0  0  0  0  0  0  0  0  0  0
  186.7400  177.1180  146.9840 C   0  0  0  0  0  3  0  0  0  0  0  0
  187.5610  176.4450  146.1330 N   0  0  0  0  0  0  0  0  0  0  0  0
  186.1200  178.6030  145.1920 C   0  0  0  0  0  3  0  0  0  0  0  0
  186.9670  177.9000  144.3340 C   0  0  0  0  0  3  0  0  0  0  0  0
  185.1030  178.9480  147.4480 C   0  0  0  0  0  1  0  0  0  0  0  0
  192.2270  174.7100  141.8130 C   0  0  0  0  0  2  0  0  0  0  0  0
  193.2670  175.6850  142.3570 C   0  0  0  0  0  2  0  0  0  0  0  0
  193.9700  175.1220  143.5090 N   0  0  0  0  0  0  0  0  0  0  0  0
  194.3730  176.5180  145.4540 N   0  0  0  0  0  0  0  0  0  0  0  0
  194.0710  176.9930  146.6910 C   0  0  0  0  0  3  0  0  0  0  0  0
  192.1050  175.6090  146.7260 C   0  0  0  0  0  0  0  0  0  0  0  0
  190.9630  175.1480  147.3660 O   0  0  0  0  0  1  0  0  0  0  0  0
  193.5840  175.6090  144.8120 C   0  0  0  0  0  0  0  0  0  0  0  0
  192.9250  176.5480  147.3490 C   0  0  0  0  0  3  0  0  0  0  0  0
  192.4340  175.1320  145.4570 C   0  0  0  0  0  3  0  0  0  0  0  0
  194.9500  174.0660  143.3430 C   0  0  0  0  0  0  0  0  0  0  0  0
  194.7780  172.7590  143.5390 C   0  0  1  0  0  3  0  0  0  0  0  0
  196.3960  174.2670  143.0110 C   0  0  0  0  0  3  0  0  0  0  0  0
  196.0000  172.0730  143.3430 N   0  0  0  0  0  0  0  0  0  0  0  0
  193.5280  172.0520  143.9360 C   0  0  0  0  0  1  0  0  0  0  0  0
  196.9120  172.9050  143.0470 N   0  0  0  0  0  0  0  0  0  0  0  0
  189.9950  173.0580  141.0810 C   0  0  0  0  0  2  0  0  0  0  0  0
  190.6210  170.7980  141.3680 C   0  0  0  0  0  1  0  0  0  0  0  0
  190.3990  172.0570  142.0630 N   0  0  0  0  0  0  0  0  0  0  0  0
  189.7920  172.2180  144.4900 C   0  0  0  0  0  1  0  0  0  0  0  0
  189.3430  171.8860  143.0670 C   0  0  0  0  0  2  0  0  0  0  0  0
  1  7  1  0  0  0  0
  2  1  2  0  0  0  0
  3  7  1  0  0  0  0
  4  5  1  0  0  0  0
  5  3  2  0  0  0  0
  6  2  1  0  0  0  0
  6  4  2  0  0  0  0
  7  9  1  1  0  0  0
  8 10  1  0  0  0  0
  8 14  1  0  0  0  0
  9 11  1  0  0  0  0
 11 10  2  0  0  0  0
 12  8  2  0  0  0  0
 13  9  2  0  0  0  0
 13 12  1  0  0  0  0
 15  4  1  0  0  0  0
 15 16  1  0  0  0  0
 16 17  1  0  0  0  0
 17 22  1  0  0  0  0
 18 19  1  0  0  0  0
 19 23  2  0  0  0  0
 20 23  1  0  0  0  0
 20 21  1  0  0  0  0
 22 18  2  0  0  0  0
 22 24  1  0  0  0  0
 24 20  2  0  0  0  0
 25 17  1  0  0  0  0
 25 26  1  0  0  0  0
 26 29  1  1  0  0  0
 27 30  1  0  0  0  0
 27 25  2  0  0  0  0
 28 26  1  0  0  0  0
 30 28  2  0  0  0  0
 31  6  1  0  0  0  0
 31 33  1  0  0  0  0
 32 33  1  0  0  0  0
 33 35  1  0  0  0  0
 35 34  1  0  0  0  0
M  END
>  <MODEL>
7

>  <REMARK>
 VINA RESULT:      -6.7      2.529      8.116
  Name = 
  9 active torsions:
  status: ('A' for Active; 'I' for Inactive)
    1  A    between atoms: C_1  and  C_8
    2  A    between atoms: C_1  and  C_17
    3  A    between atoms: C_2  and  N_7
    4  A    between atoms: N_7  and  C_8
    5  A    between atoms: N_7  and  C_28
    6  A    between atoms: C_11  and  C_35
    7  A    between atoms: C_13  and  N_32
    8  A    between atoms: C_23  and  C_25
    9  A    between atoms: C_25  and  N_32
                            x       y       z     vdW  Elec       q    Type
                         _______ _______ _______ _____ _____    ______ ____

>  <TORSDO>
F 9

$$$$
=
 OpenBabel11042418013D

 35 38  0  0  1  0  0  0  0  0999 V2000
  190.0640  177.0360  144.9840 N   0  0  0  0  0  0  0  0  0  0  0  0
  191.2890  176.7220  144.6960 C   0  0  0  0  0  3  0  0  0  0  0  0
  189.1360  175.0090  145.9290 C   0  0  0  0  0  3  0  0  0  0  0  0
  191.2740  174.2200  144.8990 C   0  0  0  0  0  0  0  0  0  0  0  0
  190.1650  174.1680  145.8760 C   0  0  0  0  0  3  0  0  0  0  0  0
  191.7630  175.3610  144.3540 C   0  0  0  0  0  0  0  0  0  0  0  0
  188.9440  176.1080  144.9410 C   0  0  1  0  0  3  0  0  0  0  0  0
  185.3280  178.2220  145.7590 C   0  0  0  0  0  0  0  0  0  0  0  0
  187.6740  176.8430  145.2210 C   0  0  0  0  0  0  0  0  0  0  0  0
  185.7400  177.1610  146.5670 C   0  0  0  0  0  3  0  0  0  0  0  0
  186.8950  176.5000  146.2850 N   0  0  0  0  0  0  0  0  0  0  0  0
  186.1140  178.5960  144.6680 C   0  0  0  0  0  3  0  0  0  0  0  0
  187.2960  177.9050  144.3960 C   0  0  0  0  0  3  0  0  0  0  0  0
  184.0680  178.9480  146.0590 C   0  0  0  0  0  1  0  0  0  0  0  0
  191.9420  172.9020  144.6380 C   0  0  0  0  0  2  0  0  0  0  0  0
  190.9470  171.8190  144.2310 C   0  0  0  0  0  2  0  0  0  0  0  0
  190.9250  171.6380  142.7810 N   0  0  0  0  0  0  0  0  0  0  0  0
  190.4640  172.8730  140.7420 N   0  0  0  0  0  0  0  0  0  0  0  0
  189.7460  173.7460  139.9880 C   0  0  0  0  0  3  0  0  0  0  0  0
  188.2280  174.0620  141.8250 C   0  0  0  0  0  0  0  0  0  0  0  0
  187.1030  174.6620  142.3740 O   0  0  0  0  0  1  0  0  0  0  0  0
  190.1090  172.5540  142.0200 C   0  0  0  0  0  0  0  0  0  0  0  0
  188.6090  174.3550  140.5170 C   0  0  0  0  0  3  0  0  0  0  0  0
  188.9790  173.1640  142.5830 C   0  0  0  0  0  3  0  0  0  0  0  0
  191.7520  170.6320  142.1410 C   0  0  0  0  0  0  0  0  0  0  0  0
  193.0130  170.7580  141.7300 C   0  0  1  0  0  3  0  0  0  0  0  0
  191.2940  169.2700  141.7220 C   0  0  0  0  0  3  0  0  0  0  0  0
  193.4350  169.5710  141.0860 N   0  0  0  0  0  0  0  0  0  0  0  0
  193.9030  171.9460  141.8640 C   0  0  0  0  0  1  0  0  0  0  0  0
  192.4830  168.7310  141.0760 N   0  0  0  0  0  0  0  0  0  0  0  0
  192.9590  175.3120  143.4530 C   0  0  0  0  0  2  0  0  0  0  0  0
  195.0300  176.3470  142.9810 C   0  0  0  0  0  1  0  0  0  0  0  0
  194.0510  176.0920  144.0270 N   0  0  0  0  0  0  0  0  0  0  0  0
  194.5480  176.0240  146.4830 C   0  0  0  0  0  1  0  0  0  0  0  0
  194.6820  175.3450  145.1200 C   0  0  0  0  0  2  0  0  0  0  0  0
  2  1  2  0  0  0  0
  4  5  1  0  0  0  0
  5  3  2  0  0  0  0
  6  2  1  0  0  0  0
  6  4  2  0  0  0  0
  7  1  1  0  0  0  0
  7  9  1  1  0  0  0
  7  3  1  0  0  0  0
  8 14  1  0  0  0  0
  8 10  1  0  0  0  0
  9 11  1  0  0  0  0
 11 10  2  0  0  0  0
 12  8  2  0  0  0  0
 13 12  1  0  0  0  0
 13  9  2  0  0  0  0
 15  4  1  0  0  0  0
 16 15  1  0  0  0  0
 17 16  1  0  0  0  0
 18 22  1  0  0  0  0
 19 23  1  0  0  0  0
 19 18  2  0  0  0  0
 20 21  1  0  0  0  0
 20 24  1  0  0  0  0
 22 24  2  0  0  0  0
 22 17  1  0  0  0  0
 23 20  2  0  0  0  0
 25 17  1  0  0  0  0
 26 29  1  6  0  0  0
 26 25  1  0  0  0  0
 27 25  2  0  0  0  0
 28 26  1  0  0  0  0
 30 28  2  0  0  0  0
 30 27  1  0  0  0  0
 31 33  1  0  0  0  0
 31  6  1  0  0  0  0
 32 33  1  0  0  0  0
 33 35  1  0  0  0  0
 35 34  1  0  0  0  0
M  END
>  <MODEL>
8

>  <REMARK>
 VINA RESULT:      -6.7      2.715      7.469
  Name = 
  9 active torsions:
  status: ('A' for Active; 'I' for Inactive)
    1  A    between atoms: C_1  and  C_8
    2  A    between atoms: C_1  and  C_17
    3  A    between atoms: C_2  and  N_7
    4  A    between atoms: N_7  and  C_8
    5  A    between atoms: N_7  and  C_28
    6  A    between atoms: C_11  and  C_35
    7  A    between atoms: C_13  and  N_32
    8  A    between atoms: C_23  and  C_25
    9  A    between atoms: C_25  and  N_32
                            x       y       z     vdW  Elec       q    Type
                         _______ _______ _______ _____ _____    ______ ____

>  <TORSDO>
F 9

$$$$
=
 OpenBabel11042418013D

 35 38  0  0  1  0  0  0  0  0999 V2000
  186.9480  177.0720  143.9950 N   0  0  0  0  0  0  0  0  0  0  0  0
  187.9500  176.8210  144.7800 C   0  0  0  0  0  3  0  0  0  0  0  0
  187.9730  177.5490  141.8540 C   0  0  0  0  0  3  0  0  0  0  0  0
  189.9120  177.6170  143.4310 C   0  0  0  0  0  0  0  0  0  0  0  0
  189.2690  177.4080  142.1160 C   0  0  0  0  0  3  0  0  0  0  0  0
  189.3150  177.3750  144.6240 C   0  0  0  0  0  0  0  0  0  0  0  0
  186.9900  178.0030  142.8780 C   0  0  1  0  0  3  0  0  0  0  0  0
  183.1000  178.3200  141.1510 C   0  0  0  0  0  0  0  0  0  0  0  0
  185.6290  178.1230  142.2750 C   0  0  0  0  0  0  0  0  0  0  0  0
  184.2400  178.2450  140.3480 C   0  0  0  0  0  3  0  0  0  0  0  0
  185.4700  178.1480  140.9210 N   0  0  0  0  0  0  0  0  0  0  0  0
  183.2380  178.2890  142.5390 C   0  0  0  0  0  3  0  0  0  0  0  0
  184.5090  178.1890  143.1070 C   0  0  0  0  0  3  0  0  0  0  0  0
  181.7540  178.4270  140.5330 C   0  0  0  0  0  1  0  0  0  0  0  0
  191.3630  177.9960  143.3670 C   0  0  0  0  0  2  0  0  0  0  0  0
  192.1700  177.0460  142.4870 C   0  0  0  0  0  2  0  0  0  0  0  0
  192.4670  175.7980  143.1890 N   0  0  0  0  0  0  0  0  0  0  0  0
  191.8990  174.1760  141.4740 N   0  0  0  0  0  0  0  0  0  0  0  0
  191.2360  173.0860  141.0060 C   0  0  0  0  0  3  0  0  0  0  0  0
  190.1910  172.8180  143.1560 C   0  0  0  0  0  0  0  0  0  0  0  0
  189.3290  172.1370  144.0030 O   0  0  0  0  0  1  0  0  0  0  0  0
  191.7550  174.6190  142.7560 C   0  0  0  0  0  0  0  0  0  0  0  0
  190.3700  172.3830  141.8430 C   0  0  0  0  0  3  0  0  0  0  0  0
  190.8790  173.9410  143.6150 C   0  0  0  0  0  3  0  0  0  0  0  0
  193.4900  175.7440  144.2160 C   0  0  0  0  0  0  0  0  0  0  0  0
  194.7890  175.4860  144.0580 C   0  0  0  0  0  0  0  0  0  0  0  0
  193.2510  175.8710  145.6880 C   0  0  0  0  0  2  0  0  0  0  0  0
  195.4330  175.4510  145.3170 N   0  0  0  0  0  0  0  0  0  0  0  0
  195.5200  175.2310  142.7850 C   0  0  0  0  0  1  0  0  0  0  0  0
  194.5850  175.6650  146.2360 N   0  0  0  0  0  0  0  0  0  0  0  0
  190.0920  177.5190  145.8970 C   0  0  0  0  0  2  0  0  0  0  0  0
  189.2020  178.1110  148.0040 C   0  0  0  0  0  1  0  0  0  0  0  0
  189.2990  177.0400  147.0250 N   0  0  0  0  0  0  0  0  0  0  0  0
  189.5930  174.5510  146.9550 C   0  0  0  0  0  1  0  0  0  0  0  0
  189.9490  175.8730  147.6340 C   0  0  0  0  0  2  0  0  0  0  0  0
  1  2  2  0  0  0  0
  3  5  2  0  0  0  0
  3  7  1  0  0  0  0
  4  6  2  0  0  0  0
  5  4  1  0  0  0  0
  6  2  1  0  0  0  0
  6 31  1  0  0  0  0
  7  9  1  6  0  0  0
  7  1  1  0  0  0  0
  8 12  1  0  0  0  0
  9 13  1  0  0  0  0
 10 11  1  0  0  0  0
 10  8  2  0  0  0  0
 11  9  2  0  0  0  0
 12 13  2  0  0  0  0
 14  8  1  0  0  0  0
 15  4  1  0  0  0  0
 16 17  1  0  0  0  0
 16 15  1  0  0  0  0
 17 25  1  0  0  0  0
 18 22  1  0  0  0  0
 19 18  2  0  0  0  0
 19 23  1  0  0  0  0
 20 24  1  0  0  0  0
 20 21  1  0  0  0  0
 22 17  1  0  0  0  0
 22 24  2  0  0  0  0
 23 20  2  0  0  0  0
 25 27  1  0  0  0  0
 26 25  2  0  0  0  0
 26 28  1  0  0  0  0
 27 30  1  0  0  0  0
 28 30  2  0  0  0  0
 29 26  1  0  0  0  0
 31 33  1  0  0  0  0
 33 35  1  0  0  0  0
 33 32  1  0  0  0  0
 34 35  1  0  0  0  0
M  END
>  <MODEL>
9

>  <REMARK>
 VINA RESULT:      -6.6      2.142      7.552
  Name = 
  9 active torsions:
  status: ('A' for Active; 'I' for Inactive)
    1  A    between atoms: C_1  and  C_8
    2  A    between atoms: C_1  and  C_17
    3  A    between atoms: C_2  and  N_7
    4  A    between atoms: N_7  and  C_8
    5  A    between atoms: N_7  and  C_28
    6  A    between atoms: C_11  and  C_35
    7  A    between atoms: C_13  and  N_32
    8  A    between atoms: C_23  and  C_25
    9  A    between atoms: C_25  and  N_32
                            x       y       z     vdW  Elec       q    Type
                         _______ _______ _______ _____ _____    ______ ____

>  <TORSDO>
F 9

$$$$
