=
 OpenBabel11042416103D

 26 29  0  0  1  0  0  0  0  0999 V2000
  190.7410  174.6770  142.6730 O   0  0  0  0  0  0  0  0  0  0  0  0
  190.6060  172.9730  138.3270 N   0  0  0  0  0  1  0  0  0  0  0  0
  188.8370  176.0290  143.4910 C   0  0  0  0  0  0  0  0  0  0  0  0
  191.0450  176.1740  144.5440 C   0  0  0  0  0  0  0  0  0  0  0  0
  188.3620  174.0760  139.6230 S   0  0  0  0  0  0  0  0  0  0  0  0
  190.1980  175.6090  143.5770 C   0  0  0  0  0  0  0  0  0  0  0  0
  190.7040  173.4300  140.6430 N   0  0  0  0  0  2  0  0  0  0  0  0
  190.0130  173.3780  139.5540 C   0  0  2  0  0  3  0  0  0  0  0  0
  188.9510  174.9360  141.1060 C   0  0  1  0  0  3  0  0  0  0  0  0
  187.6790  175.1980  142.3540 S   0  0  0  0  0  0  0  0  0  0  0  0
  188.3750  177.0640  144.3440 C   0  0  0  0  0  0  0  0  0  0  0  0
  189.9330  173.9860  141.7330 C   0  0  2  0  0  3  0  0  0  0  0  0
  189.2420  177.5980  145.3040 C   0  0  0  0  0  3  0  0  0  0  0  0
  190.5570  177.1580  145.4090 C   0  0  0  0  0  3  0  0  0  0  0  0
  184.4230  178.6580  144.2610 C   0  0  0  0  0  3  0  0  0  0  0  0
  184.7760  177.7110  145.1720 N   0  0  0  0  0  0  0  0  0  0  0  0
  186.0300  177.1860  145.2030 C   0  0  0  0  0  3  0  0  0  0  0  0
  186.9990  177.6050  144.2810 C   0  0  0  0  0  0  0  0  0  0  0  0
  186.6500  178.5920  143.3500 C   0  0  0  0  0  3  0  0  0  0  0  0
  185.3580  179.1190  143.3330 C   0  0  0  0  0  3  0  0  0  0  0  0
  192.4720  175.7150  144.6480 C   0  0  2  0  0  3  0  0  0  0  0  0
  192.6140  174.5740  145.6060 C   0  0  0  0  0  0  0  0  0  0  0  0
  192.6560  174.8010  146.8420 O   0  0  0  0  0  1  0  0  0  0  0  0
  192.7250  173.2690  145.1400 O   0  0  0  0  0  0  0  0  0  0  0  0
  193.4070  176.8680  144.9920 C   0  0  0  0  0  2  0  0  0  0  0  0
  194.7810  176.5020  144.6940 N   0  0  0  0  0  1  0  0  0  0  0  0
  1  6  1  0  0  0  0
  3  6  2  0  0  0  0
  3 11  1  0  0  0  0
  4 21  1  0  0  0  0
  4 14  2  0  0  0  0
  6  4  1  0  0  0  0
  8  2  1  6  0  0  0
  8  5  1  0  0  0  0
  8  7  1  0  0  0  0
  9  5  1  6  0  0  0
  9 12  1  0  0  0  0
  9 10  1  0  0  0  0
 10  3  1  0  0  0  0
 11 13  2  0  0  0  0
 12  7  1  6  0  0  0
 12  1  1  0  0  0  0
 13 14  1  0  0  0  0
 15 16  1  0  0  0  0
 16 17  2  0  0  0  0
 18 11  1  0  0  0  0
 18 17  1  0  0  0  0
 19 18  2  0  0  0  0
 20 19  1  0  0  0  0
 20 15  2  0  0  0  0
 21 25  1  1  0  0  0
 21 22  1  0  0  0  0
 22 23  1  0  0  0  0
 24 22  2  0  0  0  0
 26 25  1  0  0  0  0
M  END
>  <MODEL>
1

>  <REMARK>
 VINA RESULT:      -6.4      0.000      0.000
  Name = 
  4 active torsions:
  status: ('A' for Active; 'I' for Inactive)
    1  A    between atoms: C_1  and  C_22
    2  A    between atoms: C_8  and  C_23
    3  A    between atoms: C_9  and  C_22
    4  A    between atoms: C_13  and  C_22
                            x       y       z     vdW  Elec       q    Type
                         _______ _______ _______ _____ _____    ______ ____

>  <TORSDO>
F 4

$$$$
=
 OpenBabel11042416103D

 26 29  0  0  1  0  0  0  0  0999 V2000
  190.8680  175.0030  143.0540 O   0  0  0  0  0  0  0  0  0  0  0  0
  194.6560  174.5910  145.7520 N   0  0  0  0  0  1  0  0  0  0  0  0
  188.8960  176.2150  143.9310 C   0  0  0  0  0  0  0  0  0  0  0  0
  188.6900  174.6230  142.0790 C   0  0  0  0  0  0  0  0  0  0  0  0
  192.5310  176.3460  146.3330 S   0  0  0  0  0  0  0  0  0  0  0  0
  189.4920  175.2990  143.0130 C   0  0  0  0  0  0  0  0  0  0  0  0
  192.9990  174.9970  144.1180 N   0  0  0  0  0  2  0  0  0  0  0  0
  193.5010  175.2690  145.2760 C   0  0  2  0  0  3  0  0  0  0  0  0
  191.1440  175.9050  145.2530 C   0  0  1  0  0  3  0  0  0  0  0  0
  189.9330  177.2220  145.0420 S   0  0  0  0  0  0  0  0  0  0  0  0
  187.4870  176.3800  143.9300 C   0  0  0  0  0  0  0  0  0  0  0  0
  191.7620  175.7120  143.8960 C   0  0  2  0  0  3  0  0  0  0  0  0
  186.7180  175.7000  142.9790 C   0  0  0  0  0  3  0  0  0  0  0  0
  187.3090  174.8380  142.0610 C   0  0  0  0  0  3  0  0  0  0  0  0
  185.3700  178.9240  146.6160 C   0  0  0  0  0  3  0  0  0  0  0  0
  185.7470  179.3650  145.3860 N   0  0  0  0  0  0  0  0  0  0  0  0
  186.4310  178.5680  144.5230 C   0  0  0  0  0  3  0  0  0  0  0  0
  186.7800  177.2600  144.8870 C   0  0  0  0  0  0  0  0  0  0  0  0
  186.3820  176.7910  146.1450 C   0  0  0  0  0  3  0  0  0  0  0  0
  185.6800  177.6230  147.0180 C   0  0  0  0  0  3  0  0  0  0  0  0
  189.3220  173.6750  141.0990 C   0  0  2  0  0  3  0  0  0  0  0  0
  188.5540  173.6220  139.8150 C   0  0  0  0  0  0  0  0  0  0  0  0
  188.5180  174.6330  139.0690 O   0  0  0  0  0  0  0  0  0  0  0  0
  187.8600  172.4720  139.4530 O   0  0  0  0  0  1  0  0  0  0  0  0
  189.5150  172.2900  141.7050 C   0  0  0  0  0  2  0  0  0  0  0  0
  190.7770  171.7240  141.2620 N   0  0  0  0  0  1  0  0  0  0  0  0
  3 10  1  0  0  0  0
  4  6  1  0  0  0  0
  6  1  1  0  0  0  0
  6  3  2  0  0  0  0
  7  8  1  0  0  0  0
  8  2  1  1  0  0  0
  8  5  1  0  0  0  0
  9 10  1  6  0  0  0
  9  5  1  0  0  0  0
 11  3  1  0  0  0  0
 11 18  1  0  0  0  0
 12  1  1  6  0  0  0
 12  7  1  0  0  0  0
 12  9  1  0  0  0  0
 13 11  2  0  0  0  0
 14  4  2  0  0  0  0
 14 13  1  0  0  0  0
 15 20  1  0  0  0  0
 16 15  2  0  0  0  0
 17 18  2  0  0  0  0
 17 16  1  0  0  0  0
 18 19  1  0  0  0  0
 19 20  2  0  0  0  0
 21 25  1  1  0  0  0
 21  4  1  0  0  0  0
 22 21  1  0  0  0  0
 23 22  2  0  0  0  0
 24 22  1  0  0  0  0
 26 25  1  0  0  0  0
M  END
>  <MODEL>
2

>  <REMARK>
 VINA RESULT:      -6.4      2.401      5.074
  Name = 
  4 active torsions:
  status: ('A' for Active; 'I' for Inactive)
    1  A    between atoms: C_1  and  C_22
    2  A    between atoms: C_8  and  C_23
    3  A    between atoms: C_9  and  C_22
    4  A    between atoms: C_13  and  C_22
                            x       y       z     vdW  Elec       q    Type
                         _______ _______ _______ _____ _____    ______ ____

>  <TORSDO>
F 4

$$$$
=
 OpenBabel11042416103D

 26 29  0  0  1  0  0  0  0  0999 V2000
  190.3520  174.2100  143.6650 O   0  0  0  0  0  0  0  0  0  0  0  0
  191.7120  171.2110  140.3530 N   0  0  0  0  0  1  0  0  0  0  0  0
  188.4600  175.7370  143.1970 C   0  0  0  0  0  0  0  0  0  0  0  0
  190.0840  176.2270  144.9670 C   0  0  0  0  0  0  0  0  0  0  0  0
  189.2930  172.6500  140.2340 S   0  0  0  0  0  0  0  0  0  0  0  0
  189.6180  175.3770  143.9510 C   0  0  0  0  0  0  0  0  0  0  0  0
  190.9550  172.3820  142.2610 N   0  0  0  0  0  2  0  0  0  0  0  0
  190.7420  171.9810  141.0520 C   0  0  2  0  0  3  0  0  0  0  0  0
  189.3590  173.9420  141.5030 C   0  0  1  0  0  3  0  0  0  0  0  0
  187.7440  174.5770  141.9860 S   0  0  0  0  0  0  0  0  0  0  0  0
  187.8330  176.9850  143.4430 C   0  0  0  0  0  0  0  0  0  0  0  0
  189.8950  173.2500  142.7260 C   0  0  2  0  0  3  0  0  0  0  0  0
  188.3160  177.8040  144.4700 C   0  0  0  0  0  3  0  0  0  0  0  0
  189.4220  177.4310  145.2260 C   0  0  0  0  0  3  0  0  0  0  0  0
  184.4940  178.2940  141.1400 C   0  0  0  0  0  3  0  0  0  0  0  0
  185.7440  178.2680  140.6050 N   0  0  0  0  0  0  0  0  0  0  0  0
  186.8200  177.8620  141.3310 C   0  0  0  0  0  3  0  0  0  0  0  0
  186.6680  177.4660  142.6680 C   0  0  0  0  0  0  0  0  0  0  0  0
  185.3820  177.4750  143.2220 C   0  0  0  0  0  3  0  0  0  0  0  0
  184.2890  177.8940  142.4610 C   0  0  0  0  0  3  0  0  0  0  0  0
  191.2900  175.8370  145.7730 C   0  0  2  0  0  3  0  0  0  0  0  0
  190.9860  175.8120  147.2380 C   0  0  0  0  0  0  0  0  0  0  0  0
  190.1630  174.9740  147.6890 O   0  0  0  0  0  0  0  0  0  0  0  0
  191.5850  176.7230  148.1010 O   0  0  0  0  0  1  0  0  0  0  0  0
  192.4870  176.7250  145.4560 C   0  0  0  0  0  2  0  0  0  0  0  0
  193.1700  176.2380  144.2700 N   0  0  0  0  0  1  0  0  0  0  0  0
  1  6  1  0  0  0  0
  3 11  2  0  0  0  0
  3  6  1  0  0  0  0
  4 14  1  0  0  0  0
  4 21  1  0  0  0  0
  5  8  1  0  0  0  0
  6  4  2  0  0  0  0
  8  2  1  6  0  0  0
  8  7  1  0  0  0  0
  9  5  1  6  0  0  0
  9 10  1  0  0  0  0
  9 12  1  0  0  0  0
 10  3  1  0  0  0  0
 11 13  1  0  0  0  0
 12  7  1  6  0  0  0
 12  1  1  0  0  0  0
 13 14  2  0  0  0  0
 15 20  1  0  0  0  0
 16 15  2  0  0  0  0
 16 17  1  0  0  0  0
 17 18  2  0  0  0  0
 18 19  1  0  0  0  0
 18 11  1  0  0  0  0
 20 19  2  0  0  0  0
 21 25  1  1  0  0  0
 21 22  1  0  0  0  0
 22 23  2  0  0  0  0
 22 24  1  0  0  0  0
 26 25  1  0  0  0  0
M  END
>  <MODEL>
3

>  <REMARK>
 VINA RESULT:      -6.3      1.865      2.240
  Name = 
  4 active torsions:
  status: ('A' for Active; 'I' for Inactive)
    1  A    between atoms: C_1  and  C_22
    2  A    between atoms: C_8  and  C_23
    3  A    between atoms: C_9  and  C_22
    4  A    between atoms: C_13  and  C_22
                            x       y       z     vdW  Elec       q    Type
                         _______ _______ _______ _____ _____    ______ ____

>  <TORSDO>
F 4

$$$$
=
 OpenBabel11042416103D

 26 29  0  0  1  0  0  0  0  0999 V2000
  186.1880  178.4110  143.7850 O   0  0  0  0  0  0  0  0  0  0  0  0
  183.4770  178.0860  139.9970 N   0  0  0  0  0  1  0  0  0  0  0  0
  188.4600  177.4310  143.7230 C   0  0  0  0  0  0  0  0  0  0  0  0
  187.3250  177.8770  145.8490 C   0  0  0  0  0  0  0  0  0  0  0  0
  186.2350  177.5160  139.9750 S   0  0  0  0  0  0  0  0  0  0  0  0
  187.3330  177.9250  144.4450 C   0  0  0  0  0  0  0  0  0  0  0  0
  184.8040  178.6680  141.8630 N   0  0  0  0  0  2  0  0  0  0  0  0
  184.7290  178.2100  140.6580 C   0  0  2  0  0  3  0  0  0  0  0  0
  186.7880  177.4060  141.6980 C   0  0  1  0  0  3  0  0  0  0  0  0
  188.5620  177.6300  141.9130 S   0  0  0  0  0  0  0  0  0  0  0  0
  189.5330  176.8350  144.4340 C   0  0  0  0  0  0  0  0  0  0  0  0
  186.1530  178.5870  142.3780 C   0  0  2  0  0  3  0  0  0  0  0  0
  189.4990  176.8130  145.8320 C   0  0  0  0  0  3  0  0  0  0  0  0
  188.4140  177.3300  146.5330 C   0  0  0  0  0  3  0  0  0  0  0  0
  192.8670  175.1090  142.4170 C   0  0  0  0  0  3  0  0  0  0  0  0
  191.7310  174.3920  142.6290 N   0  0  0  0  0  0  0  0  0  0  0  0
  190.6630  174.9270  143.2800 C   0  0  0  0  0  3  0  0  0  0  0  0
  190.7110  176.2410  143.7630 C   0  0  0  0  0  0  0  0  0  0  0  0
  191.8710  176.9930  143.5350 C   0  0  0  0  0  3  0  0  0  0  0  0
  192.9570  176.4270  142.8650 C   0  0  0  0  0  3  0  0  0  0  0  0
  186.1460  178.4160  146.6090 C   0  0  2  0  0  3  0  0  0  0  0  0
  186.3830  178.3790  148.0860 C   0  0  0  0  0  0  0  0  0  0  0  0
  185.9430  177.4150  148.7640 O   0  0  0  0  0  1  0  0  0  0  0  0
  187.0630  179.4140  148.7190 O   0  0  0  0  0  0  0  0  0  0  0  0
  184.8560  177.7040  146.2210 C   0  0  0  0  0  2  0  0  0  0  0  0
  183.7710  178.6630  146.1090 N   0  0  0  0  0  1  0  0  0  0  0  0
  1  6  1  0  0  0  0
  3 11  2  0  0  0  0
  3  6  1  0  0  0  0
  4 14  1  0  0  0  0
  4 21  1  0  0  0  0
  5  8  1  0  0  0  0
  6  4  2  0  0  0  0
  8  2  1  1  0  0  0
  8  7  1  0  0  0  0
  9  5  1  6  0  0  0
  9 10  1  0  0  0  0
  9 12  1  0  0  0  0
 10  3  1  0  0  0  0
 11 13  1  0  0  0  0
 12  7  1  6  0  0  0
 12  1  1  0  0  0  0
 13 14  2  0  0  0  0
 15 16  2  0  0  0  0
 15 20  1  0  0  0  0
 16 17  1  0  0  0  0
 17 18  2  0  0  0  0
 18 11  1  0  0  0  0
 19 18  1  0  0  0  0
 20 19  2  0  0  0  0
 21 25  1  1  0  0  0
 21 22  1  0  0  0  0
 22 24  2  0  0  0  0
 22 23  1  0  0  0  0
 26 25  1  0  0  0  0
M  END
>  <MODEL>
4

>  <REMARK>
 VINA RESULT:      -6.3      3.379      6.480
  Name = 
  4 active torsions:
  status: ('A' for Active; 'I' for Inactive)
    1  A    between atoms: C_1  and  C_22
    2  A    between atoms: C_8  and  C_23
    3  A    between atoms: C_9  and  C_22
    4  A    between atoms: C_13  and  C_22
                            x       y       z     vdW  Elec       q    Type
                         _______ _______ _______ _____ _____    ______ ____

>  <TORSDO>
F 4

$$$$
=
 OpenBabel11042416103D

 26 29  0  0  1  0  0  0  0  0999 V2000
  188.1140  175.7600  142.8420 O   0  0  0  0  0  0  0  0  0  0  0  0
  188.0440  172.6640  139.3460 N   0  0  0  0  0  1  0  0  0  0  0  0
  190.1880  176.0290  144.1640 C   0  0  0  0  0  0  0  0  0  0  0  0
  188.0140  176.7320  145.0510 C   0  0  0  0  0  0  0  0  0  0  0  0
  190.4120  173.4970  140.6230 S   0  0  0  0  0  0  0  0  0  0  0  0
  188.7790  176.1890  144.0060 C   0  0  0  0  0  0  0  0  0  0  0  0
  187.9890  174.5140  140.8140 N   0  0  0  0  0  2  0  0  0  0  0  0
  188.6770  173.6200  140.1860 C   0  0  2  0  0  3  0  0  0  0  0  0
  189.9400  174.3860  142.1300 C   0  0  1  0  0  3  0  0  0  0  0  0
  191.2230  175.4790  142.7680 S   0  0  0  0  0  0  0  0  0  0  0  0
  190.7890  176.3600  145.4060 C   0  0  0  0  0  0  0  0  0  0  0  0
  188.8210  175.2950  141.7030 C   0  0  2  0  0  3  0  0  0  0  0  0
  190.0000  176.9090  146.4230 C   0  0  0  0  0  3  0  0  0  0  0  0
  188.6330  177.0980  146.2500 C   0  0  0  0  0  3  0  0  0  0  0  0
  194.9410  175.7240  146.1280 C   0  0  0  0  0  3  0  0  0  0  0  0
  194.0270  174.7560  146.4060 N   0  0  0  0  0  0  0  0  0  0  0  0
  192.6980  174.9490  146.1910 C   0  0  0  0  0  3  0  0  0  0  0  0
  192.2300  176.1680  145.6800 C   0  0  0  0  0  0  0  0  0  0  0  0
  193.1660  177.1650  145.3740 C   0  0  0  0  0  3  0  0  0  0  0  0
  194.5260  176.9480  145.6020 C   0  0  0  0  0  3  0  0  0  0  0  0
  186.5340  176.9190  144.8750 C   0  0  2  0  0  3  0  0  0  0  0  0
  186.2230  178.2090  144.1820 C   0  0  0  0  0  0  0  0  0  0  0  0
  185.8940  178.2010  142.9690 O   0  0  0  0  0  0  0  0  0  0  0  0
  186.3200  179.4180  144.8630 O   0  0  0  0  0  1  0  0  0  0  0  0
  185.7910  176.7900  146.1990 C   0  0  0  0  0  2  0  0  0  0  0  0
  184.5090  177.4680  146.1200 N   0  0  0  0  0  1  0  0  0  0  0  0
  1  6  1  0  0  0  0
  3 11  1  0  0  0  0
  4 14  2  0  0  0  0
  6  3  2  0  0  0  0
  6  4  1  0  0  0  0
  8  2  1  1  0  0  0
  8  5  1  0  0  0  0
  8  7  1  0  0  0  0
  9  5  1  6  0  0  0
  9 10  1  0  0  0  0
 10  3  1  0  0  0  0
 11 18  1  0  0  0  0
 11 13  2  0  0  0  0
 12  7  1  6  0  0  0
 12  9  1  0  0  0  0
 12  1  1  0  0  0  0
 14 13  1  0  0  0  0
 15 16  1  0  0  0  0
 17 16  2  0  0  0  0
 18 17  1  0  0  0  0
 19 20  1  0  0  0  0
 19 18  2  0  0  0  0
 20 15  2  0  0  0  0
 21  4  1  0  0  0  0
 21 25  1  1  0  0  0
 22 24  1  0  0  0  0
 22 21  1  0  0  0  0
 23 22  2  0  0  0  0
 26 25  1  0  0  0  0
M  END
>  <MODEL>
5

>  <REMARK>
 VINA RESULT:      -6.2      2.423      5.993
  Name = 
  4 active torsions:
  status: ('A' for Active; 'I' for Inactive)
    1  A    between atoms: C_1  and  C_22
    2  A    between atoms: C_8  and  C_23
    3  A    between atoms: C_9  and  C_22
    4  A    between atoms: C_13  and  C_22
                            x       y       z     vdW  Elec       q    Type
                         _______ _______ _______ _____ _____    ______ ____

>  <TORSDO>
F 4

$$$$
=
 OpenBabel11042416103D

 26 29  0  0  1  0  0  0  0  0999 V2000
  186.7590  177.7140  144.6600 O   0  0  0  0  0  0  0  0  0  0  0  0
  184.8760  178.4580  140.4520 N   0  0  0  0  0  1  0  0  0  0  0  0
  188.5660  176.0370  144.8860 C   0  0  0  0  0  0  0  0  0  0  0  0
  187.2420  176.7510  146.8210 C   0  0  0  0  0  0  0  0  0  0  0  0
  187.2570  177.0050  140.8420 S   0  0  0  0  0  0  0  0  0  0  0  0
  187.5380  176.8490  145.4520 C   0  0  0  0  0  0  0  0  0  0  0  0
  185.9300  178.4920  142.5660 N   0  0  0  0  0  2  0  0  0  0  0  0
  185.9490  178.1320  141.3260 C   0  0  2  0  0  3  0  0  0  0  0  0
  187.4000  176.6490  142.6140 C   0  0  1  0  0  3  0  0  0  0  0  0
  189.0750  176.2620  143.1500 S   0  0  0  0  0  0  0  0  0  0  0  0
  189.2330  175.0910  145.7050 C   0  0  0  0  0  0  0  0  0  0  0  0
  187.0560  177.9470  143.2920 C   0  0  2  0  0  3  0  0  0  0  0  0
  188.9220  175.0260  147.0680 C   0  0  0  0  0  3  0  0  0  0  0  0
  187.9460  175.8460  147.6230 C   0  0  0  0  0  3  0  0  0  0  0  0
  192.2550  172.4270  144.3130 C   0  0  0  0  0  3  0  0  0  0  0  0
  192.5750  173.6610  144.7890 N   0  0  0  0  0  0  0  0  0  0  0  0
  191.6210  174.5250  145.2270 C   0  0  0  0  0  3  0  0  0  0  0  0
  190.2660  174.1660  145.1890 C   0  0  0  0  0  0  0  0  0  0  0  0
  189.9280  172.8910  144.7170 C   0  0  0  0  0  3  0  0  0  0  0  0
  190.9210  172.0180  144.2710 C   0  0  0  0  0  3  0  0  0  0  0  0
  186.1740  177.6210  147.4200 C   0  0  2  0  0  3  0  0  0  0  0  0
  184.8610  177.4320  146.7270 C   0  0  0  0  0  0  0  0  0  0  0  0
  184.4440  176.2700  146.4880 O   0  0  0  0  0  1  0  0  0  0  0  0
  184.1110  178.5310  146.3210 O   0  0  0  0  0  0  0  0  0  0  0  0
  186.5960  179.0850  147.4520 C   0  0  0  0  0  2  0  0  0  0  0  0
  187.3030  179.3730  148.6880 N   0  0  0  0  0  1  0  0  0  0  0  0
  1  6  1  0  0  0  0
  3  6  2  0  0  0  0
  3 11  1  0  0  0  0
  4 21  1  0  0  0  0
  4 14  2  0  0  0  0
  5  8  1  0  0  0  0
  6  4  1  0  0  0  0
  8  2  1  1  0  0  0
  8  7  1  0  0  0  0
  9  5  1  6  0  0  0
  9 10  1  0  0  0  0
  9 12  1  0  0  0  0
 10  3  1  0  0  0  0
 11 13  2  0  0  0  0
 12  7  1  6  0  0  0
 12  1  1  0  0  0  0
 13 14  1  0  0  0  0
 15 16  1  0  0  0  0
 16 17  2  0  0  0  0
 18 17  1  0  0  0  0
 18 11  1  0  0  0  0
 19 18  2  0  0  0  0
 20 15  2  0  0  0  0
 20 19  1  0  0  0  0
 21 25  1  6  0  0  0
 22 21  1  0  0  0  0
 23 22  1  0  0  0  0
 24 22  2  0  0  0  0
 25 26  1  0  0  0  0
M  END
>  <MODEL>
6

>  <REMARK>
 VINA RESULT:      -6.1      3.548      6.508
  Name = 
  4 active torsions:
  status: ('A' for Active; 'I' for Inactive)
    1  A    between atoms: C_1  and  C_22
    2  A    between atoms: C_8  and  C_23
    3  A    between atoms: C_9  and  C_22
    4  A    between atoms: C_13  and  C_22
                            x       y       z     vdW  Elec       q    Type
                         _______ _______ _______ _____ _____    ______ ____

>  <TORSDO>
F 4

$$$$
=
 OpenBabel11042416103D

 26 29  0  0  1  0  0  0  0  0999 V2000
  191.3180  174.2370  141.8290 O   0  0  0  0  0  0  0  0  0  0  0  0
  190.0090  171.3560  138.3950 N   0  0  0  0  0  1  0  0  0  0  0  0
  189.7100  175.9260  142.6560 C   0  0  0  0  0  0  0  0  0  0  0  0
  192.1210  176.1840  143.0120 C   0  0  0  0  0  0  0  0  0  0  0  0
  188.2020  172.9760  139.8240 S   0  0  0  0  0  0  0  0  0  0  0  0
  191.0420  175.4360  142.5140 C   0  0  0  0  0  0  0  0  0  0  0  0
  190.7300  172.4590  140.3560 N   0  0  0  0  0  2  0  0  0  0  0  0
  189.7700  172.1510  139.5490 C   0  0  2  0  0  3  0  0  0  0  0  0
  189.1720  174.1780  140.7720 C   0  0  1  0  0  3  0  0  0  0  0  0
  188.2850  174.9000  142.1630 S   0  0  0  0  0  0  0  0  0  0  0  0
  189.4990  177.2010  143.2430 C   0  0  0  0  0  0  0  0  0  0  0  0
  190.2840  173.3730  141.3840 C   0  0  2  0  0  3  0  0  0  0  0  0
  190.5940  177.9160  143.7390 C   0  0  0  0  0  3  0  0  0  0  0  0
  191.8870  177.4150  143.6310 C   0  0  0  0  0  3  0  0  0  0  0  0
  185.6000  178.8960  143.5520 C   0  0  0  0  0  3  0  0  0  0  0  0
  186.2400  178.8290  142.3530 N   0  0  0  0  0  0  0  0  0  0  0  0
  187.4880  178.2990  142.2420 C   0  0  0  0  0  3  0  0  0  0  0  0
  188.1580  177.8140  143.3730 C   0  0  0  0  0  0  0  0  0  0  0  0
  187.5010  177.8640  144.6090 C   0  0  0  0  0  3  0  0  0  0  0  0
  186.2200  178.4110  144.7040 C   0  0  0  0  0  3  0  0  0  0  0  0
  193.5210  175.6560  142.8800 C   0  0  2  0  0  3  0  0  0  0  0  0
  194.2440  175.6860  144.1900 C   0  0  0  0  0  0  0  0  0  0  0  0
  193.9310  174.8690  145.0930 O   0  0  0  0  0  1  0  0  0  0  0  0
  195.2410  176.6270  144.4270 O   0  0  0  0  0  0  0  0  0  0  0  0
  194.2940  176.3850  141.7870 C   0  0  0  0  0  2  0  0  0  0  0  0
  194.6060  175.4690  140.7030 N   0  0  0  0  0  1  0  0  0  0  0  0
  1  6  1  0  0  0  0
  3 11  1  0  0  0  0
  4 14  2  0  0  0  0
  6  3  2  0  0  0  0
  6  4  1  0  0  0  0
  8  2  1  6  0  0  0
  8  5  1  0  0  0  0
  8  7  1  0  0  0  0
  9  5  1  1  0  0  0
  9 12  1  0  0  0  0
  9 10  1  0  0  0  0
 10  3  1  0  0  0  0
 11 18  1  0  0  0  0
 11 13  2  0  0  0  0
 12  7  1  6  0  0  0
 12  1  1  0  0  0  0
 14 13  1  0  0  0  0
 15 20  1  0  0  0  0
 16 15  2  0  0  0  0
 17 16  1  0  0  0  0
 17 18  2  0  0  0  0
 18 19  1  0  0  0  0
 19 20  2  0  0  0  0
 21 25  1  6  0  0  0
 21  4  1  0  0  0  0
 21 22  1  0  0  0  0
 22 24  2  0  0  0  0
 22 23  1  0  0  0  0
 26 25  1  0  0  0  0
M  END
>  <MODEL>
7

>  <REMARK>
 VINA RESULT:      -6.0      1.926      2.179
  Name = 
  4 active torsions:
  status: ('A' for Active; 'I' for Inactive)
    1  A    between atoms: C_1  and  C_22
    2  A    between atoms: C_8  and  C_23
    3  A    between atoms: C_9  and  C_22
    4  A    between atoms: C_13  and  C_22
                            x       y       z     vdW  Elec       q    Type
                         _______ _______ _______ _____ _____    ______ ____

>  <TORSDO>
F 4

$$$$
=
 OpenBabel11042416103D

 26 29  0  0  1  0  0  0  0  0999 V2000
  189.6050  176.3990  145.5360 O   0  0  0  0  0  0  0  0  0  0  0  0
  194.0360  177.1400  146.8120 N   0  0  0  0  0  1  0  0  0  0  0  0
  189.1510  175.1500  143.4480 C   0  0  0  0  0  0  0  0  0  0  0  0
  187.4630  176.6210  144.4430 C   0  0  0  0  0  0  0  0  0  0  0  0
  193.2950  175.3250  144.7900 S   0  0  0  0  0  0  0  0  0  0  0  0
  188.7390  176.0380  144.4860 C   0  0  0  0  0  0  0  0  0  0  0  0
  191.7610  176.5640  146.5370 N   0  0  0  0  0  2  0  0  0  0  0  0
  192.9960  176.3830  146.2070 C   0  0  2  0  0  3  0  0  0  0  0  0
  191.5580  175.6390  144.3790 C   0  0  1  0  0  3  0  0  0  0  0  0
  190.7370  174.2570  143.5650 S   0  0  0  0  0  0  0  0  0  0  0  0
  188.2860  174.9200  142.3480 C   0  0  0  0  0  0  0  0  0  0  0  0
  190.8710  175.7820  145.7090 C   0  0  2  0  0  3  0  0  0  0  0  0
  187.0160  175.5080  142.3410 C   0  0  0  0  0  3  0  0  0  0  0  0
  186.6050  176.3430  143.3740 C   0  0  0  0  0  3  0  0  0  0  0  0
  189.2750  172.3900  139.0640 C   0  0  0  0  0  3  0  0  0  0  0  0
  189.3440  171.9340  140.3430 N   0  0  0  0  0  0  0  0  0  0  0  0
  189.0410  172.7330  141.4010 C   0  0  0  0  0  3  0  0  0  0  0  0
  188.6560  174.0650  141.1980 C   0  0  0  0  0  0  0  0  0  0  0  0
  188.5660  174.5390  139.8830 C   0  0  0  0  0  3  0  0  0  0  0  0
  188.8810  173.7050  138.8100 C   0  0  0  0  0  3  0  0  0  0  0  0
  187.0220  177.5400  145.5470 C   0  0  2  0  0  3  0  0  0  0  0  0
  186.2790  176.7980  146.6140 C   0  0  0  0  0  0  0  0  0  0  0  0
  186.8630  176.4980  147.6860 O   0  0  0  0  0  1  0  0  0  0  0  0
  184.9560  176.4160  146.4190 O   0  0  0  0  0  0  0  0  0  0  0  0
  186.2210  178.7190  145.0100 C   0  0  0  0  0  2  0  0  0  0  0  0
  185.5620  179.4150  146.1020 N   0  0  0  0  0  1  0  0  0  0  0  0
  3 10  1  0  0  0  0
  3  6  1  0  0  0  0
  4  6  2  0  0  0  0
  4 21  1  0  0  0  0
  5  8  1  0  0  0  0
  6  1  1  0  0  0  0
  8  7  1  0  0  0  0
  8  2  1  6  0  0  0
  9 10  1  1  0  0  0
  9  5  1  0  0  0  0
  9 12  1  0  0  0  0
 11  3  2  0  0  0  0
 12  1  1  6  0  0  0
 12  7  1  0  0  0  0
 13 11  1  0  0  0  0
 13 14  2  0  0  0  0
 14  4  1  0  0  0  0
 15 16  1  0  0  0  0
 16 17  2  0  0  0  0
 18 17  1  0  0  0  0
 18 11  1  0  0  0  0
 19 18  2  0  0  0  0
 20 15  2  0  0  0  0
 20 19  1  0  0  0  0
 21 25  1  6  0  0  0
 21 22  1  0  0  0  0
 22 23  1  0  0  0  0
 24 22  2  0  0  0  0
 25 26  1  0  0  0  0
M  END
>  <MODEL>
8

>  <REMARK>
 VINA RESULT:      -5.8      2.821      6.377
  Name = 
  4 active torsions:
  status: ('A' for Active; 'I' for Inactive)
    1  A    between atoms: C_1  and  C_22
    2  A    between atoms: C_8  and  C_23
    3  A    between atoms: C_9  and  C_22
    4  A    between atoms: C_13  and  C_22
                            x       y       z     vdW  Elec       q    Type
                         _______ _______ _______ _____ _____    ______ ____

>  <TORSDO>
F 4

$$$$
=
 OpenBabel11042416103D

 26 29  0  0  1  0  0  0  0  0999 V2000
  188.3920  177.3090  146.1690 O   0  0  0  0  0  0  0  0  0  0  0  0
  191.9400  177.9050  149.1470 N   0  0  0  0  0  1  0  0  0  0  0  0
  188.6620  175.7280  144.2830 C   0  0  0  0  0  0  0  0  0  0  0  0
  186.9670  177.4980  144.2280 C   0  0  0  0  0  0  0  0  0  0  0  0
  191.8360  175.8080  147.2700 S   0  0  0  0  0  0  0  0  0  0  0  0
  188.0000  176.8290  144.9050 C   0  0  0  0  0  0  0  0  0  0  0  0
  189.9280  177.4800  147.9820 N   0  0  0  0  0  2  0  0  0  0  0  0
  191.1430  177.1370  148.2550 C   0  0  2  0  0  3  0  0  0  0  0  0
  190.5030  176.1820  146.1000 C   0  0  1  0  0  3  0  0  0  0  0  0
  189.8910  174.7450  145.2030 S   0  0  0  0  0  0  0  0  0  0  0  0
  188.3110  175.3670  142.9570 C   0  0  0  0  0  0  0  0  0  0  0  0
  189.3550  176.6310  146.9610 C   0  0  2  0  0  3  0  0  0  0  0  0
  187.2710  176.0470  142.3150 C   0  0  0  0  0  3  0  0  0  0  0  0
  186.6030  177.0940  142.9400 C   0  0  0  0  0  3  0  0  0  0  0  0
  190.3500  172.2610  140.8680 C   0  0  0  0  0  3  0  0  0  0  0  0
  190.7790  173.5500  140.7970 N   0  0  0  0  0  0  0  0  0  0  0  0
  190.1330  174.5530  141.4500 C   0  0  0  0  0  3  0  0  0  0  0  0
  188.9880  174.2820  142.2130 C   0  0  0  0  0  0  0  0  0  0  0  0
  188.5480  172.9550  142.3060 C   0  0  0  0  0  3  0  0  0  0  0  0
  189.2250  171.9390  141.6290 C   0  0  0  0  0  3  0  0  0  0  0  0
  186.2560  178.6430  144.8930 C   0  0  2  0  0  3  0  0  0  0  0  0
  185.4150  178.1750  146.0390 C   0  0  0  0  0  0  0  0  0  0  0  0
  185.2310  178.9320  147.0260 O   0  0  0  0  0  1  0  0  0  0  0  0
  184.8580  176.9010  146.0340 O   0  0  0  0  0  0  0  0  0  0  0  0
  185.4490  179.4590  143.8900 C   0  0  0  0  0  2  0  0  0  0  0  0
  184.0460  179.0860  143.9580 N   0  0  0  0  0  1  0  0  0  0  0  0
  3  6  1  0  0  0  0
  3 10  1  0  0  0  0
  4 21  1  0  0  0  0
  4  6  2  0  0  0  0
  5  8  1  0  0  0  0
  6  1  1  0  0  0  0
  7  8  1  0  0  0  0
  8  2  1  6  0  0  0
  9 10  1  1  0  0  0
  9 12  1  0  0  0  0
  9  5  1  0  0  0  0
 11  3  2  0  0  0  0
 12  1  1  6  0  0  0
 12  7  1  0  0  0  0
 13 14  2  0  0  0  0
 13 11  1  0  0  0  0
 14  4  1  0  0  0  0
 15 20  1  0  0  0  0
 16 15  2  0  0  0  0
 16 17  1  0  0  0  0
 17 18  2  0  0  0  0
 18 19  1  0  0  0  0
 18 11  1  0  0  0  0
 20 19  2  0  0  0  0
 21 25  1  6  0  0  0
 21 22  1  0  0  0  0
 22 23  1  0  0  0  0
 24 22  2  0  0  0  0
 25 26  1  0  0  0  0
M  END
>  <MODEL>
9

>  <REMARK>
 VINA RESULT:      -5.8      3.428      7.142
  Name = 
  4 active torsions:
  status: ('A' for Active; 'I' for Inactive)
    1  A    between atoms: C_1  and  C_22
    2  A    between atoms: C_8  and  C_23
    3  A    between atoms: C_9  and  C_22
    4  A    between atoms: C_13  and  C_22
                            x       y       z     vdW  Elec       q    Type
                         _______ _______ _______ _____ _____    ______ ____

>  <TORSDO>
F 4

$$$$
