=
 OpenBabel11042418063D

 65 73  0  0  1  0  0  0  0  0999 V2000
  185.6760  176.8030  145.6690 C   0  0  2  0  0  3  0  0  0  0  0  0
  185.9900  176.9010  147.1650 C   0  0  2  0  0  3  0  0  0  0  0  0
  185.8020  178.1130  144.8850 C   0  0  2  0  0  3  0  0  0  0  0  0
  184.0010  178.4040  146.4540 C   0  0  0  0  0  2  0  0  0  0  0  0
  184.5400  176.9910  146.6700 C   0  0  1  0  0  3  0  0  0  0  0  0
  184.4900  178.8460  145.0940 C   0  0  0  0  0  2  0  0  0  0  0  0
  187.3240  177.2110  143.0800 C   0  0  0  0  0  3  0  0  0  0  0  0
  187.5630  177.0770  141.7270 C   0  0  0  0  0  0  0  0  0  0  0  0
  186.1160  177.8750  143.4270 C   0  0  0  0  0  0  0  0  0  0  0  0
  188.4520  174.9800  140.8160 C   0  0  1  0  0  3  0  0  0  0  0  0
  185.5190  178.2510  141.0220 C   0  0  0  0  0  3  0  0  0  0  0  0
  188.4730  176.5100  140.6910 C   0  0  1  0  0  3  0  0  0  0  0  0
  187.3060  174.8000  138.6560 C   0  0  0  0  0  3  0  0  0  0  0  0
  186.8940  176.0740  138.7410 C   0  0  0  0  0  0  0  0  0  0  0  0
  187.5900  177.0740  139.6520 C   0  0  1  0  0  3  0  0  0  0  0  0
  188.4880  174.3270  139.4440 C   0  0  0  0  0  2  0  0  0  0  0  0
  185.2500  178.3990  142.4050 C   0  0  0  0  0  3  0  0  0  0  0  0
  186.6860  177.5750  140.7300 C   0  0  0  0  0  0  0  0  0  0  0  0
  188.8410  172.3260  141.7430 O   0  0  0  0  0  0  0  0  0  0  0  0
  190.8440  172.8090  142.8400 N   0  0  0  0  0  2  0  0  0  0  0  0
  189.5810  174.5350  141.6160 N   0  0  0  0  0  2  0  0  0  0  0  0
  189.7150  173.1820  142.0490 C   0  0  0  0  0  0  0  0  0  0  0  0
  191.0220  171.4610  143.3570 C   0  0  1  0  0  3  0  0  0  0  0  0
  194.1150  169.6140  142.4630 O   0  0  0  0  0  1  0  0  0  0  0  0
  193.0650  170.3240  143.0290 C   0  0  0  0  0  0  0  0  0  0  0  0
  191.7850  170.6170  142.3260 C   0  0  1  0  0  3  0  0  0  0  0  0
  191.8710  171.4920  144.4970 O   0  0  0  0  0  0  0  0  0  0  0  0
  191.0640  169.3770  142.0940 N   0  0  0  0  0  1  0  0  0  0  0  0
  193.0580  170.8310  144.2490 C   0  0  0  0  0  0  0  0  0  0  0  0
  194.0800  170.7480  145.2020 O   0  0  0  0  0  0  0  0  0  0  0  0
  194.5010  169.5320  145.8030 C   0  0  0  0  0  1  0  0  0  0  0  0
  185.8580  176.0160  136.5570 N   0  0  0  0  0  1  0  0  0  0  0  0
  185.7350  176.5290  137.9100 C   0  0  0  0  0  2  0  0  0  0  0  0
  186.5810  178.2350  147.6440 C   0  0  0  0  0  2  0  0  0  0  0  0
  188.0950  178.2450  147.4890 C   0  0  0  0  0  2  0  0  0  0  0  0
  188.6110  176.9300  146.9260 C   0  0  0  0  0  2  0  0  0  0  0  0
  190.1310  176.9110  146.8460 C   0  0  0  0  0  2  0  0  0  0  0  0
  190.6170  176.5210  145.4560 C   0  0  0  0  0  2  0  0  0  0  0  0
  191.2100  175.1140  145.4800 C   0  0  0  0  0  2  0  0  0  0  0  0
  192.6860  175.0900  145.0920 C   0  0  1  0  0  3  0  0  0  0  0  0
  192.8900  175.6940  143.7790 N   0  0  0  0  0  2  0  0  0  0  0  0
  194.0750  173.8410  142.8880 N   0  0  0  0  0  0  0  0  0  0  0  0
  193.8360  175.7860  141.1440 S   0  0  0  0  0  0  0  0  0  0  0  0
  193.5840  175.0200  142.7280 C   0  0  0  0  0  0  0  0  0  0  0  0
  194.9820  174.4320  140.7250 C   0  0  1  0  0  3  0  0  0  0  0  0
  194.7630  173.2990  141.7310 C   0  0  1  0  0  3  0  0  0  0  0  0
  196.4630  172.6310  143.4090 C   0  0  0  0  0  2  0  0  0  0  0  0
  196.0550  172.6550  142.1400 C   0  0  0  0  0  3  0  0  0  0  0  0
  194.6980  173.9620  139.3780 N   0  0  0  0  0  2  0  0  0  0  0  0
  192.3920  173.5580  138.7550 C   0  0  0  0  0  2  0  0  0  0  0  0
  193.9730  174.2280  136.6040 O   0  0  0  0  0  0  0  0  0  0  0  0
  193.4720  174.6000  138.9220 C   0  0  2  0  0  3  0  0  0  0  0  0
  191.7950  173.7420  137.4370 N   0  0  0  0  0  0  0  0  0  0  0  0
  192.6330  174.6700  136.6640 C   0  0  1  0  0  3  0  0  0  0  0  0
  193.6760  175.2250  137.5530 C   0  0  2  0  0  3  0  0  0  0  0  0
  191.8520  172.3670  135.1520 O   0  0  0  0  0  0  0  0  0  0  0  0
  192.8330  171.3230  137.1380 O   0  0  0  0  0  0  0  0  0  0  0  0
  191.7160  172.1960  136.6400 S   0  0  0  0  0  0  0  0  0  0  0  0
  189.1080  172.2340  136.6130 O   0  0  0  0  0  1  0  0  0  0  0  0
  190.1600  171.4030  136.9960 C   0  0  0  0  0  2  0  0  0  0  0  0
  193.5330  175.7910  146.1520 C   0  0  0  0  0  2  0  0  0  0  0  0
  194.9700  175.8040  145.7580 C   0  0  0  0  0  0  0  0  0  0  0  0
  195.7180  174.8470  146.0990 O   0  0  0  0  0  0  0  0  0  0  0  0
  196.3590  176.6840  143.9320 C   0  0  0  0  0  1  0  0  0  0  0  0
  195.4670  176.8760  145.0190 O   0  0  0  0  0  0  0  0  0  0  0  0
  1  5  1  0  0  0  0
  1  2  1  0  0  0  0
  2 34  1  0  0  0  0
  3  6  1  0  0  0  0
  3  1  1  0  0  0  0
  4  5  1  0  0  0  0
  5  2  1  0  0  0  0
  6  4  1  0  0  0  0
  7  9  1  0  0  0  0
  8  7  2  0  0  0  0
  9  3  1  0  0  0  0
 10 21  1  0  0  0  0
 11 17  1  0  0  0  0
 12 10  1  0  0  0  0
 12  8  1  0  0  0  0
 13 14  2  0  0  0  0
 13 16  1  0  0  0  0
 14 15  1  0  0  0  0
 15 12  1  0  0  0  0
 15 18  1  0  0  0  0
 16 10  1  0  0  0  0
 17  9  2  0  0  0  0
 18 11  2  0  0  0  0
 18  8  1  0  0  0  0
 19 22  2  0  0  0  0
 20 23  1  0  0  0  0
 21 22  1  0  0  0  0
 22 20  1  0  0  0  0
 23 27  1  0  0  0  0
 24 25  1  0  0  0  0
 25 29  2  0  0  0  0
 26 25  1  0  0  0  0
 26 23  1  0  0  0  0
 28 26  1  0  0  0  0
 29 27  1  0  0  0  0
 29 30  1  0  0  0  0
 30 31  1  0  0  0  0
 32 33  1  0  0  0  0
 33 14  1  0  0  0  0
 35 34  1  0  0  0  0
 36 35  1  0  0  0  0
 37 36  1  0  0  0  0
 38 39  1  0  0  0  0
 38 37  1  0  0  0  0
 40 39  1  0  0  0  0
 40 61  1  0  0  0  0
 41 40  1  0  0  0  0
 43 44  1  0  0  0  0
 44 42  2  0  0  0  0
 44 41  1  0  0  0  0
 45 43  1  0  0  0  0
 45 46  1  0  0  0  0
 46 48  1  0  0  0  0
 46 42  1  0  0  0  0
 48 47  2  0  0  0  0
 49 45  1  0  0  0  0
 50 52  1  0  0  0  0
 51 54  1  0  0  0  0
 51 55  1  0  0  0  0
 52 49  1  0  0  0  0
 53 50  1  0  0  0  0
 54 53  1  0  0  0  0
 54 55  1  0  0  0  0
 55 52  1  0  0  0  0
 56 58  2  0  0  0  0
 58 60  1  0  0  0  0
 58 57  2  0  0  0  0
 58 53  1  0  0  0  0
 59 60  1  0  0  0  0
 62 63  2  0  0  0  0
 62 61  1  0  0  0  0
 64 65  1  0  0  0  0
 65 62  1  0  0  0  0
M  END
>  <MODEL>
1

>  <REMARK>
 VINA RESULT:      -5.5      0.000      0.000
  Name = 
  21 active torsions:
  status: ('A' for Active; 'I' for Inactive)
    1  A    between atoms: N_8  and  C_44
    2  A    between atoms: C_9  and  N_35
    3  A    between atoms: C_11  and  C_34
    4  A    between atoms: S_12  and  N_24
    5  A    between atoms: S_12  and  C_57
    6  A    between atoms: C_14  and  C_16
    7  A    between atoms: C_18  and  N_27
    8  A    between atoms: C_20  and  C_42
    9  A    between atoms: C_20  and  C_44
   10  A    between atoms: O_21  and  C_42
   11  A    between atoms: C_23  and  C_45
   12  A    between atoms: C_23  and  C_48
   13  A    between atoms: C_26  and  C_44
   14  A    between atoms: C_26  and  C_48
   15  A    between atoms: N_27  and  C_52
   16  A    between atoms: C_29  and  N_58
   17  A    between atoms: C_34  and  C_47
   18  A    between atoms: C_39  and  C_62
   19  A    between atoms: O_41  and  C_60
   20  A    between atoms: C_45  and  C_47
   21  A    between atoms: C_54  and  C_59
                            x       y       z     vdW  Elec       q    Type
                         _______ _______ _______ _____ _____    ______ ____

>  <TORSDO>
F 21

$$$$
=
 OpenBabel11042418063D

 65 73  0  0  1  0  0  0  0  0999 V2000
  195.5810  174.2820  142.3170 C   0  0  2  0  0  3  0  0  0  0  0  0
  195.9660  174.8070  143.7030 C   0  0  2  0  0  3  0  0  0  0  0  0
  196.7380  174.1480  141.3210 C   0  0  2  0  0  3  0  0  0  0  0  0
  196.4950  176.4930  141.8060 C   0  0  0  0  0  2  0  0  0  0  0  0
  195.4330  175.7670  142.6320 C   0  0  1  0  0  3  0  0  0  0  0  0
  196.9300  175.5310  140.7260 C   0  0  0  0  0  2  0  0  0  0  0  0
  195.2860  173.1750  139.4960 C   0  0  0  0  0  3  0  0  0  0  0  0
  195.0880  172.1440  138.5990 C   0  0  0  0  0  0  0  0  0  0  0  0
  196.4700  173.0900  140.2770 C   0  0  0  0  0  0  0  0  0  0  0  0
  194.2670  172.5970  136.3330 C   0  0  1  0  0  3  0  0  0  0  0  0
  197.1270  170.9160  139.2200 C   0  0  0  0  0  3  0  0  0  0  0  0
  194.2190  171.6130  137.5110 C   0  0  1  0  0  3  0  0  0  0  0  0
  195.4770  170.9490  134.9800 C   0  0  0  0  0  3  0  0  0  0  0  0
  195.8610  170.2890  136.0830 C   0  0  0  0  0  0  0  0  0  0  0  0
  195.1190  170.4500  137.4020 C   0  0  1  0  0  3  0  0  0  0  0  0
  194.2830  171.8520  135.0080 C   0  0  0  0  0  2  0  0  0  0  0  0
  197.3530  171.9630  140.1450 C   0  0  0  0  0  3  0  0  0  0  0  0
  195.9820  171.0520  138.4610 C   0  0  0  0  0  0  0  0  0  0  0  0
  191.6190  171.8170  136.9900 O   0  0  0  0  0  0  0  0  0  0  0  0
  190.7350  173.9650  136.7640 N   0  0  0  0  0  2  0  0  0  0  0  0
  193.1250  173.4940  136.3920 N   0  0  0  0  0  2  0  0  0  0  0  0
  191.8180  173.0350  136.7300 C   0  0  0  0  0  0  0  0  0  0  0  0
  189.3680  173.5600  137.0520 C   0  0  1  0  0  3  0  0  0  0  0  0
  187.6830  175.0040  140.0280 O   0  0  0  0  0  1  0  0  0  0  0  0
  188.1580  174.6170  138.7820 C   0  0  0  0  0  0  0  0  0  0  0  0
  189.1560  173.5320  138.5730 C   0  0  1  0  0  3  0  0  0  0  0  0
  188.4640  174.5520  136.5810 O   0  0  0  0  0  0  0  0  0  0  0  0
  188.5730  172.2560  138.9520 N   0  0  0  0  0  1  0  0  0  0  0  0
  187.7950  175.1510  137.6300 C   0  0  0  0  0  0  0  0  0  0  0  0
  186.8720  176.1850  137.4330 O   0  0  0  0  0  0  0  0  0  0  0  0
  185.6730  176.0390  136.6870 C   0  0  0  0  0  1  0  0  0  0  0  0
  196.6820  168.1660  135.2680 N   0  0  0  0  0  1  0  0  0  0  0  0
  197.0330  169.3620  136.0140 C   0  0  0  0  0  2  0  0  0  0  0  0
  197.4700  174.9370  143.9810 C   0  0  0  0  0  2  0  0  0  0  0  0
  197.9000  173.9940  145.0960 C   0  0  0  0  0  2  0  0  0  0  0  0
  197.0950  172.7030  145.0820 C   0  0  0  0  0  2  0  0  0  0  0  0
  197.5340  171.7800  143.9530 C   0  0  0  0  0  2  0  0  0  0  0  0
  196.7480  170.4750  143.9560 C   0  0  0  0  0  2  0  0  0  0  0  0
  195.5330  170.5940  144.8710 C   0  0  0  0  0  2  0  0  0  0  0  0
  194.2620  170.9770  144.1180 C   0  0  1  0  0  3  0  0  0  0  0  0
  193.8480  172.3360  144.4520 N   0  0  0  0  0  2  0  0  0  0  0  0
  191.5250  171.8540  144.4100 N   0  0  0  0  0  0  0  0  0  0  0  0
  191.9960  174.3730  144.9730 S   0  0  0  0  0  0  0  0  0  0  0  0
  192.4740  172.7050  144.5850 C   0  0  0  0  0  0  0  0  0  0  0  0
  190.2730  173.9160  144.5960 C   0  0  1  0  0  3  0  0  0  0  0  0
  190.1850  172.3870  144.5690 C   0  0  1  0  0  3  0  0  0  0  0  0
  188.9820  172.6570  142.4170 C   0  0  0  0  0  2  0  0  0  0  0  0
  189.2900  171.8980  143.4690 C   0  0  0  0  0  3  0  0  0  0  0  0
  189.3980  174.4460  145.6310 N   0  0  0  0  0  2  0  0  0  0  0  0
  188.5120  176.4940  146.5720 C   0  0  0  0  0  2  0  0  0  0  0  0
  187.9910  176.2470  143.8800 O   0  0  0  0  0  0  0  0  0  0  0  0
  189.5580  175.8920  145.6650 C   0  0  2  0  0  3  0  0  0  0  0  0
  187.8680  177.5850  145.8480 N   0  0  0  0  0  0  0  0  0  0  0  0
  188.2690  177.5160  144.4360 C   0  0  1  0  0  3  0  0  0  0  0  0
  189.3180  176.4840  144.2870 C   0  0  2  0  0  3  0  0  0  0  0  0
  185.7240  176.0170  145.6030 O   0  0  0  0  0  0  0  0  0  0  0  0
  185.7340  177.6620  147.4160 O   0  0  0  0  0  0  0  0  0  0  0  0
  186.1420  177.4080  145.9920 S   0  0  0  0  0  0  0  0  0  0  0  0
  184.0920  178.9420  145.5000 O   0  0  0  0  0  1  0  0  0  0  0  0
  185.3150  178.5820  144.9370 C   0  0  0  0  0  2  0  0  0  0  0  0
  194.4620  170.8220  142.6120 C   0  0  0  0  0  2  0  0  0  0  0  0
  193.4850  169.8490  142.0460 C   0  0  0  0  0  0  0  0  0  0  0  0
  192.3020  170.2200  141.8110 O   0  0  0  0  0  0  0  0  0  0  0  0
  195.2610  168.1670  141.8130 C   0  0  0  0  0  1  0  0  0  0  0  0
  193.8930  168.5420  141.7850 O   0  0  0  0  0  0  0  0  0  0  0  0
  1  5  1  0  0  0  0
  1  2  1  0  0  0  0
  2 34  1  0  0  0  0
  3  1  1  0  0  0  0
  4  5  1  0  0  0  0
  5  2  1  0  0  0  0
  6  3  1  0  0  0  0
  6  4  1  0  0  0  0
  7  9  1  0  0  0  0
  8  7  2  0  0  0  0
  9  3  1  0  0  0  0
 10 21  1  0  0  0  0
 10 12  1  0  0  0  0
 11 17  1  0  0  0  0
 12  8  1  0  0  0  0
 13 16  1  0  0  0  0
 13 14  2  0  0  0  0
 14 15  1  0  0  0  0
 15 12  1  0  0  0  0
 15 18  1  0  0  0  0
 16 10  1  0  0  0  0
 17  9  2  0  0  0  0
 18  8  1  0  0  0  0
 18 11  2  0  0  0  0
 20 23  1  0  0  0  0
 21 22  1  0  0  0  0
 22 20  1  0  0  0  0
 22 19  2  0  0  0  0
 23 26  1  0  0  0  0
 25 24  1  0  0  0  0
 26 25  1  0  0  0  0
 26 28  1  0  0  0  0
 27 23  1  0  0  0  0
 27 29  1  0  0  0  0
 29 25  2  0  0  0  0
 30 29  1  0  0  0  0
 31 30  1  0  0  0  0
 32 33  1  0  0  0  0
 33 14  1  0  0  0  0
 34 35  1  0  0  0  0
 36 35  1  0  0  0  0
 37 38  1  0  0  0  0
 37 36  1  0  0  0  0
 38 39  1  0  0  0  0
 40 41  1  0  0  0  0
 40 39  1  0  0  0  0
 41 44  1  0  0  0  0
 42 46  1  0  0  0  0
 42 44  2  0  0  0  0
 44 43  1  0  0  0  0
 45 43  1  0  0  0  0
 45 49  1  0  0  0  0
 46 45  1  0  0  0  0
 47 48  2  0  0  0  0
 48 46  1  0  0  0  0
 49 52  1  0  0  0  0
 51 55  1  0  0  0  0
 51 54  1  0  0  0  0
 52 50  1  0  0  0  0
 53 58  1  0  0  0  0
 53 50  1  0  0  0  0
 54 53  1  0  0  0  0
 55 54  1  0  0  0  0
 55 52  1  0  0  0  0
 56 58  2  0  0  0  0
 58 57  2  0  0  0  0
 60 59  1  0  0  0  0
 60 58  1  0  0  0  0
 61 40  1  0  0  0  0
 62 61  1  0  0  0  0
 63 62  2  0  0  0  0
 65 64  1  0  0  0  0
 65 62  1  0  0  0  0
M  END
>  <MODEL>
2

>  <REMARK>
 VINA RESULT:      -4.8      3.473      9.573
  Name = 
  21 active torsions:
  status: ('A' for Active; 'I' for Inactive)
    1  A    between atoms: N_8  and  C_44
    2  A    between atoms: C_9  and  N_35
    3  A    between atoms: C_11  and  C_34
    4  A    between atoms: S_12  and  N_24
    5  A    between atoms: S_12  and  C_57
    6  A    between atoms: C_14  and  C_16
    7  A    between atoms: C_18  and  N_27
    8  A    between atoms: C_20  and  C_42
    9  A    between atoms: C_20  and  C_44
   10  A    between atoms: O_21  and  C_42
   11  A    between atoms: C_23  and  C_45
   12  A    between atoms: C_23  and  C_48
   13  A    between atoms: C_26  and  C_44
   14  A    between atoms: C_26  and  C_48
   15  A    between atoms: N_27  and  C_52
   16  A    between atoms: C_29  and  N_58
   17  A    between atoms: C_34  and  C_47
   18  A    between atoms: C_39  and  C_62
   19  A    between atoms: O_41  and  C_60
   20  A    between atoms: C_45  and  C_47
   21  A    between atoms: C_54  and  C_59
                            x       y       z     vdW  Elec       q    Type
                         _______ _______ _______ _____ _____    ______ ____

>  <TORSDO>
F 21

$$$$
=
 OpenBabel11042418063D

 65 73  0  0  1  0  0  0  0  0999 V2000
  190.7840  172.5720  140.3600 C   0  0  2  0  0  3  0  0  0  0  0  0
  190.6150  173.6560  139.2910 C   0  0  2  0  0  3  0  0  0  0  0  0
  191.6420  171.3720  139.9490 C   0  0  2  0  0  3  0  0  0  0  0  0
  189.6870  171.3530  138.5460 C   0  0  0  0  0  2  0  0  0  0  0  0
  189.5490  172.5660  139.4650 C   0  0  1  0  0  3  0  0  0  0  0  0
  190.7150  170.4470  139.1830 C   0  0  0  0  0  2  0  0  0  0  0  0
  193.3470  169.7770  140.9180 C   0  0  0  0  0  3  0  0  0  0  0  0
  193.8530  169.1700  142.0500 C   0  0  0  0  0  0  0  0  0  0  0  0
  192.2900  170.7020  141.1380 C   0  0  0  0  0  0  0  0  0  0  0  0
  196.2690  168.8580  142.3290 C   0  0  1  0  0  3  0  0  0  0  0  0
  192.3120  170.2870  143.6090 C   0  0  0  0  0  3  0  0  0  0  0  0
  194.8880  168.2400  142.5870 C   0  0  1  0  0  3  0  0  0  0  0  0
  196.5860  169.2050  144.7350 C   0  0  0  0  0  3  0  0  0  0  0  0
  195.2630  169.1270  144.9440 C   0  0  0  0  0  0  0  0  0  0  0  0
  194.3380  168.4590  143.9380 C   0  0  1  0  0  3  0  0  0  0  0  0
  197.1990  168.6100  143.5050 C   0  0  0  0  0  2  0  0  0  0  0  0
  191.7780  170.9250  142.4630 C   0  0  0  0  0  3  0  0  0  0  0  0
  193.3560  169.4210  143.3540 C   0  0  0  0  0  0  0  0  0  0  0  0
  196.8760  170.3490  139.9900 O   0  0  0  0  0  0  0  0  0  0  0  0
  197.6710  168.5040  138.8010 N   0  0  0  0  0  2  0  0  0  0  0  0
  196.8380  168.3030  141.1120 N   0  0  0  0  0  2  0  0  0  0  0  0
  197.1200  169.1110  139.9700 C   0  0  0  0  0  0  0  0  0  0  0  0
  197.9390  169.2560  137.5840 C   0  0  1  0  0  3  0  0  0  0  0  0
  195.1060  170.0010  135.3040 O   0  0  0  0  0  1  0  0  0  0  0  0
  196.1530  169.9710  136.2160 C   0  0  0  0  0  0  0  0  0  0  0  0
  196.9990  168.7720  136.4710 C   0  0  1  0  0  3  0  0  0  0  0  0
  197.5940  170.6220  137.7790 O   0  0  0  0  0  0  0  0  0  0  0  0
  197.7790  168.4670  135.2840 N   0  0  0  0  0  1  0  0  0  0  0  0
  196.5360  170.9850  136.9700 C   0  0  0  0  0  0  0  0  0  0  0  0
  195.9830  172.2720  136.9970 O   0  0  0  0  0  0  0  0  0  0  0  0
  196.6360  173.3980  137.5630 C   0  0  0  0  0  1  0  0  0  0  0  0
  195.1380  168.9320  147.3510 N   0  0  0  0  0  1  0  0  0  0  0  0
  194.6830  169.6940  146.2020 C   0  0  0  0  0  2  0  0  0  0  0  0
  191.4820  173.5020  138.0330 C   0  0  0  0  0  2  0  0  0  0  0  0
  192.9600  173.4760  138.3920 C   0  0  0  0  0  2  0  0  0  0  0  0
  193.3070  174.5410  139.4220 C   0  0  0  0  0  2  0  0  0  0  0  0
  194.4300  174.0850  140.3450 C   0  0  0  0  0  2  0  0  0  0  0  0
  193.9460  173.9190  141.7790 C   0  0  0  0  0  2  0  0  0  0  0  0
  192.8930  174.9750  142.1060 C   0  0  0  0  0  2  0  0  0  0  0  0
  193.4150  176.0550  143.0510 C   0  0  1  0  0  3  0  0  0  0  0  0
  192.3630  177.0130  143.3790 N   0  0  0  0  0  2  0  0  0  0  0  0
  191.1800  175.5310  144.8060 N   0  0  0  0  0  0  0  0  0  0  0  0
  190.0040  177.8690  144.6250 S   0  0  0  0  0  0  0  0  0  0  0  0
  191.2840  176.6910  144.2580 C   0  0  0  0  0  0  0  0  0  0  0  0
  189.0650  176.5280  145.4240 C   0  0  1  0  0  3  0  0  0  0  0  0
  190.0220  175.3570  145.6620 C   0  0  1  0  0  3  0  0  0  0  0  0
  190.0640  172.9570  145.0400 C   0  0  0  0  0  2  0  0  0  0  0  0
  189.3660  174.0340  145.3990 C   0  0  0  0  0  3  0  0  0  0  0  0
  188.5350  177.0020  146.6930 N   0  0  0  0  0  2  0  0  0  0  0  0
  186.5580  176.5700  145.3620 C   0  0  0  0  0  2  0  0  0  0  0  0
  186.4030  178.9360  146.7600 O   0  0  0  0  0  0  0  0  0  0  0  0
  187.1250  176.6460  146.7600 C   0  0  2  0  0  3  0  0  0  0  0  0
  185.3290  177.3560  145.3370 N   0  0  0  0  0  0  0  0  0  0  0  0
  185.2470  178.1450  146.5730 C   0  0  1  0  0  3  0  0  0  0  0  0
  186.3380  177.7270  147.4800 C   0  0  2  0  0  3  0  0  0  0  0  0
  184.6820  179.7110  144.2620 O   0  0  0  0  0  0  0  0  0  0  0  0
  186.8010  178.6900  143.5830 O   0  0  0  0  0  0  0  0  0  0  0  0
  185.3710  178.4110  143.9520 S   0  0  0  0  0  0  0  0  0  0  0  0
  183.4210  178.3630  142.2210 O   0  0  0  0  0  1  0  0  0  0  0  0
  184.5600  177.6370  142.5670 C   0  0  0  0  0  2  0  0  0  0  0  0
  193.9950  175.4280  144.3160 C   0  0  0  0  0  2  0  0  0  0  0  0
  195.3920  175.8940  144.5450 C   0  0  0  0  0  0  0  0  0  0  0  0
  195.6860  177.1040  144.3410 O   0  0  0  0  0  0  0  0  0  0  0  0
  197.0850  174.1780  144.0680 C   0  0  0  0  0  1  0  0  0  0  0  0
  196.3550  174.9860  144.9790 O   0  0  0  0  0  0  0  0  0  0  0  0
  2  5  1  0  0  0  0
  2  1  1  0  0  0  0
  3  1  1  0  0  0  0
  3  9  1  0  0  0  0
  4  6  1  0  0  0  0
  4  5  1  0  0  0  0
  5  1  1  0  0  0  0
  6  3  1  0  0  0  0
  7  9  2  0  0  0  0
  7  8  1  0  0  0  0
  8 12  1  0  0  0  0
  8 18  2  0  0  0  0
  9 17  1  0  0  0  0
 10 12  1  0  0  0  0
 10 16  1  0  0  0  0
 12 15  1  0  0  0  0
 13 14  2  0  0  0  0
 14 33  1  0  0  0  0
 15 14  1  0  0  0  0
 16 13  1  0  0  0  0
 17 11  2  0  0  0  0
 18 11  1  0  0  0  0
 18 15  1  0  0  0  0
 20 22  1  0  0  0  0
 21 10  1  0  0  0  0
 22 19  2  0  0  0  0
 22 21  1  0  0  0  0
 23 27  1  0  0  0  0
 23 20  1  0  0  0  0
 24 25  1  0  0  0  0
 25 26  1  0  0  0  0
 25 29  2  0  0  0  0
 26 23  1  0  0  0  0
 28 26  1  0  0  0  0
 29 30  1  0  0  0  0
 29 27  1  0  0  0  0
 30 31  1  0  0  0  0
 33 32  1  0  0  0  0
 34 35  1  0  0  0  0
 34  2  1  0  0  0  0
 35 36  1  0  0  0  0
 36 37  1  0  0  0  0
 37 38  1  0  0  0  0
 38 39  1  0  0  0  0
 39 40  1  0  0  0  0
 40 41  1  0  0  0  0
 40 61  1  0  0  0  0
 41 44  1  0  0  0  0
 42 46  1  0  0  0  0
 43 45  1  0  0  0  0
 44 43  1  0  0  0  0
 44 42  2  0  0  0  0
 45 46  1  0  0  0  0
 45 49  1  0  0  0  0
 47 48  2  0  0  0  0
 48 46  1  0  0  0  0
 49 52  1  0  0  0  0
 50 52  1  0  0  0  0
 51 55  1  0  0  0  0
 52 55  1  0  0  0  0
 53 50  1  0  0  0  0
 53 54  1  0  0  0  0
 54 51  1  0  0  0  0
 54 55  1  0  0  0  0
 57 58  2  0  0  0  0
 58 56  2  0  0  0  0
 58 53  1  0  0  0  0
 59 60  1  0  0  0  0
 60 58  1  0  0  0  0
 61 62  1  0  0  0  0
 62 65  1  0  0  0  0
 63 62  2  0  0  0  0
 64 65  1  0  0  0  0
M  END
>  <MODEL>
3

>  <REMARK>
 VINA RESULT:      -4.8      3.897      9.468
  Name = 
  21 active torsions:
  status: ('A' for Active; 'I' for Inactive)
    1  A    between atoms: N_8  and  C_44
    2  A    between atoms: C_9  and  N_35
    3  A    between atoms: C_11  and  C_34
    4  A    between atoms: S_12  and  N_24
    5  A    between atoms: S_12  and  C_57
    6  A    between atoms: C_14  and  C_16
    7  A    between atoms: C_18  and  N_27
    8  A    between atoms: C_20  and  C_42
    9  A    between atoms: C_20  and  C_44
   10  A    between atoms: O_21  and  C_42
   11  A    between atoms: C_23  and  C_45
   12  A    between atoms: C_23  and  C_48
   13  A    between atoms: C_26  and  C_44
   14  A    between atoms: C_26  and  C_48
   15  A    between atoms: N_27  and  C_52
   16  A    between atoms: C_29  and  N_58
   17  A    between atoms: C_34  and  C_47
   18  A    between atoms: C_39  and  C_62
   19  A    between atoms: O_41  and  C_60
   20  A    between atoms: C_45  and  C_47
   21  A    between atoms: C_54  and  C_59
                            x       y       z     vdW  Elec       q    Type
                         _______ _______ _______ _____ _____    ______ ____

>  <TORSDO>
F 21

$$$$
=
 OpenBabel11042418063D

 65 73  0  0  1  0  0  0  0  0999 V2000
  188.6300  172.5380  140.6760 C   0  0  2  0  0  3  0  0  0  0  0  0
  188.2700  172.3810  142.1560 C   0  0  2  0  0  3  0  0  0  0  0  0
  190.1000  172.8620  140.3890 C   0  0  2  0  0  3  0  0  0  0  0  0
  189.1880  174.7380  141.5880 C   0  0  0  0  0  2  0  0  0  0  0  0
  188.0540  173.7240  141.4450 C   0  0  1  0  0  3  0  0  0  0  0  0
  190.2320  174.3640  140.5630 C   0  0  0  0  0  2  0  0  0  0  0  0
  191.5570  173.0940  138.3370 C   0  0  0  0  0  3  0  0  0  0  0  0
  191.8580  172.6310  137.0720 C   0  0  0  0  0  0  0  0  0  0  0  0
  190.5300  172.3890  139.0200 C   0  0  0  0  0  0  0  0  0  0  0  0
  194.1870  172.4570  136.3240 C   0  0  1  0  0  3  0  0  0  0  0  0
  190.1670  170.8450  137.0810 C   0  0  0  0  0  3  0  0  0  0  0  0
  192.7520  172.7840  135.8880 C   0  0  1  0  0  3  0  0  0  0  0  0
  194.1650  170.4270  134.9490 C   0  0  0  0  0  3  0  0  0  0  0  0
  192.8230  170.4230  134.9360 C   0  0  0  0  0  0  0  0  0  0  0  0
  192.0220  171.6810  135.2340 C   0  0  1  0  0  3  0  0  0  0  0  0
  194.9190  171.6880  135.2360 C   0  0  0  0  0  2  0  0  0  0  0  0
  189.8410  171.3000  138.3820 C   0  0  0  0  0  3  0  0  0  0  0  0
  191.1890  171.5380  136.4650 C   0  0  0  0  0  0  0  0  0  0  0  0
  195.9750  172.7880  138.5040 O   0  0  0  0  0  0  0  0  0  0  0  0
  196.4490  175.0200  138.0130 N   0  0  0  0  0  2  0  0  0  0  0  0
  194.8990  173.6850  136.6390 N   0  0  0  0  0  2  0  0  0  0  0  0
  195.7850  173.7830  137.7530 C   0  0  0  0  0  0  0  0  0  0  0  0
  197.3280  175.2070  139.1580 C   0  0  1  0  0  3  0  0  0  0  0  0
  196.0690  174.2930  142.5270 O   0  0  0  0  0  1  0  0  0  0  0  0
  196.6830  174.4250  141.2890 C   0  0  0  0  0  0  0  0  0  0  0  0
  196.4900  175.5920  140.3850 C   0  0  1  0  0  3  0  0  0  0  0  0
  197.9320  173.9680  139.5070 O   0  0  0  0  0  0  0  0  0  0  0  0
  197.0570  176.7810  140.9990 N   0  0  0  0  0  1  0  0  0  0  0  0
  197.5100  173.5460  140.7520 C   0  0  0  0  0  0  0  0  0  0  0  0
  197.9340  172.3350  141.3130 O   0  0  0  0  0  0  0  0  0  0  0  0
  197.0600  171.2570  141.6140 C   0  0  0  0  0  1  0  0  0  0  0  0
  192.1180  168.2550  135.7420 N   0  0  0  0  0  1  0  0  0  0  0  0
  192.0960  169.1580  134.6050 C   0  0  0  0  0  2  0  0  0  0  0  0
  189.4490  172.3660  143.1390 C   0  0  0  0  0  2  0  0  0  0  0  0
  190.5150  171.3750  142.6930 C   0  0  0  0  0  2  0  0  0  0  0  0
  191.9130  171.8530  143.0560 C   0  0  0  0  0  2  0  0  0  0  0  0
  191.9980  172.2850  144.5130 C   0  0  0  0  0  2  0  0  0  0  0  0
  192.8460  173.5400  144.6800 C   0  0  0  0  0  2  0  0  0  0  0  0
  192.5160  174.5480  143.5820 C   0  0  0  0  0  2  0  0  0  0  0  0
  192.8880  175.9780  143.9640 C   0  0  1  0  0  3  0  0  0  0  0  0
  191.7450  176.8730  143.8060 N   0  0  0  0  0  2  0  0  0  0  0  0
  190.6090  176.0880  145.7350 N   0  0  0  0  0  0  0  0  0  0  0  0
  189.2600  177.9660  144.4950 S   0  0  0  0  0  0  0  0  0  0  0  0
  190.6490  176.8800  144.7220 C   0  0  0  0  0  0  0  0  0  0  0  0
  188.3880  177.0460  145.8040 C   0  0  1  0  0  3  0  0  0  0  0  0
  189.4220  176.2080  146.5620 C   0  0  1  0  0  3  0  0  0  0  0  0
  189.6680  173.7700  146.9410 C   0  0  0  0  0  2  0  0  0  0  0  0
  188.8900  174.8520  146.9200 C   0  0  0  0  0  3  0  0  0  0  0  0
  187.7510  177.9890  146.7120 N   0  0  0  0  0  2  0  0  0  0  0  0
  185.9160  177.0180  145.4630 C   0  0  0  0  0  2  0  0  0  0  0  0
  185.7240  179.7550  145.6820 O   0  0  0  0  0  0  0  0  0  0  0  0
  186.3270  177.6910  146.7510 C   0  0  2  0  0  3  0  0  0  0  0  0
  184.7390  177.7120  144.9530 N   0  0  0  0  0  0  0  0  0  0  0  0
  184.5580  178.9570  145.7120 C   0  0  1  0  0  3  0  0  0  0  0  0
  185.5200  178.9750  146.8360 C   0  0  2  0  0  3  0  0  0  0  0  0
  183.6690  178.1660  142.5520 O   0  0  0  0  0  0  0  0  0  0  0  0
  185.7170  179.3750  143.1360 O   0  0  0  0  0  0  0  0  0  0  0  0
  184.9880  178.0670  143.2670 S   0  0  0  0  0  0  0  0  0  0  0  0
  186.9990  177.3560  141.7650 O   0  0  0  0  0  1  0  0  0  0  0  0
  185.9670  176.7850  142.5090 C   0  0  0  0  0  2  0  0  0  0  0  0
  193.4290  176.0310  145.3900 C   0  0  0  0  0  2  0  0  0  0  0  0
  194.9190  176.0630  145.3900 C   0  0  0  0  0  0  0  0  0  0  0  0
  195.5240  176.8840  144.6470 O   0  0  0  0  0  0  0  0  0  0  0  0
  196.4800  174.1880  145.6770 C   0  0  0  0  0  1  0  0  0  0  0  0
  195.6230  175.1850  146.2110 O   0  0  0  0  0  0  0  0  0  0  0  0
  1  5  1  0  0  0  0
  1  2  1  0  0  0  0
  2 34  1  0  0  0  0
  3  6  1  0  0  0  0
  3  1  1  0  0  0  0
  5  4  1  0  0  0  0
  5  2  1  0  0  0  0
  6  4  1  0  0  0  0
  7  9  1  0  0  0  0
  8  7  2  0  0  0  0
  9  3  1  0  0  0  0
 10 21  1  0  0  0  0
 11 17  1  0  0  0  0
 12 10  1  0  0  0  0
 12  8  1  0  0  0  0
 13 16  1  0  0  0  0
 14 13  2  0  0  0  0
 14 15  1  0  0  0  0
 15 12  1  0  0  0  0
 15 18  1  0  0  0  0
 16 10  1  0  0  0  0
 17  9  2  0  0  0  0
 18  8  1  0  0  0  0
 18 11  2  0  0  0  0
 20 23  1  0  0  0  0
 21 22  1  0  0  0  0
 22 20  1  0  0  0  0
 22 19  2  0  0  0  0
 23 27  1  0  0  0  0
 23 26  1  0  0  0  0
 25 24  1  0  0  0  0
 26 28  1  0  0  0  0
 26 25  1  0  0  0  0
 27 29  1  0  0  0  0
 29 25  2  0  0  0  0
 29 30  1  0  0  0  0
 30 31  1  0  0  0  0
 33 14  1  0  0  0  0
 33 32  1  0  0  0  0
 35 36  1  0  0  0  0
 35 34  1  0  0  0  0
 36 37  1  0  0  0  0
 37 38  1  0  0  0  0
 39 40  1  0  0  0  0
 39 38  1  0  0  0  0
 40 61  1  0  0  0  0
 41 40  1  0  0  0  0
 41 44  1  0  0  0  0
 42 46  1  0  0  0  0
 43 44  1  0  0  0  0
 43 45  1  0  0  0  0
 44 42  2  0  0  0  0
 45 46  1  0  0  0  0
 45 49  1  0  0  0  0
 46 48  1  0  0  0  0
 48 47  2  0  0  0  0
 49 52  1  0  0  0  0
 50 52  1  0  0  0  0
 51 54  1  0  0  0  0
 51 55  1  0  0  0  0
 52 55  1  0  0  0  0
 53 50  1  0  0  0  0
 53 54  1  0  0  0  0
 54 55  1  0  0  0  0
 56 58  2  0  0  0  0
 57 58  2  0  0  0  0
 58 53  1  0  0  0  0
 59 60  1  0  0  0  0
 60 58  1  0  0  0  0
 61 62  1  0  0  0  0
 62 65  1  0  0  0  0
 63 62  2  0  0  0  0
 64 65  1  0  0  0  0
M  END
>  <MODEL>
4

>  <REMARK>
 VINA RESULT:      -4.6      3.438      8.079
  Name = 
  21 active torsions:
  status: ('A' for Active; 'I' for Inactive)
    1  A    between atoms: N_8  and  C_44
    2  A    between atoms: C_9  and  N_35
    3  A    between atoms: C_11  and  C_34
    4  A    between atoms: S_12  and  N_24
    5  A    between atoms: S_12  and  C_57
    6  A    between atoms: C_14  and  C_16
    7  A    between atoms: C_18  and  N_27
    8  A    between atoms: C_20  and  C_42
    9  A    between atoms: C_20  and  C_44
   10  A    between atoms: O_21  and  C_42
   11  A    between atoms: C_23  and  C_45
   12  A    between atoms: C_23  and  C_48
   13  A    between atoms: C_26  and  C_44
   14  A    between atoms: C_26  and  C_48
   15  A    between atoms: N_27  and  C_52
   16  A    between atoms: C_29  and  N_58
   17  A    between atoms: C_34  and  C_47
   18  A    between atoms: C_39  and  C_62
   19  A    between atoms: O_41  and  C_60
   20  A    between atoms: C_45  and  C_47
   21  A    between atoms: C_54  and  C_59
                            x       y       z     vdW  Elec       q    Type
                         _______ _______ _______ _____ _____    ______ ____

>  <TORSDO>
F 21

$$$$
=
 OpenBabel11042418063D

 65 73  0  0  1  0  0  0  0  0999 V2000
  190.5240  176.6860  143.6710 C   0  0  2  0  0  3  0  0  0  0  0  0
  190.5900  176.8710  145.1900 C   0  0  2  0  0  3  0  0  0  0  0  0
  191.2280  175.4370  143.1300 C   0  0  2  0  0  3  0  0  0  0  0  0
  192.9300  176.8510  144.0750 C   0  0  0  0  0  2  0  0  0  0  0  0
  191.6020  177.5780  144.2780 C   0  0  1  0  0  3  0  0  0  0  0  0
  192.6920  175.8130  143.0030 C   0  0  0  0  0  2  0  0  0  0  0  0
  189.2530  175.2200  141.5680 C   0  0  0  0  0  3  0  0  0  0  0  0
  188.7670  174.7130  140.3790 C   0  0  0  0  0  0  0  0  0  0  0  0
  190.6270  174.9650  141.8270 C   0  0  0  0  0  0  0  0  0  0  0  0
  187.2540  176.0400  138.9780 C   0  0  1  0  0  3  0  0  0  0  0  0
  190.8890  173.6720  139.6970 C   0  0  0  0  0  3  0  0  0  0  0  0
  187.5870  174.6250  139.4730 C   0  0  1  0  0  3  0  0  0  0  0  0
  187.9450  175.4310  136.7070 C   0  0  0  0  0  3  0  0  0  0  0  0
  188.6640  174.4000  137.1760 C   0  0  0  0  0  0  0  0  0  0  0  0
  188.3950  173.8050  138.5510 C   0  0  1  0  0  3  0  0  0  0  0  0
  186.8310  176.0150  137.5180 C   0  0  0  0  0  2  0  0  0  0  0  0
  191.4120  174.1850  140.9090 C   0  0  0  0  0  3  0  0  0  0  0  0
  189.5600  173.9680  139.4700 C   0  0  0  0  0  0  0  0  0  0  0  0
  187.6760  177.6560  141.2740 O   0  0  0  0  0  0  0  0  0  0  0  0
  185.4010  177.9470  141.7110 N   0  0  0  0  0  2  0  0  0  0  0  0
  186.2000  176.6140  139.7980 N   0  0  0  0  0  2  0  0  0  0  0  0
  186.4820  177.4190  140.9410 C   0  0  0  0  0  0  0  0  0  0  0  0
  185.6140  178.7350  142.9160 C   0  0  1  0  0  3  0  0  0  0  0  0
  184.4580  177.3550  146.1610 O   0  0  0  0  0  1  0  0  0  0  0  0
  185.1250  177.8170  145.0340 C   0  0  0  0  0  0  0  0  0  0  0  0
  184.4530  178.4950  143.8910 C   0  0  1  0  0  3  0  0  0  0  0  0
  186.7660  178.2620  143.6020 O   0  0  0  0  0  0  0  0  0  0  0  0
  183.9230  179.7750  144.3290 N   0  0  0  0  0  1  0  0  0  0  0  0
  186.4250  177.7200  144.8250 C   0  0  0  0  0  0  0  0  0  0  0  0
  187.3770  177.1530  145.6810 O   0  0  0  0  0  0  0  0  0  0  0  0
  187.6910  177.6720  146.9640 C   0  0  0  0  0  1  0  0  0  0  0  0
  189.9070  174.5870  135.1100 N   0  0  0  0  0  1  0  0  0  0  0  0
  189.7440  173.8090  136.3250 C   0  0  0  0  0  2  0  0  0  0  0  0
  191.1680  175.6940  145.9880 C   0  0  0  0  0  2  0  0  0  0  0  0
  190.0560  174.8560  146.6020 C   0  0  0  0  0  2  0  0  0  0  0  0
  189.6430  173.7130  145.6880 C   0  0  0  0  0  2  0  0  0  0  0  0
  190.8250  173.1730  144.8950 C   0  0  0  0  0  2  0  0  0  0  0  0
  190.4670  171.8910  144.1530 C   0  0  0  0  0  2  0  0  0  0  0  0
  191.2850  171.7800  142.8690 C   0  0  0  0  0  2  0  0  0  0  0  0
  191.9380  170.4110  142.7020 C   0  0  1  0  0  3  0  0  0  0  0  0
  193.1570  170.5080  141.9040 N   0  0  0  0  0  2  0  0  0  0  0  0
  192.0230  170.6030  139.8210 N   0  0  0  0  0  0  0  0  0  0  0  0
  194.6290  170.7010  139.5280 S   0  0  0  0  0  0  0  0  0  0  0  0
  193.1300  170.6040  140.4780 C   0  0  0  0  0  0  0  0  0  0  0  0
  193.6340  170.4480  138.0220 C   0  0  1  0  0  3  0  0  0  0  0  0
  192.1650  170.6940  138.3800 C   0  0  1  0  0  3  0  0  0  0  0  0
  190.1640  170.1090  137.0370 C   0  0  0  0  0  2  0  0  0  0  0  0
  191.2530  169.7170  137.6980 C   0  0  0  0  0  3  0  0  0  0  0  0
  194.0610  171.3920  137.0000 N   0  0  0  0  0  2  0  0  0  0  0  0
  193.8220  173.7760  137.3580 C   0  0  0  0  0  2  0  0  0  0  0  0
  195.9700  173.1500  135.7550 O   0  0  0  0  0  0  0  0  0  0  0  0
  194.6450  172.5480  137.6650 C   0  0  2  0  0  3  0  0  0  0  0  0
  194.7340  174.8240  136.9140 N   0  0  0  0  0  0  0  0  0  0  0  0
  196.0540  174.2280  136.6640 C   0  0  1  0  0  3  0  0  0  0  0  0
  196.0370  172.8220  137.1230 C   0  0  2  0  0  3  0  0  0  0  0  0
  195.2300  175.9840  134.5630 O   0  0  0  0  0  0  0  0  0  0  0  0
  193.2880  174.5010  134.7180 O   0  0  0  0  0  0  0  0  0  0  0  0
  194.1050  175.5280  135.4510 S   0  0  0  0  0  0  0  0  0  0  0  0
  193.3180  177.9620  134.9440 O   0  0  0  0  0  1  0  0  0  0  0  0
  193.0660  176.9220  135.8390 C   0  0  0  0  0  2  0  0  0  0  0  0
  192.2280  169.7840  144.0640 C   0  0  0  0  0  2  0  0  0  0  0  0
  193.6920  169.5800  144.2520 C   0  0  0  0  0  0  0  0  0  0  0  0
  194.2300  168.5130  143.8470 O   0  0  0  0  0  0  0  0  0  0  0  0
  194.5370  170.6630  146.2900 C   0  0  0  0  0  1  0  0  0  0  0  0
  194.4470  170.5710  144.8760 O   0  0  0  0  0  0  0  0  0  0  0  0
  1  5  1  0  0  0  0
  1  2  1  0  0  0  0
  2 34  1  0  0  0  0
  3  1  1  0  0  0  0
  4  5  1  0  0  0  0
  5  2  1  0  0  0  0
  6  3  1  0  0  0  0
  6  4  1  0  0  0  0
  7  9  1  0  0  0  0
  8  7  2  0  0  0  0
  9  3  1  0  0  0  0
 10 12  1  0  0  0  0
 10 21  1  0  0  0  0
 11 17  1  0  0  0  0
 12  8  1  0  0  0  0
 13 14  2  0  0  0  0
 13 16  1  0  0  0  0
 14 15  1  0  0  0  0
 15 18  1  0  0  0  0
 15 12  1  0  0  0  0
 16 10  1  0  0  0  0
 17  9  2  0  0  0  0
 18 11  2  0  0  0  0
 18  8  1  0  0  0  0
 20 23  1  0  0  0  0
 21 22  1  0  0  0  0
 22 19  2  0  0  0  0
 22 20  1  0  0  0  0
 23 27  1  0  0  0  0
 23 26  1  0  0  0  0
 25 24  1  0  0  0  0
 26 28  1  0  0  0  0
 26 25  1  0  0  0  0
 27 29  1  0  0  0  0
 29 25  2  0  0  0  0
 29 30  1  0  0  0  0
 30 31  1  0  0  0  0
 32 33  1  0  0  0  0
 33 14  1  0  0  0  0
 34 35  1  0  0  0  0
 36 35  1  0  0  0  0
 37 36  1  0  0  0  0
 38 37  1  0  0  0  0
 39 38  1  0  0  0  0
 40 39  1  0  0  0  0
 40 61  1  0  0  0  0
 41 40  1  0  0  0  0
 42 44  2  0  0  0  0
 43 44  1  0  0  0  0
 44 41  1  0  0  0  0
 45 46  1  0  0  0  0
 45 43  1  0  0  0  0
 46 42  1  0  0  0  0
 47 48  2  0  0  0  0
 48 46  1  0  0  0  0
 49 52  1  0  0  0  0
 49 45  1  0  0  0  0
 50 52  1  0  0  0  0
 51 54  1  0  0  0  0
 51 55  1  0  0  0  0
 53 50  1  0  0  0  0
 54 53  1  0  0  0  0
 54 55  1  0  0  0  0
 55 52  1  0  0  0  0
 56 58  2  0  0  0  0
 57 58  2  0  0  0  0
 58 60  1  0  0  0  0
 58 53  1  0  0  0  0
 59 60  1  0  0  0  0
 61 62  1  0  0  0  0
 62 65  1  0  0  0  0
 63 62  2  0  0  0  0
 65 64  1  0  0  0  0
M  END
>  <MODEL>
5

>  <REMARK>
 VINA RESULT:      -4.3      2.886      6.355
  Name = 
  21 active torsions:
  status: ('A' for Active; 'I' for Inactive)
    1  A    between atoms: N_8  and  C_44
    2  A    between atoms: C_9  and  N_35
    3  A    between atoms: C_11  and  C_34
    4  A    between atoms: S_12  and  N_24
    5  A    between atoms: S_12  and  C_57
    6  A    between atoms: C_14  and  C_16
    7  A    between atoms: C_18  and  N_27
    8  A    between atoms: C_20  and  C_42
    9  A    between atoms: C_20  and  C_44
   10  A    between atoms: O_21  and  C_42
   11  A    between atoms: C_23  and  C_45
   12  A    between atoms: C_23  and  C_48
   13  A    between atoms: C_26  and  C_44
   14  A    between atoms: C_26  and  C_48
   15  A    between atoms: N_27  and  C_52
   16  A    between atoms: C_29  and  N_58
   17  A    between atoms: C_34  and  C_47
   18  A    between atoms: C_39  and  C_62
   19  A    between atoms: O_41  and  C_60
   20  A    between atoms: C_45  and  C_47
   21  A    between atoms: C_54  and  C_59
                            x       y       z     vdW  Elec       q    Type
                         _______ _______ _______ _____ _____    ______ ____

>  <TORSDO>
F 21

$$$$
=
 OpenBabel11042418063D

 65 73  0  0  1  0  0  0  0  0999 V2000
  190.2380  173.5220  138.7700 C   0  0  2  0  0  3  0  0  0  0  0  0
  188.7770  173.7020  139.1920 C   0  0  2  0  0  3  0  0  0  0  0  0
  190.5310  173.7820  137.2890 C   0  0  2  0  0  3  0  0  0  0  0  0
  189.0860  171.8600  137.3940 C   0  0  0  0  0  2  0  0  0  0  0  0
  189.3150  172.3100  138.8360 C   0  0  1  0  0  3  0  0  0  0  0  0
  190.1820  172.4930  136.5680 C   0  0  0  0  0  2  0  0  0  0  0  0
  192.9190  174.0040  138.0850 C   0  0  0  0  0  3  0  0  0  0  0  0
  194.1890  174.4740  137.8180 C   0  0  0  0  0  0  0  0  0  0  0  0
  191.9590  174.2160  137.0580 C   0  0  0  0  0  0  0  0  0  0  0  0
  196.1640  173.1430  138.4060 C   0  0  1  0  0  3  0  0  0  0  0  0
  193.6270  175.3950  135.6070 C   0  0  0  0  0  3  0  0  0  0  0  0
  195.5940  174.5660  138.3110 C   0  0  1  0  0  3  0  0  0  0  0  0
  197.7060  173.6170  136.5600 C   0  0  0  0  0  3  0  0  0  0  0  0
  196.9390  174.6390  136.1500 C   0  0  0  0  0  0  0  0  0  0  0  0
  195.9430  175.3080  137.0850 C   0  0  1  0  0  3  0  0  0  0  0  0
  197.6200  173.1160  137.9680 C   0  0  0  0  0  2  0  0  0  0  0  0
  192.3170  174.9200  135.8560 C   0  0  0  0  0  3  0  0  0  0  0  0
  194.5350  175.1420  136.6160 C   0  0  0  0  0  0  0  0  0  0  0  0
  195.6160  170.4510  139.1190 O   0  0  0  0  0  0  0  0  0  0  0  0
  195.6430  170.8630  141.4170 N   0  0  0  0  0  2  0  0  0  0  0  0
  196.0390  172.6520  139.7680 N   0  0  0  0  0  2  0  0  0  0  0  0
  195.7620  171.2820  140.0570 C   0  0  0  0  0  0  0  0  0  0  0  0
  195.3150  169.4940  141.7850 C   0  0  1  0  0  3  0  0  0  0  0  0
  193.6510  168.8870  145.0460 O   0  0  0  0  0  1  0  0  0  0  0  0
  194.0440  169.0600  143.7260 C   0  0  0  0  0  0  0  0  0  0  0  0
  195.4470  169.3310  143.3050 C   0  0  1  0  0  3  0  0  0  0  0  0
  193.9420  169.2400  141.5130 O   0  0  0  0  0  0  0  0  0  0  0  0
  196.2720  168.1700  143.5930 N   0  0  0  0  0  1  0  0  0  0  0  0
  193.2410  169.0110  142.6800 C   0  0  0  0  0  0  0  0  0  0  0  0
  191.8620  168.7680  142.6860 O   0  0  0  0  0  0  0  0  0  0  0  0
  190.9780  169.2200  141.6710 C   0  0  0  0  0  1  0  0  0  0  0  0
  197.0820  176.5980  134.7400 N   0  0  0  0  0  1  0  0  0  0  0  0
  197.0770  175.1460  134.7490 C   0  0  0  0  0  2  0  0  0  0  0  0
  187.8410  174.3090  138.1380 C   0  0  0  0  0  2  0  0  0  0  0  0
  187.9370  175.8280  138.1360 C   0  0  0  0  0  2  0  0  0  0  0  0
  186.6770  176.4720  138.6970 C   0  0  0  0  0  2  0  0  0  0  0  0
  186.6410  176.4050  140.2170 C   0  0  0  0  0  2  0  0  0  0  0  0
  187.9810  176.7910  140.8300 C   0  0  0  0  0  2  0  0  0  0  0  0
  187.7640  177.6900  142.0450 C   0  0  0  0  0  2  0  0  0  0  0  0
  186.9670  177.0050  143.1510 C   0  0  1  0  0  3  0  0  0  0  0  0
  187.6910  177.0450  144.4180 N   0  0  0  0  0  2  0  0  0  0  0  0
  189.1880  175.2940  143.8470 N   0  0  0  0  0  0  0  0  0  0  0  0
  189.6390  176.2270  146.2580 S   0  0  0  0  0  0  0  0  0  0  0  0
  188.7860  176.1710  144.6990 C   0  0  0  0  0  0  0  0  0  0  0  0
  190.4890  174.6830  145.7930 C   0  0  1  0  0  3  0  0  0  0  0  0
  190.3020  174.4750  144.2880 C   0  0  1  0  0  3  0  0  0  0  0  0
  189.8020  172.6360  142.7020 C   0  0  0  0  0  2  0  0  0  0  0  0
  190.0640  173.0340  143.9470 C   0  0  0  0  0  3  0  0  0  0  0  0
  191.9050  174.8010  146.1070 N   0  0  0  0  0  2  0  0  0  0  0  0
  193.0320  175.9500  144.2970 C   0  0  0  0  0  2  0  0  0  0  0  0
  194.5570  175.8160  146.5840 O   0  0  0  0  0  0  0  0  0  0  0  0
  192.3660  176.1020  145.6430 C   0  0  2  0  0  3  0  0  0  0  0  0
  194.3220  176.6290  144.3580 N   0  0  0  0  0  0  0  0  0  0  0  0
  194.6150  176.9610  145.7590 C   0  0  1  0  0  3  0  0  0  0  0  0
  193.4250  176.6540  146.5820 C   0  0  2  0  0  3  0  0  0  0  0  0
  196.4100  175.0390  144.8340 O   0  0  0  0  0  0  0  0  0  0  0  0
  194.8820  174.4060  143.0290 O   0  0  0  0  0  0  0  0  0  0  0  0
  195.5440  175.5640  143.7230 S   0  0  0  0  0  0  0  0  0  0  0  0
  196.8730  175.5940  141.4800 O   0  0  0  0  0  1  0  0  0  0  0  0
  196.5650  176.4330  142.5490 C   0  0  0  0  0  2  0  0  0  0  0  0
  185.5860  177.6410  143.2920 C   0  0  0  0  0  2  0  0  0  0  0  0
  185.5060  178.4610  144.5340 C   0  0  0  0  0  0  0  0  0  0  0  0
  185.7730  179.6930  144.4860 O   0  0  0  0  0  0  0  0  0  0  0  0
  184.4100  178.5510  146.7320 C   0  0  0  0  0  1  0  0  0  0  0  0
  185.1380  177.8530  145.7330 O   0  0  0  0  0  0  0  0  0  0  0  0
  1  5  1  0  0  0  0
  1  2  1  0  0  0  0
  3  1  1  0  0  0  0
  4  5  1  0  0  0  0
  5  2  1  0  0  0  0
  6  3  1  0  0  0  0
  6  4  1  0  0  0  0
  8  7  1  0  0  0  0
  8 12  1  0  0  0  0
  9  3  1  0  0  0  0
  9  7  2  0  0  0  0
 10 21  1  0  0  0  0
 11 17  2  0  0  0  0
 11 18  1  0  0  0  0
 12 10  1  0  0  0  0
 13 16  1  0  0  0  0
 14 13  2  0  0  0  0
 14 15  1  0  0  0  0
 15 12  1  0  0  0  0
 16 10  1  0  0  0  0
 17  9  1  0  0  0  0
 18 15  1  0  0  0  0
 18  8  2  0  0  0  0
 19 22  2  0  0  0  0
 20 23  1  0  0  0  0
 21 22  1  0  0  0  0
 22 20  1  0  0  0  0
 23 26  1  0  0  0  0
 25 24  1  0  0  0  0
 26 28  1  0  0  0  0
 26 25  1  0  0  0  0
 27 23  1  0  0  0  0
 27 29  1  0  0  0  0
 29 30  1  0  0  0  0
 29 25  2  0  0  0  0
 31 30  1  0  0  0  0
 32 33  1  0  0  0  0
 33 14  1  0  0  0  0
 34  2  1  0  0  0  0
 35 34  1  0  0  0  0
 35 36  1  0  0  0  0
 36 37  1  0  0  0  0
 37 38  1  0  0  0  0
 38 39  1  0  0  0  0
 39 40  1  0  0  0  0
 40 61  1  0  0  0  0
 40 41  1  0  0  0  0
 41 44  1  0  0  0  0
 42 46  1  0  0  0  0
 42 44  2  0  0  0  0
 44 43  1  0  0  0  0
 45 49  1  0  0  0  0
 45 43  1  0  0  0  0
 46 45  1  0  0  0  0
 47 48  2  0  0  0  0
 48 46  1  0  0  0  0
 50 53  1  0  0  0  0
 50 52  1  0  0  0  0
 52 49  1  0  0  0  0
 52 55  1  0  0  0  0
 53 54  1  0  0  0  0
 54 55  1  0  0  0  0
 54 51  1  0  0  0  0
 55 51  1  0  0  0  0
 57 58  2  0  0  0  0
 58 53  1  0  0  0  0
 58 56  2  0  0  0  0
 59 60  1  0  0  0  0
 60 58  1  0  0  0  0
 61 62  1  0  0  0  0
 62 65  1  0  0  0  0
 63 62  2  0  0  0  0
 65 64  1  0  0  0  0
M  END
>  <MODEL>
6

>  <REMARK>
 VINA RESULT:      -4.3      2.850      8.307
  Name = 
  21 active torsions:
  status: ('A' for Active; 'I' for Inactive)
    1  A    between atoms: N_8  and  C_44
    2  A    between atoms: C_9  and  N_35
    3  A    between atoms: C_11  and  C_34
    4  A    between atoms: S_12  and  N_24
    5  A    between atoms: S_12  and  C_57
    6  A    between atoms: C_14  and  C_16
    7  A    between atoms: C_18  and  N_27
    8  A    between atoms: C_20  and  C_42
    9  A    between atoms: C_20  and  C_44
   10  A    between atoms: O_21  and  C_42
   11  A    between atoms: C_23  and  C_45
   12  A    between atoms: C_23  and  C_48
   13  A    between atoms: C_26  and  C_44
   14  A    between atoms: C_26  and  C_48
   15  A    between atoms: N_27  and  C_52
   16  A    between atoms: C_29  and  N_58
   17  A    between atoms: C_34  and  C_47
   18  A    between atoms: C_39  and  C_62
   19  A    between atoms: O_41  and  C_60
   20  A    between atoms: C_45  and  C_47
   21  A    between atoms: C_54  and  C_59
                            x       y       z     vdW  Elec       q    Type
                         _______ _______ _______ _____ _____    ______ ____

>  <TORSDO>
F 21

$$$$
=
 OpenBabel11042418063D

 65 73  0  0  1  0  0  0  0  0999 V2000
  194.4290  174.5540  142.1940 C   0  0  2  0  0  3  0  0  0  0  0  0
  195.5240  175.2280  143.0270 C   0  0  2  0  0  3  0  0  0  0  0  0
  194.8510  174.1110  140.7900 C   0  0  2  0  0  3  0  0  0  0  0  0
  194.9870  176.5120  140.8400 C   0  0  0  0  0  2  0  0  0  0  0  0
  194.5240  176.0760  142.2290 C   0  0  1  0  0  3  0  0  0  0  0  0
  194.7310  175.3450  139.9160 C   0  0  0  0  0  2  0  0  0  0  0  0
  192.6380  172.9050  140.6000 C   0  0  0  0  0  3  0  0  0  0  0  0
  191.9620  171.7900  140.1470 C   0  0  0  0  0  0  0  0  0  0  0  0
  194.0230  172.9510  140.2870 C   0  0  0  0  0  0  0  0  0  0  0  0
  189.7250  171.9960  139.1630 C   0  0  1  0  0  3  0  0  0  0  0  0
  193.9360  170.7290  139.1320 C   0  0  0  0  0  3  0  0  0  0  0  0
  190.6350  171.1190  140.0350 C   0  0  1  0  0  3  0  0  0  0  0  0
  189.7540  170.3010  137.3930 C   0  0  0  0  0  3  0  0  0  0  0  0
  190.8760  169.7620  137.8940 C   0  0  0  0  0  0  0  0  0  0  0  0
  191.2940  169.9990  139.3370 C   0  0  1  0  0  3  0  0  0  0  0  0
  188.8600  171.1380  138.2540 C   0  0  0  0  0  2  0  0  0  0  0  0
  194.6510  171.8650  139.5840 C   0  0  0  0  0  3  0  0  0  0  0  0
  192.5880  170.7380  139.4320 C   0  0  0  0  0  0  0  0  0  0  0  0
  189.2450  174.7620  138.7440 O   0  0  0  0  0  0  0  0  0  0  0  0
  187.8650  174.9920  140.6120 N   0  0  0  0  0  2  0  0  0  0  0  0
  188.8900  172.8340  140.0080 N   0  0  0  0  0  2  0  0  0  0  0  0
  188.6910  174.2210  139.7390 C   0  0  0  0  0  0  0  0  0  0  0  0
  187.6560  176.4210  140.4280 C   0  0  1  0  0  3  0  0  0  0  0  0
  184.2110  177.6380  139.7790 O   0  0  0  0  0  1  0  0  0  0  0  0
  185.4670  177.2860  140.2530 C   0  0  0  0  0  0  0  0  0  0  0  0
  186.5200  176.6420  139.4200 C   0  0  1  0  0  3  0  0  0  0  0  0
  187.1820  176.9960  141.6380 O   0  0  0  0  0  0  0  0  0  0  0  0
  186.9630  177.5720  138.3940 N   0  0  0  0  0  1  0  0  0  0  0  0
  185.8940  177.4710  141.4890 C   0  0  0  0  0  0  0  0  0  0  0  0
  185.1870  178.0550  142.5470 O   0  0  0  0  0  0  0  0  0  0  0  0
  183.7740  178.0090  142.6710 C   0  0  0  0  0  1  0  0  0  0  0  0
  191.6440  169.3370  135.6410 N   0  0  0  0  0  1  0  0  0  0  0  0
  191.7280  168.8940  137.0220 C   0  0  0  0  0  2  0  0  0  0  0  0
  196.9400  175.1910  142.4340 C   0  0  0  0  0  2  0  0  0  0  0  0
  197.9400  174.6570  143.4500 C   0  0  0  0  0  2  0  0  0  0  0  0
  197.4120  173.4190  144.1610 C   0  0  0  0  0  2  0  0  0  0  0  0
  196.9830  172.3440  143.1720 C   0  0  0  0  0  2  0  0  0  0  0  0
  197.0440  170.9530  143.7910 C   0  0  0  0  0  2  0  0  0  0  0  0
  196.1780  170.8970  145.0470 C   0  0  0  0  0  2  0  0  0  0  0  0
  194.6970  171.1180  144.7510 C   0  0  1  0  0  3  0  0  0  0  0  0
  194.2920  172.4760  145.1040 N   0  0  0  0  0  2  0  0  0  0  0  0
  191.9970  172.1370  144.6050 N   0  0  0  0  0  0  0  0  0  0  0  0
  192.4740  174.5820  145.4290 S   0  0  0  0  0  0  0  0  0  0  0  0
  192.9360  172.9170  145.0130 C   0  0  0  0  0  0  0  0  0  0  0  0
  190.8310  174.2530  144.7120 C   0  0  1  0  0  3  0  0  0  0  0  0
  190.6780  172.7380  144.5560 C   0  0  1  0  0  3  0  0  0  0  0  0
  188.6530  172.2880  143.1970 C   0  0  0  0  0  2  0  0  0  0  0  0
  189.9800  172.3740  143.2790 C   0  0  0  0  0  3  0  0  0  0  0  0
  189.8050  174.7670  145.6070 N   0  0  0  0  0  2  0  0  0  0  0  0
  189.1110  176.7470  146.8180 C   0  0  0  0  0  2  0  0  0  0  0  0
  188.0310  176.6130  144.2900 O   0  0  0  0  0  0  0  0  0  0  0  0
  189.9480  176.2140  145.6800 C   0  0  2  0  0  3  0  0  0  0  0  0
  188.3120  177.8540  146.3040 N   0  0  0  0  0  0  0  0  0  0  0  0
  188.4030  177.8610  144.8380 C   0  0  1  0  0  3  0  0  0  0  0  0
  189.4110  176.8640  144.4170 C   0  0  2  0  0  3  0  0  0  0  0  0
  186.2030  176.2300  146.4870 O   0  0  0  0  0  0  0  0  0  0  0  0
  186.5520  177.8550  148.2850 O   0  0  0  0  0  0  0  0  0  0  0  0
  186.6590  177.6280  146.8030 S   0  0  0  0  0  0  0  0  0  0  0  0
  184.4730  179.0480  146.7400 O   0  0  0  0  0  1  0  0  0  0  0  0
  185.6020  178.7900  145.9630 C   0  0  0  0  0  2  0  0  0  0  0  0
  194.3900  170.8210  143.2860 C   0  0  0  0  0  2  0  0  0  0  0  0
  193.9110  169.4200  143.1180 C   0  0  0  0  0  0  0  0  0  0  0  0
  192.6940  169.1500  143.3160 O   0  0  0  0  0  0  0  0  0  0  0  0
  195.7240  168.6070  141.6720 C   0  0  0  0  0  1  0  0  0  0  0  0
  194.8150  168.4270  142.7470 O   0  0  0  0  0  0  0  0  0  0  0  0
  1  5  1  0  0  0  0
  1  2  1  0  0  0  0
  3  1  1  0  0  0  0
  4  5  1  0  0  0  0
  5  2  1  0  0  0  0
  6  3  1  0  0  0  0
  6  4  1  0  0  0  0
  8  7  2  0  0  0  0
  9  7  1  0  0  0  0
  9  3  1  0  0  0  0
 10 21  1  0  0  0  0
 10 12  1  0  0  0  0
 11 18  2  0  0  0  0
 11 17  1  0  0  0  0
 12  8  1  0  0  0  0
 13 14  2  0  0  0  0
 13 16  1  0  0  0  0
 14 15  1  0  0  0  0
 15 18  1  0  0  0  0
 15 12  1  0  0  0  0
 16 10  1  0  0  0  0
 17  9  2  0  0  0  0
 18  8  1  0  0  0  0
 19 22  2  0  0  0  0
 22 21  1  0  0  0  0
 22 20  1  0  0  0  0
 23 20  1  0  0  0  0
 23 27  1  0  0  0  0
 24 25  1  0  0  0  0
 25 29  2  0  0  0  0
 26 25  1  0  0  0  0
 26 23  1  0  0  0  0
 28 26  1  0  0  0  0
 29 27  1  0  0  0  0
 29 30  1  0  0  0  0
 30 31  1  0  0  0  0
 32 33  1  0  0  0  0
 33 14  1  0  0  0  0
 34  2  1  0  0  0  0
 34 35  1  0  0  0  0
 35 36  1  0  0  0  0
 37 38  1  0  0  0  0
 37 36  1  0  0  0  0
 38 39  1  0  0  0  0
 40 39  1  0  0  0  0
 40 41  1  0  0  0  0
 42 44  2  0  0  0  0
 44 41  1  0  0  0  0
 44 43  1  0  0  0  0
 45 43  1  0  0  0  0
 45 49  1  0  0  0  0
 46 42  1  0  0  0  0
 46 45  1  0  0  0  0
 47 48  2  0  0  0  0
 48 46  1  0  0  0  0
 49 52  1  0  0  0  0
 51 55  1  0  0  0  0
 51 54  1  0  0  0  0
 52 50  1  0  0  0  0
 53 58  1  0  0  0  0
 53 50  1  0  0  0  0
 54 53  1  0  0  0  0
 55 54  1  0  0  0  0
 55 52  1  0  0  0  0
 56 58  2  0  0  0  0
 58 57  2  0  0  0  0
 60 59  1  0  0  0  0
 60 58  1  0  0  0  0
 61 40  1  0  0  0  0
 62 61  1  0  0  0  0
 62 63  2  0  0  0  0
 64 65  1  0  0  0  0
 65 62  1  0  0  0  0
M  END
>  <MODEL>
7

>  <REMARK>
 VINA RESULT:      -4.2      3.384      8.982
  Name = 
  21 active torsions:
  status: ('A' for Active; 'I' for Inactive)
    1  A    between atoms: N_8  and  C_44
    2  A    between atoms: C_9  and  N_35
    3  A    between atoms: C_11  and  C_34
    4  A    between atoms: S_12  and  N_24
    5  A    between atoms: S_12  and  C_57
    6  A    between atoms: C_14  and  C_16
    7  A    between atoms: C_18  and  N_27
    8  A    between atoms: C_20  and  C_42
    9  A    between atoms: C_20  and  C_44
   10  A    between atoms: O_21  and  C_42
   11  A    between atoms: C_23  and  C_45
   12  A    between atoms: C_23  and  C_48
   13  A    between atoms: C_26  and  C_44
   14  A    between atoms: C_26  and  C_48
   15  A    between atoms: N_27  and  C_52
   16  A    between atoms: C_29  and  N_58
   17  A    between atoms: C_34  and  C_47
   18  A    between atoms: C_39  and  C_62
   19  A    between atoms: O_41  and  C_60
   20  A    between atoms: C_45  and  C_47
   21  A    between atoms: C_54  and  C_59
                            x       y       z     vdW  Elec       q    Type
                         _______ _______ _______ _____ _____    ______ ____

>  <TORSDO>
F 21

$$$$
=
 OpenBabel11042418063D

 65 73  0  0  1  0  0  0  0  0999 V2000
  190.7450  172.3740  143.0320 C   0  0  2  0  0  3  0  0  0  0  0  0
  191.5680  171.6220  144.0820 C   0  0  2  0  0  3  0  0  0  0  0  0
  191.5590  173.1380  141.9840 C   0  0  2  0  0  3  0  0  0  0  0  0
  191.9970  174.1780  144.1090 C   0  0  0  0  0  2  0  0  0  0  0  0
  191.0290  173.0270  144.3810 C   0  0  1  0  0  3  0  0  0  0  0  0
  191.9170  174.4650  142.6280 C   0  0  0  0  0  2  0  0  0  0  0  0
  189.4750  173.8010  140.7170 C   0  0  0  0  0  3  0  0  0  0  0  0
  188.8360  173.8710  139.4950 C   0  0  0  0  0  0  0  0  0  0  0  0
  190.8040  173.3000  140.6850 C   0  0  0  0  0  0  0  0  0  0  0  0
  187.4630  175.8190  138.9120 C   0  0  1  0  0  3  0  0  0  0  0  0
  190.7140  172.9430  138.2060 C   0  0  0  0  0  3  0  0  0  0  0  0
  187.5980  174.2950  138.7790 C   0  0  1  0  0  3  0  0  0  0  0  0
  187.8950  176.0870  136.5140 C   0  0  0  0  0  3  0  0  0  0  0  0
  188.4700  174.8760  136.4580 C   0  0  0  0  0  0  0  0  0  0  0  0
  188.2020  173.8200  137.5200 C   0  0  1  0  0  3  0  0  0  0  0  0
  186.9450  176.4290  137.6200 C   0  0  0  0  0  2  0  0  0  0  0  0
  191.3920  172.8630  139.4470 C   0  0  0  0  0  3  0  0  0  0  0  0
  189.4370  173.4620  138.2780 C   0  0  0  0  0  0  0  0  0  0  0  0
  188.1600  177.4070  141.1590 O   0  0  0  0  0  0  0  0  0  0  0  0
  186.0650  177.2200  142.1710 N   0  0  0  0  0  2  0  0  0  0  0  0
  186.5710  176.1400  140.0140 N   0  0  0  0  0  2  0  0  0  0  0  0
  186.9870  176.9470  141.1150 C   0  0  0  0  0  0  0  0  0  0  0  0
  186.4330  177.9930  143.3470 C   0  0  1  0  0  3  0  0  0  0  0  0
  184.4200  177.5850  146.4380 O   0  0  0  0  0  1  0  0  0  0  0  0
  185.3510  177.6050  145.4080 C   0  0  0  0  0  0  0  0  0  0  0  0
  185.1660  178.3550  144.1350 C   0  0  1  0  0  3  0  0  0  0  0  0
  187.1920  177.1830  144.2360 O   0  0  0  0  0  0  0  0  0  0  0  0
  185.1630  179.7820  144.4080 N   0  0  0  0  0  1  0  0  0  0  0  0
  186.5100  176.9720  145.4170 C   0  0  0  0  0  0  0  0  0  0  0  0
  187.0280  176.1770  146.4460 O   0  0  0  0  0  0  0  0  0  0  0  0
  188.4030  176.1420  146.7990 C   0  0  0  0  0  1  0  0  0  0  0  0
  190.4020  175.5730  135.1820 N   0  0  0  0  0  1  0  0  0  0  0  0
  189.3820  174.5480  135.3180 C   0  0  0  0  0  2  0  0  0  0  0  0
  193.0820  171.5610  143.8350 C   0  0  0  0  0  2  0  0  0  0  0  0
  193.6880  170.3240  144.4810 C   0  0  0  0  0  2  0  0  0  0  0  0
  194.2690  170.6340  145.8530 C   0  0  0  0  0  2  0  0  0  0  0  0
  195.7360  170.2380  145.9440 C   0  0  0  0  0  2  0  0  0  0  0  0
  196.4720  170.4970  144.6360 C   0  0  0  0  0  2  0  0  0  0  0  0
  197.3650  171.7280  144.7690 C   0  0  0  0  0  2  0  0  0  0  0  0
  197.3820  172.5830  143.5050 C   0  0  1  0  0  3  0  0  0  0  0  0
  197.6380  171.7640  142.3240 N   0  0  0  0  0  2  0  0  0  0  0  0
  197.0540  173.4610  140.7720 N   0  0  0  0  0  0  0  0  0  0  0  0
  197.7590  171.2340  139.5760 S   0  0  0  0  0  0  0  0  0  0  0  0
  197.4590  172.2600  140.9960 C   0  0  0  0  0  0  0  0  0  0  0  0
  196.9870  172.5220  138.5430 C   0  0  1  0  0  3  0  0  0  0  0  0
  196.9110  173.8080  139.3700 C   0  0  1  0  0  3  0  0  0  0  0  0
  194.6760  174.6220  140.0720 C   0  0  0  0  0  2  0  0  0  0  0  0
  195.6250  174.5460  139.1390 C   0  0  0  0  0  3  0  0  0  0  0  0
  197.8040  172.7410  137.3580 N   0  0  0  0  0  2  0  0  0  0  0  0
  195.5160  172.4270  136.6260 C   0  0  0  0  0  2  0  0  0  0  0  0
  197.1870  170.4060  135.7900 O   0  0  0  0  0  0  0  0  0  0  0  0
  196.9260  172.7580  136.1980 C   0  0  2  0  0  3  0  0  0  0  0  0
  195.0150  171.3810  135.7410 N   0  0  0  0  0  0  0  0  0  0  0  0
  196.1370  170.8490  134.9550 C   0  0  1  0  0  3  0  0  0  0  0  0
  197.3340  171.6800  135.2080 C   0  0  2  0  0  3  0  0  0  0  0  0
  194.7360  168.7700  136.2070 O   0  0  0  0  0  0  0  0  0  0  0  0
  194.7580  170.2780  138.1360 O   0  0  0  0  0  0  0  0  0  0  0  0
  194.3070  170.1210  136.7110 S   0  0  0  0  0  0  0  0  0  0  0  0
  191.9760  169.4270  137.6510 O   0  0  0  0  0  1  0  0  0  0  0  0
  192.5300  170.2280  136.6530 C   0  0  0  0  0  2  0  0  0  0  0  0
  196.0720  173.3540  143.3590 C   0  0  0  0  0  2  0  0  0  0  0  0
  196.2040  174.7320  143.9120 C   0  0  0  0  0  0  0  0  0  0  0  0
  195.3950  175.1300  144.7940 O   0  0  0  0  0  0  0  0  0  0  0  0
  197.0670  176.3400  142.2660 C   0  0  0  0  0  1  0  0  0  0  0  0
  197.2200  175.5630  143.4440 O   0  0  0  0  0  0  0  0  0  0  0  0
  1  2  1  0  0  0  0
  1  5  1  0  0  0  0
  2  5  1  0  0  0  0
  3  6  1  0  0  0  0
  3  1  1  0  0  0  0
  4  5  1  0  0  0  0
  6  4  1  0  0  0  0
  8  7  2  0  0  0  0
  9  7  1  0  0  0  0
  9  3  1  0  0  0  0
 10 21  1  0  0  0  0
 11 18  2  0  0  0  0
 11 17  1  0  0  0  0
 12 10  1  0  0  0  0
 12  8  1  0  0  0  0
 13 16  1  0  0  0  0
 14 13  2  0  0  0  0
 14 15  1  0  0  0  0
 15 18  1  0  0  0  0
 15 12  1  0  0  0  0
 16 10  1  0  0  0  0
 17  9  2  0  0  0  0
 18  8  1  0  0  0  0
 20 23  1  0  0  0  0
 21 22  1  0  0  0  0
 22 19  2  0  0  0  0
 22 20  1  0  0  0  0
 23 26  1  0  0  0  0
 23 27  1  0  0  0  0
 25 29  2  0  0  0  0
 25 24  1  0  0  0  0
 26 28  1  0  0  0  0
 26 25  1  0  0  0  0
 27 29  1  0  0  0  0
 29 30  1  0  0  0  0
 30 31  1  0  0  0  0
 32 33  1  0  0  0  0
 33 14  1  0  0  0  0
 34  2  1  0  0  0  0
 34 35  1  0  0  0  0
 35 36  1  0  0  0  0
 36 37  1  0  0  0  0
 38 39  1  0  0  0  0
 38 37  1  0  0  0  0
 40 39  1  0  0  0  0
 41 40  1  0  0  0  0
 42 44  2  0  0  0  0
 43 44  1  0  0  0  0
 44 41  1  0  0  0  0
 45 46  1  0  0  0  0
 45 43  1  0  0  0  0
 46 42  1  0  0  0  0
 48 46  1  0  0  0  0
 48 47  2  0  0  0  0
 49 45  1  0  0  0  0
 52 50  1  0  0  0  0
 52 49  1  0  0  0  0
 53 50  1  0  0  0  0
 53 58  1  0  0  0  0
 54 55  1  0  0  0  0
 54 53  1  0  0  0  0
 54 51  1  0  0  0  0
 55 51  1  0  0  0  0
 55 52  1  0  0  0  0
 56 58  2  0  0  0  0
 58 57  2  0  0  0  0
 60 58  1  0  0  0  0
 60 59  1  0  0  0  0
 61 40  1  0  0  0  0
 61 62  1  0  0  0  0
 62 63  2  0  0  0  0
 64 65  1  0  0  0  0
 65 62  1  0  0  0  0
M  END
>  <MODEL>
8

>  <REMARK>
 VINA RESULT:      -4.1      3.129      6.487
  Name = 
  21 active torsions:
  status: ('A' for Active; 'I' for Inactive)
    1  A    between atoms: N_8  and  C_44
    2  A    between atoms: C_9  and  N_35
    3  A    between atoms: C_11  and  C_34
    4  A    between atoms: S_12  and  N_24
    5  A    between atoms: S_12  and  C_57
    6  A    between atoms: C_14  and  C_16
    7  A    between atoms: C_18  and  N_27
    8  A    between atoms: C_20  and  C_42
    9  A    between atoms: C_20  and  C_44
   10  A    between atoms: O_21  and  C_42
   11  A    between atoms: C_23  and  C_45
   12  A    between atoms: C_23  and  C_48
   13  A    between atoms: C_26  and  C_44
   14  A    between atoms: C_26  and  C_48
   15  A    between atoms: N_27  and  C_52
   16  A    between atoms: C_29  and  N_58
   17  A    between atoms: C_34  and  C_47
   18  A    between atoms: C_39  and  C_62
   19  A    between atoms: O_41  and  C_60
   20  A    between atoms: C_45  and  C_47
   21  A    between atoms: C_54  and  C_59
                            x       y       z     vdW  Elec       q    Type
                         _______ _______ _______ _____ _____    ______ ____

>  <TORSDO>
F 21

$$$$
=
 OpenBabel11042418063D

 65 73  0  0  1  0  0  0  0  0999 V2000
  192.2710  169.5950  140.3140 C   0  0  2  0  0  3  0  0  0  0  0  0
  191.2500  170.2640  139.3890 C   0  0  2  0  0  3  0  0  0  0  0  0
  193.7260  169.6570  139.8410 C   0  0  2  0  0  3  0  0  0  0  0  0
  192.5250  168.3200  138.2420 C   0  0  0  0  0  2  0  0  0  0  0  0
  191.5070  168.7540  139.2950 C   0  0  1  0  0  3  0  0  0  0  0  0
  193.8900  168.5120  138.8600 C   0  0  0  0  0  2  0  0  0  0  0  0
  195.2350  170.7980  141.5180 C   0  0  0  0  0  3  0  0  0  0  0  0
  196.1570  170.6490  142.5340 C   0  0  0  0  0  0  0  0  0  0  0  0
  194.7020  169.5890  140.9920 C   0  0  0  0  0  0  0  0  0  0  0  0
  196.1060  172.1210  144.4950 C   0  0  1  0  0  3  0  0  0  0  0  0
  196.1060  168.1900  142.5250 C   0  0  0  0  0  3  0  0  0  0  0  0
  197.0180  171.3570  143.5240 C   0  0  1  0  0  3  0  0  0  0  0  0
  196.7520  170.6160  146.3190 C   0  0  0  0  0  3  0  0  0  0  0  0
  197.1540  169.6850  145.4400 C   0  0  0  0  0  0  0  0  0  0  0  0
  197.4940  170.0450  144.0020 C   0  0  1  0  0  3  0  0  0  0  0  0
  196.6500  172.0540  145.9130 C   0  0  0  0  0  2  0  0  0  0  0  0
  195.1560  168.3160  141.4820 C   0  0  0  0  0  3  0  0  0  0  0  0
  196.5760  169.3870  143.0260 C   0  0  0  0  0  0  0  0  0  0  0  0
  194.1120  173.9280  145.3990 O   0  0  0  0  0  0  0  0  0  0  0  0
  194.8800  175.7090  144.1010 N   0  0  0  0  0  2  0  0  0  0  0  0
  195.9820  173.5050  144.0690 N   0  0  0  0  0  2  0  0  0  0  0  0
  194.9530  174.3610  144.5650 C   0  0  0  0  0  0  0  0  0  0  0  0
  193.8300  176.6240  144.5260 C   0  0  1  0  0  3  0  0  0  0  0  0
  190.3670  175.3260  144.8340 O   0  0  0  0  0  1  0  0  0  0  0  0
  191.6600  175.8130  144.9740 C   0  0  0  0  0  0  0  0  0  0  0  0
  192.5140  176.2440  143.8330 C   0  0  1  0  0  3  0  0  0  0  0  0
  193.5730  176.4480  145.9130 O   0  0  0  0  0  0  0  0  0  0  0  0
  191.9380  177.4270  143.2160 N   0  0  0  0  0  1  0  0  0  0  0  0
  192.2990  175.9560  146.1200 C   0  0  0  0  0  0  0  0  0  0  0  0
  191.8120  175.6640  147.4010 O   0  0  0  0  0  0  0  0  0  0  0  0
  191.6790  176.6290  148.4330 C   0  0  0  0  0  1  0  0  0  0  0  0
  197.0970  168.1680  147.3230 N   0  0  0  0  0  1  0  0  0  0  0  0
  197.2860  168.2620  145.8860 C   0  0  0  0  0  2  0  0  0  0  0  0
  191.8300  171.0800  138.2240 C   0  0  0  0  0  2  0  0  0  0  0  0
  191.6550  172.5720  138.4660 C   0  0  0  0  0  2  0  0  0  0  0  0
  190.7500  173.2090  137.4220 C   0  0  0  0  0  2  0  0  0  0  0  0
  189.2780  172.9670  137.7310 C   0  0  0  0  0  2  0  0  0  0  0  0
  189.0470  172.7330  139.2180 C   0  0  0  0  0  2  0  0  0  0  0  0
  188.9420  174.0680  139.9520 C   0  0  0  0  0  2  0  0  0  0  0  0
  190.0070  174.2320  141.0330 C   0  0  1  0  0  3  0  0  0  0  0  0
  189.6060  175.2390  142.0110 N   0  0  0  0  0  2  0  0  0  0  0  0
  187.6540  175.8960  140.8330 N   0  0  0  0  0  0  0  0  0  0  0  0
  187.9700  177.2610  143.0510 S   0  0  0  0  0  0  0  0  0  0  0  0
  188.4250  176.0280  141.8540 C   0  0  0  0  0  0  0  0  0  0  0  0
  186.7030  177.8560  141.8840 C   0  0  1  0  0  3  0  0  0  0  0  0
  186.5030  176.7790  140.8140 C   0  0  1  0  0  3  0  0  0  0  0  0
  187.0900  177.0330  138.4180 C   0  0  0  0  0  2  0  0  0  0  0  0
  186.3180  177.3740  139.4500 C   0  0  0  0  0  3  0  0  0  0  0  0
  185.4570  178.0810  142.6020 N   0  0  0  0  0  2  0  0  0  0  0  0
  186.6540  178.6840  144.6200 C   0  0  0  0  0  2  0  0  0  0  0  0
  183.9540  178.3530  145.0430 O   0  0  0  0  0  0  0  0  0  0  0  0
  185.6750  179.1480  143.5680 C   0  0  2  0  0  3  0  0  0  0  0  0
  186.0760  178.9780  145.9270 N   0  0  0  0  0  0  0  0  0  0  0  0
  184.6660  179.3500  145.7480 C   0  0  1  0  0  3  0  0  0  0  0  0
  184.3840  179.4710  144.3010 C   0  0  2  0  0  3  0  0  0  0  0  0
  185.6870  177.8400  148.3080 O   0  0  0  0  0  0  0  0  0  0  0  0
  185.3860  176.4490  146.3160 O   0  0  0  0  0  0  0  0  0  0  0  0
  186.2010  177.5560  146.9240 S   0  0  0  0  0  0  0  0  0  0  0  0
  188.0120  175.7060  146.6070 O   0  0  0  0  0  1  0  0  0  0  0  0
  187.9000  177.0300  147.0300 C   0  0  0  0  0  2  0  0  0  0  0  0
  190.2950  172.8960  141.7120 C   0  0  0  0  0  2  0  0  0  0  0  0
  191.6270  172.9180  142.3800 C   0  0  0  0  0  0  0  0  0  0  0  0
  192.6250  173.3820  141.7650 O   0  0  0  0  0  0  0  0  0  0  0  0
  192.4820  171.2390  143.9580 C   0  0  0  0  0  1  0  0  0  0  0  0
  191.7500  172.4220  143.6770 O   0  0  0  0  0  0  0  0  0  0  0  0
  2  1  1  0  0  0  0
  3  1  1  0  0  0  0
  3  9  1  0  0  0  0
  4  6  1  0  0  0  0
  4  5  1  0  0  0  0
  5  2  1  0  0  0  0
  5  1  1  0  0  0  0
  6  3  1  0  0  0  0
  7  8  1  0  0  0  0
  8 18  2  0  0  0  0
  8 12  1  0  0  0  0
  9 17  1  0  0  0  0
  9  7  2  0  0  0  0
 10 16  1  0  0  0  0
 11 18  1  0  0  0  0
 12 15  1  0  0  0  0
 12 10  1  0  0  0  0
 14 33  1  0  0  0  0
 14 13  2  0  0  0  0
 15 14  1  0  0  0  0
 16 13  1  0  0  0  0
 17 11  2  0  0  0  0
 18 15  1  0  0  0  0
 20 23  1  0  0  0  0
 20 22  1  0  0  0  0
 21 10  1  0  0  0  0
 21 22  1  0  0  0  0
 22 19  2  0  0  0  0
 23 27  1  0  0  0  0
 24 25  1  0  0  0  0
 25 29  2  0  0  0  0
 26 23  1  0  0  0  0
 26 25  1  0  0  0  0
 27 29  1  0  0  0  0
 28 26  1  0  0  0  0
 29 30  1  0  0  0  0
 30 31  1  0  0  0  0
 33 32  1  0  0  0  0
 34 35  1  0  0  0  0
 34  2  1  0  0  0  0
 36 37  1  0  0  0  0
 36 35  1  0  0  0  0
 37 38  1  0  0  0  0
 38 39  1  0  0  0  0
 39 40  1  0  0  0  0
 40 61  1  0  0  0  0
 40 41  1  0  0  0  0
 42 44  2  0  0  0  0
 44 41  1  0  0  0  0
 44 43  1  0  0  0  0
 45 49  1  0  0  0  0
 45 43  1  0  0  0  0
 46 42  1  0  0  0  0
 46 45  1  0  0  0  0
 47 48  2  0  0  0  0
 48 46  1  0  0  0  0
 49 52  1  0  0  0  0
 50 53  1  0  0  0  0
 51 54  1  0  0  0  0
 52 55  1  0  0  0  0
 52 50  1  0  0  0  0
 53 58  1  0  0  0  0
 54 53  1  0  0  0  0
 55 51  1  0  0  0  0
 55 54  1  0  0  0  0
 57 58  2  0  0  0  0
 58 60  1  0  0  0  0
 58 56  2  0  0  0  0
 59 60  1  0  0  0  0
 61 62  1  0  0  0  0
 62 65  1  0  0  0  0
 63 62  2  0  0  0  0
 65 64  1  0  0  0  0
M  END
>  <MODEL>
9

>  <REMARK>
 VINA RESULT:      -3.9      3.540     10.430
  Name = 
  21 active torsions:
  status: ('A' for Active; 'I' for Inactive)
    1  A    between atoms: N_8  and  C_44
    2  A    between atoms: C_9  and  N_35
    3  A    between atoms: C_11  and  C_34
    4  A    between atoms: S_12  and  N_24
    5  A    between atoms: S_12  and  C_57
    6  A    between atoms: C_14  and  C_16
    7  A    between atoms: C_18  and  N_27
    8  A    between atoms: C_20  and  C_42
    9  A    between atoms: C_20  and  C_44
   10  A    between atoms: O_21  and  C_42
   11  A    between atoms: C_23  and  C_45
   12  A    between atoms: C_23  and  C_48
   13  A    between atoms: C_26  and  C_44
   14  A    between atoms: C_26  and  C_48
   15  A    between atoms: N_27  and  C_52
   16  A    between atoms: C_29  and  N_58
   17  A    between atoms: C_34  and  C_47
   18  A    between atoms: C_39  and  C_62
   19  A    between atoms: O_41  and  C_60
   20  A    between atoms: C_45  and  C_47
   21  A    between atoms: C_54  and  C_59
                            x       y       z     vdW  Elec       q    Type
                         _______ _______ _______ _____ _____    ______ ____

>  <TORSDO>
F 21

$$$$
