=
 OpenBabel11042416173D

 33 38  0  0  1  0  0  0  0  0999 V2000
  190.1320  173.3270  144.2230 C   0  0  2  0  0  3  0  0  0  0  0  0
  189.1990  174.7000  141.8060 N   0  0  0  0  0  0  0  0  0  0  0  0
  189.8960  172.6170  142.9290 C   0  0  0  0  0  0  0  0  0  0  0  0
  189.3770  177.7330  143.8400 N   0  0  1  0  0  0  0  0  0  0  0  0
  189.6640  172.4370  145.3620 C   0  0  0  0  0  1  0  0  0  0  0  0
  189.7710  172.4930  139.4150 C   0  0  0  0  0  3  0  0  0  0  0  0
  189.4060  173.2920  141.8230 C   0  0  0  0  0  0  0  0  0  0  0  0
  189.7900  177.1820  145.1600 C   0  0  2  0  0  3  0  0  0  0  0  0
  189.6390  172.4370  140.7840 C   0  0  0  0  0  0  0  0  0  0  0  0
  190.7310  170.6060  140.3380 N   0  0  0  0  0  2  0  0  0  0  0  0
  189.2630  175.3810  142.9150 C   0  0  0  0  0  0  0  0  0  0  0  0
  188.9980  176.7790  142.8700 N   0  0  0  0  0  2  0  0  0  0  0  0
  190.1750  171.3480  141.2670 N   0  0  0  0  0  0  0  0  0  0  0  0
  190.0490  175.6550  145.2650 C   0  0  2  0  0  3  0  0  0  0  0  0
  188.4280  177.7320  144.9970 C   0  0  2  0  0  3  0  0  0  0  0  0
  190.4270  171.4170  142.5640 N   0  0  0  0  0  0  0  0  0  0  0  0
  190.4370  171.2690  139.1870 C   0  0  0  0  0  0  0  0  0  0  0  0
  190.8710  170.7960  137.8460 C   0  0  0  0  0  1  0  0  0  0  0  0
  189.3960  174.7010  144.2610 C   0  0  2  0  0  3  0  0  0  0  0  0
  188.6080  174.9290  147.1850 O   0  0  0  0  0  0  0  0  0  0  0  0
  189.8740  175.2110  146.6830 C   0  0  0  0  0  0  0  0  0  0  0  0
  190.8790  175.1130  147.4350 O   0  0  0  0  0  1  0  0  0  0  0  0
  187.2950  176.6970  144.9440 C   0  0  0  0  0  2  0  0  0  0  0  0
  184.4710  178.1360  146.7650 O   0  0  0  0  0  0  0  0  0  0  0  0
  186.0050  177.3370  145.1890 N   0  0  0  0  0  0  0  0  0  0  0  0
  186.5150  177.4550  147.6170 N   0  0  0  0  0  1  0  0  0  0  0  0
  185.6130  177.6600  146.5320 C   0  0  0  0  0  0  0  0  0  0  0  0
  185.4960  176.8860  142.8700 N   0  0  0  0  0  2  0  0  0  0  0  0
  184.6480  178.5210  140.9080 O   0  0  0  0  0  0  0  0  0  0  0  0
  187.0630  178.6820  141.6210 O   0  0  0  0  0  0  0  0  0  0  0  0
  185.1420  179.0180  143.5660 C   0  0  0  0  0  2  0  0  0  0  0  0
  185.0600  177.5790  144.0920 C   0  0  2  0  0  3  0  0  0  0  0  0
  185.6480  178.3740  142.0190 S   0  0  0  0  0  0  0  0  0  0  0  0
  1 19  1  0  0  0  0
  1  5  1  1  0  0  0
  2  7  1  0  0  0  0
  2 11  2  0  0  0  0
  3  1  1  0  0  0  0
  4 12  1  6  0  0  0
  4 15  1  0  0  0  0
  4  8  1  0  0  0  0
  6  9  1  0  0  0  0
  7  3  1  0  0  0  0
  8 14  1  0  0  0  0
  9 13  1  0  0  0  0
  9  7  2  0  0  0  0
 10 13  1  0  0  0  0
 11 19  1  0  0  0  0
 12 11  1  0  0  0  0
 13 16  1  0  0  0  0
 14 21  1  0  0  0  0
 15  8  1  0  0  0  0
 16  3  2  0  0  0  0
 17  6  2  0  0  0  0
 17 10  1  0  0  0  0
 18 17  1  0  0  0  0
 19 14  1  0  0  0  0
 21 20  2  0  0  0  0
 21 22  1  0  0  0  0
 23 15  1  0  0  0  0
 23 25  1  0  0  0  0
 25 27  1  0  0  0  0
 27 24  2  0  0  0  0
 27 26  1  0  0  0  0
 28 32  1  0  0  0  0
 29 33  2  0  0  0  0
 30 33  2  0  0  0  0
 31 32  1  0  0  0  0
 32 25  1  0  0  0  0
 33 28  1  0  0  0  0
 33 31  1  0  0  0  0
M  END
>  <MODEL>
1

>  <REMARK>
 VINA RESULT:      -7.8      0.000      0.000
  Name = 
  4 active torsions:
  status: ('A' for Active; 'I' for Inactive)
    1  A    between atoms: C_1  and  N_7
    2  A    between atoms: C_1  and  C_25
    3  A    between atoms: N_7  and  C_24
    4  A    between atoms: C_23  and  C_27
                            x       y       z     vdW  Elec       q    Type
                         _______ _______ _______ _____ _____    ______ ____

>  <TORSDO>
F 4

$$$$
=
 OpenBabel11042416173D

 33 38  0  0  1  0  0  0  0  0999 V2000
  190.1910  173.2250  143.8660 C   0  0  2  0  0  3  0  0  0  0  0  0
  189.4430  174.3180  141.2500 N   0  0  0  0  0  0  0  0  0  0  0  0
  190.0710  172.3790  142.6390 C   0  0  0  0  0  0  0  0  0  0  0  0
  189.4160  177.5500  142.9610 N   0  0  1  0  0  0  0  0  0  0  0  0
  189.6420  172.4490  145.0510 C   0  0  0  0  0  1  0  0  0  0  0  0
  190.2360  171.8870  139.1590 C   0  0  0  0  0  3  0  0  0  0  0  0
  189.6650  172.9250  141.4330 C   0  0  0  0  0  0  0  0  0  0  0  0
  189.7260  177.1490  144.3600 C   0  0  2  0  0  3  0  0  0  0  0  0
  189.9930  171.9720  140.5110 C   0  0  0  0  0  0  0  0  0  0  0  0
  191.1410  170.1270  140.3500 N   0  0  0  0  0  2  0  0  0  0  0  0
  189.4080  175.1130  142.2830 C   0  0  0  0  0  0  0  0  0  0  0  0
  189.1300  176.4920  142.0700 N   0  0  0  0  0  2  0  0  0  0  0  0
  190.5010  170.9500  141.1480 N   0  0  0  0  0  0  0  0  0  0  0  0
  189.9940  175.6460  144.6470 C   0  0  2  0  0  3  0  0  0  0  0  0
  188.3750  177.6490  144.0310 C   0  0  2  0  0  3  0  0  0  0  0  0
  190.6450  171.1590  142.4460 N   0  0  0  0  0  0  0  0  0  0  0  0
  190.9340  170.6600  139.1150 C   0  0  0  0  0  0  0  0  0  0  0  0
  191.4830  170.0590  137.8720 C   0  0  0  0  0  1  0  0  0  0  0  0
  189.4380  174.5800  143.7000 C   0  0  2  0  0  3  0  0  0  0  0  0
  190.7480  175.2040  146.9960 O   0  0  0  0  0  1  0  0  0  0  0  0
  189.7090  175.3480  146.0840 C   0  0  0  0  0  0  0  0  0  0  0  0
  188.5180  175.2050  146.4680 O   0  0  0  0  0  0  0  0  0  0  0  0
  187.2640  176.5910  143.9970 C   0  0  0  0  0  2  0  0  0  0  0  0
  184.4200  178.1410  142.3000 O   0  0  0  0  0  0  0  0  0  0  0  0
  185.9600  177.2230  143.8040 N   0  0  0  0  0  0  0  0  0  0  0  0
  186.2620  177.1140  141.3410 N   0  0  0  0  0  1  0  0  0  0  0  0
  185.5030  177.5220  142.4770 C   0  0  0  0  0  0  0  0  0  0  0  0
  185.6480  178.9030  145.5130 N   0  0  0  0  0  2  0  0  0  0  0  0
  185.1070  178.6590  148.1380 O   0  0  0  0  0  0  0  0  0  0  0  0
  187.4470  178.1300  147.3580 O   0  0  0  0  0  0  0  0  0  0  0  0
  185.3760  176.7490  146.1790 C   0  0  0  0  0  2  0  0  0  0  0  0
  185.1440  177.6400  144.9510 C   0  0  2  0  0  3  0  0  0  0  0  0
  185.9820  178.1560  147.0260 S   0  0  0  0  0  0  0  0  0  0  0  0
  1  5  1  1  0  0  0
  2  7  1  0  0  0  0
  2 11  2  0  0  0  0
  3  1  1  0  0  0  0
  4 12  1  6  0  0  0
  4 15  1  0  0  0  0
  4  8  1  0  0  0  0
  6  9  1  0  0  0  0
  7  3  1  0  0  0  0
  8 14  1  0  0  0  0
  9 13  1  0  0  0  0
  9  7  2  0  0  0  0
 10 13  1  0  0  0  0
 11 19  1  0  0  0  0
 12 11  1  0  0  0  0
 13 16  1  0  0  0  0
 14 21  1  0  0  0  0
 15  8  1  0  0  0  0
 16  3  2  0  0  0  0
 17  6  2  0  0  0  0
 17 10  1  0  0  0  0
 18 17  1  0  0  0  0
 19  1  1  0  0  0  0
 19 14  1  0  0  0  0
 21 22  2  0  0  0  0
 21 20  1  0  0  0  0
 23 15  1  0  0  0  0
 24 27  2  0  0  0  0
 25 23  1  0  0  0  0
 25 32  1  0  0  0  0
 26 27  1  0  0  0  0
 27 25  1  0  0  0  0
 28 33  1  0  0  0  0
 31 33  1  0  0  0  0
 32 28  1  0  0  0  0
 32 31  1  0  0  0  0
 33 30  2  0  0  0  0
 33 29  2  0  0  0  0
M  END
>  <MODEL>
2

>  <REMARK>
 VINA RESULT:      -7.5      1.396      2.665
  Name = 
  4 active torsions:
  status: ('A' for Active; 'I' for Inactive)
    1  A    between atoms: C_1  and  N_7
    2  A    between atoms: C_1  and  C_25
    3  A    between atoms: N_7  and  C_24
    4  A    between atoms: C_23  and  C_27
                            x       y       z     vdW  Elec       q    Type
                         _______ _______ _______ _____ _____    ______ ____

>  <TORSDO>
F 4

$$$$
=
 OpenBabel11042416173D

 33 38  0  0  1  0  0  0  0  0999 V2000
  187.4720  176.5430  145.5430 C   0  0  2  0  0  3  0  0  0  0  0  0
  188.0740  176.2710  142.6860 N   0  0  0  0  0  0  0  0  0  0  0  0
  186.7370  177.3010  144.4840 C   0  0  0  0  0  0  0  0  0  0  0  0
  190.5230  173.7770  143.7620 N   0  0  1  0  0  0  0  0  0  0  0  0
  187.6850  177.4550  146.7390 C   0  0  0  0  0  1  0  0  0  0  0  0
  185.4620  177.6700  141.2260 C   0  0  0  0  0  3  0  0  0  0  0  0
  187.0860  177.1830  143.1500 C   0  0  0  0  0  0  0  0  0  0  0  0
  190.3820  173.8410  145.2430 C   0  0  2  0  0  3  0  0  0  0  0  0
  186.0240  177.7230  142.4820 C   0  0  0  0  0  0  0  0  0  0  0  0
  183.9820  178.3910  142.8470 N   0  0  0  0  0  2  0  0  0  0  0  0
  188.8460  175.6590  143.5390 C   0  0  0  0  0  0  0  0  0  0  0  0
  189.8600  174.7940  143.0390 N   0  0  0  0  0  2  0  0  0  0  0  0
  185.1650  178.1550  143.3660 N   0  0  0  0  0  0  0  0  0  0  0  0
  189.3170  174.8040  145.8340 C   0  0  2  0  0  3  0  0  0  0  0  0
  191.6190  174.3440  144.6080 C   0  0  2  0  0  3  0  0  0  0  0  0
  185.5030  177.8640  144.6120 N   0  0  0  0  0  0  0  0  0  0  0  0
  184.1690  178.1540  141.5200 C   0  0  0  0  0  0  0  0  0  0  0  0
  183.0840  178.2930  140.5130 C   0  0  0  0  0  1  0  0  0  0  0  0
  188.8360  176.0040  145.0140 C   0  0  2  0  0  3  0  0  0  0  0  0
  190.6070  176.1920  147.4750 O   0  0  0  0  0  0  0  0  0  0  0  0
  189.6930  175.1730  147.2330 C   0  0  0  0  0  0  0  0  0  0  0  0
  189.1940  174.5410  148.2010 O   0  0  0  0  0  1  0  0  0  0  0  0
  191.7780  175.8710  144.5790 C   0  0  0  0  0  2  0  0  0  0  0  0
  195.1900  176.9010  145.3910 O   0  0  0  0  0  0  0  0  0  0  0  0
  193.1810  176.2350  144.3940 N   0  0  0  0  0  0  0  0  0  0  0  0
  193.4920  176.3220  146.8570 N   0  0  0  0  0  1  0  0  0  0  0  0
  194.0040  176.5060  145.5390 C   0  0  0  0  0  0  0  0  0  0  0  0
  192.7220  176.1710  142.0230 N   0  0  0  0  0  2  0  0  0  0  0  0
  194.1420  175.1330  139.9860 O   0  0  0  0  0  0  0  0  0  0  0  0
  192.9210  173.5370  141.5110 O   0  0  0  0  0  0  0  0  0  0  0  0
  194.7080  175.2830  142.6720 C   0  0  0  0  0  2  0  0  0  0  0  0
  193.7450  176.4160  143.0510 C   0  0  2  0  0  3  0  0  0  0  0  0
  193.6200  174.8590  141.3670 S   0  0  0  0  0  0  0  0  0  0  0  0
  1  5  1  1  0  0  0
  2  7  1  0  0  0  0
  2 11  2  0  0  0  0
  3 16  2  0  0  0  0
  3  1  1  0  0  0  0
  4 12  1  6  0  0  0
  4 15  1  0  0  0  0
  4  8  1  0  0  0  0
  6 17  2  0  0  0  0
  6  9  1  0  0  0  0
  7  3  1  0  0  0  0
  8 14  1  0  0  0  0
  9  7  2  0  0  0  0
  9 13  1  0  0  0  0
 10 13  1  0  0  0  0
 11 19  1  0  0  0  0
 12 11  1  0  0  0  0
 13 16  1  0  0  0  0
 14 21  1  0  0  0  0
 15  8  1  0  0  0  0
 17 10  1  0  0  0  0
 18 17  1  0  0  0  0
 19  1  1  0  0  0  0
 19 14  1  0  0  0  0
 21 20  2  0  0  0  0
 21 22  1  0  0  0  0
 23 15  1  0  0  0  0
 24 27  2  0  0  0  0
 25 23  1  0  0  0  0
 25 27  1  0  0  0  0
 27 26  1  0  0  0  0
 28 32  1  0  0  0  0
 29 33  2  0  0  0  0
 31 32  1  0  0  0  0
 32 25  1  0  0  0  0
 33 30  2  0  0  0  0
 33 28  1  0  0  0  0
 33 31  1  0  0  0  0
M  END
>  <MODEL>
3

>  <REMARK>
 VINA RESULT:      -7.2      3.898      6.833
  Name = 
  4 active torsions:
  status: ('A' for Active; 'I' for Inactive)
    1  A    between atoms: C_1  and  N_7
    2  A    between atoms: C_1  and  C_25
    3  A    between atoms: N_7  and  C_24
    4  A    between atoms: C_23  and  C_27
                            x       y       z     vdW  Elec       q    Type
                         _______ _______ _______ _____ _____    ______ ____

>  <TORSDO>
F 4

$$$$
=
 OpenBabel11042416173D

 33 38  0  0  1  0  0  0  0  0999 V2000
  189.0270  176.7500  145.2480 C   0  0  2  0  0  3  0  0  0  0  0  0
  189.2480  176.0560  142.4070 N   0  0  0  0  0  0  0  0  0  0  0  0
  188.2640  177.4630  144.1780 C   0  0  0  0  0  0  0  0  0  0  0  0
  191.4990  173.4120  143.5530 N   0  0  1  0  0  0  0  0  0  0  0  0
  189.4860  177.7650  146.2810 C   0  0  0  0  0  1  0  0  0  0  0  0
  186.6610  177.5970  141.0490 C   0  0  0  0  0  3  0  0  0  0  0  0
  188.4350  177.1400  142.8430 C   0  0  0  0  0  0  0  0  0  0  0  0
  191.5450  173.6740  145.0170 C   0  0  2  0  0  3  0  0  0  0  0  0
  187.3710  177.7290  142.2210 C   0  0  0  0  0  0  0  0  0  0  0  0
  185.4790  178.6970  142.7020 N   0  0  0  0  0  2  0  0  0  0  0  0
  190.0390  175.4560  143.2510 C   0  0  0  0  0  0  0  0  0  0  0  0
  190.8780  174.4120  142.7710 N   0  0  0  0  0  2  0  0  0  0  0  0
  186.6800  178.3730  143.1230 N   0  0  0  0  0  0  0  0  0  0  0  0
  190.6770  174.8320  145.5790 C   0  0  2  0  0  3  0  0  0  0  0  0
  192.7470  173.9290  144.1960 C   0  0  2  0  0  3  0  0  0  0  0  0
  187.1280  178.1950  144.3550 N   0  0  0  0  0  0  0  0  0  0  0  0
  185.4770  178.2790  141.4070 C   0  0  0  0  0  0  0  0  0  0  0  0
  184.3030  178.4350  140.5080 C   0  0  0  0  0  1  0  0  0  0  0  0
  190.2460  175.9760  144.6580 C   0  0  2  0  0  3  0  0  0  0  0  0
  192.3450  176.1840  146.8750 O   0  0  0  0  0  0  0  0  0  0  0  0
  191.2580  175.3170  146.8700 C   0  0  0  0  0  0  0  0  0  0  0  0
  190.7740  174.9180  147.9610 O   0  0  0  0  0  1  0  0  0  0  0  0
  193.0790  175.4070  143.9440 C   0  0  0  0  0  2  0  0  0  0  0  0
  195.8070  175.6420  141.5220 O   0  0  0  0  0  0  0  0  0  0  0  0
  194.4330  175.5440  143.4140 N   0  0  0  0  0  0  0  0  0  0  0  0
  193.5280  175.6410  141.1030 N   0  0  0  0  0  1  0  0  0  0  0  0
  194.6400  175.6070  141.9950 C   0  0  0  0  0  0  0  0  0  0  0  0
  196.4150  174.3280  144.0730 N   0  0  0  0  0  2  0  0  0  0  0  0
  197.4170  173.7930  146.5130 O   0  0  0  0  0  0  0  0  0  0  0  0
  195.3850  172.5020  145.7590 O   0  0  0  0  0  0  0  0  0  0  0  0
  195.2100  175.2510  145.7620 C   0  0  0  0  0  2  0  0  0  0  0  0
  195.6000  175.5310  144.3050 C   0  0  2  0  0  3  0  0  0  0  0  0
  196.1630  173.7850  145.6860 S   0  0  0  0  0  0  0  0  0  0  0  0
  1  5  1  1  0  0  0
  2  7  1  0  0  0  0
  2 11  2  0  0  0  0
  3 16  2  0  0  0  0
  3  1  1  0  0  0  0
  4 12  1  6  0  0  0
  4 15  1  0  0  0  0
  4  8  1  0  0  0  0
  6 17  2  0  0  0  0
  6  9  1  0  0  0  0
  7  3  1  0  0  0  0
  8 14  1  0  0  0  0
  9  7  2  0  0  0  0
  9 13  1  0  0  0  0
 10 13  1  0  0  0  0
 11 19  1  0  0  0  0
 12 11  1  0  0  0  0
 13 16  1  0  0  0  0
 14 21  1  0  0  0  0
 15  8  1  0  0  0  0
 17 10  1  0  0  0  0
 18 17  1  0  0  0  0
 19  1  1  0  0  0  0
 19 14  1  0  0  0  0
 21 20  2  0  0  0  0
 21 22  1  0  0  0  0
 23 15  1  0  0  0  0
 24 27  2  0  0  0  0
 25 23  1  0  0  0  0
 25 32  1  0  0  0  0
 26 27  1  0  0  0  0
 27 25  1  0  0  0  0
 28 32  1  0  0  0  0
 28 33  1  0  0  0  0
 32 31  1  0  0  0  0
 33 30  2  0  0  0  0
 33 31  1  0  0  0  0
 33 29  2  0  0  0  0
M  END
>  <MODEL>
4

>  <REMARK>
 VINA RESULT:      -6.9      4.294      7.794
  Name = 
  4 active torsions:
  status: ('A' for Active; 'I' for Inactive)
    1  A    between atoms: C_1  and  N_7
    2  A    between atoms: C_1  and  C_25
    3  A    between atoms: N_7  and  C_24
    4  A    between atoms: C_23  and  C_27
                            x       y       z     vdW  Elec       q    Type
                         _______ _______ _______ _____ _____    ______ ____

>  <TORSDO>
F 4

$$$$
=
 OpenBabel11042416173D

 33 38  0  0  1  0  0  0  0  0999 V2000
  188.4860  176.5920  144.9700 C   0  0  2  0  0  3  0  0  0  0  0  0
  188.1600  175.4430  142.2920 N   0  0  0  0  0  0  0  0  0  0  0  0
  187.7470  177.2900  143.8730 C   0  0  0  0  0  0  0  0  0  0  0  0
  189.9490  172.5590  143.6560 N   0  0  1  0  0  0  0  0  0  0  0  0
  189.2850  177.6200  145.7520 C   0  0  0  0  0  1  0  0  0  0  0  0
  185.7870  177.3100  140.9510 C   0  0  0  0  0  3  0  0  0  0  0  0
  187.6590  176.7370  142.6070 C   0  0  0  0  0  0  0  0  0  0  0  0
  190.2510  173.0230  145.0380 C   0  0  2  0  0  3  0  0  0  0  0  0
  186.6650  177.4520  142.0020 C   0  0  0  0  0  0  0  0  0  0  0  0
  185.1020  178.8890  142.4920 N   0  0  0  0  0  2  0  0  0  0  0  0
  188.9190  174.8130  143.1450 C   0  0  0  0  0  0  0  0  0  0  0  0
  189.4470  173.5440  142.7760 N   0  0  0  0  0  2  0  0  0  0  0  0
  186.2560  178.3670  142.8400 N   0  0  0  0  0  0  0  0  0  0  0  0
  189.7310  174.4210  145.4690 C   0  0  2  0  0  3  0  0  0  0  0  0
  191.3540  172.8690  144.0660 C   0  0  2  0  0  3  0  0  0  0  0  0
  186.8240  178.2800  144.0320 N   0  0  0  0  0  0  0  0  0  0  0  0
  184.8330  178.2900  141.3000 C   0  0  0  0  0  0  0  0  0  0  0  0
  183.6040  178.5720  140.5130 C   0  0  0  0  0  1  0  0  0  0  0  0
  189.4230  175.4800  144.4070 C   0  0  2  0  0  3  0  0  0  0  0  0
  191.8440  175.4550  146.3350 O   0  0  0  0  0  0  0  0  0  0  0  0
  190.5730  174.9500  146.5860 C   0  0  0  0  0  0  0  0  0  0  0  0
  190.1370  174.9170  147.7670 O   0  0  0  0  0  1  0  0  0  0  0  0
  191.9480  174.1760  143.5210 C   0  0  0  0  0  2  0  0  0  0  0  0
  195.5570  173.6810  143.2210 O   0  0  0  0  0  0  0  0  0  0  0  0
  193.2510  173.9300  142.9090 N   0  0  0  0  0  0  0  0  0  0  0  0
  194.2980  173.8260  145.1590 N   0  0  0  0  0  1  0  0  0  0  0  0
  194.4170  173.8100  143.7390 C   0  0  0  0  0  0  0  0  0  0  0  0
  192.1240  174.1660  140.7850 N   0  0  0  0  0  2  0  0  0  0  0  0
  192.2670  172.6800  138.5460 O   0  0  0  0  0  0  0  0  0  0  0  0
  190.9910  171.7410  140.5090 O   0  0  0  0  0  0  0  0  0  0  0  0
  193.6160  172.4610  140.9310 C   0  0  0  0  0  2  0  0  0  0  0  0
  193.4070  173.8890  141.4500 C   0  0  2  0  0  3  0  0  0  0  0  0
  192.1180  172.6160  140.0390 S   0  0  0  0  0  0  0  0  0  0  0  0
  1  5  1  6  0  0  0
  2  7  1  0  0  0  0
  2 11  2  0  0  0  0
  3 16  2  0  0  0  0
  3  1  1  0  0  0  0
  4 12  1  6  0  0  0
  4 15  1  0  0  0  0
  4  8  1  0  0  0  0
  6 17  2  0  0  0  0
  6  9  1  0  0  0  0
  7  3  1  0  0  0  0
  8 14  1  0  0  0  0
  9  7  2  0  0  0  0
  9 13  1  0  0  0  0
 10 13  1  0  0  0  0
 11 19  1  0  0  0  0
 12 11  1  0  0  0  0
 13 16  1  0  0  0  0
 14 21  1  0  0  0  0
 15  8  1  0  0  0  0
 17 10  1  0  0  0  0
 18 17  1  0  0  0  0
 19  1  1  0  0  0  0
 19 14  1  0  0  0  0
 20 21  2  0  0  0  0
 21 22  1  0  0  0  0
 23 15  1  0  0  0  0
 24 27  2  0  0  0  0
 25 23  1  0  0  0  0
 25 27  1  0  0  0  0
 27 26  1  0  0  0  0
 28 32  1  0  0  0  0
 29 33  2  0  0  0  0
 31 32  1  0  0  0  0
 32 25  1  0  0  0  0
 33 30  2  0  0  0  0
 33 28  1  0  0  0  0
 33 31  1  0  0  0  0
M  END
>  <MODEL>
5

>  <REMARK>
 VINA RESULT:      -6.5      3.598      7.072
  Name = 
  4 active torsions:
  status: ('A' for Active; 'I' for Inactive)
    1  A    between atoms: C_1  and  N_7
    2  A    between atoms: C_1  and  C_25
    3  A    between atoms: N_7  and  C_24
    4  A    between atoms: C_23  and  C_27
                            x       y       z     vdW  Elec       q    Type
                         _______ _______ _______ _____ _____    ______ ____

>  <TORSDO>
F 4

$$$$
=
 OpenBabel11042416173D

 33 38  0  0  1  0  0  0  0  0999 V2000
  188.4760  174.3540  141.8980 C   0  0  2  0  0  3  0  0  0  0  0  0
  189.7280  176.5040  143.4510 N   0  0  0  0  0  0  0  0  0  0  0  0
  187.6940  175.2920  142.7610 C   0  0  0  0  0  0  0  0  0  0  0  0
  192.8460  175.3690  141.9130 N   0  0  1  0  0  0  0  0  0  0  0  0
  187.8820  172.9620  142.0270 C   0  0  0  0  0  1  0  0  0  0  0  0
  187.1690  178.4090  144.3060 C   0  0  0  0  0  3  0  0  0  0  0  0
  188.3280  176.2620  143.5190 C   0  0  0  0  0  0  0  0  0  0  0  0
  192.3770  174.2030  141.1150 C   0  0  2  0  0  3  0  0  0  0  0  0
  187.3190  177.1080  143.8850 C   0  0  0  0  0  0  0  0  0  0  0  0
  185.2300  177.5170  143.4240 N   0  0  0  0  0  2  0  0  0  0  0  0
  190.5030  175.6660  142.8220 C   0  0  0  0  0  0  0  0  0  0  0  0
  191.9060  175.9090  142.8190 N   0  0  0  0  0  2  0  0  0  0  0  0
  186.1990  176.6310  143.4130 N   0  0  0  0  0  0  0  0  0  0  0  0
  190.8590  173.8750  141.1240 C   0  0  2  0  0  3  0  0  0  0  0  0
  193.2290  173.9760  142.3010 C   0  0  2  0  0  3  0  0  0  0  0  0
  186.3620  175.5600  142.6530 N   0  0  0  0  0  0  0  0  0  0  0  0
  185.7970  178.5960  144.0270 C   0  0  0  0  0  0  0  0  0  0  0  0
  185.0660  179.8690  144.2620 C   0  0  0  0  0  1  0  0  0  0  0  0
  189.9850  174.3470  142.2890 C   0  0  2  0  0  3  0  0  0  0  0  0
  190.7760  171.4570  141.7790 O   0  0  0  0  0  1  0  0  0  0  0  0
  190.6540  172.4310  140.7950 C   0  0  0  0  0  0  0  0  0  0  0  0
  190.3910  172.0920  139.6110 O   0  0  0  0  0  0  0  0  0  0  0  0
  192.5170  173.3930  143.5300 C   0  0  0  0  0  2  0  0  0  0  0  0
  194.8970  171.2550  145.2990 O   0  0  0  0  0  0  0  0  0  0  0  0
  193.4920  172.9610  144.5290 N   0  0  0  0  0  0  0  0  0  0  0  0
  193.8740  170.8600  143.2580 N   0  0  0  0  0  1  0  0  0  0  0  0
  194.1180  171.6750  144.4030 C   0  0  0  0  0  0  0  0  0  0  0  0
  192.9650  175.0060  145.7010 N   0  0  0  0  0  2  0  0  0  0  0  0
  194.5670  176.8140  146.8880 O   0  0  0  0  0  0  0  0  0  0  0  0
  194.4730  176.7910  144.3670 O   0  0  0  0  0  0  0  0  0  0  0  0
  195.1630  174.4430  145.6310 C   0  0  0  0  0  2  0  0  0  0  0  0
  193.7800  173.7820  145.7110 C   0  0  2  0  0  3  0  0  0  0  0  0
  194.3660  176.0010  145.6410 S   0  0  0  0  0  0  0  0  0  0  0  0
  1  5  1  1  0  0  0
  1 19  1  0  0  0  0
  1  3  1  0  0  0  0
  2  7  1  0  0  0  0
  3  7  1  0  0  0  0
  4 15  1  0  0  0  0
  4 12  1  1  0  0  0
  7  9  2  0  0  0  0
  8 14  1  0  0  0  0
  8  4  1  0  0  0  0
  8 15  1  0  0  0  0
  9  6  1  0  0  0  0
 10 17  1  0  0  0  0
 11  2  2  0  0  0  0
 12 11  1  0  0  0  0
 13 10  1  0  0  0  0
 13  9  1  0  0  0  0
 14 19  1  0  0  0  0
 15 23  1  0  0  0  0
 16  3  2  0  0  0  0
 16 13  1  0  0  0  0
 17 18  1  0  0  0  0
 17  6  2  0  0  0  0
 19 11  1  0  0  0  0
 21 14  1  0  0  0  0
 21 20  1  0  0  0  0
 22 21  2  0  0  0  0
 23 25  1  0  0  0  0
 25 32  1  0  0  0  0
 26 27  1  0  0  0  0
 27 25  1  0  0  0  0
 27 24  2  0  0  0  0
 28 32  1  0  0  0  0
 30 33  2  0  0  0  0
 31 33  1  0  0  0  0
 31 32  1  0  0  0  0
 33 28  1  0  0  0  0
 33 29  2  0  0  0  0
M  END
>  <MODEL>
6

>  <REMARK>
 VINA RESULT:      -6.5      4.104      7.714
  Name = 
  4 active torsions:
  status: ('A' for Active; 'I' for Inactive)
    1  A    between atoms: C_1  and  N_7
    2  A    between atoms: C_1  and  C_25
    3  A    between atoms: N_7  and  C_24
    4  A    between atoms: C_23  and  C_27
                            x       y       z     vdW  Elec       q    Type
                         _______ _______ _______ _____ _____    ______ ____

>  <TORSDO>
F 4

$$$$
=
 OpenBabel11042416173D

 33 38  0  0  1  0  0  0  0  0999 V2000
  190.1610  175.7790  144.4290 C   0  0  2  0  0  3  0  0  0  0  0  0
  188.0070  174.7620  142.7180 N   0  0  0  0  0  0  0  0  0  0  0  0
  189.0140  176.6270  143.9800 C   0  0  0  0  0  0  0  0  0  0  0  0
  189.7590  171.5610  142.9530 N   0  0  1  0  0  0  0  0  0  0  0  0
  191.4280  176.6160  144.4030 C   0  0  0  0  0  1  0  0  0  0  0  0
  185.6700  177.0810  142.9870 C   0  0  0  0  0  3  0  0  0  0  0  0
  188.0440  176.1240  143.1310 C   0  0  0  0  0  0  0  0  0  0  0  0
  190.9500  171.9320  143.7650 C   0  0  2  0  0  3  0  0  0  0  0  0
  187.0260  177.0300  143.2170 C   0  0  0  0  0  0  0  0  0  0  0  0
  186.4050  178.7370  144.4210 N   0  0  0  0  0  2  0  0  0  0  0  0
  189.0220  173.9810  142.9600 C   0  0  0  0  0  0  0  0  0  0  0  0
  188.9750  172.6400  142.4870 N   0  0  0  0  0  2  0  0  0  0  0  0
  187.4070  177.9930  144.0140 N   0  0  0  0  0  0  0  0  0  0  0  0
  191.0640  173.3980  144.2670 C   0  0  2  0  0  3  0  0  0  0  0  0
  191.1230  171.5820  142.3400 C   0  0  2  0  0  3  0  0  0  0  0  0
  188.5860  177.7760  144.5740 N   0  0  0  0  0  0  0  0  0  0  0  0
  185.3390  178.2240  143.7480 C   0  0  0  0  0  0  0  0  0  0  0  0
  183.9580  178.7550  143.8940 C   0  0  0  0  0  1  0  0  0  0  0  0
  190.3200  174.5140  143.5300 C   0  0  2  0  0  3  0  0  0  0  0  0
  193.0240  173.6470  145.8100 O   0  0  0  0  0  1  0  0  0  0  0  0
  192.4980  173.7320  144.5260 C   0  0  0  0  0  0  0  0  0  0  0  0
  193.2310  174.1150  143.5760 O   0  0  0  0  0  0  0  0  0  0  0  0
  191.4260  172.7560  141.3980 C   0  0  0  0  0  2  0  0  0  0  0  0
  194.0400  171.5810  139.1280 O   0  0  0  0  0  0  0  0  0  0  0  0
  192.0670  172.2790  140.1740 N   0  0  0  0  0  0  0  0  0  0  0  0
  194.1880  171.9170  141.4160 N   0  0  0  0  0  1  0  0  0  0  0  0
  193.4550  171.9150  140.1930 C   0  0  0  0  0  0  0  0  0  0  0  0
  191.1170  173.6110  138.3970 N   0  0  0  0  0  2  0  0  0  0  0  0
  188.7530  173.4140  137.1260 O   0  0  0  0  0  0  0  0  0  0  0  0
  188.7600  174.3370  139.4740 O   0  0  0  0  0  0  0  0  0  0  0  0
  189.8680  171.8450  139.0880 C   0  0  0  0  0  2  0  0  0  0  0  0
  191.3370  172.2470  138.9010 C   0  0  2  0  0  3  0  0  0  0  0  0
  189.4090  173.4190  138.4770 S   0  0  0  0  0  0  0  0  0  0  0  0
  1  5  1  6  0  0  0
  2 11  2  0  0  0  0
  2  7  1  0  0  0  0
  3  1  1  0  0  0  0
  3 16  2  0  0  0  0
  4 12  1  6  0  0  0
  4  8  1  0  0  0  0
  6  9  1  0  0  0  0
  6 17  2  0  0  0  0
  7  9  2  0  0  0  0
  7  3  1  0  0  0  0
  8 14  1  0  0  0  0
  9 13  1  0  0  0  0
 11 19  1  0  0  0  0
 12 11  1  0  0  0  0
 13 10  1  0  0  0  0
 13 16  1  0  0  0  0
 14 21  1  0  0  0  0
 15  4  1  0  0  0  0
 15  8  1  0  0  0  0
 17 18  1  0  0  0  0
 17 10  1  0  0  0  0
 19 14  1  0  0  0  0
 19  1  1  0  0  0  0
 21 20  1  0  0  0  0
 22 21  2  0  0  0  0
 23 15  1  0  0  0  0
 24 27  2  0  0  0  0
 25 27  1  0  0  0  0
 25 23  1  0  0  0  0
 27 26  1  0  0  0  0
 28 33  1  0  0  0  0
 28 32  1  0  0  0  0
 29 33  2  0  0  0  0
 32 31  1  0  0  0  0
 32 25  1  0  0  0  0
 33 31  1  0  0  0  0
 33 30  2  0  0  0  0
M  END
>  <MODEL>
7

>  <REMARK>
 VINA RESULT:      -6.3      3.233      7.339
  Name = 
  4 active torsions:
  status: ('A' for Active; 'I' for Inactive)
    1  A    between atoms: C_1  and  N_7
    2  A    between atoms: C_1  and  C_25
    3  A    between atoms: N_7  and  C_24
    4  A    between atoms: C_23  and  C_27
                            x       y       z     vdW  Elec       q    Type
                         _______ _______ _______ _____ _____    ______ ____

>  <TORSDO>
F 4

$$$$
=
 OpenBabel11042416173D

 33 38  0  0  1  0  0  0  0  0999 V2000
  189.1040  176.5550  145.0250 C   0  0  2  0  0  3  0  0  0  0  0  0
  187.9610  175.3670  142.6000 N   0  0  0  0  0  0  0  0  0  0  0  0
  188.0840  177.2540  144.1830 C   0  0  0  0  0  0  0  0  0  0  0  0
  190.0140  172.4590  143.4360 N   0  0  1  0  0  0  0  0  0  0  0  0
  190.1240  177.5740  145.5030 C   0  0  0  0  0  1  0  0  0  0  0  0
  185.3350  177.2760  141.9870 C   0  0  0  0  0  3  0  0  0  0  0  0
  187.6060  176.6800  143.0170 C   0  0  0  0  0  0  0  0  0  0  0  0
  190.7290  172.9390  144.6500 C   0  0  2  0  0  3  0  0  0  0  0  0
  186.4920  177.4120  142.7210 C   0  0  0  0  0  0  0  0  0  0  0  0
  185.1810  178.9020  143.6210 N   0  0  0  0  0  2  0  0  0  0  0  0
  188.9270  174.7320  143.2000 C   0  0  0  0  0  0  0  0  0  0  0  0
  189.2920  173.4410  142.7220 N   0  0  0  0  0  2  0  0  0  0  0  0
  186.3740  178.3540  143.6190 N   0  0  0  0  0  0  0  0  0  0  0  0
  190.3930  174.3590  145.1820 C   0  0  2  0  0  3  0  0  0  0  0  0
  191.4840  172.7360  143.3960 C   0  0  2  0  0  3  0  0  0  0  0  0
  187.2730  178.2720  144.5860 N   0  0  0  0  0  0  0  0  0  0  0  0
  184.5520  178.2900  142.5810 C   0  0  0  0  0  0  0  0  0  0  0  0
  183.1500  178.5930  142.1930 C   0  0  0  0  0  1  0  0  0  0  0  0
  189.8030  175.4060  144.2350 C   0  0  2  0  0  3  0  0  0  0  0  0
  191.4810  174.9320  147.3670 O   0  0  0  0  0  1  0  0  0  0  0  0
  191.5450  174.8840  145.9790 C   0  0  0  0  0  0  0  0  0  0  0  0
  192.5720  175.3070  145.3870 O   0  0  0  0  0  0  0  0  0  0  0  0
  191.9140  174.0150  142.6640 C   0  0  0  0  0  2  0  0  0  0  0  0
  193.1330  173.0700  139.3500 O   0  0  0  0  0  0  0  0  0  0  0  0
  192.8480  173.6980  141.5850 N   0  0  0  0  0  0  0  0  0  0  0  0
  190.9580  173.5600  139.9790 N   0  0  0  0  0  1  0  0  0  0  0  0
  192.3480  173.4250  140.2680 C   0  0  0  0  0  0  0  0  0  0  0  0
  194.5750  173.7630  143.2730 N   0  0  0  0  0  2  0  0  0  0  0  0
  197.0090  174.9100  143.2520 O   0  0  0  0  0  0  0  0  0  0  0  0
  194.9970  176.4110  143.5040 O   0  0  0  0  0  0  0  0  0  0  0  0
  195.0810  174.7630  141.2980 C   0  0  0  0  0  2  0  0  0  0  0  0
  194.2860  173.5690  141.8440 C   0  0  2  0  0  3  0  0  0  0  0  0
  195.5580  175.1360  142.9410 S   0  0  0  0  0  0  0  0  0  0  0  0
  1  5  1  6  0  0  0
  2  7  1  0  0  0  0
  2 11  2  0  0  0  0
  3 16  2  0  0  0  0
  3  1  1  0  0  0  0
  4 12  1  6  0  0  0
  4  8  1  0  0  0  0
  6 17  2  0  0  0  0
  6  9  1  0  0  0  0
  7  3  1  0  0  0  0
  8 14  1  0  0  0  0
  9  7  2  0  0  0  0
  9 13  1  0  0  0  0
 11 19  1  0  0  0  0
 12 11  1  0  0  0  0
 13 10  1  0  0  0  0
 13 16  1  0  0  0  0
 14 21  1  0  0  0  0
 15  4  1  0  0  0  0
 15  8  1  0  0  0  0
 17 10  1  0  0  0  0
 18 17  1  0  0  0  0
 19  1  1  0  0  0  0
 19 14  1  0  0  0  0
 21 20  1  0  0  0  0
 22 21  2  0  0  0  0
 23 15  1  0  0  0  0
 24 27  2  0  0  0  0
 25 32  1  0  0  0  0
 25 23  1  0  0  0  0
 26 27  1  0  0  0  0
 27 25  1  0  0  0  0
 31 32  1  0  0  0  0
 31 33  1  0  0  0  0
 32 28  1  0  0  0  0
 33 29  2  0  0  0  0
 33 28  1  0  0  0  0
 33 30  2  0  0  0  0
M  END
>  <MODEL>
8

>  <REMARK>
 VINA RESULT:      -6.2      3.683      7.579
  Name = 
  4 active torsions:
  status: ('A' for Active; 'I' for Inactive)
    1  A    between atoms: C_1  and  N_7
    2  A    between atoms: C_1  and  C_25
    3  A    between atoms: N_7  and  C_24
    4  A    between atoms: C_23  and  C_27
                            x       y       z     vdW  Elec       q    Type
                         _______ _______ _______ _____ _____    ______ ____

>  <TORSDO>
F 4

$$$$
=
 OpenBabel11042416173D

 33 38  0  0  1  0  0  0  0  0999 V2000
  190.0320  175.6260  144.2270 C   0  0  2  0  0  3  0  0  0  0  0  0
  187.5400  175.2660  142.7240 N   0  0  0  0  0  0  0  0  0  0  0  0
  188.8880  176.5860  144.3120 C   0  0  0  0  0  0  0  0  0  0  0  0
  189.0670  172.1570  141.5500 N   0  0  1  0  0  0  0  0  0  0  0  0
  191.3320  176.4110  144.2370 C   0  0  0  0  0  1  0  0  0  0  0  0
  185.4630  177.3800  144.1830 C   0  0  0  0  0  3  0  0  0  0  0  0
  187.7490  176.4080  143.5460 C   0  0  0  0  0  0  0  0  0  0  0  0
  190.4070  172.2220  142.1950 C   0  0  2  0  0  3  0  0  0  0  0  0
  186.8310  177.2420  144.1200 C   0  0  0  0  0  0  0  0  0  0  0  0
  186.5600  178.4480  145.9140 N   0  0  0  0  0  2  0  0  0  0  0  0
  188.5220  174.4400  142.4950 C   0  0  0  0  0  0  0  0  0  0  0  0
  188.2940  173.3380  141.6250 N   0  0  0  0  0  2  0  0  0  0  0  0
  187.4170  177.8760  145.1010 N   0  0  0  0  0  0  0  0  0  0  0  0
  190.7140  173.4310  143.1200 C   0  0  2  0  0  3  0  0  0  0  0  0
  190.2990  172.3710  140.7290 C   0  0  2  0  0  3  0  0  0  0  0  0
  188.6570  177.4710  145.3220 N   0  0  0  0  0  0  0  0  0  0  0  0
  185.3570  178.2020  145.3270 C   0  0  0  0  0  0  0  0  0  0  0  0
  184.0660  178.6660  145.9010 C   0  0  0  0  0  1  0  0  0  0  0  0
  189.9350  174.7380  142.9490 C   0  0  2  0  0  3  0  0  0  0  0  0
  192.8410  174.4390  142.2570 O   0  0  0  0  0  0  0  0  0  0  0  0
  192.1930  173.6450  143.1950 C   0  0  0  0  0  0  0  0  0  0  0  0
  192.8600  173.0810  144.1020 O   0  0  0  0  0  1  0  0  0  0  0  0
  190.5150  173.7920  140.1870 C   0  0  0  0  0  2  0  0  0  0  0  0
  189.5890  173.6890  136.6520 O   0  0  0  0  0  0  0  0  0  0  0  0
  190.6570  173.7690  138.7330 N   0  0  0  0  0  0  0  0  0  0  0  0
  188.1910  173.9380  138.4830 N   0  0  0  0  0  1  0  0  0  0  0  0
  189.4850  173.7910  137.9030 C   0  0  0  0  0  0  0  0  0  0  0  0
  192.3860  172.2240  138.0540 N   0  0  0  0  0  2  0  0  0  0  0  0
  195.0610  172.3590  138.3100 O   0  0  0  0  0  0  0  0  0  0  0  0
  193.7010  171.8420  140.3700 O   0  0  0  0  0  0  0  0  0  0  0  0
  193.1020  174.1580  139.0040 C   0  0  0  0  0  2  0  0  0  0  0  0
  191.9750  173.6360  138.1030 C   0  0  2  0  0  3  0  0  0  0  0  0
  193.7600  172.5370  139.0400 S   0  0  0  0  0  0  0  0  0  0  0  0
  1  5  1  6  0  0  0
  1  3  1  0  0  0  0
  2  7  1  0  0  0  0
  3 16  2  0  0  0  0
  4 12  1  1  0  0  0
  4  8  1  0  0  0  0
  6 17  2  0  0  0  0
  7  9  2  0  0  0  0
  7  3  1  0  0  0  0
  8 14  1  0  0  0  0
  9  6  1  0  0  0  0
  9 13  1  0  0  0  0
 11  2  2  0  0  0  0
 11 19  1  0  0  0  0
 12 11  1  0  0  0  0
 13 16  1  0  0  0  0
 13 10  1  0  0  0  0
 14 21  1  0  0  0  0
 15  4  1  0  0  0  0
 15  8  1  0  0  0  0
 17 18  1  0  0  0  0
 17 10  1  0  0  0  0
 19 14  1  0  0  0  0
 19  1  1  0  0  0  0
 20 21  2  0  0  0  0
 21 22  1  0  0  0  0
 23 15  1  0  0  0  0
 24 27  2  0  0  0  0
 25 23  1  0  0  0  0
 27 26  1  0  0  0  0
 27 25  1  0  0  0  0
 28 32  1  0  0  0  0
 28 33  1  0  0  0  0
 29 33  2  0  0  0  0
 31 33  1  0  0  0  0
 32 25  1  0  0  0  0
 32 31  1  0  0  0  0
 33 30  2  0  0  0  0
M  END
>  <MODEL>
9

>  <REMARK>
 VINA RESULT:      -6.2      3.886      7.843
  Name = 
  4 active torsions:
  status: ('A' for Active; 'I' for Inactive)
    1  A    between atoms: C_1  and  N_7
    2  A    between atoms: C_1  and  C_25
    3  A    between atoms: N_7  and  C_24
    4  A    between atoms: C_23  and  C_27
                            x       y       z     vdW  Elec       q    Type
                         _______ _______ _______ _____ _____    ______ ____

>  <TORSDO>
F 4

$$$$
