=
 OpenBabel11042418183D

 35 38  0  0  1  0  0  0  0  0999 V2000
  186.1120  177.7840  144.0620 C   0  0  0  0  0  0  0  0  0  0  0  0
  187.4870  177.6480  144.3870 C   0  0  0  0  0  0  0  0  0  0  0  0
  189.6120  177.0410  147.2650 O   0  0  0  0  0  0  0  0  0  0  0  0
  189.8480  177.6950  143.6830 C   0  0  0  0  0  3  0  0  0  0  0  0
  185.5670  177.2160  146.3560 C   0  0  0  0  0  3  0  0  0  0  0  0
  190.3170  177.0840  144.9770 C   0  0  1  0  0  3  0  0  0  0  0  0
  185.1630  177.5590  145.0670 C   0  0  0  0  0  3  0  0  0  0  0  0
  188.5600  177.9180  143.4070 C   0  0  0  0  0  3  0  0  0  0  0  0
  189.2690  177.1530  146.0570 C   0  0  0  0  0  0  0  0  0  0  0  0
  186.8870  177.0940  146.6450 N   0  0  0  0  0  0  0  0  0  0  0  0
  187.8460  177.2940  145.7020 C   0  0  0  0  0  0  0  0  0  0  0  0
  194.8390  173.8920  144.1990 O   0  0  0  0  0  0  0  0  0  0  0  0
  190.6900  175.6950  144.7400 N   0  0  0  0  0  2  0  0  0  0  0  0
  192.8470  175.8630  145.7220 N   0  0  0  0  0  0  0  0  0  0  0  0
  194.0480  173.8120  145.3550 C   0  0  2  0  0  3  0  0  0  0  0  0
  195.8280  174.8420  144.4930 C   0  0  0  0  0  2  0  0  0  0  0  0
  195.2380  175.8710  145.4300 C   0  0  0  0  0  2  0  0  0  0  0  0
  192.3260  173.4300  144.8960 S   0  0  0  0  0  0  0  0  0  0  0  0
  194.0730  175.1630  146.0540 C   0  0  1  0  0  3  0  0  0  0  0  0
  191.9310  175.1390  145.1780 C   0  0  0  0  0  0  0  0  0  0  0  0
  184.2340  177.9480  142.3870 N   0  0  0  0  0  2  0  0  0  0  0  0
  183.6180  178.2630  141.1320 C   0  0  0  0  0  0  0  0  0  0  0  0
  186.3960  178.6400  141.8480 O   0  0  0  0  0  0  0  0  0  0  0  0
  185.6170  178.1540  142.7100 C   0  0  0  0  0  0  0  0  0  0  0  0
  184.2840  178.7700  140.1900 O   0  0  0  0  0  0  0  0  0  0  0  0
  182.1790  177.9540  140.9300 C   0  0  0  0  0  2  0  0  0  0  0  0
  181.3370  178.8020  141.8610 C   0  0  0  0  0  2  0  0  0  0  0  0
  180.1760  179.4040  141.0890 C   0  0  0  0  0  2  0  0  0  0  0  0
  179.1050  178.3640  140.7350 C   0  0  1  0  0  3  0  0  0  0  0  0
  177.6910  179.6170  142.2670 O   0  0  0  0  0  1  0  0  0  0  0  0
  177.8870  178.3690  141.6690 C   0  0  2  0  0  3  0  0  0  0  0  0
  177.9420  177.2610  142.7150 C   0  0  0  0  0  2  0  0  0  0  0  0
  178.1720  177.7870  143.9890 O   0  0  0  0  0  1  0  0  0  0  0  0
  178.4210  177.1890  138.9870 C   0  0  0  0  0  1  0  0  0  0  0  0
  178.7050  178.4910  139.4010 O   0  0  0  0  0  0  0  0  0  0  0  0
  1  2  2  0  0  0  0
  1  7  1  0  0  0  0
  2 11  1  0  0  0  0
  4  6  1  0  0  0  0
  5 10  1  0  0  0  0
  6 13  1  6  0  0  0
  6  9  1  0  0  0  0
  7  5  2  0  0  0  0
  8  4  2  0  0  0  0
  8  2  1  0  0  0  0
  9  3  2  0  0  0  0
 11  9  1  0  0  0  0
 11 10  2  0  0  0  0
 12 16  1  0  0  0  0
 13 20  1  0  0  0  0
 14 19  1  0  0  0  0
 15 12  1  6  0  0  0
 15 19  1  0  0  0  0
 16 17  1  0  0  0  0
 18 20  1  0  0  0  0
 18 15  1  0  0  0  0
 19 17  1  6  0  0  0
 20 14  2  0  0  0  0
 21 24  1  0  0  0  0
 22 21  1  0  0  0  0
 23 24  2  0  0  0  0
 24  1  1  0  0  0  0
 25 22  2  0  0  0  0
 26 22  1  0  0  0  0
 26 27  1  0  0  0  0
 28 27  1  0  0  0  0
 29 28  1  1  0  0  0
 29 31  1  0  0  0  0
 31 30  1  1  0  0  0
 31 32  1  0  0  0  0
 32 33  1  0  0  0  0
 34 35  1  0  0  0  0
 35 29  1  0  0  0  0
M  END
>  <MODEL>
1

>  <REMARK>
 VINA RESULT:      -7.7      0.000      0.000
  Name = 
  9 active torsions:
  status: ('A' for Active; 'I' for Inactive)
    1  A    between atoms: C_1  and  C_24
    2  A    between atoms: C_6  and  C_10
    3  A    between atoms: C_6  and  C_12
    4  A    between atoms: N_8  and  C_17
    5  A    between atoms: C_10  and  C_19
    6  A    between atoms: C_11  and  C_12
    7  A    between atoms: C_11  and  C_32
    8  A    between atoms: C_11  and  O_35
    9  A    between atoms: C_13  and  C_32
                            x       y       z     vdW  Elec       q    Type
                         _______ _______ _______ _____ _____    ______ ____

>  <TORSDO>
F 9

$$$$
=
 OpenBabel11042418183D

 35 38  0  0  1  0  0  0  0  0999 V2000
  186.0400  177.4440  144.5370 C   0  0  0  0  0  0  0  0  0  0  0  0
  187.4430  177.4940  144.7390 C   0  0  0  0  0  0  0  0  0  0  0  0
  189.8580  177.5340  147.4480 O   0  0  0  0  0  0  0  0  0  0  0  0
  189.7170  177.6660  143.8050 C   0  0  0  0  0  3  0  0  0  0  0  0
  185.7570  177.1750  146.9310 C   0  0  0  0  0  3  0  0  0  0  0  0
  190.3590  177.3040  145.1180 C   0  0  1  0  0  3  0  0  0  0  0  0
  185.2100  177.2800  145.6530 C   0  0  0  0  0  3  0  0  0  0  0  0
  188.3940  177.7180  143.6290 C   0  0  0  0  0  3  0  0  0  0  0  0
  189.4050  177.4300  146.2760 C   0  0  0  0  0  0  0  0  0  0  0  0
  187.1020  177.2270  147.1010 N   0  0  0  0  0  0  0  0  0  0  0  0
  187.9490  177.3770  146.0490 C   0  0  0  0  0  0  0  0  0  0  0  0
  195.0280  174.4780  143.9120 O   0  0  0  0  0  0  0  0  0  0  0  0
  190.8620  175.9390  145.0410 N   0  0  0  0  0  2  0  0  0  0  0  0
  193.1280  176.5020  145.4820 N   0  0  0  0  0  0  0  0  0  0  0  0
  194.5000  174.5460  145.2090 C   0  0  2  0  0  3  0  0  0  0  0  0
  195.9160  175.5590  143.8170 C   0  0  0  0  0  2  0  0  0  0  0  0
  195.3900  176.6860  144.6750 C   0  0  0  0  0  2  0  0  0  0  0  0
  192.7900  173.9160  145.2110 S   0  0  0  0  0  0  0  0  0  0  0  0
  194.4790  176.0020  145.6490 C   0  0  1  0  0  3  0  0  0  0  0  0
  192.2300  175.6010  145.2830 C   0  0  0  0  0  0  0  0  0  0  0  0
  184.0660  178.0920  143.1080 N   0  0  0  0  0  2  0  0  0  0  0  0
  183.3250  178.2660  141.8940 C   0  0  0  0  0  0  0  0  0  0  0  0
  185.9970  177.1880  142.1610 O   0  0  0  0  0  0  0  0  0  0  0  0
  185.3940  177.5580  143.2030 C   0  0  0  0  0  0  0  0  0  0  0  0
  183.8210  177.9500  140.7790 O   0  0  0  0  0  0  0  0  0  0  0  0
  181.9380  178.7960  141.9560 C   0  0  0  0  0  2  0  0  0  0  0  0
  181.1390  178.2760  140.7790 C   0  0  0  0  0  2  0  0  0  0  0  0
  179.6820  178.1210  141.1830 C   0  0  0  0  0  2  0  0  0  0  0  0
  178.9620  179.4690  141.3080 C   0  0  1  0  0  3  0  0  0  0  0  0
  178.3040  179.0290  139.0080 O   0  0  0  0  0  1  0  0  0  0  0  0
  178.4270  180.0250  139.9810 C   0  0  2  0  0  3  0  0  0  0  0  0
  179.2470  181.2010  139.4620 C   0  0  0  0  0  2  0  0  0  0  0  0
  178.8660  182.3920  140.0840 O   0  0  0  0  0  1  0  0  0  0  0  0
  178.4470  178.5860  143.2740 C   0  0  0  0  0  1  0  0  0  0  0  0
  177.9420  179.4060  142.2630 O   0  0  0  0  0  0  0  0  0  0  0  0
  1  2  2  0  0  0  0
  1  7  1  0  0  0  0
  2 11  1  0  0  0  0
  4  6  1  0  0  0  0
  5 10  1  0  0  0  0
  6 13  1  6  0  0  0
  6  9  1  0  0  0  0
  7  5  2  0  0  0  0
  8  4  2  0  0  0  0
  8  2  1  0  0  0  0
  9  3  2  0  0  0  0
 11  9  1  0  0  0  0
 11 10  2  0  0  0  0
 13 20  1  0  0  0  0
 14 19  1  0  0  0  0
 15 12  1  6  0  0  0
 15 18  1  0  0  0  0
 15 19  1  0  0  0  0
 16 12  1  0  0  0  0
 16 17  1  0  0  0  0
 18 20  1  0  0  0  0
 19 17  1  6  0  0  0
 20 14  2  0  0  0  0
 21 24  1  0  0  0  0
 22 26  1  0  0  0  0
 22 21  1  0  0  0  0
 23 24  2  0  0  0  0
 24  1  1  0  0  0  0
 25 22  2  0  0  0  0
 27 28  1  0  0  0  0
 27 26  1  0  0  0  0
 29 28  1  6  0  0  0
 29 35  1  0  0  0  0
 31 30  1  6  0  0  0
 31 29  1  0  0  0  0
 32 31  1  0  0  0  0
 32 33  1  0  0  0  0
 35 34  1  0  0  0  0
M  END
>  <MODEL>
2

>  <REMARK>
 VINA RESULT:      -7.7      1.130      1.947
  Name = 
  9 active torsions:
  status: ('A' for Active; 'I' for Inactive)
    1  A    between atoms: C_1  and  C_24
    2  A    between atoms: C_6  and  C_10
    3  A    between atoms: C_6  and  C_12
    4  A    between atoms: N_8  and  C_17
    5  A    between atoms: C_10  and  C_19
    6  A    between atoms: C_11  and  C_12
    7  A    between atoms: C_11  and  C_32
    8  A    between atoms: C_11  and  O_35
    9  A    between atoms: C_13  and  C_32
                            x       y       z     vdW  Elec       q    Type
                         _______ _______ _______ _____ _____    ______ ____

>  <TORSDO>
F 9

$$$$
=
 OpenBabel11042418183D

 35 38  0  0  1  0  0  0  0  0999 V2000
  190.1550  176.3460  146.5450 C   0  0  0  0  0  0  0  0  0  0  0  0
  190.7230  176.1270  145.2640 C   0  0  0  0  0  0  0  0  0  0  0  0
  193.9630  176.1170  143.6300 O   0  0  0  0  0  0  0  0  0  0  0  0
  190.4280  175.6450  142.8650 C   0  0  0  0  0  3  0  0  0  0  0  0
  192.3960  176.5590  147.4470 C   0  0  0  0  0  3  0  0  0  0  0  0
  191.8970  175.3870  142.6660 C   0  0  1  0  0  3  0  0  0  0  0  0
  191.0150  176.5580  147.6300 C   0  0  0  0  0  3  0  0  0  0  0  0
  189.8950  175.9480  144.0520 C   0  0  0  0  0  3  0  0  0  0  0  0
  192.7320  175.9120  143.8040 C   0  0  0  0  0  0  0  0  0  0  0  0
  192.9180  176.3510  146.2120 N   0  0  0  0  0  0  0  0  0  0  0  0
  192.1250  176.1330  145.1290 C   0  0  0  0  0  0  0  0  0  0  0  0
  190.3280  171.0850  139.4590 O   0  0  0  0  0  0  0  0  0  0  0  0
  192.1120  173.9530  142.5180 N   0  0  0  0  0  2  0  0  0  0  0  0
  191.6620  173.8890  140.1860 N   0  0  0  0  0  0  0  0  0  0  0  0
  191.6310  171.6020  139.4450 C   0  0  2  0  0  3  0  0  0  0  0  0
  189.6380  171.7960  138.4670 C   0  0  0  0  0  2  0  0  0  0  0  0
  190.2080  173.1940  138.3960 C   0  0  0  0  0  2  0  0  0  0  0  0
  192.3380  171.5360  141.1240 S   0  0  0  0  0  0  0  0  0  0  0  0
  191.5720  173.0560  139.0030 C   0  0  1  0  0  3  0  0  0  0  0  0
  192.0340  173.2820  141.2590 C   0  0  0  0  0  0  0  0  0  0  0  0
  187.9560  177.5780  146.6040 N   0  0  0  0  0  2  0  0  0  0  0  0
  186.5470  177.7410  146.8070 C   0  0  0  0  0  0  0  0  0  0  0  0
  188.0940  175.3290  147.2060 O   0  0  0  0  0  0  0  0  0  0  0  0
  188.6910  176.3630  146.8060 C   0  0  0  0  0  0  0  0  0  0  0  0
  185.8300  176.7770  147.1910 O   0  0  0  0  0  0  0  0  0  0  0  0
  185.9290  179.0760  146.5950 C   0  0  0  0  0  2  0  0  0  0  0  0
  184.8350  178.9730  145.5530 C   0  0  0  0  0  2  0  0  0  0  0  0
  185.2810  179.6700  144.2790 C   0  0  0  0  0  2  0  0  0  0  0  0
  185.4290  178.6990  143.1010 C   0  0  1  0  0  3  0  0  0  0  0  0
  187.5090  178.0760  142.0060 O   0  0  0  0  0  1  0  0  0  0  0  0
  186.7130  177.8580  143.1330 C   0  0  2  0  0  3  0  0  0  0  0  0
  186.4390  176.3710  143.3320 C   0  0  0  0  0  2  0  0  0  0  0  0
  186.8640  175.6310  142.2250 O   0  0  0  0  0  1  0  0  0  0  0  0
  183.7120  178.2470  141.7760 C   0  0  0  0  0  1  0  0  0  0  0  0
  184.3040  177.8770  142.9840 O   0  0  0  0  0  0  0  0  0  0  0  0
  1 24  1  0  0  0  0
  1  7  1  0  0  0  0
  2  1  2  0  0  0  0
  3  9  2  0  0  0  0
  4  8  2  0  0  0  0
  5  7  2  0  0  0  0
  6 13  1  1  0  0  0
  6  4  1  0  0  0  0
  6  9  1  0  0  0  0
  8  2  1  0  0  0  0
  9 11  1  0  0  0  0
 10  5  1  0  0  0  0
 11  2  1  0  0  0  0
 11 10  2  0  0  0  0
 14 20  2  0  0  0  0
 15 12  1  1  0  0  0
 15 18  1  0  0  0  0
 16 12  1  0  0  0  0
 17 16  1  0  0  0  0
 18 20  1  0  0  0  0
 19 17  1  1  0  0  0
 19 15  1  0  0  0  0
 19 14  1  0  0  0  0
 20 13  1  0  0  0  0
 21 24  1  0  0  0  0
 21 22  1  0  0  0  0
 22 25  2  0  0  0  0
 24 23  2  0  0  0  0
 26 22  1  0  0  0  0
 27 26  1  0  0  0  0
 28 27  1  0  0  0  0
 29 31  1  0  0  0  0
 29 28  1  1  0  0  0
 31 30  1  6  0  0  0
 31 32  1  0  0  0  0
 33 32  1  0  0  0  0
 34 35  1  0  0  0  0
 35 29  1  0  0  0  0
M  END
>  <MODEL>
3

>  <REMARK>
 VINA RESULT:      -7.7      3.457      6.407
  Name = 
  9 active torsions:
  status: ('A' for Active; 'I' for Inactive)
    1  A    between atoms: C_1  and  C_24
    2  A    between atoms: C_6  and  C_10
    3  A    between atoms: C_6  and  C_12
    4  A    between atoms: N_8  and  C_17
    5  A    between atoms: C_10  and  C_19
    6  A    between atoms: C_11  and  C_12
    7  A    between atoms: C_11  and  C_32
    8  A    between atoms: C_11  and  O_35
    9  A    between atoms: C_13  and  C_32
                            x       y       z     vdW  Elec       q    Type
                         _______ _______ _______ _____ _____    ______ ____

>  <TORSDO>
F 9

$$$$
=
 OpenBabel11042418183D

 35 38  0  0  1  0  0  0  0  0999 V2000
  185.4440  177.6950  142.1940 C   0  0  0  0  0  0  0  0  0  0  0  0
  186.4890  176.7360  142.1780 C   0  0  0  0  0  0  0  0  0  0  0  0
  188.5530  174.9190  139.8100 O   0  0  0  0  0  0  0  0  0  0  0  0
  187.9940  175.2170  143.4030 C   0  0  0  0  0  3  0  0  0  0  0  0
  185.6470  177.8810  139.7840 C   0  0  0  0  0  3  0  0  0  0  0  0
  188.8450  174.9670  142.1860 C   0  0  1  0  0  3  0  0  0  0  0  0
  185.0390  178.2610  140.9790 C   0  0  0  0  0  3  0  0  0  0  0  0
  186.9470  176.0460  143.4030 C   0  0  0  0  0  3  0  0  0  0  0  0
  188.1610  175.3890  140.9120 C   0  0  0  0  0  0  0  0  0  0  0  0
  186.6430  176.9590  139.7920 N   0  0  0  0  0  0  0  0  0  0  0  0
  187.0780  176.3870  140.9470 C   0  0  0  0  0  0  0  0  0  0  0  0
  193.6980  174.6770  144.9440 O   0  0  0  0  0  0  0  0  0  0  0  0
  190.1040  175.6860  142.3300 N   0  0  0  0  0  2  0  0  0  0  0  0
  191.3900  173.7810  142.9330 N   0  0  0  0  0  0  0  0  0  0  0  0
  193.6040  174.4830  143.5580 C   0  0  2  0  0  3  0  0  0  0  0  0
  193.5510  173.4010  145.5070 C   0  0  0  0  0  2  0  0  0  0  0  0
  192.6280  172.5930  144.6240 C   0  0  0  0  0  2  0  0  0  0  0  0
  192.8540  175.9500  142.7810 S   0  0  0  0  0  0  0  0  0  0  0  0
  192.7040  173.2850  143.2960 C   0  0  1  0  0  3  0  0  0  0  0  0
  191.3370  175.0360  142.6490 C   0  0  0  0  0  0  0  0  0  0  0  0
  185.3930  177.9590  144.7020 N   0  0  0  0  0  2  0  0  0  0  0  0
  184.8490  178.3420  145.9700 C   0  0  0  0  0  0  0  0  0  0  0  0
  183.6050  178.6600  143.3780 O   0  0  0  0  0  0  0  0  0  0  0  0
  184.7490  178.1380  143.4320 C   0  0  0  0  0  0  0  0  0  0  0  0
  183.7180  178.8910  146.0540 O   0  0  0  0  0  0  0  0  0  0  0  0
  185.6180  178.0540  147.2100 C   0  0  0  0  0  2  0  0  0  0  0  0
  187.0730  177.8130  146.8640 C   0  0  0  0  0  2  0  0  0  0  0  0
  187.4050  176.3440  147.0610 C   0  0  0  0  0  2  0  0  0  0  0  0
  188.8440  176.0080  146.6500 C   0  0  1  0  0  3  0  0  0  0  0  0
  190.3460  177.5680  145.5430 O   0  0  0  0  0  1  0  0  0  0  0  0
  189.8280  177.1780  146.7820 C   0  0  2  0  0  3  0  0  0  0  0  0
  190.9470  176.8980  147.7800 C   0  0  0  0  0  2  0  0  0  0  0  0
  192.1190  176.5130  147.1240 O   0  0  0  0  0  1  0  0  0  0  0  0
  189.5620  173.9330  146.3540 C   0  0  0  0  0  1  0  0  0  0  0  0
  189.3140  174.8880  147.3420 O   0  0  0  0  0  0  0  0  0  0  0  0
  1 24  1  0  0  0  0
  2  1  1  0  0  0  0
  2  8  1  0  0  0  0
  3  9  2  0  0  0  0
  4  8  2  0  0  0  0
  5 10  2  0  0  0  0
  5  7  1  0  0  0  0
  6 13  1  1  0  0  0
  6  4  1  0  0  0  0
  7  1  2  0  0  0  0
  9 11  1  0  0  0  0
  9  6  1  0  0  0  0
 10 11  1  0  0  0  0
 11  2  2  0  0  0  0
 12 16  1  0  0  0  0
 13 20  1  0  0  0  0
 14 19  1  0  0  0  0
 15 18  1  6  0  0  0
 15 12  1  0  0  0  0
 17 16  1  0  0  0  0
 19 15  1  0  0  0  0
 19 17  1  1  0  0  0
 20 18  1  0  0  0  0
 20 14  2  0  0  0  0
 21 22  1  0  0  0  0
 22 25  2  0  0  0  0
 22 26  1  0  0  0  0
 23 24  2  0  0  0  0
 24 21  1  0  0  0  0
 27 28  1  0  0  0  0
 27 26  1  0  0  0  0
 29 31  1  0  0  0  0
 29 28  1  1  0  0  0
 29 35  1  0  0  0  0
 31 30  1  6  0  0  0
 31 32  1  0  0  0  0
 33 32  1  0  0  0  0
 34 35  1  0  0  0  0
M  END
>  <MODEL>
4

>  <REMARK>
 VINA RESULT:      -7.6      3.654      7.355
  Name = 
  9 active torsions:
  status: ('A' for Active; 'I' for Inactive)
    1  A    between atoms: C_1  and  C_24
    2  A    between atoms: C_6  and  C_10
    3  A    between atoms: C_6  and  C_12
    4  A    between atoms: N_8  and  C_17
    5  A    between atoms: C_10  and  C_19
    6  A    between atoms: C_11  and  C_12
    7  A    between atoms: C_11  and  C_32
    8  A    between atoms: C_11  and  O_35
    9  A    between atoms: C_13  and  C_32
                            x       y       z     vdW  Elec       q    Type
                         _______ _______ _______ _____ _____    ______ ____

>  <TORSDO>
F 9

$$$$
=
 OpenBabel11042418183D

 35 38  0  0  1  0  0  0  0  0999 V2000
  189.5030  174.2570  144.1680 C   0  0  0  0  0  0  0  0  0  0  0  0
  188.9860  175.1920  143.2350 C   0  0  0  0  0  0  0  0  0  0  0  0
  187.8230  175.3340  139.8010 O   0  0  0  0  0  0  0  0  0  0  0  0
  188.3540  177.5090  142.6800 C   0  0  0  0  0  3  0  0  0  0  0  0
  189.1320  172.5020  142.5360 C   0  0  0  0  0  3  0  0  0  0  0  0
  187.6460  177.0880  141.4210 C   0  0  1  0  0  3  0  0  0  0  0  0
  189.5650  172.9080  143.7960 C   0  0  0  0  0  3  0  0  0  0  0  0
  188.9320  176.6430  143.5170 C   0  0  0  0  0  3  0  0  0  0  0  0
  188.0180  175.6920  140.9930 C   0  0  0  0  0  0  0  0  0  0  0  0
  188.6420  173.4140  141.6580 N   0  0  0  0  0  0  0  0  0  0  0  0
  188.5550  174.7330  141.9750 C   0  0  0  0  0  0  0  0  0  0  0  0
  183.9280  178.3740  145.3920 O   0  0  0  0  0  0  0  0  0  0  0  0
  186.2070  177.1710  141.6340 N   0  0  0  0  0  2  0  0  0  0  0  0
  186.3180  178.8310  143.3290 N   0  0  0  0  0  0  0  0  0  0  0  0
  184.1240  179.1700  144.2540 C   0  0  2  0  0  3  0  0  0  0  0  0
  184.8100  178.8840  146.3560 C   0  0  0  0  0  2  0  0  0  0  0  0
  186.0350  179.4160  145.6490 C   0  0  0  0  0  2  0  0  0  0  0  0
  183.8460  178.1760  142.7520 S   0  0  0  0  0  0  0  0  0  0  0  0
  185.5640  179.6620  144.2470 C   0  0  1  0  0  3  0  0  0  0  0  0
  185.6090  178.0880  142.5520 C   0  0  0  0  0  0  0  0  0  0  0  0
  191.2560  175.2850  145.6620 N   0  0  0  0  0  2  0  0  0  0  0  0
  191.8440  175.7040  146.8990 C   0  0  0  0  0  0  0  0  0  0  0  0
  189.3040  174.3650  146.5480 O   0  0  0  0  0  0  0  0  0  0  0  0
  189.9890  174.6270  145.5240 C   0  0  0  0  0  0  0  0  0  0  0  0
  191.2530  175.5160  147.9960 O   0  0  0  0  0  0  0  0  0  0  0  0
  193.1880  176.3390  146.8890 C   0  0  0  0  0  2  0  0  0  0  0  0
  194.1650  175.4570  146.1400 C   0  0  0  0  0  2  0  0  0  0  0  0
  194.7180  176.2120  144.9430 C   0  0  0  0  0  2  0  0  0  0  0  0
  194.8810  175.3170  143.7090 C   0  0  1  0  0  3  0  0  0  0  0  0
  192.8980  176.5220  142.9810 O   0  0  0  0  0  1  0  0  0  0  0  0
  193.7780  175.4870  142.6550 C   0  0  2  0  0  3  0  0  0  0  0  0
  193.0230  174.1910  142.3780 C   0  0  0  0  0  2  0  0  0  0  0  0
  191.9480  174.4140  141.5140 O   0  0  0  0  0  1  0  0  0  0  0  0
  196.5150  176.7900  143.4500 C   0  0  0  0  0  1  0  0  0  0  0  0
  196.1440  175.4830  143.1320 O   0  0  0  0  0  0  0  0  0  0  0  0
  1 24  1  0  0  0  0
  2  8  1  0  0  0  0
  2  1  2  0  0  0  0
  3  9  2  0  0  0  0
  4  8  2  0  0  0  0
  5  7  2  0  0  0  0
  6 13  1  1  0  0  0
  6  4  1  0  0  0  0
  7  1  1  0  0  0  0
  9  6  1  0  0  0  0
  9 11  1  0  0  0  0
 10 11  2  0  0  0  0
 10  5  1  0  0  0  0
 11  2  1  0  0  0  0
 12 16  1  0  0  0  0
 13 20  1  0  0  0  0
 14 19  1  0  0  0  0
 15 18  1  6  0  0  0
 15 12  1  0  0  0  0
 17 16  1  0  0  0  0
 19 15  1  0  0  0  0
 19 17  1  1  0  0  0
 20 18  1  0  0  0  0
 20 14  2  0  0  0  0
 21 22  1  0  0  0  0
 22 25  2  0  0  0  0
 24 21  1  0  0  0  0
 24 23  2  0  0  0  0
 26 22  1  0  0  0  0
 27 26  1  0  0  0  0
 28 27  1  0  0  0  0
 29 28  1  1  0  0  0
 31 30  1  1  0  0  0
 31 29  1  0  0  0  0
 32 31  1  0  0  0  0
 33 32  1  0  0  0  0
 35 34  1  0  0  0  0
 35 29  1  0  0  0  0
M  END
>  <MODEL>
5

>  <REMARK>
 VINA RESULT:      -7.4      4.206     10.708
  Name = 
  9 active torsions:
  status: ('A' for Active; 'I' for Inactive)
    1  A    between atoms: C_1  and  C_24
    2  A    between atoms: C_6  and  C_10
    3  A    between atoms: C_6  and  C_12
    4  A    between atoms: N_8  and  C_17
    5  A    between atoms: C_10  and  C_19
    6  A    between atoms: C_11  and  C_12
    7  A    between atoms: C_11  and  C_32
    8  A    between atoms: C_11  and  O_35
    9  A    between atoms: C_13  and  C_32
                            x       y       z     vdW  Elec       q    Type
                         _______ _______ _______ _____ _____    ______ ____

>  <TORSDO>
F 9

$$$$
=
 OpenBabel11042418183D

 35 38  0  0  1  0  0  0  0  0999 V2000
  188.5690  175.0220  141.4010 C   0  0  0  0  0  0  0  0  0  0  0  0
  189.3870  174.2060  142.2240 C   0  0  0  0  0  0  0  0  0  0  0  0
  190.8290  170.8770  142.2720 O   0  0  0  0  0  0  0  0  0  0  0  0
  190.6380  173.8880  144.3230 C   0  0  0  0  0  3  0  0  0  0  0  0
  188.6100  173.2780  139.7170 C   0  0  0  0  0  3  0  0  0  0  0  0
  191.3160  172.6450  143.8110 C   0  0  1  0  0  3  0  0  0  0  0  0
  188.1930  174.5370  140.1420 C   0  0  0  0  0  3  0  0  0  0  0  0
  189.7890  174.6110  143.5880 C   0  0  0  0  0  3  0  0  0  0  0  0
  190.6340  172.0800  142.5930 C   0  0  0  0  0  0  0  0  0  0  0  0
  189.3900  172.5120  140.5220 N   0  0  0  0  0  0  0  0  0  0  0  0
  189.7880  172.9420  141.7490 C   0  0  0  0  0  0  0  0  0  0  0  0
  195.2140  176.5220  144.8220 O   0  0  0  0  0  0  0  0  0  0  0  0
  192.7050  172.9560  143.4980 N   0  0  0  0  0  2  0  0  0  0  0  0
  193.1120  174.2130  145.4720 N   0  0  0  0  0  0  0  0  0  0  0  0
  195.2920  175.2200  145.3380 C   0  0  2  0  0  3  0  0  0  0  0  0
  194.5320  177.2650  145.7960 C   0  0  0  0  0  2  0  0  0  0  0  0
  193.5460  176.3540  146.4890 C   0  0  0  0  0  2  0  0  0  0  0  0
  195.2530  174.0140  143.9720 S   0  0  0  0  0  0  0  0  0  0  0  0
  194.0840  174.9780  146.2300 C   0  0  1  0  0  3  0  0  0  0  0  0
  193.5550  173.6890  144.3830 C   0  0  0  0  0  0  0  0  0  0  0  0
  186.7630  176.5110  142.3410 N   0  0  0  0  0  2  0  0  0  0  0  0
  186.1680  177.7410  142.7720 C   0  0  0  0  0  0  0  0  0  0  0  0
  188.8160  177.3860  141.6600 O   0  0  0  0  0  0  0  0  0  0  0  0
  188.0840  176.3710  141.7990 C   0  0  0  0  0  0  0  0  0  0  0  0
  186.8010  178.8290  142.7020 O   0  0  0  0  0  0  0  0  0  0  0  0
  184.7700  177.7370  143.2760 C   0  0  0  0  0  2  0  0  0  0  0  0
  184.7580  178.0660  144.7540 C   0  0  0  0  0  2  0  0  0  0  0  0
  185.1750  176.8410  145.5510 C   0  0  0  0  0  2  0  0  0  0  0  0
  186.3810  177.1140  146.4580 C   0  0  1  0  0  3  0  0  0  0  0  0
  188.2470  175.6450  146.9840 O   0  0  0  0  0  1  0  0  0  0  0  0
  187.6850  176.4520  145.9910 C   0  0  2  0  0  3  0  0  0  0  0  0
  188.7010  177.4590  145.4640 C   0  0  0  0  0  2  0  0  0  0  0  0
  189.9620  177.2380  146.0220 O   0  0  0  0  0  1  0  0  0  0  0  0
  186.3530  178.6920  148.0120 C   0  0  0  0  0  1  0  0  0  0  0  0
  186.5650  178.4870  146.6480 O   0  0  0  0  0  0  0  0  0  0  0  0
  1 24  1  0  0  0  0
  1  2  1  0  0  0  0
  2  8  1  0  0  0  0
  3  9  2  0  0  0  0
  5  7  1  0  0  0  0
  5 10  2  0  0  0  0
  6 13  1  6  0  0  0
  6  4  1  0  0  0  0
  7  1  2  0  0  0  0
  8  4  2  0  0  0  0
  9  6  1  0  0  0  0
 10 11  1  0  0  0  0
 11  2  2  0  0  0  0
 11  9  1  0  0  0  0
 12 15  1  0  0  0  0
 12 16  1  0  0  0  0
 13 20  1  0  0  0  0
 14 19  1  0  0  0  0
 15 18  1  6  0  0  0
 15 19  1  0  0  0  0
 16 17  1  0  0  0  0
 18 20  1  0  0  0  0
 19 17  1  6  0  0  0
 20 14  2  0  0  0  0
 21 22  1  0  0  0  0
 22 26  1  0  0  0  0
 23 24  2  0  0  0  0
 24 21  1  0  0  0  0
 25 22  2  0  0  0  0
 26 27  1  0  0  0  0
 27 28  1  0  0  0  0
 29 28  1  6  0  0  0
 29 35  1  0  0  0  0
 31 29  1  0  0  0  0
 31 30  1  1  0  0  0
 32 31  1  0  0  0  0
 32 33  1  0  0  0  0
 35 34  1  0  0  0  0
M  END
>  <MODEL>
6

>  <REMARK>
 VINA RESULT:      -7.3      4.115      6.503
  Name = 
  9 active torsions:
  status: ('A' for Active; 'I' for Inactive)
    1  A    between atoms: C_1  and  C_24
    2  A    between atoms: C_6  and  C_10
    3  A    between atoms: C_6  and  C_12
    4  A    between atoms: N_8  and  C_17
    5  A    between atoms: C_10  and  C_19
    6  A    between atoms: C_11  and  C_12
    7  A    between atoms: C_11  and  C_32
    8  A    between atoms: C_11  and  O_35
    9  A    between atoms: C_13  and  C_32
                            x       y       z     vdW  Elec       q    Type
                         _______ _______ _______ _____ _____    ______ ____

>  <TORSDO>
F 9

$$$$
=
 OpenBabel11042418183D

 35 38  0  0  1  0  0  0  0  0999 V2000
  193.2310  174.2820  145.8340 C   0  0  0  0  0  0  0  0  0  0  0  0
  191.9480  174.7680  146.1950 C   0  0  0  0  0  0  0  0  0  0  0  0
  190.4100  177.6770  147.7240 O   0  0  0  0  0  0  0  0  0  0  0  0
  189.5140  174.4160  146.3570 C   0  0  0  0  0  3  0  0  0  0  0  0
  194.1700  176.4160  146.5030 C   0  0  0  0  0  3  0  0  0  0  0  0
  189.2550  175.8660  146.6660 C   0  0  1  0  0  3  0  0  0  0  0  0
  194.3340  175.1290  145.9940 C   0  0  0  0  0  3  0  0  0  0  0  0
  190.7330  173.9280  146.1120 C   0  0  0  0  0  3  0  0  0  0  0  0
  190.5050  176.5950  147.0840 C   0  0  0  0  0  0  0  0  0  0  0  0
  192.9330  176.8590  146.8450 N   0  0  0  0  0  0  0  0  0  0  0  0
  191.8300  176.0770  146.7000 C   0  0  0  0  0  0  0  0  0  0  0  0
  184.5050  178.2410  144.9230 O   0  0  0  0  0  0  0  0  0  0  0  0
  188.6800  176.5080  145.4900 N   0  0  0  0  0  2  0  0  0  0  0  0
  187.1290  177.8470  146.6910 N   0  0  0  0  0  0  0  0  0  0  0  0
  185.6820  178.9740  145.1370 C   0  0  2  0  0  3  0  0  0  0  0  0
  183.8200  178.2770  146.1450 C   0  0  0  0  0  2  0  0  0  0  0  0
  184.8370  178.3200  147.2620 C   0  0  0  0  0  2  0  0  0  0  0  0
  187.0250  178.2940  144.1100 S   0  0  0  0  0  0  0  0  0  0  0  0
  186.0770  178.8410  146.5990 C   0  0  1  0  0  3  0  0  0  0  0  0
  187.6710  177.5160  145.5710 C   0  0  0  0  0  0  0  0  0  0  0  0
  192.6580  172.4330  144.2180 N   0  0  0  0  0  2  0  0  0  0  0  0
  192.7830  171.1490  143.5950 C   0  0  0  0  0  0  0  0  0  0  0  0
  194.3830  172.1880  145.7700 O   0  0  0  0  0  0  0  0  0  0  0  0
  193.4750  172.9190  145.2930 C   0  0  0  0  0  0  0  0  0  0  0  0
  193.6640  170.3280  143.9680 O   0  0  0  0  0  0  0  0  0  0  0  0
  191.8340  170.7670  142.5160 C   0  0  0  0  0  2  0  0  0  0  0  0
  190.6740  171.7390  142.4880 C   0  0  0  0  0  2  0  0  0  0  0  0
  190.7240  172.5540  141.2060 C   0  0  0  0  0  2  0  0  0  0  0  0
  190.2200  173.9890  141.4030 C   0  0  1  0  0  3  0  0  0  0  0  0
  187.8220  173.6680  141.6570 O   0  0  0  0  0  1  0  0  0  0  0  0
  188.8100  174.2440  140.8530 C   0  0  2  0  0  3  0  0  0  0  0  0
  188.6560  173.8090  139.4000 C   0  0  0  0  0  2  0  0  0  0  0  0
  187.8480  172.6740  139.2990 O   0  0  0  0  0  1  0  0  0  0  0  0
  190.9420  175.6090  142.7300 C   0  0  0  0  0  1  0  0  0  0  0  0
  190.3010  174.3690  142.7460 O   0  0  0  0  0  0  0  0  0  0  0  0
  1  7  2  0  0  0  0
  1  2  1  0  0  0  0
  2 11  2  0  0  0  0
  4  6  1  0  0  0  0
  5 10  2  0  0  0  0
  6 13  1  6  0  0  0
  6  9  1  0  0  0  0
  7  5  1  0  0  0  0
  8  2  1  0  0  0  0
  8  4  2  0  0  0  0
  9  3  2  0  0  0  0
 11 10  1  0  0  0  0
 11  9  1  0  0  0  0
 12 15  1  0  0  0  0
 12 16  1  0  0  0  0
 13 20  1  0  0  0  0
 15 18  1  6  0  0  0
 15 19  1  0  0  0  0
 16 17  1  0  0  0  0
 18 20  1  0  0  0  0
 19 14  1  0  0  0  0
 19 17  1  1  0  0  0
 20 14  2  0  0  0  0
 21 24  1  0  0  0  0
 22 25  2  0  0  0  0
 22 21  1  0  0  0  0
 24 23  2  0  0  0  0
 24  1  1  0  0  0  0
 26 22  1  0  0  0  0
 27 26  1  0  0  0  0
 28 27  1  0  0  0  0
 29 28  1  1  0  0  0
 29 35  1  0  0  0  0
 31 29  1  0  0  0  0
 31 30  1  1  0  0  0
 32 31  1  0  0  0  0
 33 32  1  0  0  0  0
 34 35  1  0  0  0  0
M  END
>  <MODEL>
7

>  <REMARK>
 VINA RESULT:      -7.3      4.426      9.535
  Name = 
  9 active torsions:
  status: ('A' for Active; 'I' for Inactive)
    1  A    between atoms: C_1  and  C_24
    2  A    between atoms: C_6  and  C_10
    3  A    between atoms: C_6  and  C_12
    4  A    between atoms: N_8  and  C_17
    5  A    between atoms: C_10  and  C_19
    6  A    between atoms: C_11  and  C_12
    7  A    between atoms: C_11  and  C_32
    8  A    between atoms: C_11  and  O_35
    9  A    between atoms: C_13  and  C_32
                            x       y       z     vdW  Elec       q    Type
                         _______ _______ _______ _____ _____    ______ ____

>  <TORSDO>
F 9

$$$$
=
 OpenBabel11042418183D

 35 38  0  0  1  0  0  0  0  0999 V2000
  190.3380  175.1240  145.2770 C   0  0  0  0  0  0  0  0  0  0  0  0
  191.6400  175.6340  145.0360 C   0  0  0  0  0  0  0  0  0  0  0  0
  194.4620  177.0130  146.8540 O   0  0  0  0  0  0  0  0  0  0  0  0
  193.4140  176.2570  143.4420 C   0  0  0  0  0  3  0  0  0  0  0  0
  190.7510  175.3390  147.6570 C   0  0  0  0  0  3  0  0  0  0  0  0
  194.4370  176.4140  144.5360 C   0  0  1  0  0  3  0  0  0  0  0  0
  189.9130  174.9810  146.6030 C   0  0  0  0  0  3  0  0  0  0  0  0
  192.1560  175.8710  143.6700 C   0  0  0  0  0  3  0  0  0  0  0  0
  193.8070  176.5120  145.9000 C   0  0  0  0  0  0  0  0  0  0  0  0
  191.9910  175.8280  147.4030 N   0  0  0  0  0  0  0  0  0  0  0  0
  192.4530  175.9780  146.1330 C   0  0  0  0  0  0  0  0  0  0  0  0
  197.2750  173.2690  140.8890 O   0  0  0  0  0  0  0  0  0  0  0  0
  195.3530  175.2810  144.4970 N   0  0  0  0  0  2  0  0  0  0  0  0
  196.4070  175.9040  142.4610 N   0  0  0  0  0  0  0  0  0  0  0  0
  197.9060  174.1540  141.7750 C   0  0  2  0  0  3  0  0  0  0  0  0
  197.0360  174.0170  139.7270 C   0  0  0  0  0  2  0  0  0  0  0  0
  196.7870  175.4530  140.1250 C   0  0  0  0  0  2  0  0  0  0  0  0
  197.4560  173.7330  143.4900 S   0  0  0  0  0  0  0  0  0  0  0  0
  197.4200  175.5650  141.4800 C   0  0  1  0  0  3  0  0  0  0  0  0
  196.3380  175.1140  143.4750 C   0  0  0  0  0  0  0  0  0  0  0  0
  188.4370  175.6870  143.7190 N   0  0  0  0  0  2  0  0  0  0  0  0
  187.4750  175.4520  142.6840 C   0  0  0  0  0  0  0  0  0  0  0  0
  189.4210  173.5720  143.7070 O   0  0  0  0  0  0  0  0  0  0  0  0
  189.3940  174.7310  144.1980 C   0  0  0  0  0  0  0  0  0  0  0  0
  187.4080  174.3380  142.0990 O   0  0  0  0  0  0  0  0  0  0  0  0
  186.5170  176.5300  142.3210 C   0  0  0  0  0  2  0  0  0  0  0  0
  187.1410  177.8820  142.5950 C   0  0  0  0  0  2  0  0  0  0  0  0
  186.7400  178.3540  143.9830 C   0  0  0  0  0  2  0  0  0  0  0  0
  185.3550  177.8420  144.3980 C   0  0  1  0  0  3  0  0  0  0  0  0
  184.3610  177.5520  146.5990 O   0  0  0  0  0  1  0  0  0  0  0  0
  185.3390  177.0700  145.7250 C   0  0  2  0  0  3  0  0  0  0  0  0
  186.7060  177.0280  146.4000 C   0  0  0  0  0  2  0  0  0  0  0  0
  186.7770  177.9540  147.4430 O   0  0  0  0  0  1  0  0  0  0  0  0
  185.1870  180.0510  144.4080 C   0  0  0  0  0  1  0  0  0  0  0  0
  184.4230  178.8830  144.4230 O   0  0  0  0  0  0  0  0  0  0  0  0
  1  7  1  0  0  0  0
  2  1  2  0  0  0  0
  2 11  1  0  0  0  0
  4  8  2  0  0  0  0
  4  6  1  0  0  0  0
  6 13  1  1  0  0  0
  6  9  1  0  0  0  0
  7  5  2  0  0  0  0
  8  2  1  0  0  0  0
  9 11  1  0  0  0  0
  9  3  2  0  0  0  0
 10  5  1  0  0  0  0
 11 10  2  0  0  0  0
 14 20  2  0  0  0  0
 15 12  1  6  0  0  0
 15 18  1  0  0  0  0
 16 17  1  0  0  0  0
 16 12  1  0  0  0  0
 19 17  1  6  0  0  0
 19 15  1  0  0  0  0
 19 14  1  0  0  0  0
 20 18  1  0  0  0  0
 20 13  1  0  0  0  0
 21 24  1  0  0  0  0
 22 21  1  0  0  0  0
 23 24  2  0  0  0  0
 24  1  1  0  0  0  0
 25 22  2  0  0  0  0
 26 27  1  0  0  0  0
 26 22  1  0  0  0  0
 27 28  1  0  0  0  0
 29 28  1  1  0  0  0
 29 35  1  0  0  0  0
 29 31  1  0  0  0  0
 31 32  1  0  0  0  0
 31 30  1  1  0  0  0
 32 33  1  0  0  0  0
 34 35  1  0  0  0  0
M  END
>  <MODEL>
8

>  <REMARK>
 VINA RESULT:      -7.2      4.361      5.995
  Name = 
  9 active torsions:
  status: ('A' for Active; 'I' for Inactive)
    1  A    between atoms: C_1  and  C_24
    2  A    between atoms: C_6  and  C_10
    3  A    between atoms: C_6  and  C_12
    4  A    between atoms: N_8  and  C_17
    5  A    between atoms: C_10  and  C_19
    6  A    between atoms: C_11  and  C_12
    7  A    between atoms: C_11  and  C_32
    8  A    between atoms: C_11  and  O_35
    9  A    between atoms: C_13  and  C_32
                            x       y       z     vdW  Elec       q    Type
                         _______ _______ _______ _____ _____    ______ ____

>  <TORSDO>
F 9

$$$$
=
 OpenBabel11042418183D

 35 38  0  0  1  0  0  0  0  0999 V2000
  188.7850  174.7210  141.4810 C   0  0  0  0  0  0  0  0  0  0  0  0
  189.3860  173.7240  142.2910 C   0  0  0  0  0  0  0  0  0  0  0  0
  190.4590  170.2630  142.0950 O   0  0  0  0  0  0  0  0  0  0  0  0
  190.2810  173.0200  144.4780 C   0  0  0  0  0  3  0  0  0  0  0  0
  188.8920  173.1880  139.6050 C   0  0  0  0  0  3  0  0  0  0  0  0
  190.8960  171.7720  143.9010 C   0  0  1  0  0  3  0  0  0  0  0  0
  188.5480  174.4310  140.1320 C   0  0  0  0  0  3  0  0  0  0  0  0
  189.6250  173.9180  143.7370 C   0  0  0  0  0  3  0  0  0  0  0  0
  190.3440  171.4360  142.5410 C   0  0  0  0  0  0  0  0  0  0  0  0
  189.4640  172.2480  140.3990 N   0  0  0  0  0  0  0  0  0  0  0  0
  189.7220  172.4840  141.7130 C   0  0  0  0  0  0  0  0  0  0  0  0
  195.6280  169.8730  146.1930 O   0  0  0  0  0  0  0  0  0  0  0  0
  192.3400  171.9490  143.8170 N   0  0  0  0  0  2  0  0  0  0  0  0
  192.8870  169.7620  144.5660 N   0  0  0  0  0  0  0  0  0  0  0  0
  195.2670  169.5970  144.8660 C   0  0  2  0  0  3  0  0  0  0  0  0
  195.0940  168.8190  146.9480 C   0  0  0  0  0  2  0  0  0  0  0  0
  193.8170  168.3550  146.2860 C   0  0  0  0  0  2  0  0  0  0  0  0
  195.0210  171.1570  143.9570 S   0  0  0  0  0  0  0  0  0  0  0  0
  193.9540  168.8280  144.8700 C   0  0  1  0  0  3  0  0  0  0  0  0
  193.2690  170.9030  144.1080 C   0  0  0  0  0  0  0  0  0  0  0  0
  187.0420  176.2740  142.4370 N   0  0  0  0  0  2  0  0  0  0  0  0
  186.5220  177.5060  142.9510 C   0  0  0  0  0  0  0  0  0  0  0  0
  189.2140  177.0120  142.0110 O   0  0  0  0  0  0  0  0  0  0  0  0
  188.3870  176.0630  141.9840 C   0  0  0  0  0  0  0  0  0  0  0  0
  187.2510  178.5290  143.0470 O   0  0  0  0  0  0  0  0  0  0  0  0
  185.0910  177.5850  143.3440 C   0  0  0  0  0  2  0  0  0  0  0  0
  184.9830  177.7750  144.8430 C   0  0  0  0  0  2  0  0  0  0  0  0
  185.5410  176.5530  145.5520 C   0  0  0  0  0  2  0  0  0  0  0  0
  186.6340  176.9110  146.5660 C   0  0  1  0  0  3  0  0  0  0  0  0
  188.5490  175.5510  147.1980 O   0  0  0  0  0  1  0  0  0  0  0  0
  188.0300  176.3850  146.2040 C   0  0  2  0  0  3  0  0  0  0  0  0
  189.0090  177.5020  145.8580 C   0  0  0  0  0  2  0  0  0  0  0  0
  190.1120  177.0020  145.1610 O   0  0  0  0  0  1  0  0  0  0  0  0
  186.2970  178.4410  148.1330 C   0  0  0  0  0  1  0  0  0  0  0  0
  186.6720  178.2900  146.7970 O   0  0  0  0  0  0  0  0  0  0  0  0
  1 24  1  0  0  0  0
  1  2  1  0  0  0  0
  2  8  1  0  0  0  0
  3  9  2  0  0  0  0
  5  7  1  0  0  0  0
  5 10  2  0  0  0  0
  6 13  1  6  0  0  0
  6  4  1  0  0  0  0
  7  1  2  0  0  0  0
  8  4  2  0  0  0  0
  9  6  1  0  0  0  0
 10 11  1  0  0  0  0
 11  2  2  0  0  0  0
 11  9  1  0  0  0  0
 12 16  1  0  0  0  0
 13 20  1  0  0  0  0
 14 19  1  0  0  0  0
 15 18  1  6  0  0  0
 15 19  1  0  0  0  0
 15 12  1  0  0  0  0
 17 16  1  0  0  0  0
 18 20  1  0  0  0  0
 19 17  1  1  0  0  0
 20 14  2  0  0  0  0
 21 22  1  0  0  0  0
 22 25  2  0  0  0  0
 22 26  1  0  0  0  0
 24 23  2  0  0  0  0
 24 21  1  0  0  0  0
 26 27  1  0  0  0  0
 27 28  1  0  0  0  0
 29 28  1  6  0  0  0
 29 35  1  0  0  0  0
 31 29  1  0  0  0  0
 31 30  1  1  0  0  0
 32 31  1  0  0  0  0
 33 32  1  0  0  0  0
 35 34  1  0  0  0  0
M  END
>  <MODEL>
9

>  <REMARK>
 VINA RESULT:      -7.1      4.725      7.209
  Name = 
  9 active torsions:
  status: ('A' for Active; 'I' for Inactive)
    1  A    between atoms: C_1  and  C_24
    2  A    between atoms: C_6  and  C_10
    3  A    between atoms: C_6  and  C_12
    4  A    between atoms: N_8  and  C_17
    5  A    between atoms: C_10  and  C_19
    6  A    between atoms: C_11  and  C_12
    7  A    between atoms: C_11  and  C_32
    8  A    between atoms: C_11  and  O_35
    9  A    between atoms: C_13  and  C_32
                            x       y       z     vdW  Elec       q    Type
                         _______ _______ _______ _____ _____    ______ ____

>  <TORSDO>
F 9

$$$$
