=
 OpenBabel11042417583D

 36 40  0  0  1  0  0  0  0  0999 V2000
  192.2350  175.4220  143.7980 C   0  0  1  0  0  3  0  0  0  0  0  0
  187.1480  177.2780  147.2360 C   0  0  0  0  0  2  0  0  0  0  0  0
  188.6710  175.9190  142.7900 C   0  0  0  0  0  0  0  0  0  0  0  0
  193.6110  175.3400  144.4510 C   0  0  0  0  0  2  0  0  0  0  0  0
  193.5630  174.5370  145.7560 C   0  0  1  0  0  3  0  0  0  0  0  0
  189.8660  175.0100  144.7540 C   0  0  1  0  0  3  0  0  0  0  0  0
  189.5850  177.4150  146.6650 C   0  0  0  0  0  2  0  0  0  0  0  0
  190.6430  176.4300  147.1550 C   0  0  0  0  0  2  0  0  0  0  0  0
  188.2930  176.6400  146.4690 C   0  0  2  0  0  3  0  0  0  0  0  0
  187.9020  176.5740  145.0620 N   0  0  0  0  0  0  0  0  0  0  0  0
  186.1720  177.8300  141.2430 C   0  0  0  0  0  2  0  0  0  0  0  0
  191.1460  175.8710  144.7930 C   0  0  1  0  0  3  0  0  0  0  0  0
  192.2850  176.3120  142.7250 O   0  0  0  0  0  1  0  0  0  0  0  0
  188.7230  175.7940  144.1390 C   0  0  0  0  0  0  0  0  0  0  0  0
  186.4840  177.2940  142.5960 C   0  0  0  0  0  0  0  0  0  0  0  0
  192.3650  174.9180  146.6390 C   0  0  0  0  0  2  0  0  0  0  0  0
  187.6540  176.7470  142.1420 C   0  0  0  0  0  0  0  0  0  0  0  0
  191.6750  176.1160  146.1560 N   0  0  2  0  0  0  0  0  0  0  0  0
  187.3920  177.2760  140.7720 C   0  0  0  0  0  2  0  0  0  0  0  0
  190.0530  173.7540  144.1640 O   0  0  0  0  0  1  0  0  0  0  0  0
  185.9310  177.0860  146.3570 C   0  0  0  0  0  2  0  0  0  0  0  0
  186.4980  176.9100  144.9960 C   0  0  0  0  0  0  0  0  0  0  0  0
  185.8170  177.2690  143.8810 C   0  0  0  0  0  0  0  0  0  0  0  0
  193.5020  173.1140  145.4660 N   0  0  0  0  0  2  0  0  0  0  0  0
  194.7390  172.7540  144.7930 C   0  0  0  0  0  2  0  0  0  0  0  0
  196.7060  172.5320  146.1160 O   0  0  0  0  0  1  0  0  0  0  0  0
  195.5670  171.8470  145.6890 C   0  0  0  0  0  2  0  0  0  0  0  0
  184.4700  177.6760  143.8700 O   0  0  0  0  0  0  0  0  0  0  0  0
  185.1760  179.9400  144.2030 C   0  0  0  0  0  1  0  0  0  0  0  0
  183.9950  179.0070  144.0400 C   0  0  0  0  0  2  0  0  0  0  0  0
  189.6220  175.2420  142.0070 O   0  0  0  0  0  0  0  0  0  0  0  0
  189.2990  174.3550  140.9440 C   0  0  0  0  0  2  0  0  0  0  0  0
  191.5830  173.7670  140.6360 O   0  0  0  0  0  0  0  0  0  0  0  0
  190.1000  171.9670  140.8120 N   0  0  0  0  0  2  0  0  0  0  0  0
  190.3960  173.3650  140.7740 C   0  0  0  0  0  0  0  0  0  0  0  0
  191.1380  170.9570  140.6810 C   0  0  0  0  0  1  0  0  0  0  0  0
  1 13  1  6  0  0  0
  1  4  1  0  0  0  0
  1 12  1  0  0  0  0
  3 14  2  0  0  0  0
  4  5  1  0  0  0  0
  5 24  1  6  0  0  0
  5 16  1  0  0  0  0
  6 20  1  6  0  0  0
  6 12  1  0  0  0  0
  7  8  1  0  0  0  0
  9  7  1  6  0  0  0
  9  2  1  0  0  0  0
 10  9  1  0  0  0  0
 11 15  1  0  0  0  0
 12 18  1  0  0  0  0
 14  6  1  0  0  0  0
 14 10  1  0  0  0  0
 15 23  1  0  0  0  0
 17 15  2  0  0  0  0
 17  3  1  0  0  0  0
 18 16  1  0  0  0  0
 18  8  1  0  0  0  0
 19 11  1  0  0  0  0
 19 17  1  0  0  0  0
 21  2  1  0  0  0  0
 22 10  1  0  0  0  0
 22 21  1  0  0  0  0
 23 22  2  0  0  0  0
 25 24  1  0  0  0  0
 25 27  1  0  0  0  0
 27 26  1  0  0  0  0
 28 23  1  0  0  0  0
 28 30  1  0  0  0  0
 30 29  1  0  0  0  0
 31  3  1  0  0  0  0
 32 31  1  0  0  0  0
 33 35  2  0  0  0  0
 35 34  1  0  0  0  0
 35 32  1  0  0  0  0
 36 34  1  0  0  0  0
M  END
>  <MODEL>
1

>  <REMARK>
 VINA RESULT:      -7.4      0.000      0.000
  Name = 
  8 active torsions:
  status: ('A' for Active; 'I' for Inactive)
    1  A    between atoms: C_4  and  O_35
    2  A    between atoms: C_6  and  N_29
    3  A    between atoms: C_19  and  C_21
    4  A    between atoms: C_19  and  N_29
    5  A    between atoms: C_24  and  C_28
    6  A    between atoms: C_24  and  O_35
    7  A    between atoms: C_27  and  O_33
    8  A    between atoms: O_33  and  C_34
                            x       y       z     vdW  Elec       q    Type
                         _______ _______ _______ _____ _____    ______ ____

>  <TORSDO>
F 8

$$$$
=
 OpenBabel11042417583D

 36 40  0  0  1  0  0  0  0  0999 V2000
  190.5740  172.6280  144.0160 C   0  0  1  0  0  3  0  0  0  0  0  0
  187.3710  177.2750  140.9680 C   0  0  0  0  0  2  0  0  0  0  0  0
  188.9780  175.7420  145.3270 C   0  0  0  0  0  0  0  0  0  0  0  0
  191.0950  171.4220  143.2400 C   0  0  0  0  0  2  0  0  0  0  0  0
  191.8890  171.8550  142.0030 C   0  0  1  0  0  3  0  0  0  0  0  0
  190.2750  175.1030  143.3220 C   0  0  1  0  0  3  0  0  0  0  0  0
  187.9660  174.8610  141.2910 C   0  0  0  0  0  2  0  0  0  0  0  0
  189.2430  174.2090  140.7680 C   0  0  0  0  0  2  0  0  0  0  0  0
  188.3010  176.2960  141.6610 C   0  0  2  0  0  3  0  0  0  0  0  0
  188.1970  176.5290  143.1010 N   0  0  0  0  0  0  0  0  0  0  0  0
  186.3430  177.3630  146.9770 C   0  0  0  0  0  2  0  0  0  0  0  0
  189.8480  173.6370  143.1030 C   0  0  1  0  0  3  0  0  0  0  0  0
  189.7060  172.1940  145.0170 O   0  0  0  0  0  1  0  0  0  0  0  0
  189.1590  175.8810  143.9900 C   0  0  0  0  0  0  0  0  0  0  0  0
  186.9950  177.3800  145.6380 C   0  0  0  0  0  0  0  0  0  0  0  0
  191.1900  172.9740  141.2150 C   0  0  0  0  0  2  0  0  0  0  0  0
  187.8570  176.3840  146.0130 C   0  0  0  0  0  0  0  0  0  0  0  0
  189.8230  173.2140  141.6820 N   0  0  2  0  0  0  0  0  0  0  0  0
  187.2260  176.3210  147.3630 C   0  0  0  0  0  2  0  0  0  0  0  0
  191.5070  175.2370  143.9730 O   0  0  0  0  0  1  0  0  0  0  0  0
  187.1510  178.3870  141.9700 C   0  0  0  0  0  2  0  0  0  0  0  0
  187.4460  177.7500  143.2790 C   0  0  0  0  0  0  0  0  0  0  0  0
  186.8580  178.1620  144.4280 C   0  0  0  0  0  0  0  0  0  0  0  0
  193.2140  172.3070  142.3900 N   0  0  0  0  0  2  0  0  0  0  0  0
  193.5210  173.4860  141.5980 C   0  0  0  0  0  2  0  0  0  0  0  0
  194.5960  175.3410  142.6350 O   0  0  0  0  0  1  0  0  0  0  0  0
  194.8370  174.0900  142.0640 C   0  0  0  0  0  2  0  0  0  0  0  0
  186.0590  179.3160  144.5410 O   0  0  0  0  0  0  0  0  0  0  0  0
  183.9550  178.6620  143.6010 C   0  0  0  0  0  1  0  0  0  0  0  0
  184.6530  179.3420  144.7600 C   0  0  0  0  0  2  0  0  0  0  0  0
  189.8860  174.9570  146.0580 O   0  0  0  0  0  0  0  0  0  0  0  0
  190.2070  175.1690  147.4260 C   0  0  0  0  0  2  0  0  0  0  0  0
  191.3110  177.0930  148.2880 O   0  0  0  0  0  0  0  0  0  0  0  0
  192.5620  175.8050  146.7880 N   0  0  0  0  0  2  0  0  0  0  0  0
  191.3710  176.0900  147.5260 C   0  0  0  0  0  0  0  0  0  0  0  0
  193.7390  176.6560  146.8720 C   0  0  0  0  0  1  0  0  0  0  0  0
  1 13  1  1  0  0  0
  2 21  1  0  0  0  0
  3 17  1  0  0  0  0
  3 31  1  0  0  0  0
  4  1  1  0  0  0  0
  5 24  1  1  0  0  0
  5  4  1  0  0  0  0
  6 20  1  1  0  0  0
  6 14  1  0  0  0  0
  7  9  1  0  0  0  0
  8  7  1  0  0  0  0
  8 18  1  0  0  0  0
  9  2  1  6  0  0  0
  9 10  1  0  0  0  0
 10 22  1  0  0  0  0
 10 14  1  0  0  0  0
 11 19  1  0  0  0  0
 12  6  1  0  0  0  0
 12  1  1  0  0  0  0
 14  3  2  0  0  0  0
 15 17  2  0  0  0  0
 15 11  1  0  0  0  0
 16 18  1  0  0  0  0
 16  5  1  0  0  0  0
 17 19  1  0  0  0  0
 18 12  1  0  0  0  0
 21 22  1  0  0  0  0
 22 23  2  0  0  0  0
 23 28  1  0  0  0  0
 23 15  1  0  0  0  0
 25 27  1  0  0  0  0
 25 24  1  0  0  0  0
 27 26  1  0  0  0  0
 28 30  1  0  0  0  0
 29 30  1  0  0  0  0
 31 32  1  0  0  0  0
 32 35  1  0  0  0  0
 34 36  1  0  0  0  0
 34 35  1  0  0  0  0
 35 33  2  0  0  0  0
M  END
>  <MODEL>
2

>  <REMARK>
 VINA RESULT:      -7.3      2.043      4.868
  Name = 
  8 active torsions:
  status: ('A' for Active; 'I' for Inactive)
    1  A    between atoms: C_4  and  O_35
    2  A    between atoms: C_6  and  N_29
    3  A    between atoms: C_19  and  C_21
    4  A    between atoms: C_19  and  N_29
    5  A    between atoms: C_24  and  C_28
    6  A    between atoms: C_24  and  O_35
    7  A    between atoms: C_27  and  O_33
    8  A    between atoms: O_33  and  C_34
                            x       y       z     vdW  Elec       q    Type
                         _______ _______ _______ _____ _____    ______ ____

>  <TORSDO>
F 8

$$$$
=
 OpenBabel11042417583D

 36 40  0  0  1  0  0  0  0  0999 V2000
  191.7430  173.3000  143.4770 C   0  0  1  0  0  3  0  0  0  0  0  0
  187.0780  176.8440  140.8640 C   0  0  0  0  0  2  0  0  0  0  0  0
  189.7650  176.1380  144.8910 C   0  0  0  0  0  0  0  0  0  0  0  0
  192.3660  172.1530  142.6880 C   0  0  0  0  0  2  0  0  0  0  0  0
  192.7990  172.6080  141.2900 C   0  0  1  0  0  3  0  0  0  0  0  0
  190.7770  175.5740  142.7070 C   0  0  1  0  0  3  0  0  0  0  0  0
  188.2440  174.6510  141.2080 C   0  0  0  0  0  2  0  0  0  0  0  0
  189.5140  174.2250  140.4780 C   0  0  0  0  0  2  0  0  0  0  0  0
  188.3150  176.1550  141.4130 C   0  0  2  0  0  3  0  0  0  0  0  0
  188.4300  176.5110  142.8270 N   0  0  0  0  0  0  0  0  0  0  0  0
  187.1880  177.3450  146.9390 C   0  0  0  0  0  2  0  0  0  0  0  0
  190.6540  174.0370  142.6710 C   0  0  1  0  0  3  0  0  0  0  0  0
  191.1940  172.8030  144.6590 O   0  0  0  0  0  1  0  0  0  0  0  0
  189.6600  176.1710  143.5390 C   0  0  0  0  0  0  0  0  0  0  0  0
  187.5600  177.3560  145.4980 C   0  0  0  0  0  0  0  0  0  0  0  0
  191.7360  173.4720  140.5940 C   0  0  0  0  0  2  0  0  0  0  0  0
  188.6770  176.6040  145.7490 C   0  0  0  0  0  0  0  0  0  0  0  0
  190.4600  173.4720  141.3130 N   0  0  2  0  0  0  0  0  0  0  0  0
  188.3380  176.5530  147.2020 C   0  0  0  0  0  2  0  0  0  0  0  0
  192.0470  176.0260  143.0850 O   0  0  0  0  0  1  0  0  0  0  0  0
  186.8060  177.9850  141.8200 C   0  0  0  0  0  2  0  0  0  0  0  0
  187.4730  177.5630  143.0770 C   0  0  0  0  0  0  0  0  0  0  0  0
  187.0310  177.9630  144.2940 C   0  0  0  0  0  0  0  0  0  0  0  0
  194.0390  173.3610  141.3710 N   0  0  0  0  0  2  0  0  0  0  0  0
  193.9010  174.5220  140.5070 C   0  0  0  0  0  2  0  0  0  0  0  0
  195.2250  175.4250  142.2690 O   0  0  0  0  0  1  0  0  0  0  0  0
  194.8980  175.5930  140.9220 C   0  0  0  0  0  2  0  0  0  0  0  0
  186.0300  178.9320  144.4970 O   0  0  0  0  0  0  0  0  0  0  0  0
  184.0790  178.7420  145.8720 C   0  0  0  0  0  1  0  0  0  0  0  0
  184.6260  178.7060  144.4610 C   0  0  0  0  0  2  0  0  0  0  0  0
  190.9440  175.6380  145.4680 O   0  0  0  0  0  0  0  0  0  0  0  0
  191.5690  176.1900  146.6200 C   0  0  0  0  0  2  0  0  0  0  0  0
  193.7770  177.0360  146.8800 O   0  0  0  0  0  0  0  0  0  0  0  0
  193.6250  174.9050  145.9270 N   0  0  0  0  0  2  0  0  0  0  0  0
  193.0460  176.0900  146.4780 C   0  0  0  0  0  0  0  0  0  0  0  0
  195.0640  174.7440  145.7920 C   0  0  0  0  0  1  0  0  0  0  0  0
  1 13  1  1  0  0  0
  2 21  1  0  0  0  0
  3 31  1  0  0  0  0
  3 17  1  0  0  0  0
  4  1  1  0  0  0  0
  5 24  1  1  0  0  0
  5  4  1  0  0  0  0
  6 20  1  1  0  0  0
  6 14  1  0  0  0  0
  7  9  1  0  0  0  0
  8  7  1  0  0  0  0
  8 18  1  0  0  0  0
  9  2  1  1  0  0  0
  9 10  1  0  0  0  0
 10 22  1  0  0  0  0
 10 14  1  0  0  0  0
 11 19  1  0  0  0  0
 12  6  1  0  0  0  0
 12  1  1  0  0  0  0
 14  3  2  0  0  0  0
 15 17  2  0  0  0  0
 15 11  1  0  0  0  0
 16  5  1  0  0  0  0
 16 18  1  0  0  0  0
 17 19  1  0  0  0  0
 18 12  1  0  0  0  0
 21 22  1  0  0  0  0
 22 23  2  0  0  0  0
 23 28  1  0  0  0  0
 23 15  1  0  0  0  0
 25 27  1  0  0  0  0
 25 24  1  0  0  0  0
 27 26  1  0  0  0  0
 30 28  1  0  0  0  0
 30 29  1  0  0  0  0
 31 32  1  0  0  0  0
 34 35  1  0  0  0  0
 35 32  1  0  0  0  0
 35 33  2  0  0  0  0
 36 34  1  0  0  0  0
M  END
>  <MODEL>
3

>  <REMARK>
 VINA RESULT:      -6.9      2.029      4.789
  Name = 
  8 active torsions:
  status: ('A' for Active; 'I' for Inactive)
    1  A    between atoms: C_4  and  O_35
    2  A    between atoms: C_6  and  N_29
    3  A    between atoms: C_19  and  C_21
    4  A    between atoms: C_19  and  N_29
    5  A    between atoms: C_24  and  C_28
    6  A    between atoms: C_24  and  O_35
    7  A    between atoms: C_27  and  O_33
    8  A    between atoms: O_33  and  C_34
                            x       y       z     vdW  Elec       q    Type
                         _______ _______ _______ _____ _____    ______ ____

>  <TORSDO>
F 8

$$$$
=
 OpenBabel11042417583D

 36 40  0  0  1  0  0  0  0  0999 V2000
  192.1660  173.8910  142.5820 C   0  0  1  0  0  3  0  0  0  0  0  0
  189.5100  177.4190  147.2340 C   0  0  0  0  0  2  0  0  0  0  0  0
  188.8440  175.5960  142.7430 C   0  0  0  0  0  0  0  0  0  0  0  0
  193.5770  173.3360  142.7530 C   0  0  0  0  0  2  0  0  0  0  0  0
  193.7310  172.6060  144.0920 C   0  0  1  0  0  3  0  0  0  0  0  0
  190.2880  174.3350  144.3060 C   0  0  1  0  0  3  0  0  0  0  0  0
  191.4950  176.6950  145.8840 C   0  0  0  0  0  2  0  0  0  0  0  0
  192.2750  175.4050  146.1190 C   0  0  0  0  0  2  0  0  0  0  0  0
  190.0390  176.4190  146.2220 C   0  0  2  0  0  3  0  0  0  0  0  0
  189.1800  176.4870  145.0400 N   0  0  0  0  0  0  0  0  0  0  0  0
  186.7280  178.2530  141.8740 C   0  0  0  0  0  2  0  0  0  0  0  0
  191.7050  174.6950  143.8140 C   0  0  1  0  0  3  0  0  0  0  0  0
  192.1220  174.7030  141.4490 O   0  0  0  0  0  1  0  0  0  0  0  0
  189.3240  175.4660  144.0060 C   0  0  0  0  0  0  0  0  0  0  0  0
  187.3030  177.6470  143.1060 C   0  0  0  0  0  0  0  0  0  0  0  0
  193.1140  173.3850  145.2630 C   0  0  0  0  0  2  0  0  0  0  0  0
  187.9940  176.7240  142.3660 C   0  0  0  0  0  0  0  0  0  0  0  0
  192.7280  174.7460  144.8860 N   0  0  2  0  0  0  0  0  0  0  0  0
  187.4550  177.3060  141.1030 C   0  0  0  0  0  2  0  0  0  0  0  0
  189.8360  173.0900  143.8500 O   0  0  0  0  0  1  0  0  0  0  0  0
  188.0710  177.6600  146.8350 C   0  0  0  0  0  2  0  0  0  0  0  0
  188.0340  177.2920  145.3970 C   0  0  0  0  0  0  0  0  0  0  0  0
  187.1620  177.8620  144.5310 C   0  0  0  0  0  0  0  0  0  0  0  0
  193.1140  171.2930  144.0200 N   0  0  0  0  0  2  0  0  0  0  0  0
  194.1820  170.3160  143.8850 C   0  0  0  0  0  2  0  0  0  0  0  0
  194.6230  169.9330  146.1930 O   0  0  0  0  0  1  0  0  0  0  0  0
  194.1230  169.3280  145.0390 C   0  0  0  0  0  2  0  0  0  0  0  0
  186.1070  178.7130  144.9110 O   0  0  0  0  0  0  0  0  0  0  0  0
  184.3740  178.2860  146.5080 C   0  0  0  0  0  1  0  0  0  0  0  0
  184.7390  178.3450  145.0400 C   0  0  0  0  0  2  0  0  0  0  0  0
  189.1840  174.6270  141.7850 O   0  0  0  0  0  0  0  0  0  0  0  0
  188.2410  173.8100  141.1030 C   0  0  0  0  0  2  0  0  0  0  0  0
  189.8630  172.3490  140.1550 O   0  0  0  0  0  0  0  0  0  0  0  0
  188.4230  173.3770  138.6250 N   0  0  0  0  0  2  0  0  0  0  0  0
  188.9050  173.1430  139.9500 C   0  0  0  0  0  0  0  0  0  0  0  0
  189.0160  172.7290  137.4660 C   0  0  0  0  0  1  0  0  0  0  0  0
  1 13  1  6  0  0  0
  1  4  1  0  0  0  0
  1 12  1  0  0  0  0
  3 14  2  0  0  0  0
  4  5  1  0  0  0  0
  5 24  1  6  0  0  0
  5 16  1  0  0  0  0
  6 20  1  6  0  0  0
  7  8  1  0  0  0  0
  9  7  1  6  0  0  0
  9  2  1  0  0  0  0
 10 22  1  0  0  0  0
 10  9  1  0  0  0  0
 11 15  1  0  0  0  0
 12  6  1  0  0  0  0
 12 18  1  0  0  0  0
 14  6  1  0  0  0  0
 14 10  1  0  0  0  0
 15 23  1  0  0  0  0
 17  3  1  0  0  0  0
 17 15  2  0  0  0  0
 18 16  1  0  0  0  0
 18  8  1  0  0  0  0
 19 11  1  0  0  0  0
 19 17  1  0  0  0  0
 21  2  1  0  0  0  0
 22 21  1  0  0  0  0
 23 28  1  0  0  0  0
 23 22  2  0  0  0  0
 25 24  1  0  0  0  0
 25 27  1  0  0  0  0
 27 26  1  0  0  0  0
 28 30  1  0  0  0  0
 30 29  1  0  0  0  0
 31  3  1  0  0  0  0
 32 31  1  0  0  0  0
 34 35  1  0  0  0  0
 35 33  2  0  0  0  0
 35 32  1  0  0  0  0
 36 34  1  0  0  0  0
M  END
>  <MODEL>
4

>  <REMARK>
 VINA RESULT:      -6.7      1.745      2.069
  Name = 
  8 active torsions:
  status: ('A' for Active; 'I' for Inactive)
    1  A    between atoms: C_4  and  O_35
    2  A    between atoms: C_6  and  N_29
    3  A    between atoms: C_19  and  C_21
    4  A    between atoms: C_19  and  N_29
    5  A    between atoms: C_24  and  C_28
    6  A    between atoms: C_24  and  O_35
    7  A    between atoms: C_27  and  O_33
    8  A    between atoms: O_33  and  C_34
                            x       y       z     vdW  Elec       q    Type
                         _______ _______ _______ _____ _____    ______ ____

>  <TORSDO>
F 8

$$$$
=
 OpenBabel11042417583D

 36 40  0  0  1  0  0  0  0  0999 V2000
  187.7710  175.5830  142.8930 C   0  0  1  0  0  3  0  0  0  0  0  0
  191.8770  176.7910  147.6700 C   0  0  0  0  0  2  0  0  0  0  0  0
  191.3770  174.6830  143.2840 C   0  0  0  0  0  0  0  0  0  0  0  0
  186.3160  176.0300  143.0020 C   0  0  0  0  0  2  0  0  0  0  0  0
  186.2150  177.5090  143.3940 C   0  0  1  0  0  3  0  0  0  0  0  0
  189.9520  176.6360  143.8020 C   0  0  1  0  0  3  0  0  0  0  0  0
  189.5880  176.1980  146.8340 C   0  0  0  0  0  2  0  0  0  0  0  0
  188.5810  177.2050  146.2880 C   0  0  0  0  0  2  0  0  0  0  0  0
  190.9770  176.6840  146.4520 C   0  0  2  0  0  3  0  0  0  0  0  0
  191.6280  175.7890  145.4970 N   0  0  0  0  0  0  0  0  0  0  0  0
  193.8780  172.3390  144.0170 C   0  0  0  0  0  2  0  0  0  0  0  0
  188.5960  175.9800  144.1330 C   0  0  1  0  0  3  0  0  0  0  0  0
  187.8170  174.1990  142.7230 O   0  0  0  0  0  1  0  0  0  0  0  0
  191.0890  175.6930  144.1420 C   0  0  0  0  0  0  0  0  0  0  0  0
  193.3850  173.6400  144.5450 C   0  0  0  0  0  0  0  0  0  0  0  0
  187.1750  177.8840  144.5330 C   0  0  0  0  0  2  0  0  0  0  0  0
  192.3910  173.6800  143.6040 C   0  0  0  0  0  0  0  0  0  0  0  0
  187.7970  176.7090  145.1480 N   0  0  2  0  0  0  0  0  0  0  0  0
  192.8400  172.3700  143.0490 C   0  0  0  0  0  2  0  0  0  0  0  0
  190.0270  177.1420  142.4980 O   0  0  0  0  0  1  0  0  0  0  0  0
  193.2500  176.3820  147.1830 C   0  0  0  0  0  2  0  0  0  0  0  0
  192.9700  175.5580  145.9800 C   0  0  0  0  0  0  0  0  0  0  0  0
  193.7990  174.5630  145.5810 C   0  0  0  0  0  0  0  0  0  0  0  0
  186.4950  178.3510  142.2440 N   0  0  0  0  0  2  0  0  0  0  0  0
  185.2910  178.3910  141.4300 C   0  0  0  0  0  2  0  0  0  0  0  0
  186.9520  177.5500  139.9460 O   0  0  0  0  0  1  0  0  0  0  0  0
  185.6080  177.9160  140.0200 C   0  0  0  0  0  2  0  0  0  0  0  0
  195.0680  174.3160  146.1380 O   0  0  0  0  0  0  0  0  0  0  0  0
  197.2060  173.3210  145.7200 C   0  0  0  0  0  1  0  0  0  0  0  0
  196.3200  174.5290  145.4970 C   0  0  0  0  0  2  0  0  0  0  0  0
  190.6740  174.6020  142.0700 O   0  0  0  0  0  0  0  0  0  0  0  0
  191.2480  174.1840  140.8380 C   0  0  0  0  0  2  0  0  0  0  0  0
  190.6900  171.9680  140.1770 O   0  0  0  0  0  0  0  0  0  0  0  0
  189.1130  173.6060  139.6280 N   0  0  0  0  0  2  0  0  0  0  0  0
  190.3570  173.1840  140.1900 C   0  0  0  0  0  0  0  0  0  0  0  0
  188.1910  172.6660  139.0090 C   0  0  0  0  0  1  0  0  0  0  0  0
  1 13  1  1  0  0  0
  1  4  1  0  0  0  0
  1 12  1  0  0  0  0
  3 17  1  0  0  0  0
  3 14  2  0  0  0  0
  4  5  1  0  0  0  0
  5 24  1  6  0  0  0
  5 16  1  0  0  0  0
  6 20  1  6  0  0  0
  6 12  1  0  0  0  0
  6 14  1  0  0  0  0
  8  7  1  0  0  0  0
  9  7  1  1  0  0  0
  9  2  1  0  0  0  0
 10 22  1  0  0  0  0
 10  9  1  0  0  0  0
 11 15  1  0  0  0  0
 12 18  1  0  0  0  0
 14 10  1  0  0  0  0
 15 23  1  0  0  0  0
 16 18  1  0  0  0  0
 17 15  2  0  0  0  0
 18  8  1  0  0  0  0
 19 17  1  0  0  0  0
 19 11  1  0  0  0  0
 21  2  1  0  0  0  0
 22 21  1  0  0  0  0
 23 22  2  0  0  0  0
 23 28  1  0  0  0  0
 25 24  1  0  0  0  0
 26 27  1  0  0  0  0
 27 25  1  0  0  0  0
 30 29  1  0  0  0  0
 30 28  1  0  0  0  0
 31  3  1  0  0  0  0
 32 31  1  0  0  0  0
 33 35  2  0  0  0  0
 34 35  1  0  0  0  0
 35 32  1  0  0  0  0
 36 34  1  0  0  0  0
M  END
>  <MODEL>
5

>  <REMARK>
 VINA RESULT:      -6.6      1.828      7.099
  Name = 
  8 active torsions:
  status: ('A' for Active; 'I' for Inactive)
    1  A    between atoms: C_4  and  O_35
    2  A    between atoms: C_6  and  N_29
    3  A    between atoms: C_19  and  C_21
    4  A    between atoms: C_19  and  N_29
    5  A    between atoms: C_24  and  C_28
    6  A    between atoms: C_24  and  O_35
    7  A    between atoms: C_27  and  O_33
    8  A    between atoms: O_33  and  C_34
                            x       y       z     vdW  Elec       q    Type
                         _______ _______ _______ _____ _____    ______ ____

>  <TORSDO>
F 8

$$$$
=
 OpenBabel11042417583D

 36 40  0  0  1  0  0  0  0  0999 V2000
  189.9360  174.4130  145.3070 C   0  0  1  0  0  3  0  0  0  0  0  0
  195.9800  176.2940  144.2670 C   0  0  0  0  0  2  0  0  0  0  0  0
  192.0280  174.2690  142.2130 C   0  0  0  0  0  0  0  0  0  0  0  0
  189.3220  174.5440  146.6970 C   0  0  0  0  0  2  0  0  0  0  0  0
  189.5170  175.9560  147.2620 C   0  0  1  0  0  3  0  0  0  0  0  0
  191.6820  175.8670  144.0690 C   0  0  1  0  0  3  0  0  0  0  0  0
  194.2160  175.2660  145.7220 C   0  0  0  0  0  2  0  0  0  0  0  0
  193.1940  176.0590  146.5310 C   0  0  0  0  0  2  0  0  0  0  0  0
  194.4930  176.0410  144.4450 C   0  0  2  0  0  3  0  0  0  0  0  0
  194.0180  175.3320  143.2580 N   0  0  0  0  0  0  0  0  0  0  0  0
  194.0070  172.4740  139.9440 C   0  0  0  0  0  2  0  0  0  0  0  0
  191.3870  174.9330  145.2610 C   0  0  1  0  0  3  0  0  0  0  0  0
  189.9060  173.0750  144.9130 O   0  0  0  0  0  1  0  0  0  0  0  0
  192.5790  175.1700  143.0640 C   0  0  0  0  0  0  0  0  0  0  0  0
  194.1510  173.6270  140.8740 C   0  0  0  0  0  0  0  0  0  0  0  0
  190.9430  176.4870  147.0480 C   0  0  0  0  0  2  0  0  0  0  0  0
  192.8540  173.4900  141.2930 C   0  0  0  0  0  0  0  0  0  0  0  0
  191.8580  175.4470  146.5700 N   0  0  2  0  0  0  0  0  0  0  0  0
  192.6660  172.3190  140.3860 C   0  0  0  0  0  2  0  0  0  0  0  0
  190.5320  176.4180  143.4900 O   0  0  0  0  0  1  0  0  0  0  0  0
  196.2200  176.1950  142.7760 C   0  0  0  0  0  2  0  0  0  0  0  0
  195.0870  175.3700  142.2870 C   0  0  0  0  0  0  0  0  0  0  0  0
  195.1920  174.5830  141.1890 C   0  0  0  0  0  0  0  0  0  0  0  0
  188.5740  176.8750  146.6470 N   0  0  0  0  0  2  0  0  0  0  0  0
  187.2370  176.4170  146.9840 C   0  0  0  0  0  2  0  0  0  0  0  0
  184.9620  176.8200  146.4040 O   0  0  0  0  0  1  0  0  0  0  0  0
  186.2610  176.8310  145.8930 C   0  0  0  0  0  2  0  0  0  0  0  0
  196.2930  174.5870  140.3120 O   0  0  0  0  0  0  0  0  0  0  0  0
  197.8150  175.2910  138.6020 C   0  0  0  0  0  1  0  0  0  0  0  0
  196.3770  175.2900  139.0780 C   0  0  0  0  0  2  0  0  0  0  0  0
  190.6350  174.0840  142.2290 O   0  0  0  0  0  0  0  0  0  0  0  0
  189.8030  174.1660  141.0800 C   0  0  0  0  0  2  0  0  0  0  0  0
  187.6320  173.9120  142.0190 O   0  0  0  0  0  0  0  0  0  0  0  0
  188.1530  176.0640  141.2650 N   0  0  0  0  0  2  0  0  0  0  0  0
  188.4650  174.6850  141.4730 C   0  0  0  0  0  0  0  0  0  0  0  0
  186.8720  176.6300  141.6580 C   0  0  0  0  0  1  0  0  0  0  0  0
  1 13  1  1  0  0  0
  1  4  1  0  0  0  0
  3 31  1  0  0  0  0
  3 14  2  0  0  0  0
  4  5  1  0  0  0  0
  5 24  1  6  0  0  0
  6 20  1  6  0  0  0
  6 12  1  0  0  0  0
  7  8  1  0  0  0  0
  8 18  1  0  0  0  0
  9  2  1  6  0  0  0
  9  7  1  0  0  0  0
 10  9  1  0  0  0  0
 11 19  1  0  0  0  0
 11 15  1  0  0  0  0
 12  1  1  0  0  0  0
 12 18  1  0  0  0  0
 14 10  1  0  0  0  0
 14  6  1  0  0  0  0
 15 23  1  0  0  0  0
 15 17  2  0  0  0  0
 16  5  1  0  0  0  0
 17  3  1  0  0  0  0
 18 16  1  0  0  0  0
 19 17  1  0  0  0  0
 21  2  1  0  0  0  0
 22 21  1  0  0  0  0
 22 10  1  0  0  0  0
 23 22  2  0  0  0  0
 24 25  1  0  0  0  0
 27 26  1  0  0  0  0
 27 25  1  0  0  0  0
 28 23  1  0  0  0  0
 29 30  1  0  0  0  0
 30 28  1  0  0  0  0
 32 35  1  0  0  0  0
 32 31  1  0  0  0  0
 34 35  1  0  0  0  0
 34 36  1  0  0  0  0
 35 33  2  0  0  0  0
M  END
>  <MODEL>
6

>  <REMARK>
 VINA RESULT:      -6.3      2.656      7.342
  Name = 
  8 active torsions:
  status: ('A' for Active; 'I' for Inactive)
    1  A    between atoms: C_4  and  O_35
    2  A    between atoms: C_6  and  N_29
    3  A    between atoms: C_19  and  C_21
    4  A    between atoms: C_19  and  N_29
    5  A    between atoms: C_24  and  C_28
    6  A    between atoms: C_24  and  O_35
    7  A    between atoms: C_27  and  O_33
    8  A    between atoms: O_33  and  C_34
                            x       y       z     vdW  Elec       q    Type
                         _______ _______ _______ _____ _____    ______ ____

>  <TORSDO>
F 8

$$$$
=
 OpenBabel11042417583D

 36 40  0  0  1  0  0  0  0  0999 V2000
  189.1200  177.2270  143.4720 C   0  0  1  0  0  3  0  0  0  0  0  0
  191.8450  171.7090  141.6630 C   0  0  0  0  0  2  0  0  0  0  0  0
  191.8400  175.2230  145.0670 C   0  0  0  0  0  0  0  0  0  0  0  0
  188.0420  177.8690  142.6030 C   0  0  0  0  0  2  0  0  0  0  0  0
  186.9470  176.8610  142.2370 C   0  0  1  0  0  3  0  0  0  0  0  0
  189.7190  174.7450  143.8890 C   0  0  1  0  0  3  0  0  0  0  0  0
  190.8490  173.9480  141.1320 C   0  0  0  0  0  2  0  0  0  0  0  0
  189.3510  174.2330  141.0630 C   0  0  0  0  0  2  0  0  0  0  0  0
  191.0680  172.8950  142.2060 C   0  0  2  0  0  3  0  0  0  0  0  0
  191.8080  173.4250  143.3500 N   0  0  0  0  0  0  0  0  0  0  0  0
  195.2340  174.6870  145.7630 C   0  0  0  0  0  2  0  0  0  0  0  0
  189.6350  175.9030  142.8730 C   0  0  1  0  0  3  0  0  0  0  0  0
  190.1830  178.1180  143.6220 O   0  0  0  0  0  1  0  0  0  0  0  0
  191.1670  174.4240  144.2020 C   0  0  0  0  0  0  0  0  0  0  0  0
  194.1180  173.9880  145.0690 C   0  0  0  0  0  0  0  0  0  0  0  0
  187.5170  175.5040  141.7960 C   0  0  0  0  0  2  0  0  0  0  0  0
  193.2650  175.0280  145.3300 C   0  0  0  0  0  0  0  0  0  0  0  0
  188.9680  175.5480  141.5970 N   0  0  2  0  0  0  0  0  0  0  0  0
  194.3570  175.7730  146.0230 C   0  0  0  0  0  2  0  0  0  0  0  0
  188.9400  174.9470  145.0360 O   0  0  0  0  0  1  0  0  0  0  0  0
  192.7280  171.2600  142.8060 C   0  0  0  0  0  2  0  0  0  0  0  0
  192.8470  172.4690  143.6600 C   0  0  0  0  0  0  0  0  0  0  0  0
  193.9380  172.7020  144.4290 C   0  0  0  0  0  0  0  0  0  0  0  0
  186.0580  176.6540  143.3680 N   0  0  0  0  0  2  0  0  0  0  0  0
  184.9190  177.5410  143.1940 C   0  0  0  0  0  2  0  0  0  0  0  0
  184.4430  177.9160  145.4970 O   0  0  0  0  0  1  0  0  0  0  0  0
  184.8750  178.5500  144.3310 C   0  0  0  0  0  2  0  0  0  0  0  0
  194.9740  171.7730  144.6380 O   0  0  0  0  0  0  0  0  0  0  0  0
  196.5900  170.8370  146.1380 C   0  0  0  0  0  1  0  0  0  0  0  0
  195.1240  170.9250  145.7700 C   0  0  0  0  0  2  0  0  0  0  0  0
  191.1470  176.2600  145.7130 O   0  0  0  0  0  0  0  0  0  0  0  0
  191.0710  176.4160  147.1240 C   0  0  0  0  0  2  0  0  0  0  0  0
  190.1160  178.2990  148.2200 O   0  0  0  0  0  0  0  0  0  0  0  0
  188.6430  177.0580  146.8930 N   0  0  0  0  0  2  0  0  0  0  0  0
  189.9300  177.3080  147.4630 C   0  0  0  0  0  0  0  0  0  0  0  0
  187.5010  177.9150  147.1680 C   0  0  0  0  0  1  0  0  0  0  0  0
  1 13  1  6  0  0  0
  2  9  1  0  0  0  0
  2 21  1  0  0  0  0
  3 17  1  0  0  0  0
  3 31  1  0  0  0  0
  4  1  1  0  0  0  0
  5  4  1  0  0  0  0
  5 24  1  1  0  0  0
  6 14  1  0  0  0  0
  6 20  1  1  0  0  0
  8  7  1  0  0  0  0
  8 18  1  0  0  0  0
  9  7  1  6  0  0  0
  9 10  1  0  0  0  0
 10 22  1  0  0  0  0
 10 14  1  0  0  0  0
 11 19  1  0  0  0  0
 12  1  1  0  0  0  0
 12  6  1  0  0  0  0
 14  3  2  0  0  0  0
 15 17  2  0  0  0  0
 15 11  1  0  0  0  0
 16  5  1  0  0  0  0
 17 19  1  0  0  0  0
 18 16  1  0  0  0  0
 18 12  1  0  0  0  0
 21 22  1  0  0  0  0
 22 23  2  0  0  0  0
 23 28  1  0  0  0  0
 23 15  1  0  0  0  0
 25 24  1  0  0  0  0
 25 27  1  0  0  0  0
 27 26  1  0  0  0  0
 28 30  1  0  0  0  0
 30 29  1  0  0  0  0
 31 32  1  0  0  0  0
 32 35  1  0  0  0  0
 34 36  1  0  0  0  0
 34 35  1  0  0  0  0
 35 33  2  0  0  0  0
M  END
>  <MODEL>
7

>  <REMARK>
 VINA RESULT:      -6.3      1.992      8.313
  Name = 
  8 active torsions:
  status: ('A' for Active; 'I' for Inactive)
    1  A    between atoms: C_4  and  O_35
    2  A    between atoms: C_6  and  N_29
    3  A    between atoms: C_19  and  C_21
    4  A    between atoms: C_19  and  N_29
    5  A    between atoms: C_24  and  C_28
    6  A    between atoms: C_24  and  O_35
    7  A    between atoms: C_27  and  O_33
    8  A    between atoms: O_33  and  C_34
                            x       y       z     vdW  Elec       q    Type
                         _______ _______ _______ _____ _____    ______ ____

>  <TORSDO>
F 8

$$$$
=
 OpenBabel11042417583D

 36 40  0  0  1  0  0  0  0  0999 V2000
  194.4660  174.8830  142.3930 C   0  0  1  0  0  3  0  0  0  0  0  0
  191.9450  176.7460  147.9890 C   0  0  0  0  0  2  0  0  0  0  0  0
  190.9320  175.6590  143.3280 C   0  0  0  0  0  0  0  0  0  0  0  0
  195.9720  174.6720  142.2640 C   0  0  0  0  0  2  0  0  0  0  0  0
  196.5070  173.7730  143.3840 C   0  0  1  0  0  3  0  0  0  0  0  0
  192.8600  174.5320  144.3900 C   0  0  1  0  0  3  0  0  0  0  0  0
  193.7790  176.7900  146.2790 C   0  0  0  0  0  2  0  0  0  0  0  0
  194.8480  175.7120  146.1330 C   0  0  0  0  0  2  0  0  0  0  0  0
  192.4970  176.1080  146.7270 C   0  0  2  0  0  3  0  0  0  0  0  0
  191.4540  176.1750  145.7030 N   0  0  0  0  0  0  0  0  0  0  0  0
  188.1750  177.8250  143.3200 C   0  0  0  0  0  2  0  0  0  0  0  0
  194.0600  175.3130  143.8170 C   0  0  1  0  0  3  0  0  0  0  0  0
  194.0560  175.8510  141.4760 O   0  0  0  0  0  1  0  0  0  0  0  0
  191.6370  175.4250  144.4630 C   0  0  0  0  0  0  0  0  0  0  0  0
  189.0690  177.1660  144.3120 C   0  0  0  0  0  0  0  0  0  0  0  0
  195.9450  174.1500  144.7630 C   0  0  0  0  0  2  0  0  0  0  0  0
  189.8070  176.5920  143.3110 C   0  0  0  0  0  0  0  0  0  0  0  0
  195.2150  175.4200  144.7390 N   0  0  2  0  0  0  0  0  0  0  0  0
  188.9470  177.2420  142.2800 C   0  0  0  0  0  2  0  0  0  0  0  0
  192.6170  173.3180  143.7360 O   0  0  0  0  0  1  0  0  0  0  0  0
  190.4410  176.6940  147.8320 C   0  0  0  0  0  2  0  0  0  0  0  0
  190.2400  176.5940  146.3640 C   0  0  0  0  0  0  0  0  0  0  0  0
  189.1300  177.0780  145.7560 C   0  0  0  0  0  0  0  0  0  0  0  0
  196.1850  172.3830  143.1070 N   0  0  0  0  0  2  0  0  0  0  0  0
  195.7680  171.7750  144.3590 C   0  0  0  0  0  2  0  0  0  0  0  0
  194.4120  170.6490  142.7580 O   0  0  0  0  0  1  0  0  0  0  0  0
  194.8650  170.5840  144.0760 C   0  0  0  0  0  2  0  0  0  0  0  0
  187.9970  177.5600  146.4380 O   0  0  0  0  0  0  0  0  0  0  0  0
  185.9430  177.6060  147.6690 C   0  0  0  0  0  1  0  0  0  0  0  0
  186.7960  176.8370  146.6820 C   0  0  0  0  0  2  0  0  0  0  0  0
  191.3050  174.9940  142.1480 O   0  0  0  0  0  0  0  0  0  0  0  0
  190.4380  174.1590  141.3910 C   0  0  0  0  0  2  0  0  0  0  0  0
  192.0540  173.7530  139.6930 O   0  0  0  0  0  0  0  0  0  0  0  0
  191.1320  171.8420  140.6770 N   0  0  0  0  0  2  0  0  0  0  0  0
  191.2470  173.2590  140.5260 C   0  0  0  0  0  0  0  0  0  0  0  0
  191.9200  170.9180  139.8780 C   0  0  0  0  0  1  0  0  0  0  0  0
  1 13  1  6  0  0  0
  1 12  1  0  0  0  0
  3 14  2  0  0  0  0
  4  1  1  0  0  0  0
  4  5  1  0  0  0  0
  5 24  1  6  0  0  0
  5 16  1  0  0  0  0
  6 20  1  6  0  0  0
  6 14  1  0  0  0  0
  8  7  1  0  0  0  0
  9  7  1  6  0  0  0
  9  2  1  0  0  0  0
 10 22  1  0  0  0  0
 10  9  1  0  0  0  0
 11 15  1  0  0  0  0
 12  6  1  0  0  0  0
 12 18  1  0  0  0  0
 14 10  1  0  0  0  0
 15 23  1  0  0  0  0
 17  3  1  0  0  0  0
 17 15  2  0  0  0  0
 18 16  1  0  0  0  0
 18  8  1  0  0  0  0
 19 17  1  0  0  0  0
 19 11  1  0  0  0  0
 21  2  1  0  0  0  0
 22 21  1  0  0  0  0
 23 22  2  0  0  0  0
 23 28  1  0  0  0  0
 24 25  1  0  0  0  0
 26 27  1  0  0  0  0
 27 25  1  0  0  0  0
 28 30  1  0  0  0  0
 30 29  1  0  0  0  0
 31  3  1  0  0  0  0
 32 31  1  0  0  0  0
 33 35  2  0  0  0  0
 35 34  1  0  0  0  0
 35 32  1  0  0  0  0
 36 34  1  0  0  0  0
M  END
>  <MODEL>
8

>  <REMARK>
 VINA RESULT:      -6.3      2.127      3.291
  Name = 
  8 active torsions:
  status: ('A' for Active; 'I' for Inactive)
    1  A    between atoms: C_4  and  O_35
    2  A    between atoms: C_6  and  N_29
    3  A    between atoms: C_19  and  C_21
    4  A    between atoms: C_19  and  N_29
    5  A    between atoms: C_24  and  C_28
    6  A    between atoms: C_24  and  O_35
    7  A    between atoms: C_27  and  O_33
    8  A    between atoms: O_33  and  C_34
                            x       y       z     vdW  Elec       q    Type
                         _______ _______ _______ _____ _____    ______ ____

>  <TORSDO>
F 8

$$$$
=
 OpenBabel11042417583D

 36 40  0  0  1  0  0  0  0  0999 V2000
  189.8220  176.8350  144.7970 C   0  0  1  0  0  3  0  0  0  0  0  0
  188.1830  173.2330  139.7490 C   0  0  0  0  0  2  0  0  0  0  0  0
  191.6880  174.1120  143.0470 C   0  0  0  0  0  0  0  0  0  0  0  0
  188.8800  177.9280  145.2960 C   0  0  0  0  0  2  0  0  0  0  0  0
  187.4590  177.3890  145.4990 C   0  0  1  0  0  3  0  0  0  0  0  0
  189.3430  174.5400  143.7040 C   0  0  1  0  0  3  0  0  0  0  0  0
  188.2140  175.4220  140.9720 C   0  0  0  0  0  2  0  0  0  0  0  0
  187.2690  175.7860  142.1130 C   0  0  0  0  0  2  0  0  0  0  0  0
  188.4900  173.9300  141.0620 C   0  0  2  0  0  3  0  0  0  0  0  0
  189.8850  173.6500  141.3980 N   0  0  0  0  0  0  0  0  0  0  0  0
  194.1830  173.0620  140.8190 C   0  0  0  0  0  2  0  0  0  0  0  0
  189.2400  176.0750  143.5890 C   0  0  1  0  0  3  0  0  0  0  0  0
  191.0460  177.4050  144.4470 O   0  0  0  0  0  1  0  0  0  0  0  0
  190.3740  174.0070  142.7280 C   0  0  0  0  0  0  0  0  0  0  0  0
  192.7040  172.9660  140.9570 C   0  0  0  0  0  0  0  0  0  0  0  0
  186.9900  176.5070  144.3310 C   0  0  0  0  0  2  0  0  0  0  0  0
  192.7330  173.7120  142.1050 C   0  0  0  0  0  0  0  0  0  0  0  0
  187.9010  176.5680  143.1860 N   0  0  2  0  0  0  0  0  0  0  0  0
  194.2150  173.8480  142.0010 C   0  0  0  0  0  2  0  0  0  0  0  0
  189.5400  174.0880  145.0140 O   0  0  0  0  0  1  0  0  0  0  0  0
  189.2320  172.1500  139.6230 C   0  0  0  0  0  2  0  0  0  0  0  0
  190.3430  172.6290  140.4840 C   0  0  0  0  0  0  0  0  0  0  0  0
  191.6350  172.3040  140.2380 C   0  0  0  0  0  0  0  0  0  0  0  0
  187.3860  176.6210  146.7300 N   0  0  0  0  0  2  0  0  0  0  0  0
  186.0630  176.8300  147.2950 C   0  0  0  0  0  2  0  0  0  0  0  0
  184.4360  178.5200  146.8880 O   0  0  0  0  0  1  0  0  0  0  0  0
  185.7460  178.3170  147.3240 C   0  0  0  0  0  2  0  0  0  0  0  0
  192.0480  171.3640  139.2750 O   0  0  0  0  0  0  0  0  0  0  0  0
  191.5440  170.8630  136.9880 C   0  0  0  0  0  1  0  0  0  0  0  0
  192.4260  171.6500  137.9340 C   0  0  0  0  0  2  0  0  0  0  0  0
  192.0430  174.6230  144.3070 O   0  0  0  0  0  0  0  0  0  0  0  0
  192.9160  173.9710  145.2190 C   0  0  0  0  0  2  0  0  0  0  0  0
  195.1690  174.5810  145.6790 O   0  0  0  0  0  0  0  0  0  0  0  0
  193.5780  176.2480  146.0770 N   0  0  0  0  0  2  0  0  0  0  0  0
  193.9570  174.9290  145.6790 C   0  0  0  0  0  0  0  0  0  0  0  0
  194.5580  177.2330  146.5070 C   0  0  0  0  0  1  0  0  0  0  0  0
  1 13  1  6  0  0  0
  1  4  1  0  0  0  0
  3 31  1  0  0  0  0
  4  5  1  0  0  0  0
  5 24  1  1  0  0  0
  6 20  1  1  0  0  0
  7  9  1  0  0  0  0
  7  8  1  0  0  0  0
  8 18  1  0  0  0  0
  9  2  1  6  0  0  0
  9 10  1  0  0  0  0
 10 14  1  0  0  0  0
 11 15  1  0  0  0  0
 11 19  1  0  0  0  0
 12  6  1  0  0  0  0
 12  1  1  0  0  0  0
 14  3  2  0  0  0  0
 14  6  1  0  0  0  0
 15 17  2  0  0  0  0
 16  5  1  0  0  0  0
 17  3  1  0  0  0  0
 18 12  1  0  0  0  0
 18 16  1  0  0  0  0
 19 17  1  0  0  0  0
 21  2  1  0  0  0  0
 21 22  1  0  0  0  0
 22 10  1  0  0  0  0
 23 22  2  0  0  0  0
 23 15  1  0  0  0  0
 24 25  1  0  0  0  0
 25 27  1  0  0  0  0
 26 27  1  0  0  0  0
 28 23  1  0  0  0  0
 29 30  1  0  0  0  0
 30 28  1  0  0  0  0
 31 32  1  0  0  0  0
 32 35  1  0  0  0  0
 34 36  1  0  0  0  0
 35 33  2  0  0  0  0
 35 34  1  0  0  0  0
M  END
>  <MODEL>
9

>  <REMARK>
 VINA RESULT:      -5.9      2.066      7.518
  Name = 
  8 active torsions:
  status: ('A' for Active; 'I' for Inactive)
    1  A    between atoms: C_4  and  O_35
    2  A    between atoms: C_6  and  N_29
    3  A    between atoms: C_19  and  C_21
    4  A    between atoms: C_19  and  N_29
    5  A    between atoms: C_24  and  C_28
    6  A    between atoms: C_24  and  O_35
    7  A    between atoms: C_27  and  O_33
    8  A    between atoms: O_33  and  C_34
                            x       y       z     vdW  Elec       q    Type
                         _______ _______ _______ _____ _____    ______ ____

>  <TORSDO>
F 8

$$$$
