=
 OpenBabel11042414143D

 62 69  0  0  1  0  0  0  0  0999 V2000
  192.3950  176.5920  144.7640 C   0  0  2  0  0  3  0  0  0  0  0  0
  193.7700  177.1410  144.4270 C   0  0  0  0  0  2  0  0  0  0  0  0
  194.6010  176.1200  143.6730 C   0  0  0  0  0  2  0  0  0  0  0  0
  195.7860  175.7280  144.5320 C   0  0  0  0  0  2  0  0  0  0  0  0
  195.7070  173.9640  144.9570 S   0  0  0  0  0  0  0  0  0  0  0  0
  195.9660  173.4890  143.2210 C   0  0  0  0  0  2  0  0  0  0  0  0
  194.9170  172.1870  141.2880 C   0  0  1  0  0  3  0  0  0  0  0  0
  194.9540  172.4410  142.7890 C   0  0  2  0  0  0  0  0  0  0  0  0
  193.7140  172.4200  143.4440 O   0  0  0  0  0  1  0  0  0  0  0  0
  195.4840  171.1170  142.2520 C   0  0  1  0  0  3  0  0  0  0  0  0
  194.5360  169.9500  142.5300 C   0  0  0  0  0  1  0  0  0  0  0  0
  189.7510  172.9760  138.0090 C   0  0  0  0  0  2  0  0  0  0  0  0
  191.4550  172.4780  139.6770 N   0  0  0  0  0  0  0  0  0  0  0  0
  189.0880  171.7250  138.3700 N   0  0  0  0  0  2  0  0  0  0  0  0
  190.5320  173.5080  139.2050 C   0  0  0  0  0  2  0  0  0  0  0  0
  190.9620  171.1090  139.8300 C   0  0  0  0  0  2  0  0  0  0  0  0
  192.7250  172.8510  140.2290 C   0  0  0  0  0  0  0  0  0  0  0  0
  190.1230  170.7200  138.6080 C   0  0  0  0  0  2  0  0  0  0  0  0
  193.1050  174.0520  140.1710 O   0  0  0  0  0  0  0  0  0  0  0  0
  193.5690  171.8650  140.8280 N   0  0  0  0  0  2  0  0  0  0  0  0
  192.5130  175.6920  145.9010 N   0  0  0  0  0  2  0  0  0  0  0  0
  192.3360  176.4730  147.1200 C   0  0  0  0  0  2  0  0  0  0  0  0
  191.3320  175.8010  148.0540 C   0  0  0  0  0  2  0  0  0  0  0  0
  189.8950  174.3260  146.4740 C   0  0  0  0  0  3  0  0  0  0  0  0
  188.1600  175.5820  146.3000 N   0  0  0  0  0  0  0  0  0  0  0  0
  188.8270  177.6080  147.1750 N   0  0  0  0  0  2  0  0  0  0  0  0
  190.0840  175.4190  147.3250 C   0  0  0  0  0  0  0  0  0  0  0  0
  186.6430  176.3550  144.6620 O   0  0  0  0  0  0  0  0  0  0  0  0
  188.7130  174.4800  145.8220 N   0  0  0  0  0  0  0  0  0  0  0  0
  187.3940  176.5700  145.6520 C   0  0  0  0  0  0  0  0  0  0  0  0
  187.7220  177.9150  146.2430 C   0  0  1  0  0  3  0  0  0  0  0  0
  188.9630  176.1900  147.1420 C   0  0  0  0  0  0  0  0  0  0  0  0
  186.5180  178.5130  146.9770 C   0  0  1  0  0  3  0  0  0  0  0  0
  186.9270  179.3020  148.2180 C   0  0  0  0  0  1  0  0  0  0  0  0
  185.7130  179.3860  146.0220 C   0  0  0  0  0  2  0  0  0  0  0  0
  184.2860  178.8810  145.8540 C   0  0  0  0  0  2  0  0  0  0  0  0
  184.0670  177.6150  146.6620 C   0  0  0  0  0  1  0  0  0  0  0  0
  191.8600  175.8640  143.6210 N   0  0  0  0  0  2  0  0  0  0  0  0
  188.4840  175.4010  141.9710 C   0  0  0  0  0  0  0  0  0  0  0  0
  187.6330  174.3980  141.6180 N   0  0  0  0  0  0  0  0  0  0  0  0
  187.9330  173.0920  141.8520 C   0  0  0  0  0  3  0  0  0  0  0  0
  189.0430  177.7170  142.1450 N   0  0  0  0  0  0  0  0  0  0  0  0
  189.7030  175.0720  142.6080 C   0  0  0  0  0  0  0  0  0  0  0  0
  189.9900  173.7600  142.8360 N   0  0  0  0  0  0  0  0  0  0  0  0
  190.2240  177.4220  142.7470 C   0  0  0  0  0  3  0  0  0  0  0  0
  189.1370  172.7680  142.4740 C   0  0  0  0  0  3  0  0  0  0  0  0
  188.1650  176.7580  141.7400 C   0  0  0  0  0  0  0  0  0  0  0  0
  190.5910  176.1010  142.9930 C   0  0  0  0  0  0  0  0  0  0  0  0
  186.9130  177.1940  141.0800 C   0  0  0  0  0  0  0  0  0  0  0  0
  186.8650  177.2470  139.8200 O   0  0  0  0  0  0  0  0  0  0  0  0
  185.7470  177.5210  141.8430 N   0  0  0  0  0  2  0  0  0  0  0  0
  184.5270  177.8520  141.2380 N   0  0  0  0  0  2  0  0  0  0  0  0
  183.7040  178.5030  142.2460 C   0  0  0  0  0  2  0  0  0  0  0  0
  181.3500  179.1870  142.7860 C   0  0  0  0  0  2  0  0  0  0  0  0
  179.6610  177.9180  140.9550 C   0  0  1  0  0  3  0  0  0  0  0  0
  180.7520  178.2830  140.0770 N   0  0  0  0  0  0  0  0  0  0  0  0
  181.9510  178.4150  140.5250 C   0  0  0  0  0  3  0  0  0  0  0  0
  179.5540  179.0670  142.3840 S   0  0  0  0  0  0  0  0  0  0  0  0
  182.2340  178.2340  141.9820 C   0  0  1  0  0  3  0  0  0  0  0  0
  178.4830  177.0450  138.9580 C   0  0  0  0  0  2  0  0  0  0  0  0
  177.7530  176.5380  140.1830 C   0  0  0  0  0  2  0  0  0  0  0  0
  178.3540  177.9310  140.1820 C   0  0  0  0  0  3  0  0  0  0  0  0
  1  2  1  6  0  0  0
  1 21  1  0  0  0  0
  3  2  1  0  0  0  0
  3  4  1  0  0  0  0
  4  5  1  0  0  0  0
  6  5  1  0  0  0  0
  7 20  1  1  0  0  0
  7 10  1  0  0  0  0
  7  8  1  0  0  0  0
  8  6  1  0  0  0  0
  8  9  1  1  0  0  0
 10 11  1  1  0  0  0
 10  8  1  0  0  0  0
 12 14  1  0  0  0  0
 12 15  1  0  0  0  0
 13 16  1  0  0  0  0
 13 17  1  0  0  0  0
 14 18  1  0  0  0  0
 15 13  1  0  0  0  0
 17 20  1  0  0  0  0
 18 16  1  0  0  0  0
 19 17  2  0  0  0  0
 21 22  1  0  0  0  0
 22 23  1  0  0  0  0
 24 27  1  0  0  0  0
 25 32  1  0  0  0  0
 27 23  1  0  0  0  0
 28 30  2  0  0  0  0
 29 25  1  0  0  0  0
 29 24  2  0  0  0  0
 30 31  1  0  0  0  0
 30 25  1  0  0  0  0
 31 33  1  1  0  0  0
 31 26  1  0  0  0  0
 32 26  1  0  0  0  0
 32 27  2  0  0  0  0
 33 34  1  1  0  0  0
 35 33  1  0  0  0  0
 36 35  1  0  0  0  0
 36 37  1  0  0  0  0
 38  1  1  0  0  0  0
 39 43  1  0  0  0  0
 40 41  2  0  0  0  0
 40 39  1  0  0  0  0
 41 46  1  0  0  0  0
 42 45  2  0  0  0  0
 43 44  1  0  0  0  0
 43 48  2  0  0  0  0
 45 48  1  0  0  0  0
 46 44  2  0  0  0  0
 47 39  2  0  0  0  0
 47 42  1  0  0  0  0
 48 38  1  0  0  0  0
 49 47  1  0  0  0  0
 49 51  1  0  0  0  0
 50 49  2  0  0  0  0
 52 51  1  0  0  0  0
 52 53  1  0  0  0  0
 55 62  1  6  0  0  0
 55 58  1  0  0  0  0
 56 57  2  0  0  0  0
 56 55  1  0  0  0  0
 57 59  1  0  0  0  0
 58 54  1  0  0  0  0
 59 53  1  6  0  0  0
 59 54  1  0  0  0  0
 60 62  1  0  0  0  0
 60 61  1  0  0  0  0
 62 61  1  0  0  0  0
M  END
>  <MODEL>
1

>  <REMARK>
 VINA RESULT:      -6.5      0.000      0.000
  Name = 
  21 active torsions:
  status: ('A' for Active; 'I' for Inactive)
    1  A    between atoms: C_2  and  C_40
    2  A    between atoms: C_2  and  S_58
    3  A    between atoms: C_3  and  C_55
    4  A    between atoms: C_6  and  C_39
    5  A    between atoms: C_6  and  C_49
    6  A    between atoms: N_8  and  C_25
    7  A    between atoms: N_8  and  C_57
    8  A    between atoms: N_10  and  C_41
    9  A    between atoms: N_10  and  N_50
   10  A    between atoms: C_11  and  N_53
   11  A    between atoms: N_13  and  C_25
   12  A    between atoms: N_13  and  C_35
   13  A    between atoms: C_14  and  C_34
   14  A    between atoms: C_25  and  C_59
   15  A    between atoms: C_27  and  C_51
   16  A    between atoms: C_30  and  C_49
   17  A    between atoms: C_31  and  C_48
   18  A    between atoms: C_35  and  C_51
   19  A    between atoms: C_40  and  C_59
   20  A    between atoms: C_41  and  C_60
   21  A    between atoms: C_48  and  S_58
                            x       y       z     vdW  Elec       q    Type
                         _______ _______ _______ _____ _____    ______ ____

>  <TORSDO>
F 21

$$$$
=
 OpenBabel11042414143D

 62 69  0  0  1  0  0  0  0  0999 V2000
  188.8280  176.3930  141.6160 C   0  0  2  0  0  3  0  0  0  0  0  0
  189.3140  176.4050  143.0550 C   0  0  0  0  0  2  0  0  0  0  0  0
  190.7340  176.9300  143.1510 C   0  0  0  0  0  2  0  0  0  0  0  0
  191.6890  175.8270  142.7430 C   0  0  0  0  0  2  0  0  0  0  0  0
  192.3440  174.9800  144.2100 S   0  0  0  0  0  0  0  0  0  0  0  0
  193.8750  175.9600  144.1460 C   0  0  0  0  0  2  0  0  0  0  0  0
  195.1110  173.7610  143.7340 C   0  0  1  0  0  3  0  0  0  0  0  0
  195.0840  175.0970  144.4650 C   0  0  2  0  0  0  0  0  0  0  0  0
  195.5430  175.0780  145.7900 O   0  0  0  0  0  1  0  0  0  0  0  0
  196.1150  174.8790  143.3640 C   0  0  1  0  0  3  0  0  0  0  0  0
  197.5260  174.6690  143.9140 C   0  0  0  0  0  1  0  0  0  0  0  0
  195.5400  168.1680  146.3020 C   0  0  0  0  0  2  0  0  0  0  0  0
  195.6000  170.5380  145.7440 N   0  0  0  0  0  0  0  0  0  0  0  0
  196.8770  168.3080  146.8740 N   0  0  0  0  0  2  0  0  0  0  0  0
  194.8010  169.4980  146.3890 C   0  0  0  0  0  2  0  0  0  0  0  0
  197.0300  170.6130  146.0450 C   0  0  0  0  0  2  0  0  0  0  0  0
  194.9530  171.6140  145.0510 C   0  0  0  0  0  0  0  0  0  0  0  0
  197.6420  169.2090  146.0120 C   0  0  0  0  0  2  0  0  0  0  0  0
  193.7050  171.5840  144.8730 O   0  0  0  0  0  0  0  0  0  0  0  0
  195.7180  172.7110  144.5480 N   0  0  0  0  0  2  0  0  0  0  0  0
  187.9040  177.5010  141.4230 N   0  0  0  0  0  2  0  0  0  0  0  0
  186.5770  177.0670  141.8450 C   0  0  0  0  0  2  0  0  0  0  0  0
  185.6490  178.2650  142.0330 C   0  0  0  0  0  2  0  0  0  0  0  0
  183.8240  178.8220  143.7920 C   0  0  0  0  0  3  0  0  0  0  0  0
  184.8900  178.3010  145.5830 N   0  0  0  0  0  0  0  0  0  0  0  0
  187.0790  178.0630  144.9010 N   0  0  0  0  0  2  0  0  0  0  0  0
  185.0530  178.2810  143.4030 C   0  0  0  0  0  0  0  0  0  0  0  0
  185.2580  179.1150  147.7710 O   0  0  0  0  0  0  0  0  0  0  0  0
  183.7730  178.8590  145.1490 N   0  0  0  0  0  0  0  0  0  0  0  0
  185.6940  178.6190  146.6950 C   0  0  0  0  0  0  0  0  0  0  0  0
  187.1380  178.3990  146.3390 C   0  0  1  0  0  3  0  0  0  0  0  0
  185.6910  178.0020  144.5870 C   0  0  0  0  0  0  0  0  0  0  0  0
  187.7500  177.2580  147.1570 C   0  0  1  0  0  3  0  0  0  0  0  0
  186.7450  176.1470  147.4480 C   0  0  0  0  0  1  0  0  0  0  0  0
  188.9740  176.7050  146.4360 C   0  0  0  0  0  2  0  0  0  0  0  0
  190.2710  177.1120  147.1230 C   0  0  0  0  0  2  0  0  0  0  0  0
  190.9710  175.9000  147.7090 C   0  0  0  0  0  1  0  0  0  0  0  0
  188.1460  175.1370  141.3350 N   0  0  0  0  0  2  0  0  0  0  0  0
  189.9250  171.9200  140.4280 C   0  0  0  0  0  0  0  0  0  0  0  0
  190.5850  170.8950  141.0350 N   0  0  0  0  0  0  0  0  0  0  0  0
  190.7550  170.8550  142.3840 C   0  0  0  0  0  3  0  0  0  0  0  0
  189.0410  172.9890  138.4830 N   0  0  0  0  0  0  0  0  0  0  0  0
  189.3950  172.9620  141.2250 C   0  0  0  0  0  0  0  0  0  0  0  0
  189.5740  172.9090  142.5740 N   0  0  0  0  0  0  0  0  0  0  0  0
  188.5350  174.0050  139.2290 C   0  0  0  0  0  3  0  0  0  0  0  0
  190.2380  171.8850  143.1680 C   0  0  0  0  0  3  0  0  0  0  0  0
  189.7360  171.9530  139.0280 C   0  0  0  0  0  0  0  0  0  0  0  0
  188.6970  174.0250  140.6130 C   0  0  0  0  0  0  0  0  0  0  0  0
  190.2570  170.9080  138.1170 C   0  0  0  0  0  0  0  0  0  0  0  0
  189.5500  169.8900  137.8750 O   0  0  0  0  0  0  0  0  0  0  0  0
  191.5300  171.0480  137.4780 N   0  0  0  0  0  2  0  0  0  0  0  0
  192.0050  170.1140  136.5460 N   0  0  0  0  0  2  0  0  0  0  0  0
  193.3450  170.5290  136.1590 C   0  0  0  0  0  2  0  0  0  0  0  0
  194.7490  169.1310  137.7000 C   0  0  0  0  0  2  0  0  0  0  0  0
  196.3080  170.8730  139.2340 C   0  0  1  0  0  3  0  0  0  0  0  0
  196.3860  171.5320  137.9490 N   0  0  0  0  0  0  0  0  0  0  0  0
  195.4470  171.4110  137.0790 C   0  0  0  0  0  3  0  0  0  0  0  0
  196.0240  169.0690  139.0300 S   0  0  0  0  0  0  0  0  0  0  0  0
  194.2640  170.5420  137.3660 C   0  0  1  0  0  3  0  0  0  0  0  0
  197.6930  172.5770  140.3810 C   0  0  0  0  0  2  0  0  0  0  0  0
  197.2490  171.5670  141.4180 C   0  0  0  0  0  2  0  0  0  0  0  0
  197.5900  171.1100  140.0120 C   0  0  0  0  0  3  0  0  0  0  0  0
  1  2  1  1  0  0  0
  2  3  1  0  0  0  0
  4  3  1  0  0  0  0
  4  5  1  0  0  0  0
  6  5  1  0  0  0  0
  6  8  1  0  0  0  0
  7  8  1  0  0  0  0
  7 20  1  1  0  0  0
  8  9  1  1  0  0  0
 10  7  1  0  0  0  0
 10 11  1  1  0  0  0
 10  8  1  0  0  0  0
 12 15  1  0  0  0  0
 12 14  1  0  0  0  0
 13 16  1  0  0  0  0
 13 15  1  0  0  0  0
 17 13  1  0  0  0  0
 18 16  1  0  0  0  0
 18 14  1  0  0  0  0
 19 17  2  0  0  0  0
 20 17  1  0  0  0  0
 21  1  1  0  0  0  0
 21 22  1  0  0  0  0
 22 23  1  0  0  0  0
 23 27  1  0  0  0  0
 24 29  2  0  0  0  0
 25 30  1  0  0  0  0
 26 31  1  0  0  0  0
 27 24  1  0  0  0  0
 27 32  2  0  0  0  0
 29 25  1  0  0  0  0
 30 28  2  0  0  0  0
 31 30  1  0  0  0  0
 31 33  1  1  0  0  0
 32 26  1  0  0  0  0
 32 25  1  0  0  0  0
 33 34  1  6  0  0  0
 35 36  1  0  0  0  0
 35 33  1  0  0  0  0
 36 37  1  0  0  0  0
 38  1  1  0  0  0  0
 39 40  2  0  0  0  0
 39 43  1  0  0  0  0
 40 41  1  0  0  0  0
 41 46  2  0  0  0  0
 42 47  2  0  0  0  0
 42 45  1  0  0  0  0
 43 44  2  0  0  0  0
 44 46  1  0  0  0  0
 45 48  2  0  0  0  0
 47 39  1  0  0  0  0
 48 43  1  0  0  0  0
 48 38  1  0  0  0  0
 49 47  1  0  0  0  0
 50 49  2  0  0  0  0
 51 49  1  0  0  0  0
 52 51  1  0  0  0  0
 53 52  1  0  0  0  0
 54 58  1  0  0  0  0
 55 62  1  6  0  0  0
 56 55  1  0  0  0  0
 57 59  1  0  0  0  0
 57 56  2  0  0  0  0
 58 55  1  0  0  0  0
 59 53  1  6  0  0  0
 59 54  1  0  0  0  0
 60 61  1  0  0  0  0
 62 60  1  0  0  0  0
 62 61  1  0  0  0  0
M  END
>  <MODEL>
2

>  <REMARK>
 VINA RESULT:      -6.0      3.463      9.106
  Name = 
  21 active torsions:
  status: ('A' for Active; 'I' for Inactive)
    1  A    between atoms: C_2  and  C_40
    2  A    between atoms: C_2  and  S_58
    3  A    between atoms: C_3  and  C_55
    4  A    between atoms: C_6  and  C_39
    5  A    between atoms: C_6  and  C_49
    6  A    between atoms: N_8  and  C_25
    7  A    between atoms: N_8  and  C_57
    8  A    between atoms: N_10  and  C_41
    9  A    between atoms: N_10  and  N_50
   10  A    between atoms: C_11  and  N_53
   11  A    between atoms: N_13  and  C_25
   12  A    between atoms: N_13  and  C_35
   13  A    between atoms: C_14  and  C_34
   14  A    between atoms: C_25  and  C_59
   15  A    between atoms: C_27  and  C_51
   16  A    between atoms: C_30  and  C_49
   17  A    between atoms: C_31  and  C_48
   18  A    between atoms: C_35  and  C_51
   19  A    between atoms: C_40  and  C_59
   20  A    between atoms: C_41  and  C_60
   21  A    between atoms: C_48  and  S_58
                            x       y       z     vdW  Elec       q    Type
                         _______ _______ _______ _____ _____    ______ ____

>  <TORSDO>
F 21

$$$$
=
 OpenBabel11042414143D

 62 69  0  0  1  0  0  0  0  0999 V2000
  189.1080  175.5060  142.0380 C   0  0  2  0  0  3  0  0  0  0  0  0
  188.9280  175.2640  143.5260 C   0  0  0  0  0  2  0  0  0  0  0  0
  189.9000  176.0980  144.3400 C   0  0  0  0  0  2  0  0  0  0  0  0
  191.0410  175.2100  144.7950 C   0  0  0  0  0  2  0  0  0  0  0  0
  192.2590  176.1740  145.7350 S   0  0  0  0  0  0  0  0  0  0  0  0
  193.3180  176.3500  144.2670 C   0  0  0  0  0  2  0  0  0  0  0  0
  194.7480  174.3410  143.5960 C   0  0  1  0  0  3  0  0  0  0  0  0
  194.6240  175.5970  144.4490 C   0  0  2  0  0  0  0  0  0  0  0  0
  195.1560  175.5110  145.7440 O   0  0  0  0  0  1  0  0  0  0  0  0
  195.6100  175.5890  143.2860 C   0  0  1  0  0  3  0  0  0  0  0  0
  197.0630  175.4830  143.7490 C   0  0  0  0  0  1  0  0  0  0  0  0
  195.6160  168.8260  146.2200 C   0  0  0  0  0  2  0  0  0  0  0  0
  195.6140  171.1710  145.5610 N   0  0  0  0  0  0  0  0  0  0  0  0
  197.0570  168.9290  146.4370 N   0  0  0  0  0  2  0  0  0  0  0  0
  194.9660  170.1890  146.4290 C   0  0  0  0  0  2  0  0  0  0  0  0
  197.0750  171.1950  145.4950 C   0  0  0  0  0  2  0  0  0  0  0  0
  194.8510  172.2500  145.0040 C   0  0  0  0  0  0  0  0  0  0  0  0
  197.6130  169.7660  145.3740 C   0  0  0  0  0  2  0  0  0  0  0  0
  193.5970  172.2680  145.1410 O   0  0  0  0  0  0  0  0  0  0  0  0
  195.5030  173.2950  144.2800 N   0  0  0  0  0  2  0  0  0  0  0  0
  188.4790  176.7710  141.6870 N   0  0  0  0  0  2  0  0  0  0  0  0
  187.3520  176.4900  140.8060 C   0  0  0  0  0  2  0  0  0  0  0  0
  186.6560  177.7830  140.3860 C   0  0  0  0  0  2  0  0  0  0  0  0
  184.1050  178.2590  140.3490 C   0  0  0  0  0  3  0  0  0  0  0  0
  183.6990  178.1740  142.4570 N   0  0  0  0  0  0  0  0  0  0  0  0
  185.7810  178.2180  143.4450 N   0  0  0  0  0  2  0  0  0  0  0  0
  185.2910  177.8850  140.9870 C   0  0  0  0  0  0  0  0  0  0  0  0
  182.4680  179.3300  144.1100 O   0  0  0  0  0  0  0  0  0  0  0  0
  183.1500  178.4720  141.2910 N   0  0  0  0  0  0  0  0  0  0  0  0
  183.5310  178.7720  143.7210 C   0  0  0  0  0  0  0  0  0  0  0  0
  184.8430  178.7520  144.4550 C   0  0  1  0  0  3  0  0  0  0  0  0
  184.9720  177.8810  142.3220 C   0  0  0  0  0  0  0  0  0  0  0  0
  184.7800  177.8530  145.6930 C   0  0  1  0  0  3  0  0  0  0  0  0
  185.8390  176.7550  145.6700 C   0  0  0  0  0  1  0  0  0  0  0  0
  184.9070  178.7000  146.9530 C   0  0  0  0  0  2  0  0  0  0  0  0
  185.8990  178.1040  147.9430 C   0  0  0  0  0  2  0  0  0  0  0  0
  186.9430  179.1310  148.3400 C   0  0  0  0  0  1  0  0  0  0  0  0
  188.4850  174.4270  141.2830 N   0  0  0  0  0  2  0  0  0  0  0  0
  190.6130  171.6750  139.7880 C   0  0  0  0  0  0  0  0  0  0  0  0
  191.3910  170.6330  140.1920 N   0  0  0  0  0  0  0  0  0  0  0  0
  191.5760  170.3490  141.5090 C   0  0  0  0  0  3  0  0  0  0  0  0
  189.5950  172.9970  138.0790 N   0  0  0  0  0  0  0  0  0  0  0  0
  189.9740  172.4730  140.7670 C   0  0  0  0  0  0  0  0  0  0  0  0
  190.1690  172.1770  142.0820 N   0  0  0  0  0  0  0  0  0  0  0  0
  188.9830  173.7820  139.0010 C   0  0  0  0  0  3  0  0  0  0  0  0
  190.9520  171.1390  142.4730 C   0  0  0  0  0  3  0  0  0  0  0  0
  190.4100  171.9600  138.4190 C   0  0  0  0  0  0  0  0  0  0  0  0
  189.1530  173.5490  140.3640 C   0  0  0  0  0  0  0  0  0  0  0  0
  191.0390  171.1810  137.3290 C   0  0  0  0  0  0  0  0  0  0  0  0
  190.3750  170.2740  136.7540 O   0  0  0  0  0  0  0  0  0  0  0  0
  192.3730  171.4600  136.8920 N   0  0  0  0  0  2  0  0  0  0  0  0
  192.9570  170.7940  135.8050 N   0  0  0  0  0  2  0  0  0  0  0  0
  194.2750  170.3450  136.2280 C   0  0  0  0  0  2  0  0  0  0  0  0
  196.3090  171.1200  137.4790 C   0  0  0  0  0  2  0  0  0  0  0  0
  196.8950  173.7130  136.6130 C   0  0  1  0  0  3  0  0  0  0  0  0
  196.5290  173.1050  135.3520 N   0  0  0  0  0  0  0  0  0  0  0  0
  195.7130  172.1120  135.3040 C   0  0  0  0  0  3  0  0  0  0  0  0
  197.5430  172.4550  137.7850 S   0  0  0  0  0  0  0  0  0  0  0  0
  195.1550  171.5340  136.5660 C   0  0  1  0  0  3  0  0  0  0  0  0
  197.8840  175.2420  134.9340 C   0  0  0  0  0  2  0  0  0  0  0  0
  197.2510  176.0910  136.0160 C   0  0  0  0  0  2  0  0  0  0  0  0
  197.9400  174.7890  136.3800 C   0  0  0  0  0  3  0  0  0  0  0  0
  1  2  1  1  0  0  0
  2  3  1  0  0  0  0
  3  4  1  0  0  0  0
  4  5  1  0  0  0  0
  6  8  1  0  0  0  0
  6  5  1  0  0  0  0
  7 20  1  1  0  0  0
  7  8  1  0  0  0  0
  8  9  1  1  0  0  0
 10  7  1  0  0  0  0
 10 11  1  1  0  0  0
 10  8  1  0  0  0  0
 12 15  1  0  0  0  0
 12 14  1  0  0  0  0
 13 15  1  0  0  0  0
 16 13  1  0  0  0  0
 17 19  2  0  0  0  0
 17 13  1  0  0  0  0
 18 16  1  0  0  0  0
 18 14  1  0  0  0  0
 20 17  1  0  0  0  0
 21  1  1  0  0  0  0
 22 21  1  0  0  0  0
 23 22  1  0  0  0  0
 23 27  1  0  0  0  0
 24 27  1  0  0  0  0
 24 29  2  0  0  0  0
 25 30  1  0  0  0  0
 26 31  1  0  0  0  0
 27 32  2  0  0  0  0
 29 25  1  0  0  0  0
 30 28  2  0  0  0  0
 30 31  1  0  0  0  0
 31 33  1  1  0  0  0
 32 25  1  0  0  0  0
 32 26  1  0  0  0  0
 33 34  1  6  0  0  0
 33 35  1  0  0  0  0
 35 36  1  0  0  0  0
 36 37  1  0  0  0  0
 38  1  1  0  0  0  0
 39 40  2  0  0  0  0
 39 43  1  0  0  0  0
 40 41  1  0  0  0  0
 41 46  2  0  0  0  0
 42 47  2  0  0  0  0
 42 45  1  0  0  0  0
 43 44  2  0  0  0  0
 44 46  1  0  0  0  0
 45 48  2  0  0  0  0
 47 39  1  0  0  0  0
 48 43  1  0  0  0  0
 48 38  1  0  0  0  0
 49 47  1  0  0  0  0
 50 49  2  0  0  0  0
 51 49  1  0  0  0  0
 52 53  1  0  0  0  0
 52 51  1  0  0  0  0
 54 58  1  0  0  0  0
 55 62  1  6  0  0  0
 55 58  1  0  0  0  0
 56 55  1  0  0  0  0
 57 56  2  0  0  0  0
 57 59  1  0  0  0  0
 59 53  1  6  0  0  0
 59 54  1  0  0  0  0
 60 61  1  0  0  0  0
 60 62  1  0  0  0  0
 61 62  1  0  0  0  0
M  END
>  <MODEL>
3

>  <REMARK>
 VINA RESULT:      -5.9      3.445      9.299
  Name = 
  21 active torsions:
  status: ('A' for Active; 'I' for Inactive)
    1  A    between atoms: C_2  and  C_40
    2  A    between atoms: C_2  and  S_58
    3  A    between atoms: C_3  and  C_55
    4  A    between atoms: C_6  and  C_39
    5  A    between atoms: C_6  and  C_49
    6  A    between atoms: N_8  and  C_25
    7  A    between atoms: N_8  and  C_57
    8  A    between atoms: N_10  and  C_41
    9  A    between atoms: N_10  and  N_50
   10  A    between atoms: C_11  and  N_53
   11  A    between atoms: N_13  and  C_25
   12  A    between atoms: N_13  and  C_35
   13  A    between atoms: C_14  and  C_34
   14  A    between atoms: C_25  and  C_59
   15  A    between atoms: C_27  and  C_51
   16  A    between atoms: C_30  and  C_49
   17  A    between atoms: C_31  and  C_48
   18  A    between atoms: C_35  and  C_51
   19  A    between atoms: C_40  and  C_59
   20  A    between atoms: C_41  and  C_60
   21  A    between atoms: C_48  and  S_58
                            x       y       z     vdW  Elec       q    Type
                         _______ _______ _______ _____ _____    ______ ____

>  <TORSDO>
F 21

$$$$
=
 OpenBabel11042414143D

 62 69  0  0  1  0  0  0  0  0999 V2000
  193.6510  176.2630  144.2920 C   0  0  2  0  0  3  0  0  0  0  0  0
  195.0960  176.1970  143.8270 C   0  0  0  0  0  2  0  0  0  0  0  0
  195.2060  175.5280  142.4710 C   0  0  0  0  0  2  0  0  0  0  0  0
  196.0910  174.3040  142.6030 C   0  0  0  0  0  2  0  0  0  0  0  0
  195.5960  173.0310  141.4060 S   0  0  0  0  0  0  0  0  0  0  0  0
  196.7670  173.6740  140.1720 C   0  0  0  0  0  2  0  0  0  0  0  0
  195.0330  175.0160  138.8600 C   0  0  1  0  0  3  0  0  0  0  0  0
  196.0760  173.9070  138.8400 C   0  0  2  0  0  0  0  0  0  0  0  0
  195.7580  172.7840  138.0620 O   0  0  0  0  0  1  0  0  0  0  0  0
  196.3690  175.2080  138.1030 C   0  0  1  0  0  3  0  0  0  0  0  0
  196.2610  175.0590  136.5850 C   0  0  0  0  0  1  0  0  0  0  0  0
  189.1290  174.0680  137.3410 C   0  0  0  0  0  2  0  0  0  0  0  0
  191.5550  174.0770  137.5620 N   0  0  0  0  0  0  0  0  0  0  0  0
  189.3000  174.0010  135.8920 N   0  0  0  0  0  2  0  0  0  0  0  0
  190.3300  173.4320  138.0320 C   0  0  0  0  0  2  0  0  0  0  0  0
  191.7240  174.3020  136.1270 C   0  0  0  0  0  2  0  0  0  0  0  0
  192.6680  174.2360  138.4520 C   0  0  0  0  0  0  0  0  0  0  0  0
  190.4270  174.8600  135.5320 C   0  0  0  0  0  2  0  0  0  0  0  0
  192.5390  173.9540  139.6740 O   0  0  0  0  0  0  0  0  0  0  0  0
  193.9180  174.7270  137.9620 N   0  0  0  0  0  2  0  0  0  0  0  0
  193.5350  175.5680  145.5650 N   0  0  0  0  0  2  0  0  0  0  0  0
  192.8830  176.4630  146.5150 C   0  0  0  0  0  2  0  0  0  0  0  0
  192.0170  175.6760  147.4960 C   0  0  0  0  0  2  0  0  0  0  0  0
  190.5570  174.2620  145.8820 C   0  0  0  0  0  3  0  0  0  0  0  0
  188.6880  175.3010  146.0950 N   0  0  0  0  0  0  0  0  0  0  0  0
  189.2390  177.2560  147.1870 N   0  0  0  0  0  2  0  0  0  0  0  0
  190.7340  175.2430  146.8630 C   0  0  0  0  0  0  0  0  0  0  0  0
  186.8980  176.0930  144.7730 O   0  0  0  0  0  0  0  0  0  0  0  0
  189.2910  174.3530  145.3970 N   0  0  0  0  0  0  0  0  0  0  0  0
  187.7420  176.2640  145.6950 C   0  0  0  0  0  0  0  0  0  0  0  0
  187.9960  177.5450  146.4410 C   0  0  1  0  0  3  0  0  0  0  0  0
  189.5220  175.8840  146.9250 C   0  0  0  0  0  0  0  0  0  0  0  0
  186.8390  177.8810  147.3870 C   0  0  1  0  0  3  0  0  0  0  0  0
  187.1700  179.0410  148.3220 C   0  0  0  0  0  1  0  0  0  0  0  0
  185.5820  178.1790  146.5800 C   0  0  0  0  0  2  0  0  0  0  0  0
  185.5380  179.6260  146.1070 C   0  0  0  0  0  2  0  0  0  0  0  0
  185.6970  179.7040  144.6000 C   0  0  0  0  0  1  0  0  0  0  0  0
  192.7860  175.6260  143.3090 N   0  0  0  0  0  2  0  0  0  0  0  0
  189.2160  175.7440  142.0530 C   0  0  0  0  0  0  0  0  0  0  0  0
  188.2580  174.9020  141.5740 N   0  0  0  0  0  0  0  0  0  0  0  0
  188.4870  173.5690  141.4330 C   0  0  0  0  0  3  0  0  0  0  0  0
  189.9600  177.9110  142.7260 N   0  0  0  0  0  0  0  0  0  0  0  0
  190.4740  175.2120  142.4220 C   0  0  0  0  0  0  0  0  0  0  0  0
  190.6880  173.8750  142.2740 N   0  0  0  0  0  0  0  0  0  0  0  0
  191.1780  177.4230  143.0740 C   0  0  0  0  0  3  0  0  0  0  0  0
  189.7280  173.0460  141.7900 C   0  0  0  0  0  3  0  0  0  0  0  0
  188.9730  177.1260  142.2130 C   0  0  0  0  0  0  0  0  0  0  0  0
  191.4730  176.0690  142.9320 C   0  0  0  0  0  0  0  0  0  0  0  0
  187.6890  177.7690  141.8520 C   0  0  0  0  0  0  0  0  0  0  0  0
  187.6340  179.0250  141.7470 O   0  0  0  0  0  0  0  0  0  0  0  0
  186.5180  176.9890  141.5870 N   0  0  0  0  0  2  0  0  0  0  0  0
  185.3150  177.5690  141.1610 N   0  0  0  0  0  2  0  0  0  0  0  0
  184.5540  177.9170  142.3510 C   0  0  0  0  0  2  0  0  0  0  0  0
  182.3650  179.0510  142.8250 C   0  0  0  0  0  2  0  0  0  0  0  0
  180.5180  178.1440  140.9300 C   0  0  1  0  0  3  0  0  0  0  0  0
  181.6880  178.2890  140.0910 N   0  0  0  0  0  0  0  0  0  0  0  0
  182.8740  178.1810  140.5760 C   0  0  0  0  0  3  0  0  0  0  0  0
  180.5940  179.2880  142.3660 S   0  0  0  0  0  0  0  0  0  0  0  0
  183.0690  177.9440  142.0400 C   0  0  1  0  0  3  0  0  0  0  0  0
  178.9210  177.1910  139.2940 C   0  0  0  0  0  2  0  0  0  0  0  0
  178.1580  177.4830  140.5680 C   0  0  0  0  0  2  0  0  0  0  0  0
  179.2660  178.4170  140.1170 C   0  0  0  0  0  3  0  0  0  0  0  0
  1  2  1  6  0  0  0
  1 21  1  0  0  0  0
  3  4  1  0  0  0  0
  3  2  1  0  0  0  0
  5  4  1  0  0  0  0
  6  5  1  0  0  0  0
  7 20  1  6  0  0  0
  8  9  1  6  0  0  0
  8  7  1  0  0  0  0
  8  6  1  0  0  0  0
 10 11  1  6  0  0  0
 10  8  1  0  0  0  0
 10  7  1  0  0  0  0
 12 15  1  0  0  0  0
 13 15  1  0  0  0  0
 13 17  1  0  0  0  0
 14 12  1  0  0  0  0
 16 13  1  0  0  0  0
 17 19  2  0  0  0  0
 18 14  1  0  0  0  0
 18 16  1  0  0  0  0
 20 17  1  0  0  0  0
 21 22  1  0  0  0  0
 22 23  1  0  0  0  0
 24 27  1  0  0  0  0
 25 32  1  0  0  0  0
 27 32  2  0  0  0  0
 27 23  1  0  0  0  0
 28 30  2  0  0  0  0
 29 24  2  0  0  0  0
 29 25  1  0  0  0  0
 30 25  1  0  0  0  0
 30 31  1  0  0  0  0
 31 26  1  0  0  0  0
 31 33  1  1  0  0  0
 32 26  1  0  0  0  0
 33 34  1  6  0  0  0
 35 33  1  0  0  0  0
 36 35  1  0  0  0  0
 37 36  1  0  0  0  0
 38  1  1  0  0  0  0
 39 47  2  0  0  0  0
 39 43  1  0  0  0  0
 40 39  1  0  0  0  0
 41 40  2  0  0  0  0
 41 46  1  0  0  0  0
 42 45  2  0  0  0  0
 43 48  2  0  0  0  0
 44 43  1  0  0  0  0
 46 44  2  0  0  0  0
 47 42  1  0  0  0  0
 48 45  1  0  0  0  0
 48 38  1  0  0  0  0
 49 47  1  0  0  0  0
 50 49  2  0  0  0  0
 51 49  1  0  0  0  0
 52 51  1  0  0  0  0
 52 53  1  0  0  0  0
 55 62  1  6  0  0  0
 55 58  1  0  0  0  0
 56 57  2  0  0  0  0
 56 55  1  0  0  0  0
 57 59  1  0  0  0  0
 58 54  1  0  0  0  0
 59 53  1  6  0  0  0
 59 54  1  0  0  0  0
 60 62  1  0  0  0  0
 60 61  1  0  0  0  0
 62 61  1  0  0  0  0
M  END
>  <MODEL>
4

>  <REMARK>
 VINA RESULT:      -5.9      1.843      2.371
  Name = 
  21 active torsions:
  status: ('A' for Active; 'I' for Inactive)
    1  A    between atoms: C_2  and  C_40
    2  A    between atoms: C_2  and  S_58
    3  A    between atoms: C_3  and  C_55
    4  A    between atoms: C_6  and  C_39
    5  A    between atoms: C_6  and  C_49
    6  A    between atoms: N_8  and  C_25
    7  A    between atoms: N_8  and  C_57
    8  A    between atoms: N_10  and  C_41
    9  A    between atoms: N_10  and  N_50
   10  A    between atoms: C_11  and  N_53
   11  A    between atoms: N_13  and  C_25
   12  A    between atoms: N_13  and  C_35
   13  A    between atoms: C_14  and  C_34
   14  A    between atoms: C_25  and  C_59
   15  A    between atoms: C_27  and  C_51
   16  A    between atoms: C_30  and  C_49
   17  A    between atoms: C_31  and  C_48
   18  A    between atoms: C_35  and  C_51
   19  A    between atoms: C_40  and  C_59
   20  A    between atoms: C_41  and  C_60
   21  A    between atoms: C_48  and  S_58
                            x       y       z     vdW  Elec       q    Type
                         _______ _______ _______ _____ _____    ______ ____

>  <TORSDO>
F 21

$$$$
=
 OpenBabel11042414143D

 62 69  0  0  1  0  0  0  0  0999 V2000
  191.5290  174.9140  146.2890 C   0  0  2  0  0  3  0  0  0  0  0  0
  191.5860  173.5510  145.6200 C   0  0  0  0  0  2  0  0  0  0  0  0
  190.3350  173.2870  144.8040 C   0  0  0  0  0  2  0  0  0  0  0  0
  190.6470  172.2280  143.7660 C   0  0  0  0  0  2  0  0  0  0  0  0
  192.3960  172.3040  143.2870 S   0  0  0  0  0  0  0  0  0  0  0  0
  192.2320  170.7990  142.2800 C   0  0  0  0  0  2  0  0  0  0  0  0
  192.3350  172.6190  140.4890 C   0  0  1  0  0  3  0  0  0  0  0  0
  192.3010  171.1290  140.7990 C   0  0  2  0  0  0  0  0  0  0  0  0
  191.5500  170.3380  139.9160 O   0  0  0  0  0  1  0  0  0  0  0  0
  193.5900  171.7420  140.2640 C   0  0  1  0  0  3  0  0  0  0  0  0
  193.8510  171.3770  138.8030 C   0  0  0  0  0  1  0  0  0  0  0  0
  187.9400  175.1500  136.9760 C   0  0  0  0  0  2  0  0  0  0  0  0
  189.6490  173.7540  138.0050 N   0  0  0  0  0  0  0  0  0  0  0  0
  188.4980  174.8040  135.6710 N   0  0  0  0  0  2  0  0  0  0  0  0
  188.2140  174.0250  137.9670 C   0  0  0  0  0  2  0  0  0  0  0  0
  190.3780  173.6440  136.7410 C   0  0  0  0  0  2  0  0  0  0  0  0
  190.2690  173.3400  139.2300 C   0  0  0  0  0  0  0  0  0  0  0  0
  189.9550  174.7760  135.7990 C   0  0  0  0  0  2  0  0  0  0  0  0
  189.6070  173.3530  140.3040 O   0  0  0  0  0  0  0  0  0  0  0  0
  191.6380  172.9290  139.2430 N   0  0  0  0  0  2  0  0  0  0  0  0
  190.5310  175.7290  145.6130 N   0  0  0  0  0  2  0  0  0  0  0  0
  190.0000  176.6900  146.5730 C   0  0  0  0  0  2  0  0  0  0  0  0
  188.6370  176.2420  147.0920 C   0  0  0  0  0  2  0  0  0  0  0  0
  186.8320  178.0060  147.7000 C   0  0  0  0  0  3  0  0  0  0  0  0
  185.9650  178.3070  145.7570 N   0  0  0  0  0  0  0  0  0  0  0  0
  186.7960  176.5750  144.4820 N   0  0  0  0  0  2  0  0  0  0  0  0
  187.5800  177.2550  146.7880 C   0  0  0  0  0  0  0  0  0  0  0  0
  183.8460  178.5470  144.7400 O   0  0  0  0  0  0  0  0  0  0  0  0
  185.8140  178.6110  147.0350 N   0  0  0  0  0  0  0  0  0  0  0  0
  185.0010  178.0400  144.7650 C   0  0  0  0  0  0  0  0  0  0  0  0
  185.5240  176.9730  143.8430 C   0  0  1  0  0  3  0  0  0  0  0  0
  186.9570  177.4650  145.5830 C   0  0  0  0  0  0  0  0  0  0  0  0
  185.7520  177.5160  142.4290 C   0  0  1  0  0  3  0  0  0  0  0  0
  184.5970  178.3900  141.9480 C   0  0  0  0  0  1  0  0  0  0  0  0
  187.0680  178.2810  142.3770 C   0  0  0  0  0  2  0  0  0  0  0  0
  188.0570  177.6470  141.4080 C   0  0  0  0  0  2  0  0  0  0  0  0
  187.7600  176.1700  141.2280 C   0  0  0  0  0  1  0  0  0  0  0  0
  192.8300  175.5640  146.1990 N   0  0  0  0  0  2  0  0  0  0  0  0
  195.8130  175.0220  143.9310 C   0  0  0  0  0  0  0  0  0  0  0  0
  197.0620  174.4800  143.9740 N   0  0  0  0  0  0  0  0  0  0  0  0
  197.5550  173.9150  145.1080 C   0  0  0  0  0  3  0  0  0  0  0  0
  194.0290  176.0950  142.7590 N   0  0  0  0  0  0  0  0  0  0  0  0
  195.0090  174.9860  145.0940 C   0  0  0  0  0  0  0  0  0  0  0  0
  195.5180  174.4180  146.2230 N   0  0  0  0  0  0  0  0  0  0  0  0
  193.2450  176.0800  143.8690 C   0  0  0  0  0  3  0  0  0  0  0  0
  196.7660  173.8850  146.2560 C   0  0  0  0  0  3  0  0  0  0  0  0
  195.2960  175.5960  142.7480 C   0  0  0  0  0  0  0  0  0  0  0  0
  193.7080  175.5320  145.0630 C   0  0  0  0  0  0  0  0  0  0  0  0
  196.0650  175.6790  141.4860 C   0  0  0  0  0  0  0  0  0  0  0  0
  196.4060  176.8100  141.0420 O   0  0  0  0  0  0  0  0  0  0  0  0
  196.4590  174.4990  140.7790 N   0  0  0  0  0  2  0  0  0  0  0  0
  197.2610  174.5490  139.6300 N   0  0  0  0  0  2  0  0  0  0  0  0
  196.6130  173.7350  138.6110 C   0  0  0  0  0  2  0  0  0  0  0  0
  196.4400  173.8720  136.1110 C   0  0  0  0  0  2  0  0  0  0  0  0
  194.8890  176.1150  135.4930 C   0  0  1  0  0  3  0  0  0  0  0  0
  194.1550  175.6090  136.6340 N   0  0  0  0  0  0  0  0  0  0  0  0
  194.7400  174.9230  137.5510 C   0  0  0  0  0  3  0  0  0  0  0  0
  195.7830  174.7590  134.6340 S   0  0  0  0  0  0  0  0  0  0  0  0
  196.1950  174.5970  137.4340 C   0  0  1  0  0  3  0  0  0  0  0  0
  193.0260  177.7370  135.2990 C   0  0  0  0  0  2  0  0  0  0  0  0
  194.2040  178.2890  134.5240 C   0  0  0  0  0  2  0  0  0  0  0  0
  193.9340  176.7970  134.5300 C   0  0  0  0  0  3  0  0  0  0  0  0
  1  2  1  6  0  0  0
  3  2  1  0  0  0  0
  4  3  1  0  0  0  0
  5  4  1  0  0  0  0
  6  5  1  0  0  0  0
  7 20  1  6  0  0  0
  7  8  1  0  0  0  0
  8  9  1  6  0  0  0
  8  6  1  0  0  0  0
 10 11  1  6  0  0  0
 10  7  1  0  0  0  0
 10  8  1  0  0  0  0
 12 15  1  0  0  0  0
 13 17  1  0  0  0  0
 14 18  1  0  0  0  0
 14 12  1  0  0  0  0
 15 13  1  0  0  0  0
 16 13  1  0  0  0  0
 17 20  1  0  0  0  0
 17 19  2  0  0  0  0
 18 16  1  0  0  0  0
 21  1  1  0  0  0  0
 21 22  1  0  0  0  0
 22 23  1  0  0  0  0
 25 29  1  0  0  0  0
 26 32  1  0  0  0  0
 27 23  1  0  0  0  0
 27 24  1  0  0  0  0
 28 30  2  0  0  0  0
 29 24  2  0  0  0  0
 30 25  1  0  0  0  0
 31 33  1  6  0  0  0
 31 26  1  0  0  0  0
 31 30  1  0  0  0  0
 32 25  1  0  0  0  0
 32 27  2  0  0  0  0
 33 34  1  1  0  0  0
 35 33  1  0  0  0  0
 36 35  1  0  0  0  0
 37 36  1  0  0  0  0
 38  1  1  0  0  0  0
 39 40  2  0  0  0  0
 39 43  1  0  0  0  0
 40 41  1  0  0  0  0
 41 46  2  0  0  0  0
 42 45  1  0  0  0  0
 43 44  2  0  0  0  0
 44 46  1  0  0  0  0
 45 48  2  0  0  0  0
 47 42  2  0  0  0  0
 47 39  1  0  0  0  0
 48 43  1  0  0  0  0
 48 38  1  0  0  0  0
 49 47  1  0  0  0  0
 50 49  2  0  0  0  0
 51 49  1  0  0  0  0
 52 51  1  0  0  0  0
 53 52  1  0  0  0  0
 54 59  1  0  0  0  0
 55 62  1  6  0  0  0
 55 56  1  0  0  0  0
 56 57  2  0  0  0  0
 58 55  1  0  0  0  0
 58 54  1  0  0  0  0
 59 57  1  0  0  0  0
 59 53  1  1  0  0  0
 61 62  1  0  0  0  0
 61 60  1  0  0  0  0
 62 60  1  0  0  0  0
M  END
>  <MODEL>
5

>  <REMARK>
 VINA RESULT:      -5.9      3.524      8.178
  Name = 
  21 active torsions:
  status: ('A' for Active; 'I' for Inactive)
    1  A    between atoms: C_2  and  C_40
    2  A    between atoms: C_2  and  S_58
    3  A    between atoms: C_3  and  C_55
    4  A    between atoms: C_6  and  C_39
    5  A    between atoms: C_6  and  C_49
    6  A    between atoms: N_8  and  C_25
    7  A    between atoms: N_8  and  C_57
    8  A    between atoms: N_10  and  C_41
    9  A    between atoms: N_10  and  N_50
   10  A    between atoms: C_11  and  N_53
   11  A    between atoms: N_13  and  C_25
   12  A    between atoms: N_13  and  C_35
   13  A    between atoms: C_14  and  C_34
   14  A    between atoms: C_25  and  C_59
   15  A    between atoms: C_27  and  C_51
   16  A    between atoms: C_30  and  C_49
   17  A    between atoms: C_31  and  C_48
   18  A    between atoms: C_35  and  C_51
   19  A    between atoms: C_40  and  C_59
   20  A    between atoms: C_41  and  C_60
   21  A    between atoms: C_48  and  S_58
                            x       y       z     vdW  Elec       q    Type
                         _______ _______ _______ _____ _____    ______ ____

>  <TORSDO>
F 21

$$$$
=
 OpenBabel11042414143D

 62 69  0  0  1  0  0  0  0  0999 V2000
  190.8090  176.1870  145.0730 C   0  0  2  0  0  3  0  0  0  0  0  0
  192.1730  176.7490  144.7100 C   0  0  0  0  0  2  0  0  0  0  0  0
  193.2710  176.0960  145.5270 C   0  0  0  0  0  2  0  0  0  0  0  0
  194.4800  177.0090  145.5350 C   0  0  0  0  0  2  0  0  0  0  0  0
  195.6270  176.5560  144.2020 S   0  0  0  0  0  0  0  0  0  0  0  0
  195.3110  174.7860  144.4720 C   0  0  0  0  0  2  0  0  0  0  0  0
  197.0200  174.6750  142.5760 C   0  0  1  0  0  3  0  0  0  0  0  0
  195.9490  173.9480  143.3780 C   0  0  2  0  0  0  0  0  0  0  0  0
  195.1210  173.0830  142.6480 O   0  0  0  0  0  1  0  0  0  0  0  0
  197.4070  173.5380  143.5530 C   0  0  1  0  0  3  0  0  0  0  0  0
  197.7270  172.2050  142.8750 C   0  0  0  0  0  1  0  0  0  0  0  0
  196.3480  175.3160  136.4770 C   0  0  0  0  0  2  0  0  0  0  0  0
  196.4380  174.5660  138.7930 N   0  0  0  0  0  0  0  0  0  0  0  0
  196.8800  174.0160  136.0760 N   0  0  0  0  0  2  0  0  0  0  0  0
  195.5740  175.1750  137.7830 C   0  0  0  0  0  2  0  0  0  0  0  0
  197.2320  173.3940  138.4240 C   0  0  0  0  0  2  0  0  0  0  0  0
  196.3040  174.9400  140.1710 C   0  0  0  0  0  0  0  0  0  0  0  0
  197.8880  173.6210  137.0580 C   0  0  0  0  0  2  0  0  0  0  0  0
  195.5480  175.8970  140.4910 O   0  0  0  0  0  0  0  0  0  0  0  0
  197.0380  174.2430  141.1810 N   0  0  0  0  0  2  0  0  0  0  0  0
  190.2900  176.9170  146.2200 N   0  0  0  0  0  2  0  0  0  0  0  0
  189.6180  175.9660  147.0980 C   0  0  0  0  0  2  0  0  0  0  0  0
  188.1700  175.7540  146.6630 C   0  0  0  0  0  2  0  0  0  0  0  0
  186.8420  177.8490  147.4290 C   0  0  0  0  0  3  0  0  0  0  0  0
  186.3300  178.6640  145.5080 N   0  0  0  0  0  0  0  0  0  0  0  0
  186.8170  176.9730  144.0180 N   0  0  0  0  0  2  0  0  0  0  0  0
  187.4670  177.0580  146.4600 C   0  0  0  0  0  0  0  0  0  0  0  0
  184.4930  179.6420  144.3890 O   0  0  0  0  0  0  0  0  0  0  0  0
  186.1110  178.8090  146.8040 N   0  0  0  0  0  0  0  0  0  0  0  0
  185.4590  178.8300  144.4140 C   0  0  0  0  0  0  0  0  0  0  0  0
  185.7860  177.8050  143.3620 C   0  0  1  0  0  3  0  0  0  0  0  0
  187.0750  177.6110  145.2660 C   0  0  0  0  0  0  0  0  0  0  0  0
  186.3210  178.4610  142.0870 C   0  0  1  0  0  3  0  0  0  0  0  0
  187.4520  177.6590  141.4500 C   0  0  0  0  0  1  0  0  0  0  0  0
  185.1810  178.6700  141.0960 C   0  0  0  0  0  2  0  0  0  0  0  0
  183.8550  178.1560  141.6390 C   0  0  0  0  0  2  0  0  0  0  0  0
  182.8650  177.9300  140.5100 C   0  0  0  0  0  1  0  0  0  0  0  0
  190.9290  174.7750  145.4080 N   0  0  0  0  0  2  0  0  0  0  0  0
  190.2900  172.4400  142.4970 C   0  0  0  0  0  0  0  0  0  0  0  0
  189.4640  172.3310  141.4190 N   0  0  0  0  0  0  0  0  0  0  0  0
  188.5070  173.2600  141.1570 C   0  0  0  0  0  3  0  0  0  0  0  0
  192.1090  171.6630  143.8360 N   0  0  0  0  0  0  0  0  0  0  0  0
  190.1530  173.5560  143.3550 C   0  0  0  0  0  0  0  0  0  0  0  0
  189.1890  174.4790  143.0790 N   0  0  0  0  0  0  0  0  0  0  0  0
  191.9860  172.7200  144.6790 C   0  0  0  0  0  3  0  0  0  0  0  0
  188.3670  174.3560  142.0060 C   0  0  0  0  0  3  0  0  0  0  0  0
  191.2940  171.4810  142.7610 C   0  0  0  0  0  0  0  0  0  0  0  0
  191.0090  173.6920  144.4690 C   0  0  0  0  0  0  0  0  0  0  0  0
  191.5090  170.2830  141.9180 C   0  0  0  0  0  0  0  0  0  0  0  0
  190.7230  169.3010  142.0260 O   0  0  0  0  0  0  0  0  0  0  0  0
  192.5710  170.2310  140.9600 N   0  0  0  0  0  2  0  0  0  0  0  0
  192.7410  169.1430  140.0920 N   0  0  0  0  0  2  0  0  0  0  0  0
  193.7740  169.5090  139.1340 C   0  0  0  0  0  2  0  0  0  0  0  0
  192.9720  168.5950  136.9370 C   0  0  0  0  0  2  0  0  0  0  0  0
  191.5450  170.6250  135.6490 C   0  0  1  0  0  3  0  0  0  0  0  0
  191.0860  170.8200  137.0080 N   0  0  0  0  0  0  0  0  0  0  0  0
  191.8180  170.4880  138.0120 C   0  0  0  0  0  3  0  0  0  0  0  0
  192.0460  168.8800  135.3690 S   0  0  0  0  0  0  0  0  0  0  0  0
  193.1530  169.8500  137.7920 C   0  0  1  0  0  3  0  0  0  0  0  0
  189.3990  171.8370  135.3970 C   0  0  0  0  0  2  0  0  0  0  0  0
  190.4220  172.5190  134.5130 C   0  0  0  0  0  2  0  0  0  0  0  0
  190.4450  171.0110  134.6760 C   0  0  0  0  0  3  0  0  0  0  0  0
  1  2  1  1  0  0  0
  1 38  1  0  0  0  0
  1 21  1  0  0  0  0
  2  3  1  0  0  0  0
  3  4  1  0  0  0  0
  5  6  1  0  0  0  0
  5  4  1  0  0  0  0
  7 20  1  6  0  0  0
  7  8  1  0  0  0  0
  7 10  1  0  0  0  0
  8  9  1  6  0  0  0
  8 10  1  0  0  0  0
  8  6  1  0  0  0  0
 10 11  1  6  0  0  0
 12 15  1  0  0  0  0
 13 17  1  0  0  0  0
 14 12  1  0  0  0  0
 14 18  1  0  0  0  0
 15 13  1  0  0  0  0
 16 13  1  0  0  0  0
 17 19  2  0  0  0  0
 17 20  1  0  0  0  0
 18 16  1  0  0  0  0
 21 22  1  0  0  0  0
 23 22  1  0  0  0  0
 25 29  1  0  0  0  0
 26 32  1  0  0  0  0
 27 23  1  0  0  0  0
 27 24  1  0  0  0  0
 28 30  2  0  0  0  0
 29 24  2  0  0  0  0
 30 25  1  0  0  0  0
 31 33  1  6  0  0  0
 31 26  1  0  0  0  0
 31 30  1  0  0  0  0
 32 25  1  0  0  0  0
 32 27  2  0  0  0  0
 33 34  1  6  0  0  0
 35 36  1  0  0  0  0
 35 33  1  0  0  0  0
 37 36  1  0  0  0  0
 39 47  2  0  0  0  0
 39 43  1  0  0  0  0
 40 39  1  0  0  0  0
 41 40  2  0  0  0  0
 41 46  1  0  0  0  0
 42 45  2  0  0  0  0
 43 48  2  0  0  0  0
 44 43  1  0  0  0  0
 46 44  2  0  0  0  0
 47 42  1  0  0  0  0
 48 45  1  0  0  0  0
 48 38  1  0  0  0  0
 49 50  2  0  0  0  0
 49 47  1  0  0  0  0
 51 49  1  0  0  0  0
 52 51  1  0  0  0  0
 53 52  1  0  0  0  0
 54 59  1  0  0  0  0
 55 62  1  6  0  0  0
 55 56  1  0  0  0  0
 56 57  2  0  0  0  0
 58 55  1  0  0  0  0
 58 54  1  0  0  0  0
 59 57  1  0  0  0  0
 59 53  1  1  0  0  0
 61 62  1  0  0  0  0
 61 60  1  0  0  0  0
 62 60  1  0  0  0  0
M  END
>  <MODEL>
6

>  <REMARK>
 VINA RESULT:      -5.5      3.312      7.439
  Name = 
  21 active torsions:
  status: ('A' for Active; 'I' for Inactive)
    1  A    between atoms: C_2  and  C_40
    2  A    between atoms: C_2  and  S_58
    3  A    between atoms: C_3  and  C_55
    4  A    between atoms: C_6  and  C_39
    5  A    between atoms: C_6  and  C_49
    6  A    between atoms: N_8  and  C_25
    7  A    between atoms: N_8  and  C_57
    8  A    between atoms: N_10  and  C_41
    9  A    between atoms: N_10  and  N_50
   10  A    between atoms: C_11  and  N_53
   11  A    between atoms: N_13  and  C_25
   12  A    between atoms: N_13  and  C_35
   13  A    between atoms: C_14  and  C_34
   14  A    between atoms: C_25  and  C_59
   15  A    between atoms: C_27  and  C_51
   16  A    between atoms: C_30  and  C_49
   17  A    between atoms: C_31  and  C_48
   18  A    between atoms: C_35  and  C_51
   19  A    between atoms: C_40  and  C_59
   20  A    between atoms: C_41  and  C_60
   21  A    between atoms: C_48  and  S_58
                            x       y       z     vdW  Elec       q    Type
                         _______ _______ _______ _____ _____    ______ ____

>  <TORSDO>
F 21

$$$$
=
 OpenBabel11042414143D

 62 69  0  0  1  0  0  0  0  0999 V2000
  188.6230  173.5480  140.9440 C   0  0  2  0  0  3  0  0  0  0  0  0
  189.2640  174.6760  141.7340 C   0  0  0  0  0  2  0  0  0  0  0  0
  188.5970  176.0040  141.4340 C   0  0  0  0  0  2  0  0  0  0  0  0
  187.2850  176.0720  142.1880 C   0  0  0  0  0  2  0  0  0  0  0  0
  187.5490  176.7240  143.8620 S   0  0  0  0  0  0  0  0  0  0  0  0
  187.0640  178.3960  143.3360 C   0  0  0  0  0  2  0  0  0  0  0  0
  184.6130  177.6910  143.5080 C   0  0  1  0  0  3  0  0  0  0  0  0
  185.6710  178.7380  143.8340 C   0  0  2  0  0  0  0  0  0  0  0  0
  185.2540  180.0740  143.7480 O   0  0  0  0  0  1  0  0  0  0  0  0
  185.0920  177.8960  144.9660 C   0  0  1  0  0  3  0  0  0  0  0  0
  184.1200  178.6850  145.8440 C   0  0  0  0  0  1  0  0  0  0  0  0
  179.3760  178.6990  140.4080 C   0  0  0  0  0  2  0  0  0  0  0  0
  181.4010  178.8200  141.7560 N   0  0  0  0  0  0  0  0  0  0  0  0
  178.7130  179.5450  141.3980 N   0  0  0  0  0  2  0  0  0  0  0  0
  180.8720  178.9880  140.4040 C   0  0  0  0  0  2  0  0  0  0  0  0
  180.6680  179.4120  142.8750 C   0  0  0  0  0  2  0  0  0  0  0  0
  182.7330  178.3250  141.9500 C   0  0  0  0  0  0  0  0  0  0  0  0
  179.1700  179.1290  142.7230 C   0  0  0  0  0  2  0  0  0  0  0  0
  183.3920  177.8970  140.9630 O   0  0  0  0  0  0  0  0  0  0  0  0
  183.3100  178.3000  143.2570 N   0  0  0  0  0  2  0  0  0  0  0  0
  188.9450  172.2820  141.5860 N   0  0  0  0  0  2  0  0  0  0  0  0
  188.7690  172.4420  143.0250 C   0  0  0  0  0  2  0  0  0  0  0  0
  189.7870  171.6030  143.7940 C   0  0  0  0  0  2  0  0  0  0  0  0
  192.3140  172.0020  144.2280 C   0  0  0  0  0  3  0  0  0  0  0  0
  192.2130  173.9430  145.1440 N   0  0  0  0  0  0  0  0  0  0  0  0
  189.9760  174.2380  145.6190 N   0  0  0  0  0  2  0  0  0  0  0  0
  190.9800  172.4160  144.1810 C   0  0  0  0  0  0  0  0  0  0  0  0
  193.1490  175.1410  146.9520 O   0  0  0  0  0  0  0  0  0  0  0  0
  193.0440  172.9520  144.8690 N   0  0  0  0  0  0  0  0  0  0  0  0
  192.1500  174.7930  146.2650 C   0  0  0  0  0  0  0  0  0  0  0  0
  190.7090  175.0960  146.5750 C   0  0  1  0  0  3  0  0  0  0  0  0
  190.9810  173.6380  144.8060 C   0  0  0  0  0  0  0  0  0  0  0  0
  190.3880  176.5770  146.3590 C   0  0  1  0  0  3  0  0  0  0  0  0
  190.4620  177.3830  147.6540 C   0  0  0  0  0  1  0  0  0  0  0  0
  191.3230  177.1600  145.3060 C   0  0  0  0  0  2  0  0  0  0  0  0
  190.5570  177.8290  144.1730 C   0  0  0  0  0  2  0  0  0  0  0  0
  191.5140  178.4600  143.1780 C   0  0  0  0  0  1  0  0  0  0  0  0
  189.1360  173.5460  139.5810 N   0  0  0  0  0  2  0  0  0  0  0  0
  192.0250  171.4690  138.2860 C   0  0  0  0  0  0  0  0  0  0  0  0
  192.2590  170.2360  137.7580 N   0  0  0  0  0  0  0  0  0  0  0  0
  191.2550  169.3380  137.5700 C   0  0  0  0  0  3  0  0  0  0  0  0
  192.7640  173.6350  138.9720 N   0  0  0  0  0  0  0  0  0  0  0  0
  190.7010  171.8250  138.6360 C   0  0  0  0  0  0  0  0  0  0  0  0
  189.7060  170.9150  138.4430 N   0  0  0  0  0  0  0  0  0  0  0  0
  191.5030  173.9920  139.3260 C   0  0  0  0  0  3  0  0  0  0  0  0
  189.9520  169.6860  137.9210 C   0  0  0  0  0  3  0  0  0  0  0  0
  193.0670  172.4070  138.4680 C   0  0  0  0  0  0  0  0  0  0  0  0
  190.4400  173.1040  139.1730 C   0  0  0  0  0  0  0  0  0  0  0  0
  194.4800  172.1200  138.1310 C   0  0  0  0  0  0  0  0  0  0  0  0
  194.8950  172.3460  136.9600 O   0  0  0  0  0  0  0  0  0  0  0  0
  195.3920  171.6260  139.1170 N   0  0  0  0  0  2  0  0  0  0  0  0
  196.7530  171.4300  138.8440 N   0  0  0  0  0  2  0  0  0  0  0  0
  197.4150  171.1530  140.1100 C   0  0  0  0  0  2  0  0  0  0  0  0
  196.8150  171.3210  142.5420 C   0  0  0  0  0  2  0  0  0  0  0  0
  196.3470  174.0180  143.1110 C   0  0  1  0  0  3  0  0  0  0  0  0
  197.4930  174.1420  142.2370 N   0  0  0  0  0  0  0  0  0  0  0  0
  197.7420  173.2590  141.3360 C   0  0  0  0  0  3  0  0  0  0  0  0
  196.3460  172.3920  143.9670 S   0  0  0  0  0  0  0  0  0  0  0  0
  196.8660  172.0540  141.2010 C   0  0  1  0  0  3  0  0  0  0  0  0
  196.4720  176.4730  143.4190 C   0  0  0  0  0  2  0  0  0  0  0  0
  195.1280  176.0100  143.9400 C   0  0  0  0  0  2  0  0  0  0  0  0
  196.3570  175.1410  144.1330 C   0  0  0  0  0  3  0  0  0  0  0  0
  1 21  1  0  0  0  0
  1  2  1  1  0  0  0
  3  2  1  0  0  0  0
  3  4  1  0  0  0  0
  4  5  1  0  0  0  0
  6  8  1  0  0  0  0
  6  5  1  0  0  0  0
  7 20  1  1  0  0  0
  7  8  1  0  0  0  0
  7 10  1  0  0  0  0
  8  9  1  6  0  0  0
  8 10  1  0  0  0  0
 10 11  1  1  0  0  0
 12 14  1  0  0  0  0
 13 17  1  0  0  0  0
 13 16  1  0  0  0  0
 14 18  1  0  0  0  0
 15 12  1  0  0  0  0
 15 13  1  0  0  0  0
 17 20  1  0  0  0  0
 18 16  1  0  0  0  0
 19 17  2  0  0  0  0
 21 22  1  0  0  0  0
 22 23  1  0  0  0  0
 23 27  1  0  0  0  0
 24 29  2  0  0  0  0
 25 30  1  0  0  0  0
 26 31  1  0  0  0  0
 27 24  1  0  0  0  0
 27 32  2  0  0  0  0
 29 25  1  0  0  0  0
 30 31  1  0  0  0  0
 30 28  2  0  0  0  0
 31 33  1  6  0  0  0
 32 25  1  0  0  0  0
 32 26  1  0  0  0  0
 33 34  1  1  0  0  0
 35 33  1  0  0  0  0
 36 35  1  0  0  0  0
 37 36  1  0  0  0  0
 38  1  1  0  0  0  0
 39 47  2  0  0  0  0
 39 43  1  0  0  0  0
 40 39  1  0  0  0  0
 41 40  2  0  0  0  0
 41 46  1  0  0  0  0
 42 45  2  0  0  0  0
 43 48  2  0  0  0  0
 44 43  1  0  0  0  0
 46 44  2  0  0  0  0
 47 42  1  0  0  0  0
 48 45  1  0  0  0  0
 48 38  1  0  0  0  0
 49 47  1  0  0  0  0
 49 51  1  0  0  0  0
 50 49  2  0  0  0  0
 52 51  1  0  0  0  0
 52 53  1  0  0  0  0
 54 58  1  0  0  0  0
 55 58  1  0  0  0  0
 55 62  1  1  0  0  0
 56 55  1  0  0  0  0
 57 56  2  0  0  0  0
 59 53  1  6  0  0  0
 59 57  1  0  0  0  0
 59 54  1  0  0  0  0
 60 61  1  0  0  0  0
 60 62  1  0  0  0  0
 61 62  1  0  0  0  0
M  END
>  <MODEL>
7

>  <REMARK>
 VINA RESULT:      -5.4      2.410     10.587
  Name = 
  21 active torsions:
  status: ('A' for Active; 'I' for Inactive)
    1  A    between atoms: C_2  and  C_40
    2  A    between atoms: C_2  and  S_58
    3  A    between atoms: C_3  and  C_55
    4  A    between atoms: C_6  and  C_39
    5  A    between atoms: C_6  and  C_49
    6  A    between atoms: N_8  and  C_25
    7  A    between atoms: N_8  and  C_57
    8  A    between atoms: N_10  and  C_41
    9  A    between atoms: N_10  and  N_50
   10  A    between atoms: C_11  and  N_53
   11  A    between atoms: N_13  and  C_25
   12  A    between atoms: N_13  and  C_35
   13  A    between atoms: C_14  and  C_34
   14  A    between atoms: C_25  and  C_59
   15  A    between atoms: C_27  and  C_51
   16  A    between atoms: C_30  and  C_49
   17  A    between atoms: C_31  and  C_48
   18  A    between atoms: C_35  and  C_51
   19  A    between atoms: C_40  and  C_59
   20  A    between atoms: C_41  and  C_60
   21  A    between atoms: C_48  and  S_58
                            x       y       z     vdW  Elec       q    Type
                         _______ _______ _______ _____ _____    ______ ____

>  <TORSDO>
F 21

$$$$
=
 OpenBabel11042414143D

 62 69  0  0  1  0  0  0  0  0999 V2000
  189.4260  176.0480  146.7340 C   0  0  2  0  0  3  0  0  0  0  0  0
  189.3160  175.3300  145.4000 C   0  0  0  0  0  2  0  0  0  0  0  0
  189.2670  173.8260  145.5880 C   0  0  0  0  0  2  0  0  0  0  0  0
  190.5770  173.2320  145.1080 C   0  0  0  0  0  2  0  0  0  0  0  0
  190.6640  173.2690  143.2950 S   0  0  0  0  0  0  0  0  0  0  0  0
  191.8370  171.8800  143.2790 C   0  0  0  0  0  2  0  0  0  0  0  0
  191.9860  172.4690  140.7970 C   0  0  1  0  0  3  0  0  0  0  0  0
  192.0700  171.3840  141.8630 C   0  0  2  0  0  0  0  0  0  0  0  0
  191.5340  170.1370  141.5090 O   0  0  0  0  0  1  0  0  0  0  0  0
  193.3460  171.8230  141.1550 C   0  0  1  0  0  3  0  0  0  0  0  0
  193.8400  170.7890  140.1420 C   0  0  0  0  0  1  0  0  0  0  0  0
  190.9690  172.3810  134.7130 C   0  0  0  0  0  2  0  0  0  0  0  0
  190.8720  172.2220  137.1410 N   0  0  0  0  0  0  0  0  0  0  0  0
  190.2810  171.0940  134.6400 N   0  0  0  0  0  2  0  0  0  0  0  0
  190.5880  173.0960  136.0040 C   0  0  0  0  0  2  0  0  0  0  0  0
  190.4550  170.8220  137.0730 C   0  0  0  0  0  2  0  0  0  0  0  0
  191.3010  172.7850  138.3890 C   0  0  0  0  0  0  0  0  0  0  0  0
  190.8130  170.2400  135.7010 C   0  0  0  0  0  2  0  0  0  0  0  0
  191.5750  174.0140  138.4610 O   0  0  0  0  0  0  0  0  0  0  0  0
  191.4360  171.9550  139.5450 N   0  0  0  0  0  2  0  0  0  0  0  0
  188.3810  177.0570  146.8120 N   0  0  0  0  0  2  0  0  0  0  0  0
  187.0910  176.3770  146.8420 C   0  0  0  0  0  2  0  0  0  0  0  0
  185.9670  177.3580  147.1670 C   0  0  0  0  0  2  0  0  0  0  0  0
  184.3270  178.8440  145.8120 C   0  0  0  0  0  3  0  0  0  0  0  0
  185.0210  178.4150  143.8240 N   0  0  0  0  0  0  0  0  0  0  0  0
  186.4010  176.5850  144.0810 N   0  0  0  0  0  2  0  0  0  0  0  0
  185.4530  178.0230  145.9310 C   0  0  0  0  0  0  0  0  0  0  0  0
  184.1680  177.9500  141.6710 O   0  0  0  0  0  0  0  0  0  0  0  0
  184.0620  179.0320  144.4930 N   0  0  0  0  0  0  0  0  0  0  0  0
  184.9720  177.7010  142.6110 C   0  0  0  0  0  0  0  0  0  0  0  0
  185.9220  176.5370  142.6830 C   0  0  1  0  0  3  0  0  0  0  0  0
  185.8230  177.7630  144.6360 C   0  0  0  0  0  0  0  0  0  0  0  0
  187.0750  176.6920  141.6890 C   0  0  1  0  0  3  0  0  0  0  0  0
  187.7890  178.0340  141.8290 C   0  0  0  0  0  1  0  0  0  0  0  0
  188.0570  175.5380  141.8530 C   0  0  0  0  0  2  0  0  0  0  0  0
  188.3260  174.8270  140.5330 C   0  0  0  0  0  2  0  0  0  0  0  0
  188.2870  173.3220  140.7170 C   0  0  0  0  0  1  0  0  0  0  0  0
  190.7300  176.6880  146.8450 N   0  0  0  0  0  2  0  0  0  0  0  0
  193.4920  175.9570  144.3610 C   0  0  0  0  0  0  0  0  0  0  0  0
  193.8070  176.2070  143.0600 N   0  0  0  0  0  0  0  0  0  0  0  0
  192.9830  176.9250  142.2520 C   0  0  0  0  0  3  0  0  0  0  0  0
  194.0000  175.0330  146.5050 N   0  0  0  0  0  0  0  0  0  0  0  0
  192.2810  176.4690  144.8840 C   0  0  0  0  0  0  0  0  0  0  0  0
  191.4660  177.1860  144.0620 N   0  0  0  0  0  0  0  0  0  0  0  0
  192.8370  175.5050  147.0230 C   0  0  0  0  0  3  0  0  0  0  0  0
  191.7870  177.4250  142.7640 C   0  0  0  0  0  3  0  0  0  0  0  0
  194.3560  175.2230  145.2040 C   0  0  0  0  0  0  0  0  0  0  0  0
  191.9460  176.2310  146.2340 C   0  0  0  0  0  0  0  0  0  0  0  0
  195.6410  174.6490  144.7430 C   0  0  0  0  0  0  0  0  0  0  0  0
  196.6830  174.8340  145.4310 O   0  0  0  0  0  0  0  0  0  0  0  0
  195.7150  173.8600  143.5520 N   0  0  0  0  0  2  0  0  0  0  0  0
  196.9020  173.2350  143.1430 N   0  0  0  0  0  2  0  0  0  0  0  0
  196.5310  172.0300  142.4150 C   0  0  0  0  0  2  0  0  0  0  0  0
  197.1300  169.6190  142.7740 C   0  0  0  0  0  2  0  0  0  0  0  0
  196.6070  169.0090  145.4520 C   0  0  1  0  0  3  0  0  0  0  0  0
  197.1750  170.3310  145.6030 N   0  0  0  0  0  0  0  0  0  0  0  0
  197.0930  171.2030  144.6610 C   0  0  0  0  0  3  0  0  0  0  0  0
  197.2420  168.1900  143.9340 S   0  0  0  0  0  0  0  0  0  0  0  0
  196.4390  170.8490  143.3630 C   0  0  1  0  0  3  0  0  0  0  0  0
  196.9550  169.0470  147.9040 C   0  0  0  0  0  2  0  0  0  0  0  0
  195.7550  168.1690  147.6210 C   0  0  0  0  0  2  0  0  0  0  0  0
  196.9370  168.1660  146.6710 C   0  0  0  0  0  3  0  0  0  0  0  0
  1  2  1  6  0  0  0
  1 21  1  0  0  0  0
  1 38  1  0  0  0  0
  2  3  1  0  0  0  0
  4  3  1  0  0  0  0
  5  4  1  0  0  0  0
  6  5  1  0  0  0  0
  7 20  1  6  0  0  0
  7 10  1  0  0  0  0
  7  8  1  0  0  0  0
  8  9  1  6  0  0  0
  8  6  1  0  0  0  0
 10 11  1  6  0  0  0
 10  8  1  0  0  0  0
 12 15  1  0  0  0  0
 13 17  1  0  0  0  0
 14 12  1  0  0  0  0
 14 18  1  0  0  0  0
 15 13  1  0  0  0  0
 16 13  1  0  0  0  0
 17 19  2  0  0  0  0
 17 20  1  0  0  0  0
 18 16  1  0  0  0  0
 21 22  1  0  0  0  0
 22 23  1  0  0  0  0
 24 27  1  0  0  0  0
 25 29  1  0  0  0  0
 25 32  1  0  0  0  0
 26 32  1  0  0  0  0
 27 23  1  0  0  0  0
 28 30  2  0  0  0  0
 29 24  2  0  0  0  0
 30 31  1  0  0  0  0
 30 25  1  0  0  0  0
 31 33  1  6  0  0  0
 31 26  1  0  0  0  0
 32 27  2  0  0  0  0
 33 34  1  1  0  0  0
 33 35  1  0  0  0  0
 36 37  1  0  0  0  0
 36 35  1  0  0  0  0
 39 43  2  0  0  0  0
 39 47  1  0  0  0  0
 40 39  1  0  0  0  0
 41 46  1  0  0  0  0
 41 40  2  0  0  0  0
 42 45  1  0  0  0  0
 43 48  1  0  0  0  0
 44 43  1  0  0  0  0
 46 44  2  0  0  0  0
 47 42  2  0  0  0  0
 48 38  1  0  0  0  0
 48 45  2  0  0  0  0
 49 47  1  0  0  0  0
 49 50  2  0  0  0  0
 51 49  1  0  0  0  0
 52 51  1  0  0  0  0
 53 52  1  0  0  0  0
 54 59  1  0  0  0  0
 54 58  1  0  0  0  0
 55 56  1  0  0  0  0
 55 62  1  1  0  0  0
 57 56  2  0  0  0  0
 58 55  1  0  0  0  0
 59 53  1  6  0  0  0
 59 57  1  0  0  0  0
 61 60  1  0  0  0  0
 62 61  1  0  0  0  0
 62 60  1  0  0  0  0
M  END
>  <MODEL>
8

>  <REMARK>
 VINA RESULT:      -5.3      3.241      9.334
  Name = 
  21 active torsions:
  status: ('A' for Active; 'I' for Inactive)
    1  A    between atoms: C_2  and  C_40
    2  A    between atoms: C_2  and  S_58
    3  A    between atoms: C_3  and  C_55
    4  A    between atoms: C_6  and  C_39
    5  A    between atoms: C_6  and  C_49
    6  A    between atoms: N_8  and  C_25
    7  A    between atoms: N_8  and  C_57
    8  A    between atoms: N_10  and  C_41
    9  A    between atoms: N_10  and  N_50
   10  A    between atoms: C_11  and  N_53
   11  A    between atoms: N_13  and  C_25
   12  A    between atoms: N_13  and  C_35
   13  A    between atoms: C_14  and  C_34
   14  A    between atoms: C_25  and  C_59
   15  A    between atoms: C_27  and  C_51
   16  A    between atoms: C_30  and  C_49
   17  A    between atoms: C_31  and  C_48
   18  A    between atoms: C_35  and  C_51
   19  A    between atoms: C_40  and  C_59
   20  A    between atoms: C_41  and  C_60
   21  A    between atoms: C_48  and  S_58
                            x       y       z     vdW  Elec       q    Type
                         _______ _______ _______ _____ _____    ______ ____

>  <TORSDO>
F 21

$$$$
=
 OpenBabel11042414143D

 62 69  0  0  1  0  0  0  0  0999 V2000
  193.3450  176.4000  144.1160 C   0  0  2  0  0  3  0  0  0  0  0  0
  194.7960  176.0640  143.8200 C   0  0  0  0  0  2  0  0  0  0  0  0
  195.0960  176.1810  142.3380 C   0  0  0  0  0  2  0  0  0  0  0  0
  196.5710  176.4830  142.1630 C   0  0  0  0  0  2  0  0  0  0  0  0
  197.4250  175.0660  141.4150 S   0  0  0  0  0  0  0  0  0  0  0  0
  196.8870  175.5640  139.7510 C   0  0  0  0  0  2  0  0  0  0  0  0
  194.6720  174.4960  139.0550 C   0  0  1  0  0  3  0  0  0  0  0  0
  196.1920  174.4150  139.0400 C   0  0  2  0  0  0  0  0  0  0  0  0
  196.7370  173.1310  139.1830 O   0  0  0  0  0  1  0  0  0  0  0  0
  195.4570  174.7220  137.7400 C   0  0  1  0  0  3  0  0  0  0  0  0
  195.4390  173.5310  136.7820 C   0  0  0  0  0  1  0  0  0  0  0  0
  191.3040  169.9680  141.5490 C   0  0  0  0  0  2  0  0  0  0  0  0
  192.9320  171.3520  140.3800 N   0  0  0  0  0  0  0  0  0  0  0  0
  191.3330  169.0460  140.4160 N   0  0  0  0  0  2  0  0  0  0  0  0
  192.6390  170.6970  141.6530 C   0  0  0  0  0  2  0  0  0  0  0  0
  192.7440  170.5970  139.1410 C   0  0  0  0  0  2  0  0  0  0  0  0
  193.6390  172.6000  140.3610 C   0  0  0  0  0  0  0  0  0  0  0  0
  191.4130  169.8410  139.1910 C   0  0  0  0  0  2  0  0  0  0  0  0
  193.8750  173.2030  141.4430 O   0  0  0  0  0  0  0  0  0  0  0  0
  194.0610  173.1710  139.1210 N   0  0  0  0  0  2  0  0  0  0  0  0
  192.8170  175.4210  145.0550 N   0  0  0  0  0  2  0  0  0  0  0  0
  193.3400  175.7320  146.3800 C   0  0  0  0  0  2  0  0  0  0  0  0
  192.2510  176.3280  147.2680 C   0  0  0  0  0  2  0  0  0  0  0  0
  190.6450  174.5770  146.2230 C   0  0  0  0  0  3  0  0  0  0  0  0
  188.7700  175.5660  146.5700 N   0  0  0  0  0  0  0  0  0  0  0  0
  189.3550  177.7130  147.1720 N   0  0  0  0  0  2  0  0  0  0  0  0
  190.9140  175.7330  146.9610 C   0  0  0  0  0  0  0  0  0  0  0  0
  186.7330  176.0210  145.4640 O   0  0  0  0  0  0  0  0  0  0  0  0
  189.3130  174.5250  145.9610 N   0  0  0  0  0  0  0  0  0  0  0  0
  187.7050  176.3980  146.1740 C   0  0  0  0  0  0  0  0  0  0  0  0
  187.9880  177.8070  146.6180 C   0  0  1  0  0  3  0  0  0  0  0  0
  189.6870  176.3280  147.1190 C   0  0  0  0  0  0  0  0  0  0  0  0
  186.9840  178.2740  147.6760 C   0  0  1  0  0  3  0  0  0  0  0  0
  187.6390  179.1160  148.7680 C   0  0  0  0  0  1  0  0  0  0  0  0
  185.8500  179.0420  147.0080 C   0  0  0  0  0  2  0  0  0  0  0  0
  184.6280  178.1640  146.7740 C   0  0  0  0  0  2  0  0  0  0  0  0
  183.6600  178.8360  145.8180 C   0  0  0  0  0  1  0  0  0  0  0  0
  192.5680  176.3610  142.8850 N   0  0  0  0  0  2  0  0  0  0  0  0
  188.8830  175.6860  142.3310 C   0  0  0  0  0  0  0  0  0  0  0  0
  188.0590  174.6550  141.9970 N   0  0  0  0  0  0  0  0  0  0  0  0
  188.5410  173.4090  141.7450 C   0  0  0  0  0  3  0  0  0  0  0  0
  189.2530  177.9590  142.9660 N   0  0  0  0  0  0  0  0  0  0  0  0
  190.2740  175.4470  142.4280 C   0  0  0  0  0  0  0  0  0  0  0  0
  190.7420  174.1940  142.1720 N   0  0  0  0  0  0  0  0  0  0  0  0
  190.5920  177.7540  143.0530 C   0  0  0  0  0  3  0  0  0  0  0  0
  189.9110  173.1750  141.8340 C   0  0  0  0  0  3  0  0  0  0  0  0
  188.3800  176.9770  142.6070 C   0  0  0  0  0  0  0  0  0  0  0  0
  191.1420  176.5020  142.7860 C   0  0  0  0  0  0  0  0  0  0  0  0
  186.9410  177.3180  142.5300 C   0  0  0  0  0  0  0  0  0  0  0  0
  186.0910  176.3920  142.4220 O   0  0  0  0  0  0  0  0  0  0  0  0
  186.4960  178.6760  142.6100 N   0  0  0  0  0  2  0  0  0  0  0  0
  185.1360  179.0160  142.6260 N   0  0  0  0  0  2  0  0  0  0  0  0
  184.4970  178.3040  141.5300 C   0  0  0  0  0  2  0  0  0  0  0  0
  182.5190  179.3390  142.6780 C   0  0  0  0  0  2  0  0  0  0  0  0
  180.2150  178.1730  141.6060 C   0  0  1  0  0  3  0  0  0  0  0  0
  181.0050  178.3180  140.4030 N   0  0  0  0  0  0  0  0  0  0  0  0
  182.2900  178.3210  140.4460 C   0  0  0  0  0  3  0  0  0  0  0  0
  180.6860  179.4330  142.8580 S   0  0  0  0  0  0  0  0  0  0  0  0
  182.9990  178.2160  141.7590 C   0  0  1  0  0  3  0  0  0  0  0  0
  178.3310  177.1750  140.3450 C   0  0  0  0  0  2  0  0  0  0  0  0
  177.9900  177.1030  141.8180 C   0  0  0  0  0  2  0  0  0  0  0  0
  178.7400  178.3030  141.2710 C   0  0  0  0  0  3  0  0  0  0  0  0
  1  2  1  6  0  0  0
  1 21  1  0  0  0  0
  3  2  1  0  0  0  0
  4  3  1  0  0  0  0
  5  4  1  0  0  0  0
  6  5  1  0  0  0  0
  7 20  1  6  0  0  0
  8  7  1  0  0  0  0
  8  9  1  1  0  0  0
  8  6  1  0  0  0  0
 10 11  1  6  0  0  0
 10  8  1  0  0  0  0
 10  7  1  0  0  0  0
 12 15  1  0  0  0  0
 13 15  1  0  0  0  0
 14 12  1  0  0  0  0
 16 18  1  0  0  0  0
 16 13  1  0  0  0  0
 17 13  1  0  0  0  0
 17 19  2  0  0  0  0
 18 14  1  0  0  0  0
 20 17  1  0  0  0  0
 21 22  1  0  0  0  0
 22 23  1  0  0  0  0
 24 27  1  0  0  0  0
 25 32  1  0  0  0  0
 27 32  2  0  0  0  0
 27 23  1  0  0  0  0
 28 30  2  0  0  0  0
 29 24  2  0  0  0  0
 29 25  1  0  0  0  0
 30 25  1  0  0  0  0
 30 31  1  0  0  0  0
 31 26  1  0  0  0  0
 31 33  1  1  0  0  0
 32 26  1  0  0  0  0
 33 34  1  1  0  0  0
 35 33  1  0  0  0  0
 36 35  1  0  0  0  0
 37 36  1  0  0  0  0
 38  1  1  0  0  0  0
 39 43  2  0  0  0  0
 39 47  1  0  0  0  0
 40 39  1  0  0  0  0
 41 46  1  0  0  0  0
 41 40  2  0  0  0  0
 42 45  1  0  0  0  0
 43 48  1  0  0  0  0
 44 43  1  0  0  0  0
 46 44  2  0  0  0  0
 47 42  2  0  0  0  0
 48 38  1  0  0  0  0
 48 45  2  0  0  0  0
 49 47  1  0  0  0  0
 49 51  1  0  0  0  0
 50 49  2  0  0  0  0
 51 52  1  0  0  0  0
 53 52  1  0  0  0  0
 54 58  1  0  0  0  0
 55 62  1  6  0  0  0
 55 58  1  0  0  0  0
 56 57  2  0  0  0  0
 56 55  1  0  0  0  0
 57 59  1  0  0  0  0
 59 53  1  6  0  0  0
 59 54  1  0  0  0  0
 60 62  1  0  0  0  0
 60 61  1  0  0  0  0
 62 61  1  0  0  0  0
M  END
>  <MODEL>
9

>  <REMARK>
 VINA RESULT:      -5.3      1.772      2.254
  Name = 
  21 active torsions:
  status: ('A' for Active; 'I' for Inactive)
    1  A    between atoms: C_2  and  C_40
    2  A    between atoms: C_2  and  S_58
    3  A    between atoms: C_3  and  C_55
    4  A    between atoms: C_6  and  C_39
    5  A    between atoms: C_6  and  C_49
    6  A    between atoms: N_8  and  C_25
    7  A    between atoms: N_8  and  C_57
    8  A    between atoms: N_10  and  C_41
    9  A    between atoms: N_10  and  N_50
   10  A    between atoms: C_11  and  N_53
   11  A    between atoms: N_13  and  C_25
   12  A    between atoms: N_13  and  C_35
   13  A    between atoms: C_14  and  C_34
   14  A    between atoms: C_25  and  C_59
   15  A    between atoms: C_27  and  C_51
   16  A    between atoms: C_30  and  C_49
   17  A    between atoms: C_31  and  C_48
   18  A    between atoms: C_35  and  C_51
   19  A    between atoms: C_40  and  C_59
   20  A    between atoms: C_41  and  C_60
   21  A    between atoms: C_48  and  S_58
                            x       y       z     vdW  Elec       q    Type
                         _______ _______ _______ _____ _____    ______ ____

>  <TORSDO>
F 21

$$$$
