=
 OpenBabel11042417563D

 55 62  0  0  1  0  0  0  0  0999 V2000
  189.2720  175.5830  142.0700 C   0  0  0  0  0  3  0  0  0  0  0  0
  192.9480  172.8530  142.9040 C   0  0  0  0  0  2  0  0  0  0  0  0
  193.7200  174.3660  145.5260 O   0  0  0  0  0  1  0  0  0  0  0  0
  192.0690  176.7940  147.4530 C   0  0  0  0  0  3  0  0  0  0  0  0
  191.9920  177.3740  148.7280 C   0  0  0  0  0  3  0  0  0  0  0  0
  189.7770  177.4550  147.0150 C   0  0  0  0  0  0  0  0  0  0  0  0
  189.7010  178.0270  148.2810 C   0  0  0  0  0  3  0  0  0  0  0  0
  192.2980  176.0200  144.7150 N   0  0  0  0  0  2  0  0  0  0  0  0
  190.8050  177.9860  149.1380 C   0  0  0  0  0  3  0  0  0  0  0  0
  188.2150  174.6110  140.0560 C   0  0  0  0  0  3  0  0  0  0  0  0
  190.9640  176.8380  146.5890 C   0  0  0  0  0  0  0  0  0  0  0  0
  189.6460  172.2420  140.3280 C   0  0  0  0  0  0  0  0  0  0  0  0
  189.6750  175.4090  143.3280 C   0  0  0  0  0  3  0  0  0  0  0  0
  189.8190  173.2690  141.2630 C   0  0  0  0  0  3  0  0  0  0  0  0
  188.6480  177.1180  144.8980 C   0  0  0  0  0  0  0  0  0  0  0  0
  193.0070  172.6670  141.3940 C   0  0  0  0  0  2  0  0  0  0  0  0
  188.6510  177.5240  146.1340 N   0  0  0  0  0  0  0  0  0  0  0  0
  193.1540  174.3210  143.2180 C   0  0  0  0  0  2  0  0  0  0  0  0
  192.6760  174.6160  144.6280 C   0  0  1  0  0  3  0  0  0  0  0  0
  188.0480  173.5960  139.1630 N   0  0  0  0  0  0  0  0  0  0  0  0
  192.8450  171.2060  141.0000 C   0  0  1  0  0  3  0  0  0  0  0  0
  189.0930  174.4670  141.1350 C   0  0  0  0  0  0  0  0  0  0  0  0
  190.9620  176.0640  145.2980 C   0  0  1  0  0  3  0  0  0  0  0  0
  189.9320  176.5640  144.2610 C   0  0  1  0  0  3  0  0  0  0  0  0
  191.8150  171.1410  139.8700 C   0  0  0  0  0  2  0  0  0  0  0  0
  190.4100  170.9650  140.4430 C   0  0  0  0  0  2  0  0  0  0  0  0
  188.7410  172.4260  139.2770 C   0  0  0  0  0  3  0  0  0  0  0  0
  187.5630  178.3350  143.0110 C   0  0  0  0  0  3  0  0  0  0  0  0
  185.2120  178.0350  142.4650 C   0  0  0  0  0  0  0  0  0  0  0  0
  186.2120  176.8160  144.3240 C   0  0  0  0  0  3  0  0  0  0  0  0
  185.1060  177.1150  143.5230 C   0  0  0  0  0  3  0  0  0  0  0  0
  186.4540  178.6360  142.2130 C   0  0  0  0  0  3  0  0  0  0  0  0
  187.4460  177.4410  144.0910 C   0  0  0  0  0  0  0  0  0  0  0  0
  184.0640  178.3530  141.6520 N   0  0  0  0  0  0  0  0  0  0  0  0
  182.7600  178.5360  142.2410 C   0  0  0  0  0  1  0  0  0  0  0  0
  184.1730  178.4510  140.2040 C   0  0  0  0  0  1  0  0  0  0  0  0
  195.4970  172.0180  140.5070 S   0  0  0  0  0  0  0  0  0  0  0  0
  194.2190  170.7170  140.5430 C   0  0  2  0  0  3  0  0  0  0  0  0
  195.2550  171.3150  138.8450 C   0  0  2  0  0  0  0  0  0  0  0  0
  194.2060  170.4290  139.1670 O   0  0  0  0  0  0  0  0  0  0  0  0
  196.3730  170.6020  138.4400 F   0  0  0  0  0  0  0  0  0  0  0  0
  194.4840  172.7080  135.2820 O   0  0  0  0  0  0  0  0  0  0  0  0
  194.8200  172.3750  137.7980 C   0  0  1  0  0  0  0  0  0  0  0  0
  194.8780  170.4850  136.0740 O   0  0  0  0  0  1  0  0  0  0  0  0
  194.6530  171.8270  136.3770 C   0  0  1  0  0  0  0  0  0  0  0  0
  195.7570  172.7260  135.8730 C   0  0  2  0  0  0  0  0  0  0  0  0
  193.6390  173.0360  138.1680 O   0  0  0  0  0  1  0  0  0  0  0  0
  195.8660  173.3800  137.2600 C   0  0  2  0  0  3  0  0  0  0  0  0
  196.8930  170.5600  135.1970 N   0  0  0  0  0  2  0  0  0  0  0  0
  197.9080  169.8610  134.6520 O   0  0  0  0  0  1  0  0  0  0  0  0
  196.8510  171.9860  135.1320 C   0  0  0  0  0  0  0  0  0  0  0  0
  197.7510  172.6070  134.5130 O   0  0  0  0  0  0  0  0  0  0  0  0
  197.2650  173.4480  137.8460 C   0  0  0  0  0  0  0  0  0  0  0  0
  197.8970  172.3870  138.1330 O   0  0  0  0  0  0  0  0  0  0  0  0
  197.7780  174.6830  138.2750 O   0  0  0  0  0  1  0  0  0  0  0  0
  1 13  2  0  0  0  0
  2 18  1  0  0  0  0
  4  5  1  0  0  0  0
  5  9  2  0  0  0  0
  6  7  2  0  0  0  0
  7  9  1  0  0  0  0
 10 22  1  0  0  0  0
 11  6  1  0  0  0  0
 11  4  2  0  0  0  0
 12 26  1  0  0  0  0
 12 14  1  0  0  0  0
 15 17  2  0  0  0  0
 16  2  1  0  0  0  0
 17  6  1  0  0  0  0
 18 19  1  0  0  0  0
 19  8  1  0  0  0  0
 19  3  1  1  0  0  0
 20 27  1  0  0  0  0
 20 10  2  0  0  0  0
 21 25  1  6  0  0  0
 21 16  1  0  0  0  0
 22 14  2  0  0  0  0
 22  1  1  0  0  0  0
 23  8  1  6  0  0  0
 23 11  1  0  0  0  0
 24 13  1  6  0  0  0
 24 15  1  0  0  0  0
 24 23  1  0  0  0  0
 25 26  1  0  0  0  0
 27 12  2  0  0  0  0
 28 33  1  0  0  0  0
 29 31  2  0  0  0  0
 31 30  1  0  0  0  0
 32 29  1  0  0  0  0
 32 28  2  0  0  0  0
 33 30  2  0  0  0  0
 33 15  1  0  0  0  0
 34 35  1  0  0  0  0
 34 29  1  0  0  0  0
 36 34  1  0  0  0  0
 37 38  1  0  0  0  0
 38 40  1  6  0  0  0
 38 21  1  0  0  0  0
 39 41  1  6  0  0  0
 39 40  1  0  0  0  0
 39 37  1  0  0  0  0
 42 46  1  0  0  0  0
 42 45  1  0  0  0  0
 43 47  1  1  0  0  0
 43 39  1  0  0  0  0
 45 44  1  6  0  0  0
 45 43  1  0  0  0  0
 46 51  1  6  0  0  0
 46 45  1  0  0  0  0
 46 48  1  0  0  0  0
 48 43  1  0  0  0  0
 48 53  1  1  0  0  0
 50 49  1  0  0  0  0
 51 49  1  0  0  0  0
 52 51  2  0  0  0  0
 53 54  2  0  0  0  0
 53 55  1  0  0  0  0
M  END
>  <MODEL>
1

>  <REMARK>
 VINA RESULT:      -7.3      0.000      0.000
  Name = 
  6 active torsions:
  status: ('A' for Active; 'I' for Inactive)
    1  A    between atoms: C_1  and  C_53
    2  A    between atoms: C_6  and  C_20
    3  A    between atoms: C_8  and  C_43
    4  A    between atoms: N_10  and  C_32
    5  A    between atoms: C_29  and  C_38
    6  A    between atoms: C_33  and  C_52
                            x       y       z     vdW  Elec       q    Type
                         _______ _______ _______ _____ _____    ______ ____

>  <TORSDO>
F 6

$$$$
=
 OpenBabel11042417563D

 55 62  0  0  1  0  0  0  0  0999 V2000
  189.3830  175.4500  142.3700 C   0  0  0  0  0  3  0  0  0  0  0  0
  192.9800  172.7110  143.4760 C   0  0  0  0  0  2  0  0  0  0  0  0
  193.7050  174.3660  146.0240 O   0  0  0  0  0  1  0  0  0  0  0  0
  192.0470  176.9360  147.7510 C   0  0  0  0  0  3  0  0  0  0  0  0
  191.9450  177.5940  148.9850 C   0  0  0  0  0  3  0  0  0  0  0  0
  189.7830  177.6100  147.2050 C   0  0  0  0  0  0  0  0  0  0  0  0
  189.6810  178.2590  148.4320 C   0  0  0  0  0  3  0  0  0  0  0  0
  192.3400  175.9930  145.0730 N   0  0  0  0  0  2  0  0  0  0  0  0
  190.7600  178.2520  149.3230 C   0  0  0  0  0  3  0  0  0  0  0  0
  188.3660  174.3760  140.3870 C   0  0  0  0  0  3  0  0  0  0  0  0
  190.9690  176.9470  146.8540 C   0  0  0  0  0  0  0  0  0  0  0  0
  189.7420  172.0020  140.8450 C   0  0  0  0  0  0  0  0  0  0  0  0
  189.7470  175.3450  143.6470 C   0  0  0  0  0  3  0  0  0  0  0  0
  189.9080  173.0820  141.7210 C   0  0  0  0  0  3  0  0  0  0  0  0
  188.7080  177.1650  145.0800 C   0  0  0  0  0  0  0  0  0  0  0  0
  193.0780  172.4320  141.9820 C   0  0  0  0  0  2  0  0  0  0  0  0
  188.6840  177.6450  146.2890 N   0  0  0  0  0  0  0  0  0  0  0  0
  193.2050  174.1910  143.7070 C   0  0  0  0  0  2  0  0  0  0  0  0
  192.6920  174.5800  145.0820 C   0  0  1  0  0  3  0  0  0  0  0  0
  188.2040  173.3110  139.5530 N   0  0  0  0  0  0  0  0  0  0  0  0
  192.9000  170.9530  141.6730 C   0  0  1  0  0  3  0  0  0  0  0  0
  189.2100  174.2820  141.4990 C   0  0  0  0  0  0  0  0  0  0  0  0
  190.9890  176.0970  145.6120 C   0  0  1  0  0  3  0  0  0  0  0  0
  189.9990  176.5500  144.5160 C   0  0  1  0  0  3  0  0  0  0  0  0
  191.9000  170.8380  140.5190 C   0  0  0  0  0  2  0  0  0  0  0  0
  190.4770  170.7220  141.0590 C   0  0  0  0  0  2  0  0  0  0  0  0
  188.8710  172.1380  139.7580 C   0  0  0  0  0  3  0  0  0  0  0  0
  187.7070  178.2610  143.0760 C   0  0  0  0  0  3  0  0  0  0  0  0
  185.3610  177.9900  142.4960 C   0  0  0  0  0  0  0  0  0  0  0  0
  186.2770  176.8930  144.4690 C   0  0  0  0  0  3  0  0  0  0  0  0
  185.2010  177.1610  143.6190 C   0  0  0  0  0  3  0  0  0  0  0  0
  186.6270  178.5310  142.2290 C   0  0  0  0  0  3  0  0  0  0  0  0
  187.5360  177.4590  144.2200 C   0  0  0  0  0  0  0  0  0  0  0  0
  184.2440  178.2780  141.6300 N   0  0  0  0  0  0  0  0  0  0  0  0
  182.9080  178.4190  142.1580 C   0  0  0  0  0  1  0  0  0  0  0  0
  184.4170  178.3860  140.1890 C   0  0  0  0  0  1  0  0  0  0  0  0
  195.4640  171.7000  140.7780 S   0  0  0  0  0  0  0  0  0  0  0  0
  194.2760  170.4130  141.2880 C   0  0  2  0  0  3  0  0  0  0  0  0
  195.1800  170.5190  139.4210 C   0  0  2  0  0  0  0  0  0  0  0  0
  194.2090  169.7250  140.0640 O   0  0  0  0  0  0  0  0  0  0  0  0
  196.3200  169.7700  139.1700 F   0  0  0  0  0  0  0  0  0  0  0  0
  193.7200  170.6590  135.8040 O   0  0  0  0  0  0  0  0  0  0  0  0
  194.6240  171.1950  138.1390 C   0  0  1  0  0  0  0  0  0  0  0  0
  194.0460  168.8390  137.3230 O   0  0  0  0  0  1  0  0  0  0  0  0
  194.0530  170.2170  137.1080 C   0  0  1  0  0  0  0  0  0  0  0  0
  195.0940  170.6370  136.0960 C   0  0  2  0  0  0  0  0  0  0  0  0
  193.6510  172.1640  138.4270 O   0  0  0  0  0  1  0  0  0  0  0  0
  195.6110  171.7110  137.0660 C   0  0  2  0  0  3  0  0  0  0  0  0
  197.1490  169.1500  136.0920 N   0  0  0  0  0  2  0  0  0  0  0  0
  197.9410  168.2050  135.5470 O   0  0  0  0  0  1  0  0  0  0  0  0
  195.8830  169.4790  135.5210 C   0  0  0  0  0  0  0  0  0  0  0  0
  195.4690  168.8460  134.5170 O   0  0  0  0  0  0  0  0  0  0  0  0
  197.1100  171.7080  137.3100 C   0  0  0  0  0  0  0  0  0  0  0  0
  197.6340  170.8660  138.1010 O   0  0  0  0  0  1  0  0  0  0  0  0
  197.8920  172.7720  136.8340 O   0  0  0  0  0  0  0  0  0  0  0  0
  1 13  2  0  0  0  0
  2 18  1  0  0  0  0
  4  5  1  0  0  0  0
  5  9  2  0  0  0  0
  6  7  2  0  0  0  0
  7  9  1  0  0  0  0
  8 19  1  0  0  0  0
 10 22  1  0  0  0  0
 11  6  1  0  0  0  0
 11  4  2  0  0  0  0
 12 26  1  0  0  0  0
 12 14  1  0  0  0  0
 15 17  2  0  0  0  0
 16  2  1  0  0  0  0
 17  6  1  0  0  0  0
 18 19  1  0  0  0  0
 19  3  1  1  0  0  0
 20 27  1  0  0  0  0
 20 10  2  0  0  0  0
 21 25  1  6  0  0  0
 21 16  1  0  0  0  0
 22 14  2  0  0  0  0
 22  1  1  0  0  0  0
 23  8  1  6  0  0  0
 23 11  1  0  0  0  0
 24 13  1  1  0  0  0
 24 15  1  0  0  0  0
 24 23  1  0  0  0  0
 25 26  1  0  0  0  0
 27 12  2  0  0  0  0
 28 33  1  0  0  0  0
 29 31  2  0  0  0  0
 31 30  1  0  0  0  0
 32 29  1  0  0  0  0
 32 28  2  0  0  0  0
 33 30  2  0  0  0  0
 33 15  1  0  0  0  0
 34 35  1  0  0  0  0
 34 29  1  0  0  0  0
 36 34  1  0  0  0  0
 37 38  1  0  0  0  0
 38 40  1  6  0  0  0
 38 21  1  0  0  0  0
 39 41  1  6  0  0  0
 39 40  1  0  0  0  0
 39 37  1  0  0  0  0
 42 46  1  0  0  0  0
 42 45  1  0  0  0  0
 43 47  1  1  0  0  0
 43 39  1  0  0  0  0
 45 44  1  1  0  0  0
 45 43  1  0  0  0  0
 46 51  1  6  0  0  0
 46 48  1  0  0  0  0
 46 45  1  0  0  0  0
 48 53  1  1  0  0  0
 48 43  1  0  0  0  0
 50 49  1  0  0  0  0
 51 49  1  0  0  0  0
 52 51  2  0  0  0  0
 53 54  1  0  0  0  0
 55 53  2  0  0  0  0
M  END
>  <MODEL>
2

>  <REMARK>
 VINA RESULT:      -7.0      0.987      1.195
  Name = 
  6 active torsions:
  status: ('A' for Active; 'I' for Inactive)
    1  A    between atoms: C_1  and  C_53
    2  A    between atoms: C_6  and  C_20
    3  A    between atoms: C_8  and  C_43
    4  A    between atoms: N_10  and  C_32
    5  A    between atoms: C_29  and  C_38
    6  A    between atoms: C_33  and  C_52
                            x       y       z     vdW  Elec       q    Type
                         _______ _______ _______ _____ _____    ______ ____

>  <TORSDO>
F 6

$$$$
=
 OpenBabel11042417563D

 55 62  0  0  1  0  0  0  0  0999 V2000
  192.7700  171.7050  139.4050 C   0  0  0  0  0  3  0  0  0  0  0  0
  190.1480  174.8030  141.6830 C   0  0  0  0  0  2  0  0  0  0  0  0
  192.1750  175.0720  144.0440 O   0  0  0  0  0  1  0  0  0  0  0  0
  195.4740  173.9520  144.4950 C   0  0  0  0  0  3  0  0  0  0  0  0
  196.6580  174.1650  145.2160 C   0  0  0  0  0  3  0  0  0  0  0  0
  196.7490  172.9280  142.7040 C   0  0  0  0  0  0  0  0  0  0  0  0
  197.9230  173.1430  143.4180 C   0  0  0  0  0  3  0  0  0  0  0  0
  193.0830  173.1090  143.1830 N   0  0  0  0  0  2  0  0  0  0  0  0
  197.8800  173.7620  144.6720 C   0  0  0  0  0  3  0  0  0  0  0  0
  191.5560  171.2940  137.2890 C   0  0  0  0  0  3  0  0  0  0  0  0
  195.5140  173.3270  143.2400 C   0  0  0  0  0  0  0  0  0  0  0  0
  189.9740  173.5540  137.6430 C   0  0  0  0  0  0  0  0  0  0  0  0
  193.3620  172.5840  140.2130 C   0  0  0  0  0  3  0  0  0  0  0  0
  190.9520  173.2350  138.5920 C   0  0  0  0  0  3  0  0  0  0  0  0
  195.7590  171.9270  140.7330 C   0  0  0  0  0  0  0  0  0  0  0  0
  188.9640  174.1320  140.9980 C   0  0  0  0  0  2  0  0  0  0  0  0
  196.7990  172.2710  141.4340 N   0  0  0  0  0  0  0  0  0  0  0  0
  190.8420  173.7810  142.5600 C   0  0  0  0  0  2  0  0  0  0  0  0
  192.2390  174.2630  142.9030 C   0  0  1  0  0  3  0  0  0  0  0  0
  190.6100  171.6270  136.3670 N   0  0  0  0  0  0  0  0  0  0  0  0
  188.1910  175.1100  140.1250 C   0  0  1  0  0  3  0  0  0  0  0  0
  191.7600  172.0980  138.4160 C   0  0  0  0  0  0  0  0  0  0  0  0
  194.2860  173.2570  142.3720 C   0  0  1  0  0  3  0  0  0  0  0  0
  194.3420  172.1670  141.2790 C   0  0  1  0  0  3  0  0  0  0  0  0
  187.9560  174.4360  138.7710 C   0  0  0  0  0  2  0  0  0  0  0  0
  189.1020  174.7530  137.8140 C   0  0  0  0  0  2  0  0  0  0  0  0
  189.8220  172.7300  136.5220 C   0  0  0  0  0  3  0  0  0  0  0  0
  195.7730  169.7060  139.5980 C   0  0  0  0  0  3  0  0  0  0  0  0
  196.3840  169.4590  137.2570 C   0  0  0  0  0  0  0  0  0  0  0  0
  196.3910  171.6580  138.3070 C   0  0  0  0  0  3  0  0  0  0  0  0
  196.5830  170.8480  137.1840 C   0  0  0  0  0  3  0  0  0  0  0  0
  195.9700  168.8970  138.4740 C   0  0  0  0  0  3  0  0  0  0  0  0
  196.0080  171.0920  139.5320 C   0  0  0  0  0  0  0  0  0  0  0  0
  196.5990  168.6250  136.1000 N   0  0  0  0  0  0  0  0  0  0  0  0
  195.4930  168.1660  135.2940 C   0  0  0  0  0  1  0  0  0  0  0  0
  197.9350  168.1760  135.7340 C   0  0  0  0  0  1  0  0  0  0  0  0
  186.3340  177.1400  140.7270 S   0  0  0  0  0  0  0  0  0  0  0  0
  186.8780  175.4040  140.8480 C   0  0  2  0  0  3  0  0  0  0  0  0
  186.6010  176.6750  142.4670 C   0  0  2  0  0  0  0  0  0  0  0  0
  187.0630  175.3620  142.2410 O   0  0  0  0  0  0  0  0  0  0  0  0
  185.4020  176.6460  143.1630 F   0  0  0  0  0  0  0  0  0  0  0  0
  189.0460  177.7250  145.3220 O   0  0  0  0  0  0  0  0  0  0  0  0
  187.6700  177.5540  143.1700 C   0  0  1  0  0  0  0  0  0  0  0  0
  187.8170  175.7090  144.9370 O   0  0  0  0  0  1  0  0  0  0  0  0
  188.2390  176.9480  144.4560 C   0  0  1  0  0  0  0  0  0  0  0  0
  187.6940  178.0980  145.2710 C   0  0  2  0  0  0  0  0  0  0  0  0
  188.7340  177.8830  142.3180 O   0  0  0  0  0  1  0  0  0  0  0  0
  187.2170  178.7900  143.9840 C   0  0  2  0  0  3  0  0  0  0  0  0
  185.7030  176.8220  146.1920 N   0  0  0  0  0  2  0  0  0  0  0  0
  184.8410  176.4990  147.1750 O   0  0  0  0  0  1  0  0  0  0  0  0
  186.8330  177.6610  146.4370 C   0  0  0  0  0  0  0  0  0  0  0  0
  187.0620  178.0710  147.6030 O   0  0  0  0  0  0  0  0  0  0  0  0
  185.7680  179.2450  143.9810 C   0  0  0  0  0  0  0  0  0  0  0  0
  185.1060  179.2840  142.9000 O   0  0  0  0  0  0  0  0  0  0  0  0
  185.2230  179.8310  145.1340 O   0  0  0  0  0  1  0  0  0  0  0  0
  1 13  2  0  0  0  0
  2 18  1  0  0  0  0
  4  5  1  0  0  0  0
  6 11  1  0  0  0  0
  6  7  2  0  0  0  0
  7  9  1  0  0  0  0
  9  5  2  0  0  0  0
 10 22  1  0  0  0  0
 11  4  2  0  0  0  0
 12 26  1  0  0  0  0
 12 14  1  0  0  0  0
 15 24  1  0  0  0  0
 15 17  2  0  0  0  0
 16  2  1  0  0  0  0
 17  6  1  0  0  0  0
 18 19  1  0  0  0  0
 19  8  1  0  0  0  0
 19  3  1  1  0  0  0
 20 27  1  0  0  0  0
 20 10  2  0  0  0  0
 21 25  1  6  0  0  0
 21 38  1  0  0  0  0
 21 16  1  0  0  0  0
 22 14  2  0  0  0  0
 22  1  1  0  0  0  0
 23  8  1  1  0  0  0
 23 11  1  0  0  0  0
 24 13  1  6  0  0  0
 24 23  1  0  0  0  0
 26 25  1  0  0  0  0
 27 12  2  0  0  0  0
 29 32  1  0  0  0  0
 30 33  2  0  0  0  0
 31 29  2  0  0  0  0
 31 30  1  0  0  0  0
 32 28  2  0  0  0  0
 33 28  1  0  0  0  0
 33 15  1  0  0  0  0
 34 29  1  0  0  0  0
 35 34  1  0  0  0  0
 36 34  1  0  0  0  0
 37 39  1  0  0  0  0
 38 37  1  1  0  0  0
 38 40  1  0  0  0  0
 39 41  1  1  0  0  0
 39 43  1  0  0  0  0
 40 39  1  0  0  0  0
 43 47  1  6  0  0  0
 43 48  1  0  0  0  0
 43 45  1  0  0  0  0
 45 44  1  1  0  0  0
 45 46  1  0  0  0  0
 45 42  1  0  0  0  0
 46 42  1  0  0  0  0
 46 51  1  1  0  0  0
 48 53  1  1  0  0  0
 48 46  1  0  0  0  0
 49 51  1  0  0  0  0
 49 50  1  0  0  0  0
 51 52  2  0  0  0  0
 53 55  1  0  0  0  0
 54 53  2  0  0  0  0
M  END
>  <MODEL>
3

>  <REMARK>
 VINA RESULT:      -6.5      4.828     10.804
  Name = 
  6 active torsions:
  status: ('A' for Active; 'I' for Inactive)
    1  A    between atoms: C_1  and  C_53
    2  A    between atoms: C_6  and  C_20
    3  A    between atoms: C_8  and  C_43
    4  A    between atoms: N_10  and  C_32
    5  A    between atoms: C_29  and  C_38
    6  A    between atoms: C_33  and  C_52
                            x       y       z     vdW  Elec       q    Type
                         _______ _______ _______ _____ _____    ______ ____

>  <TORSDO>
F 6

$$$$
=
 OpenBabel11042417563D

 55 62  0  0  1  0  0  0  0  0999 V2000
  189.0060  174.9160  144.3050 C   0  0  0  0  0  3  0  0  0  0  0  0
  192.3310  172.5580  142.0600 C   0  0  0  0  0  2  0  0  0  0  0  0
  190.8680  172.7370  139.3060 O   0  0  0  0  0  1  0  0  0  0  0  0
  188.0860  174.5740  138.1980 C   0  0  0  0  0  3  0  0  0  0  0  0
  187.4420  175.0870  137.0630 C   0  0  0  0  0  3  0  0  0  0  0  0
  187.0300  176.2750  139.5660 C   0  0  0  0  0  0  0  0  0  0  0  0
  186.3950  176.7860  138.4390 C   0  0  0  0  0  3  0  0  0  0  0  0
  189.0170  173.3240  140.5900 N   0  0  0  0  0  2  0  0  0  0  0  0
  186.6010  176.1950  137.1870 C   0  0  0  0  0  3  0  0  0  0  0  0
  189.8580  175.1510  146.6160 C   0  0  0  0  0  3  0  0  0  0  0  0
  187.8780  175.1610  139.4550 C   0  0  0  0  0  0  0  0  0  0  0  0
  192.4370  174.4570  145.8400 C   0  0  0  0  0  0  0  0  0  0  0  0
  189.1930  175.1420  143.0060 C   0  0  0  0  0  3  0  0  0  0  0  0
  191.4170  174.5190  144.8840 C   0  0  0  0  0  3  0  0  0  0  0  0
  187.2500  176.4100  141.9750 C   0  0  0  0  0  0  0  0  0  0  0  0
  192.5960  171.8830  143.3990 C   0  0  0  0  0  2  0  0  0  0  0  0
  186.7940  176.8680  140.8470 N   0  0  0  0  0  0  0  0  0  0  0  0
  190.9140  172.2370  141.6290 C   0  0  0  0  0  2  0  0  0  0  0  0
  190.4690  173.2180  140.5590 C   0  0  1  0  0  3  0  0  0  0  0  0
  190.8650  175.1010  147.5310 N   0  0  0  0  0  0  0  0  0  0  0  0
  194.0180  172.1290  143.8810 C   0  0  1  0  0  3  0  0  0  0  0  0
  190.1120  174.8760  145.2680 C   0  0  0  0  0  0  0  0  0  0  0  0
  188.6970  174.7450  140.6470 C   0  0  1  0  0  3  0  0  0  0  0  0
  188.0640  175.1060  142.0090 C   0  0  1  0  0  3  0  0  0  0  0  0
  193.9430  172.5560  145.3490 C   0  0  0  0  0  2  0  0  0  0  0  0
  193.8260  174.0740  145.4550 C   0  0  0  0  0  2  0  0  0  0  0  0
  192.1370  174.7600  147.1730 C   0  0  0  0  0  3  0  0  0  0  0  0
  185.7460  176.4120  143.9650 C   0  0  0  0  0  3  0  0  0  0  0  0
  185.8040  178.1930  145.6210 C   0  0  0  0  0  0  0  0  0  0  0  0
  187.3000  178.2490  143.6980 C   0  0  0  0  0  3  0  0  0  0  0  0
  186.8280  178.8140  144.8860 C   0  0  0  0  0  3  0  0  0  0  0  0
  185.2730  176.9820  145.1520 C   0  0  0  0  0  3  0  0  0  0  0  0
  186.7470  177.0550  143.2120 C   0  0  0  0  0  0  0  0  0  0  0  0
  185.3090  178.7870  146.8380 N   0  0  0  0  0  0  0  0  0  0  0  0
  186.1940  179.4730  147.7480 C   0  0  0  0  0  1  0  0  0  0  0  0
  183.9070  178.6730  147.2150 C   0  0  0  0  0  1  0  0  0  0  0  0
  196.5830  171.0070  143.5680 S   0  0  0  0  0  0  0  0  0  0  0  0
  194.7750  170.8130  143.7110 C   0  0  2  0  0  3  0  0  0  0  0  0
  195.9040  170.2240  142.0700 C   0  0  2  0  0  0  0  0  0  0  0  0
  194.5430  170.2720  142.4350 O   0  0  0  0  0  0  0  0  0  0  0  0
  196.3240  168.9070  141.9660 F   0  0  0  0  0  0  0  0  0  0  0  0
  195.1870  171.6250  138.4990 O   0  0  0  0  0  0  0  0  0  0  0  0
  196.1900  171.0380  140.7800 C   0  0  1  0  0  0  0  0  0  0  0  0
  193.7890  170.4980  140.0810 O   0  0  0  0  0  1  0  0  0  0  0  0
  195.0090  171.1160  139.8090 C   0  0  1  0  0  0  0  0  0  0  0  0
  195.8000  170.3870  138.7480 C   0  0  2  0  0  0  0  0  0  0  0  0
  196.6310  172.3410  141.0590 O   0  0  0  0  0  1  0  0  0  0  0  0
  197.0400  170.4010  139.6560 C   0  0  2  0  0  3  0  0  0  0  0  0
  194.6410  169.1780  136.8420 N   0  0  0  0  0  2  0  0  0  0  0  0
  193.9090  168.1660  136.3370 O   0  0  0  0  0  1  0  0  0  0  0  0
  195.0940  169.1660  138.1960 C   0  0  0  0  0  0  0  0  0  0  0  0
  194.8510  168.1720  138.9250 O   0  0  0  0  0  0  0  0  0  0  0  0
  197.7250  169.0600  139.8520 C   0  0  0  0  0  0  0  0  0  0  0  0
  197.9350  168.2920  138.8650 O   0  0  0  0  0  0  0  0  0  0  0  0
  197.9310  168.5700  141.1520 O   0  0  0  0  0  1  0  0  0  0  0  0
  1 22  1  0  0  0  0
  2 16  1  0  0  0  0
  4 11  1  0  0  0  0
  5  9  1  0  0  0  0
  5  4  2  0  0  0  0
  6 17  1  0  0  0  0
  7  6  1  0  0  0  0
  8 23  1  0  0  0  0
  9  7  2  0  0  0  0
 10 20  1  0  0  0  0
 11  6  2  0  0  0  0
 12 27  1  0  0  0  0
 13  1  2  0  0  0  0
 14 22  1  0  0  0  0
 14 12  2  0  0  0  0
 15 24  1  0  0  0  0
 15 33  1  0  0  0  0
 17 15  2  0  0  0  0
 18  2  1  0  0  0  0
 19  3  1  6  0  0  0
 19  8  1  0  0  0  0
 19 18  1  0  0  0  0
 21 16  1  1  0  0  0
 21 25  1  0  0  0  0
 22 10  2  0  0  0  0
 23 11  1  6  0  0  0
 23 24  1  0  0  0  0
 24 13  1  1  0  0  0
 25 26  1  0  0  0  0
 26 12  1  0  0  0  0
 27 20  2  0  0  0  0
 28 32  1  0  0  0  0
 29 34  1  0  0  0  0
 30 31  2  0  0  0  0
 31 29  1  0  0  0  0
 32 29  2  0  0  0  0
 33 30  1  0  0  0  0
 33 28  2  0  0  0  0
 34 36  1  0  0  0  0
 34 35  1  0  0  0  0
 37 38  1  0  0  0  0
 38 40  1  6  0  0  0
 38 21  1  0  0  0  0
 39 41  1  6  0  0  0
 39 40  1  0  0  0  0
 39 37  1  0  0  0  0
 42 46  1  0  0  0  0
 42 45  1  0  0  0  0
 43 47  1  1  0  0  0
 43 39  1  0  0  0  0
 45 44  1  1  0  0  0
 45 43  1  0  0  0  0
 46 51  1  6  0  0  0
 46 48  1  0  0  0  0
 46 45  1  0  0  0  0
 48 53  1  1  0  0  0
 48 43  1  0  0  0  0
 49 51  1  0  0  0  0
 50 49  1  0  0  0  0
 51 52  2  0  0  0  0
 53 55  1  0  0  0  0
 54 53  2  0  0  0  0
M  END
>  <MODEL>
4

>  <REMARK>
 VINA RESULT:      -5.9      2.660      5.677
  Name = 
  6 active torsions:
  status: ('A' for Active; 'I' for Inactive)
    1  A    between atoms: C_1  and  C_53
    2  A    between atoms: C_6  and  C_20
    3  A    between atoms: C_8  and  C_43
    4  A    between atoms: N_10  and  C_32
    5  A    between atoms: C_29  and  C_38
    6  A    between atoms: C_33  and  C_52
                            x       y       z     vdW  Elec       q    Type
                         _______ _______ _______ _____ _____    ______ ____

>  <TORSDO>
F 6

$$$$
=
 OpenBabel11042417563D

 55 62  0  0  1  0  0  0  0  0999 V2000
  189.4340  175.4290  142.0870 C   0  0  0  0  0  3  0  0  0  0  0  0
  193.0360  172.6800  143.1490 C   0  0  0  0  0  2  0  0  0  0  0  0
  193.7380  174.2750  145.7410 O   0  0  0  0  0  1  0  0  0  0  0  0
  192.0570  176.7940  147.5210 C   0  0  0  0  0  3  0  0  0  0  0  0
  191.9440  177.4210  148.7700 C   0  0  0  0  0  3  0  0  0  0  0  0
  189.7930  177.4710  146.9770 C   0  0  0  0  0  0  0  0  0  0  0  0
  189.6810  178.0900  148.2180 C   0  0  0  0  0  3  0  0  0  0  0  0
  192.3710  175.9190  144.8220 N   0  0  0  0  0  2  0  0  0  0  0  0
  190.7540  178.0650  149.1160 C   0  0  0  0  0  3  0  0  0  0  0  0
  188.4340  174.3990  140.0730 C   0  0  0  0  0  3  0  0  0  0  0  0
  190.9850  176.8220  146.6170 C   0  0  0  0  0  0  0  0  0  0  0  0
  189.8180  172.0210  140.4810 C   0  0  0  0  0  0  0  0  0  0  0  0
  189.7900  175.2940  143.3640 C   0  0  0  0  0  3  0  0  0  0  0  0
  189.9730  173.0800  141.3840 C   0  0  0  0  0  3  0  0  0  0  0  0
  188.7340  177.0730  144.8350 C   0  0  0  0  0  0  0  0  0  0  0  0
  193.1450  172.4380  141.6500 C   0  0  0  0  0  2  0  0  0  0  0  0
  188.7000  177.5240  146.0540 N   0  0  0  0  0  0  0  0  0  0  0  0
  193.2530  174.1550  143.4170 C   0  0  0  0  0  2  0  0  0  0  0  0
  192.7300  174.5070  144.7980 C   0  0  1  0  0  3  0  0  0  0  0  0
  188.2830  173.3540  139.2120 N   0  0  0  0  0  0  0  0  0  0  0  0
  192.9750  170.9660  141.3030 C   0  0  1  0  0  3  0  0  0  0  0  0
  189.2710  174.2820  141.1870 C   0  0  0  0  0  0  0  0  0  0  0  0
  191.0160  176.0030  145.3550 C   0  0  1  0  0  3  0  0  0  0  0  0
  190.0310  176.4790  144.2640 C   0  0  1  0  0  3  0  0  0  0  0  0
  191.9840  170.8750  140.1400 C   0  0  0  0  0  2  0  0  0  0  0  0
  190.5580  170.7390  140.6680 C   0  0  0  0  0  2  0  0  0  0  0  0
  188.9540  172.1800  139.3920 C   0  0  0  0  0  3  0  0  0  0  0  0
  186.3230  176.7890  144.2630 C   0  0  0  0  0  3  0  0  0  0  0  0
  185.2830  177.9950  142.4240 C   0  0  0  0  0  0  0  0  0  0  0  0
  187.6450  178.3170  142.9310 C   0  0  0  0  0  3  0  0  0  0  0  0
  186.5170  178.6140  142.1610 C   0  0  0  0  0  3  0  0  0  0  0  0
  185.1970  177.0850  143.4880 C   0  0  0  0  0  3  0  0  0  0  0  0
  187.5660  177.3840  143.9740 C   0  0  0  0  0  0  0  0  0  0  0  0
  184.1260  178.2920  141.6170 N   0  0  0  0  0  0  0  0  0  0  0  0
  184.1970  178.2760  140.1760 C   0  0  0  0  0  1  0  0  0  0  0  0
  182.8590  178.6670  142.2280 C   0  0  0  0  0  1  0  0  0  0  0  0
  195.3860  171.6520  140.0180 S   0  0  0  0  0  0  0  0  0  0  0  0
  194.3560  170.4420  140.9130 C   0  0  2  0  0  3  0  0  0  0  0  0
  195.0940  170.1770  138.9900 C   0  0  2  0  0  0  0  0  0  0  0  0
  194.2490  169.4900  139.8850 O   0  0  0  0  0  0  0  0  0  0  0  0
  196.2680  169.4650  138.8000 F   0  0  0  0  0  0  0  0  0  0  0  0
  194.7980  170.6920  135.1320 O   0  0  0  0  0  0  0  0  0  0  0  0
  194.3800  170.5050  137.6510 C   0  0  1  0  0  0  0  0  0  0  0  0
  196.5220  169.7320  136.4850 O   0  0  0  0  0  1  0  0  0  0  0  0
  195.2230  170.2320  136.4020 C   0  0  1  0  0  0  0  0  0  0  0  0
  195.1920  171.6970  136.0300 C   0  0  2  0  0  0  0  0  0  0  0  0
  193.1550  169.8340  137.5220 O   0  0  0  0  0  1  0  0  0  0  0  0
  194.2460  171.9810  137.2070 C   0  0  2  0  0  3  0  0  0  0  0  0
  196.7230  173.3270  134.8320 N   0  0  0  0  0  2  0  0  0  0  0  0
  197.9390  173.8130  134.5130 O   0  0  0  0  0  1  0  0  0  0  0  0
  196.5650  172.2950  135.8060 C   0  0  0  0  0  0  0  0  0  0  0  0
  197.5720  171.8580  136.4190 O   0  0  0  0  0  0  0  0  0  0  0  0
  194.6610  173.1190  138.1240 C   0  0  0  0  0  0  0  0  0  0  0  0
  193.7920  173.8990  138.6180 O   0  0  0  0  0  1  0  0  0  0  0  0
  196.0200  173.4450  138.2520 O   0  0  0  0  0  0  0  0  0  0  0  0
  1 13  2  0  0  0  0
  2 18  1  0  0  0  0
  4  5  1  0  0  0  0
  5  9  2  0  0  0  0
  6  7  2  0  0  0  0
  7  9  1  0  0  0  0
 10 22  1  0  0  0  0
 11  6  1  0  0  0  0
 11  4  2  0  0  0  0
 12 26  1  0  0  0  0
 12 14  1  0  0  0  0
 15 17  2  0  0  0  0
 16  2  1  0  0  0  0
 17  6  1  0  0  0  0
 18 19  1  0  0  0  0
 19  8  1  0  0  0  0
 19  3  1  1  0  0  0
 20 27  1  0  0  0  0
 20 10  2  0  0  0  0
 21 25  1  6  0  0  0
 21 16  1  0  0  0  0
 22 14  2  0  0  0  0
 22  1  1  0  0  0  0
 23  8  1  6  0  0  0
 23 11  1  0  0  0  0
 24 13  1  6  0  0  0
 24 15  1  0  0  0  0
 24 23  1  0  0  0  0
 25 26  1  0  0  0  0
 27 12  2  0  0  0  0
 29 32  1  0  0  0  0
 30 33  2  0  0  0  0
 31 29  2  0  0  0  0
 31 30  1  0  0  0  0
 32 28  2  0  0  0  0
 33 28  1  0  0  0  0
 33 15  1  0  0  0  0
 34 36  1  0  0  0  0
 34 29  1  0  0  0  0
 35 34  1  0  0  0  0
 37 38  1  0  0  0  0
 38 40  1  6  0  0  0
 38 21  1  0  0  0  0
 39 41  1  6  0  0  0
 39 40  1  0  0  0  0
 39 37  1  0  0  0  0
 42 46  1  0  0  0  0
 42 45  1  0  0  0  0
 43 47  1  6  0  0  0
 43 39  1  0  0  0  0
 45 44  1  1  0  0  0
 45 43  1  0  0  0  0
 46 51  1  6  0  0  0
 46 45  1  0  0  0  0
 46 48  1  0  0  0  0
 48 43  1  0  0  0  0
 48 53  1  1  0  0  0
 49 51  1  0  0  0  0
 50 49  1  0  0  0  0
 51 52  2  0  0  0  0
 53 55  2  0  0  0  0
 53 54  1  0  0  0  0
M  END
>  <MODEL>
5

>  <REMARK>
 VINA RESULT:      -5.6      0.915      1.552
  Name = 
  6 active torsions:
  status: ('A' for Active; 'I' for Inactive)
    1  A    between atoms: C_1  and  C_53
    2  A    between atoms: C_6  and  C_20
    3  A    between atoms: C_8  and  C_43
    4  A    between atoms: N_10  and  C_32
    5  A    between atoms: C_29  and  C_38
    6  A    between atoms: C_33  and  C_52
                            x       y       z     vdW  Elec       q    Type
                         _______ _______ _______ _____ _____    ______ ____

>  <TORSDO>
F 6

$$$$
=
 OpenBabel11042417563D

 55 62  0  0  1  0  0  0  0  0999 V2000
  186.3120  176.4530  142.7770 C   0  0  0  0  0  3  0  0  0  0  0  0
  190.6950  174.9490  143.2130 C   0  0  0  0  0  2  0  0  0  0  0  0
  190.8920  174.0640  140.2240 O   0  0  0  0  0  1  0  0  0  0  0  0
  188.8190  174.5920  137.4370 C   0  0  0  0  0  3  0  0  0  0  0  0
  188.7840  174.6180  136.0360 C   0  0  0  0  0  3  0  0  0  0  0  0
  186.9050  176.0780  137.5130 C   0  0  0  0  0  0  0  0  0  0  0  0
  186.8730  176.1060  136.1220 C   0  0  0  0  0  3  0  0  0  0  0  0
  188.5720  174.2400  140.2600 N   0  0  0  0  0  2  0  0  0  0  0  0
  187.8120  175.3790  135.3830 C   0  0  0  0  0  3  0  0  0  0  0  0
  185.7620  177.4250  144.9850 C   0  0  0  0  0  3  0  0  0  0  0  0
  187.8760  175.3160  138.1810 C   0  0  0  0  0  0  0  0  0  0  0  0
  188.4410  177.4970  145.7300 C   0  0  0  0  0  0  0  0  0  0  0  0
  187.1070  176.4610  141.7090 C   0  0  0  0  0  3  0  0  0  0  0  0
  188.0840  177.0170  144.4650 C   0  0  0  0  0  3  0  0  0  0  0  0
  185.7970  176.7640  139.5560 C   0  0  0  0  0  0  0  0  0  0  0  0
  190.3390  174.6890  144.6700 C   0  0  0  0  0  2  0  0  0  0  0  0
  185.9240  176.8040  138.2620 N   0  0  0  0  0  0  0  0  0  0  0  0
  189.8050  174.0910  142.3380 C   0  0  0  0  0  2  0  0  0  0  0  0
  189.8130  174.6250  140.9170 C   0  0  1  0  0  3  0  0  0  0  0  0
  186.1270  177.9020  146.2070 N   0  0  0  0  0  0  0  0  0  0  0  0
  191.2200  175.4920  145.6160 C   0  0  1  0  0  3  0  0  0  0  0  0
  186.7330  176.9840  144.0790 C   0  0  0  0  0  0  0  0  0  0  0  0
  188.0080  175.4520  139.6750 C   0  0  1  0  0  3  0  0  0  0  0  0
  186.7000  175.8460  140.3950 C   0  0  1  0  0  3  0  0  0  0  0  0
  190.3070  176.1560  146.6490 C   0  0  0  0  0  2  0  0  0  0  0  0
  189.8680  177.5350  146.1620 C   0  0  0  0  0  2  0  0  0  0  0  0
  187.4350  177.9450  146.5940 C   0  0  0  0  0  3  0  0  0  0  0  0
  183.3360  177.1660  139.5960 C   0  0  0  0  0  3  0  0  0  0  0  0
  182.2960  178.6290  141.2370 C   0  0  0  0  0  0  0  0  0  0  0  0
  184.7080  178.2800  141.2500 C   0  0  0  0  0  3  0  0  0  0  0  0
  183.5640  178.8720  141.7920 C   0  0  0  0  0  3  0  0  0  0  0  0
  182.1930  177.7640  140.1380 C   0  0  0  0  0  3  0  0  0  0  0  0
  184.6090  177.4390  140.1320 C   0  0  0  0  0  0  0  0  0  0  0  0
  181.1200  179.2560  141.7890 N   0  0  0  0  0  0  0  0  0  0  0  0
  180.0880  179.7910  140.9330 C   0  0  0  0  0  1  0  0  0  0  0  0
  180.9570  179.4160  143.2260 C   0  0  0  0  0  1  0  0  0  0  0  0
  193.8870  175.1320  146.4480 S   0  0  0  0  0  0  0  0  0  0  0  0
  192.1850  174.5020  146.2670 C   0  0  2  0  0  3  0  0  0  0  0  0
  193.8660  173.6430  145.3990 C   0  0  2  0  0  0  0  0  0  0  0  0
  192.4700  173.4420  145.3880 O   0  0  0  0  0  0  0  0  0  0  0  0
  194.4950  172.5820  146.0320 F   0  0  0  0  0  0  0  0  0  0  0  0
  194.7360  172.7770  141.6950 O   0  0  0  0  0  0  0  0  0  0  0  0
  194.4280  173.8990  143.9750 C   0  0  1  0  0  0  0  0  0  0  0  0
  193.3670  171.6670  143.3120 O   0  0  0  0  0  1  0  0  0  0  0  0
  194.1050  172.7970  142.9620 C   0  0  1  0  0  0  0  0  0  0  0  0
  195.5750  172.4940  142.7850 C   0  0  2  0  0  0  0  0  0  0  0  0
  194.0090  175.1300  143.4500 O   0  0  0  0  0  1  0  0  0  0  0  0
  195.9340  173.6710  143.7040 C   0  0  2  0  0  3  0  0  0  0  0  0
  196.3780  170.2580  141.8920 N   0  0  0  0  0  2  0  0  0  0  0  0
  196.5920  168.9330  142.0050 O   0  0  0  0  0  1  0  0  0  0  0  0
  195.9240  171.0360  143.0010 C   0  0  0  0  0  0  0  0  0  0  0  0
  195.7640  170.4890  144.1210 O   0  0  0  0  0  0  0  0  0  0  0  0
  196.8970  173.3520  144.8350 C   0  0  0  0  0  0  0  0  0  0  0  0
  196.9670  174.1040  145.8540 O   0  0  0  0  0  1  0  0  0  0  0  0
  197.8650  172.3520  144.6590 O   0  0  0  0  0  0  0  0  0  0  0  0
  1 22  1  0  0  0  0
  2 16  1  0  0  0  0
  4 11  1  0  0  0  0
  5  4  2  0  0  0  0
  6 11  2  0  0  0  0
  6 17  1  0  0  0  0
  7  6  1  0  0  0  0
  8 19  1  0  0  0  0
  9  5  1  0  0  0  0
  9  7  2  0  0  0  0
 10 20  1  0  0  0  0
 12 26  1  0  0  0  0
 12 27  1  0  0  0  0
 13  1  2  0  0  0  0
 14 12  2  0  0  0  0
 15 33  1  0  0  0  0
 15 24  1  0  0  0  0
 17 15  2  0  0  0  0
 18  2  1  0  0  0  0
 19  3  1  6  0  0  0
 19 18  1  0  0  0  0
 20 27  2  0  0  0  0
 21 16  1  6  0  0  0
 21 38  1  0  0  0  0
 21 25  1  0  0  0  0
 22 14  1  0  0  0  0
 22 10  2  0  0  0  0
 23 11  1  6  0  0  0
 23  8  1  0  0  0  0
 23 24  1  0  0  0  0
 24 13  1  1  0  0  0
 26 25  1  0  0  0  0
 28 33  2  0  0  0  0
 28 32  1  0  0  0  0
 29 34  1  0  0  0  0
 29 31  1  0  0  0  0
 30 31  2  0  0  0  0
 32 29  2  0  0  0  0
 33 30  1  0  0  0  0
 34 36  1  0  0  0  0
 35 34  1  0  0  0  0
 38 40  1  6  0  0  0
 38 37  1  0  0  0  0
 39 41  1  1  0  0  0
 39 37  1  0  0  0  0
 40 39  1  0  0  0  0
 42 46  1  0  0  0  0
 42 45  1  0  0  0  0
 43 47  1  6  0  0  0
 43 39  1  0  0  0  0
 45 44  1  1  0  0  0
 45 43  1  0  0  0  0
 46 45  1  0  0  0  0
 46 51  1  1  0  0  0
 46 48  1  0  0  0  0
 48 43  1  0  0  0  0
 48 53  1  1  0  0  0
 49 50  1  0  0  0  0
 49 51  1  0  0  0  0
 51 52  2  0  0  0  0
 53 54  1  0  0  0  0
 55 53  2  0  0  0  0
M  END
>  <MODEL>
6

>  <REMARK>
 VINA RESULT:      -5.2      3.959      7.152
  Name = 
  6 active torsions:
  status: ('A' for Active; 'I' for Inactive)
    1  A    between atoms: C_1  and  C_53
    2  A    between atoms: C_6  and  C_20
    3  A    between atoms: C_8  and  C_43
    4  A    between atoms: N_10  and  C_32
    5  A    between atoms: C_29  and  C_38
    6  A    between atoms: C_33  and  C_52
                            x       y       z     vdW  Elec       q    Type
                         _______ _______ _______ _____ _____    ______ ____

>  <TORSDO>
F 6

$$$$
=
 OpenBabel11042417563D

 55 62  0  0  1  0  0  0  0  0999 V2000
  187.5690  176.7940  141.7020 C   0  0  0  0  0  3  0  0  0  0  0  0
  191.5570  174.9460  143.2340 C   0  0  0  0  0  2  0  0  0  0  0  0
  191.4150  176.4310  145.9780 O   0  0  0  0  0  1  0  0  0  0  0  0
  188.8850  178.2850  147.5600 C   0  0  0  0  0  3  0  0  0  0  0  0
  188.4240  178.7520  148.7990 C   0  0  0  0  0  3  0  0  0  0  0  0
  186.6330  178.4220  146.6700 C   0  0  0  0  0  0  0  0  0  0  0  0
  186.1760  178.8810  147.9010 C   0  0  0  0  0  3  0  0  0  0  0  0
  189.8240  177.7570  144.9160 N   0  0  0  0  0  2  0  0  0  0  0  0
  187.0680  179.0450  148.9660 C   0  0  0  0  0  3  0  0  0  0  0  0
  187.1910  175.7300  139.5010 C   0  0  0  0  0  3  0  0  0  0  0  0
  187.9930  178.1250  146.4890 C   0  0  0  0  0  0  0  0  0  0  0  0
  189.0670  173.7450  140.0290 C   0  0  0  0  0  0  0  0  0  0  0  0
  187.7480  176.6410  143.0130 C   0  0  0  0  0  3  0  0  0  0  0  0
  188.8020  174.7250  140.9930 C   0  0  0  0  0  3  0  0  0  0  0  0
  186.0540  177.9640  144.3630 C   0  0  0  0  0  0  0  0  0  0  0  0
  191.9530  174.8720  141.7650 C   0  0  0  0  0  2  0  0  0  0  0  0
  185.7180  178.2820  145.5780 N   0  0  0  0  0  0  0  0  0  0  0  0
  191.3390  176.3990  143.6030 C   0  0  0  0  0  2  0  0  0  0  0  0
  190.5370  176.4870  144.8890 C   0  0  1  0  0  3  0  0  0  0  0  0
  187.4500  174.7610  138.5800 N   0  0  0  0  0  0  0  0  0  0  0  0
  192.2260  173.4410  141.3270 C   0  0  1  0  0  3  0  0  0  0  0  0
  187.8500  175.7270  140.7350 C   0  0  0  0  0  0  0  0  0  0  0  0
  188.4290  177.4540  145.2140 C   0  0  1  0  0  3  0  0  0  0  0  0
  187.5330  177.7640  143.9950 C   0  0  1  0  0  3  0  0  0  0  0  0
  191.4820  173.2090  140.0100 C   0  0  0  0  0  2  0  0  0  0  0  0
  190.0770  172.6770  140.2800 C   0  0  0  0  0  2  0  0  0  0  0  0
  188.3680  173.7790  138.8170 C   0  0  0  0  0  3  0  0  0  0  0  0
  183.7130  178.5090  143.6980 C   0  0  0  0  0  3  0  0  0  0  0  0
  182.9460  178.3090  141.3990 C   0  0  0  0  0  0  0  0  0  0  0  0
  185.2470  177.7590  141.9830 C   0  0  0  0  0  3  0  0  0  0  0  0
  184.2330  177.8830  141.0290 C   0  0  0  0  0  3  0  0  0  0  0  0
  182.6990  178.6280  142.7420 C   0  0  0  0  0  3  0  0  0  0  0  0
  184.9910  178.0480  143.3310 C   0  0  0  0  0  0  0  0  0  0  0  0
  181.8980  178.4190  140.4140 N   0  0  0  0  0  0  0  0  0  0  0  0
  180.8870  179.4440  140.5120 C   0  0  0  0  0  1  0  0  0  0  0  0
  181.7950  177.4700  139.3160 C   0  0  0  0  0  1  0  0  0  0  0  0
  194.2470  172.0340  139.9590 S   0  0  0  0  0  0  0  0  0  0  0  0
  193.7390  173.3140  141.1550 C   0  0  2  0  0  3  0  0  0  0  0  0
  194.9140  171.6630  141.6120 C   0  0  2  0  0  0  0  0  0  0  0  0
  194.3180  172.7410  142.3000 O   0  0  0  0  0  0  0  0  0  0  0  0
  196.2940  171.7900  141.6300 F   0  0  0  0  0  0  0  0  0  0  0  0
  194.2670  168.9320  144.3230 O   0  0  0  0  0  0  0  0  0  0  0  0
  194.4400  170.2910  142.1600 C   0  0  1  0  0  0  0  0  0  0  0  0
  194.8600  171.2430  144.4980 O   0  0  0  0  0  1  0  0  0  0  0  0
  194.4520  170.1840  143.6880 C   0  0  1  0  0  0  0  0  0  0  0  0
  195.4790  169.0760  143.6280 C   0  0  2  0  0  0  0  0  0  0  0  0
  193.1630  169.9430  141.6950 O   0  0  0  0  0  1  0  0  0  0  0  0
  195.3980  169.0780  142.0930 C   0  0  2  0  0  3  0  0  0  0  0  0
  196.9270  168.5600  145.6460 N   0  0  0  0  0  2  0  0  0  0  0  0
  197.9410  168.8300  146.4910 O   0  0  0  0  0  1  0  0  0  0  0  0
  196.7080  169.3420  144.4710 C   0  0  0  0  0  0  0  0  0  0  0  0
  197.5020  170.2730  144.1860 O   0  0  0  0  0  0  0  0  0  0  0  0
  196.7280  169.1660  141.3660 C   0  0  0  0  0  0  0  0  0  0  0  0
  196.8320  169.8260  140.2880 O   0  0  0  0  0  0  0  0  0  0  0  0
  197.7910  168.3400  141.7630 O   0  0  0  0  0  1  0  0  0  0  0  0
  1 13  2  0  0  0  0
  2 18  1  0  0  0  0
  4  5  1  0  0  0  0
  5  9  2  0  0  0  0
  6  7  2  0  0  0  0
  7  9  1  0  0  0  0
 10 22  1  0  0  0  0
 11  6  1  0  0  0  0
 11  4  2  0  0  0  0
 12 26  1  0  0  0  0
 12 14  1  0  0  0  0
 15 17  2  0  0  0  0
 16  2  1  0  0  0  0
 17  6  1  0  0  0  0
 18 19  1  0  0  0  0
 19  8  1  0  0  0  0
 19  3  1  1  0  0  0
 20 27  1  0  0  0  0
 20 10  2  0  0  0  0
 21 25  1  6  0  0  0
 21 16  1  0  0  0  0
 22 14  2  0  0  0  0
 22  1  1  0  0  0  0
 23  8  1  6  0  0  0
 23 11  1  0  0  0  0
 24 13  1  6  0  0  0
 24 15  1  0  0  0  0
 24 23  1  0  0  0  0
 25 26  1  0  0  0  0
 27 12  2  0  0  0  0
 29 32  1  0  0  0  0
 30 33  2  0  0  0  0
 31 29  2  0  0  0  0
 31 30  1  0  0  0  0
 32 28  2  0  0  0  0
 33 28  1  0  0  0  0
 33 15  1  0  0  0  0
 34 35  1  0  0  0  0
 34 29  1  0  0  0  0
 36 34  1  0  0  0  0
 37 39  1  0  0  0  0
 38 37  1  6  0  0  0
 38 21  1  0  0  0  0
 38 40  1  0  0  0  0
 39 41  1  1  0  0  0
 39 43  1  0  0  0  0
 39 40  1  0  0  0  0
 43 47  1  6  0  0  0
 43 45  1  0  0  0  0
 45 42  1  0  0  0  0
 45 44  1  1  0  0  0
 46 45  1  0  0  0  0
 46 42  1  0  0  0  0
 46 51  1  1  0  0  0
 48 53  1  6  0  0  0
 48 43  1  0  0  0  0
 48 46  1  0  0  0  0
 49 50  1  0  0  0  0
 51 49  1  0  0  0  0
 52 51  2  0  0  0  0
 53 55  1  0  0  0  0
 54 53  2  0  0  0  0
M  END
>  <MODEL>
7

>  <REMARK>
 VINA RESULT:      -4.9      3.316      4.762
  Name = 
  6 active torsions:
  status: ('A' for Active; 'I' for Inactive)
    1  A    between atoms: C_1  and  C_53
    2  A    between atoms: C_6  and  C_20
    3  A    between atoms: C_8  and  C_43
    4  A    between atoms: N_10  and  C_32
    5  A    between atoms: C_29  and  C_38
    6  A    between atoms: C_33  and  C_52
                            x       y       z     vdW  Elec       q    Type
                         _______ _______ _______ _____ _____    ______ ____

>  <TORSDO>
F 6

$$$$
=
 OpenBabel11042417563D

 55 62  0  0  1  0  0  0  0  0999 V2000
  194.3930  171.9330  141.3190 C   0  0  0  0  0  3  0  0  0  0  0  0
  193.5060  174.9520  144.7490 C   0  0  0  0  0  2  0  0  0  0  0  0
  194.4880  173.0000  146.9810 O   0  0  0  0  0  1  0  0  0  0  0  0
  196.2070  169.9380  146.8860 C   0  0  0  0  0  3  0  0  0  0  0  0
  197.0110  169.0630  147.6310 C   0  0  0  0  0  3  0  0  0  0  0  0
  197.1230  169.0320  144.8320 C   0  0  0  0  0  0  0  0  0  0  0  0
  197.9220  168.1660  145.5710 C   0  0  0  0  0  3  0  0  0  0  0  0
  194.3020  171.3780  145.3220 N   0  0  0  0  0  2  0  0  0  0  0  0
  197.8690  168.1810  146.9690 C   0  0  0  0  0  3  0  0  0  0  0  0
  193.8730  173.1750  139.2440 C   0  0  0  0  0  3  0  0  0  0  0  0
  196.2550  169.9220  145.4850 C   0  0  0  0  0  0  0  0  0  0  0  0
  193.8710  175.6110  140.5850 C   0  0  0  0  0  0  0  0  0  0  0  0
  195.1060  171.8630  142.4420 C   0  0  0  0  0  3  0  0  0  0  0  0
  194.1420  174.4320  141.2870 C   0  0  0  0  0  3  0  0  0  0  0  0
  196.3880  169.6790  142.6160 C   0  0  0  0  0  0  0  0  0  0  0  0
  192.4270  175.5050  143.8280 C   0  0  0  0  0  2  0  0  0  0  0  0
  197.1640  168.9920  143.4020 N   0  0  0  0  0  0  0  0  0  0  0  0
  193.1770  173.5070  145.0640 C   0  0  0  0  0  2  0  0  0  0  0  0
  194.4130  172.8040  145.5970 C   0  0  1  0  0  3  0  0  0  0  0  0
  193.6250  174.3340  138.5720 N   0  0  0  0  0  0  0  0  0  0  0  0
  192.6690  176.9700  143.4950 C   0  0  1  0  0  3  0  0  0  0  0  0
  194.1520  173.1970  140.6140 C   0  0  0  0  0  0  0  0  0  0  0  0
  195.5440  170.9730  144.6750 C   0  0  1  0  0  3  0  0  0  0  0  0
  195.2870  170.5760  143.2050 C   0  0  1  0  0  3  0  0  0  0  0  0
  192.5090  177.1340  141.9810 C   0  0  0  0  0  2  0  0  0  0  0  0
  193.8500  176.9310  141.2810 C   0  0  0  0  0  2  0  0  0  0  0  0
  193.6170  175.5390  139.2100 C   0  0  0  0  0  3  0  0  0  0  0  0
  195.3660  168.7250  140.5500 C   0  0  0  0  0  3  0  0  0  0  0  0
  196.4910  168.8150  138.3960 C   0  0  0  0  0  0  0  0  0  0  0  0
  197.5440  169.7650  140.3780 C   0  0  0  0  0  3  0  0  0  0  0  0
  197.5630  169.4870  139.0080 C   0  0  0  0  0  3  0  0  0  0  0  0
  195.3890  168.4440  139.1800 C   0  0  0  0  0  3  0  0  0  0  0  0
  196.4560  169.3660  141.1680 C   0  0  0  0  0  0  0  0  0  0  0  0
  196.5210  168.5150  136.9860 N   0  0  0  0  0  0  0  0  0  0  0  0
  195.3170  168.1670  136.2710 C   0  0  0  0  0  1  0  0  0  0  0  0
  197.7750  168.5040  136.2460 C   0  0  0  0  0  1  0  0  0  0  0  0
  190.6490  176.7890  145.4500 S   0  0  0  0  0  0  0  0  0  0  0  0
  191.6240  177.7750  144.2660 C   0  0  2  0  0  3  0  0  0  0  0  0
  189.5620  177.5370  144.1950 C   0  0  2  0  0  0  0  0  0  0  0  0
  190.5670  178.1490  143.4180 O   0  0  0  0  0  0  0  0  0  0  0  0
  188.7420  178.5020  144.7600 F   0  0  0  0  0  0  0  0  0  0  0  0
  187.0620  176.2640  141.4820 O   0  0  0  0  0  0  0  0  0  0  0  0
  188.7610  176.4830  143.3840 C   0  0  1  0  0  0  0  0  0  0  0  0
  188.0560  178.4090  141.8540 O   0  0  0  0  0  1  0  0  0  0  0  0
  188.0100  177.0530  142.1770 C   0  0  1  0  0  0  0  0  0  0  0  0
  186.6840  176.6490  142.7790 C   0  0  2  0  0  0  0  0  0  0  0  0
  189.5660  175.4190  142.9520 O   0  0  0  0  0  1  0  0  0  0  0  0
  187.4150  175.9620  143.9430 C   0  0  2  0  0  3  0  0  0  0  0  0
  186.1100  179.0290  143.4440 N   0  0  0  0  0  2  0  0  0  0  0  0
  185.2390  180.0330  143.6600 O   0  0  0  0  0  1  0  0  0  0  0  0
  185.6900  177.7870  142.8780 C   0  0  0  0  0  0  0  0  0  0  0  0
  184.4930  177.6360  142.5260 O   0  0  0  0  0  0  0  0  0  0  0  0
  186.9410  176.3440  145.3340 C   0  0  0  0  0  0  0  0  0  0  0  0
  187.6680  176.1210  146.3480 O   0  0  0  0  0  1  0  0  0  0  0  0
  185.6090  176.7440  145.5260 O   0  0  0  0  0  0  0  0  0  0  0  0
  1 13  2  0  0  0  0
  2 18  1  0  0  0  0
  4  5  1  0  0  0  0
  6 11  1  0  0  0  0
  6  7  2  0  0  0  0
  7  9  1  0  0  0  0
  8 19  1  0  0  0  0
  9  5  2  0  0  0  0
 10 22  1  0  0  0  0
 11  4  2  0  0  0  0
 12 26  1  0  0  0  0
 12 14  1  0  0  0  0
 15 24  1  0  0  0  0
 15 17  2  0  0  0  0
 16  2  1  0  0  0  0
 17  6  1  0  0  0  0
 18 19  1  0  0  0  0
 19  3  1  1  0  0  0
 20 27  1  0  0  0  0
 20 10  2  0  0  0  0
 21 25  1  6  0  0  0
 21 16  1  0  0  0  0
 21 38  1  0  0  0  0
 22 14  2  0  0  0  0
 22  1  1  0  0  0  0
 23  8  1  1  0  0  0
 23 11  1  0  0  0  0
 24 13  1  6  0  0  0
 24 23  1  0  0  0  0
 26 25  1  0  0  0  0
 27 12  2  0  0  0  0
 28 33  1  0  0  0  0
 29 31  2  0  0  0  0
 29 32  1  0  0  0  0
 30 33  2  0  0  0  0
 31 30  1  0  0  0  0
 32 28  2  0  0  0  0
 33 15  1  0  0  0  0
 34 29  1  0  0  0  0
 35 34  1  0  0  0  0
 36 34  1  0  0  0  0
 38 40  1  6  0  0  0
 38 37  1  0  0  0  0
 39 41  1  1  0  0  0
 39 37  1  0  0  0  0
 40 39  1  0  0  0  0
 42 45  1  0  0  0  0
 42 46  1  0  0  0  0
 43 47  1  6  0  0  0
 43 48  1  0  0  0  0
 43 39  1  0  0  0  0
 45 44  1  6  0  0  0
 45 46  1  0  0  0  0
 45 43  1  0  0  0  0
 46 51  1  1  0  0  0
 46 48  1  0  0  0  0
 48 53  1  1  0  0  0
 49 50  1  0  0  0  0
 51 49  1  0  0  0  0
 52 51  2  0  0  0  0
 53 55  2  0  0  0  0
 53 54  1  0  0  0  0
M  END
>  <MODEL>
8

>  <REMARK>
 VINA RESULT:      -4.6      5.117     10.835
  Name = 
  6 active torsions:
  status: ('A' for Active; 'I' for Inactive)
    1  A    between atoms: C_1  and  C_53
    2  A    between atoms: C_6  and  C_20
    3  A    between atoms: C_8  and  C_43
    4  A    between atoms: N_10  and  C_32
    5  A    between atoms: C_29  and  C_38
    6  A    between atoms: C_33  and  C_52
                            x       y       z     vdW  Elec       q    Type
                         _______ _______ _______ _____ _____    ______ ____

>  <TORSDO>
F 6

$$$$
=
 OpenBabel11042417563D

 55 62  0  0  1  0  0  0  0  0999 V2000
  188.4700  175.0630  143.2390 C   0  0  0  0  0  3  0  0  0  0  0  0
  191.9330  172.2730  141.8650 C   0  0  0  0  0  2  0  0  0  0  0  0
  190.9770  172.2310  138.8910 O   0  0  0  0  0  1  0  0  0  0  0  0
  188.5770  174.0960  137.1300 C   0  0  0  0  0  3  0  0  0  0  0  0
  188.1780  174.5170  135.8540 C   0  0  0  0  0  3  0  0  0  0  0  0
  187.4420  175.9990  138.1130 C   0  0  0  0  0  0  0  0  0  0  0  0
  187.0490  176.4190  136.8460 C   0  0  0  0  0  3  0  0  0  0  0  0
  188.9870  173.0670  139.7610 N   0  0  0  0  0  2  0  0  0  0  0  0
  187.4170  175.6800  135.7160 C   0  0  0  0  0  3  0  0  0  0  0  0
  188.9330  175.5040  145.6290 C   0  0  0  0  0  3  0  0  0  0  0  0
  188.2050  174.8310  138.2650 C   0  0  0  0  0  0  0  0  0  0  0  0
  191.5440  174.5730  145.3960 C   0  0  0  0  0  0  0  0  0  0  0  0
  188.8930  175.1310  141.9770 C   0  0  0  0  0  3  0  0  0  0  0  0
  190.7090  174.5890  144.2720 C   0  0  0  0  0  3  0  0  0  0  0  0
  187.2590  176.3890  140.4970 C   0  0  0  0  0  0  0  0  0  0  0  0
  191.9130  171.7380  143.2900 C   0  0  0  0  0  2  0  0  0  0  0  0
  187.0390  176.7460  139.2660 N   0  0  0  0  0  0  0  0  0  0  0  0
  190.5890  171.9920  141.2240 C   0  0  0  0  0  2  0  0  0  0  0  0
  190.4110  172.8720  140.0000 C   0  0  1  0  0  3  0  0  0  0  0  0
  189.7630  175.4950  146.7090 N   0  0  0  0  0  0  0  0  0  0  0  0
  193.2470  171.9500  143.9900 C   0  0  1  0  0  3  0  0  0  0  0  0
  189.3900  175.0650  144.3820 C   0  0  0  0  0  0  0  0  0  0  0  0
  188.7750  174.5030  139.6190 C   0  0  1  0  0  3  0  0  0  0  0  0
  187.9500  175.0510  140.8050 C   0  0  1  0  0  3  0  0  0  0  0  0
  192.9570  172.5420  145.3710 C   0  0  0  0  0  2  0  0  0  0  0  0
  192.9440  174.0670  145.3030 C   0  0  0  0  0  2  0  0  0  0  0  0
  191.0460  175.0410  146.6170 C   0  0  0  0  0  3  0  0  0  0  0  0
  187.3790  178.1080  142.3000 C   0  0  0  0  0  3  0  0  0  0  0  0
  185.4060  178.8280  143.5280 C   0  0  0  0  0  0  0  0  0  0  0  0
  185.2220  177.1420  141.7780 C   0  0  0  0  0  3  0  0  0  0  0  0
  184.6310  177.9440  142.7580 C   0  0  0  0  0  3  0  0  0  0  0  0
  186.7850  178.9060  143.2840 C   0  0  0  0  0  3  0  0  0  0  0  0
  186.6050  177.1980  141.5550 C   0  0  0  0  0  0  0  0  0  0  0  0
  184.7950  179.6410  144.5500 N   0  0  0  0  0  0  0  0  0  0  0  0
  183.7370  179.1220  145.3840 C   0  0  0  0  0  1  0  0  0  0  0  0
  185.1890  181.0290  144.7420 C   0  0  0  0  0  1  0  0  0  0  0  0
  195.1020  170.4290  145.4670 S   0  0  0  0  0  0  0  0  0  0  0  0
  193.9160  170.5800  144.0890 C   0  0  2  0  0  3  0  0  0  0  0  0
  195.9390  170.1600  143.8720 C   0  0  2  0  0  0  0  0  0  0  0  0
  194.8290  170.4010  143.0360 O   0  0  0  0  0  0  0  0  0  0  0  0
  196.3540  168.8430  143.7460 F   0  0  0  0  0  0  0  0  0  0  0  0
  197.5590  173.4970  142.6600 O   0  0  0  0  0  0  0  0  0  0  0  0
  197.0900  171.1690  143.6160 C   0  0  1  0  0  0  0  0  0  0  0  0
  195.2760  172.8550  142.9730 O   0  0  0  0  0  1  0  0  0  0  0  0
  196.6260  172.5510  143.1480 C   0  0  1  0  0  0  0  0  0  0  0  0
  197.3530  172.3790  141.8350 C   0  0  2  0  0  0  0  0  0  0  0  0
  197.9190  171.3280  144.7370 O   0  0  0  0  0  1  0  0  0  0  0  0
  197.9330  171.0430  142.3250 C   0  0  2  0  0  3  0  0  0  0  0  0
  196.7310  173.7100  139.7660 N   0  0  0  0  0  2  0  0  0  0  0  0
  195.9110  174.0120  138.7400 O   0  0  0  0  0  1  0  0  0  0  0  0
  196.4740  172.5950  140.6210 C   0  0  0  0  0  0  0  0  0  0  0  0
  195.4910  171.8470  140.3900 O   0  0  0  0  0  0  0  0  0  0  0  0
  197.7570  169.8660  141.3820 C   0  0  0  0  0  0  0  0  0  0  0  0
  197.6620  168.6850  141.8350 O   0  0  0  0  0  1  0  0  0  0  0  0
  197.9170  170.0540  140.0000 O   0  0  0  0  0  0  0  0  0  0  0  0
  1 22  1  0  0  0  0
  2 16  1  0  0  0  0
  4 11  1  0  0  0  0
  5  4  2  0  0  0  0
  6 11  2  0  0  0  0
  6 17  1  0  0  0  0
  7  6  1  0  0  0  0
  8 19  1  0  0  0  0
  9  5  1  0  0  0  0
  9  7  2  0  0  0  0
 10 20  1  0  0  0  0
 12 27  1  0  0  0  0
 13  1  2  0  0  0  0
 14 22  1  0  0  0  0
 14 12  2  0  0  0  0
 15 24  1  0  0  0  0
 15 33  1  0  0  0  0
 17 15  2  0  0  0  0
 18  2  1  0  0  0  0
 19  3  1  6  0  0  0
 19 18  1  0  0  0  0
 21 16  1  6  0  0  0
 21 38  1  0  0  0  0
 21 25  1  0  0  0  0
 22 10  2  0  0  0  0
 23 11  1  6  0  0  0
 23  8  1  0  0  0  0
 23 24  1  0  0  0  0
 24 13  1  1  0  0  0
 26 25  1  0  0  0  0
 26 12  1  0  0  0  0
 27 20  2  0  0  0  0
 28 32  1  0  0  0  0
 29 34  1  0  0  0  0
 30 31  2  0  0  0  0
 31 29  1  0  0  0  0
 32 29  2  0  0  0  0
 33 30  1  0  0  0  0
 33 28  2  0  0  0  0
 34 36  1  0  0  0  0
 34 35  1  0  0  0  0
 38 40  1  6  0  0  0
 38 37  1  0  0  0  0
 39 41  1  6  0  0  0
 39 37  1  0  0  0  0
 40 39  1  0  0  0  0
 42 45  1  0  0  0  0
 43 39  1  0  0  0  0
 43 47  1  1  0  0  0
 45 44  1  1  0  0  0
 45 43  1  0  0  0  0
 46 51  1  6  0  0  0
 46 48  1  0  0  0  0
 46 42  1  0  0  0  0
 46 45  1  0  0  0  0
 48 53  1  6  0  0  0
 48 43  1  0  0  0  0
 49 51  1  0  0  0  0
 50 49  1  0  0  0  0
 52 51  2  0  0  0  0
 53 54  1  0  0  0  0
 55 53  2  0  0  0  0
M  END
>  <MODEL>
9

>  <REMARK>
 VINA RESULT:      -4.5      2.954      6.263
  Name = 
  6 active torsions:
  status: ('A' for Active; 'I' for Inactive)
    1  A    between atoms: C_1  and  C_53
    2  A    between atoms: C_6  and  C_20
    3  A    between atoms: C_8  and  C_43
    4  A    between atoms: N_10  and  C_32
    5  A    between atoms: C_29  and  C_38
    6  A    between atoms: C_33  and  C_52
                            x       y       z     vdW  Elec       q    Type
                         _______ _______ _______ _____ _____    ______ ____

>  <TORSDO>
F 6

$$$$
