=
 OpenBabel11042414553D

 55 58  0  0  1  0  0  0  0  0999 V2000
  192.0420  173.9120  139.7410 S   0  0  0  0  0  0  0  0  0  0  0  0
  190.3690  172.1940  138.6840 N   0  0  0  0  0  0  0  0  0  0  0  0
  192.5970  172.1990  139.4680 C   0  0  1  0  0  3  0  0  0  0  0  0
  190.4200  173.3440  139.2710 C   0  0  0  0  0  0  0  0  0  0  0  0
  191.6570  171.5840  138.4220 C   0  0  2  0  0  3  0  0  0  0  0  0
  192.0100  171.8380  136.9710 C   0  0  0  0  0  0  0  0  0  0  0  0
  192.7060  171.0120  136.3160 O   0  0  0  0  0  0  0  0  0  0  0  0
  191.6080  173.1170  136.3380 C   0  0  0  0  0  0  0  0  0  0  0  0
  190.5080  173.1950  135.7380 O   0  0  0  0  0  0  0  0  0  0  0  0
  192.4620  174.3510  136.4100 C   0  0  1  0  0  3  0  0  0  0  0  0
  193.7910  174.1470  135.6980 C   0  0  0  0  0  1  0  0  0  0  0  0
  191.7130  175.5580  135.8690 C   0  0  0  0  0  2  0  0  0  0  0  0
  192.5420  176.6810  135.8950 O   0  0  0  0  0  1  0  0  0  0  0  0
  188.5190  173.9940  140.6330 N   0  0  0  0  0  0  0  0  0  0  0  0
  189.2470  174.1100  139.5850 N   0  0  0  0  0  0  0  0  0  0  0  0
  187.5580  172.3900  142.0330 O   0  0  0  0  0  1  0  0  0  0  0  0
  188.7470  173.0430  141.7190 C   0  0  2  0  0  3  0  0  0  0  0  0
  189.3180  173.7470  142.9650 C   0  0  2  0  0  3  0  0  0  0  0  0
  189.7770  175.1990  142.6810 C   0  0  2  0  0  3  0  0  0  0  0  0
  191.2310  175.4840  142.9690 C   0  0  0  0  0  2  0  0  0  0  0  0
  188.9870  176.2320  143.3680 N   0  0  0  0  0  0  0  0  0  0  0  0
  191.2720  176.9910  143.0740 C   0  0  0  0  0  2  0  0  0  0  0  0
  189.8360  177.4200  143.3500 C   0  0  0  0  0  2  0  0  0  0  0  0
  188.8030  175.8920  144.7800 C   0  0  0  0  0  2  0  0  0  0  0  0
  188.2670  177.0990  145.5240 C   0  0  0  0  0  2  0  0  0  0  0  0
  186.9260  176.7650  146.1310 C   0  0  0  0  0  2  0  0  0  0  0  0
  185.7400  177.4710  144.0860 N   0  0  0  0  0  0  0  0  0  0  0  0
  185.8480  177.5310  145.4420 C   0  0  0  0  0  0  0  0  0  0  0  0
  184.9990  178.3530  147.5690 O   0  0  0  0  0  1  0  0  0  0  0  0
  184.9230  178.2830  146.1830 C   0  0  0  0  0  0  0  0  0  0  0  0
  183.9110  178.9730  145.5100 C   0  0  0  0  0  3  0  0  0  0  0  0
  184.7540  178.1320  143.4180 C   0  0  0  0  0  3  0  0  0  0  0  0
  183.8210  178.8980  144.1190 C   0  0  0  0  0  3  0  0  0  0  0  0
  190.3900  172.9000  143.6720 C   0  0  1  0  0  3  0  0  0  0  0  0
  189.8450  172.3000  144.9600 C   0  0  0  0  0  1  0  0  0  0  0  0
  192.2560  171.8540  143.0780 C   0  0  0  0  0  1  0  0  0  0  0  0
  190.8820  171.8860  142.8400 O   0  0  0  0  0  0  0  0  0  0  0  0
  194.0050  172.1390  139.1010 N   0  0  0  0  0  2  0  0  0  0  0  0
  194.5170  173.4360  139.2280 N   0  0  0  0  0  2  0  0  0  0  0  0
  195.9690  173.3210  139.3090 C   0  0  2  0  0  3  0  0  0  0  0  0
  196.5110  173.9290  140.6030 C   0  0  1  0  0  3  0  0  0  0  0  0
  196.5950  174.7020  139.3050 C   0  0  0  0  0  2  0  0  0  0  0  0
  195.4920  174.4670  141.3990 O   0  0  0  0  0  0  0  0  0  0  0  0
  196.0230  174.5060  142.6920 C   0  0  1  0  0  3  0  0  0  0  0  0
  197.0120  173.3640  142.8930 C   0  0  0  0  0  2  0  0  0  0  0  0
  196.6040  172.2460  144.9640 O   0  0  0  0  0  1  0  0  0  0  0  0
  195.6400  171.2910  143.1090 O   0  0  0  0  0  0  0  0  0  0  0  0
  196.4010  172.2830  143.7180 C   0  0  0  0  0  0  0  0  0  0  0  0
  196.7040  175.8440  142.9350 C   0  0  0  0  0  2  0  0  0  0  0  0
  195.9530  176.6270  143.8150 O   0  0  0  0  0  0  0  0  0  0  0  0
  195.1680  175.7140  144.5190 C   0  0  0  0  0  2  0  0  0  0  0  0
  194.1160  176.4550  145.3330 C   0  0  0  0  0  2  0  0  0  0  0  0
  193.3530  174.1260  145.7880 C   0  0  0  0  0  1  0  0  0  0  0  0
  193.4640  175.5310  146.3490 C   0  0  0  0  0  3  0  0  0  0  0  0
  192.0850  176.0470  146.6870 C   0  0  0  0  0  1  0  0  0  0  0  0
  2  4  2  0  0  0  0
  3 38  1  6  0  0  0
  3  1  1  0  0  0  0
  4 15  1  0  0  0  0
  4  1  1  0  0  0  0
  5  6  1  6  0  0  0
  5  2  1  0  0  0  0
  5  3  1  0  0  0  0
  7  6  2  0  0  0  0
  8 10  1  0  0  0  0
  8  6  1  0  0  0  0
  9  8  2  0  0  0  0
 10 11  1  6  0  0  0
 12 13  1  0  0  0  0
 12 10  1  0  0  0  0
 14 17  1  0  0  0  0
 15 14  2  0  0  0  0
 17 16  1  1  0  0  0
 18 17  1  6  0  0  0
 18 34  1  0  0  0  0
 19 18  1  1  0  0  0
 19 20  1  0  0  0  0
 19 21  1  0  0  0  0
 20 22  1  0  0  0  0
 21 24  1  0  0  0  0
 22 23  1  0  0  0  0
 23 21  1  0  0  0  0
 24 25  1  0  0  0  0
 25 26  1  0  0  0  0
 27 28  1  0  0  0  0
 28 26  1  0  0  0  0
 28 30  2  0  0  0  0
 30 29  1  0  0  0  0
 31 30  1  0  0  0  0
 32 27  2  0  0  0  0
 32 33  1  0  0  0  0
 33 31  2  0  0  0  0
 34 35  1  1  0  0  0
 37 36  1  0  0  0  0
 37 34  1  0  0  0  0
 38 39  1  0  0  0  0
 40 39  1  1  0  0  0
 40 41  1  0  0  0  0
 41 43  1  1  0  0  0
 42 40  1  0  0  0  0
 42 41  1  0  0  0  0
 43 44  1  0  0  0  0
 44 45  1  6  0  0  0
 44 49  1  0  0  0  0
 45 48  1  0  0  0  0
 47 48  2  0  0  0  0
 48 46  1  0  0  0  0
 49 50  1  0  0  0  0
 50 51  1  0  0  0  0
 51 52  1  0  0  0  0
 52 54  1  0  0  0  0
 53 54  1  0  0  0  0
 54 55  1  0  0  0  0
M  END
>  <MODEL>
1

>  <REMARK>
 VINA RESULT:      -5.2      0.000      0.000
  Name = 
  26 active torsions:
  status: ('A' for Active; 'I' for Inactive)
    1  A    between atoms: C_4  and  C_54
    2  A    between atoms: C_5  and  O_26
    3  A    between atoms: C_5  and  C_44
    4  A    between atoms: C_7  and  C_20
    5  A    between atoms: C_8  and  C_15
    6  A    between atoms: C_8  and  C_50
    7  A    between atoms: O_9  and  C_32
    8  A    between atoms: O_9  and  C_49
    9  A    between atoms: C_11  and  O_45
   10  A    between atoms: C_11  and  C_54
   11  A    between atoms: C_12  and  C_18
   12  A    between atoms: C_12  and  C_41
   13  A    between atoms: N_14  and  C_33
   14  A    between atoms: C_15  and  C_20
   15  A    between atoms: C_16  and  C_44
   16  A    between atoms: C_18  and  C_19
   17  A    between atoms: C_24  and  N_25
   18  A    between atoms: N_25  and  N_31
   19  A    between atoms: O_26  and  C_47
   20  A    between atoms: N_31  and  C_36
   21  A    between atoms: C_32  and  C_47
   22  A    between atoms: C_32  and  C_52
   23  A    between atoms: C_33  and  C_54
   24  A    between atoms: N_39  and  C_41
   25  A    between atoms: C_40  and  N_53
   26  A    between atoms: C_48  and  C_52
                            x       y       z     vdW  Elec       q    Type
                         _______ _______ _______ _____ _____    ______ ____

>  <TORSDO>
F 26

$$$$
=
 OpenBabel11042414553D

 55 58  0  0  1  0  0  0  0  0999 V2000
  189.2330  173.6770  142.4920 S   0  0  0  0  0  0  0  0  0  0  0  0
  188.1530  175.1390  140.6040 N   0  0  0  0  0  0  0  0  0  0  0  0
  189.4610  175.4830  142.5400 C   0  0  1  0  0  3  0  0  0  0  0  0
  188.4890  173.9250  140.8920 C   0  0  0  0  0  0  0  0  0  0  0  0
  188.3560  176.0980  141.6690 C   0  0  2  0  0  3  0  0  0  0  0  0
  187.0230  176.3360  142.3470 C   0  0  0  0  0  0  0  0  0  0  0  0
  186.4470  175.4160  142.9920 O   0  0  0  0  0  0  0  0  0  0  0  0
  186.3430  177.6420  142.1740 C   0  0  0  0  0  0  0  0  0  0  0  0
  187.0210  178.6990  142.1590 O   0  0  0  0  0  0  0  0  0  0  0  0
  184.8580  177.7550  141.9840 C   0  0  1  0  0  3  0  0  0  0  0  0
  184.2050  178.4980  143.1400 C   0  0  0  0  0  1  0  0  0  0  0  0
  184.5310  178.3990  140.6460 C   0  0  0  0  0  2  0  0  0  0  0  0
  183.2520  178.0190  140.2360 O   0  0  0  0  0  1  0  0  0  0  0  0
  189.2380  172.3440  139.2100 N   0  0  0  0  0  0  0  0  0  0  0  0
  188.3320  172.8340  139.9710 N   0  0  0  0  0  0  0  0  0  0  0  0
  190.7270  173.8160  138.1720 O   0  0  0  0  0  1  0  0  0  0  0  0
  190.6210  172.8120  139.1320 C   0  0  2  0  0  3  0  0  0  0  0  0
  191.5840  171.6540  138.8050 C   0  0  2  0  0  3  0  0  0  0  0  0
  191.0540  170.7270  137.6820 C   0  0  2  0  0  3  0  0  0  0  0  0
  191.1210  169.2490  137.9820 C   0  0  0  0  0  2  0  0  0  0  0  0
  191.6890  170.9350  136.3720 N   0  0  0  0  0  0  0  0  0  0  0  0
  191.0170  168.6170  136.6130 C   0  0  0  0  0  2  0  0  0  0  0  0
  191.4080  169.7110  135.6270 C   0  0  0  0  0  2  0  0  0  0  0  0
  193.1450  170.9980  136.5050 C   0  0  0  0  0  2  0  0  0  0  0  0
  193.6430  172.3270  135.9700 C   0  0  0  0  0  2  0  0  0  0  0  0
  195.0730  172.5440  136.4040 C   0  0  0  0  0  2  0  0  0  0  0  0
  194.0910  174.1440  138.0050 N   0  0  0  0  0  0  0  0  0  0  0  0
  195.1080  173.2940  137.6910 C   0  0  0  0  0  0  0  0  0  0  0  0
  197.2090  172.2350  138.3120 O   0  0  0  0  0  1  0  0  0  0  0  0
  196.1640  173.1050  138.5980 C   0  0  0  0  0  0  0  0  0  0  0  0
  196.1580  173.8070  139.8060 C   0  0  0  0  0  3  0  0  0  0  0  0
  194.0690  174.8270  139.1820 C   0  0  0  0  0  3  0  0  0  0  0  0
  195.1050  174.6730  140.1050 C   0  0  0  0  0  3  0  0  0  0  0  0
  192.0230  170.8890  140.0660 C   0  0  1  0  0  3  0  0  0  0  0  0
  193.4960  171.1340  140.3620 C   0  0  0  0  0  1  0  0  0  0  0  0
  190.7530  170.0220  141.6660 C   0  0  0  0  0  1  0  0  0  0  0  0
  191.2450  171.2320  141.1780 O   0  0  0  0  0  0  0  0  0  0  0  0
  189.4850  175.9880  143.9050 N   0  0  0  0  0  2  0  0  0  0  0  0
  190.6830  176.6970  144.0600 N   0  0  0  0  0  2  0  0  0  0  0  0
  191.2200  176.3560  145.3720 C   0  0  2  0  0  3  0  0  0  0  0  0
  192.4580  175.4660  145.2610 C   0  0  1  0  0  3  0  0  0  0  0  0
  191.1130  174.8610  145.5990 C   0  0  0  0  0  2  0  0  0  0  0  0
  192.7770  175.1730  143.9290 O   0  0  0  0  0  0  0  0  0  0  0  0
  194.1220  174.7910  143.9530 C   0  0  1  0  0  3  0  0  0  0  0  0
  194.7370  175.1030  145.3130 C   0  0  0  0  0  2  0  0  0  0  0  0
  197.0140  175.0150  144.5960 O   0  0  0  0  0  0  0  0  0  0  0  0
  196.4510  173.5820  146.3020 O   0  0  0  0  0  1  0  0  0  0  0  0
  196.1310  174.5790  145.3870 C   0  0  0  0  0  0  0  0  0  0  0  0
  194.2470  173.3070  143.6460 C   0  0  0  0  0  2  0  0  0  0  0  0
  192.9870  172.7370  143.4450 O   0  0  0  0  0  0  0  0  0  0  0  0
  192.9930  171.5810  144.2270 C   0  0  0  0  0  2  0  0  0  0  0  0
  194.4160  171.0530  144.3590 C   0  0  0  0  0  2  0  0  0  0  0  0
  195.0610  168.9890  143.1190 C   0  0  0  0  0  1  0  0  0  0  0  0
  194.4310  169.5330  144.3870 C   0  0  0  0  0  3  0  0  0  0  0  0
  193.0150  169.0180  144.5060 C   0  0  0  0  0  1  0  0  0  0  0  0
  1  3  1  0  0  0  0
  2  4  2  0  0  0  0
  2  5  1  0  0  0  0
  3 38  1  1  0  0  0
  4  1  1  0  0  0  0
  5  6  1  1  0  0  0
  5  3  1  0  0  0  0
  6  7  2  0  0  0  0
  8  6  1  0  0  0  0
  9  8  2  0  0  0  0
 10  8  1  0  0  0  0
 10 11  1  1  0  0  0
 12 10  1  0  0  0  0
 13 12  1  0  0  0  0
 14 15  2  0  0  0  0
 15  4  1  0  0  0  0
 17 16  1  6  0  0  0
 17 14  1  0  0  0  0
 18 17  1  1  0  0  0
 18 34  1  0  0  0  0
 19 20  1  0  0  0  0
 19 18  1  1  0  0  0
 21 24  1  0  0  0  0
 21 19  1  0  0  0  0
 22 20  1  0  0  0  0
 23 21  1  0  0  0  0
 23 22  1  0  0  0  0
 25 26  1  0  0  0  0
 25 24  1  0  0  0  0
 26 28  1  0  0  0  0
 27 32  1  0  0  0  0
 28 27  2  0  0  0  0
 28 30  1  0  0  0  0
 29 30  1  0  0  0  0
 30 31  2  0  0  0  0
 31 33  1  0  0  0  0
 32 33  2  0  0  0  0
 34 35  1  1  0  0  0
 34 37  1  0  0  0  0
 37 36  1  0  0  0  0
 38 39  1  0  0  0  0
 40 39  1  6  0  0  0
 40 42  1  0  0  0  0
 41 43  1  6  0  0  0
 41 40  1  0  0  0  0
 41 42  1  0  0  0  0
 43 44  1  0  0  0  0
 44 49  1  1  0  0  0
 44 45  1  0  0  0  0
 45 48  1  0  0  0  0
 46 48  2  0  0  0  0
 48 47  1  0  0  0  0
 50 49  1  0  0  0  0
 50 51  1  0  0  0  0
 51 52  1  0  0  0  0
 52 54  1  0  0  0  0
 53 54  1  0  0  0  0
 54 55  1  0  0  0  0
M  END
>  <MODEL>
2

>  <REMARK>
 VINA RESULT:      -4.8      2.493      8.239
  Name = 
  26 active torsions:
  status: ('A' for Active; 'I' for Inactive)
    1  A    between atoms: C_4  and  C_54
    2  A    between atoms: C_5  and  O_26
    3  A    between atoms: C_5  and  C_44
    4  A    between atoms: C_7  and  C_20
    5  A    between atoms: C_8  and  C_15
    6  A    between atoms: C_8  and  C_50
    7  A    between atoms: O_9  and  C_32
    8  A    between atoms: O_9  and  C_49
    9  A    between atoms: C_11  and  O_45
   10  A    between atoms: C_11  and  C_54
   11  A    between atoms: C_12  and  C_18
   12  A    between atoms: C_12  and  C_41
   13  A    between atoms: N_14  and  C_33
   14  A    between atoms: C_15  and  C_20
   15  A    between atoms: C_16  and  C_44
   16  A    between atoms: C_18  and  C_19
   17  A    between atoms: C_24  and  N_25
   18  A    between atoms: N_25  and  N_31
   19  A    between atoms: O_26  and  C_47
   20  A    between atoms: N_31  and  C_36
   21  A    between atoms: C_32  and  C_47
   22  A    between atoms: C_32  and  C_52
   23  A    between atoms: C_33  and  C_54
   24  A    between atoms: N_39  and  C_41
   25  A    between atoms: C_40  and  N_53
   26  A    between atoms: C_48  and  C_52
                            x       y       z     vdW  Elec       q    Type
                         _______ _______ _______ _____ _____    ______ ____

>  <TORSDO>
F 26

$$$$
=
 OpenBabel11042414553D

 55 58  0  0  1  0  0  0  0  0999 V2000
  190.4640  173.8470  144.5260 S   0  0  0  0  0  0  0  0  0  0  0  0
  188.6030  175.1010  143.1720 N   0  0  0  0  0  0  0  0  0  0  0  0
  190.4860  175.6680  144.4810 C   0  0  1  0  0  3  0  0  0  0  0  0
  189.1590  173.9440  143.3170 C   0  0  0  0  0  0  0  0  0  0  0  0
  189.0750  176.1230  144.0840 C   0  0  2  0  0  3  0  0  0  0  0  0
  188.0680  176.2490  145.2090 C   0  0  0  0  0  0  0  0  0  0  0  0
  188.2400  175.6470  146.3060 O   0  0  0  0  0  0  0  0  0  0  0  0
  186.8200  177.0170  144.9850 C   0  0  0  0  0  0  0  0  0  0  0  0
  185.7170  176.5190  145.3200 O   0  0  0  0  0  0  0  0  0  0  0  0
  186.8220  178.3960  144.3910 C   0  0  1  0  0  3  0  0  0  0  0  0
  186.4930  178.3600  142.9060 C   0  0  0  0  0  1  0  0  0  0  0  0
  185.8800  179.3140  145.1540 C   0  0  0  0  0  2  0  0  0  0  0  0
  184.7980  179.6630  144.3430 O   0  0  0  0  0  1  0  0  0  0  0  0
  189.4980  172.2760  141.5870 N   0  0  0  0  0  0  0  0  0  0  0  0
  188.7990  172.8030  142.5220 N   0  0  0  0  0  0  0  0  0  0  0  0
  190.6780  173.9660  140.4870 O   0  0  0  0  0  1  0  0  0  0  0  0
  190.8090  172.7440  141.1440 C   0  0  2  0  0  3  0  0  0  0  0  0
  191.4900  171.7120  140.2250 C   0  0  2  0  0  3  0  0  0  0  0  0
  190.5010  171.0340  139.2420 C   0  0  2  0  0  3  0  0  0  0  0  0
  190.6500  169.5380  139.1070 C   0  0  0  0  0  2  0  0  0  0  0  0
  190.5150  171.5970  137.8830 N   0  0  0  0  0  0  0  0  0  0  0  0
  189.9480  169.2410  137.8020 C   0  0  0  0  0  2  0  0  0  0  0  0
  189.9050  170.5650  137.0500 C   0  0  0  0  0  2  0  0  0  0  0  0
  191.8860  171.7490  137.3970 C   0  0  0  0  0  2  0  0  0  0  0  0
  192.1910  173.2210  137.1950 C   0  0  0  0  0  2  0  0  0  0  0  0
  193.6390  173.3890  136.8060 C   0  0  0  0  0  2  0  0  0  0  0  0
  193.8380  174.1580  139.1420 N   0  0  0  0  0  0  0  0  0  0  0  0
  194.3850  174.0790  137.8970 C   0  0  0  0  0  0  0  0  0  0  0  0
  196.2500  174.5400  136.4050 O   0  0  0  0  0  1  0  0  0  0  0  0
  195.6610  174.6160  137.6600 C   0  0  0  0  0  0  0  0  0  0  0  0
  196.3430  175.2380  138.7090 C   0  0  0  0  0  3  0  0  0  0  0  0
  194.4960  174.7530  140.1750 C   0  0  0  0  0  3  0  0  0  0  0  0
  195.7620  175.3080  139.9760 C   0  0  0  0  0  3  0  0  0  0  0  0
  192.3450  170.7050  141.0140 C   0  0  1  0  0  3  0  0  0  0  0  0
  193.8090  170.8020  140.6080 C   0  0  0  0  0  1  0  0  0  0  0  0
  192.2300  169.6000  142.9360 C   0  0  0  0  0  1  0  0  0  0  0  0
  192.2160  170.8860  142.3970 O   0  0  0  0  0  0  0  0  0  0  0  0
  190.9540  176.2320  145.7390 N   0  0  0  0  0  2  0  0  0  0  0  0
  192.2180  175.6850  145.9890 N   0  0  0  0  0  2  0  0  0  0  0  0
  193.2080  176.6730  145.5750 C   0  0  2  0  0  3  0  0  0  0  0  0
  194.5430  176.0190  145.2190 C   0  0  1  0  0  3  0  0  0  0  0  0
  194.3590  176.6930  146.5610 C   0  0  0  0  0  2  0  0  0  0  0  0
  194.5090  174.6290  145.3890 O   0  0  0  0  0  0  0  0  0  0  0  0
  195.3820  174.1230  144.4200 C   0  0  1  0  0  3  0  0  0  0  0  0
  196.7860  174.6790  144.6300 C   0  0  0  0  0  2  0  0  0  0  0  0
  197.4670  176.2670  142.9800 O   0  0  0  0  0  1  0  0  0  0  0  0
  197.8630  174.0620  142.4640 O   0  0  0  0  0  0  0  0  0  0  0  0
  197.4000  175.0530  143.3230 C   0  0  0  0  0  0  0  0  0  0  0  0
  195.4020  172.6030  144.4800 C   0  0  0  0  0  2  0  0  0  0  0  0
  194.9870  172.1550  145.7360 O   0  0  0  0  0  0  0  0  0  0  0  0
  194.4480  170.8890  145.5000 C   0  0  0  0  0  2  0  0  0  0  0  0
  195.0770  169.8740  146.4450 C   0  0  0  0  0  2  0  0  0  0  0  0
  197.4800  169.6810  145.8080 C   0  0  0  0  0  1  0  0  0  0  0  0
  196.1130  169.0280  145.7220 C   0  0  0  0  0  3  0  0  0  0  0  0
  195.7170  168.8790  144.2710 C   0  0  0  0  0  1  0  0  0  0  0  0
  2  4  2  0  0  0  0
  2  5  1  0  0  0  0
  3  1  1  0  0  0  0
  3 38  1  1  0  0  0
  4  1  1  0  0  0  0
  5  3  1  0  0  0  0
  5  6  1  1  0  0  0
  6  7  2  0  0  0  0
  8  6  1  0  0  0  0
  8  9  2  0  0  0  0
 10 11  1  6  0  0  0
 10  8  1  0  0  0  0
 10 12  1  0  0  0  0
 13 12  1  0  0  0  0
 14 15  2  0  0  0  0
 15  4  1  0  0  0  0
 17 16  1  6  0  0  0
 17 14  1  0  0  0  0
 18 34  1  1  0  0  0
 18 17  1  0  0  0  0
 19 18  1  1  0  0  0
 20 19  1  0  0  0  0
 21 19  1  0  0  0  0
 22 20  1  0  0  0  0
 23 22  1  0  0  0  0
 23 21  1  0  0  0  0
 24 21  1  0  0  0  0
 25 24  1  0  0  0  0
 26 25  1  0  0  0  0
 26 28  1  0  0  0  0
 27 32  1  0  0  0  0
 28 27  2  0  0  0  0
 29 30  1  0  0  0  0
 30 28  1  0  0  0  0
 30 31  2  0  0  0  0
 31 33  1  0  0  0  0
 33 32  2  0  0  0  0
 34 35  1  6  0  0  0
 34 37  1  0  0  0  0
 37 36  1  0  0  0  0
 38 39  1  0  0  0  0
 40 39  1  1  0  0  0
 40 42  1  0  0  0  0
 41 43  1  1  0  0  0
 41 40  1  0  0  0  0
 41 42  1  0  0  0  0
 44 49  1  1  0  0  0
 44 45  1  0  0  0  0
 44 43  1  0  0  0  0
 46 48  1  0  0  0  0
 47 48  2  0  0  0  0
 48 45  1  0  0  0  0
 49 50  1  0  0  0  0
 51 50  1  0  0  0  0
 51 52  1  0  0  0  0
 54 53  1  0  0  0  0
 54 52  1  0  0  0  0
 55 54  1  0  0  0  0
M  END
>  <MODEL>
3

>  <REMARK>
 VINA RESULT:      -4.7      2.383      8.245
  Name = 
  26 active torsions:
  status: ('A' for Active; 'I' for Inactive)
    1  A    between atoms: C_4  and  C_54
    2  A    between atoms: C_5  and  O_26
    3  A    between atoms: C_5  and  C_44
    4  A    between atoms: C_7  and  C_20
    5  A    between atoms: C_8  and  C_15
    6  A    between atoms: C_8  and  C_50
    7  A    between atoms: O_9  and  C_32
    8  A    between atoms: O_9  and  C_49
    9  A    between atoms: C_11  and  O_45
   10  A    between atoms: C_11  and  C_54
   11  A    between atoms: C_12  and  C_18
   12  A    between atoms: C_12  and  C_41
   13  A    between atoms: N_14  and  C_33
   14  A    between atoms: C_15  and  C_20
   15  A    between atoms: C_16  and  C_44
   16  A    between atoms: C_18  and  C_19
   17  A    between atoms: C_24  and  N_25
   18  A    between atoms: N_25  and  N_31
   19  A    between atoms: O_26  and  C_47
   20  A    between atoms: N_31  and  C_36
   21  A    between atoms: C_32  and  C_47
   22  A    between atoms: C_32  and  C_52
   23  A    between atoms: C_33  and  C_54
   24  A    between atoms: N_39  and  C_41
   25  A    between atoms: C_40  and  N_53
   26  A    between atoms: C_48  and  C_52
                            x       y       z     vdW  Elec       q    Type
                         _______ _______ _______ _____ _____    ______ ____

>  <TORSDO>
F 26

$$$$
=
 OpenBabel11042414553D

 55 58  0  0  1  0  0  0  0  0999 V2000
  191.6840  177.2460  144.6970 S   0  0  0  0  0  0  0  0  0  0  0  0
  190.6240  175.5560  146.3960 N   0  0  0  0  0  0  0  0  0  0  0  0
  190.0260  176.5770  144.3520 C   0  0  1  0  0  3  0  0  0  0  0  0
  191.7500  176.0870  146.0480 C   0  0  0  0  0  0  0  0  0  0  0  0
  189.4670  176.0570  145.6830 C   0  0  2  0  0  3  0  0  0  0  0  0
  188.7770  177.0760  146.5660 C   0  0  0  0  0  0  0  0  0  0  0  0
  189.4440  177.9020  147.2510 O   0  0  0  0  0  0  0  0  0  0  0  0
  187.3010  177.0430  146.6980 C   0  0  0  0  0  0  0  0  0  0  0  0
  186.7710  176.2980  147.5590 O   0  0  0  0  0  0  0  0  0  0  0  0
  186.4000  177.8960  145.8530 C   0  0  1  0  0  3  0  0  0  0  0  0
  185.6530  177.0620  144.8220 C   0  0  0  0  0  1  0  0  0  0  0  0
  185.4470  178.7020  146.7210 C   0  0  0  0  0  2  0  0  0  0  0  0
  184.3480  179.1120  145.9650 O   0  0  0  0  0  1  0  0  0  0  0  0
  193.8360  174.8620  146.2430 N   0  0  0  0  0  0  0  0  0  0  0  0
  192.9990  175.7360  146.6630 N   0  0  0  0  0  0  0  0  0  0  0  0
  193.5050  172.7080  145.4010 O   0  0  0  0  0  1  0  0  0  0  0  0
  193.6730  174.0440  145.0440 C   0  0  2  0  0  3  0  0  0  0  0  0
  194.8790  174.1970  144.0960 C   0  0  2  0  0  3  0  0  0  0  0  0
  195.2440  172.8800  143.3660 C   0  0  2  0  0  3  0  0  0  0  0  0
  196.7210  172.6410  143.1670 C   0  0  0  0  0  2  0  0  0  0  0  0
  194.5950  172.7110  142.0570 N   0  0  0  0  0  0  0  0  0  0  0  0
  196.7550  171.6080  142.0640 C   0  0  0  0  0  2  0  0  0  0  0  0
  195.4000  171.7030  141.3730 C   0  0  0  0  0  2  0  0  0  0  0  0
  194.7130  173.9300  141.2570 C   0  0  0  0  0  2  0  0  0  0  0  0
  194.6820  173.5720  139.7840 C   0  0  0  0  0  2  0  0  0  0  0  0
  193.6000  174.3650  139.0930 C   0  0  0  0  0  2  0  0  0  0  0  0
  193.1020  172.2920  137.8510 N   0  0  0  0  0  0  0  0  0  0  0  0
  193.1510  173.6530  137.8620 C   0  0  0  0  0  0  0  0  0  0  0  0
  192.7700  175.7640  136.7140 O   0  0  0  0  0  1  0  0  0  0  0  0
  192.7440  174.3750  136.7290 C   0  0  0  0  0  0  0  0  0  0  0  0
  192.3090  173.6790  135.5980 C   0  0  0  0  0  3  0  0  0  0  0  0
  192.6710  171.6020  136.7590 C   0  0  0  0  0  3  0  0  0  0  0  0
  192.2690  172.2840  135.6090 C   0  0  0  0  0  3  0  0  0  0  0  0
  196.0830  174.8600  144.7880 C   0  0  1  0  0  3  0  0  0  0  0  0
  196.8050  173.8680  145.6880 C   0  0  0  0  0  1  0  0  0  0  0  0
  196.4210  176.6330  143.4950 C   0  0  0  0  0  1  0  0  0  0  0  0
  196.9770  175.4070  143.8580 O   0  0  0  0  0  0  0  0  0  0  0  0
  189.1720  177.5600  143.6990 N   0  0  0  0  0  2  0  0  0  0  0  0
  189.0850  177.1970  142.3500 N   0  0  0  0  0  2  0  0  0  0  0  0
  187.8420  176.4540  142.1810 C   0  0  2  0  0  3  0  0  0  0  0  0
  188.0970  175.0420  141.6530 C   0  0  1  0  0  3  0  0  0  0  0  0
  187.6310  176.1330  140.7140 C   0  0  0  0  0  2  0  0  0  0  0  0
  189.4600  174.7980  141.4410 O   0  0  0  0  0  0  0  0  0  0  0  0
  189.5260  173.4780  140.9820 C   0  0  1  0  0  3  0  0  0  0  0  0
  190.0020  173.4440  139.5350 C   0  0  0  0  0  2  0  0  0  0  0  0
  187.8430  172.5010  139.1420 O   0  0  0  0  0  1  0  0  0  0  0  0
  189.1920  172.7050  137.2920 O   0  0  0  0  0  0  0  0  0  0  0  0
  188.9470  172.8710  138.6510 C   0  0  0  0  0  0  0  0  0  0  0  0
  190.4610  172.6670  141.8650 C   0  0  0  0  0  2  0  0  0  0  0  0
  190.1060  171.3150  141.8480 O   0  0  0  0  0  0  0  0  0  0  0  0
  191.3210  170.6300  141.8900 C   0  0  0  0  0  2  0  0  0  0  0  0
  191.8750  170.4730  140.4800 C   0  0  0  0  0  2  0  0  0  0  0  0
  192.5710  168.4290  139.2340 C   0  0  0  0  0  1  0  0  0  0  0  0
  191.4020  169.1710  139.8530 C   0  0  0  0  0  3  0  0  0  0  0  0
  190.3750  169.4710  138.7840 C   0  0  0  0  0  1  0  0  0  0  0  0
  1  4  1  0  0  0  0
  3 38  1  1  0  0  0
  3  1  1  0  0  0  0
  3  5  1  0  0  0  0
  4  2  2  0  0  0  0
  4 15  1  0  0  0  0
  5  2  1  0  0  0  0
  5  6  1  1  0  0  0
  6  8  1  0  0  0  0
  6  7  2  0  0  0  0
  8  9  2  0  0  0  0
 10 11  1  6  0  0  0
 10  8  1  0  0  0  0
 10 12  1  0  0  0  0
 13 12  1  0  0  0  0
 14 15  2  0  0  0  0
 17 16  1  1  0  0  0
 17 14  1  0  0  0  0
 18 34  1  1  0  0  0
 18 17  1  0  0  0  0
 19 18  1  6  0  0  0
 20 19  1  0  0  0  0
 21 19  1  0  0  0  0
 22 20  1  0  0  0  0
 23 21  1  0  0  0  0
 23 22  1  0  0  0  0
 24 21  1  0  0  0  0
 25 24  1  0  0  0  0
 26 25  1  0  0  0  0
 27 28  1  0  0  0  0
 28 26  1  0  0  0  0
 29 30  1  0  0  0  0
 30 28  2  0  0  0  0
 31 33  2  0  0  0  0
 31 30  1  0  0  0  0
 32 27  2  0  0  0  0
 33 32  1  0  0  0  0
 34 35  1  6  0  0  0
 36 37  1  0  0  0  0
 37 34  1  0  0  0  0
 39 38  1  0  0  0  0
 40 39  1  6  0  0  0
 41 43  1  6  0  0  0
 41 40  1  0  0  0  0
 42 41  1  0  0  0  0
 42 40  1  0  0  0  0
 44 45  1  6  0  0  0
 44 43  1  0  0  0  0
 44 49  1  0  0  0  0
 47 48  2  0  0  0  0
 48 46  1  0  0  0  0
 48 45  1  0  0  0  0
 50 49  1  0  0  0  0
 50 51  1  0  0  0  0
 52 51  1  0  0  0  0
 53 54  1  0  0  0  0
 54 52  1  0  0  0  0
 55 54  1  0  0  0  0
M  END
>  <MODEL>
4

>  <REMARK>
 VINA RESULT:      -4.6      2.351      9.399
  Name = 
  26 active torsions:
  status: ('A' for Active; 'I' for Inactive)
    1  A    between atoms: C_4  and  C_54
    2  A    between atoms: C_5  and  O_26
    3  A    between atoms: C_5  and  C_44
    4  A    between atoms: C_7  and  C_20
    5  A    between atoms: C_8  and  C_15
    6  A    between atoms: C_8  and  C_50
    7  A    between atoms: O_9  and  C_32
    8  A    between atoms: O_9  and  C_49
    9  A    between atoms: C_11  and  O_45
   10  A    between atoms: C_11  and  C_54
   11  A    between atoms: C_12  and  C_18
   12  A    between atoms: C_12  and  C_41
   13  A    between atoms: N_14  and  C_33
   14  A    between atoms: C_15  and  C_20
   15  A    between atoms: C_16  and  C_44
   16  A    between atoms: C_18  and  C_19
   17  A    between atoms: C_24  and  N_25
   18  A    between atoms: N_25  and  N_31
   19  A    between atoms: O_26  and  C_47
   20  A    between atoms: N_31  and  C_36
   21  A    between atoms: C_32  and  C_47
   22  A    between atoms: C_32  and  C_52
   23  A    between atoms: C_33  and  C_54
   24  A    between atoms: N_39  and  C_41
   25  A    between atoms: C_40  and  N_53
   26  A    between atoms: C_48  and  C_52
                            x       y       z     vdW  Elec       q    Type
                         _______ _______ _______ _____ _____    ______ ____

>  <TORSDO>
F 26

$$$$
=
 OpenBabel11042414553D

 55 58  0  0  1  0  0  0  0  0999 V2000
  190.9760  177.6810  144.6140 S   0  0  0  0  0  0  0  0  0  0  0  0
  192.0300  176.0190  142.8830 N   0  0  0  0  0  0  0  0  0  0  0  0
  190.1120  177.3890  143.0380 C   0  0  1  0  0  3  0  0  0  0  0  0
  192.3120  176.7180  143.9320 C   0  0  0  0  0  0  0  0  0  0  0  0
  190.6410  176.0620  142.4760 C   0  0  2  0  0  3  0  0  0  0  0  0
  189.9650  174.8030  142.9790 C   0  0  0  0  0  0  0  0  0  0  0  0
  190.0750  174.4430  144.1850 O   0  0  0  0  0  0  0  0  0  0  0  0
  189.2420  173.9340  142.0210 C   0  0  0  0  0  0  0  0  0  0  0  0
  188.1970  173.3410  142.3870 O   0  0  0  0  0  0  0  0  0  0  0  0
  189.6960  173.7520  140.6010 C   0  0  1  0  0  3  0  0  0  0  0  0
  190.3800  172.4070  140.4060 C   0  0  0  0  0  1  0  0  0  0  0  0
  188.5370  173.9380  139.6350 C   0  0  0  0  0  2  0  0  0  0  0  0
  188.1580  172.7030  139.1050 O   0  0  0  0  0  1  0  0  0  0  0  0
  194.3060  175.7870  144.9560 N   0  0  0  0  0  0  0  0  0  0  0  0
  193.6300  176.7750  144.4990 N   0  0  0  0  0  0  0  0  0  0  0  0
  193.2950  174.1110  146.2320 O   0  0  0  0  0  1  0  0  0  0  0  0
  193.8550  174.3980  144.9890 C   0  0  2  0  0  3  0  0  0  0  0  0
  195.0130  173.4280  144.6860 C   0  0  2  0  0  3  0  0  0  0  0  0
  194.8230  172.0370  145.3420 C   0  0  2  0  0  3  0  0  0  0  0  0
  196.0780  171.2080  145.4720 C   0  0  0  0  0  2  0  0  0  0  0  0
  193.8090  171.1920  144.6910 N   0  0  0  0  0  0  0  0  0  0  0  0
  195.5450  169.8080  145.6670 C   0  0  0  0  0  2  0  0  0  0  0  0
  194.1160  169.8370  145.1380 C   0  0  0  0  0  2  0  0  0  0  0  0
  193.9910  171.1870  143.2390 C   0  0  0  0  0  2  0  0  0  0  0  0
  193.5330  169.8550  142.6780 C   0  0  0  0  0  2  0  0  0  0  0  0
  194.5370  169.3590  141.6660 C   0  0  0  0  0  2  0  0  0  0  0  0
  193.4050  170.3030  139.6860 N   0  0  0  0  0  0  0  0  0  0  0  0
  194.5240  170.2370  140.4610 C   0  0  0  0  0  0  0  0  0  0  0  0
  196.7930  170.9880  140.9170 O   0  0  0  0  0  1  0  0  0  0  0  0
  195.6430  171.0230  140.1390 C   0  0  0  0  0  0  0  0  0  0  0  0
  195.5910  171.8520  139.0150 C   0  0  0  0  0  3  0  0  0  0  0  0
  193.3400  171.1120  138.5930 C   0  0  0  0  0  3  0  0  0  0  0  0
  194.4350  171.9010  138.2350 C   0  0  0  0  0  3  0  0  0  0  0  0
  196.3880  174.0530  144.9800 C   0  0  1  0  0  3  0  0  0  0  0  0
  196.8420  173.7240  146.3950 C   0  0  0  0  0  1  0  0  0  0  0  0
  196.9020  174.1020  142.8210 C   0  0  0  0  0  1  0  0  0  0  0  0
  197.3550  173.6370  144.0550 O   0  0  0  0  0  0  0  0  0  0  0  0
  188.6660  177.4250  143.2010 N   0  0  0  0  0  2  0  0  0  0  0  0
  188.1590  178.2520  142.1920 N   0  0  0  0  0  2  0  0  0  0  0  0
  187.7000  177.3860  141.1120 C   0  0  2  0  0  3  0  0  0  0  0  0
  186.2200  177.6120  140.7990 C   0  0  1  0  0  3  0  0  0  0  0  0
  186.6490  176.4260  141.6340 C   0  0  0  0  0  2  0  0  0  0  0  0
  185.6480  178.5830  141.6310 O   0  0  0  0  0  0  0  0  0  0  0  0
  184.4010  178.0630  141.9930 C   0  0  1  0  0  3  0  0  0  0  0  0
  183.9510  178.6490  143.3260 C   0  0  0  0  0  2  0  0  0  0  0  0
  185.7030  178.0980  144.8530 O   0  0  0  0  0  1  0  0  0  0  0  0
  185.5780  180.3090  144.2360 O   0  0  0  0  0  0  0  0  0  0  0  0
  185.1310  178.9940  144.1700 C   0  0  0  0  0  0  0  0  0  0  0  0
  183.3770  178.3650  140.9100 C   0  0  0  0  0  2  0  0  0  0  0  0
  182.1350  177.8180  141.2410 O   0  0  0  0  0  0  0  0  0  0  0  0
  181.2090  178.7950  140.8720 C   0  0  0  0  0  2  0  0  0  0  0  0
  179.8090  178.3660  141.2900 C   0  0  0  0  0  2  0  0  0  0  0  0
  178.3400  179.0780  139.4060 C   0  0  0  0  0  1  0  0  0  0  0  0
  179.0040  177.8970  140.0890 C   0  0  0  0  0  3  0  0  0  0  0  0
  177.9450  176.9190  140.5430 C   0  0  0  0  0  1  0  0  0  0  0  0
  2  4  2  0  0  0  0
  3 38  1  1  0  0  0
  3  1  1  0  0  0  0
  4 15  1  0  0  0  0
  4  1  1  0  0  0  0
  5  2  1  0  0  0  0
  5  6  1  1  0  0  0
  5  3  1  0  0  0  0
  6  7  2  0  0  0  0
  8  9  2  0  0  0  0
  8  6  1  0  0  0  0
 10 11  1  1  0  0  0
 10  8  1  0  0  0  0
 12 10  1  0  0  0  0
 13 12  1  0  0  0  0
 14 17  1  0  0  0  0
 15 14  2  0  0  0  0
 17 16  1  1  0  0  0
 18 34  1  1  0  0  0
 18 17  1  0  0  0  0
 19 18  1  6  0  0  0
 19 20  1  0  0  0  0
 20 22  1  0  0  0  0
 21 23  1  0  0  0  0
 21 19  1  0  0  0  0
 23 22  1  0  0  0  0
 24 21  1  0  0  0  0
 25 24  1  0  0  0  0
 26 25  1  0  0  0  0
 27 28  1  0  0  0  0
 28 26  1  0  0  0  0
 30 28  2  0  0  0  0
 30 29  1  0  0  0  0
 31 30  1  0  0  0  0
 32 27  2  0  0  0  0
 33 32  1  0  0  0  0
 33 31  2  0  0  0  0
 34 35  1  1  0  0  0
 36 37  1  0  0  0  0
 37 34  1  0  0  0  0
 39 38  1  0  0  0  0
 40 42  1  0  0  0  0
 40 39  1  1  0  0  0
 41 40  1  0  0  0  0
 41 43  1  1  0  0  0
 41 42  1  0  0  0  0
 43 44  1  0  0  0  0
 44 49  1  6  0  0  0
 44 45  1  0  0  0  0
 45 48  1  0  0  0  0
 48 47  2  0  0  0  0
 48 46  1  0  0  0  0
 49 50  1  0  0  0  0
 51 50  1  0  0  0  0
 51 52  1  0  0  0  0
 53 54  1  0  0  0  0
 54 55  1  0  0  0  0
 54 52  1  0  0  0  0
M  END
>  <MODEL>
5

>  <REMARK>
 VINA RESULT:      -4.6      3.405     10.317
  Name = 
  26 active torsions:
  status: ('A' for Active; 'I' for Inactive)
    1  A    between atoms: C_4  and  C_54
    2  A    between atoms: C_5  and  O_26
    3  A    between atoms: C_5  and  C_44
    4  A    between atoms: C_7  and  C_20
    5  A    between atoms: C_8  and  C_15
    6  A    between atoms: C_8  and  C_50
    7  A    between atoms: O_9  and  C_32
    8  A    between atoms: O_9  and  C_49
    9  A    between atoms: C_11  and  O_45
   10  A    between atoms: C_11  and  C_54
   11  A    between atoms: C_12  and  C_18
   12  A    between atoms: C_12  and  C_41
   13  A    between atoms: N_14  and  C_33
   14  A    between atoms: C_15  and  C_20
   15  A    between atoms: C_16  and  C_44
   16  A    between atoms: C_18  and  C_19
   17  A    between atoms: C_24  and  N_25
   18  A    between atoms: N_25  and  N_31
   19  A    between atoms: O_26  and  C_47
   20  A    between atoms: N_31  and  C_36
   21  A    between atoms: C_32  and  C_47
   22  A    between atoms: C_32  and  C_52
   23  A    between atoms: C_33  and  C_54
   24  A    between atoms: N_39  and  C_41
   25  A    between atoms: C_40  and  N_53
   26  A    between atoms: C_48  and  C_52
                            x       y       z     vdW  Elec       q    Type
                         _______ _______ _______ _____ _____    ______ ____

>  <TORSDO>
F 26

$$$$
=
 OpenBabel11042414553D

 55 58  0  0  1  0  0  0  0  0999 V2000
  192.8930  176.7760  145.3650 S   0  0  0  0  0  0  0  0  0  0  0  0
  191.4130  174.8720  146.3930 N   0  0  0  0  0  0  0  0  0  0  0  0
  193.6560  175.1580  145.7120 C   0  0  1  0  0  3  0  0  0  0  0  0
  191.4510  176.1500  146.2050 C   0  0  0  0  0  0  0  0  0  0  0  0
  192.5160  174.1360  145.8100 C   0  0  2  0  0  3  0  0  0  0  0  0
  192.0400  173.5340  144.5040 C   0  0  0  0  0  0  0  0  0  0  0  0
  190.8370  173.6500  144.1330 O   0  0  0  0  0  0  0  0  0  0  0  0
  192.9780  172.7200  143.6940 C   0  0  0  0  0  0  0  0  0  0  0  0
  193.3090  173.1110  142.5480 O   0  0  0  0  0  0  0  0  0  0  0  0
  193.5790  171.4430  144.2060 C   0  0  1  0  0  3  0  0  0  0  0  0
  192.5500  170.3220  144.2460 C   0  0  0  0  0  1  0  0  0  0  0  0
  194.8010  171.0550  143.3880 C   0  0  0  0  0  2  0  0  0  0  0  0
  195.8380  170.6690  144.2390 O   0  0  0  0  0  1  0  0  0  0  0  0
  189.4400  177.4960  146.0130 N   0  0  0  0  0  0  0  0  0  0  0  0
  190.4300  177.0390  146.6850 N   0  0  0  0  0  0  0  0  0  0  0  0
  189.7240  178.1780  143.7960 O   0  0  0  0  0  1  0  0  0  0  0  0
  189.1610  177.1970  144.6100 C   0  0  2  0  0  3  0  0  0  0  0  0
  187.6460  177.0910  144.3530 C   0  0  2  0  0  3  0  0  0  0  0  0
  187.2360  177.5920  142.9450 C   0  0  2  0  0  3  0  0  0  0  0  0
  185.7510  177.6120  142.6740 C   0  0  0  0  0  2  0  0  0  0  0  0
  187.8710  176.8680  141.8330 N   0  0  0  0  0  0  0  0  0  0  0  0
  185.6780  177.6600  141.1660 C   0  0  0  0  0  2  0  0  0  0  0  0
  187.0310  177.1580  140.6750 C   0  0  0  0  0  2  0  0  0  0  0  0
  187.7850  175.4210  142.0390 C   0  0  0  0  0  2  0  0  0  0  0  0
  188.3570  174.7050  140.8310 C   0  0  0  0  0  2  0  0  0  0  0  0
  188.9100  173.3650  141.2520 C   0  0  0  0  0  2  0  0  0  0  0  0
  188.9370  172.9780  138.8150 N   0  0  0  0  0  0  0  0  0  0  0  0
  189.3530  172.5960  140.0550 C   0  0  0  0  0  0  0  0  0  0  0  0
  190.6760  171.0960  141.4410 O   0  0  0  0  0  1  0  0  0  0  0  0
  190.2240  171.5020  140.1920 C   0  0  0  0  0  0  0  0  0  0  0  0
  190.6380  170.8150  139.0480 C   0  0  0  0  0  3  0  0  0  0  0  0
  189.3400  172.3220  137.6920 C   0  0  0  0  0  3  0  0  0  0  0  0
  190.1980  171.2240  137.7880 C   0  0  0  0  0  3  0  0  0  0  0  0
  186.8170  177.7220  145.4850 C   0  0  1  0  0  3  0  0  0  0  0  0
  186.1130  178.9820  145.0040 C   0  0  0  0  0  1  0  0  0  0  0  0
  184.8790  177.6120  146.5610 C   0  0  0  0  0  1  0  0  0  0  0  0
  185.8840  176.8180  146.0090 O   0  0  0  0  0  0  0  0  0  0  0  0
  194.6690  174.8170  144.7240 N   0  0  0  0  0  2  0  0  0  0  0  0
  194.7430  175.8870  143.8240 N   0  0  0  0  0  2  0  0  0  0  0  0
  196.1050  176.4060  143.8790 C   0  0  2  0  0  3  0  0  0  0  0  0
  196.8820  176.0890  142.6010 C   0  0  1  0  0  3  0  0  0  0  0  0
  197.0940  175.2570  143.8460 C   0  0  0  0  0  2  0  0  0  0  0  0
  196.1110  175.3630  141.6840 O   0  0  0  0  0  0  0  0  0  0  0  0
  197.0160  174.5110  141.0420 C   0  0  1  0  0  3  0  0  0  0  0  0
  196.3900  173.1370  140.8310 C   0  0  0  0  0  2  0  0  0  0  0  0
  197.9410  171.6570  141.8840 O   0  0  0  0  0  1  0  0  0  0  0  0
  197.9070  171.5940  139.5860 O   0  0  0  0  0  0  0  0  0  0  0  0
  197.4440  172.0820  140.8030 C   0  0  0  0  0  0  0  0  0  0  0  0
  197.4390  175.1090  139.7100 C   0  0  0  0  0  2  0  0  0  0  0  0
  196.3590  175.7390  139.0870 O   0  0  0  0  0  0  0  0  0  0  0  0
  196.2890  175.1530  137.8220 C   0  0  0  0  0  2  0  0  0  0  0  0
  195.0640  174.2540  137.7360 C   0  0  0  0  0  2  0  0  0  0  0  0
  192.6270  174.2180  138.2610 C   0  0  0  0  0  1  0  0  0  0  0  0
  193.7840  175.0730  137.7800 C   0  0  0  0  0  3  0  0  0  0  0  0
  193.4780  175.6030  136.3980 C   0  0  0  0  0  1  0  0  0  0  0  0
  1  3  1  0  0  0  0
  1  4  1  0  0  0  0
  3 38  1  6  0  0  0
  3  5  1  0  0  0  0
  4  2  2  0  0  0  0
  4 15  1  0  0  0  0
  5  6  1  6  0  0  0
  5  2  1  0  0  0  0
  7  6  2  0  0  0  0
  8 10  1  0  0  0  0
  8  6  1  0  0  0  0
  9  8  2  0  0  0  0
 10 11  1  6  0  0  0
 12 10  1  0  0  0  0
 12 13  1  0  0  0  0
 14 15  2  0  0  0  0
 17 16  1  6  0  0  0
 17 14  1  0  0  0  0
 18 17  1  1  0  0  0
 18 34  1  0  0  0  0
 19 18  1  1  0  0  0
 20 19  1  0  0  0  0
 21 24  1  0  0  0  0
 21 19  1  0  0  0  0
 22 20  1  0  0  0  0
 23 22  1  0  0  0  0
 23 21  1  0  0  0  0
 25 26  1  0  0  0  0
 25 24  1  0  0  0  0
 27 28  1  0  0  0  0
 28 30  2  0  0  0  0
 28 26  1  0  0  0  0
 30 29  1  0  0  0  0
 31 30  1  0  0  0  0
 32 33  1  0  0  0  0
 32 27  2  0  0  0  0
 33 31  2  0  0  0  0
 34 35  1  6  0  0  0
 34 37  1  0  0  0  0
 37 36  1  0  0  0  0
 39 38  1  0  0  0  0
 40 39  1  6  0  0  0
 41 43  1  6  0  0  0
 41 42  1  0  0  0  0
 41 40  1  0  0  0  0
 42 40  1  0  0  0  0
 44 49  1  6  0  0  0
 44 43  1  0  0  0  0
 45 44  1  0  0  0  0
 47 48  2  0  0  0  0
 48 45  1  0  0  0  0
 48 46  1  0  0  0  0
 50 49  1  0  0  0  0
 51 50  1  0  0  0  0
 52 54  1  0  0  0  0
 52 51  1  0  0  0  0
 54 53  1  0  0  0  0
 55 54  1  0  0  0  0
M  END
>  <MODEL>
6

>  <REMARK>
 VINA RESULT:      -4.3      2.515      7.130
  Name = 
  26 active torsions:
  status: ('A' for Active; 'I' for Inactive)
    1  A    between atoms: C_4  and  C_54
    2  A    between atoms: C_5  and  O_26
    3  A    between atoms: C_5  and  C_44
    4  A    between atoms: C_7  and  C_20
    5  A    between atoms: C_8  and  C_15
    6  A    between atoms: C_8  and  C_50
    7  A    between atoms: O_9  and  C_32
    8  A    between atoms: O_9  and  C_49
    9  A    between atoms: C_11  and  O_45
   10  A    between atoms: C_11  and  C_54
   11  A    between atoms: C_12  and  C_18
   12  A    between atoms: C_12  and  C_41
   13  A    between atoms: N_14  and  C_33
   14  A    between atoms: C_15  and  C_20
   15  A    between atoms: C_16  and  C_44
   16  A    between atoms: C_18  and  C_19
   17  A    between atoms: C_24  and  N_25
   18  A    between atoms: N_25  and  N_31
   19  A    between atoms: O_26  and  C_47
   20  A    between atoms: N_31  and  C_36
   21  A    between atoms: C_32  and  C_47
   22  A    between atoms: C_32  and  C_52
   23  A    between atoms: C_33  and  C_54
   24  A    between atoms: N_39  and  C_41
   25  A    between atoms: C_40  and  N_53
   26  A    between atoms: C_48  and  C_52
                            x       y       z     vdW  Elec       q    Type
                         _______ _______ _______ _____ _____    ______ ____

>  <TORSDO>
F 26

$$$$
=
 OpenBabel11042414553D

 55 58  0  0  1  0  0  0  0  0999 V2000
  191.1470  177.8920  143.9130 S   0  0  0  0  0  0  0  0  0  0  0  0
  191.3570  176.1980  145.9010 N   0  0  0  0  0  0  0  0  0  0  0  0
  189.8710  176.6070  144.1120 C   0  0  1  0  0  3  0  0  0  0  0  0
  192.0350  177.0540  145.2110 C   0  0  0  0  0  0  0  0  0  0  0  0
  189.9510  176.1170  145.5640 C   0  0  2  0  0  3  0  0  0  0  0  0
  189.1760  176.9220  146.5870 C   0  0  0  0  0  0  0  0  0  0  0  0
  189.6990  177.9170  147.1640 O   0  0  0  0  0  0  0  0  0  0  0  0
  187.8180  176.4790  146.9830 C   0  0  0  0  0  0  0  0  0  0  0  0
  187.6740  175.3950  147.6020 O   0  0  0  0  0  0  0  0  0  0  0  0
  186.5920  177.2960  146.6960 C   0  0  1  0  0  3  0  0  0  0  0  0
  185.3850  176.4090  146.4250 C   0  0  0  0  0  1  0  0  0  0  0  0
  186.3230  178.2810  147.8230 C   0  0  0  0  0  2  0  0  0  0  0  0
  185.8650  179.4910  147.2960 O   0  0  0  0  0  1  0  0  0  0  0  0
  194.3800  176.4370  145.3000 N   0  0  0  0  0  0  0  0  0  0  0  0
  193.4350  177.2920  145.4230 N   0  0  0  0  0  0  0  0  0  0  0  0
  193.8350  174.2850  146.0300 O   0  0  0  0  0  1  0  0  0  0  0  0
  194.2090  175.0370  144.9180 C   0  0  2  0  0  3  0  0  0  0  0  0
  195.4980  174.4670  144.2950 C   0  0  2  0  0  3  0  0  0  0  0  0
  195.7350  174.9590  142.8450 C   0  0  2  0  0  3  0  0  0  0  0  0
  196.1120  176.4140  142.7110 C   0  0  0  0  0  2  0  0  0  0  0  0
  194.6120  174.7140  141.9280 N   0  0  0  0  0  0  0  0  0  0  0  0
  195.8080  176.7150  141.2620 C   0  0  0  0  0  2  0  0  0  0  0  0
  194.8380  175.6290  140.8130 C   0  0  0  0  0  2  0  0  0  0  0  0
  193.3460  175.1260  142.5360 C   0  0  0  0  0  2  0  0  0  0  0  0
  192.2150  174.8920  141.5540 C   0  0  0  0  0  2  0  0  0  0  0  0
  191.9530  173.4110  141.4260 C   0  0  0  0  0  2  0  0  0  0  0  0
  190.6210  173.0900  139.3740 N   0  0  0  0  0  0  0  0  0  0  0  0
  190.6540  173.1790  140.7330 C   0  0  0  0  0  0  0  0  0  0  0  0
  189.4750  173.0860  142.8590 O   0  0  0  0  0  1  0  0  0  0  0  0
  189.4710  173.0150  141.4720 C   0  0  0  0  0  0  0  0  0  0  0  0
  188.2720  172.7780  140.7940 C   0  0  0  0  0  3  0  0  0  0  0  0
  189.4610  172.8510  138.7020 C   0  0  0  0  0  3  0  0  0  0  0  0
  188.2620  172.6930  139.4010 C   0  0  0  0  0  3  0  0  0  0  0  0
  195.5870  172.9380  144.4390 C   0  0  1  0  0  3  0  0  0  0  0  0
  194.2520  172.2830  144.1140 C   0  0  0  0  0  1  0  0  0  0  0  0
  197.3540  171.5940  144.4800 C   0  0  0  0  0  1  0  0  0  0  0  0
  196.5960  172.3990  143.6300 O   0  0  0  0  0  0  0  0  0  0  0  0
  188.5540  177.0910  143.7250 N   0  0  0  0  0  2  0  0  0  0  0  0
  188.7300  177.9150  142.6070 N   0  0  0  0  0  2  0  0  0  0  0  0
  188.5480  177.0830  141.4230 C   0  0  2  0  0  3  0  0  0  0  0  0
  187.1910  177.3290  140.7630 C   0  0  1  0  0  3  0  0  0  0  0  0
  187.4000  176.1170  141.6440 C   0  0  0  0  0  2  0  0  0  0  0  0
  186.4350  178.2820  141.4570 O   0  0  0  0  0  0  0  0  0  0  0  0
  185.1740  177.6970  141.6200 C   0  0  1  0  0  3  0  0  0  0  0  0
  184.8150  177.6190  143.1000 C   0  0  0  0  0  2  0  0  0  0  0  0
  183.8160  179.4160  144.3160 O   0  0  0  0  0  1  0  0  0  0  0  0
  185.9660  179.7790  143.5900 O   0  0  0  0  0  0  0  0  0  0  0  0
  184.8360  178.9780  143.7140 C   0  0  0  0  0  0  0  0  0  0  0  0
  184.1270  178.5000  140.8640 C   0  0  0  0  0  2  0  0  0  0  0  0
  182.9110  177.8130  140.8290 O   0  0  0  0  0  0  0  0  0  0  0  0
  181.9380  178.8090  140.9190 C   0  0  0  0  0  2  0  0  0  0  0  0
  180.6460  178.2230  141.4720 C   0  0  0  0  0  2  0  0  0  0  0  0
  178.3980  179.0430  142.1700 C   0  0  0  0  0  1  0  0  0  0  0  0
  179.4510  179.0760  141.0780 C   0  0  0  0  0  3  0  0  0  0  0  0
  178.8580  178.5470  139.7920 C   0  0  0  0  0  1  0  0  0  0  0  0
  1  3  1  0  0  0  0
  1  4  1  0  0  0  0
  3 38  1  1  0  0  0
  3  5  1  0  0  0  0
  4 15  1  0  0  0  0
  4  2  2  0  0  0  0
  5  2  1  0  0  0  0
  5  6  1  1  0  0  0
  6  8  1  0  0  0  0
  6  7  2  0  0  0  0
  8  9  2  0  0  0  0
 10 11  1  1  0  0  0
 10  8  1  0  0  0  0
 10 12  1  0  0  0  0
 13 12  1  0  0  0  0
 14 15  2  0  0  0  0
 17 14  1  0  0  0  0
 17 16  1  1  0  0  0
 18 34  1  6  0  0  0
 18 17  1  0  0  0  0
 19 18  1  1  0  0  0
 20 19  1  0  0  0  0
 21 24  1  0  0  0  0
 21 19  1  0  0  0  0
 22 20  1  0  0  0  0
 23 22  1  0  0  0  0
 23 21  1  0  0  0  0
 25 24  1  0  0  0  0
 26 25  1  0  0  0  0
 27 28  1  0  0  0  0
 28 26  1  0  0  0  0
 28 30  2  0  0  0  0
 30 29  1  0  0  0  0
 31 30  1  0  0  0  0
 32 27  2  0  0  0  0
 32 33  1  0  0  0  0
 33 31  2  0  0  0  0
 34 35  1  6  0  0  0
 37 34  1  0  0  0  0
 37 36  1  0  0  0  0
 39 38  1  0  0  0  0
 40 42  1  0  0  0  0
 40 39  1  1  0  0  0
 41 40  1  0  0  0  0
 41 43  1  1  0  0  0
 41 42  1  0  0  0  0
 43 44  1  0  0  0  0
 44 49  1  6  0  0  0
 44 45  1  0  0  0  0
 45 48  1  0  0  0  0
 47 48  2  0  0  0  0
 48 46  1  0  0  0  0
 50 49  1  0  0  0  0
 50 51  1  0  0  0  0
 51 52  1  0  0  0  0
 54 52  1  0  0  0  0
 54 53  1  0  0  0  0
 55 54  1  0  0  0  0
M  END
>  <MODEL>
7

>  <REMARK>
 VINA RESULT:      -4.3      3.119     10.053
  Name = 
  26 active torsions:
  status: ('A' for Active; 'I' for Inactive)
    1  A    between atoms: C_4  and  C_54
    2  A    between atoms: C_5  and  O_26
    3  A    between atoms: C_5  and  C_44
    4  A    between atoms: C_7  and  C_20
    5  A    between atoms: C_8  and  C_15
    6  A    between atoms: C_8  and  C_50
    7  A    between atoms: O_9  and  C_32
    8  A    between atoms: O_9  and  C_49
    9  A    between atoms: C_11  and  O_45
   10  A    between atoms: C_11  and  C_54
   11  A    between atoms: C_12  and  C_18
   12  A    between atoms: C_12  and  C_41
   13  A    between atoms: N_14  and  C_33
   14  A    between atoms: C_15  and  C_20
   15  A    between atoms: C_16  and  C_44
   16  A    between atoms: C_18  and  C_19
   17  A    between atoms: C_24  and  N_25
   18  A    between atoms: N_25  and  N_31
   19  A    between atoms: O_26  and  C_47
   20  A    between atoms: N_31  and  C_36
   21  A    between atoms: C_32  and  C_47
   22  A    between atoms: C_32  and  C_52
   23  A    between atoms: C_33  and  C_54
   24  A    between atoms: N_39  and  C_41
   25  A    between atoms: C_40  and  N_53
   26  A    between atoms: C_48  and  C_52
                            x       y       z     vdW  Elec       q    Type
                         _______ _______ _______ _____ _____    ______ ____

>  <TORSDO>
F 26

$$$$
=
 OpenBabel11042414553D

 55 58  0  0  1  0  0  0  0  0999 V2000
  192.6820  172.8490  142.1310 S   0  0  0  0  0  0  0  0  0  0  0  0
  193.3290  172.3490  144.6210 N   0  0  0  0  0  0  0  0  0  0  0  0
  191.4090  173.0230  143.4210 C   0  0  1  0  0  3  0  0  0  0  0  0
  193.7210  172.1600  143.4050 C   0  0  0  0  0  0  0  0  0  0  0  0
  192.1450  173.1720  144.7600 C   0  0  2  0  0  3  0  0  0  0  0  0
  192.5870  174.5730  145.1300 C   0  0  0  0  0  0  0  0  0  0  0  0
  193.5470  175.1320  144.5290 O   0  0  0  0  0  0  0  0  0  0  0  0
  191.9430  175.2590  146.2750 C   0  0  0  0  0  0  0  0  0  0  0  0
  192.5760  175.3990  147.3510 O   0  0  0  0  0  0  0  0  0  0  0  0
  190.5560  175.8280  146.1930 C   0  0  1  0  0  3  0  0  0  0  0  0
  189.5450  174.9280  146.8880 C   0  0  0  0  0  1  0  0  0  0  0  0
  190.5200  177.2450  146.7440 C   0  0  0  0  0  2  0  0  0  0  0  0
  189.4500  177.3810  147.6310 O   0  0  0  0  0  1  0  0  0  0  0  0
  196.0710  171.8530  142.8840 N   0  0  0  0  0  0  0  0  0  0  0  0
  194.8900  171.3950  143.0730 N   0  0  0  0  0  0  0  0  0  0  0  0
  195.8410  173.8540  144.0690 O   0  0  0  0  0  1  0  0  0  0  0  0
  196.4560  173.2600  142.9690 C   0  0  2  0  0  3  0  0  0  0  0  0
  196.0900  174.0170  141.6770 C   0  0  2  0  0  3  0  0  0  0  0  0
  196.5900  173.3010  140.3960 C   0  0  2  0  0  3  0  0  0  0  0  0
  197.5050  174.1190  139.5170 C   0  0  0  0  0  2  0  0  0  0  0  0
  195.5190  172.7730  139.5380 N   0  0  0  0  0  0  0  0  0  0  0  0
  197.4330  173.4030  138.1890 C   0  0  0  0  0  2  0  0  0  0  0  0
  196.1500  172.5820  138.2350 C   0  0  0  0  0  2  0  0  0  0  0  0
  194.4740  173.7770  139.3340 C   0  0  0  0  0  2  0  0  0  0  0  0
  193.8490  173.5840  137.9660 C   0  0  0  0  0  2  0  0  0  0  0  0
  192.3680  173.8650  138.0420 C   0  0  0  0  0  2  0  0  0  0  0  0
  192.2460  171.4010  138.0280 N   0  0  0  0  0  0  0  0  0  0  0  0
  191.5990  172.5940  137.9170 C   0  0  0  0  0  0  0  0  0  0  0  0
  189.5180  173.8200  137.6160 O   0  0  0  0  0  1  0  0  0  0  0  0
  190.2080  172.6190  137.7210 C   0  0  0  0  0  0  0  0  0  0  0  0
  189.5130  171.4100  137.6280 C   0  0  0  0  0  3  0  0  0  0  0  0
  191.5790  170.2170  137.9490 C   0  0  0  0  0  3  0  0  0  0  0  0
  190.1970  170.1990  137.7440 C   0  0  0  0  0  3  0  0  0  0  0  0
  196.4900  175.5010  141.7380 C   0  0  1  0  0  3  0  0  0  0  0  0
  195.2590  176.3930  141.7960 C   0  0  0  0  0  1  0  0  0  0  0  0
  197.0130  177.0670  143.2220 C   0  0  0  0  0  1  0  0  0  0  0  0
  197.3300  175.7670  142.8280 O   0  0  0  0  0  0  0  0  0  0  0  0
  190.4900  174.1140  143.1290 N   0  0  0  0  0  2  0  0  0  0  0  0
  189.2040  173.5640  143.0720 N   0  0  0  0  0  2  0  0  0  0  0  0
  188.8490  173.4410  141.6630 C   0  0  2  0  0  3  0  0  0  0  0  0
  187.6540  174.3240  141.3040 C   0  0  1  0  0  3  0  0  0  0  0  0
  187.4620  172.8410  141.5330 C   0  0  0  0  0  2  0  0  0  0  0  0
  187.1700  175.0320  142.4110 O   0  0  0  0  0  0  0  0  0  0  0  0
  187.3410  176.3810  142.0840 C   0  0  1  0  0  3  0  0  0  0  0  0
  185.9890  177.0770  141.9870 C   0  0  0  0  0  2  0  0  0  0  0  0
  186.6890  177.5200  139.7460 O   0  0  0  0  0  0  0  0  0  0  0  0
  184.7310  178.5330  140.3970 O   0  0  0  0  0  1  0  0  0  0  0  0
  185.8210  177.7070  140.6450 C   0  0  0  0  0  0  0  0  0  0  0  0
  188.2120  177.0630  143.1280 C   0  0  0  0  0  2  0  0  0  0  0  0
  187.7500  176.7820  144.4160 O   0  0  0  0  0  0  0  0  0  0  0  0
  187.4230  178.0270  144.9540 C   0  0  0  0  0  2  0  0  0  0  0  0
  186.3950  177.8570  146.0640 C   0  0  0  0  0  2  0  0  0  0  0  0
  183.9870  178.3940  146.4220 C   0  0  0  0  0  1  0  0  0  0  0  0
  185.3350  178.9440  145.9940 C   0  0  0  0  0  3  0  0  0  0  0  0
  185.2400  179.4640  144.5780 C   0  0  0  0  0  1  0  0  0  0  0  0
  1  4  1  0  0  0  0
  1  3  1  0  0  0  0
  2  5  1  0  0  0  0
  3 38  1  6  0  0  0
  3  5  1  0  0  0  0
  4  2  2  0  0  0  0
  5  6  1  6  0  0  0
  6  8  1  0  0  0  0
  7  6  2  0  0  0  0
  8  9  2  0  0  0  0
 10  8  1  0  0  0  0
 10 12  1  0  0  0  0
 10 11  1  1  0  0  0
 12 13  1  0  0  0  0
 14 17  1  0  0  0  0
 14 15  2  0  0  0  0
 15  4  1  0  0  0  0
 17 16  1  1  0  0  0
 18 34  1  1  0  0  0
 18 17  1  0  0  0  0
 19 18  1  1  0  0  0
 20 19  1  0  0  0  0
 21 19  1  0  0  0  0
 22 23  1  0  0  0  0
 22 20  1  0  0  0  0
 23 21  1  0  0  0  0
 24 21  1  0  0  0  0
 25 26  1  0  0  0  0
 25 24  1  0  0  0  0
 28 27  2  0  0  0  0
 28 26  1  0  0  0  0
 29 30  1  0  0  0  0
 30 28  1  0  0  0  0
 31 30  2  0  0  0  0
 31 33  1  0  0  0  0
 32 27  1  0  0  0  0
 33 32  2  0  0  0  0
 34 35  1  1  0  0  0
 34 37  1  0  0  0  0
 37 36  1  0  0  0  0
 39 38  1  0  0  0  0
 40 39  1  1  0  0  0
 41 42  1  0  0  0  0
 41 40  1  0  0  0  0
 41 43  1  1  0  0  0
 42 40  1  0  0  0  0
 44 45  1  1  0  0  0
 44 43  1  0  0  0  0
 44 49  1  0  0  0  0
 46 48  2  0  0  0  0
 47 48  1  0  0  0  0
 48 45  1  0  0  0  0
 49 50  1  0  0  0  0
 50 51  1  0  0  0  0
 51 52  1  0  0  0  0
 54 52  1  0  0  0  0
 54 53  1  0  0  0  0
 55 54  1  0  0  0  0
M  END
>  <MODEL>
8

>  <REMARK>
 VINA RESULT:      -4.2      2.584      9.268
  Name = 
  26 active torsions:
  status: ('A' for Active; 'I' for Inactive)
    1  A    between atoms: C_4  and  C_54
    2  A    between atoms: C_5  and  O_26
    3  A    between atoms: C_5  and  C_44
    4  A    between atoms: C_7  and  C_20
    5  A    between atoms: C_8  and  C_15
    6  A    between atoms: C_8  and  C_50
    7  A    between atoms: O_9  and  C_32
    8  A    between atoms: O_9  and  C_49
    9  A    between atoms: C_11  and  O_45
   10  A    between atoms: C_11  and  C_54
   11  A    between atoms: C_12  and  C_18
   12  A    between atoms: C_12  and  C_41
   13  A    between atoms: N_14  and  C_33
   14  A    between atoms: C_15  and  C_20
   15  A    between atoms: C_16  and  C_44
   16  A    between atoms: C_18  and  C_19
   17  A    between atoms: C_24  and  N_25
   18  A    between atoms: N_25  and  N_31
   19  A    between atoms: O_26  and  C_47
   20  A    between atoms: N_31  and  C_36
   21  A    between atoms: C_32  and  C_47
   22  A    between atoms: C_32  and  C_52
   23  A    between atoms: C_33  and  C_54
   24  A    between atoms: N_39  and  C_41
   25  A    between atoms: C_40  and  N_53
   26  A    between atoms: C_48  and  C_52
                            x       y       z     vdW  Elec       q    Type
                         _______ _______ _______ _____ _____    ______ ____

>  <TORSDO>
F 26

$$$$
=
 OpenBabel11042414553D

 55 58  0  0  1  0  0  0  0  0999 V2000
  191.0760  173.4220  143.3760 S   0  0  0  0  0  0  0  0  0  0  0  0
  192.6170  171.4390  142.6280 N   0  0  0  0  0  0  0  0  0  0  0  0
  192.3140  172.7810  144.5480 C   0  0  1  0  0  3  0  0  0  0  0  0
  191.5190  172.0500  142.3300 C   0  0  0  0  0  0  0  0  0  0  0  0
  193.3640  172.0250  143.7220 C   0  0  2  0  0  3  0  0  0  0  0  0
  194.4820  172.8600  143.1320 C   0  0  0  0  0  0  0  0  0  0  0  0
  194.2810  173.6020  142.1300 O   0  0  0  0  0  0  0  0  0  0  0  0
  195.8520  172.7350  143.6850 C   0  0  0  0  0  0  0  0  0  0  0  0
  196.8430  172.8680  142.9250 O   0  0  0  0  0  0  0  0  0  0  0  0
  196.1100  172.4790  145.1410 C   0  0  1  0  0  3  0  0  0  0  0  0
  197.1330  171.3690  145.3370 C   0  0  0  0  0  1  0  0  0  0  0  0
  196.5260  173.7580  145.8500 C   0  0  0  0  0  2  0  0  0  0  0  0
  196.3270  174.8530  145.0070 O   0  0  0  0  0  1  0  0  0  0  0  0
  190.9210  171.6950  140.0040 N   0  0  0  0  0  0  0  0  0  0  0  0
  190.6610  171.6300  141.2570 N   0  0  0  0  0  0  0  0  0  0  0  0
  192.1740  173.6070  139.5210 O   0  0  0  0  0  1  0  0  0  0  0  0
  192.1560  172.2170  139.4230 C   0  0  2  0  0  3  0  0  0  0  0  0
  192.3080  171.7820  137.9530 C   0  0  2  0  0  3  0  0  0  0  0  0
  191.0830  172.1590  137.0820 C   0  0  2  0  0  3  0  0  0  0  0  0
  190.5160  171.0360  136.2480 C   0  0  0  0  0  2  0  0  0  0  0  0
  191.3060  173.3000  136.1810 N   0  0  0  0  0  0  0  0  0  0  0  0
  189.7080  171.7630  135.1980 C   0  0  0  0  0  2  0  0  0  0  0  0
  190.2570  173.1840  135.1720 C   0  0  0  0  0  2  0  0  0  0  0  0
  192.5720  173.1550  135.4620 C   0  0  0  0  0  2  0  0  0  0  0  0
  192.9510  174.4830  134.8340 C   0  0  0  0  0  2  0  0  0  0  0  0
  193.1010  175.5280  135.9130 C   0  0  0  0  0  2  0  0  0  0  0  0
  194.7100  174.8930  137.6720 N   0  0  0  0  0  0  0  0  0  0  0  0
  194.4830  175.4930  136.4700 C   0  0  0  0  0  0  0  0  0  0  0  0
  195.3590  176.6470  134.5160 O   0  0  0  0  0  1  0  0  0  0  0  0
  195.5570  176.0400  135.7500 C   0  0  0  0  0  0  0  0  0  0  0  0
  196.8440  175.9720  136.2910 C   0  0  0  0  0  3  0  0  0  0  0  0
  195.9600  174.8130  138.2060 C   0  0  0  0  0  3  0  0  0  0  0  0
  197.0520  175.3540  137.5240 C   0  0  0  0  0  3  0  0  0  0  0  0
  192.7130  170.3040  137.8220 C   0  0  1  0  0  3  0  0  0  0  0  0
  193.8620  170.1410  136.8380 C   0  0  0  0  0  1  0  0  0  0  0  0
  193.1970  168.3820  138.8240 C   0  0  0  0  0  1  0  0  0  0  0  0
  193.0600  169.7500  139.0620 O   0  0  0  0  0  0  0  0  0  0  0  0
  192.8690  173.8390  145.3790 N   0  0  0  0  0  2  0  0  0  0  0  0
  191.8820  174.1950  146.3060 N   0  0  0  0  0  2  0  0  0  0  0  0
  192.3310  175.4130  146.9700 C   0  0  2  0  0  3  0  0  0  0  0  0
  191.2490  176.4940  146.9560 C   0  0  1  0  0  3  0  0  0  0  0  0
  192.3940  176.5510  145.9700 C   0  0  0  0  0  2  0  0  0  0  0  0
  190.0890  176.0690  146.2970 O   0  0  0  0  0  0  0  0  0  0  0  0
  189.4360  177.2450  145.9140 C   0  0  1  0  0  3  0  0  0  0  0  0
  189.0240  177.1680  144.4490 C   0  0  0  0  0  2  0  0  0  0  0  0
  190.7750  178.6940  143.8920 O   0  0  0  0  0  1  0  0  0  0  0  0
  190.4080  177.0040  142.3780 O   0  0  0  0  0  0  0  0  0  0  0  0
  190.1240  177.6600  143.5700 C   0  0  0  0  0  0  0  0  0  0  0  0
  188.2170  177.4740  146.7940 C   0  0  0  0  0  2  0  0  0  0  0  0
  187.1020  176.8140  146.2730 O   0  0  0  0  0  0  0  0  0  0  0  0
  186.0070  177.4780  146.8260 C   0  0  0  0  0  2  0  0  0  0  0  0
  184.8980  177.6020  145.7900 C   0  0  0  0  0  2  0  0  0  0  0  0
  185.6200  179.7930  144.8460 C   0  0  0  0  0  1  0  0  0  0  0  0
  185.3940  178.3230  144.5470 C   0  0  0  0  0  3  0  0  0  0  0  0
  184.3710  178.1860  143.4430 C   0  0  0  0  0  1  0  0  0  0  0  0
  1  3  1  0  0  0  0
  2  5  1  0  0  0  0
  3 38  1  6  0  0  0
  4  2  2  0  0  0  0
  4  1  1  0  0  0  0
  5  6  1  6  0  0  0
  5  3  1  0  0  0  0
  6  8  1  0  0  0  0
  7  6  2  0  0  0  0
  8 10  1  0  0  0  0
  9  8  2  0  0  0  0
 10 11  1  6  0  0  0
 10 12  1  0  0  0  0
 13 12  1  0  0  0  0
 14 15  2  0  0  0  0
 15  4  1  0  0  0  0
 17 16  1  6  0  0  0
 17 14  1  0  0  0  0
 18 34  1  1  0  0  0
 18 17  1  0  0  0  0
 19 18  1  6  0  0  0
 20 19  1  0  0  0  0
 21 19  1  0  0  0  0
 22 20  1  0  0  0  0
 23 22  1  0  0  0  0
 23 21  1  0  0  0  0
 24 21  1  0  0  0  0
 25 24  1  0  0  0  0
 25 26  1  0  0  0  0
 26 28  1  0  0  0  0
 27 32  1  0  0  0  0
 28 27  2  0  0  0  0
 29 30  1  0  0  0  0
 30 31  2  0  0  0  0
 30 28  1  0  0  0  0
 31 33  1  0  0  0  0
 33 32  2  0  0  0  0
 34 35  1  6  0  0  0
 34 37  1  0  0  0  0
 36 37  1  0  0  0  0
 38 39  1  0  0  0  0
 40 39  1  6  0  0  0
 41 43  1  6  0  0  0
 41 40  1  0  0  0  0
 42 41  1  0  0  0  0
 42 40  1  0  0  0  0
 44 45  1  6  0  0  0
 44 43  1  0  0  0  0
 44 49  1  0  0  0  0
 47 48  2  0  0  0  0
 48 46  1  0  0  0  0
 48 45  1  0  0  0  0
 50 49  1  0  0  0  0
 50 51  1  0  0  0  0
 52 51  1  0  0  0  0
 54 53  1  0  0  0  0
 54 52  1  0  0  0  0
 55 54  1  0  0  0  0
M  END
>  <MODEL>
9

>  <REMARK>
 VINA RESULT:      -4.2      2.513      9.143
  Name = 
  26 active torsions:
  status: ('A' for Active; 'I' for Inactive)
    1  A    between atoms: C_4  and  C_54
    2  A    between atoms: C_5  and  O_26
    3  A    between atoms: C_5  and  C_44
    4  A    between atoms: C_7  and  C_20
    5  A    between atoms: C_8  and  C_15
    6  A    between atoms: C_8  and  C_50
    7  A    between atoms: O_9  and  C_32
    8  A    between atoms: O_9  and  C_49
    9  A    between atoms: C_11  and  O_45
   10  A    between atoms: C_11  and  C_54
   11  A    between atoms: C_12  and  C_18
   12  A    between atoms: C_12  and  C_41
   13  A    between atoms: N_14  and  C_33
   14  A    between atoms: C_15  and  C_20
   15  A    between atoms: C_16  and  C_44
   16  A    between atoms: C_18  and  C_19
   17  A    between atoms: C_24  and  N_25
   18  A    between atoms: N_25  and  N_31
   19  A    between atoms: O_26  and  C_47
   20  A    between atoms: N_31  and  C_36
   21  A    between atoms: C_32  and  C_47
   22  A    between atoms: C_32  and  C_52
   23  A    between atoms: C_33  and  C_54
   24  A    between atoms: N_39  and  C_41
   25  A    between atoms: C_40  and  N_53
   26  A    between atoms: C_48  and  C_52
                            x       y       z     vdW  Elec       q    Type
                         _______ _______ _______ _____ _____    ______ ____

>  <TORSDO>
F 26

$$$$
