=
 OpenBabel11042413483D

 25 28  0  0  1  0  0  0  0  0999 V2000
  189.5110  176.0120  146.6370 C   0  0  2  0  0  3  0  0  0  0  0  0
  190.6220  176.5740  147.5010 C   0  0  0  0  0  2  0  0  0  0  0  0
  190.9150  176.1490  146.0790 C   0  0  1  0  0  3  0  0  0  0  0  0
  187.8460  177.6730  147.1540 C   0  0  0  0  0  3  0  0  0  0  0  0
  185.6640  178.7680  142.2320 C   0  0  0  0  0  2  0  0  0  0  0  0
  186.0640  178.6660  144.7180 C   0  0  0  0  0  0  0  0  0  0  0  0
  185.2800  177.3010  142.4020 C   0  0  0  0  0  2  0  0  0  0  0  0
  185.5620  179.1810  145.8750 C   0  0  0  0  0  3  0  0  0  0  0  0
  185.6930  179.4060  143.5450 N   0  0  0  0  0  2  0  0  0  0  0  0
  187.7190  176.6180  145.1440 O   0  0  0  0  0  0  0  0  0  0  0  0
  186.2580  176.6650  143.3440 C   0  0  0  0  0  3  0  0  0  0  0  0
  186.6680  177.2860  144.4570 C   0  0  0  0  0  0  0  0  0  0  0  0
  188.6490  177.1410  146.1020 C   0  0  2  0  0  3  0  0  0  0  0  0
  186.8280  178.1380  147.5280 C   0  0  0  0  0  3  0  0  0  0  0  0
  185.5160  178.6460  147.2860 C   0  0  0  0  0  2  0  0  0  0  0  0
  194.7980  173.1170  145.4320 C   0  0  0  0  0  2  0  0  0  0  0  0
  192.9370  174.6600  145.8020 C   0  0  0  0  0  0  0  0  0  0  0  0
  193.4060  173.4460  145.7420 N   0  0  0  0  0  0  0  0  0  0  0  0
  191.5480  174.8410  146.0770 N   0  0  0  0  0  2  0  0  0  0  0  0
  195.7420  174.2320  145.8800 C   0  0  2  0  0  3  0  0  0  0  0  0
  195.2510  175.5120  145.2160 C   0  0  0  0  0  2  0  0  0  0  0  0
  193.8500  175.8600  145.7100 C   0  0  0  0  0  2  0  0  0  0  0  0
  197.3690  172.4420  145.2170 C   0  0  0  0  0  1  0  0  0  0  0  0
  197.5530  174.6710  144.1850 C   0  0  0  0  0  1  0  0  0  0  0  0
  197.1830  173.9310  145.4610 C   0  0  0  0  0  3  0  0  0  0  0  0
  1  2  1  1  0  0  0
  3 19  1  1  0  0  0
  3  1  1  0  0  0  0
  3  2  1  0  0  0  0
  4 14  2  0  0  0  0
  5  7  1  0  0  0  0
  5  9  1  0  0  0  0
  6  8  2  0  0  0  0
  7 11  1  0  0  0  0
  8 15  1  0  0  0  0
  9  6  1  0  0  0  0
 10 13  1  0  0  0  0
 11 12  2  0  0  0  0
 12  6  1  0  0  0  0
 12 10  1  0  0  0  0
 13  1  1  0  0  0  0
 13  4  1  1  0  0  0
 15 14  1  0  0  0  0
 16 18  1  0  0  0  0
 16 20  1  0  0  0  0
 17 19  1  0  0  0  0
 18 17  2  0  0  0  0
 20 25  1  6  0  0  0
 21 22  1  0  0  0  0
 21 20  1  0  0  0  0
 22 17  1  0  0  0  0
 23 25  1  0  0  0  0
 24 25  1  0  0  0  0
M  END
>  <MODEL>
1

>  <REMARK>
 VINA RESULT:      -7.8      0.000      0.000
  Name = 
  3 active torsions:
  status: ('A' for Active; 'I' for Inactive)
    1  A    between atoms: C_3  and  C_19
    2  A    between atoms: C_12  and  N_21
    3  A    between atoms: C_18  and  C_23
                            x       y       z     vdW  Elec       q    Type
                         _______ _______ _______ _____ _____    ______ ____

>  <TORSDO>
F 3

$$$$
=
 OpenBabel11042413483D

 25 28  0  0  1  0  0  0  0  0999 V2000
  189.5170  175.1770  146.0550 C   0  0  2  0  0  3  0  0  0  0  0  0
  190.1590  175.3750  147.4130 C   0  0  0  0  0  2  0  0  0  0  0  0
  190.9440  175.6840  146.1560 C   0  0  1  0  0  3  0  0  0  0  0  0
  187.6000  176.4520  146.7590 C   0  0  0  0  0  3  0  0  0  0  0  0
  185.9550  178.8370  142.0900 C   0  0  0  0  0  2  0  0  0  0  0  0
  186.0380  178.0020  144.4660 C   0  0  0  0  0  0  0  0  0  0  0  0
  185.7430  177.3640  141.7560 C   0  0  0  0  0  2  0  0  0  0  0  0
  185.3270  178.0890  145.6260 C   0  0  0  0  0  3  0  0  0  0  0  0
  185.7310  179.0360  143.5190 N   0  0  0  0  0  2  0  0  0  0  0  0
  187.8720  176.0660  144.5340 O   0  0  0  0  0  0  0  0  0  0  0  0
  186.6640  176.5490  142.6150 C   0  0  0  0  0  3  0  0  0  0  0  0
  186.8420  176.8250  143.9130 C   0  0  0  0  0  0  0  0  0  0  0  0
  188.5950  176.3410  145.7430 C   0  0  2  0  0  3  0  0  0  0  0  0
  186.4900  176.6930  147.0820 C   0  0  0  0  0  3  0  0  0  0  0  0
  185.1670  177.1400  146.7890 C   0  0  0  0  0  2  0  0  0  0  0  0
  195.1480  173.8090  144.2870 C   0  0  0  0  0  2  0  0  0  0  0  0
  193.1270  174.7910  145.2510 C   0  0  0  0  0  0  0  0  0  0  0  0
  193.8430  173.7470  144.9490 N   0  0  0  0  0  0  0  0  0  0  0  0
  191.8520  174.5890  145.8620 N   0  0  0  0  0  2  0  0  0  0  0  0
  195.8760  175.1100  144.6230 C   0  0  2  0  0  3  0  0  0  0  0  0
  194.9380  176.2460  144.2380 C   0  0  0  0  0  2  0  0  0  0  0  0
  193.6670  176.1920  145.0810 C   0  0  0  0  0  2  0  0  0  0  0  0
  197.3470  174.0420  142.8950 C   0  0  0  0  0  1  0  0  0  0  0  0
  197.2500  176.4990  143.0330 C   0  0  0  0  0  1  0  0  0  0  0  0
  197.1910  175.2170  143.8470 C   0  0  0  0  0  3  0  0  0  0  0  0
  1  3  1  0  0  0  0
  1  2  1  1  0  0  0
  3 19  1  6  0  0  0
  3  2  1  0  0  0  0
  4 14  2  0  0  0  0
  5  9  1  0  0  0  0
  6  8  2  0  0  0  0
  7  5  1  0  0  0  0
  7 11  1  0  0  0  0
  8 15  1  0  0  0  0
  9  6  1  0  0  0  0
 10 13  1  0  0  0  0
 11 12  2  0  0  0  0
 12  6  1  0  0  0  0
 12 10  1  0  0  0  0
 13  1  1  0  0  0  0
 13  4  1  1  0  0  0
 15 14  1  0  0  0  0
 16 20  1  0  0  0  0
 16 18  1  0  0  0  0
 17 19  1  0  0  0  0
 18 17  2  0  0  0  0
 20 25  1  6  0  0  0
 21 20  1  0  0  0  0
 21 22  1  0  0  0  0
 22 17  1  0  0  0  0
 23 25  1  0  0  0  0
 24 25  1  0  0  0  0
M  END
>  <MODEL>
2

>  <REMARK>
 VINA RESULT:      -7.2      1.171      1.264
  Name = 
  3 active torsions:
  status: ('A' for Active; 'I' for Inactive)
    1  A    between atoms: C_3  and  C_19
    2  A    between atoms: C_12  and  N_21
    3  A    between atoms: C_18  and  C_23
                            x       y       z     vdW  Elec       q    Type
                         _______ _______ _______ _____ _____    ______ ____

>  <TORSDO>
F 3

$$$$
=
 OpenBabel11042413483D

 25 28  0  0  1  0  0  0  0  0999 V2000
  193.5830  175.6890  145.3410 C   0  0  2  0  0  3  0  0  0  0  0  0
  193.6390  176.7200  146.4500 C   0  0  0  0  0  2  0  0  0  0  0  0
  192.3550  175.9630  146.1890 C   0  0  1  0  0  3  0  0  0  0  0  0
  195.6500  174.5290  145.7680 C   0  0  0  0  0  3  0  0  0  0  0  0
  194.1370  169.2500  145.5640 C   0  0  0  0  0  2  0  0  0  0  0  0
  195.5190  171.3560  145.6460 C   0  0  0  0  0  0  0  0  0  0  0  0
  193.8530  169.6910  144.1310 C   0  0  0  0  0  2  0  0  0  0  0  0
  196.8200  171.7430  145.7630 C   0  0  0  0  0  3  0  0  0  0  0  0
  195.2740  170.0090  146.0770 N   0  0  0  0  0  2  0  0  0  0  0  0
  193.9250  173.3490  144.8710 O   0  0  0  0  0  0  0  0  0  0  0  0
  193.6210  171.1730  144.1320 C   0  0  0  0  0  3  0  0  0  0  0  0
  194.3860  172.0050  144.8490 C   0  0  0  0  0  0  0  0  0  0  0  0
  194.2290  174.3960  145.8030 C   0  0  2  0  0  3  0  0  0  0  0  0
  196.7160  174.0620  145.5730 C   0  0  0  0  0  3  0  0  0  0  0  0
  197.5640  172.9570  145.2610 C   0  0  0  0  0  2  0  0  0  0  0  0
  187.8150  177.5960  145.0030 C   0  0  0  0  0  2  0  0  0  0  0  0
  190.0310  176.8080  145.6710 C   0  0  0  0  0  0  0  0  0  0  0  0
  189.2720  177.5230  144.8910 N   0  0  0  0  0  0  0  0  0  0  0  0
  191.4380  176.7950  145.4300 N   0  0  0  0  0  2  0  0  0  0  0  0
  187.3600  177.3760  146.4450 C   0  0  2  0  0  3  0  0  0  0  0  0
  187.9440  176.0410  146.8880 C   0  0  0  0  0  2  0  0  0  0  0  0
  189.4690  176.1030  146.8840 C   0  0  0  0  0  2  0  0  0  0  0  0
  185.3280  178.5190  147.3700 C   0  0  0  0  0  1  0  0  0  0  0  0
  185.1920  177.4330  145.1640 C   0  0  0  0  0  1  0  0  0  0  0  0
  185.8330  177.3500  146.5400 C   0  0  0  0  0  3  0  0  0  0  0  0
  1 13  1  0  0  0  0
  1  3  1  0  0  0  0
  1  2  1  1  0  0  0
  3 19  1  6  0  0  0
  3  2  1  0  0  0  0
  5  9  1  0  0  0  0
  6  8  2  0  0  0  0
  6  9  1  0  0  0  0
  7 11  1  0  0  0  0
  7  5  1  0  0  0  0
 10 13  1  0  0  0  0
 11 12  2  0  0  0  0
 12 10  1  0  0  0  0
 12  6  1  0  0  0  0
 13  4  1  6  0  0  0
 14  4  2  0  0  0  0
 15 14  1  0  0  0  0
 15  8  1  0  0  0  0
 16 20  1  0  0  0  0
 17 22  1  0  0  0  0
 18 16  1  0  0  0  0
 18 17  2  0  0  0  0
 19 17  1  0  0  0  0
 20 25  1  6  0  0  0
 20 21  1  0  0  0  0
 22 21  1  0  0  0  0
 24 25  1  0  0  0  0
 25 23  1  0  0  0  0
M  END
>  <MODEL>
3

>  <REMARK>
 VINA RESULT:      -7.1      2.392      9.491
  Name = 
  3 active torsions:
  status: ('A' for Active; 'I' for Inactive)
    1  A    between atoms: C_3  and  C_19
    2  A    between atoms: C_12  and  N_21
    3  A    between atoms: C_18  and  C_23
                            x       y       z     vdW  Elec       q    Type
                         _______ _______ _______ _____ _____    ______ ____

>  <TORSDO>
F 3

$$$$
=
 OpenBabel11042413483D

 25 28  0  0  1  0  0  0  0  0999 V2000
  189.6440  174.1590  142.9110 C   0  0  2  0  0  3  0  0  0  0  0  0
  189.4670  173.8900  141.4310 C   0  0  0  0  0  2  0  0  0  0  0  0
  189.2550  175.2870  141.9730 C   0  0  1  0  0  3  0  0  0  0  0  0
  191.6640  172.9750  143.4790 C   0  0  0  0  0  3  0  0  0  0  0  0
  194.7220  176.8740  145.8530 C   0  0  0  0  0  2  0  0  0  0  0  0
  193.8630  174.6450  145.0520 C   0  0  0  0  0  0  0  0  0  0  0  0
  193.5510  176.7880  146.8270 C   0  0  0  0  0  2  0  0  0  0  0  0
  194.2400  173.3360  145.0150 C   0  0  0  0  0  3  0  0  0  0  0  0
  194.9510  175.5560  145.2680 N   0  0  0  0  0  2  0  0  0  0  0  0
  191.2790  174.9800  144.4820 O   0  0  0  0  0  0  0  0  0  0  0  0
  192.3600  176.2580  146.0850 C   0  0  0  0  0  3  0  0  0  0  0  0
  192.4650  175.2420  145.2200 C   0  0  0  0  0  0  0  0  0  0  0  0
  191.1210  174.2740  143.2430 C   0  0  2  0  0  3  0  0  0  0  0  0
  192.4000  172.2660  144.0680 C   0  0  0  0  0  3  0  0  0  0  0  0
  193.4460  172.0530  145.0170 C   0  0  0  0  0  2  0  0  0  0  0  0
  185.3330  177.1900  144.3550 C   0  0  0  0  0  2  0  0  0  0  0  0
  187.3020  176.3320  143.1880 C   0  0  0  0  0  0  0  0  0  0  0  0
  186.0100  176.4490  143.2900 N   0  0  0  0  0  0  0  0  0  0  0  0
  187.8340  175.5470  142.1200 N   0  0  0  0  0  2  0  0  0  0  0  0
  186.2030  178.3370  144.8680 C   0  0  2  0  0  3  0  0  0  0  0  0
  187.5290  177.7220  145.2950 C   0  0  0  0  0  2  0  0  0  0  0  0
  188.2360  177.1020  144.0930 C   0  0  0  0  0  2  0  0  0  0  0  0
  184.0660  178.6660  146.1400 C   0  0  0  0  0  1  0  0  0  0  0  0
  186.2020  178.6700  147.3650 C   0  0  0  0  0  1  0  0  0  0  0  0
  185.5350  179.0440  146.0510 C   0  0  0  0  0  3  0  0  0  0  0  0
  1  2  1  6  0  0  0
  1 13  1  0  0  0  0
  2  3  1  0  0  0  0
  3 19  1  1  0  0  0
  3  1  1  0  0  0  0
  4 14  2  0  0  0  0
  5  7  1  0  0  0  0
  6 12  1  0  0  0  0
  6  9  1  0  0  0  0
  8 15  1  0  0  0  0
  8  6  2  0  0  0  0
  9  5  1  0  0  0  0
 10 12  1  0  0  0  0
 11  7  1  0  0  0  0
 12 11  2  0  0  0  0
 13  4  1  1  0  0  0
 13 10  1  0  0  0  0
 14 15  1  0  0  0  0
 16 20  1  0  0  0  0
 17 18  2  0  0  0  0
 17 22  1  0  0  0  0
 18 16  1  0  0  0  0
 19 17  1  0  0  0  0
 20 21  1  0  0  0  0
 20 25  1  1  0  0  0
 22 21  1  0  0  0  0
 25 23  1  0  0  0  0
 25 24  1  0  0  0  0
M  END
>  <MODEL>
4

>  <REMARK>
 VINA RESULT:      -7.0      2.483      8.747
  Name = 
  3 active torsions:
  status: ('A' for Active; 'I' for Inactive)
    1  A    between atoms: C_3  and  C_19
    2  A    between atoms: C_12  and  N_21
    3  A    between atoms: C_18  and  C_23
                            x       y       z     vdW  Elec       q    Type
                         _______ _______ _______ _____ _____    ______ ____

>  <TORSDO>
F 3

$$$$
=
 OpenBabel11042413483D

 25 28  0  0  1  0  0  0  0  0999 V2000
  190.5060  175.7390  146.6650 C   0  0  2  0  0  3  0  0  0  0  0  0
  191.1510  176.4780  147.8200 C   0  0  0  0  0  2  0  0  0  0  0  0
  191.8810  176.3600  146.4990 C   0  0  1  0  0  3  0  0  0  0  0  0
  188.2740  176.6370  146.7650 C   0  0  0  0  0  3  0  0  0  0  0  0
  187.2940  178.0230  141.5400 C   0  0  0  0  0  2  0  0  0  0  0  0
  187.0000  177.5190  143.9910 C   0  0  0  0  0  0  0  0  0  0  0  0
  187.4450  176.5100  141.4170 C   0  0  0  0  0  2  0  0  0  0  0  0
  186.0450  177.5870  144.9610 C   0  0  0  0  0  3  0  0  0  0  0  0
  186.7220  178.3390  142.8460 N   0  0  0  0  0  2  0  0  0  0  0  0
  189.1040  176.0550  144.7300 O   0  0  0  0  0  0  0  0  0  0  0  0
  188.2870  176.0270  142.5610 C   0  0  0  0  0  3  0  0  0  0  0  0
  188.1150  176.4890  143.8050 C   0  0  0  0  0  0  0  0  0  0  0  0
  189.4740  176.6250  145.9930 C   0  0  2  0  0  3  0  0  0  0  0  0
  187.0960  176.6650  146.8240 C   0  0  0  0  0  3  0  0  0  0  0  0
  185.8110  176.7720  146.2100 C   0  0  0  0  0  2  0  0  0  0  0  0
  195.9340  173.9790  144.8920 C   0  0  0  0  0  2  0  0  0  0  0  0
  193.9840  175.2260  145.6800 C   0  0  0  0  0  0  0  0  0  0  0  0
  194.7900  174.2070  145.7750 N   0  0  0  0  0  0  0  0  0  0  0  0
  192.8810  175.3110  146.5830 N   0  0  0  0  0  2  0  0  0  0  0  0
  196.5000  175.2980  144.3680 C   0  0  2  0  0  3  0  0  0  0  0  0
  195.3460  176.0330  143.7000 C   0  0  0  0  0  2  0  0  0  0  0  0
  194.2650  176.3630  144.7250 C   0  0  0  0  0  2  0  0  0  0  0  0
  197.4910  173.6720  142.7350 C   0  0  0  0  0  1  0  0  0  0  0  0
  197.6130  176.0830  142.2500 C   0  0  0  0  0  1  0  0  0  0  0  0
  197.6290  175.0500  143.3640 C   0  0  0  0  0  3  0  0  0  0  0  0
  1  2  1  1  0  0  0
  3 19  1  1  0  0  0
  3  1  1  0  0  0  0
  3  2  1  0  0  0  0
  4 14  2  0  0  0  0
  5  9  1  0  0  0  0
  6  8  2  0  0  0  0
  7  5  1  0  0  0  0
  7 11  1  0  0  0  0
  8 15  1  0  0  0  0
  9  6  1  0  0  0  0
 10 13  1  0  0  0  0
 11 12  2  0  0  0  0
 12  6  1  0  0  0  0
 12 10  1  0  0  0  0
 13  1  1  0  0  0  0
 13  4  1  1  0  0  0
 15 14  1  0  0  0  0
 16 18  1  0  0  0  0
 17 18  2  0  0  0  0
 17 19  1  0  0  0  0
 20 25  1  6  0  0  0
 20 16  1  0  0  0  0
 21 20  1  0  0  0  0
 21 22  1  0  0  0  0
 22 17  1  0  0  0  0
 23 25  1  0  0  0  0
 24 25  1  0  0  0  0
M  END
>  <MODEL>
5

>  <REMARK>
 VINA RESULT:      -6.9      1.475      1.765
  Name = 
  3 active torsions:
  status: ('A' for Active; 'I' for Inactive)
    1  A    between atoms: C_3  and  C_19
    2  A    between atoms: C_12  and  N_21
    3  A    between atoms: C_18  and  C_23
                            x       y       z     vdW  Elec       q    Type
                         _______ _______ _______ _____ _____    ______ ____

>  <TORSDO>
F 3

$$$$
=
 OpenBabel11042413483D

 25 28  0  0  1  0  0  0  0  0999 V2000
  188.1220  175.5890  142.1630 C   0  0  2  0  0  3  0  0  0  0  0  0
  187.8920  174.1980  141.6100 C   0  0  0  0  0  2  0  0  0  0  0  0
  188.8490  174.4000  142.7650 C   0  0  1  0  0  3  0  0  0  0  0  0
  186.0940  176.8690  142.3790 C   0  0  0  0  0  3  0  0  0  0  0  0
  185.5750  177.4020  147.8230 C   0  0  0  0  0  2  0  0  0  0  0  0
  185.2630  177.6780  145.3370 C   0  0  0  0  0  0  0  0  0  0  0  0
  186.8720  178.1650  147.5770 C   0  0  0  0  0  2  0  0  0  0  0  0
  184.4410  178.3130  144.4560 C   0  0  0  0  0  3  0  0  0  0  0  0
  184.7100  177.5480  146.6550 N   0  0  0  0  0  2  0  0  0  0  0  0
  187.4770  176.7420  144.1790 O   0  0  0  0  0  0  0  0  0  0  0  0
  187.4930  177.6440  146.3150 C   0  0  0  0  0  3  0  0  0  0  0  0
  186.7610  177.3880  145.2240 C   0  0  0  0  0  0  0  0  0  0  0  0
  186.9720  175.9830  143.0710 C   0  0  2  0  0  3  0  0  0  0  0  0
  185.3700  177.8010  142.3820 C   0  0  0  0  0  3  0  0  0  0  0  0
  184.6690  178.8430  143.0600 C   0  0  0  0  0  2  0  0  0  0  0  0
  193.6990  175.3890  143.1900 C   0  0  0  0  0  2  0  0  0  0  0  0
  191.3150  174.8640  143.0590 C   0  0  0  0  0  0  0  0  0  0  0  0
  192.4970  174.8960  142.5160 N   0  0  0  0  0  0  0  0  0  0  0  0
  190.2170  174.3920  142.2770 N   0  0  0  0  0  2  0  0  0  0  0  0
  193.6060  175.1860  144.7020 C   0  0  2  0  0  3  0  0  0  0  0  0
  192.3230  175.8700  145.1560 C   0  0  0  0  0  2  0  0  0  0  0  0
  191.1110  175.1950  144.5200 C   0  0  0  0  0  2  0  0  0  0  0  0
  194.3700  176.7460  146.5110 C   0  0  0  0  0  1  0  0  0  0  0  0
  195.6910  174.7230  146.0380 C   0  0  0  0  0  1  0  0  0  0  0  0
  194.8180  175.7980  145.4110 C   0  0  0  0  0  3  0  0  0  0  0  0
  1  2  1  6  0  0  0
  1  3  1  0  0  0  0
  1 13  1  0  0  0  0
  2  3  1  0  0  0  0
  3 19  1  6  0  0  0
  4 14  2  0  0  0  0
  6  9  1  0  0  0  0
  7  5  1  0  0  0  0
  8  6  2  0  0  0  0
  9  5  1  0  0  0  0
 10 12  1  0  0  0  0
 11  7  1  0  0  0  0
 12  6  1  0  0  0  0
 12 11  2  0  0  0  0
 13  4  1  6  0  0  0
 13 10  1  0  0  0  0
 14 15  1  0  0  0  0
 15  8  1  0  0  0  0
 16 20  1  0  0  0  0
 17 22  1  0  0  0  0
 18 17  2  0  0  0  0
 18 16  1  0  0  0  0
 19 17  1  0  0  0  0
 20 21  1  0  0  0  0
 20 25  1  1  0  0  0
 22 21  1  0  0  0  0
 25 24  1  0  0  0  0
 25 23  1  0  0  0  0
M  END
>  <MODEL>
6

>  <REMARK>
 VINA RESULT:      -6.8      2.125      3.965
  Name = 
  3 active torsions:
  status: ('A' for Active; 'I' for Inactive)
    1  A    between atoms: C_3  and  C_19
    2  A    between atoms: C_12  and  N_21
    3  A    between atoms: C_18  and  C_23
                            x       y       z     vdW  Elec       q    Type
                         _______ _______ _______ _____ _____    ______ ____

>  <TORSDO>
F 3

$$$$
=
 OpenBabel11042413483D

 25 28  0  0  1  0  0  0  0  0999 V2000
  191.5640  173.6290  144.8570 C   0  0  2  0  0  3  0  0  0  0  0  0
  190.3710  172.8820  144.2980 C   0  0  0  0  0  2  0  0  0  0  0  0
  190.3300  174.3900  144.4100 C   0  0  1  0  0  3  0  0  0  0  0  0
  193.3130  172.5070  143.6390 C   0  0  0  0  0  3  0  0  0  0  0  0
  196.4240  176.6780  141.8750 C   0  0  0  0  0  2  0  0  0  0  0  0
  195.5950  174.3680  142.4450 C   0  0  0  0  0  0  0  0  0  0  0  0
  196.5850  176.8130  143.3860 C   0  0  0  0  0  2  0  0  0  0  0  0
  195.9540  173.0640  142.2810 C   0  0  0  0  0  3  0  0  0  0  0  0
  196.2520  175.2680  141.5400 N   0  0  0  0  0  2  0  0  0  0  0  0
  193.6470  174.6740  144.2420 O   0  0  0  0  0  0  0  0  0  0  0  0
  195.3880  176.1930  144.0440 C   0  0  0  0  0  3  0  0  0  0  0  0
  194.8760  175.0310  143.6210 C   0  0  0  0  0  0  0  0  0  0  0  0
  192.6400  173.7560  143.7940 C   0  0  2  0  0  3  0  0  0  0  0  0
  194.3020  171.8970  143.4370 C   0  0  0  0  0  3  0  0  0  0  0  0
  195.6900  171.8290  143.1090 C   0  0  0  0  0  2  0  0  0  0  0  0
  187.1880  177.3560  146.8630 C   0  0  0  0  0  2  0  0  0  0  0  0
  188.6760  175.8920  145.5900 C   0  0  0  0  0  0  0  0  0  0  0  0
  188.0930  176.2160  146.7080 N   0  0  0  0  0  0  0  0  0  0  0  0
  189.5670  174.7760  145.5840 N   0  0  0  0  0  2  0  0  0  0  0  0
  186.4610  177.6650  145.5550 C   0  0  2  0  0  3  0  0  0  0  0  0
  187.5360  177.8740  144.4970 C   0  0  0  0  0  2  0  0  0  0  0  0
  188.3350  176.5890  144.2940 C   0  0  0  0  0  2  0  0  0  0  0  0
  185.5010  179.6530  144.3640 C   0  0  0  0  0  1  0  0  0  0  0  0
  184.1860  178.5740  146.1450 C   0  0  0  0  0  1  0  0  0  0  0  0
  185.5960  178.9210  145.6930 C   0  0  0  0  0  3  0  0  0  0  0  0
  1  2  1  6  0  0  0
  2  3  1  0  0  0  0
  3  1  1  0  0  0  0
  3 19  1  1  0  0  0
  5  7  1  0  0  0  0
  6 12  1  0  0  0  0
  7 11  1  0  0  0  0
  8  6  2  0  0  0  0
  8 15  1  0  0  0  0
  9  5  1  0  0  0  0
  9  6  1  0  0  0  0
 12 11  2  0  0  0  0
 12 10  1  0  0  0  0
 13  4  1  1  0  0  0
 13 10  1  0  0  0  0
 13  1  1  0  0  0  0
 14  4  2  0  0  0  0
 15 14  1  0  0  0  0
 17 18  2  0  0  0  0
 18 16  1  0  0  0  0
 19 17  1  0  0  0  0
 20 25  1  1  0  0  0
 20 16  1  0  0  0  0
 21 20  1  0  0  0  0
 22 21  1  0  0  0  0
 22 17  1  0  0  0  0
 23 25  1  0  0  0  0
 25 24  1  0  0  0  0
M  END
>  <MODEL>
7

>  <REMARK>
 VINA RESULT:      -6.7      2.703      9.298
  Name = 
  3 active torsions:
  status: ('A' for Active; 'I' for Inactive)
    1  A    between atoms: C_3  and  C_19
    2  A    between atoms: C_12  and  N_21
    3  A    between atoms: C_18  and  C_23
                            x       y       z     vdW  Elec       q    Type
                         _______ _______ _______ _____ _____    ______ ____

>  <TORSDO>
F 3

$$$$
=
 OpenBabel11042413483D

 25 28  0  0  1  0  0  0  0  0999 V2000
  189.9920  177.2890  145.9900 C   0  0  2  0  0  3  0  0  0  0  0  0
  189.4490  177.1100  147.3920 C   0  0  0  0  0  2  0  0  0  0  0  0
  188.6340  176.6470  146.2040 C   0  0  1  0  0  3  0  0  0  0  0  0
  192.1210  176.3280  146.5790 C   0  0  0  0  0  3  0  0  0  0  0  0
  193.5250  173.6110  142.0150 C   0  0  0  0  0  2  0  0  0  0  0  0
  193.6020  174.7050  144.2830 C   0  0  0  0  0  0  0  0  0  0  0  0
  193.5120  175.0490  141.5060 C   0  0  0  0  0  2  0  0  0  0  0  0
  194.4410  174.8350  145.3480 C   0  0  0  0  0  3  0  0  0  0  0  0
  193.9290  173.6080  143.4180 N   0  0  0  0  0  2  0  0  0  0  0  0
  191.5580  176.4170  144.3770 O   0  0  0  0  0  0  0  0  0  0  0  0
  192.5970  175.8500  142.3840 C   0  0  0  0  0  3  0  0  0  0  0  0
  192.6000  175.7110  143.7150 C   0  0  0  0  0  0  0  0  0  0  0  0
  191.0130  176.2070  145.6880 C   0  0  2  0  0  3  0  0  0  0  0  0
  193.2810  176.2540  146.7850 C   0  0  0  0  0  3  0  0  0  0  0  0
  194.6090  175.9260  146.3780 C   0  0  0  0  0  2  0  0  0  0  0  0
  185.7060  179.1670  143.0800 C   0  0  0  0  0  2  0  0  0  0  0  0
  187.1210  177.8520  144.5790 C   0  0  0  0  0  0  0  0  0  0  0  0
  186.2520  178.8030  144.3880 N   0  0  0  0  0  0  0  0  0  0  0  0
  187.6030  177.6240  145.9040 N   0  0  0  0  0  2  0  0  0  0  0  0
  185.6720  177.9620  142.1410 C   0  0  2  0  0  3  0  0  0  0  0  0
  187.0930  177.4140  142.0830 C   0  0  0  0  0  2  0  0  0  0  0  0
  187.5260  176.9210  143.4600 C   0  0  0  0  0  2  0  0  0  0  0  0
  185.8840  177.5260  139.6800 C   0  0  0  0  0  1  0  0  0  0  0  0
  183.6970  178.1900  140.5950 C   0  0  0  0  0  1  0  0  0  0  0  0
  185.1990  178.3690  140.7440 C   0  0  0  0  0  3  0  0  0  0  0  0
  1  3  1  0  0  0  0
  1  2  1  1  0  0  0
  3 19  1  6  0  0  0
  3  2  1  0  0  0  0
  4 14  2  0  0  0  0
  5  9  1  0  0  0  0
  6  8  2  0  0  0  0
  7  5  1  0  0  0  0
  7 11  1  0  0  0  0
  8 15  1  0  0  0  0
  9  6  1  0  0  0  0
 10 13  1  0  0  0  0
 11 12  2  0  0  0  0
 12  6  1  0  0  0  0
 12 10  1  0  0  0  0
 13  1  1  0  0  0  0
 13  4  1  1  0  0  0
 15 14  1  0  0  0  0
 16 18  1  0  0  0  0
 17 19  1  0  0  0  0
 18 17  2  0  0  0  0
 20 25  1  6  0  0  0
 20 16  1  0  0  0  0
 21 20  1  0  0  0  0
 21 22  1  0  0  0  0
 22 17  1  0  0  0  0
 23 25  1  0  0  0  0
 24 25  1  0  0  0  0
M  END
>  <MODEL>
8

>  <REMARK>
 VINA RESULT:      -6.6      2.185      8.543
  Name = 
  3 active torsions:
  status: ('A' for Active; 'I' for Inactive)
    1  A    between atoms: C_3  and  C_19
    2  A    between atoms: C_12  and  N_21
    3  A    between atoms: C_18  and  C_23
                            x       y       z     vdW  Elec       q    Type
                         _______ _______ _______ _____ _____    ______ ____

>  <TORSDO>
F 3

$$$$
=
 OpenBabel11042413483D

 25 28  0  0  1  0  0  0  0  0999 V2000
  189.3340  175.7640  146.3450 C   0  0  2  0  0  3  0  0  0  0  0  0
  190.5680  176.2500  147.0770 C   0  0  0  0  0  2  0  0  0  0  0  0
  190.6680  175.8330  145.6250 C   0  0  1  0  0  3  0  0  0  0  0  0
  187.6570  177.3560  147.0180 C   0  0  0  0  0  3  0  0  0  0  0  0
  185.5600  179.0050  142.2150 C   0  0  0  0  0  2  0  0  0  0  0  0
  185.9170  178.6210  144.6790 C   0  0  0  0  0  0  0  0  0  0  0  0
  185.1750  177.5290  142.2100 C   0  0  0  0  0  2  0  0  0  0  0  0
  185.3940  179.0020  145.8790 C   0  0  0  0  0  3  0  0  0  0  0  0
  185.5650  179.4900  143.5920 N   0  0  0  0  0  2  0  0  0  0  0  0
  187.5660  176.5360  144.8990 O   0  0  0  0  0  0  0  0  0  0  0  0
  186.1370  176.7890  143.0910 C   0  0  0  0  0  3  0  0  0  0  0  0
  186.5270  177.2790  144.2740 C   0  0  0  0  0  0  0  0  0  0  0  0
  188.4800  176.9470  145.9260 C   0  0  2  0  0  3  0  0  0  0  0  0
  186.6320  177.7770  147.4250 C   0  0  0  0  0  3  0  0  0  0  0  0
  185.3240  178.3090  147.2180 C   0  0  0  0  0  2  0  0  0  0  0  0
  191.2200  171.4170  143.4170 C   0  0  0  0  0  2  0  0  0  0  0  0
  190.9680  173.6290  144.4280 C   0  0  0  0  0  0  0  0  0  0  0  0
  191.4370  172.4150  144.4660 N   0  0  0  0  0  0  0  0  0  0  0  0
  191.2210  174.4930  145.5360 N   0  0  0  0  0  2  0  0  0  0  0  0
  191.0470  172.0800  142.0510 C   0  0  2  0  0  3  0  0  0  0  0  0
  189.9060  173.0790  142.1930 C   0  0  0  0  0  2  0  0  0  0  0  0
  190.2780  174.1670  143.1960 C   0  0  0  0  0  2  0  0  0  0  0  0
  191.6730  171.1650  139.8010 C   0  0  0  0  0  1  0  0  0  0  0  0
  190.8200  169.6260  141.5250 C   0  0  0  0  0  1  0  0  0  0  0  0
  190.7170  171.0400  140.9760 C   0  0  0  0  0  3  0  0  0  0  0  0
  1  2  1  1  0  0  0
  3 19  1  1  0  0  0
  3  1  1  0  0  0  0
  3  2  1  0  0  0  0
  4 14  2  0  0  0  0
  5  9  1  0  0  0  0
  6  8  2  0  0  0  0
  7  5  1  0  0  0  0
  7 11  1  0  0  0  0
  8 15  1  0  0  0  0
  9  6  1  0  0  0  0
 10 13  1  0  0  0  0
 11 12  2  0  0  0  0
 12  6  1  0  0  0  0
 12 10  1  0  0  0  0
 13  1  1  0  0  0  0
 13  4  1  1  0  0  0
 15 14  1  0  0  0  0
 16 18  1  0  0  0  0
 17 18  2  0  0  0  0
 17 19  1  0  0  0  0
 20 25  1  6  0  0  0
 20 21  1  0  0  0  0
 20 16  1  0  0  0  0
 21 22  1  0  0  0  0
 22 17  1  0  0  0  0
 23 25  1  0  0  0  0
 25 24  1  0  0  0  0
M  END
>  <MODEL>
9

>  <REMARK>
 VINA RESULT:      -6.6      3.007      3.763
  Name = 
  3 active torsions:
  status: ('A' for Active; 'I' for Inactive)
    1  A    between atoms: C_3  and  C_19
    2  A    between atoms: C_12  and  N_21
    3  A    between atoms: C_18  and  C_23
                            x       y       z     vdW  Elec       q    Type
                         _______ _______ _______ _____ _____    ______ ____

>  <TORSDO>
F 3

$$$$
