=
 OpenBabel11042415113D

 27 28  0  0  1  0  0  0  0  0999 V2000
  187.8880  178.0840  144.3090 O   0  0  0  0  0  0  0  0  0  0  0  0
  188.2540  176.7870  144.5750 N   0  0  0  0  0  2  0  0  0  0  0  0
  184.5780  178.2140  147.0470 N   0  0  0  0  0  1  0  0  0  0  0  0
  186.5340  177.2990  145.9920 C   0  0  0  0  0  0  0  0  0  0  0  0
  187.6280  176.3590  145.8210 C   0  0  2  0  0  3  0  0  0  0  0  0
  185.6090  177.2350  146.9500 C   0  0  0  0  0  3  0  0  0  0  0  0
  186.6480  178.3150  144.9420 C   0  0  2  0  0  3  0  0  0  0  0  0
  188.6200  176.4790  146.9690 C   0  0  0  0  0  2  0  0  0  0  0  0
  189.3910  175.1820  147.1340 C   0  0  0  0  0  2  0  0  0  0  0  0
  190.8840  175.4470  147.0740 C   0  0  0  0  0  2  0  0  0  0  0  0
  191.5030  174.5880  146.0750 N   0  0  0  0  0  2  0  0  0  0  0  0
  191.4300  175.6630  142.5240 C   0  0  0  0  0  3  0  0  0  0  0  0
  191.6970  175.6240  143.8930 C   0  0  0  0  0  3  0  0  0  0  0  0
  190.4240  173.5710  144.0480 C   0  0  0  0  0  0  0  0  0  0  0  0
  189.8810  172.4730  144.7740 N   0  0  0  0  0  1  0  0  0  0  0  0
  190.1830  173.6530  142.6740 C   0  0  0  0  0  3  0  0  0  0  0  0
  191.1970  174.5760  144.6730 C   0  0  0  0  0  0  0  0  0  0  0  0
  190.6840  174.6850  141.9470 N   0  0  0  0  0  0  0  0  0  0  0  0
  185.5160  178.1760  143.9320 C   0  0  0  0  0  2  0  0  0  0  0  0
  185.7200  179.0540  142.8650 O   0  0  0  0  0  0  0  0  0  0  0  0
  185.4230  178.3050  141.7220 C   0  0  1  0  0  3  0  0  0  0  0  0
  186.9760  176.7610  140.4550 C   0  0  0  0  0  0  0  0  0  0  0  0
  187.7420  175.7630  140.4660 O   0  0  0  0  0  0  0  0  0  0  0  0
  186.3030  177.1470  141.6540 N   0  0  0  0  0  2  0  0  0  0  0  0
  186.7830  177.4880  139.2460 N   0  0  0  0  0  1  0  0  0  0  0  0
  183.5280  178.3140  140.5820 C   0  0  0  0  0  1  0  0  0  0  0  0
  184.0960  177.8750  141.7790 O   0  0  0  0  0  0  0  0  0  0  0  0
  1  2  1  0  0  0  0
  1  7  1  0  0  0  0
  2  5  1  0  0  0  0
  4  6  2  0  0  0  0
  5  4  1  0  0  0  0
  5  8  1  1  0  0  0
  6  3  1  0  0  0  0
  7 19  1  6  0  0  0
  7  4  1  0  0  0  0
  8  9  1  0  0  0  0
 10  9  1  0  0  0  0
 11 10  1  0  0  0  0
 12 13  1  0  0  0  0
 13 17  2  0  0  0  0
 14 17  1  0  0  0  0
 14 15  1  0  0  0  0
 16 14  2  0  0  0  0
 17 11  1  0  0  0  0
 18 12  2  0  0  0  0
 18 16  1  0  0  0  0
 20 19  1  0  0  0  0
 21 24  1  1  0  0  0
 21 27  1  0  0  0  0
 21 20  1  0  0  0  0
 22 23  2  0  0  0  0
 22 24  1  0  0  0  0
 25 22  1  0  0  0  0
 26 27  1  0  0  0  0
M  END
>  <MODEL>
1

>  <REMARK>
 VINA RESULT:      -5.7      0.000      0.000
  Name = 
  10 active torsions:
  status: ('A' for Active; 'I' for Inactive)
    1  A    between atoms: O_2  and  C_5
    2  A    between atoms: O_2  and  C_27
    3  A    between atoms: C_5  and  O_11
    4  A    between atoms: C_5  and  N_14
    5  A    between atoms: C_9  and  N_13
    6  A    between atoms: C_9  and  C_25
    7  A    between atoms: N_13  and  C_23
    8  A    between atoms: C_17  and  C_18
    9  A    between atoms: C_18  and  C_25
   10  A    between atoms: C_22  and  C_27
                            x       y       z     vdW  Elec       q    Type
                         _______ _______ _______ _____ _____    ______ ____

>  <TORSDO>
F 10

$$$$
=
 OpenBabel11042415113D

 27 28  0  0  1  0  0  0  0  0999 V2000
  188.2630  177.7750  143.1070 O   0  0  0  0  0  0  0  0  0  0  0  0
  189.3000  176.8730  143.0850 N   0  0  0  0  0  2  0  0  0  0  0  0
  186.8100  176.7330  147.0150 N   0  0  0  0  0  1  0  0  0  0  0  0
  188.3200  176.7140  145.1450 C   0  0  0  0  0  0  0  0  0  0  0  0
  189.5520  176.4010  144.4420 C   0  0  2  0  0  3  0  0  0  0  0  0
  188.0430  176.3670  146.4020 C   0  0  0  0  0  3  0  0  0  0  0  0
  187.4650  177.4800  144.2330 C   0  0  2  0  0  3  0  0  0  0  0  0
  190.7210  177.1630  145.0490 C   0  0  0  0  0  2  0  0  0  0  0  0
  191.9100  176.2360  145.2350 C   0  0  0  0  0  2  0  0  0  0  0  0
  192.9440  176.4830  144.1530 C   0  0  0  0  0  2  0  0  0  0  0  0
  194.2440  176.7440  144.7550 N   0  0  0  0  0  2  0  0  0  0  0  0
  196.4360  173.9910  145.9320 C   0  0  0  0  0  3  0  0  0  0  0  0
  195.3840  174.9050  145.8440 C   0  0  0  0  0  3  0  0  0  0  0  0
  196.3900  175.8170  143.8400 C   0  0  0  0  0  0  0  0  0  0  0  0
  196.4240  176.7270  142.7450 N   0  0  0  0  0  1  0  0  0  0  0  0
  197.4220  174.8840  143.9700 C   0  0  0  0  0  3  0  0  0  0  0  0
  195.3480  175.8290  144.7960 C   0  0  0  0  0  0  0  0  0  0  0  0
  197.4260  174.0000  145.0020 N   0  0  0  0  0  0  0  0  0  0  0  0
  186.2550  176.6570  143.8100 C   0  0  0  0  0  2  0  0  0  0  0  0
  185.0840  177.2570  144.2790 O   0  0  0  0  0  0  0  0  0  0  0  0
  184.9680  178.4400  143.5430 C   0  0  1  0  0  3  0  0  0  0  0  0
  184.2350  178.2160  141.1310 C   0  0  0  0  0  0  0  0  0  0  0  0
  183.3020  178.0570  140.3030 O   0  0  0  0  0  0  0  0  0  0  0  0
  183.9360  178.2840  142.5260 N   0  0  0  0  0  2  0  0  0  0  0  0
  185.5770  178.3320  140.6680 N   0  0  0  0  0  1  0  0  0  0  0  0
  184.0930  178.8630  145.5290 C   0  0  0  0  0  1  0  0  0  0  0  0
  184.6200  179.4870  144.3980 O   0  0  0  0  0  0  0  0  0  0  0  0
  1  7  1  0  0  0  0
  2  1  1  0  0  0  0
  2  5  1  0  0  0  0
  4  6  2  0  0  0  0
  5  8  1  1  0  0  0
  5  4  1  0  0  0  0
  6  3  1  0  0  0  0
  7 19  1  6  0  0  0
  7  4  1  0  0  0  0
  8  9  1  0  0  0  0
 10 11  1  0  0  0  0
 10  9  1  0  0  0  0
 11 17  1  0  0  0  0
 13 12  1  0  0  0  0
 14 16  2  0  0  0  0
 14 17  1  0  0  0  0
 15 14  1  0  0  0  0
 16 18  1  0  0  0  0
 17 13  2  0  0  0  0
 18 12  2  0  0  0  0
 19 20  1  0  0  0  0
 21 24  1  6  0  0  0
 21 20  1  0  0  0  0
 21 27  1  0  0  0  0
 22 24  1  0  0  0  0
 23 22  2  0  0  0  0
 25 22  1  0  0  0  0
 27 26  1  0  0  0  0
M  END
>  <MODEL>
2

>  <REMARK>
 VINA RESULT:      -5.6      3.147      4.149
  Name = 
  10 active torsions:
  status: ('A' for Active; 'I' for Inactive)
    1  A    between atoms: O_2  and  C_5
    2  A    between atoms: O_2  and  C_27
    3  A    between atoms: C_5  and  O_11
    4  A    between atoms: C_5  and  N_14
    5  A    between atoms: C_9  and  N_13
    6  A    between atoms: C_9  and  C_25
    7  A    between atoms: N_13  and  C_23
    8  A    between atoms: C_17  and  C_18
    9  A    between atoms: C_18  and  C_25
   10  A    between atoms: C_22  and  C_27
                            x       y       z     vdW  Elec       q    Type
                         _______ _______ _______ _____ _____    ______ ____

>  <TORSDO>
F 10

$$$$
=
 OpenBabel11042415113D

 27 28  0  0  1  0  0  0  0  0999 V2000
  187.1910  176.0450  144.1960 O   0  0  0  0  0  0  0  0  0  0  0  0
  186.8880  176.8750  145.2490 N   0  0  0  0  0  2  0  0  0  0  0  0
  190.8770  177.9720  143.1170 N   0  0  0  0  0  1  0  0  0  0  0  0
  188.9340  177.5190  144.4570 C   0  0  0  0  0  0  0  0  0  0  0  0
  188.0830  177.6190  145.6310 C   0  0  2  0  0  3  0  0  0  0  0  0
  190.1030  178.1420  144.3010 C   0  0  0  0  0  3  0  0  0  0  0  0
  188.2840  176.6120  143.5080 C   0  0  2  0  0  3  0  0  0  0  0  0
  188.7480  176.9570  146.8300 C   0  0  0  0  0  2  0  0  0  0  0  0
  188.5720  175.4500  146.7600 C   0  0  0  0  0  2  0  0  0  0  0  0
  189.8900  174.7540  147.0460 C   0  0  0  0  0  2  0  0  0  0  0  0
  190.7760  174.8740  145.8970 N   0  0  0  0  0  2  0  0  0  0  0  0
  194.0130  176.5440  146.6070 C   0  0  0  0  0  3  0  0  0  0  0  0
  192.6440  176.2810  146.5290 C   0  0  0  0  0  3  0  0  0  0  0  0
  193.1450  174.1730  145.4510 C   0  0  0  0  0  0  0  0  0  0  0  0
  192.7650  172.9400  144.8480 N   0  0  0  0  0  1  0  0  0  0  0  0
  194.5050  174.4790  145.5510 C   0  0  0  0  0  3  0  0  0  0  0  0
  192.1930  175.0910  145.9500 C   0  0  0  0  0  0  0  0  0  0  0  0
  194.9080  175.6450  146.1200 N   0  0  0  0  0  0  0  0  0  0  0  0
  187.7880  177.3750  142.2860 C   0  0  0  0  0  2  0  0  0  0  0  0
  186.6930  176.7150  141.7250 O   0  0  0  0  0  0  0  0  0  0  0  0
  185.6730  177.6710  141.6980 C   0  0  1  0  0  3  0  0  0  0  0  0
  185.2880  179.3160  143.5820 C   0  0  0  0  0  0  0  0  0  0  0  0
  185.6930  180.3070  144.2400 O   0  0  0  0  0  0  0  0  0  0  0  0
  186.0670  178.8290  142.4880 N   0  0  0  0  0  2  0  0  0  0  0  0
  184.0530  178.6950  143.9290 N   0  0  0  0  0  1  0  0  0  0  0  0
  184.0620  178.2690  140.3060 C   0  0  0  0  0  1  0  0  0  0  0  0
  185.4400  178.0660  140.3800 O   0  0  0  0  0  0  0  0  0  0  0  0
  1  2  1  0  0  0  0
  2  5  1  0  0  0  0
  3  6  1  0  0  0  0
  4  5  1  0  0  0  0
  5  8  1  1  0  0  0
  6  4  2  0  0  0  0
  7 19  1  6  0  0  0
  7  1  1  0  0  0  0
  7  4  1  0  0  0  0
  9  8  1  0  0  0  0
  9 10  1  0  0  0  0
 11 17  1  0  0  0  0
 11 10  1  0  0  0  0
 13 12  1  0  0  0  0
 14 16  2  0  0  0  0
 14 17  1  0  0  0  0
 15 14  1  0  0  0  0
 16 18  1  0  0  0  0
 17 13  2  0  0  0  0
 18 12  2  0  0  0  0
 20 19  1  0  0  0  0
 21 27  1  6  0  0  0
 21 20  1  0  0  0  0
 21 24  1  0  0  0  0
 22 25  1  0  0  0  0
 22 23  2  0  0  0  0
 24 22  1  0  0  0  0
 26 27  1  0  0  0  0
M  END
>  <MODEL>
3

>  <REMARK>
 VINA RESULT:      -5.6      2.194      3.559
  Name = 
  10 active torsions:
  status: ('A' for Active; 'I' for Inactive)
    1  A    between atoms: O_2  and  C_5
    2  A    between atoms: O_2  and  C_27
    3  A    between atoms: C_5  and  O_11
    4  A    between atoms: C_5  and  N_14
    5  A    between atoms: C_9  and  N_13
    6  A    between atoms: C_9  and  C_25
    7  A    between atoms: N_13  and  C_23
    8  A    between atoms: C_17  and  C_18
    9  A    between atoms: C_18  and  C_25
   10  A    between atoms: C_22  and  C_27
                            x       y       z     vdW  Elec       q    Type
                         _______ _______ _______ _____ _____    ______ ____

>  <TORSDO>
F 10

$$$$
=
 OpenBabel11042415113D

 27 28  0  0  1  0  0  0  0  0999 V2000
  189.1940  175.3280  146.3390 O   0  0  0  0  0  0  0  0  0  0  0  0
  190.1640  175.7860  147.1980 N   0  0  0  0  0  2  0  0  0  0  0  0
  190.2280  177.8880  143.0460 N   0  0  0  0  0  1  0  0  0  0  0  0
  190.4790  176.8570  145.2030 C   0  0  0  0  0  0  0  0  0  0  0  0
  191.1670  176.5230  146.4380 C   0  0  2  0  0  3  0  0  0  0  0  0
  190.9720  177.6280  144.2330 C   0  0  0  0  0  3  0  0  0  0  0  0
  189.1760  176.1870  145.2200 C   0  0  2  0  0  3  0  0  0  0  0  0
  192.3660  175.6290  146.1560 C   0  0  0  0  0  2  0  0  0  0  0  0
  193.6230  176.2340  146.7570 C   0  0  0  0  0  2  0  0  0  0  0  0
  194.3430  177.0830  145.7260 C   0  0  0  0  0  2  0  0  0  0  0  0
  195.1900  176.2420  144.8910 N   0  0  0  0  0  2  0  0  0  0  0  0
  193.8640  175.6640  141.4740 C   0  0  0  0  0  3  0  0  0  0  0  0
  193.9580  175.7510  142.8640 C   0  0  0  0  0  3  0  0  0  0  0  0
  196.2460  176.5020  142.6290 C   0  0  0  0  0  0  0  0  0  0  0  0
  197.4940  176.9390  143.1590 N   0  0  0  0  0  1  0  0  0  0  0  0
  196.1060  176.4000  141.2430 C   0  0  0  0  0  3  0  0  0  0  0  0
  195.1510  176.1720  143.4590 C   0  0  0  0  0  0  0  0  0  0  0  0
  194.9310  175.9870  140.6980 N   0  0  0  0  0  0  0  0  0  0  0  0
  188.0500  177.2030  145.3640 C   0  0  0  0  0  2  0  0  0  0  0  0
  186.8600  176.5510  145.6980 O   0  0  0  0  0  0  0  0  0  0  0  0
  185.8590  177.5060  145.4970 C   0  0  1  0  0  3  0  0  0  0  0  0
  185.2820  178.7120  143.3480 C   0  0  0  0  0  0  0  0  0  0  0  0
  184.9590  178.6480  142.1350 O   0  0  0  0  0  0  0  0  0  0  0  0
  185.4600  177.5080  144.0960 N   0  0  0  0  0  2  0  0  0  0  0  0
  185.4600  179.9840  143.9650 N   0  0  0  0  0  1  0  0  0  0  0  0
  184.5210  178.3500  147.0420 C   0  0  0  0  0  1  0  0  0  0  0  0
  184.7540  177.1960  146.2930 O   0  0  0  0  0  0  0  0  0  0  0  0
  1  2  1  0  0  0  0
  3  6  1  0  0  0  0
  4  7  1  0  0  0  0
  4  5  1  0  0  0  0
  5  8  1  6  0  0  0
  5  2  1  0  0  0  0
  6  4  2  0  0  0  0
  7 19  1  1  0  0  0
  7  1  1  0  0  0  0
  8  9  1  0  0  0  0
 10  9  1  0  0  0  0
 11 10  1  0  0  0  0
 12 13  1  0  0  0  0
 13 17  2  0  0  0  0
 14 15  1  0  0  0  0
 14 17  1  0  0  0  0
 16 14  2  0  0  0  0
 17 11  1  0  0  0  0
 18 16  1  0  0  0  0
 18 12  2  0  0  0  0
 19 20  1  0  0  0  0
 21 24  1  6  0  0  0
 21 20  1  0  0  0  0
 21 27  1  0  0  0  0
 22 25  1  0  0  0  0
 22 24  1  0  0  0  0
 23 22  2  0  0  0  0
 27 26  1  0  0  0  0
M  END
>  <MODEL>
4

>  <REMARK>
 VINA RESULT:      -5.6      3.168      4.781
  Name = 
  10 active torsions:
  status: ('A' for Active; 'I' for Inactive)
    1  A    between atoms: O_2  and  C_5
    2  A    between atoms: O_2  and  C_27
    3  A    between atoms: C_5  and  O_11
    4  A    between atoms: C_5  and  N_14
    5  A    between atoms: C_9  and  N_13
    6  A    between atoms: C_9  and  C_25
    7  A    between atoms: N_13  and  C_23
    8  A    between atoms: C_17  and  C_18
    9  A    between atoms: C_18  and  C_25
   10  A    between atoms: C_22  and  C_27
                            x       y       z     vdW  Elec       q    Type
                         _______ _______ _______ _____ _____    ______ ____

>  <TORSDO>
F 10

$$$$
=
 OpenBabel11042415113D

 27 28  0  0  1  0  0  0  0  0999 V2000
  192.0780  177.6420  143.5720 O   0  0  0  0  0  0  0  0  0  0  0  0
  191.0150  178.4960  143.7420 N   0  0  0  0  0  2  0  0  0  0  0  0
  190.0050  174.0640  144.7410 N   0  0  0  0  0  1  0  0  0  0  0  0
  190.2470  176.3830  144.1560 C   0  0  0  0  0  0  0  0  0  0  0  0
  189.7840  177.7180  143.8200 C   0  0  2  0  0  3  0  0  0  0  0  0
  189.4590  175.3440  144.4360 C   0  0  0  0  0  3  0  0  0  0  0  0
  191.7120  176.3920  144.1150 C   0  0  2  0  0  3  0  0  0  0  0  0
  189.0840  177.7150  142.4680 C   0  0  0  0  0  2  0  0  0  0  0  0
  187.6160  178.0660  142.6370 C   0  0  0  0  0  2  0  0  0  0  0  0
  186.7440  176.8980  142.2150 C   0  0  0  0  0  2  0  0  0  0  0  0
  185.9670  176.4200  143.3490 N   0  0  0  0  0  2  0  0  0  0  0  0
  185.9810  177.6550  146.8490 C   0  0  0  0  0  3  0  0  0  0  0  0
  186.2910  176.9330  145.6950 C   0  0  0  0  0  3  0  0  0  0  0  0
  184.6040  178.1890  144.4970 C   0  0  0  0  0  0  0  0  0  0  0  0
  183.8630  178.5100  143.3240 N   0  0  0  0  0  1  0  0  0  0  0  0
  184.3280  178.8840  145.6760 C   0  0  0  0  0  3  0  0  0  0  0  0
  185.6070  177.1920  144.5030 C   0  0  0  0  0  0  0  0  0  0  0  0
  185.0130  178.6070  146.8170 N   0  0  0  0  0  0  0  0  0  0  0  0
  192.2910  176.2460  145.5170 C   0  0  0  0  0  2  0  0  0  0  0  0
  193.5580  176.8310  145.5710 O   0  0  0  0  0  0  0  0  0  0  0  0
  194.4250  175.8590  145.0630 C   0  0  1  0  0  3  0  0  0  0  0  0
  195.5240  176.2390  142.8160 C   0  0  0  0  0  0  0  0  0  0  0  0
  196.3990  176.8350  142.1360 O   0  0  0  0  0  0  0  0  0  0  0  0
  195.4290  176.4910  144.2190 N   0  0  0  0  0  2  0  0  0  0  0  0
  194.6450  175.3150  142.1810 N   0  0  0  0  0  1  0  0  0  0  0  0
  195.2720  173.9030  145.6540 C   0  0  0  0  0  1  0  0  0  0  0  0
  195.0560  175.2000  146.1200 O   0  0  0  0  0  0  0  0  0  0  0  0
  1  2  1  0  0  0  0
  1  7  1  0  0  0  0
  2  5  1  0  0  0  0
  4  6  2  0  0  0  0
  5  8  1  6  0  0  0
  5  4  1  0  0  0  0
  6  3  1  0  0  0  0
  7  4  1  0  0  0  0
  7 19  1  1  0  0  0
  8  9  1  0  0  0  0
 10  9  1  0  0  0  0
 10 11  1  0  0  0  0
 11 17  1  0  0  0  0
 13 12  2  0  0  0  0
 14 17  2  0  0  0  0
 14 16  1  0  0  0  0
 15 14  1  0  0  0  0
 16 18  2  0  0  0  0
 17 13  1  0  0  0  0
 18 12  1  0  0  0  0
 19 20  1  0  0  0  0
 21 24  1  6  0  0  0
 21 20  1  0  0  0  0
 21 27  1  0  0  0  0
 22 24  1  0  0  0  0
 23 22  2  0  0  0  0
 25 22  1  0  0  0  0
 26 27  1  0  0  0  0
M  END
>  <MODEL>
5

>  <REMARK>
 VINA RESULT:      -5.6      3.601      7.640
  Name = 
  10 active torsions:
  status: ('A' for Active; 'I' for Inactive)
    1  A    between atoms: O_2  and  C_5
    2  A    between atoms: O_2  and  C_27
    3  A    between atoms: C_5  and  O_11
    4  A    between atoms: C_5  and  N_14
    5  A    between atoms: C_9  and  N_13
    6  A    between atoms: C_9  and  C_25
    7  A    between atoms: N_13  and  C_23
    8  A    between atoms: C_17  and  C_18
    9  A    between atoms: C_18  and  C_25
   10  A    between atoms: C_22  and  C_27
                            x       y       z     vdW  Elec       q    Type
                         _______ _______ _______ _____ _____    ______ ____

>  <TORSDO>
F 10

$$$$
=
 OpenBabel11042415113D

 27 28  0  0  1  0  0  0  0  0999 V2000
  184.3070  178.7040  140.2020 O   0  0  0  0  0  0  0  0  0  0  0  0
  185.2350  177.6910  140.1720 N   0  0  0  0  0  2  0  0  0  0  0  0
  183.8070  178.7640  144.4700 N   0  0  0  0  0  1  0  0  0  0  0  0
  184.7940  178.1280  142.3730 C   0  0  0  0  0  0  0  0  0  0  0  0
  185.7840  177.5050  141.5100 C   0  0  2  0  0  3  0  0  0  0  0  0
  184.8170  178.1110  143.7050 C   0  0  0  0  0  3  0  0  0  0  0  0
  183.7970  178.7760  141.5150 C   0  0  2  0  0  3  0  0  0  0  0  0
  187.1210  178.2220  141.6290 C   0  0  0  0  0  2  0  0  0  0  0  0
  188.2530  177.2120  141.6970 C   0  0  0  0  0  2  0  0  0  0  0  0
  189.2060  177.5650  142.8240 C   0  0  0  0  0  2  0  0  0  0  0  0
  188.5360  177.4120  144.1080 N   0  0  0  0  0  2  0  0  0  0  0  0
  189.8110  174.2300  145.5300 C   0  0  0  0  0  3  0  0  0  0  0  0
  189.5440  175.2740  144.6430 C   0  0  0  0  0  3  0  0  0  0  0  0
  188.2890  176.3880  146.3870 C   0  0  0  0  0  0  0  0  0  0  0  0
  187.5040  177.4660  146.8880 N   0  0  0  0  0  1  0  0  0  0  0  0
  188.5820  175.3200  147.2390 C   0  0  0  0  0  3  0  0  0  0  0  0
  188.7790  176.3680  145.0620 C   0  0  0  0  0  0  0  0  0  0  0  0
  189.3280  174.2730  146.7980 N   0  0  0  0  0  0  0  0  0  0  0  0
  182.4620  178.0460  141.5950 C   0  0  0  0  0  2  0  0  0  0  0  0
  181.8350  178.0660  140.3470 O   0  0  0  0  0  0  0  0  0  0  0  0
  180.5710  178.6130  140.5900 C   0  0  1  0  0  3  0  0  0  0  0  0
  178.7830  177.3390  141.8470 C   0  0  0  0  0  0  0  0  0  0  0  0
  178.3720  176.8560  142.9330 O   0  0  0  0  0  0  0  0  0  0  0  0
  180.0210  178.0510  141.8150 N   0  0  0  0  0  2  0  0  0  0  0  0
  178.0060  177.1760  140.6640 N   0  0  0  0  0  1  0  0  0  0  0  0
  179.5700  180.5120  140.0590 C   0  0  0  0  0  1  0  0  0  0  0  0
  180.6830  179.9980  140.7250 O   0  0  0  0  0  0  0  0  0  0  0  0
  1  7  1  0  0  0  0
  2  1  1  0  0  0  0
  2  5  1  0  0  0  0
  4  6  2  0  0  0  0
  5  8  1  6  0  0  0
  5  4  1  0  0  0  0
  6  3  1  0  0  0  0
  7 19  1  6  0  0  0
  7  4  1  0  0  0  0
  8  9  1  0  0  0  0
  9 10  1  0  0  0  0
 10 11  1  0  0  0  0
 11 17  1  0  0  0  0
 12 18  1  0  0  0  0
 13 17  1  0  0  0  0
 13 12  2  0  0  0  0
 14 15  1  0  0  0  0
 14 16  1  0  0  0  0
 17 14  2  0  0  0  0
 18 16  2  0  0  0  0
 20 19  1  0  0  0  0
 21 20  1  1  0  0  0
 21 27  1  0  0  0  0
 21 24  1  0  0  0  0
 22 23  2  0  0  0  0
 24 22  1  0  0  0  0
 25 22  1  0  0  0  0
 26 27  1  0  0  0  0
M  END
>  <MODEL>
6

>  <REMARK>
 VINA RESULT:      -5.6      3.223      5.343
  Name = 
  10 active torsions:
  status: ('A' for Active; 'I' for Inactive)
    1  A    between atoms: O_2  and  C_5
    2  A    between atoms: O_2  and  C_27
    3  A    between atoms: C_5  and  O_11
    4  A    between atoms: C_5  and  N_14
    5  A    between atoms: C_9  and  N_13
    6  A    between atoms: C_9  and  C_25
    7  A    between atoms: N_13  and  C_23
    8  A    between atoms: C_17  and  C_18
    9  A    between atoms: C_18  and  C_25
   10  A    between atoms: C_22  and  C_27
                            x       y       z     vdW  Elec       q    Type
                         _______ _______ _______ _____ _____    ______ ____

>  <TORSDO>
F 10

$$$$
=
 OpenBabel11042415113D

 27 28  0  0  1  0  0  0  0  0999 V2000
  189.3140  175.5730  146.3180 O   0  0  0  0  0  0  0  0  0  0  0  0
  190.1750  176.1880  147.1950 N   0  0  0  0  0  2  0  0  0  0  0  0
  190.5850  177.7230  142.8200 N   0  0  0  0  0  1  0  0  0  0  0  0
  190.6530  177.0000  145.1110 C   0  0  0  0  0  0  0  0  0  0  0  0
  191.2230  176.8660  146.4410 C   0  0  2  0  0  3  0  0  0  0  0  0
  191.2140  177.6580  144.0970 C   0  0  0  0  0  3  0  0  0  0  0  0
  189.3790  176.2740  145.0950 C   0  0  2  0  0  3  0  0  0  0  0  0
  192.4760  176.0030  146.4000 C   0  0  0  0  0  2  0  0  0  0  0  0
  193.6550  176.7630  146.9820 C   0  0  0  0  0  2  0  0  0  0  0  0
  194.5700  177.2450  145.8710 C   0  0  0  0  0  2  0  0  0  0  0  0
  194.6990  176.2150  144.8500 N   0  0  0  0  0  2  0  0  0  0  0  0
  196.9490  173.3070  145.3500 C   0  0  0  0  0  3  0  0  0  0  0  0
  195.8780  174.1930  145.4750 C   0  0  0  0  0  3  0  0  0  0  0  0
  196.8680  175.5790  143.7560 C   0  0  0  0  0  0  0  0  0  0  0  0
  196.8840  176.7250  142.9100 N   0  0  0  0  0  1  0  0  0  0  0  0
  197.9200  174.6640  143.6660 C   0  0  0  0  0  3  0  0  0  0  0  0
  195.8230  175.3410  144.6790 C   0  0  0  0  0  0  0  0  0  0  0  0
  197.9400  173.5590  144.4560 N   0  0  0  0  0  0  0  0  0  0  0  0
  188.2090  177.2440  144.9910 C   0  0  0  0  0  2  0  0  0  0  0  0
  187.0130  176.5790  145.2710 O   0  0  0  0  0  0  0  0  0  0  0  0
  186.1230  177.5860  145.6550 C   0  0  1  0  0  3  0  0  0  0  0  0
  184.8290  178.4350  143.6530 C   0  0  0  0  0  0  0  0  0  0  0  0
  183.8090  178.3560  142.9220 O   0  0  0  0  0  0  0  0  0  0  0  0
  184.9580  177.5690  144.7810 N   0  0  0  0  0  2  0  0  0  0  0  0
  185.8400  179.3930  143.3520 N   0  0  0  0  0  1  0  0  0  0  0  0
  185.0870  178.5570  147.3500 C   0  0  0  0  0  1  0  0  0  0  0  0
  185.7160  177.3700  146.9730 O   0  0  0  0  0  0  0  0  0  0  0  0
  1  2  1  0  0  0  0
  3  6  1  0  0  0  0
  4  5  1  0  0  0  0
  5  8  1  6  0  0  0
  5  2  1  0  0  0  0
  6  4  2  0  0  0  0
  7 19  1  1  0  0  0
  7  4  1  0  0  0  0
  7  1  1  0  0  0  0
  8  9  1  0  0  0  0
 10  9  1  0  0  0  0
 11 10  1  0  0  0  0
 12 13  1  0  0  0  0
 14 17  1  0  0  0  0
 15 14  1  0  0  0  0
 16 14  2  0  0  0  0
 16 18  1  0  0  0  0
 17 11  1  0  0  0  0
 17 13  2  0  0  0  0
 18 12  2  0  0  0  0
 19 20  1  0  0  0  0
 20 21  1  0  0  0  0
 21 24  1  6  0  0  0
 21 27  1  0  0  0  0
 22 24  1  0  0  0  0
 23 22  2  0  0  0  0
 25 22  1  0  0  0  0
 27 26  1  0  0  0  0
M  END
>  <MODEL>
7

>  <REMARK>
 VINA RESULT:      -5.5      3.605      5.277
  Name = 
  10 active torsions:
  status: ('A' for Active; 'I' for Inactive)
    1  A    between atoms: O_2  and  C_5
    2  A    between atoms: O_2  and  C_27
    3  A    between atoms: C_5  and  O_11
    4  A    between atoms: C_5  and  N_14
    5  A    between atoms: C_9  and  N_13
    6  A    between atoms: C_9  and  C_25
    7  A    between atoms: N_13  and  C_23
    8  A    between atoms: C_17  and  C_18
    9  A    between atoms: C_18  and  C_25
   10  A    between atoms: C_22  and  C_27
                            x       y       z     vdW  Elec       q    Type
                         _______ _______ _______ _____ _____    ______ ____

>  <TORSDO>
F 10

$$$$
=
 OpenBabel11042415113D

 27 28  0  0  1  0  0  0  0  0999 V2000
  191.2640  177.7450  143.2330 O   0  0  0  0  0  0  0  0  0  0  0  0
  189.9830  178.0160  143.6470 N   0  0  0  0  0  2  0  0  0  0  0  0
  190.3790  173.9680  141.3840 N   0  0  0  0  0  1  0  0  0  0  0  0
  189.9010  176.0660  142.4550 C   0  0  0  0  0  0  0  0  0  0  0  0
  189.0550  177.1460  142.9330 C   0  0  2  0  0  3  0  0  0  0  0  0
  189.4690  174.9700  141.8310 C   0  0  0  0  0  3  0  0  0  0  0  0
  191.2900  176.4130  142.7700 C   0  0  2  0  0  3  0  0  0  0  0  0
  188.4350  177.8960  141.7620 C   0  0  0  0  0  2  0  0  0  0  0  0
  186.9370  178.0390  141.9650 C   0  0  0  0  0  2  0  0  0  0  0  0
  186.3920  176.8410  142.7190 C   0  0  0  0  0  2  0  0  0  0  0  0
  185.3930  177.2730  143.6860 N   0  0  0  0  0  2  0  0  0  0  0  0
  186.9490  176.9540  147.0400 C   0  0  0  0  0  3  0  0  0  0  0  0
  186.6870  176.7950  145.6780 C   0  0  0  0  0  3  0  0  0  0  0  0
  184.8130  178.3110  145.8970 C   0  0  0  0  0  0  0  0  0  0  0  0
  183.7050  179.0350  145.3710 N   0  0  0  0  0  1  0  0  0  0  0  0
  185.1140  178.4380  147.2550 C   0  0  0  0  0  3  0  0  0  0  0  0
  185.6150  177.4730  145.0890 C   0  0  0  0  0  0  0  0  0  0  0  0
  186.1630  177.7650  147.7950 N   0  0  0  0  0  0  0  0  0  0  0  0
  191.8400  175.4970  143.8570 C   0  0  0  0  0  2  0  0  0  0  0  0
  192.9650  176.0800  144.4450 O   0  0  0  0  0  0  0  0  0  0  0  0
  192.5500  176.4480  145.7280 C   0  0  1  0  0  3  0  0  0  0  0  0
  190.6550  175.7930  147.2720 C   0  0  0  0  0  0  0  0  0  0  0  0
  189.8180  174.9280  147.6370 O   0  0  0  0  0  0  0  0  0  0  0  0
  191.5720  175.4870  146.2200 N   0  0  0  0  0  2  0  0  0  0  0  0
  190.6840  177.0630  147.9160 N   0  0  0  0  0  1  0  0  0  0  0  0
  194.5750  175.6020  146.0000 C   0  0  0  0  0  1  0  0  0  0  0  0
  193.6510  176.4690  146.5860 O   0  0  0  0  0  0  0  0  0  0  0  0
  1  2  1  0  0  0  0
  3  6  1  0  0  0  0
  4  7  1  0  0  0  0
  4  5  1  0  0  0  0
  5  8  1  6  0  0  0
  5  2  1  0  0  0  0
  6  4  2  0  0  0  0
  7  1  1  0  0  0  0
  7 19  1  1  0  0  0
  8  9  1  0  0  0  0
  9 10  1  0  0  0  0
 10 11  1  0  0  0  0
 11 17  1  0  0  0  0
 12 18  1  0  0  0  0
 13 12  2  0  0  0  0
 14 16  1  0  0  0  0
 15 14  1  0  0  0  0
 16 18  2  0  0  0  0
 17 13  1  0  0  0  0
 17 14  2  0  0  0  0
 19 20  1  0  0  0  0
 21 20  1  6  0  0  0
 21 24  1  0  0  0  0
 21 27  1  0  0  0  0
 22 23  2  0  0  0  0
 22 25  1  0  0  0  0
 24 22  1  0  0  0  0
 26 27  1  0  0  0  0
M  END
>  <MODEL>
8

>  <REMARK>
 VINA RESULT:      -5.5      2.836      7.393
  Name = 
  10 active torsions:
  status: ('A' for Active; 'I' for Inactive)
    1  A    between atoms: O_2  and  C_5
    2  A    between atoms: O_2  and  C_27
    3  A    between atoms: C_5  and  O_11
    4  A    between atoms: C_5  and  N_14
    5  A    between atoms: C_9  and  N_13
    6  A    between atoms: C_9  and  C_25
    7  A    between atoms: N_13  and  C_23
    8  A    between atoms: C_17  and  C_18
    9  A    between atoms: C_18  and  C_25
   10  A    between atoms: C_22  and  C_27
                            x       y       z     vdW  Elec       q    Type
                         _______ _______ _______ _____ _____    ______ ____

>  <TORSDO>
F 10

$$$$
=
 OpenBabel11042415113D

 27 28  0  0  1  0  0  0  0  0999 V2000
  187.7630  178.2210  144.4990 O   0  0  0  0  0  0  0  0  0  0  0  0
  188.0730  176.9020  144.7250 N   0  0  0  0  0  2  0  0  0  0  0  0
  184.1910  178.2890  146.8860 N   0  0  0  0  0  1  0  0  0  0  0  0
  186.2260  177.3810  145.9850 C   0  0  0  0  0  0  0  0  0  0  0  0
  187.3120  176.4230  145.8740 C   0  0  2  0  0  3  0  0  0  0  0  0
  185.2050  177.2890  146.8380 C   0  0  0  0  0  3  0  0  0  0  0  0
  186.4700  178.4510  145.0140 C   0  0  2  0  0  3  0  0  0  0  0  0
  188.1810  176.4520  147.1230 C   0  0  0  0  0  2  0  0  0  0  0  0
  189.5370  177.0570  146.8030 C   0  0  0  0  0  2  0  0  0  0  0  0
  190.6440  176.2100  147.4040 C   0  0  0  0  0  2  0  0  0  0  0  0
  191.2820  175.4140  146.3650 N   0  0  0  0  0  2  0  0  0  0  0  0
  194.9290  175.9040  145.8840 C   0  0  0  0  0  3  0  0  0  0  0  0
  193.6940  175.6150  146.4680 C   0  0  0  0  0  3  0  0  0  0  0  0
  192.6170  176.1310  144.3630 C   0  0  0  0  0  0  0  0  0  0  0  0
  191.4700  176.2660  143.5300 N   0  0  0  0  0  1  0  0  0  0  0  0
  193.8750  176.4100  143.8220 C   0  0  0  0  0  3  0  0  0  0  0  0
  192.5220  175.7240  145.7130 C   0  0  0  0  0  0  0  0  0  0  0  0
  194.9940  176.2940  144.5850 N   0  0  0  0  0  0  0  0  0  0  0  0
  185.4460  178.3980  143.8870 C   0  0  0  0  0  2  0  0  0  0  0  0
  185.9280  179.0920  142.7740 O   0  0  0  0  0  0  0  0  0  0  0  0
  185.5720  178.3020  141.6770 C   0  0  1  0  0  3  0  0  0  0  0  0
  187.0660  176.6820  140.4330 C   0  0  0  0  0  0  0  0  0  0  0  0
  187.8060  175.6650  140.4620 O   0  0  0  0  0  0  0  0  0  0  0  0
  186.4210  177.1190  141.6300 N   0  0  0  0  0  2  0  0  0  0  0  0
  186.8750  177.3810  139.2060 N   0  0  0  0  0  1  0  0  0  0  0  0
  183.6430  178.2890  140.5950 C   0  0  0  0  0  1  0  0  0  0  0  0
  184.2380  177.9100  141.7990 O   0  0  0  0  0  0  0  0  0  0  0  0
  1  2  1  0  0  0  0
  1  7  1  0  0  0  0
  2  5  1  0  0  0  0
  4  6  2  0  0  0  0
  5  4  1  0  0  0  0
  5  8  1  1  0  0  0
  6  3  1  0  0  0  0
  7 19  1  6  0  0  0
  7  4  1  0  0  0  0
  9  8  1  0  0  0  0
  9 10  1  0  0  0  0
 11 10  1  0  0  0  0
 12 13  1  0  0  0  0
 14 17  1  0  0  0  0
 15 14  1  0  0  0  0
 16 14  2  0  0  0  0
 16 18  1  0  0  0  0
 17 11  1  0  0  0  0
 17 13  2  0  0  0  0
 18 12  2  0  0  0  0
 20 19  1  0  0  0  0
 21 24  1  1  0  0  0
 21 27  1  0  0  0  0
 21 20  1  0  0  0  0
 22 23  2  0  0  0  0
 22 24  1  0  0  0  0
 25 22  1  0  0  0  0
 26 27  1  0  0  0  0
M  END
>  <MODEL>
9

>  <REMARK>
 VINA RESULT:      -5.5      1.505      2.155
  Name = 
  10 active torsions:
  status: ('A' for Active; 'I' for Inactive)
    1  A    between atoms: O_2  and  C_5
    2  A    between atoms: O_2  and  C_27
    3  A    between atoms: C_5  and  O_11
    4  A    between atoms: C_5  and  N_14
    5  A    between atoms: C_9  and  N_13
    6  A    between atoms: C_9  and  C_25
    7  A    between atoms: N_13  and  C_23
    8  A    between atoms: C_17  and  C_18
    9  A    between atoms: C_18  and  C_25
   10  A    between atoms: C_22  and  C_27
                            x       y       z     vdW  Elec       q    Type
                         _______ _______ _______ _____ _____    ______ ____

>  <TORSDO>
F 10

$$$$
