=
 OpenBabel11042415293D

 42 46  0  0  1  0  0  0  0  0999 V2000
  188.2310  175.9350  147.1390 C   0  0  0  0  0  3  0  0  0  0  0  0
  189.0320  175.1510  144.5270 C   0  0  0  0  0  0  0  0  0  0  0  0
  189.2070  174.7990  147.0670 C   0  0  1  0  0  3  0  0  0  0  0  0
  190.4610  171.4980  142.2050 C   0  0  0  0  0  2  0  0  0  0  0  0
  189.8640  173.8260  142.5020 C   0  0  0  0  0  0  0  0  0  0  0  0
  190.4540  172.9340  140.3260 C   0  0  0  0  0  0  0  0  0  0  0  0
  189.4140  174.9120  143.1330 C   0  0  0  0  0  3  0  0  0  0  0  0
  190.0190  172.2010  144.3510 C   0  0  0  0  0  3  0  0  0  0  0  0
  189.7430  172.9940  145.5510 C   0  0  0  0  0  3  0  0  0  0  0  0
  189.3490  174.2570  145.6620 C   0  0  0  0  0  0  0  0  0  0  0  0
  187.8940  176.6340  146.0550 C   0  0  0  0  0  0  0  0  0  0  0  0
  190.6340  171.7080  140.8750 N   0  0  0  0  0  0  0  0  0  0  0  0
  190.0640  174.0010  141.1280 C   0  0  0  0  0  3  0  0  0  0  0  0
  190.0860  172.5400  143.0630 C   0  0  0  0  0  0  0  0  0  0  0  0
  188.3670  176.2460  144.7580 N   0  0  0  0  0  2  0  0  0  0  0  0
  190.6470  173.1250  138.9160 C   0  0  0  0  0  0  0  0  0  0  0  0
  190.8030  173.2760  137.7790 N   0  0  0  0  0  0  0  0  0  0  0  0
  190.5520  175.2810  147.6140 C   0  0  0  0  0  2  0  0  0  0  0  0
  191.1200  176.4330  146.7970 C   0  0  0  0  0  2  0  0  0  0  0  0
  192.4790  176.7220  147.2190 N   0  0  0  0  0  2  0  0  0  0  0  0
  193.5470  176.4550  146.3590 N   0  0  0  0  0  0  0  0  0  0  0  0
  193.4210  174.0880  142.7630 C   0  0  0  0  0  1  0  0  0  0  0  0
  196.5860  175.6830  143.3450 C   0  0  1  0  0  3  0  0  0  0  0  0
  193.5390  176.4040  142.1950 O   0  0  0  0  0  1  0  0  0  0  0  0
  195.7980  175.9030  144.6250 C   0  0  0  0  0  2  0  0  0  0  0  0
  193.3220  176.0360  145.1580 C   0  0  0  0  0  3  0  0  0  0  0  0
  195.5950  175.1970  142.2930 C   0  0  0  0  0  2  0  0  0  0  0  0
  194.4020  175.7530  144.2620 N   0  0  0  0  0  0  0  0  0  0  0  0
  197.1430  176.8930  142.9350 O   0  0  0  0  0  1  0  0  0  0  0  0
  194.2050  175.3830  142.8740 C   0  0  2  0  0  0  0  0  0  0  0  0
  186.9640  177.7880  146.1950 C   0  0  0  0  0  2  0  0  0  0  0  0
  185.9830  177.8150  145.0350 C   0  0  0  0  0  2  0  0  0  0  0  0
  186.3560  178.9130  144.0530 C   0  0  2  0  0  3  0  0  0  0  0  0
  185.5960  180.0570  144.3000 O   0  0  0  0  0  1  0  0  0  0  0  0
  188.4850  178.3160  142.3400 O   0  0  0  0  0  0  0  0  0  0  0  0
  183.4200  178.5920  142.9050 Cl  0  0  0  0  0  0  0  0  0  0  0  0
  186.1880  178.4640  142.6230 C   0  0  2  0  0  3  0  0  0  0  0  0
  184.9150  178.2970  142.0290 C   0  0  0  0  0  0  0  0  0  0  0  0
  184.8220  177.8800  140.7010 C   0  0  0  0  0  3  0  0  0  0  0  0
  187.2000  177.7890  140.5550 N   0  0  0  0  0  0  0  0  0  0  0  0
  187.3310  178.1910  141.8470 C   0  0  0  0  0  0  0  0  0  0  0  0
  185.9830  177.6310  139.9720 C   0  0  0  0  0  3  0  0  0  0  0  0
  2 15  1  0  0  0  0
  2 10  1  0  0  0  0
  3  1  1  0  0  0  0
  3 18  1  6  0  0  0
  4 14  1  0  0  0  0
  5 14  1  0  0  0  0
  5  7  1  0  0  0  0
  6 12  2  0  0  0  0
  6 13  1  0  0  0  0
  7  2  2  0  0  0  0
  8  9  1  0  0  0  0
  9 10  2  0  0  0  0
 10  3  1  0  0  0  0
 11 31  1  0  0  0  0
 11  1  2  0  0  0  0
 12  4  1  0  0  0  0
 13  5  2  0  0  0  0
 14  8  2  0  0  0  0
 15 11  1  0  0  0  0
 16  6  1  0  0  0  0
 17 16  3  0  0  0  0
 19 20  1  0  0  0  0
 19 18  1  0  0  0  0
 21 20  1  0  0  0  0
 23 29  1  6  0  0  0
 23 25  1  0  0  0  0
 24 30  1  0  0  0  0
 26 21  2  0  0  0  0
 27 30  1  0  0  0  0
 27 23  1  0  0  0  0
 28 25  1  0  0  0  0
 28 26  1  0  0  0  0
 30 22  1  6  0  0  0
 30 28  1  0  0  0  0
 32 31  1  0  0  0  0
 33 34  1  1  0  0  0
 33 32  1  0  0  0  0
 37 33  1  1  0  0  0
 38 37  1  0  0  0  0
 38 36  1  0  0  0  0
 39 38  2  0  0  0  0
 40 41  1  0  0  0  0
 41 35  2  0  0  0  0
 41 37  1  0  0  0  0
 42 40  2  0  0  0  0
 42 39  1  0  0  0  0
M  END
>  <MODEL>
1

>  <REMARK>
 VINA RESULT:      -8.5      0.000      0.000
  Name = 
  9 active torsions:
  status: ('A' for Active; 'I' for Inactive)
    1  A    between atoms: N_5  and  N_10
    2  A    between atoms: C_6  and  C_20
    3  A    between atoms: C_7  and  N_10
    4  A    between atoms: C_7  and  C_13
    5  A    between atoms: C_8  and  C_13
    6  A    between atoms: C_11  and  C_26
    7  A    between atoms: C_15  and  C_30
    8  A    between atoms: C_15  and  C_36
    9  A    between atoms: C_26  and  C_36
                            x       y       z     vdW  Elec       q    Type
                         _______ _______ _______ _____ _____    ______ ____

>  <TORSDO>
F 9

$$$$
=
 OpenBabel11042415293D

 42 46  0  0  1  0  0  0  0  0999 V2000
  188.3880  175.7770  147.1390 C   0  0  0  0  0  3  0  0  0  0  0  0
  189.0190  175.0840  144.4550 C   0  0  0  0  0  0  0  0  0  0  0  0
  189.4150  174.6980  146.9660 C   0  0  1  0  0  3  0  0  0  0  0  0
  190.4520  171.5570  141.9490 C   0  0  0  0  0  2  0  0  0  0  0  0
  189.7570  173.8430  142.3430 C   0  0  0  0  0  0  0  0  0  0  0  0
  190.2180  173.0230  140.1080 C   0  0  0  0  0  0  0  0  0  0  0  0
  189.3010  174.8910  143.0310 C   0  0  0  0  0  3  0  0  0  0  0  0
  190.1450  172.1970  144.1380 C   0  0  0  0  0  3  0  0  0  0  0  0
  189.9240  172.9520  145.3730 C   0  0  0  0  0  3  0  0  0  0  0  0
  189.4730  174.1890  145.5430 C   0  0  0  0  0  0  0  0  0  0  0  0
  187.9280  176.4750  146.1010 C   0  0  0  0  0  0  0  0  0  0  0  0
  190.5070  171.7990  140.6140 N   0  0  0  0  0  0  0  0  0  0  0  0
  189.8360  174.0530  140.9610 C   0  0  0  0  0  3  0  0  0  0  0  0
  190.0910  172.5610  142.8570 C   0  0  0  0  0  0  0  0  0  0  0  0
  188.3170  176.1360  144.7620 N   0  0  0  0  0  2  0  0  0  0  0  0
  190.2870  173.2490  138.6920 C   0  0  0  0  0  0  0  0  0  0  0  0
  190.3400  173.4330  137.5500 N   0  0  0  0  0  0  0  0  0  0  0  0
  190.7710  175.2430  147.4150 C   0  0  0  0  0  2  0  0  0  0  0  0
  191.5470  175.8640  146.2630 C   0  0  0  0  0  2  0  0  0  0  0  0
  192.8260  176.3650  146.7330 N   0  0  0  0  0  2  0  0  0  0  0  0
  193.8950  176.4930  145.8430 N   0  0  0  0  0  0  0  0  0  0  0  0
  197.3060  173.8810  145.5360 C   0  0  0  0  0  1  0  0  0  0  0  0
  197.2040  176.4440  143.0210 C   0  0  1  0  0  3  0  0  0  0  0  0
  195.8250  173.4840  143.7050 O   0  0  0  0  0  1  0  0  0  0  0  0
  196.1040  176.8150  144.0010 C   0  0  0  0  0  2  0  0  0  0  0  0
  194.6660  175.4820  145.6090 C   0  0  0  0  0  3  0  0  0  0  0  0
  197.6220  175.0130  143.3460 C   0  0  0  0  0  2  0  0  0  0  0  0
  195.7690  175.5920  144.7040 N   0  0  0  0  0  0  0  0  0  0  0  0
  196.7010  176.4970  141.7220 O   0  0  0  0  0  1  0  0  0  0  0  0
  196.6000  174.4650  144.3270 C   0  0  2  0  0  0  0  0  0  0  0  0
  186.9520  177.5740  146.3380 C   0  0  0  0  0  2  0  0  0  0  0  0
  185.9270  177.6160  145.2180 C   0  0  0  0  0  2  0  0  0  0  0  0
  186.2370  178.7580  144.2630 C   0  0  2  0  0  3  0  0  0  0  0  0
  185.7070  179.9510  144.7540 O   0  0  0  0  0  1  0  0  0  0  0  0
  183.5230  178.6980  143.5880 O   0  0  0  0  0  0  0  0  0  0  0  0
  188.3330  178.2350  141.9450 Cl  0  0  0  0  0  0  0  0  0  0  0  0
  185.7180  178.4800  142.8730 C   0  0  2  0  0  3  0  0  0  0  0  0
  186.5820  178.2330  141.7810 C   0  0  0  0  0  0  0  0  0  0  0  0
  186.0460  177.9810  140.5190 C   0  0  0  0  0  3  0  0  0  0  0  0
  183.8430  178.2200  141.4000 N   0  0  0  0  0  0  0  0  0  0  0  0
  184.3290  178.4720  142.6450 C   0  0  0  0  0  0  0  0  0  0  0  0
  184.6630  177.9750  140.3450 C   0  0  0  0  0  3  0  0  0  0  0  0
  2 15  1  0  0  0  0
  2 10  1  0  0  0  0
  3  1  1  0  0  0  0
  3 18  1  6  0  0  0
  4 14  1  0  0  0  0
  5 14  1  0  0  0  0
  5  7  1  0  0  0  0
  6 12  2  0  0  0  0
  6 13  1  0  0  0  0
  7  2  2  0  0  0  0
  8  9  1  0  0  0  0
  9 10  2  0  0  0  0
 10  3  1  0  0  0  0
 11 31  1  0  0  0  0
 11  1  2  0  0  0  0
 12  4  1  0  0  0  0
 13  5  2  0  0  0  0
 14  8  2  0  0  0  0
 15 11  1  0  0  0  0
 16  6  1  0  0  0  0
 17 16  3  0  0  0  0
 19 20  1  0  0  0  0
 19 18  1  0  0  0  0
 21 20  1  0  0  0  0
 23 29  1  6  0  0  0
 23 27  1  0  0  0  0
 23 25  1  0  0  0  0
 24 30  1  0  0  0  0
 25 28  1  0  0  0  0
 26 21  2  0  0  0  0
 27 30  1  0  0  0  0
 28 26  1  0  0  0  0
 30 28  1  0  0  0  0
 30 22  1  1  0  0  0
 32 31  1  0  0  0  0
 33 34  1  1  0  0  0
 33 32  1  0  0  0  0
 37 33  1  6  0  0  0
 38 36  1  0  0  0  0
 38 37  1  0  0  0  0
 39 38  2  0  0  0  0
 40 41  1  0  0  0  0
 41 37  1  0  0  0  0
 41 35  2  0  0  0  0
 42 39  1  0  0  0  0
 42 40  2  0  0  0  0
M  END
>  <MODEL>
2

>  <REMARK>
 VINA RESULT:      -8.5      1.553      1.858
  Name = 
  9 active torsions:
  status: ('A' for Active; 'I' for Inactive)
    1  A    between atoms: N_5  and  N_10
    2  A    between atoms: C_6  and  C_20
    3  A    between atoms: C_7  and  N_10
    4  A    between atoms: C_7  and  C_13
    5  A    between atoms: C_8  and  C_13
    6  A    between atoms: C_11  and  C_26
    7  A    between atoms: C_15  and  C_30
    8  A    between atoms: C_15  and  C_36
    9  A    between atoms: C_26  and  C_36
                            x       y       z     vdW  Elec       q    Type
                         _______ _______ _______ _____ _____    ______ ____

>  <TORSDO>
F 9

$$$$
=
 OpenBabel11042415293D

 42 46  0  0  1  0  0  0  0  0999 V2000
  191.1090  176.9420  146.2070 C   0  0  0  0  0  3  0  0  0  0  0  0
  188.7550  177.2880  144.6520 C   0  0  0  0  0  0  0  0  0  0  0  0
  189.8120  176.7210  146.9260 C   0  0  1  0  0  3  0  0  0  0  0  0
  184.3780  178.4910  145.0680 C   0  0  0  0  0  3  0  0  0  0  0  0
  186.3560  177.7420  143.8880 C   0  0  2  0  0  3  0  0  0  0  0  0
  184.2820  178.2150  142.7210 C   0  0  0  0  0  0  0  0  0  0  0  0
  187.6380  177.4200  143.7130 C   0  0  0  0  0  3  0  0  0  0  0  0
  186.2330  177.9980  146.3380 C   0  0  0  0  0  3  0  0  0  0  0  0
  187.5410  177.5440  146.8130 C   0  0  0  0  0  3  0  0  0  0  0  0
  188.6250  177.2080  146.1240 C   0  0  0  0  0  0  0  0  0  0  0  0
  191.1520  177.1250  144.8880 C   0  0  0  0  0  0  0  0  0  0  0  0
  183.6970  178.5550  143.8950 N   0  0  0  0  0  0  0  0  0  0  0  0
  185.6140  177.8120  142.7020 C   0  0  0  0  0  3  0  0  0  0  0  0
  185.7150  178.0750  145.1110 C   0  0  0  0  0  0  0  0  0  0  0  0
  189.9430  177.2330  144.1240 N   0  0  0  0  0  2  0  0  0  0  0  0
  183.5360  178.2910  141.4970 C   0  0  0  0  0  0  0  0  0  0  0  0
  182.9320  178.3540  140.5120 N   0  0  0  0  0  0  0  0  0  0  0  0
  189.6870  175.2330  147.2530 C   0  0  0  0  0  2  0  0  0  0  0  0
  190.5370  174.3720  146.3290 C   0  0  0  0  0  2  0  0  0  0  0  0
  189.6910  173.4810  145.5560 N   0  0  0  0  0  2  0  0  0  0  0  0
  189.5720  173.6560  144.1750 N   0  0  0  0  0  0  0  0  0  0  0  0
  192.4490  172.5070  141.1840 C   0  0  0  0  0  1  0  0  0  0  0  0
  189.3780  173.7910  139.8330 C   0  0  1  0  0  3  0  0  0  0  0  0
  190.6090  170.9850  141.1530 O   0  0  0  0  0  1  0  0  0  0  0  0
  189.2940  174.0670  141.3240 C   0  0  0  0  0  2  0  0  0  0  0  0
  190.3190  172.9750  143.3700 C   0  0  0  0  0  3  0  0  0  0  0  0
  190.5360  172.8190  139.6280 C   0  0  0  0  0  2  0  0  0  0  0  0
  190.2160  173.1410  141.9520 N   0  0  0  0  0  0  0  0  0  0  0  0
  188.1920  173.1950  139.4070 O   0  0  0  0  0  1  0  0  0  0  0  0
  190.9530  172.3300  141.0040 C   0  0  2  0  0  0  0  0  0  0  0  0
  192.4730  177.2820  144.2180 C   0  0  0  0  0  2  0  0  0  0  0  0
  193.4740  176.2960  144.7940 C   0  0  0  0  0  2  0  0  0  0  0  0
  193.8380  175.2470  143.7560 C   0  0  2  0  0  3  0  0  0  0  0  0
  193.5940  173.9690  144.2590 O   0  0  0  0  0  1  0  0  0  0  0  0
  194.6190  176.2710  141.2740 O   0  0  0  0  0  0  0  0  0  0  0  0
  196.1270  174.3350  145.7490 Cl  0  0  0  0  0  0  0  0  0  0  0  0
  195.2740  175.3760  143.3100 C   0  0  2  0  0  3  0  0  0  0  0  0
  196.3570  174.9910  144.1340 C   0  0  0  0  0  0  0  0  0  0  0  0
  197.6630  175.1320  143.6680 C   0  0  0  0  0  3  0  0  0  0  0  0
  196.8420  176.0260  141.6150 N   0  0  0  0  0  0  0  0  0  0  0  0
  195.5550  175.9040  142.0360 C   0  0  0  0  0  0  0  0  0  0  0  0
  197.8900  175.6530  142.3950 C   0  0  0  0  0  3  0  0  0  0  0  0
  1  3  1  0  0  0  0
  2 10  1  0  0  0  0
  3 18  1  6  0  0  0
  4 14  1  0  0  0  0
  5 13  1  6  0  0  0
  5 14  1  0  0  0  0
  6 12  1  0  0  0  0
  7  5  1  0  0  0  0
  7  2  2  0  0  0  0
  8  9  1  0  0  0  0
 10  9  2  0  0  0  0
 10  3  1  0  0  0  0
 11  1  2  0  0  0  0
 12  4  2  0  0  0  0
 13  6  2  0  0  0  0
 14  8  2  0  0  0  0
 15  2  1  0  0  0  0
 15 11  1  0  0  0  0
 16  6  1  0  0  0  0
 17 16  3  0  0  0  0
 19 18  1  0  0  0  0
 20 19  1  0  0  0  0
 21 20  1  0  0  0  0
 23 29  1  1  0  0  0
 23 25  1  0  0  0  0
 25 28  1  0  0  0  0
 26 21  2  0  0  0  0
 27 23  1  0  0  0  0
 27 30  1  0  0  0  0
 28 26  1  0  0  0  0
 30 24  1  0  0  0  0
 30 22  1  1  0  0  0
 30 28  1  0  0  0  0
 31 32  1  0  0  0  0
 31 11  1  0  0  0  0
 33 34  1  1  0  0  0
 33 32  1  0  0  0  0
 35 41  2  0  0  0  0
 37 33  1  1  0  0  0
 37 38  1  0  0  0  0
 38 36  1  0  0  0  0
 39 38  2  0  0  0  0
 40 41  1  0  0  0  0
 40 42  2  0  0  0  0
 41 37  1  0  0  0  0
 42 39  1  0  0  0  0
M  END
>  <MODEL>
3

>  <REMARK>
 VINA RESULT:      -8.2      3.290      7.531
  Name = 
  9 active torsions:
  status: ('A' for Active; 'I' for Inactive)
    1  A    between atoms: N_5  and  N_10
    2  A    between atoms: C_6  and  C_20
    3  A    between atoms: C_7  and  N_10
    4  A    between atoms: C_7  and  C_13
    5  A    between atoms: C_8  and  C_13
    6  A    between atoms: C_11  and  C_26
    7  A    between atoms: C_15  and  C_30
    8  A    between atoms: C_15  and  C_36
    9  A    between atoms: C_26  and  C_36
                            x       y       z     vdW  Elec       q    Type
                         _______ _______ _______ _____ _____    ______ ____

>  <TORSDO>
F 9

$$$$
=
 OpenBabel11042415293D

 42 46  0  0  1  0  0  0  0  0999 V2000
  191.4860  176.7920  146.1850 C   0  0  0  0  0  3  0  0  0  0  0  0
  189.0790  177.1400  144.7150 C   0  0  0  0  0  0  0  0  0  0  0  0
  190.2150  176.6180  146.9610 C   0  0  1  0  0  3  0  0  0  0  0  0
  184.7460  178.4430  145.2670 C   0  0  0  0  0  3  0  0  0  0  0  0
  186.6600  177.6200  144.0320 C   0  0  2  0  0  3  0  0  0  0  0  0
  184.5510  178.1000  142.9350 C   0  0  0  0  0  0  0  0  0  0  0  0
  187.9280  177.2660  143.8170 C   0  0  0  0  0  3  0  0  0  0  0  0
  186.6400  177.9500  146.4760 C   0  0  0  0  0  3  0  0  0  0  0  0
  187.9580  177.4840  146.9130 C   0  0  0  0  0  3  0  0  0  0  0  0
  189.0070  177.1050  146.1920 C   0  0  0  0  0  0  0  0  0  0  0  0
  191.4800  176.9350  144.8600 C   0  0  0  0  0  0  0  0  0  0  0  0
  184.0200  178.4860  144.1200 N   0  0  0  0  0  0  0  0  0  0  0  0
  185.8730  177.6700  142.8760 C   0  0  0  0  0  3  0  0  0  0  0  0
  186.0750  178.0010  145.2700 C   0  0  0  0  0  0  0  0  0  0  0  0
  190.2430  177.0450  144.1410 N   0  0  0  0  0  2  0  0  0  0  0  0
  183.7570  178.1550  141.7400 C   0  0  0  0  0  0  0  0  0  0  0  0
  183.1160  178.2010  140.7770 N   0  0  0  0  0  0  0  0  0  0  0  0
  190.0750  175.1430  147.3370 C   0  0  0  0  0  2  0  0  0  0  0  0
  189.2060  174.3810  146.3460 C   0  0  0  0  0  2  0  0  0  0  0  0
  190.0380  173.7080  145.3660 N   0  0  0  0  0  2  0  0  0  0  0  0
  189.7060  173.7670  144.0110 N   0  0  0  0  0  0  0  0  0  0  0  0
  192.4550  173.8780  140.6960 C   0  0  0  0  0  1  0  0  0  0  0  0
  189.0050  173.6600  139.7200 C   0  0  1  0  0  3  0  0  0  0  0  0
  191.4660  171.7100  140.8460 O   0  0  0  0  0  1  0  0  0  0  0  0
  188.9710  173.9220  141.2150 C   0  0  0  0  0  2  0  0  0  0  0  0
  190.5830  173.4500  143.1150 C   0  0  0  0  0  3  0  0  0  0  0  0
  190.4400  173.2790  139.3700 C   0  0  0  0  0  2  0  0  0  0  0  0
  190.2650  173.5080  141.7210 N   0  0  0  0  0  0  0  0  0  0  0  0
  188.1560  172.5950  139.4200 O   0  0  0  0  0  1  0  0  0  0  0  0
  191.1740  173.0650  140.6820 C   0  0  2  0  0  0  0  0  0  0  0  0
  192.7760  177.0450  144.1340 C   0  0  0  0  0  2  0  0  0  0  0  0
  193.5260  175.7260  144.1950 C   0  0  0  0  0  2  0  0  0  0  0  0
  194.8920  175.9250  144.8310 C   0  0  2  0  0  3  0  0  0  0  0  0
  195.2320  177.2780  144.8250 O   0  0  0  0  0  1  0  0  0  0  0  0
  196.4600  173.9920  146.1070 O   0  0  0  0  0  0  0  0  0  0  0  0
  195.3770  176.3910  141.7340 Cl  0  0  0  0  0  0  0  0  0  0  0  0
  195.9550  175.1090  144.1380 C   0  0  2  0  0  3  0  0  0  0  0  0
  196.2390  175.2530  142.7600 C   0  0  0  0  0  0  0  0  0  0  0  0
  197.2340  174.4710  142.1740 C   0  0  0  0  0  3  0  0  0  0  0  0
  197.6530  173.4180  144.2730 N   0  0  0  0  0  0  0  0  0  0  0  0
  196.6880  174.1610  144.8790 C   0  0  0  0  0  0  0  0  0  0  0  0
  197.9380  173.5530  142.9520 C   0  0  0  0  0  3  0  0  0  0  0  0
  1  3  1  0  0  0  0
  2 10  1  0  0  0  0
  3 18  1  6  0  0  0
  4 14  1  0  0  0  0
  5 13  1  6  0  0  0
  5 14  1  0  0  0  0
  6 12  1  0  0  0  0
  7  5  1  0  0  0  0
  7  2  2  0  0  0  0
  8  9  1  0  0  0  0
 10  9  2  0  0  0  0
 10  3  1  0  0  0  0
 11  1  2  0  0  0  0
 12  4  2  0  0  0  0
 13  6  2  0  0  0  0
 14  8  2  0  0  0  0
 15  2  1  0  0  0  0
 15 11  1  0  0  0  0
 16  6  1  0  0  0  0
 17 16  3  0  0  0  0
 19 18  1  0  0  0  0
 20 19  1  0  0  0  0
 21 20  1  0  0  0  0
 23 29  1  1  0  0  0
 23 25  1  0  0  0  0
 25 28  1  0  0  0  0
 26 21  2  0  0  0  0
 27 23  1  0  0  0  0
 27 30  1  0  0  0  0
 28 26  1  0  0  0  0
 30 22  1  1  0  0  0
 30 24  1  0  0  0  0
 30 28  1  0  0  0  0
 31 32  1  0  0  0  0
 31 11  1  0  0  0  0
 32 33  1  0  0  0  0
 33 34  1  6  0  0  0
 36 38  1  0  0  0  0
 37 33  1  6  0  0  0
 37 41  1  0  0  0  0
 38 37  1  0  0  0  0
 39 38  2  0  0  0  0
 39 42  1  0  0  0  0
 40 41  1  0  0  0  0
 41 35  2  0  0  0  0
 42 40  2  0  0  0  0
M  END
>  <MODEL>
4

>  <REMARK>
 VINA RESULT:      -8.1      3.236      7.690
  Name = 
  9 active torsions:
  status: ('A' for Active; 'I' for Inactive)
    1  A    between atoms: N_5  and  N_10
    2  A    between atoms: C_6  and  C_20
    3  A    between atoms: C_7  and  N_10
    4  A    between atoms: C_7  and  C_13
    5  A    between atoms: C_8  and  C_13
    6  A    between atoms: C_11  and  C_26
    7  A    between atoms: C_15  and  C_30
    8  A    between atoms: C_15  and  C_36
    9  A    between atoms: C_26  and  C_36
                            x       y       z     vdW  Elec       q    Type
                         _______ _______ _______ _____ _____    ______ ____

>  <TORSDO>
F 9

$$$$
=
 OpenBabel11042415293D

 42 46  0  0  1  0  0  0  0  0999 V2000
  191.3150  176.5690  144.9650 C   0  0  0  0  0  3  0  0  0  0  0  0
  188.7710  177.0250  143.7840 C   0  0  0  0  0  0  0  0  0  0  0  0
  190.1430  176.5190  145.8980 C   0  0  1  0  0  3  0  0  0  0  0  0
  184.6360  178.6550  144.7930 C   0  0  0  0  0  3  0  0  0  0  0  0
  186.3220  177.6470  143.3780 C   0  0  2  0  0  3  0  0  0  0  0  0
  184.1290  178.2290  142.5230 C   0  0  0  0  0  0  0  0  0  0  0  0
  187.5280  177.1950  143.0280 C   0  0  0  0  0  3  0  0  0  0  0  0
  186.6300  178.0810  145.7860 C   0  0  0  0  0  3  0  0  0  0  0  0
  187.9590  177.5410  146.0820 C   0  0  0  0  0  3  0  0  0  0  0  0
  188.8820  177.0580  145.2590 C   0  0  0  0  0  0  0  0  0  0  0  0
  191.1530  176.6560  143.6460 C   0  0  0  0  0  0  0  0  0  0  0  0
  183.7760  178.7020  143.7430 N   0  0  0  0  0  0  0  0  0  0  0  0
  185.4020  177.7040  142.3250 C   0  0  0  0  0  3  0  0  0  0  0  0
  185.9230  178.1210  144.6560 C   0  0  0  0  0  0  0  0  0  0  0  0
  189.8460  176.8240  143.0790 N   0  0  0  0  0  2  0  0  0  0  0  0
  183.1970  178.2900  141.4320 C   0  0  0  0  0  0  0  0  0  0  0  0
  182.4480  178.3360  140.5510 N   0  0  0  0  0  0  0  0  0  0  0  0
  189.9540  175.0750  146.3630 C   0  0  0  0  0  2  0  0  0  0  0  0
  190.7100  174.0890  145.4840 C   0  0  0  0  0  2  0  0  0  0  0  0
  189.7790  173.1990  144.8160 N   0  0  0  0  0  2  0  0  0  0  0  0
  189.4410  173.4190  143.4780 N   0  0  0  0  0  0  0  0  0  0  0  0
  192.1690  173.7910  140.1670 C   0  0  0  0  0  1  0  0  0  0  0  0
  188.7070  173.8090  139.2090 C   0  0  1  0  0  3  0  0  0  0  0  0
  191.1000  171.6570  140.0890 O   0  0  0  0  0  1  0  0  0  0  0  0
  188.6930  173.9070  140.7250 C   0  0  0  0  0  2  0  0  0  0  0  0
  190.2990  173.1700  142.5450 C   0  0  0  0  0  3  0  0  0  0  0  0
  190.1250  173.4150  138.8050 C   0  0  0  0  0  2  0  0  0  0  0  0
  189.9740  173.3920  141.1680 N   0  0  0  0  0  0  0  0  0  0  0  0
  187.8170  172.8160  138.8040 O   0  0  0  0  0  1  0  0  0  0  0  0
  190.8580  173.0310  140.0780 C   0  0  2  0  0  0  0  0  0  0  0  0
  192.3520  176.6440  142.7630 C   0  0  0  0  0  2  0  0  0  0  0  0
  193.2850  175.5120  143.1600 C   0  0  0  0  0  2  0  0  0  0  0  0
  194.6930  176.0420  143.3800 C   0  0  2  0  0  3  0  0  0  0  0  0
  195.2700  176.3930  142.1600 O   0  0  0  0  0  1  0  0  0  0  0  0
  196.4340  174.2610  142.1100 O   0  0  0  0  0  0  0  0  0  0  0  0
  194.5670  175.9580  146.5460 Cl  0  0  0  0  0  0  0  0  0  0  0  0
  195.5580  175.0430  144.1090 C   0  0  2  0  0  3  0  0  0  0  0  0
  195.5620  174.9350  145.5190 C   0  0  0  0  0  0  0  0  0  0  0  0
  196.3820  173.9920  146.1370 C   0  0  0  0  0  3  0  0  0  0  0  0
  197.1830  173.2810  144.0060 N   0  0  0  0  0  0  0  0  0  0  0  0
  196.3990  174.1900  143.3680 C   0  0  0  0  0  0  0  0  0  0  0  0
  197.1900  173.1650  145.3590 C   0  0  0  0  0  3  0  0  0  0  0  0
  1  3  1  0  0  0  0
  2 10  1  0  0  0  0
  3 18  1  6  0  0  0
  5 13  1  6  0  0  0
  5 14  1  0  0  0  0
  6 12  1  0  0  0  0
  7  5  1  0  0  0  0
  7  2  2  0  0  0  0
  8  9  1  0  0  0  0
 10  3  1  0  0  0  0
 10  9  2  0  0  0  0
 11  1  2  0  0  0  0
 12  4  2  0  0  0  0
 13  6  2  0  0  0  0
 14  4  1  0  0  0  0
 14  8  2  0  0  0  0
 15 11  1  0  0  0  0
 15  2  1  0  0  0  0
 16  6  1  0  0  0  0
 17 16  3  0  0  0  0
 19 18  1  0  0  0  0
 20 19  1  0  0  0  0
 21 20  1  0  0  0  0
 23 29  1  1  0  0  0
 23 25  1  0  0  0  0
 25 28  1  0  0  0  0
 26 21  2  0  0  0  0
 27 23  1  0  0  0  0
 27 30  1  0  0  0  0
 28 26  1  0  0  0  0
 30 24  1  0  0  0  0
 30 22  1  1  0  0  0
 30 28  1  0  0  0  0
 31 32  1  0  0  0  0
 31 11  1  0  0  0  0
 32 33  1  0  0  0  0
 33 34  1  6  0  0  0
 35 41  2  0  0  0  0
 37 33  1  1  0  0  0
 37 38  1  0  0  0  0
 38 39  2  0  0  0  0
 38 36  1  0  0  0  0
 40 42  2  0  0  0  0
 41 40  1  0  0  0  0
 41 37  1  0  0  0  0
 42 39  1  0  0  0  0
M  END
>  <MODEL>
5

>  <REMARK>
 VINA RESULT:      -8.0      3.241      7.816
  Name = 
  9 active torsions:
  status: ('A' for Active; 'I' for Inactive)
    1  A    between atoms: N_5  and  N_10
    2  A    between atoms: C_6  and  C_20
    3  A    between atoms: C_7  and  N_10
    4  A    between atoms: C_7  and  C_13
    5  A    between atoms: C_8  and  C_13
    6  A    between atoms: C_11  and  C_26
    7  A    between atoms: C_15  and  C_30
    8  A    between atoms: C_15  and  C_36
    9  A    between atoms: C_26  and  C_36
                            x       y       z     vdW  Elec       q    Type
                         _______ _______ _______ _____ _____    ______ ____

>  <TORSDO>
F 9

$$$$
=
 OpenBabel11042415293D

 42 46  0  0  1  0  0  0  0  0999 V2000
  191.1120  176.8770  146.1180 C   0  0  0  0  0  3  0  0  0  0  0  0
  188.7300  177.2400  144.6110 C   0  0  0  0  0  0  0  0  0  0  0  0
  189.8280  176.7230  146.8770 C   0  0  1  0  0  3  0  0  0  0  0  0
  184.4040  178.5930  145.0930 C   0  0  0  0  0  3  0  0  0  0  0  0
  186.3260  177.7410  143.8910 C   0  0  2  0  0  3  0  0  0  0  0  0
  184.2380  178.2360  142.7610 C   0  0  0  0  0  0  0  0  0  0  0  0
  187.5930  177.3730  143.6960 C   0  0  0  0  0  3  0  0  0  0  0  0
  186.2750  178.0890  146.3330 C   0  0  0  0  0  3  0  0  0  0  0  0
  187.5820  177.6120  146.7910 C   0  0  0  0  0  3  0  0  0  0  0  0
  188.6370  177.2170  146.0880 C   0  0  0  0  0  0  0  0  0  0  0  0
  191.1270  177.0110  144.7920 C   0  0  0  0  0  0  0  0  0  0  0  0
  183.6940  178.6360  143.9360 N   0  0  0  0  0  0  0  0  0  0  0  0
  185.5560  177.7910  142.7230 C   0  0  0  0  0  3  0  0  0  0  0  0
  185.7280  178.1370  145.1170 C   0  0  0  0  0  0  0  0  0  0  0  0
  189.9010  177.1290  144.0550 N   0  0  0  0  0  2  0  0  0  0  0  0
  183.4620  178.2910  141.5540 C   0  0  0  0  0  0  0  0  0  0  0  0
  182.8370  178.3380  140.5810 N   0  0  0  0  0  0  0  0  0  0  0  0
  189.6670  175.2520  147.2610 C   0  0  0  0  0  2  0  0  0  0  0  0
  190.3200  174.3220  146.2480 C   0  0  0  0  0  2  0  0  0  0  0  0
  189.3160  173.7690  145.3580 N   0  0  0  0  0  2  0  0  0  0  0  0
  189.6940  172.8840  144.3450 N   0  0  0  0  0  0  0  0  0  0  0  0
  188.5620  173.0950  140.1950 C   0  0  0  0  0  1  0  0  0  0  0  0
  190.9210  170.4880  140.9290 C   0  0  1  0  0  3  0  0  0  0  0  0
  190.8340  173.7870  140.4420 O   0  0  0  0  0  1  0  0  0  0  0  0
  190.4780  171.0070  142.2860 C   0  0  0  0  0  2  0  0  0  0  0  0
  189.5850  173.2340  143.1060 C   0  0  0  0  0  3  0  0  0  0  0  0
  190.4420  171.4990  139.8910 C   0  0  0  0  0  2  0  0  0  0  0  0
  189.9630  172.3410  142.0520 N   0  0  0  0  0  0  0  0  0  0  0  0
  192.3130  170.4140  140.8960 O   0  0  0  0  0  1  0  0  0  0  0  0
  189.9590  172.7210  140.6530 C   0  0  2  0  0  0  0  0  0  0  0  0
  192.4330  177.1030  144.0840 C   0  0  0  0  0  2  0  0  0  0  0  0
  193.4510  176.1850  144.7390 C   0  0  0  0  0  2  0  0  0  0  0  0
  194.2850  175.4820  143.6800 C   0  0  2  0  0  3  0  0  0  0  0  0
  193.4680  174.6970  142.8670 O   0  0  0  0  0  1  0  0  0  0  0  0
  197.0130  176.0480  143.4320 O   0  0  0  0  0  0  0  0  0  0  0  0
  193.4680  172.9410  145.3870 Cl  0  0  0  0  0  0  0  0  0  0  0  0
  195.3800  174.6460  144.2960 C   0  0  2  0  0  3  0  0  0  0  0  0
  195.1060  173.4960  145.0700 C   0  0  0  0  0  0  0  0  0  0  0  0
  196.1590  172.7610  145.6130 C   0  0  0  0  0  3  0  0  0  0  0  0
  197.7250  174.2800  144.6500 N   0  0  0  0  0  0  0  0  0  0  0  0
  196.7240  175.0230  144.1050 C   0  0  0  0  0  0  0  0  0  0  0  0
  197.4730  173.1690  145.3890 C   0  0  0  0  0  3  0  0  0  0  0  0
  1  3  1  0  0  0  0
  2 10  1  0  0  0  0
  3 18  1  6  0  0  0
  4 14  1  0  0  0  0
  5 13  1  6  0  0  0
  5 14  1  0  0  0  0
  6 12  1  0  0  0  0
  7  5  1  0  0  0  0
  7  2  2  0  0  0  0
  8  9  1  0  0  0  0
 10  9  2  0  0  0  0
 10  3  1  0  0  0  0
 11  1  2  0  0  0  0
 12  4  2  0  0  0  0
 13  6  2  0  0  0  0
 14  8  2  0  0  0  0
 15  2  1  0  0  0  0
 15 11  1  0  0  0  0
 16  6  1  0  0  0  0
 17 16  3  0  0  0  0
 19 18  1  0  0  0  0
 20 19  1  0  0  0  0
 21 20  1  0  0  0  0
 23 29  1  1  0  0  0
 23 25  1  0  0  0  0
 24 30  1  0  0  0  0
 26 21  2  0  0  0  0
 27 30  1  0  0  0  0
 27 23  1  0  0  0  0
 28 25  1  0  0  0  0
 28 26  1  0  0  0  0
 30 22  1  6  0  0  0
 30 28  1  0  0  0  0
 31 32  1  0  0  0  0
 31 11  1  0  0  0  0
 33 34  1  1  0  0  0
 33 32  1  0  0  0  0
 35 41  2  0  0  0  0
 37 33  1  1  0  0  0
 37 38  1  0  0  0  0
 38 36  1  0  0  0  0
 38 39  2  0  0  0  0
 40 42  2  0  0  0  0
 41 37  1  0  0  0  0
 41 40  1  0  0  0  0
 42 39  1  0  0  0  0
M  END
>  <MODEL>
6

>  <REMARK>
 VINA RESULT:      -8.0      3.108      7.670
  Name = 
  9 active torsions:
  status: ('A' for Active; 'I' for Inactive)
    1  A    between atoms: N_5  and  N_10
    2  A    between atoms: C_6  and  C_20
    3  A    between atoms: C_7  and  N_10
    4  A    between atoms: C_7  and  C_13
    5  A    between atoms: C_8  and  C_13
    6  A    between atoms: C_11  and  C_26
    7  A    between atoms: C_15  and  C_30
    8  A    between atoms: C_15  and  C_36
    9  A    between atoms: C_26  and  C_36
                            x       y       z     vdW  Elec       q    Type
                         _______ _______ _______ _____ _____    ______ ____

>  <TORSDO>
F 9

$$$$
=
 OpenBabel11042415293D

 42 46  0  0  1  0  0  0  0  0999 V2000
  190.1430  176.1340  145.4420 C   0  0  0  0  0  3  0  0  0  0  0  0
  190.3980  174.5760  143.0790 C   0  0  0  0  0  0  0  0  0  0  0  0
  190.8860  174.8400  145.5890 C   0  0  1  0  0  3  0  0  0  0  0  0
  190.8110  170.2460  141.7160 C   0  0  0  0  0  3  0  0  0  0  0  0
  190.6780  172.6460  141.4220 C   0  0  2  0  0  3  0  0  0  0  0  0
  190.7740  171.1370  139.5260 C   0  0  0  0  0  0  0  0  0  0  0  0
  190.5220  173.9240  141.7730 C   0  0  0  0  0  3  0  0  0  0  0  0
  190.8210  171.5370  143.6210 C   0  0  0  0  0  3  0  0  0  0  0  0
  190.8690  172.6430  144.5790 C   0  0  0  0  0  3  0  0  0  0  0  0
  190.7210  173.9480  144.3790 C   0  0  0  0  0  0  0  0  0  0  0  0
  189.7750  176.5950  144.2470 C   0  0  0  0  0  0  0  0  0  0  0  0
  190.8180  170.0770  140.3690 N   0  0  0  0  0  0  0  0  0  0  0  0
  190.6980  172.4280  140.0390 C   0  0  0  0  0  3  0  0  0  0  0  0
  190.7540  171.5230  142.2890 C   0  0  0  0  0  0  0  0  0  0  0  0
  189.9760  175.8070  143.0650 N   0  0  0  0  0  2  0  0  0  0  0  0
  190.7850  170.9270  138.1060 C   0  0  0  0  0  0  0  0  0  0  0  0
  190.7930  170.7540  136.9610 N   0  0  0  0  0  0  0  0  0  0  0  0
  192.3600  175.1540  145.8490 C   0  0  0  0  0  2  0  0  0  0  0  0
  192.5330  176.2770  146.8610 C   0  0  0  0  0  2  0  0  0  0  0  0
  193.9160  176.7180  146.8870 N   0  0  0  0  0  2  0  0  0  0  0  0
  194.6690  176.7230  145.7110 N   0  0  0  0  0  0  0  0  0  0  0  0
  197.9360  174.0890  144.7410 C   0  0  0  0  0  1  0  0  0  0  0  0
  196.9970  176.2900  142.0620 C   0  0  1  0  0  3  0  0  0  0  0  0
  195.9970  173.4510  143.5020 O   0  0  0  0  0  1  0  0  0  0  0  0
  196.2220  176.7900  143.2690 C   0  0  0  0  0  2  0  0  0  0  0  0
  195.3750  175.6890  145.3900 C   0  0  0  0  0  3  0  0  0  0  0  0
  197.5470  174.9150  142.4300 C   0  0  0  0  0  2  0  0  0  0  0  0
  196.1570  175.6740  144.1910 N   0  0  0  0  0  0  0  0  0  0  0  0
  196.1300  176.1680  140.9770 O   0  0  0  0  0  1  0  0  0  0  0  0
  196.8820  174.5060  143.7320 C   0  0  2  0  0  0  0  0  0  0  0  0
  189.0900  177.9140  144.1550 C   0  0  0  0  0  2  0  0  0  0  0  0
  187.7800  177.7740  143.4000 C   0  0  0  0  0  2  0  0  0  0  0  0
  186.8810  176.7590  144.0870 C   0  0  2  0  0  3  0  0  0  0  0  0
  186.1060  176.0870  143.1420 O   0  0  0  0  0  1  0  0  0  0  0  0
  187.2110  176.4130  146.8430 O   0  0  0  0  0  0  0  0  0  0  0  0
  184.5310  178.6530  143.1220 Cl  0  0  0  0  0  0  0  0  0  0  0  0
  186.0030  177.4060  145.1300 C   0  0  2  0  0  3  0  0  0  0  0  0
  184.9310  178.2620  144.7880 C   0  0  0  0  0  0  0  0  0  0  0  0
  184.1530  178.8310  145.7960 C   0  0  0  0  0  3  0  0  0  0  0  0
  185.4760  177.7320  147.4480 N   0  0  0  0  0  0  0  0  0  0  0  0
  186.2580  177.1610  146.4930 C   0  0  0  0  0  0  0  0  0  0  0  0
  184.4400  178.5510  147.1310 C   0  0  0  0  0  3  0  0  0  0  0  0
  1  3  1  0  0  0  0
  2 10  1  0  0  0  0
  3 18  1  6  0  0  0
  4 14  1  0  0  0  0
  5 13  1  6  0  0  0
  5  7  1  0  0  0  0
  5 14  1  0  0  0  0
  6 13  2  0  0  0  0
  6 12  1  0  0  0  0
  7  2  2  0  0  0  0
  8  9  1  0  0  0  0
 10  9  2  0  0  0  0
 10  3  1  0  0  0  0
 11  1  2  0  0  0  0
 12  4  2  0  0  0  0
 14  8  2  0  0  0  0
 15  2  1  0  0  0  0
 15 11  1  0  0  0  0
 16  6  1  0  0  0  0
 17 16  3  0  0  0  0
 18 19  1  0  0  0  0
 19 20  1  0  0  0  0
 21 20  1  0  0  0  0
 23 29  1  6  0  0  0
 23 27  1  0  0  0  0
 23 25  1  0  0  0  0
 24 30  1  0  0  0  0
 25 28  1  0  0  0  0
 26 21  2  0  0  0  0
 27 30  1  0  0  0  0
 28 26  1  0  0  0  0
 30 28  1  0  0  0  0
 30 22  1  1  0  0  0
 31 11  1  0  0  0  0
 32 33  1  0  0  0  0
 32 31  1  0  0  0  0
 33 34  1  6  0  0  0
 36 38  1  0  0  0  0
 37 33  1  1  0  0  0
 37 41  1  0  0  0  0
 38 37  1  0  0  0  0
 38 39  2  0  0  0  0
 39 42  1  0  0  0  0
 41 35  2  0  0  0  0
 41 40  1  0  0  0  0
 42 40  2  0  0  0  0
M  END
>  <MODEL>
7

>  <REMARK>
 VINA RESULT:      -7.6      2.134      3.044
  Name = 
  9 active torsions:
  status: ('A' for Active; 'I' for Inactive)
    1  A    between atoms: N_5  and  N_10
    2  A    between atoms: C_6  and  C_20
    3  A    between atoms: C_7  and  N_10
    4  A    between atoms: C_7  and  C_13
    5  A    between atoms: C_8  and  C_13
    6  A    between atoms: C_11  and  C_26
    7  A    between atoms: C_15  and  C_30
    8  A    between atoms: C_15  and  C_36
    9  A    between atoms: C_26  and  C_36
                            x       y       z     vdW  Elec       q    Type
                         _______ _______ _______ _____ _____    ______ ____

>  <TORSDO>
F 9

$$$$
=
 OpenBabel11042415293D

 42 46  0  0  1  0  0  0  0  0999 V2000
  192.4660  176.3240  145.3150 C   0  0  0  0  0  3  0  0  0  0  0  0
  192.0090  174.6670  143.0510 C   0  0  0  0  0  0  0  0  0  0  0  0
  191.0580  175.8430  145.1300 C   0  0  1  0  0  3  0  0  0  0  0  0
  188.7310  173.5280  140.0970 C   0  0  0  0  0  2  0  0  0  0  0  0
  190.9410  173.4320  141.0810 C   0  0  0  0  0  0  0  0  0  0  0  0
  190.3900  172.1890  139.0730 C   0  0  0  0  0  0  0  0  0  0  0  0
  191.9400  173.7630  141.9000 C   0  0  0  0  0  3  0  0  0  0  0  0
  189.0580  174.6940  142.0530 C   0  0  0  0  0  3  0  0  0  0  0  0
  189.5980  175.2450  143.2970 C   0  0  0  0  0  3  0  0  0  0  0  0
  190.8400  175.2260  143.7660 C   0  0  0  0  0  0  0  0  0  0  0  0
  193.4640  175.8670  144.5590 C   0  0  0  0  0  0  0  0  0  0  0  0
  189.1290  172.6860  139.1090 N   0  0  0  0  0  0  0  0  0  0  0  0
  191.3080  172.5580  140.0510 C   0  0  0  0  0  3  0  0  0  0  0  0
  189.6070  173.9190  141.1170 C   0  0  0  0  0  0  0  0  0  0  0  0
  193.2030  174.9810  143.4620 N   0  0  0  0  0  2  0  0  0  0  0  0
  190.7820  171.2990  138.0170 C   0  0  0  0  0  0  0  0  0  0  0  0
  191.1010  170.5820  137.1660 N   0  0  0  0  0  0  0  0  0  0  0  0
  190.7350  174.8480  146.2450 C   0  0  0  0  0  2  0  0  0  0  0  0
  189.9550  175.4970  147.3800 C   0  0  0  0  0  2  0  0  0  0  0  0
  188.5340  175.2450  147.2170 N   0  0  0  0  0  2  0  0  0  0  0  0
  187.6780  176.2880  146.8560 N   0  0  0  0  0  0  0  0  0  0  0  0
  187.4420  178.1970  143.0020 C   0  0  0  0  0  1  0  0  0  0  0  0
  184.9550  179.3210  145.3380 C   0  0  1  0  0  3  0  0  0  0  0  0
  185.5630  176.7530  143.2980 O   0  0  0  0  0  1  0  0  0  0  0  0
  185.9060  178.4680  146.1600 C   0  0  0  0  0  2  0  0  0  0  0  0
  187.4550  176.5380  145.6070 C   0  0  0  0  0  3  0  0  0  0  0  0
  185.2760  179.0510  143.8710 C   0  0  0  0  0  2  0  0  0  0  0  0
  186.5840  177.6040  145.2140 N   0  0  0  0  0  0  0  0  0  0  0  0
  183.6430  178.9350  145.6050 O   0  0  0  0  0  1  0  0  0  0  0  0
  186.2190  177.8610  143.8350 C   0  0  2  0  0  0  0  0  0  0  0  0
  194.8510  176.3360  144.8250 C   0  0  0  0  0  2  0  0  0  0  0  0
  195.7190  176.1340  143.5940 C   0  0  0  0  0  2  0  0  0  0  0  0
  196.9350  175.2890  143.9390 C   0  0  2  0  0  3  0  0  0  0  0  0
  197.9410  175.4890  142.9950 O   0  0  0  0  0  1  0  0  0  0  0  0
  197.1870  173.7800  146.2800 O   0  0  0  0  0  0  0  0  0  0  0  0
  195.8190  173.8180  141.3640 Cl  0  0  0  0  0  0  0  0  0  0  0  0
  196.5860  173.8250  144.0410 C   0  0  2  0  0  3  0  0  0  0  0  0
  196.0850  173.0900  142.9420 C   0  0  0  0  0  0  0  0  0  0  0  0
  195.7810  171.7380  143.0950 C   0  0  0  0  0  3  0  0  0  0  0  0
  196.4480  171.8400  145.3820 N   0  0  0  0  0  0  0  0  0  0  0  0
  196.7530  173.1600  145.2710 C   0  0  0  0  0  0  0  0  0  0  0  0
  195.9720  171.1230  144.3310 C   0  0  0  0  0  3  0  0  0  0  0  0
  2 15  1  0  0  0  0
  2 10  1  0  0  0  0
  3  1  1  0  0  0  0
  3 18  1  1  0  0  0
  4 14  1  0  0  0  0
  5 14  1  0  0  0  0
  5  7  1  0  0  0  0
  6 12  2  0  0  0  0
  6 13  1  0  0  0  0
  7  2  2  0  0  0  0
  8  9  1  0  0  0  0
  9 10  2  0  0  0  0
 10  3  1  0  0  0  0
 11 31  1  0  0  0  0
 11  1  2  0  0  0  0
 12  4  1  0  0  0  0
 13  5  2  0  0  0  0
 14  8  2  0  0  0  0
 15 11  1  0  0  0  0
 16  6  1  0  0  0  0
 17 16  3  0  0  0  0
 18 19  1  0  0  0  0
 20 19  1  0  0  0  0
 21 20  1  0  0  0  0
 23 29  1  6  0  0  0
 23 25  1  0  0  0  0
 24 30  1  0  0  0  0
 26 21  2  0  0  0  0
 27 23  1  0  0  0  0
 28 26  1  0  0  0  0
 28 25  1  0  0  0  0
 30 22  1  6  0  0  0
 30 27  1  0  0  0  0
 30 28  1  0  0  0  0
 32 33  1  0  0  0  0
 32 31  1  0  0  0  0
 33 34  1  6  0  0  0
 36 38  1  0  0  0  0
 37 33  1  1  0  0  0
 37 41  1  0  0  0  0
 38 39  2  0  0  0  0
 38 37  1  0  0  0  0
 39 42  1  0  0  0  0
 41 40  1  0  0  0  0
 41 35  2  0  0  0  0
 42 40  2  0  0  0  0
M  END
>  <MODEL>
8

>  <REMARK>
 VINA RESULT:      -7.5      2.998      8.083
  Name = 
  9 active torsions:
  status: ('A' for Active; 'I' for Inactive)
    1  A    between atoms: N_5  and  N_10
    2  A    between atoms: C_6  and  C_20
    3  A    between atoms: C_7  and  N_10
    4  A    between atoms: C_7  and  C_13
    5  A    between atoms: C_8  and  C_13
    6  A    between atoms: C_11  and  C_26
    7  A    between atoms: C_15  and  C_30
    8  A    between atoms: C_15  and  C_36
    9  A    between atoms: C_26  and  C_36
                            x       y       z     vdW  Elec       q    Type
                         _______ _______ _______ _____ _____    ______ ____

>  <TORSDO>
F 9

$$$$
=
 OpenBabel11042415293D

 42 46  0  0  1  0  0  0  0  0999 V2000
  191.7180  173.4530  140.1860 C   0  0  0  0  0  3  0  0  0  0  0  0
  191.6020  174.6980  142.7390 C   0  0  0  0  0  0  0  0  0  0  0  0
  190.4180  173.3180  140.9210 C   0  0  1  0  0  3  0  0  0  0  0  0
  189.5370  174.3030  146.7830 C   0  0  0  0  0  3  0  0  0  0  0  0
  191.0050  175.3200  145.1480 C   0  0  0  0  0  0  0  0  0  0  0  0
  190.8600  176.1580  147.4200 C   0  0  0  0  0  0  0  0  0  0  0  0
  191.6600  175.4520  143.9930 C   0  0  0  0  0  3  0  0  0  0  0  0
  189.4850  173.4430  144.6490 C   0  0  0  0  0  3  0  0  0  0  0  0
  189.6640  173.2060  143.2160 C   0  0  0  0  0  3  0  0  0  0  0  0
  190.5350  173.7420  142.3680 C   0  0  0  0  0  0  0  0  0  0  0  0
  192.6920  174.2450  140.6320 C   0  0  0  0  0  0  0  0  0  0  0  0
  189.9530  175.1960  147.7180 N   0  0  0  0  0  0  0  0  0  0  0  0
  191.3990  176.2280  146.1380 C   0  0  0  0  0  3  0  0  0  0  0  0
  190.0320  174.3380  145.4730 C   0  0  2  0  0  3  0  0  0  0  0  0
  192.5730  174.9090  141.8990 N   0  0  0  0  0  2  0  0  0  0  0  0
  191.2790  177.0890  148.4290 C   0  0  0  0  0  0  0  0  0  0  0  0
  191.6130  177.8400  149.2440 N   0  0  0  0  0  0  0  0  0  0  0  0
  189.3590  174.1400  140.1870 C   0  0  0  0  0  2  0  0  0  0  0  0
  188.1960  174.5130  141.0950 C   0  0  0  0  0  2  0  0  0  0  0  0
  188.2280  175.9340  141.3900 N   0  0  0  0  0  2  0  0  0  0  0  0
  188.0440  176.3790  142.7010 N   0  0  0  0  0  0  0  0  0  0  0  0
  185.7080  179.7720  143.9580 C   0  0  0  0  0  1  0  0  0  0  0  0
  187.0410  177.8360  146.6750 C   0  0  1  0  0  3  0  0  0  0  0  0
  184.5350  177.7560  144.4730 O   0  0  0  0  0  1  0  0  0  0  0  0
  187.7150  177.2810  145.4320 C   0  0  0  0  0  2  0  0  0  0  0  0
  187.0650  177.1750  142.9830 C   0  0  0  0  0  3  0  0  0  0  0  0
  185.8830  178.7080  146.1970 C   0  0  0  0  0  2  0  0  0  0  0  0
  186.8600  177.6460  144.3200 N   0  0  0  0  0  0  0  0  0  0  0  0
  186.5440  176.7810  147.4380 O   0  0  0  0  0  1  0  0  0  0  0  0
  185.7210  178.4530  144.7090 C   0  0  2  0  0  0  0  0  0  0  0  0
  193.9400  174.3860  139.8320 C   0  0  0  0  0  2  0  0  0  0  0  0
  195.0120  173.4490  140.3610 C   0  0  0  0  0  2  0  0  0  0  0  0
  196.1690  174.2460  140.9420 C   0  0  2  0  0  3  0  0  0  0  0  0
  197.3370  173.4850  140.9180 O   0  0  0  0  0  1  0  0  0  0  0  0
  196.2730  176.9230  141.7460 O   0  0  0  0  0  0  0  0  0  0  0  0
  195.3470  172.0960  143.1200 Cl  0  0  0  0  0  0  0  0  0  0  0  0
  195.8720  174.7190  142.3440 C   0  0  2  0  0  3  0  0  0  0  0  0
  195.5010  173.8280  143.3780 C   0  0  0  0  0  0  0  0  0  0  0  0
  195.2400  174.3220  144.6550 C   0  0  0  0  0  3  0  0  0  0  0  0
  195.6970  176.5370  143.8990 N   0  0  0  0  0  0  0  0  0  0  0  0
  195.9570  176.0930  142.6410 C   0  0  0  0  0  0  0  0  0  0  0  0
  195.3460  175.6900  144.9010 C   0  0  0  0  0  3  0  0  0  0  0  0
  1 11  2  0  0  0  0
  1  3  1  0  0  0  0
  2  7  1  0  0  0  0
  3 18  1  6  0  0  0
  3 10  1  0  0  0  0
  4 12  2  0  0  0  0
  5 14  1  0  0  0  0
  5 13  1  0  0  0  0
  6 12  1  0  0  0  0
  6 16  1  0  0  0  0
  7  5  2  0  0  0  0
  9  8  2  0  0  0  0
 10  2  2  0  0  0  0
 10  9  1  0  0  0  0
 11 15  1  0  0  0  0
 13  6  2  0  0  0  0
 14  8  1  6  0  0  0
 14  4  1  0  0  0  0
 15  2  1  0  0  0  0
 16 17  3  0  0  0  0
 18 19  1  0  0  0  0
 19 20  1  0  0  0  0
 20 21  1  0  0  0  0
 21 26  2  0  0  0  0
 23 29  1  1  0  0  0
 24 30  1  0  0  0  0
 25 23  1  0  0  0  0
 26 28  1  0  0  0  0
 27 23  1  0  0  0  0
 28 30  1  0  0  0  0
 28 25  1  0  0  0  0
 30 22  1  6  0  0  0
 30 27  1  0  0  0  0
 31 32  1  0  0  0  0
 31 11  1  0  0  0  0
 32 33  1  0  0  0  0
 33 34  1  1  0  0  0
 35 41  2  0  0  0  0
 36 38  1  0  0  0  0
 37 33  1  6  0  0  0
 37 41  1  0  0  0  0
 37 38  1  0  0  0  0
 38 39  2  0  0  0  0
 39 42  1  0  0  0  0
 40 42  2  0  0  0  0
 41 40  1  0  0  0  0
M  END
>  <MODEL>
9

>  <REMARK>
 VINA RESULT:      -7.4      2.935      8.647
  Name = 
  9 active torsions:
  status: ('A' for Active; 'I' for Inactive)
    1  A    between atoms: N_5  and  N_10
    2  A    between atoms: C_6  and  C_20
    3  A    between atoms: C_7  and  N_10
    4  A    between atoms: C_7  and  C_13
    5  A    between atoms: C_8  and  C_13
    6  A    between atoms: C_11  and  C_26
    7  A    between atoms: C_15  and  C_30
    8  A    between atoms: C_15  and  C_36
    9  A    between atoms: C_26  and  C_36
                            x       y       z     vdW  Elec       q    Type
                         _______ _______ _______ _____ _____    ______ ____

>  <TORSDO>
F 9

$$$$
