=
 OpenBabel11042417513D

 57 60  0  0  1  0  0  0  0  0999 V2000
  191.0580  175.7230  143.9830 C   0  0  0  0  0  3  0  0  0  0  0  0
  189.7410  175.8890  143.8620 C   0  0  0  0  0  0  0  0  0  0  0  0
  191.9930  176.0230  142.8970 C   0  0  0  0  0  3  0  0  0  0  0  0
  192.7250  175.0760  142.3400 C   0  0  0  0  0  3  0  0  0  0  0  0
  196.0970  175.8540  140.4470 S   0  0  0  0  0  0  0  0  0  0  0  0
  193.6410  175.4280  141.2200 C   0  0  2  0  0  3  0  0  0  0  0  0
  193.9880  174.2160  140.3980 C   0  0  0  0  0  2  0  0  0  0  0  0
  195.1060  174.6600  139.4920 C   0  0  1  0  0  3  0  0  0  0  0  0
  194.8750  176.0010  141.7200 N   0  0  0  0  0  2  0  0  0  0  0  0
  194.5490  175.3340  138.3330 N   0  0  0  0  0  2  0  0  0  0  0  0
  194.4520  174.3580  137.2610 C   0  0  2  0  0  3  0  0  0  0  0  0
  195.8030  174.1750  136.6450 C   0  0  0  0  0  0  0  0  0  0  0  0
  196.5780  175.2810  136.2960 O   0  0  0  0  0  0  0  0  0  0  0  0
  196.2710  173.0160  136.5150 O   0  0  0  0  0  1  0  0  0  0  0  0
  193.4170  174.8240  136.2270 C   0  0  1  0  0  3  0  0  0  0  0  0
  192.2020  173.8950  136.1740 C   0  0  0  0  0  2  0  0  0  0  0  0
  191.0410  174.5840  136.5350 O   0  0  0  0  0  1  0  0  0  0  0  0
  193.0030  176.1310  136.5130 O   0  0  0  0  0  0  0  0  0  0  0  0
  193.3760  176.8800  135.3980 C   0  0  0  0  0  2  0  0  0  0  0  0
  192.1470  177.5190  134.7790 C   0  0  0  0  0  1  0  0  0  0  0  0
  188.8990  175.4450  144.9340 N   0  0  0  0  0  2  0  0  0  0  0  0
  188.9000  176.0160  146.2790 C   0  0  2  0  0  3  0  0  0  0  0  0
  189.6550  175.1170  147.2310 C   0  0  0  0  0  1  0  0  0  0  0  0
  186.6150  177.0710  146.0910 C   0  0  0  0  0  0  0  0  0  0  0  0
  185.8330  178.3620  144.4380 N   0  0  0  0  0  0  0  0  0  0  0  0
  184.5780  178.2230  145.1450 C   0  0  0  0  0  2  0  0  0  0  0  0
  187.5500  176.2310  146.7690 N   0  0  0  0  0  2  0  0  0  0  0  0
  184.9250  177.2310  146.6410 S   0  0  0  0  0  0  0  0  0  0  0  0
  186.9080  177.6790  144.9980 N   0  0  0  0  0  0  0  0  0  0  0  0
  185.9580  179.0940  143.1880 C   0  0  0  0  0  2  0  0  0  0  0  0
  185.6660  178.1940  142.0350 C   0  0  0  0  0  0  0  0  0  0  0  0
  185.1790  177.0510  142.2360 O   0  0  0  0  0  1  0  0  0  0  0  0
  185.9650  178.6040  140.7420 O   0  0  0  0  0  0  0  0  0  0  0  0
  189.1400  176.4440  142.5980 C   0  0  0  0  0  2  0  0  0  0  0  0
  188.3320  175.1700  141.6270 S   0  0  0  0  0  0  0  0  0  0  0  0
  187.1950  174.6060  142.4240 O   0  0  0  0  0  0  0  0  0  0  0  0
  187.7920  175.7780  140.3670 O   0  0  0  0  0  0  0  0  0  0  0  0
  189.8920  173.7370  139.8740 C   0  0  0  0  0  3  0  0  0  0  0  0
  189.4060  173.8590  141.1770 C   0  0  0  0  0  0  0  0  0  0  0  0
  190.6950  171.9000  141.8360 C   0  0  0  0  0  0  0  0  0  0  0  0
  191.1500  171.7610  140.5150 C   0  0  0  0  0  0  0  0  0  0  0  0
  192.2460  170.4660  140.0600 Cl  0  0  0  0  0  0  0  0  0  0  0  0
  190.7560  172.6870  139.5420 C   0  0  0  0  0  3  0  0  0  0  0  0
  189.8220  172.9510  142.1560 C   0  0  0  0  0  3  0  0  0  0  0  0
  191.1340  170.9870  142.8500 N   0  0  0  0  0  2  0  0  0  0  0  0
  191.5810  171.4340  144.1650 C   0  0  0  0  0  2  0  0  0  0  0  0
  193.8020  170.3870  144.4520 C   0  0  0  0  0  2  0  0  0  0  0  0
  193.4440  172.7180  145.2440 C   0  0  0  0  0  2  0  0  0  0  0  0
  195.3200  170.5700  144.4400 C   0  0  1  0  0  3  0  0  0  0  0  0
  195.7620  170.7270  143.1410 F   0  0  0  0  0  0  0  0  0  0  0  0
  193.0770  171.6940  144.1630 C   0  0  2  0  0  3  0  0  0  0  0  0
  194.8920  172.9230  145.2740 N   0  0  0  0  0  0  0  0  0  0  0  0
  195.7300  171.7500  145.2580 C   0  0  0  0  0  0  0  0  0  0  0  0
  196.8470  171.6850  145.9730 C   0  0  0  0  0  2  0  0  0  0  0  0
  194.9410  175.2050  146.0590 C   0  0  0  0  0  2  0  0  0  0  0  0
  195.4370  174.2610  145.2640 C   0  0  0  0  0  0  0  0  0  0  0  0
  196.4010  174.6410  144.2810 N   0  0  0  0  0  1  0  0  0  0  0  0
  2  1  2  0  0  0  0
  2 21  1  0  0  0  0
  3  1  1  0  0  0  0
  4  3  2  0  0  0  0
  5  9  1  0  0  0  0
  6  9  1  0  0  0  0
  6  4  1  1  0  0  0
  7  6  1  0  0  0  0
  8 10  1  6  0  0  0
  8  7  1  0  0  0  0
  8  5  1  0  0  0  0
 11 12  1  6  0  0  0
 11 10  1  0  0  0  0
 13 12  2  0  0  0  0
 14 12  1  0  0  0  0
 15 16  1  1  0  0  0
 15 18  1  0  0  0  0
 15 11  1  0  0  0  0
 16 17  1  0  0  0  0
 19 18  1  0  0  0  0
 20 19  1  0  0  0  0
 21 22  1  0  0  0  0
 22 27  1  0  0  0  0
 22 23  1  1  0  0  0
 24 28  1  0  0  0  0
 24 27  1  0  0  0  0
 25 29  1  0  0  0  0
 25 26  1  0  0  0  0
 26 28  1  0  0  0  0
 29 24  2  0  0  0  0
 30 25  1  0  0  0  0
 31 32  1  0  0  0  0
 31 30  1  0  0  0  0
 33 31  2  0  0  0  0
 34  2  1  0  0  0  0
 35 36  2  0  0  0  0
 35 34  1  0  0  0  0
 37 35  2  0  0  0  0
 38 39  1  0  0  0  0
 39 35  1  0  0  0  0
 39 44  2  0  0  0  0
 40 44  1  0  0  0  0
 40 45  1  0  0  0  0
 41 40  2  0  0  0  0
 42 41  1  0  0  0  0
 43 38  2  0  0  0  0
 43 41  1  0  0  0  0
 45 46  1  0  0  0  0
 48 52  1  0  0  0  0
 49 50  1  6  0  0  0
 49 47  1  0  0  0  0
 49 53  1  0  0  0  0
 51 46  1  1  0  0  0
 51 47  1  0  0  0  0
 51 48  1  0  0  0  0
 53 52  1  0  0  0  0
 53 54  2  0  0  0  0
 56 52  1  0  0  0  0
 56 55  2  0  0  0  0
 57 56  1  0  0  0  0
M  END
>  <MODEL>
1

>  <REMARK>
 VINA RESULT:      -6.0      0.000      0.000
  Name = 
  21 active torsions:
  status: ('A' for Active; 'I' for Inactive)
    1  A    between atoms: C_1  and  O_28
    2  A    between atoms: C_3  and  C_30
    3  A    between atoms: S_4  and  C_12
    4  A    between atoms: S_4  and  C_17
    5  A    between atoms: C_9  and  C_25
    6  A    between atoms: N_11  and  C_41
    7  A    between atoms: CA_13  and  C_16
    8  A    between atoms: CA_13  and  C_30
    9  A    between atoms: CA_13  and  N_53
   10  A    between atoms: C_14  and  C_22
   11  A    between atoms: C_17  and  C_48
   12  A    between atoms: C_18  and  N_35
   13  A    between atoms: C_21  and  C_34
   14  A    between atoms: C_21  and  N_47
   15  A    between atoms: C_23  and  C_41
   16  A    between atoms: C_27  and  N_47
   17  A    between atoms: O_28  and  C_30
   18  A    between atoms: N_31  and  C_44
   19  A    between atoms: C_44  and  N_57
   20  A    between atoms: C_48  and  N_57
   21  A    between atoms: C_49  and  N_53
                            x       y       z     vdW  Elec       q    Type
                         _______ _______ _______ _____ _____    ______ ____

>  <TORSDO>
F 21

$$$$
=
 OpenBabel11042417513D

 57 60  0  0  1  0  0  0  0  0999 V2000
  192.3310  176.3480  142.8830 C   0  0  0  0  0  3  0  0  0  0  0  0
  192.4640  176.8130  144.1250 C   0  0  0  0  0  0  0  0  0  0  0  0
  193.4570  175.8090  142.1190 C   0  0  0  0  0  3  0  0  0  0  0  0
  194.2440  176.5950  141.4070 C   0  0  0  0  0  3  0  0  0  0  0  0
  197.7200  174.8280  140.8130 S   0  0  0  0  0  0  0  0  0  0  0  0
  195.3930  176.0010  140.6690 C   0  0  2  0  0  3  0  0  0  0  0  0
  195.1140  174.5740  140.2830 C   0  0  0  0  0  2  0  0  0  0  0  0
  196.4330  174.0320  139.7980 C   0  0  1  0  0  3  0  0  0  0  0  0
  196.5960  176.0210  141.4800 N   0  0  0  0  0  2  0  0  0  0  0  0
  196.6290  174.4100  138.4100 N   0  0  0  0  0  2  0  0  0  0  0  0
  195.6580  173.6800  137.6130 C   0  0  2  0  0  3  0  0  0  0  0  0
  196.2080  172.3250  137.2970 C   0  0  0  0  0  0  0  0  0  0  0  0
  197.3160  172.1870  136.4620 O   0  0  0  0  0  0  0  0  0  0  0  0
  195.7130  171.3120  137.8530 O   0  0  0  0  0  1  0  0  0  0  0  0
  195.3340  174.4700  136.3370 C   0  0  1  0  0  3  0  0  0  0  0  0
  193.8380  174.7700  136.2140 C   0  0  0  0  0  2  0  0  0  0  0  0
  193.4240  175.6320  137.2320 O   0  0  0  0  0  1  0  0  0  0  0  0
  196.0610  175.6670  136.3120 O   0  0  0  0  0  0  0  0  0  0  0  0
  196.0230  176.0850  134.9820 C   0  0  0  0  0  2  0  0  0  0  0  0
  196.3550  177.5630  134.9030 C   0  0  0  0  0  1  0  0  0  0  0  0
  191.3300  177.4390  144.7400 N   0  0  0  0  0  2  0  0  0  0  0  0
  189.9850  176.8690  144.7730 C   0  0  2  0  0  3  0  0  0  0  0  0
  190.0540  175.3710  144.9650 C   0  0  0  0  0  1  0  0  0  0  0  0
  187.9340  177.7440  143.5920 C   0  0  0  0  0  0  0  0  0  0  0  0
  186.1120  178.6660  144.5090 N   0  0  0  0  0  0  0  0  0  0  0  0
  185.7640  178.9490  143.1330 C   0  0  0  0  0  2  0  0  0  0  0  0
  189.2440  177.1790  143.5630 N   0  0  0  0  0  2  0  0  0  0  0  0
  187.0860  178.2280  142.0980 S   0  0  0  0  0  0  0  0  0  0  0  0
  187.3340  178.0260  144.6920 N   0  0  0  0  0  0  0  0  0  0  0  0
  185.2920  179.0870  145.6340 C   0  0  0  0  0  2  0  0  0  0  0  0
  185.3670  178.0770  146.7290 C   0  0  0  0  0  0  0  0  0  0  0  0
  185.9540  178.3590  147.8070 O   0  0  0  0  0  1  0  0  0  0  0  0
  184.8210  176.8140  146.5460 O   0  0  0  0  0  0  0  0  0  0  0  0
  193.7900  176.7670  144.8340 C   0  0  0  0  0  2  0  0  0  0  0  0
  193.9690  175.2790  145.8210 S   0  0  0  0  0  0  0  0  0  0  0  0
  195.2830  175.3330  146.5390 O   0  0  0  0  0  0  0  0  0  0  0  0
  192.8620  175.2190  146.8300 O   0  0  0  0  0  0  0  0  0  0  0  0
  195.0500  173.3190  144.2240 C   0  0  0  0  0  3  0  0  0  0  0  0
  193.9110  173.8080  144.8680 C   0  0  0  0  0  0  0  0  0  0  0  0
  192.6380  171.8960  144.0580 C   0  0  0  0  0  0  0  0  0  0  0  0
  193.7770  171.4300  143.3820 C   0  0  0  0  0  0  0  0  0  0  0  0
  193.7380  169.9440  142.4450 Cl  0  0  0  0  0  0  0  0  0  0  0  0
  194.9810  172.1370  143.4770 C   0  0  0  0  0  3  0  0  0  0  0  0
  192.7160  173.0860  144.7970 C   0  0  0  0  0  3  0  0  0  0  0  0
  191.4150  171.1510  144.0080 N   0  0  0  0  0  2  0  0  0  0  0  0
  190.1150  171.7930  143.8470 C   0  0  0  0  0  2  0  0  0  0  0  0
  188.6270  173.0830  142.3510 C   0  0  0  0  0  2  0  0  0  0  0  0
  190.2110  171.4360  141.3680 C   0  0  0  0  0  2  0  0  0  0  0  0
  188.4620  173.8000  141.0110 C   0  0  1  0  0  3  0  0  0  0  0  0
  189.1770  174.9820  141.0210 F   0  0  0  0  0  0  0  0  0  0  0  0
  190.0110  172.4630  142.4880 C   0  0  2  0  0  3  0  0  0  0  0  0
  190.0570  172.0770  140.0610 N   0  0  0  0  0  0  0  0  0  0  0  0
  188.9200  172.9430  139.8770 C   0  0  0  0  0  0  0  0  0  0  0  0
  188.2530  172.9800  138.7290 C   0  0  0  0  0  2  0  0  0  0  0  0
  191.1850  170.6950  138.4350 C   0  0  0  0  0  2  0  0  0  0  0  0
  191.0500  171.8760  139.0320 C   0  0  0  0  0  0  0  0  0  0  0  0
  192.0180  172.8890  138.7550 N   0  0  0  0  0  1  0  0  0  0  0  0
  1  2  2  0  0  0  0
  2 21  1  0  0  0  0
  2 34  1  0  0  0  0
  3  1  1  0  0  0  0
  4  3  2  0  0  0  0
  5  9  1  0  0  0  0
  6  4  1  1  0  0  0
  6  9  1  0  0  0  0
  7  6  1  0  0  0  0
  8 10  1  6  0  0  0
  8  7  1  0  0  0  0
  8  5  1  0  0  0  0
 11 12  1  6  0  0  0
 11 10  1  0  0  0  0
 12 14  1  0  0  0  0
 13 12  2  0  0  0  0
 15 16  1  1  0  0  0
 15 11  1  0  0  0  0
 16 17  1  0  0  0  0
 18 15  1  0  0  0  0
 19 18  1  0  0  0  0
 20 19  1  0  0  0  0
 21 22  1  0  0  0  0
 22 23  1  6  0  0  0
 24 29  2  0  0  0  0
 25 29  1  0  0  0  0
 25 30  1  0  0  0  0
 26 25  1  0  0  0  0
 27 24  1  0  0  0  0
 27 22  1  0  0  0  0
 28 26  1  0  0  0  0
 28 24  1  0  0  0  0
 30 31  1  0  0  0  0
 31 32  1  0  0  0  0
 33 31  2  0  0  0  0
 34 35  1  0  0  0  0
 35 36  2  0  0  0  0
 35 37  2  0  0  0  0
 38 39  1  0  0  0  0
 39 35  1  0  0  0  0
 40 44  1  0  0  0  0
 41 43  1  0  0  0  0
 41 40  2  0  0  0  0
 42 41  1  0  0  0  0
 43 38  2  0  0  0  0
 44 39  2  0  0  0  0
 45 40  1  0  0  0  0
 46 45  1  0  0  0  0
 47 51  1  0  0  0  0
 48 51  1  0  0  0  0
 49 50  1  1  0  0  0
 49 47  1  0  0  0  0
 51 46  1  1  0  0  0
 52 48  1  0  0  0  0
 53 52  1  0  0  0  0
 53 49  1  0  0  0  0
 54 53  2  0  0  0  0
 55 56  2  0  0  0  0
 56 52  1  0  0  0  0
 57 56  1  0  0  0  0
M  END
>  <MODEL>
2

>  <REMARK>
 VINA RESULT:      -5.8      2.792      4.876
  Name = 
  21 active torsions:
  status: ('A' for Active; 'I' for Inactive)
    1  A    between atoms: C_1  and  O_28
    2  A    between atoms: C_3  and  C_30
    3  A    between atoms: S_4  and  C_12
    4  A    between atoms: S_4  and  C_17
    5  A    between atoms: C_9  and  C_25
    6  A    between atoms: N_11  and  C_41
    7  A    between atoms: CA_13  and  C_16
    8  A    between atoms: CA_13  and  C_30
    9  A    between atoms: CA_13  and  N_53
   10  A    between atoms: C_14  and  C_22
   11  A    between atoms: C_17  and  C_48
   12  A    between atoms: C_18  and  N_35
   13  A    between atoms: C_21  and  C_34
   14  A    between atoms: C_21  and  N_47
   15  A    between atoms: C_23  and  C_41
   16  A    between atoms: C_27  and  N_47
   17  A    between atoms: O_28  and  C_30
   18  A    between atoms: N_31  and  C_44
   19  A    between atoms: C_44  and  N_57
   20  A    between atoms: C_48  and  N_57
   21  A    between atoms: C_49  and  N_53
                            x       y       z     vdW  Elec       q    Type
                         _______ _______ _______ _____ _____    ______ ____

>  <TORSDO>
F 21

$$$$
=
 OpenBabel11042417513D

 57 60  0  0  1  0  0  0  0  0999 V2000
  190.7200  173.4240  145.1260 C   0  0  0  0  0  3  0  0  0  0  0  0
  190.4690  174.7330  145.1160 C   0  0  0  0  0  0  0  0  0  0  0  0
  191.0480  172.6750  143.9120 C   0  0  0  0  0  3  0  0  0  0  0  0
  191.5750  171.4650  143.9710 C   0  0  0  0  0  3  0  0  0  0  0  0
  192.1930  168.4250  141.5360 S   0  0  0  0  0  0  0  0  0  0  0  0
  191.8640  170.7340  142.7070 C   0  0  2  0  0  3  0  0  0  0  0  0
  190.6180  170.5550  141.8830 C   0  0  0  0  0  2  0  0  0  0  0  0
  191.0010  169.5860  140.7940 C   0  0  1  0  0  3  0  0  0  0  0  0
  192.4150  169.4210  142.9820 N   0  0  0  0  0  2  0  0  0  0  0  0
  191.6570  170.3060  139.7170 N   0  0  0  0  0  2  0  0  0  0  0  0
  190.7170  170.3970  138.6130 C   0  0  2  0  0  3  0  0  0  0  0  0
  191.0740  169.3710  137.5840 C   0  0  0  0  0  0  0  0  0  0  0  0
  190.3730  168.1680  137.5100 O   0  0  0  0  0  1  0  0  0  0  0  0
  191.9600  169.6320  136.7320 O   0  0  0  0  0  0  0  0  0  0  0  0
  190.7390  171.8150  138.0260 C   0  0  1  0  0  3  0  0  0  0  0  0
  189.5950  172.0440  137.0350 C   0  0  0  0  0  2  0  0  0  0  0  0
  189.9110  173.0760  136.1490 O   0  0  0  0  0  1  0  0  0  0  0  0
  190.6710  172.7650  139.0550 O   0  0  0  0  0  0  0  0  0  0  0  0
  191.8430  173.5100  138.9360 C   0  0  0  0  0  2  0  0  0  0  0  0
  192.3470  173.8900  140.3160 C   0  0  0  0  0  1  0  0  0  0  0  0
  190.0310  175.3500  146.3330 N   0  0  0  0  0  2  0  0  0  0  0  0
  189.4120  176.6700  146.4170 C   0  0  2  0  0  3  0  0  0  0  0  0
  190.0820  177.4980  147.4890 C   0  0  0  0  0  1  0  0  0  0  0  0
  187.0080  177.1680  145.8310 C   0  0  0  0  0  0  0  0  0  0  0  0
  186.2290  178.2200  144.0140 N   0  0  0  0  0  0  0  0  0  0  0  0
  184.9410  177.8060  144.5290 C   0  0  0  0  0  2  0  0  0  0  0  0
  187.9870  176.5760  146.6840 N   0  0  0  0  0  2  0  0  0  0  0  0
  185.2600  176.9420  146.1090 S   0  0  0  0  0  0  0  0  0  0  0  0
  187.3270  177.8110  144.7660 N   0  0  0  0  0  0  0  0  0  0  0  0
  186.3840  178.9430  142.7630 C   0  0  0  0  0  2  0  0  0  0  0  0
  186.4260  177.9850  141.6190 C   0  0  0  0  0  0  0  0  0  0  0  0
  185.3950  177.7880  140.9240 O   0  0  0  0  0  0  0  0  0  0  0  0
  187.5930  177.2840  141.3450 O   0  0  0  0  0  1  0  0  0  0  0  0
  190.5560  175.5310  143.8420 C   0  0  0  0  0  2  0  0  0  0  0  0
  192.0690  176.4910  143.7580 S   0  0  0  0  0  0  0  0  0  0  0  0
  192.3800  176.7710  142.3180 O   0  0  0  0  0  0  0  0  0  0  0  0
  191.8710  177.7910  144.4770 O   0  0  0  0  0  0  0  0  0  0  0  0
  193.7940  175.8950  145.8150 C   0  0  0  0  0  3  0  0  0  0  0  0
  193.4450  175.6780  144.4800 C   0  0  0  0  0  0  0  0  0  0  0  0
  195.2660  174.0750  144.2690 C   0  0  0  0  0  0  0  0  0  0  0  0
  195.6350  174.3270  145.6010 C   0  0  0  0  0  0  0  0  0  0  0  0
  196.9950  173.4990  146.3420 Cl  0  0  0  0  0  0  0  0  0  0  0  0
  194.8900  175.2270  146.3720 C   0  0  0  0  0  3  0  0  0  0  0  0
  194.1710  174.7570  143.7190 C   0  0  0  0  0  3  0  0  0  0  0  0
  195.9920  173.1170  143.4890 N   0  0  0  0  0  2  0  0  0  0  0  0
  195.3420  171.9820  142.8420 C   0  0  0  0  0  2  0  0  0  0  0  0
  195.7130  170.7710  140.7190 C   0  0  0  0  0  2  0  0  0  0  0  0
  196.4720  173.1310  140.9220 C   0  0  0  0  0  2  0  0  0  0  0  0
  195.7500  170.8380  139.1920 C   0  0  1  0  0  3  0  0  0  0  0  0
  194.4650  170.9450  138.6960 F   0  0  0  0  0  0  0  0  0  0  0  0
  195.3890  172.1260  141.3310 C   0  0  2  0  0  3  0  0  0  0  0  0
  196.5490  173.2260  139.4640 N   0  0  0  0  0  0  0  0  0  0  0  0
  196.5710  171.9920  138.7190 C   0  0  0  0  0  0  0  0  0  0  0  0
  197.3230  171.8500  137.6340 C   0  0  0  0  0  2  0  0  0  0  0  0
  197.6150  175.3080  138.8670 C   0  0  0  0  0  2  0  0  0  0  0  0
  196.5460  174.5180  138.8190 C   0  0  0  0  0  0  0  0  0  0  0  0
  195.3390  175.0450  138.2640 N   0  0  0  0  0  1  0  0  0  0  0  0
  2  1  2  0  0  0  0
  2 21  1  0  0  0  0
  3  4  2  0  0  0  0
  3  1  1  0  0  0  0
  5  9  1  0  0  0  0
  6  9  1  0  0  0  0
  6  4  1  1  0  0  0
  7  6  1  0  0  0  0
  8 10  1  6  0  0  0
  8  5  1  0  0  0  0
  8  7  1  0  0  0  0
 11 12  1  6  0  0  0
 11 10  1  0  0  0  0
 13 12  1  0  0  0  0
 14 12  2  0  0  0  0
 15 16  1  6  0  0  0
 15 11  1  0  0  0  0
 15 18  1  0  0  0  0
 17 16  1  0  0  0  0
 19 18  1  0  0  0  0
 19 20  1  0  0  0  0
 21 22  1  0  0  0  0
 22 27  1  0  0  0  0
 22 23  1  1  0  0  0
 24 28  1  0  0  0  0
 24 27  1  0  0  0  0
 25 26  1  0  0  0  0
 25 29  1  0  0  0  0
 26 28  1  0  0  0  0
 29 24  2  0  0  0  0
 30 25  1  0  0  0  0
 31 30  1  0  0  0  0
 32 31  2  0  0  0  0
 33 31  1  0  0  0  0
 34  2  1  0  0  0  0
 35 34  1  0  0  0  0
 35 37  2  0  0  0  0
 35 39  1  0  0  0  0
 36 35  2  0  0  0  0
 38 43  1  0  0  0  0
 39 38  2  0  0  0  0
 40 41  1  0  0  0  0
 41 42  1  0  0  0  0
 41 43  2  0  0  0  0
 44 40  2  0  0  0  0
 44 39  1  0  0  0  0
 45 40  1  0  0  0  0
 46 45  1  0  0  0  0
 47 51  1  0  0  0  0
 48 51  1  0  0  0  0
 49 50  1  1  0  0  0
 49 47  1  0  0  0  0
 51 46  1  1  0  0  0
 52 48  1  0  0  0  0
 53 49  1  0  0  0  0
 53 52  1  0  0  0  0
 54 53  2  0  0  0  0
 56 55  2  0  0  0  0
 56 52  1  0  0  0  0
 57 56  1  0  0  0  0
M  END
>  <MODEL>
3

>  <REMARK>
 VINA RESULT:      -5.6      2.977      5.156
  Name = 
  21 active torsions:
  status: ('A' for Active; 'I' for Inactive)
    1  A    between atoms: C_1  and  O_28
    2  A    between atoms: C_3  and  C_30
    3  A    between atoms: S_4  and  C_12
    4  A    between atoms: S_4  and  C_17
    5  A    between atoms: C_9  and  C_25
    6  A    between atoms: N_11  and  C_41
    7  A    between atoms: CA_13  and  C_16
    8  A    between atoms: CA_13  and  C_30
    9  A    between atoms: CA_13  and  N_53
   10  A    between atoms: C_14  and  C_22
   11  A    between atoms: C_17  and  C_48
   12  A    between atoms: C_18  and  N_35
   13  A    between atoms: C_21  and  C_34
   14  A    between atoms: C_21  and  N_47
   15  A    between atoms: C_23  and  C_41
   16  A    between atoms: C_27  and  N_47
   17  A    between atoms: O_28  and  C_30
   18  A    between atoms: N_31  and  C_44
   19  A    between atoms: C_44  and  N_57
   20  A    between atoms: C_48  and  N_57
   21  A    between atoms: C_49  and  N_53
                            x       y       z     vdW  Elec       q    Type
                         _______ _______ _______ _____ _____    ______ ____

>  <TORSDO>
F 21

$$$$
=
 OpenBabel11042417513D

 57 60  0  0  1  0  0  0  0  0999 V2000
  189.8040  173.2220  144.5160 C   0  0  0  0  0  3  0  0  0  0  0  0
  189.6760  174.5280  144.2820 C   0  0  0  0  0  0  0  0  0  0  0  0
  190.7400  172.3770  143.7720 C   0  0  0  0  0  3  0  0  0  0  0  0
  191.8040  171.8530  144.3520 C   0  0  0  0  0  3  0  0  0  0  0  0
  192.9850  169.4050  141.4940 S   0  0  0  0  0  0  0  0  0  0  0  0
  192.7100  170.9770  143.5580 C   0  0  2  0  0  3  0  0  0  0  0  0
  193.5300  171.7810  142.5860 C   0  0  0  0  0  2  0  0  0  0  0  0
  194.1830  170.7640  141.6860 C   0  0  1  0  0  3  0  0  0  0  0  0
  191.9530  169.9950  142.8050 N   0  0  0  0  0  2  0  0  0  0  0  0
  195.3790  170.2480  142.3290 N   0  0  0  0  0  2  0  0  0  0  0  0
  196.2440  171.3780  142.6210 C   0  0  2  0  0  3  0  0  0  0  0  0
  197.4360  171.3240  141.7180 C   0  0  0  0  0  0  0  0  0  0  0  0
  197.9410  170.1000  141.2840 O   0  0  0  0  0  0  0  0  0  0  0  0
  197.9340  172.3950  141.2870 O   0  0  0  0  0  1  0  0  0  0  0  0
  196.6540  171.3510  144.1000 C   0  0  1  0  0  3  0  0  0  0  0  0
  196.9470  169.9300  144.5870 C   0  0  0  0  0  2  0  0  0  0  0  0
  197.5710  169.9570  145.8370 O   0  0  0  0  0  1  0  0  0  0  0  0
  197.7770  172.1630  144.3050 O   0  0  0  0  0  0  0  0  0  0  0  0
  197.2630  173.4030  144.6780 C   0  0  0  0  0  2  0  0  0  0  0  0
  197.0330  173.4290  146.1770 C   0  0  0  0  0  1  0  0  0  0  0  0
  188.6420  175.2430  144.9730 N   0  0  0  0  0  2  0  0  0  0  0  0
  188.8250  175.9470  146.2390 C   0  0  2  0  0  3  0  0  0  0  0  0
  189.5020  175.0480  147.2480 C   0  0  0  0  0  1  0  0  0  0  0  0
  186.7010  177.2960  146.0360 C   0  0  0  0  0  0  0  0  0  0  0  0
  185.9760  178.4540  144.2630 N   0  0  0  0  0  0  0  0  0  0  0  0
  184.7750  178.6000  145.0570 C   0  0  0  0  0  2  0  0  0  0  0  0
  187.5610  176.4250  146.7720 N   0  0  0  0  0  2  0  0  0  0  0  0
  185.1000  177.7780  146.6570 S   0  0  0  0  0  0  0  0  0  0  0  0
  186.9880  177.7000  144.8510 N   0  0  0  0  0  0  0  0  0  0  0  0
  186.1010  178.9840  142.9150 C   0  0  0  0  0  2  0  0  0  0  0  0
  186.8550  178.0260  142.0550 C   0  0  0  0  0  0  0  0  0  0  0  0
  186.2740  177.0170  141.5770 O   0  0  0  0  0  0  0  0  0  0  0  0
  188.2070  178.2290  141.8120 O   0  0  0  0  0  1  0  0  0  0  0  0
  190.5310  175.2220  143.2570 C   0  0  0  0  0  2  0  0  0  0  0  0
  192.0140  175.9220  143.9870 S   0  0  0  0  0  0  0  0  0  0  0  0
  191.7520  177.3600  144.3190 O   0  0  0  0  0  0  0  0  0  0  0  0
  192.3420  175.1810  145.2470 O   0  0  0  0  0  0  0  0  0  0  0  0
  194.6910  176.1380  143.3980 C   0  0  0  0  0  3  0  0  0  0  0  0
  193.4110  175.8360  142.9300 C   0  0  0  0  0  0  0  0  0  0  0  0
  194.3400  175.3090  140.7420 C   0  0  0  0  0  0  0  0  0  0  0  0
  195.6200  175.6510  141.2080 C   0  0  0  0  0  0  0  0  0  0  0  0
  197.0290  175.5440  140.1650 Cl  0  0  0  0  0  0  0  0  0  0  0  0
  195.7910  176.0530  142.5370 C   0  0  0  0  0  3  0  0  0  0  0  0
  193.2430  175.4060  141.6100 C   0  0  0  0  0  3  0  0  0  0  0  0
  194.1630  174.8460  139.3960 N   0  0  0  0  0  2  0  0  0  0  0  0
  194.3830  173.4560  139.0120 C   0  0  0  0  0  2  0  0  0  0  0  0
  193.1780  171.7860  137.6440 C   0  0  0  0  0  2  0  0  0  0  0  0
  191.9350  173.7390  138.5550 C   0  0  0  0  0  2  0  0  0  0  0  0
  191.8840  171.0040  137.4170 C   0  0  1  0  0  3  0  0  0  0  0  0
  191.7450  170.0370  138.3940 F   0  0  0  0  0  0  0  0  0  0  0  0
  193.0600  172.7340  138.8290 C   0  0  2  0  0  3  0  0  0  0  0  0
  190.6730  173.0340  138.3250 N   0  0  0  0  0  0  0  0  0  0  0  0
  190.6950  171.9070  137.4270 C   0  0  0  0  0  0  0  0  0  0  0  0
  189.6930  171.6660  136.5900 C   0  0  0  0  0  2  0  0  0  0  0  0
  189.2430  173.0250  140.2700 C   0  0  0  0  0  2  0  0  0  0  0  0
  189.4770  173.4380  139.0270 C   0  0  0  0  0  0  0  0  0  0  0  0
  188.4420  174.1460  138.3430 N   0  0  0  0  0  1  0  0  0  0  0  0
  2  1  2  0  0  0  0
  2 21  1  0  0  0  0
  3  4  2  0  0  0  0
  3  1  1  0  0  0  0
  5  8  1  0  0  0  0
  5  9  1  0  0  0  0
  6  4  1  6  0  0  0
  7  6  1  0  0  0  0
  8 10  1  1  0  0  0
  8  7  1  0  0  0  0
  9  6  1  0  0  0  0
 10 11  1  0  0  0  0
 11 12  1  6  0  0  0
 11 15  1  0  0  0  0
 13 12  2  0  0  0  0
 14 12  1  0  0  0  0
 15 18  1  0  0  0  0
 15 16  1  6  0  0  0
 16 17  1  0  0  0  0
 18 19  1  0  0  0  0
 19 20  1  0  0  0  0
 21 22  1  0  0  0  0
 22 27  1  0  0  0  0
 22 23  1  1  0  0  0
 24 28  1  0  0  0  0
 24 27  1  0  0  0  0
 25 29  1  0  0  0  0
 25 26  1  0  0  0  0
 26 28  1  0  0  0  0
 29 24  2  0  0  0  0
 30 25  1  0  0  0  0
 31 30  1  0  0  0  0
 32 31  2  0  0  0  0
 33 31  1  0  0  0  0
 34 35  1  0  0  0  0
 34  2  1  0  0  0  0
 35 36  2  0  0  0  0
 35 37  2  0  0  0  0
 39 38  1  0  0  0  0
 39 35  1  0  0  0  0
 40 41  2  0  0  0  0
 40 44  1  0  0  0  0
 41 43  1  0  0  0  0
 42 41  1  0  0  0  0
 43 38  2  0  0  0  0
 44 39  2  0  0  0  0
 45 40  1  0  0  0  0
 46 45  1  0  0  0  0
 47 51  1  0  0  0  0
 48 51  1  0  0  0  0
 49 53  1  0  0  0  0
 49 47  1  0  0  0  0
 49 50  1  1  0  0  0
 51 46  1  6  0  0  0
 52 48  1  0  0  0  0
 52 56  1  0  0  0  0
 53 52  1  0  0  0  0
 54 53  2  0  0  0  0
 56 55  2  0  0  0  0
 57 56  1  0  0  0  0
M  END
>  <MODEL>
4

>  <REMARK>
 VINA RESULT:      -5.6      3.384      6.367
  Name = 
  21 active torsions:
  status: ('A' for Active; 'I' for Inactive)
    1  A    between atoms: C_1  and  O_28
    2  A    between atoms: C_3  and  C_30
    3  A    between atoms: S_4  and  C_12
    4  A    between atoms: S_4  and  C_17
    5  A    between atoms: C_9  and  C_25
    6  A    between atoms: N_11  and  C_41
    7  A    between atoms: CA_13  and  C_16
    8  A    between atoms: CA_13  and  C_30
    9  A    between atoms: CA_13  and  N_53
   10  A    between atoms: C_14  and  C_22
   11  A    between atoms: C_17  and  C_48
   12  A    between atoms: C_18  and  N_35
   13  A    between atoms: C_21  and  C_34
   14  A    between atoms: C_21  and  N_47
   15  A    between atoms: C_23  and  C_41
   16  A    between atoms: C_27  and  N_47
   17  A    between atoms: O_28  and  C_30
   18  A    between atoms: N_31  and  C_44
   19  A    between atoms: C_44  and  N_57
   20  A    between atoms: C_48  and  N_57
   21  A    between atoms: C_49  and  N_53
                            x       y       z     vdW  Elec       q    Type
                         _______ _______ _______ _____ _____    ______ ____

>  <TORSDO>
F 21

$$$$
=
 OpenBabel11042417513D

 57 60  0  0  1  0  0  0  0  0999 V2000
  190.1470  177.7710  142.5940 C   0  0  0  0  0  3  0  0  0  0  0  0
  188.9760  177.1580  142.4200 C   0  0  0  0  0  0  0  0  0  0  0  0
  191.1760  177.2610  143.5020 C   0  0  0  0  0  3  0  0  0  0  0  0
  192.3010  176.7440  143.0450 C   0  0  0  0  0  3  0  0  0  0  0  0
  194.2260  176.3110  146.4610 S   0  0  0  0  0  0  0  0  0  0  0  0
  193.3280  176.2640  144.0100 C   0  0  2  0  0  3  0  0  0  0  0  0
  192.9670  174.9130  144.5640 C   0  0  0  0  0  2  0  0  0  0  0  0
  193.9290  174.6820  145.7010 C   0  0  1  0  0  3  0  0  0  0  0  0
  193.4650  177.1850  145.1220 N   0  0  0  0  0  2  0  0  0  0  0  0
  195.1830  174.1740  145.1750 N   0  0  0  0  0  2  0  0  0  0  0  0
  194.8900  172.9610  144.4310 C   0  0  2  0  0  3  0  0  0  0  0  0
  195.1180  171.7780  145.3190 C   0  0  0  0  0  0  0  0  0  0  0  0
  196.3180  171.6360  146.0150 O   0  0  0  0  0  1  0  0  0  0  0  0
  194.1890  170.9510  145.4970 O   0  0  0  0  0  0  0  0  0  0  0  0
  195.7650  172.8990  143.1720 C   0  0  1  0  0  3  0  0  0  0  0  0
  195.0680  173.5210  141.9590 C   0  0  0  0  0  2  0  0  0  0  0  0
  193.8090  172.9470  141.7670 O   0  0  0  0  0  1  0  0  0  0  0  0
  196.9860  173.5470  143.4000 O   0  0  0  0  0  0  0  0  0  0  0  0
  197.9350  172.7740  142.7320 C   0  0  0  0  0  2  0  0  0  0  0  0
  197.5160  171.3160  142.7610 C   0  0  0  0  0  1  0  0  0  0  0  0
  187.9860  177.8040  141.6100 N   0  0  0  0  0  2  0  0  0  0  0  0
  186.5440  177.6230  141.7620 C   0  0  2  0  0  3  0  0  0  0  0  0
  185.8740  177.5760  140.4090 C   0  0  0  0  0  1  0  0  0  0  0  0
  185.8180  178.5730  143.9850 C   0  0  0  0  0  0  0  0  0  0  0  0
  186.0920  177.6720  146.0160 N   0  0  0  0  0  0  0  0  0  0  0  0
  185.5930  178.9530  146.4700 C   0  0  0  0  0  2  0  0  0  0  0  0
  185.9560  178.6790  142.5680 N   0  0  0  0  0  2  0  0  0  0  0  0
  185.2020  179.9260  144.9730 S   0  0  0  0  0  0  0  0  0  0  0  0
  186.2170  177.5400  144.6360 N   0  0  0  0  0  0  0  0  0  0  0  0
  186.5100  176.6190  146.9270 C   0  0  0  0  0  2  0  0  0  0  0  0
  187.9870  176.4280  146.8470 C   0  0  0  0  0  0  0  0  0  0  0  0
  188.7320  177.3960  146.5440 O   0  0  0  0  0  0  0  0  0  0  0  0
  188.5360  175.1720  147.0700 O   0  0  0  0  0  1  0  0  0  0  0  0
  188.6640  175.8650  143.1240 C   0  0  0  0  0  2  0  0  0  0  0  0
  188.4570  174.5080  141.9690 S   0  0  0  0  0  0  0  0  0  0  0  0
  187.0400  174.0240  142.0450 O   0  0  0  0  0  0  0  0  0  0  0  0
  188.7330  174.9950  140.5790 O   0  0  0  0  0  0  0  0  0  0  0  0
  189.9390  172.8540  143.5910 C   0  0  0  0  0  3  0  0  0  0  0  0
  189.5290  173.1570  142.2910 C   0  0  0  0  0  0  0  0  0  0  0  0
  190.7770  171.2410  141.4560 C   0  0  0  0  0  0  0  0  0  0  0  0
  191.2170  170.9640  142.7600 C   0  0  0  0  0  0  0  0  0  0  0  0
  192.2690  169.5990  143.0980 Cl  0  0  0  0  0  0  0  0  0  0  0  0
  190.7860  171.7650  143.8240 C   0  0  0  0  0  3  0  0  0  0  0  0
  189.9350  172.3400  141.2320 C   0  0  0  0  0  3  0  0  0  0  0  0
  191.1720  170.3950  140.3680 N   0  0  0  0  0  2  0  0  0  0  0  0
  190.5160  170.4390  139.0660 C   0  0  0  0  0  2  0  0  0  0  0  0
  190.9400  171.1000  136.7210 C   0  0  0  0  0  2  0  0  0  0  0  0
  192.6630  171.5760  138.4510 C   0  0  0  0  0  2  0  0  0  0  0  0
  191.5410  172.1310  135.7660 C   0  0  1  0  0  3  0  0  0  0  0  0
  190.7580  173.2700  135.7560 F   0  0  0  0  0  0  0  0  0  0  0  0
  191.1570  171.4890  138.1760 C   0  0  2  0  0  3  0  0  0  0  0  0
  193.2850  172.5510  137.5540 N   0  0  0  0  0  0  0  0  0  0  0  0
  192.9380  172.4840  136.1560 C   0  0  0  0  0  0  0  0  0  0  0  0
  193.8390  172.7030  135.2060 C   0  0  0  0  0  2  0  0  0  0  0  0
  193.7560  174.8270  138.2060 C   0  0  0  0  0  2  0  0  0  0  0  0
  194.1650  173.5670  138.0830 C   0  0  0  0  0  0  0  0  0  0  0  0
  195.5430  173.2760  138.3220 N   0  0  0  0  0  1  0  0  0  0  0  0
  1  3  1  0  0  0  0
  2  1  2  0  0  0  0
  2 34  1  0  0  0  0
  4  3  2  0  0  0  0
  6  4  1  6  0  0  0
  6  7  1  0  0  0  0
  6  9  1  0  0  0  0
  7  8  1  0  0  0  0
  8 10  1  6  0  0  0
  8  5  1  0  0  0  0
  9  5  1  0  0  0  0
 11 10  1  1  0  0  0
 11 12  1  0  0  0  0
 12 14  2  0  0  0  0
 12 13  1  0  0  0  0
 15 16  1  6  0  0  0
 15 18  1  0  0  0  0
 15 11  1  0  0  0  0
 17 16  1  0  0  0  0
 19 20  1  0  0  0  0
 19 18  1  0  0  0  0
 21 22  1  0  0  0  0
 21  2  1  0  0  0  0
 22 23  1  6  0  0  0
 22 27  1  0  0  0  0
 24 29  2  0  0  0  0
 24 28  1  0  0  0  0
 25 26  1  0  0  0  0
 25 30  1  0  0  0  0
 27 24  1  0  0  0  0
 28 26  1  0  0  0  0
 29 25  1  0  0  0  0
 31 30  1  0  0  0  0
 31 33  1  0  0  0  0
 32 31  2  0  0  0  0
 35 36  2  0  0  0  0
 35 39  1  0  0  0  0
 35 34  1  0  0  0  0
 37 35  2  0  0  0  0
 38 43  1  0  0  0  0
 39 38  2  0  0  0  0
 40 41  1  0  0  0  0
 41 42  1  0  0  0  0
 41 43  2  0  0  0  0
 44 40  2  0  0  0  0
 44 39  1  0  0  0  0
 45 40  1  0  0  0  0
 46 45  1  0  0  0  0
 47 51  1  0  0  0  0
 49 50  1  1  0  0  0
 49 53  1  0  0  0  0
 49 47  1  0  0  0  0
 51 48  1  0  0  0  0
 51 46  1  1  0  0  0
 52 56  1  0  0  0  0
 52 48  1  0  0  0  0
 53 52  1  0  0  0  0
 54 53  2  0  0  0  0
 56 55  2  0  0  0  0
 56 57  1  0  0  0  0
M  END
>  <MODEL>
5

>  <REMARK>
 VINA RESULT:      -5.5      3.264      6.091
  Name = 
  21 active torsions:
  status: ('A' for Active; 'I' for Inactive)
    1  A    between atoms: C_1  and  O_28
    2  A    between atoms: C_3  and  C_30
    3  A    between atoms: S_4  and  C_12
    4  A    between atoms: S_4  and  C_17
    5  A    between atoms: C_9  and  C_25
    6  A    between atoms: N_11  and  C_41
    7  A    between atoms: CA_13  and  C_16
    8  A    between atoms: CA_13  and  C_30
    9  A    between atoms: CA_13  and  N_53
   10  A    between atoms: C_14  and  C_22
   11  A    between atoms: C_17  and  C_48
   12  A    between atoms: C_18  and  N_35
   13  A    between atoms: C_21  and  C_34
   14  A    between atoms: C_21  and  N_47
   15  A    between atoms: C_23  and  C_41
   16  A    between atoms: C_27  and  N_47
   17  A    between atoms: O_28  and  C_30
   18  A    between atoms: N_31  and  C_44
   19  A    between atoms: C_44  and  N_57
   20  A    between atoms: C_48  and  N_57
   21  A    between atoms: C_49  and  N_53
                            x       y       z     vdW  Elec       q    Type
                         _______ _______ _______ _____ _____    ______ ____

>  <TORSDO>
F 21

$$$$
=
 OpenBabel11042417513D

 57 60  0  0  1  0  0  0  0  0999 V2000
  193.5290  173.1980  145.2560 C   0  0  0  0  0  2  0  0  0  0  0  0
  194.7980  173.5670  145.0800 C   0  0  0  0  0  0  0  0  0  0  0  0
  192.4680  174.1540  145.5760 C   0  0  0  0  0  3  0  0  0  0  0  0
  191.2070  173.9070  145.2740 C   0  0  0  0  0  3  0  0  0  0  0  0
  189.5880  177.1180  146.8960 S   0  0  0  0  0  0  0  0  0  0  0  0
  190.1610  174.9000  145.6460 C   0  0  2  0  0  3  0  0  0  0  0  0
  189.9440  175.9020  144.5440 C   0  0  0  0  0  2  0  0  0  0  0  0
  189.0800  176.9750  145.1520 C   0  0  1  0  0  3  0  0  0  0  0  0
  190.5350  175.6230  146.8460 N   0  0  0  0  0  2  0  0  0  0  0  0
  187.6890  176.5610  145.1010 N   0  0  0  0  0  2  0  0  0  0  0  0
  186.8730  177.7630  145.0830 C   0  0  2  0  0  3  0  0  0  0  0  0
  186.0310  177.7990  146.3200 C   0  0  0  0  0  0  0  0  0  0  0  0
  185.3810  176.6500  146.7680 O   0  0  0  0  0  0  0  0  0  0  0  0
  185.9770  178.8540  147.0000 O   0  0  0  0  0  1  0  0  0  0  0  0
  186.0110  177.7860  143.8130 C   0  0  1  0  0  3  0  0  0  0  0  0
  185.0110  178.9450  143.8210 C   0  0  0  0  0  2  0  0  0  0  0  0
  185.6550  180.1490  144.1130 O   0  0  0  0  0  1  0  0  0  0  0  0
  186.8270  177.8730  142.6770 O   0  0  0  0  0  0  0  0  0  0  0  0
  185.9510  177.7850  141.5960 C   0  0  0  0  0  2  0  0  0  0  0  0
  186.7340  177.5000  140.3280 C   0  0  0  0  0  1  0  0  0  0  0  0
  195.7840  172.5420  144.8990 N   0  0  0  0  0  0  0  0  0  0  0  0
  195.5540  171.1190  145.1390 C   0  0  2  0  0  3  0  0  0  0  0  0
  196.3610  170.6500  146.3270 C   0  0  0  0  0  1  0  0  0  0  0  0
  194.9190  169.9940  142.9710 C   0  0  0  0  0  0  0  0  0  0  0  0
  192.9470  170.0660  141.9150 N   0  0  0  0  0  0  0  0  0  0  0  0
  193.6710  169.3830  140.8640 C   0  0  0  0  0  2  0  0  0  0  0  0
  195.8840  170.3210  143.9710 N   0  0  0  0  0  2  0  0  0  0  0  0
  195.3690  169.1130  141.4850 S   0  0  0  0  0  0  0  0  0  0  0  0
  193.7020  170.3980  143.0350 N   0  0  0  0  0  0  0  0  0  0  0  0
  191.5510  170.4540  141.7890 C   0  0  0  0  0  2  0  0  0  0  0  0
  190.8310  169.4970  140.8990 C   0  0  0  0  0  0  0  0  0  0  0  0
  190.4330  168.3930  141.3520 O   0  0  0  0  0  1  0  0  0  0  0  0
  190.6320  169.8120  139.5610 O   0  0  0  0  0  0  0  0  0  0  0  0
  195.2040  175.0140  145.1560 C   0  0  0  0  0  2  0  0  0  0  0  0
  195.2190  175.7900  143.5390 S   0  0  0  0  0  0  0  0  0  0  0  0
  193.8510  176.3320  143.2530 O   0  0  0  0  0  0  0  0  0  0  0  0
  196.2020  176.9220  143.5430 O   0  0  0  0  0  0  0  0  0  0  0  0
  197.0070  174.4150  141.9660 C   0  0  0  0  0  3  0  0  0  0  0  0
  195.6670  174.6900  142.2490 C   0  0  0  0  0  0  0  0  0  0  0  0
  194.9840  173.1380  140.5010 C   0  0  0  0  0  0  0  0  0  0  0  0
  196.3330  172.8950  140.1960 C   0  0  0  0  0  0  0  0  0  0  0  0
  196.7930  171.7750  138.9230 Cl  0  0  0  0  0  0  0  0  0  0  0  0
  197.3390  173.5250  140.9380 C   0  0  0  0  0  3  0  0  0  0  0  0
  194.6630  174.0380  141.5280 C   0  0  0  0  0  3  0  0  0  0  0  0
  193.9490  172.4580  139.7800 N   0  0  0  0  0  2  0  0  0  0  0  0
  193.4230  172.9540  138.5130 C   0  0  0  0  0  2  0  0  0  0  0  0
  191.4270  173.1470  137.0660 C   0  0  0  0  0  2  0  0  0  0  0  0
  191.2690  173.8250  139.4540 C   0  0  0  0  0  2  0  0  0  0  0  0
  189.9080  173.0190  136.9500 C   0  0  1  0  0  3  0  0  0  0  0  0
  189.5490  171.6850  136.9600 F   0  0  0  0  0  0  0  0  0  0  0  0
  191.9100  172.8340  138.4750 C   0  0  2  0  0  3  0  0  0  0  0  0
  189.8110  173.7420  139.3750 N   0  0  0  0  0  0  0  0  0  0  0  0
  189.2160  173.7360  138.0610 C   0  0  0  0  0  0  0  0  0  0  0  0
  188.0790  174.3750  137.8110 C   0  0  0  0  0  2  0  0  0  0  0  0
  188.3140  172.5180  140.8190 C   0  0  0  0  0  2  0  0  0  0  0  0
  189.0230  173.6170  140.5790 C   0  0  0  0  0  0  0  0  0  0  0  0
  188.8530  174.7360  141.4510 N   0  0  0  0  0  1  0  0  0  0  0  0
  1  3  1  0  0  0  0
  2 34  1  0  0  0  0
  2  1  1  0  0  0  0
  4  3  2  0  0  0  0
  6  4  1  6  0  0  0
  6  9  1  0  0  0  0
  7  8  1  0  0  0  0
  7  6  1  0  0  0  0
  8 10  1  1  0  0  0
  8  5  1  0  0  0  0
  9  5  1  0  0  0  0
 11 10  1  1  0  0  0
 11 12  1  0  0  0  0
 12 13  2  0  0  0  0
 12 14  1  0  0  0  0
 15 16  1  1  0  0  0
 15 11  1  0  0  0  0
 16 17  1  0  0  0  0
 18 15  1  0  0  0  0
 19 18  1  0  0  0  0
 20 19  1  0  0  0  0
 21  2  2  0  0  0  0
 21 22  1  0  0  0  0
 22 23  1  1  0  0  0
 24 29  2  0  0  0  0
 24 27  1  0  0  0  0
 25 29  1  0  0  0  0
 26 28  1  0  0  0  0
 26 25  1  0  0  0  0
 27 22  1  0  0  0  0
 28 24  1  0  0  0  0
 30 25  1  0  0  0  0
 31 32  1  0  0  0  0
 31 30  1  0  0  0  0
 33 31  2  0  0  0  0
 35 37  2  0  0  0  0
 35 34  1  0  0  0  0
 36 35  2  0  0  0  0
 38 39  1  0  0  0  0
 39 35  1  0  0  0  0
 40 44  1  0  0  0  0
 41 40  2  0  0  0  0
 41 43  1  0  0  0  0
 42 41  1  0  0  0  0
 43 38  2  0  0  0  0
 44 39  2  0  0  0  0
 45 40  1  0  0  0  0
 46 45  1  0  0  0  0
 47 51  1  0  0  0  0
 49 50  1  1  0  0  0
 49 47  1  0  0  0  0
 49 53  1  0  0  0  0
 51 46  1  6  0  0  0
 51 48  1  0  0  0  0
 52 48  1  0  0  0  0
 52 56  1  0  0  0  0
 53 52  1  0  0  0  0
 54 53  2  0  0  0  0
 56 55  2  0  0  0  0
 56 57  1  0  0  0  0
M  END
>  <MODEL>
6

>  <REMARK>
 VINA RESULT:      -5.4      3.299      9.056
  Name = 
  21 active torsions:
  status: ('A' for Active; 'I' for Inactive)
    1  A    between atoms: C_1  and  O_28
    2  A    between atoms: C_3  and  C_30
    3  A    between atoms: S_4  and  C_12
    4  A    between atoms: S_4  and  C_17
    5  A    between atoms: C_9  and  C_25
    6  A    between atoms: N_11  and  C_41
    7  A    between atoms: CA_13  and  C_16
    8  A    between atoms: CA_13  and  C_30
    9  A    between atoms: CA_13  and  N_53
   10  A    between atoms: C_14  and  C_22
   11  A    between atoms: C_17  and  C_48
   12  A    between atoms: C_18  and  N_35
   13  A    between atoms: C_21  and  C_34
   14  A    between atoms: C_21  and  N_47
   15  A    between atoms: C_23  and  C_41
   16  A    between atoms: C_27  and  N_47
   17  A    between atoms: O_28  and  C_30
   18  A    between atoms: N_31  and  C_44
   19  A    between atoms: C_44  and  N_57
   20  A    between atoms: C_48  and  N_57
   21  A    between atoms: C_49  and  N_53
                            x       y       z     vdW  Elec       q    Type
                         _______ _______ _______ _____ _____    ______ ____

>  <TORSDO>
F 21

$$$$
=
 OpenBabel11042417513D

 57 60  0  0  1  0  0  0  0  0999 V2000
  195.0850  171.0480  139.5690 C   0  0  0  0  0  3  0  0  0  0  0  0
  194.3990  171.2600  138.4460 C   0  0  0  0  0  0  0  0  0  0  0  0
  194.8580  171.8240  140.7890 C   0  0  0  0  0  3  0  0  0  0  0  0
  194.5670  171.2360  141.9340 C   0  0  0  0  0  3  0  0  0  0  0  0
  195.4900  173.3980  145.1020 S   0  0  0  0  0  0  0  0  0  0  0  0
  194.3730  172.0690  143.1530 C   0  0  2  0  0  3  0  0  0  0  0  0
  194.1460  173.5120  142.7960 C   0  0  0  0  0  2  0  0  0  0  0  0
  194.2350  174.2600  144.1000 C   0  0  1  0  0  3  0  0  0  0  0  0
  195.5320  171.9960  144.0210 N   0  0  0  0  0  2  0  0  0  0  0  0
  192.9580  174.1890  144.7860 N   0  0  0  0  0  2  0  0  0  0  0  0
  191.9670  174.8320  143.9400 C   0  0  2  0  0  3  0  0  0  0  0  0
  191.8880  176.2820  144.2990 C   0  0  0  0  0  0  0  0  0  0  0  0
  192.2360  176.7160  145.5780 O   0  0  0  0  0  1  0  0  0  0  0  0
  191.5820  177.1220  143.4160 O   0  0  0  0  0  0  0  0  0  0  0  0
  190.6100  174.1340  144.1060 C   0  0  1  0  0  3  0  0  0  0  0  0
  190.4760  172.9160  143.1890 C   0  0  0  0  0  2  0  0  0  0  0  0
  189.6150  171.9700  143.7510 O   0  0  0  0  0  1  0  0  0  0  0  0
  190.4260  173.7460  145.4400 O   0  0  0  0  0  0  0  0  0  0  0  0
  189.3360  174.4930  145.8860 C   0  0  0  0  0  2  0  0  0  0  0  0
  189.6470  175.0820  147.2490 C   0  0  0  0  0  1  0  0  0  0  0  0
  194.7840  170.5360  137.2690 N   0  0  0  0  0  2  0  0  0  0  0  0
  195.3190  171.1510  136.0560 C   0  0  2  0  0  3  0  0  0  0  0  0
  195.6820  170.0900  135.0450 C   0  0  0  0  0  1  0  0  0  0  0  0
  196.4830  173.3900  136.1330 C   0  0  0  0  0  0  0  0  0  0  0  0
  195.6240  175.4000  135.6520 N   0  0  0  0  0  0  0  0  0  0  0  0
  196.8880  175.8810  136.1690 C   0  0  0  0  0  2  0  0  0  0  0  0
  196.4790  171.9780  136.3440 N   0  0  0  0  0  2  0  0  0  0  0  0
  197.8750  174.4040  136.6020 S   0  0  0  0  0  0  0  0  0  0  0  0
  195.4560  174.0190  135.6880 N   0  0  0  0  0  0  0  0  0  0  0  0
  194.5660  176.2880  135.1990 C   0  0  0  0  0  2  0  0  0  0  0  0
  193.3710  176.1540  136.0810 C   0  0  0  0  0  0  0  0  0  0  0  0
  192.2220  176.3900  135.6250 O   0  0  0  0  0  0  0  0  0  0  0  0
  193.5300  175.8040  137.4150 O   0  0  0  0  0  1  0  0  0  0  0  0
  193.3070  172.2930  138.3850 C   0  0  0  0  0  2  0  0  0  0  0  0
  191.6950  171.5830  138.7220 S   0  0  0  0  0  0  0  0  0  0  0  0
  191.4660  170.4420  137.7780 O   0  0  0  0  0  0  0  0  0  0  0  0
  191.6660  171.0660  140.1290 O   0  0  0  0  0  0  0  0  0  0  0  0
  189.9210  173.1100  137.2790 C   0  0  0  0  0  3  0  0  0  0  0  0
  190.3820  172.7320  138.5410 C   0  0  0  0  0  0  0  0  0  0  0  0
  188.6890  174.1430  139.5770 C   0  0  0  0  0  0  0  0  0  0  0  0
  188.2560  174.5490  138.3040 C   0  0  0  0  0  0  0  0  0  0  0  0
  186.9250  175.6800  138.1110 Cl  0  0  0  0  0  0  0  0  0  0  0  0
  188.8660  174.0210  137.1600 C   0  0  0  0  0  3  0  0  0  0  0  0
  189.7540  173.2360  139.6840 C   0  0  0  0  0  3  0  0  0  0  0  0
  188.0360  174.6390  140.7530 N   0  0  0  0  0  2  0  0  0  0  0  0
  188.5150  175.8120  141.4770 C   0  0  0  0  0  2  0  0  0  0  0  0
  186.8560  177.6440  141.4080 C   0  0  0  0  0  2  0  0  0  0  0  0
  187.8710  177.0030  143.5860 C   0  0  0  0  0  2  0  0  0  0  0  0
  185.6880  178.3460  142.1010 C   0  0  1  0  0  3  0  0  0  0  0  0
  184.5550  177.5600  142.0200 F   0  0  0  0  0  0  0  0  0  0  0  0
  187.3790  176.4760  142.2330 C   0  0  2  0  0  3  0  0  0  0  0  0
  186.7860  177.6900  144.2870 N   0  0  0  0  0  0  0  0  0  0  0  0
  186.0010  178.6340  143.5330 C   0  0  0  0  0  0  0  0  0  0  0  0
  185.5690  179.7670  144.0730 C   0  0  0  0  0  2  0  0  0  0  0  0
  185.3410  176.8150  146.0120 C   0  0  0  0  0  2  0  0  0  0  0  0
  186.4980  177.3740  145.6670 C   0  0  0  0  0  0  0  0  0  0  0  0
  187.3740  177.8130  146.7070 N   0  0  0  0  0  1  0  0  0  0  0  0
  1  3  1  0  0  0  0
  2  1  2  0  0  0  0
  3  4  2  0  0  0  0
  6  4  1  6  0  0  0
  6  9  1  0  0  0  0
  7  6  1  0  0  0  0
  7  8  1  0  0  0  0
  8 10  1  1  0  0  0
  8  5  1  0  0  0  0
  9  5  1  0  0  0  0
 11 15  1  0  0  0  0
 11 12  1  1  0  0  0
 11 10  1  0  0  0  0
 12 13  1  0  0  0  0
 14 12  2  0  0  0  0
 15 16  1  6  0  0  0
 15 18  1  0  0  0  0
 16 17  1  0  0  0  0
 18 19  1  0  0  0  0
 19 20  1  0  0  0  0
 21  2  1  0  0  0  0
 22 23  1  6  0  0  0
 22 27  1  0  0  0  0
 22 21  1  0  0  0  0
 24 27  1  0  0  0  0
 24 28  1  0  0  0  0
 25 29  1  0  0  0  0
 25 26  1  0  0  0  0
 26 28  1  0  0  0  0
 29 24  2  0  0  0  0
 30 25  1  0  0  0  0
 30 31  1  0  0  0  0
 31 33  1  0  0  0  0
 32 31  2  0  0  0  0
 34  2  1  0  0  0  0
 34 35  1  0  0  0  0
 35 37  2  0  0  0  0
 36 35  2  0  0  0  0
 38 39  1  0  0  0  0
 39 35  1  0  0  0  0
 39 44  2  0  0  0  0
 40 44  1  0  0  0  0
 40 45  1  0  0  0  0
 41 40  2  0  0  0  0
 42 41  1  0  0  0  0
 43 38  2  0  0  0  0
 43 41  1  0  0  0  0
 45 46  1  0  0  0  0
 47 49  1  0  0  0  0
 47 51  1  0  0  0  0
 48 52  1  0  0  0  0
 49 50  1  1  0  0  0
 49 53  1  0  0  0  0
 51 46  1  6  0  0  0
 51 48  1  0  0  0  0
 52 56  1  0  0  0  0
 53 54  2  0  0  0  0
 53 52  1  0  0  0  0
 56 55  2  0  0  0  0
 56 57  1  0  0  0  0
M  END
>  <MODEL>
7

>  <REMARK>
 VINA RESULT:      -5.4      3.661      9.413
  Name = 
  21 active torsions:
  status: ('A' for Active; 'I' for Inactive)
    1  A    between atoms: C_1  and  O_28
    2  A    between atoms: C_3  and  C_30
    3  A    between atoms: S_4  and  C_12
    4  A    between atoms: S_4  and  C_17
    5  A    between atoms: C_9  and  C_25
    6  A    between atoms: N_11  and  C_41
    7  A    between atoms: CA_13  and  C_16
    8  A    between atoms: CA_13  and  C_30
    9  A    between atoms: CA_13  and  N_53
   10  A    between atoms: C_14  and  C_22
   11  A    between atoms: C_17  and  C_48
   12  A    between atoms: C_18  and  N_35
   13  A    between atoms: C_21  and  C_34
   14  A    between atoms: C_21  and  N_47
   15  A    between atoms: C_23  and  C_41
   16  A    between atoms: C_27  and  N_47
   17  A    between atoms: O_28  and  C_30
   18  A    between atoms: N_31  and  C_44
   19  A    between atoms: C_44  and  N_57
   20  A    between atoms: C_48  and  N_57
   21  A    between atoms: C_49  and  N_53
                            x       y       z     vdW  Elec       q    Type
                         _______ _______ _______ _____ _____    ______ ____

>  <TORSDO>
F 21

$$$$
=
 OpenBabel11042417513D

 57 60  0  0  1  0  0  0  0  0999 V2000
  192.1290  172.7430  143.8580 C   0  0  0  0  0  3  0  0  0  0  0  0
  191.8980  171.8380  142.9070 C   0  0  0  0  0  0  0  0  0  0  0  0
  191.1520  173.7700  144.2240 C   0  0  0  0  0  3  0  0  0  0  0  0
  190.4870  173.7120  145.3630 C   0  0  0  0  0  3  0  0  0  0  0  0
  189.1680  177.1810  146.6980 S   0  0  0  0  0  0  0  0  0  0  0  0
  189.5240  174.7950  145.7010 C   0  0  2  0  0  3  0  0  0  0  0  0
  189.2330  175.6590  144.5040 C   0  0  0  0  0  2  0  0  0  0  0  0
  188.4780  176.8440  145.0460 C   0  0  1  0  0  3  0  0  0  0  0  0
  190.0480  175.6450  146.7530 N   0  0  0  0  0  2  0  0  0  0  0  0
  187.0740  176.4980  145.1870 N   0  0  0  0  0  2  0  0  0  0  0  0
  186.2990  177.7060  144.9610 C   0  0  2  0  0  3  0  0  0  0  0  0
  185.5170  178.0200  146.1970 C   0  0  0  0  0  0  0  0  0  0  0  0
  184.5300  177.1460  146.6530 O   0  0  0  0  0  0  0  0  0  0  0  0
  185.8080  179.0410  146.8710 O   0  0  0  0  0  1  0  0  0  0  0  0
  185.3810  177.5160  143.7450 C   0  0  1  0  0  3  0  0  0  0  0  0
  184.9230  178.8530  143.1590 C   0  0  0  0  0  2  0  0  0  0  0  0
  185.7900  179.8800  143.5390 O   0  0  0  0  0  1  0  0  0  0  0  0
  186.0350  176.7650  142.7600 O   0  0  0  0  0  0  0  0  0  0  0  0
  185.8800  177.4990  141.5850 C   0  0  0  0  0  2  0  0  0  0  0  0
  187.0590  177.2450  140.6650 C   0  0  0  0  0  1  0  0  0  0  0  0
  192.9660  170.9580  142.5340 N   0  0  0  0  0  2  0  0  0  0  0  0
  192.7810  169.6340  141.9440 C   0  0  2  0  0  3  0  0  0  0  0  0
  192.6940  168.5840  143.0280 C   0  0  0  0  0  1  0  0  0  0  0  0
  193.6200  169.0370  139.6400 C   0  0  0  0  0  0  0  0  0  0  0  0
  192.4380  168.8970  137.7440 N   0  0  0  0  0  0  0  0  0  0  0  0
  193.7420  168.7420  137.1360 C   0  0  0  0  0  2  0  0  0  0  0  0
  193.8540  169.3050  141.0220 N   0  0  0  0  0  2  0  0  0  0  0  0
  194.9610  168.7510  138.4980 S   0  0  0  0  0  0  0  0  0  0  0  0
  192.4450  169.0830  139.1230 N   0  0  0  0  0  0  0  0  0  0  0  0
  191.2060  168.9360  136.9720 C   0  0  0  0  0  2  0  0  0  0  0  0
  191.2280  170.0910  136.0290 C   0  0  0  0  0  0  0  0  0  0  0  0
  191.2260  171.2680  136.4750 O   0  0  0  0  0  1  0  0  0  0  0  0
  191.2140  169.8680  134.6590 O   0  0  0  0  0  0  0  0  0  0  0  0
  190.5810  171.7950  142.1800 C   0  0  0  0  0  2  0  0  0  0  0  0
  190.5900  172.8370  140.7190 S   0  0  0  0  0  0  0  0  0  0  0  0
  189.9790  172.0750  139.5820 O   0  0  0  0  0  0  0  0  0  0  0  0
  189.7700  174.0630  140.9820 O   0  0  0  0  0  0  0  0  0  0  0  0
  192.9540  172.6170  139.3320 C   0  0  0  0  0  3  0  0  0  0  0  0
  192.1990  173.3520  140.2480 C   0  0  0  0  0  0  0  0  0  0  0  0
  193.9860  174.9990  140.3940 C   0  0  0  0  0  0  0  0  0  0  0  0
  194.7560  174.2360  139.5010 C   0  0  0  0  0  0  0  0  0  0  0  0
  196.3590  174.7560  139.0030 Cl  0  0  0  0  0  0  0  0  0  0  0  0
  194.2320  173.0540  138.9650 C   0  0  0  0  0  3  0  0  0  0  0  0
  192.7100  174.5470  140.7610 C   0  0  0  0  0  3  0  0  0  0  0  0
  194.4950  176.2370  140.9070 N   0  0  0  0  0  2  0  0  0  0  0  0
  195.6520  176.2990  141.7940 C   0  0  0  0  0  2  0  0  0  0  0  0
  195.6820  176.1440  144.2610 C   0  0  0  0  0  2  0  0  0  0  0  0
  196.5000  174.2220  142.9120 C   0  0  0  0  0  2  0  0  0  0  0  0
  195.4920  175.2620  145.4950 C   0  0  1  0  0  3  0  0  0  0  0  0
  194.1490  174.9920  145.6750 F   0  0  0  0  0  0  0  0  0  0  0  0
  195.4750  175.3600  142.9740 C   0  0  2  0  0  3  0  0  0  0  0  0
  196.3600  173.3510  144.0790 N   0  0  0  0  0  0  0  0  0  0  0  0
  196.2510  173.9820  145.3700 C   0  0  0  0  0  0  0  0  0  0  0  0
  196.8300  173.4660  146.4470 C   0  0  0  0  0  2  0  0  0  0  0  0
  196.8200  171.3250  142.8500 C   0  0  0  0  0  2  0  0  0  0  0  0
  196.2810  171.9180  143.9110 C   0  0  0  0  0  0  0  0  0  0  0  0
  195.4760  171.1310  144.7910 N   0  0  0  0  0  1  0  0  0  0  0  0
  1  3  1  0  0  0  0
  2  1  2  0  0  0  0
  3  4  2  0  0  0  0
  5  9  1  0  0  0  0
  6  4  1  6  0  0  0
  6  9  1  0  0  0  0
  7  8  1  0  0  0  0
  7  6  1  0  0  0  0
  8 10  1  1  0  0  0
  8  5  1  0  0  0  0
 11 10  1  1  0  0  0
 11 12  1  0  0  0  0
 12 13  2  0  0  0  0
 12 14  1  0  0  0  0
 15 16  1  6  0  0  0
 15 11  1  0  0  0  0
 16 17  1  0  0  0  0
 18 15  1  0  0  0  0
 19 18  1  0  0  0  0
 20 19  1  0  0  0  0
 21  2  1  0  0  0  0
 22 21  1  0  0  0  0
 22 23  1  1  0  0  0
 24 27  1  0  0  0  0
 25 29  1  0  0  0  0
 26 25  1  0  0  0  0
 26 28  1  0  0  0  0
 27 22  1  0  0  0  0
 28 24  1  0  0  0  0
 29 24  2  0  0  0  0
 30 25  1  0  0  0  0
 31 32  1  0  0  0  0
 31 30  1  0  0  0  0
 33 31  2  0  0  0  0
 34  2  1  0  0  0  0
 35 37  2  0  0  0  0
 35 34  1  0  0  0  0
 36 35  2  0  0  0  0
 38 39  1  0  0  0  0
 39 35  1  0  0  0  0
 39 44  2  0  0  0  0
 40 44  1  0  0  0  0
 40 45  1  0  0  0  0
 41 40  2  0  0  0  0
 42 41  1  0  0  0  0
 43 38  2  0  0  0  0
 43 41  1  0  0  0  0
 45 46  1  0  0  0  0
 47 49  1  0  0  0  0
 48 51  1  0  0  0  0
 48 52  1  0  0  0  0
 49 50  1  6  0  0  0
 51 46  1  6  0  0  0
 51 47  1  0  0  0  0
 52 53  1  0  0  0  0
 53 49  1  0  0  0  0
 53 54  2  0  0  0  0
 55 56  2  0  0  0  0
 56 52  1  0  0  0  0
 56 57  1  0  0  0  0
M  END
>  <MODEL>
8

>  <REMARK>
 VINA RESULT:      -5.3      3.022      8.568
  Name = 
  21 active torsions:
  status: ('A' for Active; 'I' for Inactive)
    1  A    between atoms: C_1  and  O_28
    2  A    between atoms: C_3  and  C_30
    3  A    between atoms: S_4  and  C_12
    4  A    between atoms: S_4  and  C_17
    5  A    between atoms: C_9  and  C_25
    6  A    between atoms: N_11  and  C_41
    7  A    between atoms: CA_13  and  C_16
    8  A    between atoms: CA_13  and  C_30
    9  A    between atoms: CA_13  and  N_53
   10  A    between atoms: C_14  and  C_22
   11  A    between atoms: C_17  and  C_48
   12  A    between atoms: C_18  and  N_35
   13  A    between atoms: C_21  and  C_34
   14  A    between atoms: C_21  and  N_47
   15  A    between atoms: C_23  and  C_41
   16  A    between atoms: C_27  and  N_47
   17  A    between atoms: O_28  and  C_30
   18  A    between atoms: N_31  and  C_44
   19  A    between atoms: C_44  and  N_57
   20  A    between atoms: C_48  and  N_57
   21  A    between atoms: C_49  and  N_53
                            x       y       z     vdW  Elec       q    Type
                         _______ _______ _______ _____ _____    ______ ____

>  <TORSDO>
F 21

$$$$
=
 OpenBabel11042417513D

 57 60  0  0  1  0  0  0  0  0999 V2000
  190.5070  173.4350  144.0140 C   0  0  0  0  0  3  0  0  0  0  0  0
  189.8940  174.5830  144.3040 C   0  0  0  0  0  0  0  0  0  0  0  0
  191.2380  173.2260  142.7630 C   0  0  0  0  0  3  0  0  0  0  0  0
  190.6380  172.7520  141.6870 C   0  0  0  0  0  3  0  0  0  0  0  0
  191.3920  172.5330  137.8210 S   0  0  0  0  0  0  0  0  0  0  0  0
  191.4190  172.5840  140.4310 C   0  0  2  0  0  3  0  0  0  0  0  0
  192.0860  173.8710  140.0270 C   0  0  0  0  0  2  0  0  0  0  0  0
  192.6020  173.6280  138.6330 C   0  0  1  0  0  3  0  0  0  0  0  0
  190.5630  172.1580  139.3400 N   0  0  0  0  0  2  0  0  0  0  0  0
  193.8800  172.9430  138.7040 N   0  0  0  0  0  2  0  0  0  0  0  0
  194.5190  173.0690  137.4060 C   0  0  2  0  0  3  0  0  0  0  0  0
  195.0460  171.7310  136.9910 C   0  0  0  0  0  0  0  0  0  0  0  0
  196.2940  171.6200  136.3780 O   0  0  0  0  0  0  0  0  0  0  0  0
  194.3920  170.6950  137.2710 O   0  0  0  0  0  1  0  0  0  0  0  0
  195.6370  174.1190  137.4760 C   0  0  1  0  0  3  0  0  0  0  0  0
  195.3820  175.2910  136.5250 C   0  0  0  0  0  2  0  0  0  0  0  0
  196.5470  176.0400  136.3440 O   0  0  0  0  0  1  0  0  0  0  0  0
  195.7720  174.5940  138.7870 O   0  0  0  0  0  0  0  0  0  0  0  0
  197.0880  174.3020  139.1420 C   0  0  0  0  0  2  0  0  0  0  0  0
  197.5760  175.3130  140.1630 C   0  0  0  0  0  1  0  0  0  0  0  0
  189.0960  174.6450  145.4940 N   0  0  0  0  0  2  0  0  0  0  0  0
  189.1280  175.7430  146.4570 C   0  0  2  0  0  3  0  0  0  0  0  0
  190.0000  175.3820  147.6360 C   0  0  0  0  0  1  0  0  0  0  0  0
  186.9120  176.9110  146.1510 C   0  0  0  0  0  0  0  0  0  0  0  0
  186.2070  178.0720  144.3710 N   0  0  0  0  0  0  0  0  0  0  0  0
  184.9470  178.0830  145.0840 C   0  0  0  0  0  2  0  0  0  0  0  0
  187.7940  176.0890  146.9150 N   0  0  0  0  0  2  0  0  0  0  0  0
  185.2360  177.2300  146.6750 S   0  0  0  0  0  0  0  0  0  0  0  0
  187.2400  177.3850  145.0030 N   0  0  0  0  0  0  0  0  0  0  0  0
  186.3750  178.6640  143.0540 C   0  0  0  0  0  2  0  0  0  0  0  0
  186.5700  177.5940  142.0330 C   0  0  0  0  0  0  0  0  0  0  0  0
  186.9440  177.8950  140.8690 O   0  0  0  0  0  0  0  0  0  0  0  0
  186.3050  176.2700  142.3560 O   0  0  0  0  0  1  0  0  0  0  0  0
  189.9610  175.7580  143.3660 C   0  0  0  0  0  2  0  0  0  0  0  0
  191.1520  176.9830  143.9140 S   0  0  0  0  0  0  0  0  0  0  0  0
  191.5100  177.8590  142.7510 O   0  0  0  0  0  0  0  0  0  0  0  0
  190.5360  177.8260  144.9890 O   0  0  0  0  0  0  0  0  0  0  0  0
  192.9020  176.3090  145.9250 C   0  0  0  0  0  3  0  0  0  0  0  0
  192.6230  176.2760  144.5570 C   0  0  0  0  0  0  0  0  0  0  0  0
  194.6800  175.0320  144.1710 C   0  0  0  0  0  0  0  0  0  0  0  0
  194.9740  175.1010  145.5430 C   0  0  0  0  0  0  0  0  0  0  0  0
  196.4320  174.3750  146.2010 Cl  0  0  0  0  0  0  0  0  0  0  0  0
  194.0780  175.7290  146.4160 C   0  0  0  0  0  3  0  0  0  0  0  0
  193.5030  175.6240  143.6890 C   0  0  0  0  0  3  0  0  0  0  0  0
  195.5670  174.3460  143.2780 N   0  0  0  0  0  2  0  0  0  0  0  0
  195.0850  173.4400  142.2410 C   0  0  0  0  0  2  0  0  0  0  0  0
  194.3820  171.0900  141.9310 C   0  0  0  0  0  2  0  0  0  0  0  0
  195.3440  171.7950  144.1140 C   0  0  0  0  0  2  0  0  0  0  0  0
  194.6610  169.6160  142.2260 C   0  0  1  0  0  3  0  0  0  0  0  0
  195.7590  169.1940  141.5010 F   0  0  0  0  0  0  0  0  0  0  0  0
  195.4060  171.9990  142.5960 C   0  0  2  0  0  3  0  0  0  0  0  0
  195.6000  170.3930  144.4460 N   0  0  0  0  0  0  0  0  0  0  0  0
  194.9010  169.3900  143.6820 C   0  0  0  0  0  0  0  0  0  0  0  0
  194.4420  168.2800  144.2490 C   0  0  0  0  0  2  0  0  0  0  0  0
  197.8300  169.7920  145.1500 C   0  0  0  0  0  2  0  0  0  0  0  0
  196.5640  170.0530  145.4670 C   0  0  0  0  0  0  0  0  0  0  0  0
  196.1410  169.8200  146.8120 N   0  0  0  0  0  1  0  0  0  0  0  0
  1  2  2  0  0  0  0
  2 21  1  0  0  0  0
  3  1  1  0  0  0  0
  4  3  2  0  0  0  0
  5  8  1  0  0  0  0
  5  9  1  0  0  0  0
  6  4  1  1  0  0  0
  7  6  1  0  0  0  0
  8 10  1  1  0  0  0
  8  7  1  0  0  0  0
  9  6  1  0  0  0  0
 11 12  1  1  0  0  0
 11 15  1  0  0  0  0
 11 10  1  0  0  0  0
 12 14  1  0  0  0  0
 13 12  2  0  0  0  0
 15 16  1  6  0  0  0
 15 18  1  0  0  0  0
 17 16  1  0  0  0  0
 18 19  1  0  0  0  0
 19 20  1  0  0  0  0
 21 22  1  0  0  0  0
 22 27  1  0  0  0  0
 22 23  1  1  0  0  0
 24 28  1  0  0  0  0
 24 27  1  0  0  0  0
 25 29  1  0  0  0  0
 25 26  1  0  0  0  0
 26 28  1  0  0  0  0
 29 24  2  0  0  0  0
 30 25  1  0  0  0  0
 31 33  1  0  0  0  0
 31 30  1  0  0  0  0
 32 31  2  0  0  0  0
 34 35  1  0  0  0  0
 34  2  1  0  0  0  0
 35 39  1  0  0  0  0
 35 37  2  0  0  0  0
 36 35  2  0  0  0  0
 38 43  1  0  0  0  0
 39 38  2  0  0  0  0
 40 41  1  0  0  0  0
 41 42  1  0  0  0  0
 41 43  2  0  0  0  0
 44 40  2  0  0  0  0
 44 39  1  0  0  0  0
 45 40  1  0  0  0  0
 46 45  1  0  0  0  0
 47 49  1  0  0  0  0
 47 51  1  0  0  0  0
 48 52  1  0  0  0  0
 49 50  1  6  0  0  0
 49 53  1  0  0  0  0
 51 46  1  1  0  0  0
 51 48  1  0  0  0  0
 52 56  1  0  0  0  0
 53 54  2  0  0  0  0
 53 52  1  0  0  0  0
 55 56  2  0  0  0  0
 56 57  1  0  0  0  0
M  END
>  <MODEL>
9

>  <REMARK>
 VINA RESULT:      -5.2      2.445      4.108
  Name = 
  21 active torsions:
  status: ('A' for Active; 'I' for Inactive)
    1  A    between atoms: C_1  and  O_28
    2  A    between atoms: C_3  and  C_30
    3  A    between atoms: S_4  and  C_12
    4  A    between atoms: S_4  and  C_17
    5  A    between atoms: C_9  and  C_25
    6  A    between atoms: N_11  and  C_41
    7  A    between atoms: CA_13  and  C_16
    8  A    between atoms: CA_13  and  C_30
    9  A    between atoms: CA_13  and  N_53
   10  A    between atoms: C_14  and  C_22
   11  A    between atoms: C_17  and  C_48
   12  A    between atoms: C_18  and  N_35
   13  A    between atoms: C_21  and  C_34
   14  A    between atoms: C_21  and  N_47
   15  A    between atoms: C_23  and  C_41
   16  A    between atoms: C_27  and  N_47
   17  A    between atoms: O_28  and  C_30
   18  A    between atoms: N_31  and  C_44
   19  A    between atoms: C_44  and  N_57
   20  A    between atoms: C_48  and  N_57
   21  A    between atoms: C_49  and  N_53
                            x       y       z     vdW  Elec       q    Type
                         _______ _______ _______ _____ _____    ______ ____

>  <TORSDO>
F 21

$$$$
