=
 OpenBabel11042414363D

 46 50  0  0  1  0  0  0  0  0999 V2000
  188.1110  172.6840  139.2120 C   0  0  0  0  0  1  0  0  0  0  0  0
  189.5930  173.0080  139.2480 C   0  0  1  0  0  3  0  0  0  0  0  0
  189.8940  173.7360  140.4680 N   0  0  0  0  0  2  0  0  0  0  0  0
  188.6300  174.1570  141.0550 C   0  0  0  0  0  2  0  0  0  0  0  0
  189.5690  173.3380  143.2880 C   0  0  0  0  0  2  0  0  0  0  0  0
  186.2620  177.8930  141.5510 C   0  0  2  0  0  3  0  0  0  0  0  0
  187.5840  176.4650  142.9220 N   0  0  0  0  0  0  0  0  0  0  0  0
  188.8960  175.2880  144.5360 N   0  0  0  0  0  0  0  0  0  0  0  0
  186.8740  176.5060  141.6590 C   0  0  0  0  0  2  0  0  0  0  0  0
  190.2310  173.6650  145.6040 O   0  0  0  0  0  0  0  0  0  0  0  0
  187.4600  177.6990  143.6800 C   0  0  1  0  0  3  0  0  0  0  0  0
  186.6970  178.6690  142.7850 C   0  0  0  0  0  2  0  0  0  0  0  0
  188.7560  174.2500  142.5040 N   0  0  0  0  0  0  0  0  0  0  0  0
  189.6220  174.0680  144.5800 C   0  0  0  0  0  0  0  0  0  0  0  0
  188.4110  175.3640  143.3390 C   0  0  0  0  0  0  0  0  0  0  0  0
  187.3290  178.8790  148.5410 C   0  0  0  0  0  1  0  0  0  0  0  0
  186.7130  178.0100  147.4660 C   0  0  1  0  0  3  0  0  0  0  0  0
  185.2160  178.2900  147.3780 C   0  0  0  0  0  2  0  0  0  0  0  0
  186.7490  177.4610  145.0200 C   0  0  1  0  0  3  0  0  0  0  0  0
  187.3840  178.3010  146.1280 C   0  0  0  0  0  2  0  0  0  0  0  0
  185.2380  177.7140  144.9440 C   0  0  0  0  0  2  0  0  0  0  0  0
  184.5830  177.4260  146.2910 C   0  0  0  0  0  2  0  0  0  0  0  0
  184.1950  178.4820  140.2820 C   0  0  0  0  0  1  0  0  0  0  0  0
  184.7460  177.7980  141.5200 C   0  0  0  0  0  2  0  0  0  0  0  0
  190.4110  171.7260  139.2080 C   0  0  0  0  0  2  0  0  0  0  0  0
  190.5300  171.1070  140.5930 C   0  0  0  0  0  2  0  0  0  0  0  0
  191.8450  170.5060  140.7680 N   0  0  0  0  0  0  0  0  0  0  0  0
  193.6730  170.7940  139.2530 N   0  0  0  0  0  1  0  0  0  0  0  0
  193.1930  171.3390  142.4150 C   0  0  0  0  0  0  0  0  0  0  0  0
  193.6630  171.8960  141.3620 N   0  0  0  0  0  0  0  0  0  0  0  0
  192.1070  170.4890  142.1450 N   0  0  0  0  0  2  0  0  0  0  0  0
  192.8380  171.4590  140.2390 C   0  0  2  0  0  3  0  0  0  0  0  0
  193.8030  171.4960  143.7620 C   0  0  0  0  0  2  0  0  0  0  0  0
  193.1270  172.4940  144.4670 O   0  0  0  0  0  0  0  0  0  0  0  0
  195.3600  172.8060  144.7770 O   0  0  0  0  0  1  0  0  0  0  0  0
  194.0910  173.0550  145.3060 C   0  0  1  0  0  3  0  0  0  0  0  0
  192.1760  176.7920  145.3960 O   0  0  0  0  0  0  0  0  0  0  0  0
  191.1050  177.7840  142.9030 C   0  0  0  0  0  1  0  0  0  0  0  0
  192.7420  176.3880  146.6440 C   0  0  2  0  0  3  0  0  0  0  0  0
  193.0110  174.8860  146.6500 C   0  0  0  0  0  2  0  0  0  0  0  0
  193.8640  174.5590  145.4250 C   0  0  2  0  0  3  0  0  0  0  0  0
  191.9520  176.6060  142.9620 N   0  0  0  0  0  2  0  0  0  0  0  0
  192.4910  176.1380  144.1960 C   0  0  0  0  0  0  0  0  0  0  0  0
  193.2400  175.0770  144.2030 N   0  0  0  0  0  0  0  0  0  0  0  0
  191.8500  176.8070  147.8070 C   0  0  0  0  0  2  0  0  0  0  0  0
  190.3850  176.4940  147.5400 C   0  0  0  0  0  1  0  0  0  0  0  0
  2  1  1  1  0  0  0
  2  3  1  0  0  0  0
  3  4  1  0  0  0  0
  4 13  1  0  0  0  0
  5 14  1  0  0  0  0
  6 24  1  1  0  0  0
  6  9  1  0  0  0  0
  6 12  1  0  0  0  0
  7 15  1  0  0  0  0
  7 11  1  0  0  0  0
  8 14  1  0  0  0  0
  9  7  1  0  0  0  0
 11 12  1  6  0  0  0
 11 19  1  0  0  0  0
 13  5  1  0  0  0  0
 13 15  1  0  0  0  0
 14 10  2  0  0  0  0
 15  8  2  0  0  0  0
 17 16  1  1  0  0  0
 18 17  1  0  0  0  0
 19 21  1  6  0  0  0
 19 20  1  0  0  0  0
 20 17  1  0  0  0  0
 21 22  1  0  0  0  0
 22 18  1  0  0  0  0
 23 24  1  0  0  0  0
 25  2  1  0  0  0  0
 25 26  1  0  0  0  0
 26 27  1  0  0  0  0
 27 31  1  0  0  0  0
 29 33  1  0  0  0  0
 30 29  2  0  0  0  0
 31 29  1  0  0  0  0
 32 28  1  6  0  0  0
 32 27  1  0  0  0  0
 32 30  1  0  0  0  0
 33 34  1  0  0  0  0
 34 36  1  0  0  0  0
 36 35  1  6  0  0  0
 37 39  1  0  0  0  0
 38 42  1  0  0  0  0
 39 40  1  0  0  0  0
 39 45  1  1  0  0  0
 41 36  1  6  0  0  0
 41 40  1  0  0  0  0
 42 43  1  0  0  0  0
 43 44  2  0  0  0  0
 43 37  1  0  0  0  0
 44 41  1  0  0  0  0
 46 45  1  0  0  0  0
M  END
>  <MODEL>
1

>  <REMARK>
 VINA RESULT:      -6.9      0.000      0.000
  Name = 
  13 active torsions:
  status: ('A' for Active; 'I' for Inactive)
    1  A    between atoms: N_4  and  C_6
    2  A    between atoms: C_6  and  C_34
    3  A    between atoms: C_7  and  O_28
    4  A    between atoms: C_7  and  C_36
    5  A    between atoms: C_11  and  C_16
    6  A    between atoms: C_13  and  C_18
    7  A    between atoms: C_14  and  C_32
    8  A    between atoms: C_26  and  C_27
    9  A    between atoms: C_26  and  O_28
   10  A    between atoms: N_29  and  C_35
   11  A    between atoms: N_29  and  C_39
   12  A    between atoms: C_34  and  C_35
   13  A    between atoms: N_37  and  C_39
                            x       y       z     vdW  Elec       q    Type
                         _______ _______ _______ _____ _____    ______ ____

>  <TORSDO>
F 13

$$$$
=
 OpenBabel11042414363D

 46 50  0  0  1  0  0  0  0  0999 V2000
  187.7600  174.8830  142.7200 C   0  0  0  0  0  1  0  0  0  0  0  0
  188.3180  175.5150  141.4590 C   0  0  1  0  0  3  0  0  0  0  0  0
  188.5570  174.4790  140.4700 N   0  0  0  0  0  2  0  0  0  0  0  0
  189.5440  173.5610  141.0220 C   0  0  0  0  0  2  0  0  0  0  0  0
  190.6640  173.3500  138.7320 C   0  0  0  0  0  2  0  0  0  0  0  0
  192.5080  174.4800  144.2120 C   0  0  2  0  0  3  0  0  0  0  0  0
  192.5100  174.2180  141.8460 N   0  0  0  0  0  0  0  0  0  0  0  0
  192.8310  174.0950  139.4810 N   0  0  0  0  0  0  0  0  0  0  0  0
  191.7340  173.9150  143.0320 C   0  0  0  0  0  2  0  0  0  0  0  0
  192.4890  173.7430  137.1760 O   0  0  0  0  0  0  0  0  0  0  0  0
  193.7550  174.9040  142.1450 C   0  0  1  0  0  3  0  0  0  0  0  0
  193.7400  175.1720  143.6460 C   0  0  0  0  0  2  0  0  0  0  0  0
  190.7270  173.5280  140.1720 N   0  0  0  0  0  0  0  0  0  0  0  0
  192.0460  173.7340  138.3530 C   0  0  0  0  0  0  0  0  0  0  0  0
  192.0530  173.9650  140.5050 C   0  0  0  0  0  0  0  0  0  0  0  0
  197.9410  174.8220  139.4040 C   0  0  0  0  0  1  0  0  0  0  0  0
  197.0400  174.0040  140.3030 C   0  0  1  0  0  3  0  0  0  0  0  0
  197.8370  173.4940  141.4990 C   0  0  0  0  0  2  0  0  0  0  0  0
  194.9690  174.0670  141.7150 C   0  0  1  0  0  3  0  0  0  0  0  0
  195.8720  174.8640  140.7740 C   0  0  0  0  0  2  0  0  0  0  0  0
  195.7690  173.5260  142.9080 C   0  0  0  0  0  2  0  0  0  0  0  0
  196.9370  172.6740  142.4200 C   0  0  0  0  0  2  0  0  0  0  0  0
  192.8410  172.0180  144.4430 C   0  0  0  0  0  1  0  0  0  0  0  0
  192.9390  173.3600  145.1440 C   0  0  0  0  0  2  0  0  0  0  0  0
  187.3310  176.5300  140.9000 C   0  0  0  0  0  2  0  0  0  0  0  0
  187.6240  177.9270  141.4290 C   0  0  0  0  0  2  0  0  0  0  0  0
  186.3850  178.6750  141.5970 N   0  0  0  0  0  0  0  0  0  0  0  0
  184.3900  178.2790  140.3400 N   0  0  0  0  0  1  0  0  0  0  0  0
  185.1610  178.3060  143.4910 C   0  0  0  0  0  0  0  0  0  0  0  0
  184.5400  177.6060  142.6170 N   0  0  0  0  0  0  0  0  0  0  0  0
  186.2740  178.9800  142.9600 N   0  0  0  0  0  2  0  0  0  0  0  0
  185.2710  177.7380  141.3600 C   0  0  2  0  0  3  0  0  0  0  0  0
  184.6870  178.4690  144.8910 C   0  0  0  0  0  2  0  0  0  0  0  0
  185.7760  178.7430  145.7220 O   0  0  0  0  0  0  0  0  0  0  0  0
  184.7670  176.8290  146.4300 O   0  0  0  0  0  1  0  0  0  0  0  0
  185.9380  177.5880  146.4910 C   0  0  1  0  0  3  0  0  0  0  0  0
  189.8650  176.3410  145.6770 O   0  0  0  0  0  0  0  0  0  0  0  0
  191.4270  177.9900  143.8900 C   0  0  0  0  0  1  0  0  0  0  0  0
  189.1230  175.4510  146.5120 C   0  0  2  0  0  3  0  0  0  0  0  0
  187.9120  176.1600  147.1110 C   0  0  0  0  0  2  0  0  0  0  0  0
  187.1140  176.7720  145.9620 C   0  0  2  0  0  3  0  0  0  0  0  0
  190.0060  178.2080  144.0930 N   0  0  0  0  0  2  0  0  0  0  0  0
  189.2410  177.3740  144.9620 C   0  0  0  0  0  0  0  0  0  0  0  0
  187.9740  177.6100  145.1190 N   0  0  0  0  0  0  0  0  0  0  0  0
  190.0160  174.8470  147.5910 C   0  0  0  0  0  2  0  0  0  0  0  0
  191.3900  175.5000  147.6210 C   0  0  0  0  0  1  0  0  0  0  0  0
  2  1  1  1  0  0  0
  3  4  1  0  0  0  0
  3  2  1  0  0  0  0
  5 13  1  0  0  0  0
  6 24  1  1  0  0  0
  7 11  1  0  0  0  0
  7  9  1  0  0  0  0
  8 15  2  0  0  0  0
  9  6  1  0  0  0  0
 10 14  2  0  0  0  0
 11 12  1  1  0  0  0
 12  6  1  0  0  0  0
 13 15  1  0  0  0  0
 13  4  1  0  0  0  0
 14  5  1  0  0  0  0
 14  8  1  0  0  0  0
 15  7  1  0  0  0  0
 17 16  1  6  0  0  0
 17 20  1  0  0  0  0
 17 18  1  0  0  0  0
 18 22  1  0  0  0  0
 19 20  1  6  0  0  0
 19 11  1  0  0  0  0
 19 21  1  0  0  0  0
 22 21  1  0  0  0  0
 23 24  1  0  0  0  0
 25 26  1  0  0  0  0
 25  2  1  0  0  0  0
 26 27  1  0  0  0  0
 27 31  1  0  0  0  0
 29 33  1  0  0  0  0
 30 29  2  0  0  0  0
 31 29  1  0  0  0  0
 32 28  1  6  0  0  0
 32 27  1  0  0  0  0
 32 30  1  0  0  0  0
 33 34  1  0  0  0  0
 34 36  1  0  0  0  0
 36 35  1  6  0  0  0
 37 39  1  0  0  0  0
 38 42  1  0  0  0  0
 39 40  1  0  0  0  0
 39 45  1  1  0  0  0
 41 36  1  1  0  0  0
 41 40  1  0  0  0  0
 42 43  1  0  0  0  0
 43 44  2  0  0  0  0
 43 37  1  0  0  0  0
 44 41  1  0  0  0  0
 45 46  1  0  0  0  0
M  END
>  <MODEL>
2

>  <REMARK>
 VINA RESULT:      -6.8      3.085      8.375
  Name = 
  13 active torsions:
  status: ('A' for Active; 'I' for Inactive)
    1  A    between atoms: N_4  and  C_6
    2  A    between atoms: C_6  and  C_34
    3  A    between atoms: C_7  and  O_28
    4  A    between atoms: C_7  and  C_36
    5  A    between atoms: C_11  and  C_16
    6  A    between atoms: C_13  and  C_18
    7  A    between atoms: C_14  and  C_32
    8  A    between atoms: C_26  and  C_27
    9  A    between atoms: C_26  and  O_28
   10  A    between atoms: N_29  and  C_35
   11  A    between atoms: N_29  and  C_39
   12  A    between atoms: C_34  and  C_35
   13  A    between atoms: N_37  and  C_39
                            x       y       z     vdW  Elec       q    Type
                         _______ _______ _______ _____ _____    ______ ____

>  <TORSDO>
F 13

$$$$
=
 OpenBabel11042414363D

 46 50  0  0  1  0  0  0  0  0999 V2000
  194.1000  171.5320  144.6790 C   0  0  0  0  0  1  0  0  0  0  0  0
  194.1280  173.0470  144.6250 C   0  0  1  0  0  3  0  0  0  0  0  0
  193.3450  173.5800  145.7260 N   0  0  0  0  0  2  0  0  0  0  0  0
  192.0580  174.0000  145.1900 C   0  0  0  0  0  2  0  0  0  0  0  0
  191.9880  175.3540  147.3580 C   0  0  0  0  0  2  0  0  0  0  0  0
  189.0320  175.4450  142.2640 C   0  0  2  0  0  3  0  0  0  0  0  0
  189.8170  176.0730  144.4210 N   0  0  0  0  0  0  0  0  0  0  0  0
  190.4300  177.0000  146.5370 N   0  0  0  0  0  0  0  0  0  0  0  0
  189.7890  174.9620  143.4910 C   0  0  0  0  0  2  0  0  0  0  0  0
  191.4080  177.3250  148.6570 O   0  0  0  0  0  0  0  0  0  0  0  0
  189.1060  177.2410  143.9300 C   0  0  1  0  0  3  0  0  0  0  0  0
  188.6710  176.9030  142.5080 C   0  0  0  0  0  2  0  0  0  0  0  0
  191.4700  175.0260  146.0420 N   0  0  0  0  0  0  0  0  0  0  0  0
  191.2810  176.6340  147.6130 C   0  0  0  0  0  0  0  0  0  0  0  0
  190.5570  176.0620  145.6560 C   0  0  0  0  0  0  0  0  0  0  0  0
  184.7910  179.7500  144.2750 C   0  0  0  0  0  1  0  0  0  0  0  0
  185.7790  178.8880  145.0300 C   0  0  1  0  0  3  0  0  0  0  0  0
  185.0740  177.6420  145.5560 C   0  0  0  0  0  2  0  0  0  0  0  0
  187.9160  177.5900  144.8360 C   0  0  1  0  0  3  0  0  0  0  0  0
  186.9250  178.4950  144.1030 C   0  0  0  0  0  2  0  0  0  0  0  0
  187.2090  176.3480  145.3930 C   0  0  0  0  0  2  0  0  0  0  0  0
  186.0620  176.7580  146.3110 C   0  0  0  0  0  2  0  0  0  0  0  0
  188.0840  173.1550  141.9740 C   0  0  0  0  0  1  0  0  0  0  0  0
  187.7600  174.6340  142.0770 C   0  0  0  0  0  2  0  0  0  0  0  0
  195.5600  173.5500  144.7320 C   0  0  0  0  0  2  0  0  0  0  0  0
  195.8720  174.5570  143.6350 C   0  0  0  0  0  2  0  0  0  0  0  0
  194.7610  174.6440  142.6970 N   0  0  0  0  0  0  0  0  0  0  0  0
  193.0980  176.3620  142.7300 N   0  0  0  0  0  1  0  0  0  0  0  0
  195.2220  175.2550  140.5440 C   0  0  0  0  0  0  0  0  0  0  0  0
  194.7870  176.3450  141.0550 N   0  0  0  0  0  0  0  0  0  0  0  0
  195.2340  174.1880  141.4590 N   0  0  0  0  0  2  0  0  0  0  0  0
  194.4960  176.0750  142.4600 C   0  0  2  0  0  3  0  0  0  0  0  0
  195.5750  175.1130  139.1060 C   0  0  0  0  0  2  0  0  0  0  0  0
  194.8610  174.0470  138.5540 O   0  0  0  0  0  0  0  0  0  0  0  0
  193.3390  175.2900  137.4050 O   0  0  0  0  0  1  0  0  0  0  0  0
  193.5340  174.4820  138.5270 C   0  0  1  0  0  3  0  0  0  0  0  0
  190.3990  171.8410  139.4450 O   0  0  0  0  0  0  0  0  0  0  0  0
  190.5920  170.3800  141.9300 C   0  0  0  0  0  1  0  0  0  0  0  0
  190.2790  172.4830  138.1740 C   0  0  2  0  0  3  0  0  0  0  0  0
  191.1760  173.7150  138.1070 C   0  0  0  0  0  2  0  0  0  0  0  0
  192.5950  173.2810  138.4720 C   0  0  2  0  0  3  0  0  0  0  0  0
  191.6970  171.1690  141.4130 N   0  0  0  0  0  2  0  0  0  0  0  0
  191.5960  171.8700  140.1750 C   0  0  0  0  0  0  0  0  0  0  0  0
  192.6070  172.5680  139.7540 N   0  0  0  0  0  0  0  0  0  0  0  0
  188.8240  172.8260  137.8730 C   0  0  0  0  0  2  0  0  0  0  0  0
  188.4240  174.1690  138.4660 C   0  0  0  0  0  1  0  0  0  0  0  0
  2  1  1  1  0  0  0
  2 25  1  0  0  0  0
  2  3  1  0  0  0  0
  4  3  1  0  0  0  0
  4 13  1  0  0  0  0
  5 14  1  0  0  0  0
  6 24  1  1  0  0  0
  6 12  1  0  0  0  0
  6  9  1  0  0  0  0
  7 15  1  0  0  0  0
  8 14  1  0  0  0  0
  9  7  1  0  0  0  0
 11 12  1  6  0  0  0
 11  7  1  0  0  0  0
 11 19  1  0  0  0  0
 13  5  1  0  0  0  0
 14 10  2  0  0  0  0
 15 13  1  0  0  0  0
 15  8  2  0  0  0  0
 17 16  1  6  0  0  0
 17 18  1  0  0  0  0
 18 22  1  0  0  0  0
 19 20  1  6  0  0  0
 19 21  1  0  0  0  0
 20 17  1  0  0  0  0
 21 22  1  0  0  0  0
 23 24  1  0  0  0  0
 26 25  1  0  0  0  0
 27 26  1  0  0  0  0
 29 30  2  0  0  0  0
 29 31  1  0  0  0  0
 30 32  1  0  0  0  0
 31 27  1  0  0  0  0
 32 27  1  0  0  0  0
 32 28  1  6  0  0  0
 33 29  1  0  0  0  0
 34 33  1  0  0  0  0
 36 35  1  6  0  0  0
 36 34  1  0  0  0  0
 37 43  1  0  0  0  0
 39 45  1  1  0  0  0
 39 37  1  0  0  0  0
 40 39  1  0  0  0  0
 40 41  1  0  0  0  0
 41 36  1  1  0  0  0
 41 44  1  0  0  0  0
 42 38  1  0  0  0  0
 43 42  1  0  0  0  0
 44 43  2  0  0  0  0
 45 46  1  0  0  0  0
M  END
>  <MODEL>
3

>  <REMARK>
 VINA RESULT:      -6.7      2.667      5.858
  Name = 
  13 active torsions:
  status: ('A' for Active; 'I' for Inactive)
    1  A    between atoms: N_4  and  C_6
    2  A    between atoms: C_6  and  C_34
    3  A    between atoms: C_7  and  O_28
    4  A    between atoms: C_7  and  C_36
    5  A    between atoms: C_11  and  C_16
    6  A    between atoms: C_13  and  C_18
    7  A    between atoms: C_14  and  C_32
    8  A    between atoms: C_26  and  C_27
    9  A    between atoms: C_26  and  O_28
   10  A    between atoms: N_29  and  C_35
   11  A    between atoms: N_29  and  C_39
   12  A    between atoms: C_34  and  C_35
   13  A    between atoms: N_37  and  C_39
                            x       y       z     vdW  Elec       q    Type
                         _______ _______ _______ _____ _____    ______ ____

>  <TORSDO>
F 13

$$$$
=
 OpenBabel11042414363D

 46 50  0  0  1  0  0  0  0  0999 V2000
  186.6810  176.2710  136.3110 C   0  0  0  0  0  1  0  0  0  0  0  0
  187.2140  176.0650  137.7160 C   0  0  1  0  0  3  0  0  0  0  0  0
  186.2060  176.4810  138.6760 N   0  0  0  0  0  2  0  0  0  0  0  0
  186.7860  177.5360  139.4950 C   0  0  0  0  0  2  0  0  0  0  0  0
  184.5530  178.2740  140.5010 C   0  0  0  0  0  2  0  0  0  0  0  0
  189.6270  176.1820  142.6420 C   0  0  2  0  0  3  0  0  0  0  0  0
  187.3650  176.9150  142.5260 N   0  0  0  0  0  0  0  0  0  0  0  0
  185.0660  177.5320  142.7370 N   0  0  0  0  0  0  0  0  0  0  0  0
  188.6120  176.9240  141.7870 C   0  0  0  0  0  2  0  0  0  0  0  0
  182.8930  178.3200  142.2750 O   0  0  0  0  0  0  0  0  0  0  0  0
  187.4790  176.2630  143.8200 C   0  0  1  0  0  3  0  0  0  0  0  0
  188.8930  175.6980  143.8850 C   0  0  0  0  0  2  0  0  0  0  0  0
  185.9240  177.8150  140.6370 N   0  0  0  0  0  0  0  0  0  0  0  0
  184.0600  178.0630  141.8850 C   0  0  0  0  0  0  0  0  0  0  0  0
  186.1190  177.4040  141.9970 C   0  0  0  0  0  0  0  0  0  0  0  0
  183.9400  178.2730  146.7310 C   0  0  0  0  0  1  0  0  0  0  0  0
  185.4140  178.2920  146.3910 C   0  0  1  0  0  3  0  0  0  0  0  0
  186.2310  177.9720  147.6390 C   0  0  0  0  0  2  0  0  0  0  0  0
  187.1910  177.2450  144.9650 C   0  0  1  0  0  3  0  0  0  0  0  0
  185.6990  177.2680  145.2960 C   0  0  0  0  0  2  0  0  0  0  0  0
  188.0220  176.9520  146.2210 C   0  0  0  0  0  2  0  0  0  0  0  0
  187.7210  177.9790  147.3080 C   0  0  0  0  0  2  0  0  0  0  0  0
  190.8220  177.2370  144.5610 C   0  0  0  0  0  1  0  0  0  0  0  0
  190.7540  177.1160  143.0500 C   0  0  0  0  0  2  0  0  0  0  0  0
  187.5510  174.5980  137.9390 C   0  0  0  0  0  2  0  0  0  0  0  0
  188.4130  174.4160  139.1800 C   0  0  0  0  0  2  0  0  0  0  0  0
  188.3420  173.0400  139.6490 N   0  0  0  0  0  0  0  0  0  0  0  0
  189.3200  171.1750  138.5160 N   0  0  0  0  0  1  0  0  0  0  0  0
  189.5830  172.4660  141.4800 C   0  0  0  0  0  0  0  0  0  0  0  0
  190.2960  172.0270  140.5110 N   0  0  0  0  0  0  0  0  0  0  0  0
  188.3960  173.0810  141.0500 N   0  0  0  0  0  2  0  0  0  0  0  0
  189.6060  172.3810  139.2740 C   0  0  2  0  0  3  0  0  0  0  0  0
  189.9290  172.2500  142.9100 C   0  0  0  0  0  2  0  0  0  0  0  0
  191.1310  172.8980  143.2020 O   0  0  0  0  0  0  0  0  0  0  0  0
  191.9900  170.8660  143.7630 O   0  0  0  0  0  1  0  0  0  0  0  0
  191.7000  172.1490  144.2340 C   0  0  1  0  0  3  0  0  0  0  0  0
  194.8160  174.9340  144.6520 O   0  0  0  0  0  0  0  0  0  0  0  0
  196.6480  175.2030  142.4340 C   0  0  0  0  0  1  0  0  0  0  0  0
  193.9850  174.7990  145.8060 C   0  0  2  0  0  3  0  0  0  0  0  0
  192.6610  174.1350  145.4400 C   0  0  0  0  0  2  0  0  0  0  0  0
  192.9780  172.8230  144.7240 C   0  0  2  0  0  3  0  0  0  0  0  0
  195.6550  174.1450  142.4880 N   0  0  0  0  0  2  0  0  0  0  0  0
  194.7700  174.0100  143.5970 C   0  0  0  0  0  0  0  0  0  0  0  0
  193.8930  173.0520  143.6010 N   0  0  0  0  0  0  0  0  0  0  0  0
  193.7730  176.1480  146.4840 C   0  0  0  0  0  2  0  0  0  0  0  0
  194.5790  177.2520  145.8150 C   0  0  0  0  0  1  0  0  0  0  0  0
  2  1  1  6  0  0  0
  2 25  1  0  0  0  0
  2  3  1  0  0  0  0
  3  4  1  0  0  0  0
  4 13  1  0  0  0  0
  5 13  1  0  0  0  0
  5 14  1  0  0  0  0
  6 24  1  1  0  0  0
  6 12  1  0  0  0  0
  7 11  1  0  0  0  0
  9  7  1  0  0  0  0
  9  6  1  0  0  0  0
 11 12  1  1  0  0  0
 11 19  1  0  0  0  0
 13 15  1  0  0  0  0
 14 10  2  0  0  0  0
 14  8  1  0  0  0  0
 15  7  1  0  0  0  0
 15  8  2  0  0  0  0
 17 16  1  1  0  0  0
 17 18  1  0  0  0  0
 19 20  1  1  0  0  0
 19 21  1  0  0  0  0
 20 17  1  0  0  0  0
 21 22  1  0  0  0  0
 22 18  1  0  0  0  0
 24 23  1  0  0  0  0
 25 26  1  0  0  0  0
 26 27  1  0  0  0  0
 27 31  1  0  0  0  0
 29 33  1  0  0  0  0
 30 29  2  0  0  0  0
 31 29  1  0  0  0  0
 32 28  1  1  0  0  0
 32 27  1  0  0  0  0
 32 30  1  0  0  0  0
 33 34  1  0  0  0  0
 34 36  1  0  0  0  0
 36 35  1  6  0  0  0
 37 39  1  0  0  0  0
 38 42  1  0  0  0  0
 39 45  1  6  0  0  0
 40 39  1  0  0  0  0
 41 36  1  6  0  0  0
 41 40  1  0  0  0  0
 42 43  1  0  0  0  0
 43 44  2  0  0  0  0
 43 37  1  0  0  0  0
 44 41  1  0  0  0  0
 46 45  1  0  0  0  0
M  END
>  <MODEL>
4

>  <REMARK>
 VINA RESULT:      -6.7      2.497      4.239
  Name = 
  13 active torsions:
  status: ('A' for Active; 'I' for Inactive)
    1  A    between atoms: N_4  and  C_6
    2  A    between atoms: C_6  and  C_34
    3  A    between atoms: C_7  and  O_28
    4  A    between atoms: C_7  and  C_36
    5  A    between atoms: C_11  and  C_16
    6  A    between atoms: C_13  and  C_18
    7  A    between atoms: C_14  and  C_32
    8  A    between atoms: C_26  and  C_27
    9  A    between atoms: C_26  and  O_28
   10  A    between atoms: N_29  and  C_35
   11  A    between atoms: N_29  and  C_39
   12  A    between atoms: C_34  and  C_35
   13  A    between atoms: N_37  and  C_39
                            x       y       z     vdW  Elec       q    Type
                         _______ _______ _______ _____ _____    ______ ____

>  <TORSDO>
F 13

$$$$
=
 OpenBabel11042414363D

 46 50  0  0  1  0  0  0  0  0999 V2000
  191.7660  172.5320  138.4410 C   0  0  0  0  0  1  0  0  0  0  0  0
  192.1070  171.9950  139.8170 C   0  0  1  0  0  3  0  0  0  0  0  0
  192.5790  173.0840  140.6540 N   0  0  0  0  0  2  0  0  0  0  0  0
  193.8430  172.6690  141.2480 C   0  0  0  0  0  2  0  0  0  0  0  0
  193.8200  170.8920  143.0870 C   0  0  0  0  0  2  0  0  0  0  0  0
  193.0350  176.7270  142.8860 C   0  0  2  0  0  3  0  0  0  0  0  0
  193.3330  174.5240  143.7380 N   0  0  0  0  0  0  0  0  0  0  0  0
  193.6580  172.4650  144.9070 N   0  0  0  0  0  0  0  0  0  0  0  0
  193.0250  175.2510  142.5230 C   0  0  0  0  0  2  0  0  0  0  0  0
  193.9660  170.1830  145.4070 O   0  0  0  0  0  0  0  0  0  0  0  0
  193.5070  175.3950  144.8890 C   0  0  1  0  0  3  0  0  0  0  0  0
  193.4160  176.8210  144.3570 C   0  0  0  0  0  2  0  0  0  0  0  0
  193.6350  172.2580  142.6300 N   0  0  0  0  0  0  0  0  0  0  0  0
  193.8280  171.0990  144.5570 C   0  0  0  0  0  0  0  0  0  0  0  0
  193.5480  173.1020  143.7870 C   0  0  0  0  0  0  0  0  0  0  0  0
  191.1910  177.1640  148.9560 C   0  0  0  0  0  1  0  0  0  0  0  0
  191.3270  175.9700  148.0370 C   0  0  1  0  0  3  0  0  0  0  0  0
  189.9670  175.6290  147.4350 C   0  0  0  0  0  2  0  0  0  0  0  0
  192.4530  175.1080  145.9690 C   0  0  1  0  0  3  0  0  0  0  0  0
  192.3290  176.2890  146.9320 C   0  0  0  0  0  2  0  0  0  0  0  0
  191.0850  174.7400  145.3800 C   0  0  0  0  0  2  0  0  0  0  0  0
  190.0930  174.4320  146.4980 C   0  0  0  0  0  2  0  0  0  0  0  0
  191.2810  178.2120  143.8570 C   0  0  0  0  0  1  0  0  0  0  0  0
  191.6550  177.3290  142.6810 C   0  0  0  0  0  2  0  0  0  0  0  0
  190.8760  171.3640  140.4540 C   0  0  0  0  0  2  0  0  0  0  0  0
  189.5970  171.9510  139.8740 C   0  0  0  0  0  2  0  0  0  0  0  0
  188.7230  172.4140  140.9420 N   0  0  0  0  0  0  0  0  0  0  0  0
  189.1400  172.0710  143.2720 N   0  0  0  0  0  1  0  0  0  0  0  0
  188.6550  174.6570  141.3750 C   0  0  0  0  0  0  0  0  0  0  0  0
  189.4330  174.2200  142.2930 N   0  0  0  0  0  0  0  0  0  0  0  0
  188.1840  173.6400  140.5280 N   0  0  0  0  0  2  0  0  0  0  0  0
  189.5800  172.7820  142.0840 C   0  0  2  0  0  3  0  0  0  0  0  0
  188.2170  176.0750  141.2850 C   0  0  0  0  0  2  0  0  0  0  0  0
  187.5450  176.4300  142.4570 O   0  0  0  0  0  0  0  0  0  0  0  0
  188.4650  178.2790  141.4990 O   0  0  0  0  0  1  0  0  0  0  0  0
  187.8540  177.7790  142.6510 C   0  0  1  0  0  3  0  0  0  0  0  0
  183.8270  178.6770  143.4370 O   0  0  0  0  0  0  0  0  0  0  0  0
  181.9410  178.2660  141.2870 C   0  0  0  0  0  1  0  0  0  0  0  0
  184.7190  178.9640  144.5160 C   0  0  2  0  0  3  0  0  0  0  0  0
  186.0390  178.2220  144.3340 C   0  0  0  0  0  2  0  0  0  0  0  0
  186.5810  178.5660  142.9480 C   0  0  2  0  0  3  0  0  0  0  0  0
  183.3760  178.1780  141.0800 N   0  0  0  0  0  2  0  0  0  0  0  0
  184.2970  178.4030  142.1450 C   0  0  0  0  0  0  0  0  0  0  0  0
  185.5720  178.3080  141.9150 N   0  0  0  0  0  0  0  0  0  0  0  0
  184.0700  178.6430  145.8580 C   0  0  0  0  0  2  0  0  0  0  0  0
  184.7490  177.4700  146.5500 C   0  0  0  0  0  1  0  0  0  0  0  0
  2  1  1  6  0  0  0
  2 25  1  0  0  0  0
  2  3  1  0  0  0  0
  3  4  1  0  0  0  0
  4 13  1  0  0  0  0
  5 14  1  0  0  0  0
  6 24  1  1  0  0  0
  6 12  1  0  0  0  0
  7 15  1  0  0  0  0
  7 11  1  0  0  0  0
  9  6  1  0  0  0  0
  9  7  1  0  0  0  0
 11 12  1  6  0  0  0
 11 19  1  0  0  0  0
 13  5  1  0  0  0  0
 13 15  1  0  0  0  0
 14  8  1  0  0  0  0
 14 10  2  0  0  0  0
 15  8  2  0  0  0  0
 17 16  1  1  0  0  0
 18 17  1  0  0  0  0
 19 21  1  6  0  0  0
 19 20  1  0  0  0  0
 20 17  1  0  0  0  0
 21 22  1  0  0  0  0
 22 18  1  0  0  0  0
 24 23  1  0  0  0  0
 26 25  1  0  0  0  0
 26 27  1  0  0  0  0
 27 32  1  0  0  0  0
 29 30  2  0  0  0  0
 31 27  1  0  0  0  0
 31 29  1  0  0  0  0
 32 30  1  0  0  0  0
 32 28  1  1  0  0  0
 33 29  1  0  0  0  0
 33 34  1  0  0  0  0
 34 36  1  0  0  0  0
 36 35  1  6  0  0  0
 37 39  1  0  0  0  0
 39 45  1  1  0  0  0
 40 39  1  0  0  0  0
 41 36  1  6  0  0  0
 41 40  1  0  0  0  0
 42 38  1  0  0  0  0
 42 43  1  0  0  0  0
 43 37  1  0  0  0  0
 44 43  2  0  0  0  0
 44 41  1  0  0  0  0
 45 46  1  0  0  0  0
M  END
>  <MODEL>
5

>  <REMARK>
 VINA RESULT:      -6.6      2.308      6.455
  Name = 
  13 active torsions:
  status: ('A' for Active; 'I' for Inactive)
    1  A    between atoms: N_4  and  C_6
    2  A    between atoms: C_6  and  C_34
    3  A    between atoms: C_7  and  O_28
    4  A    between atoms: C_7  and  C_36
    5  A    between atoms: C_11  and  C_16
    6  A    between atoms: C_13  and  C_18
    7  A    between atoms: C_14  and  C_32
    8  A    between atoms: C_26  and  C_27
    9  A    between atoms: C_26  and  O_28
   10  A    between atoms: N_29  and  C_35
   11  A    between atoms: N_29  and  C_39
   12  A    between atoms: C_34  and  C_35
   13  A    between atoms: N_37  and  C_39
                            x       y       z     vdW  Elec       q    Type
                         _______ _______ _______ _____ _____    ______ ____

>  <TORSDO>
F 13

$$$$
=
 OpenBabel11042414363D

 46 50  0  0  1  0  0  0  0  0999 V2000
  189.5010  172.9870  137.2620 C   0  0  0  0  0  1  0  0  0  0  0  0
  189.8890  173.3810  138.6740 C   0  0  1  0  0  3  0  0  0  0  0  0
  189.3400  172.4150  139.6100 N   0  0  0  0  0  2  0  0  0  0  0  0
  188.3510  173.1050  140.4270 C   0  0  0  0  0  2  0  0  0  0  0  0
  189.3570  171.9250  142.4610 C   0  0  0  0  0  2  0  0  0  0  0  0
  187.4420  177.3730  141.2990 C   0  0  2  0  0  3  0  0  0  0  0  0
  188.4550  175.5360  142.4240 N   0  0  0  0  0  0  0  0  0  0  0  0
  189.5820  173.9270  143.7840 N   0  0  0  0  0  0  0  0  0  0  0  0
  187.5830  175.8600  141.3120 C   0  0  0  0  0  2  0  0  0  0  0  0
  190.4890  171.9140  144.6110 O   0  0  0  0  0  0  0  0  0  0  0  0
  188.8720  176.7070  143.1750 C   0  0  1  0  0  3  0  0  0  0  0  0
  188.3160  177.9110  142.4230 C   0  0  0  0  0  2  0  0  0  0  0  0
  188.7560  173.0850  141.8260 N   0  0  0  0  0  0  0  0  0  0  0  0
  189.8710  172.5380  143.7110 C   0  0  0  0  0  0  0  0  0  0  0  0
  188.9430  174.2100  142.6970 C   0  0  0  0  0  0  0  0  0  0  0  0
  189.6250  178.2890  147.8630 C   0  0  0  0  0  1  0  0  0  0  0  0
  188.7760  177.3950  146.9850 C   0  0  1  0  0  3  0  0  0  0  0  0
  187.3110  177.8020  147.1030 C   0  0  0  0  0  2  0  0  0  0  0  0
  188.3720  176.6450  144.6260 C   0  0  1  0  0  3  0  0  0  0  0  0
  189.2420  177.5120  145.5360 C   0  0  0  0  0  2  0  0  0  0  0  0
  186.8920  177.0300  144.7610 C   0  0  0  0  0  2  0  0  0  0  0  0
  186.4450  176.9140  146.2150 C   0  0  0  0  0  2  0  0  0  0  0  0
  185.3590  178.2860  140.2720 C   0  0  0  0  0  1  0  0  0  0  0  0
  185.9960  177.7690  141.5490 C   0  0  0  0  0  2  0  0  0  0  0  0
  191.4040  173.4150  138.8130 C   0  0  0  0  0  2  0  0  0  0  0  0
  191.8900  172.3490  139.7850 C   0  0  0  0  0  2  0  0  0  0  0  0
  192.4680  172.9690  140.9680 N   0  0  0  0  0  0  0  0  0  0  0  0
  193.3310  171.7580  142.8420 N   0  0  0  0  0  1  0  0  0  0  0  0
  194.5230  173.9490  140.7680 C   0  0  0  0  0  0  0  0  0  0  0  0
  194.8040  172.8220  141.3050 N   0  0  0  0  0  0  0  0  0  0  0  0
  193.1470  174.1180  140.5380 N   0  0  0  0  0  2  0  0  0  0  0  0
  193.5500  172.0870  141.4440 C   0  0  2  0  0  3  0  0  0  0  0  0
  195.5380  175.0070  140.5150 C   0  0  0  0  0  2  0  0  0  0  0  0
  196.6590  174.7780  141.3150 O   0  0  0  0  0  0  0  0  0  0  0  0
  196.0580  176.9730  141.3880 O   0  0  0  0  0  1  0  0  0  0  0  0
  196.9490  176.0190  141.8870 C   0  0  1  0  0  3  0  0  0  0  0  0
  195.4780  175.0810  145.7080 O   0  0  0  0  0  0  0  0  0  0  0  0
  193.0130  176.3510  146.5190 C   0  0  0  0  0  1  0  0  0  0  0  0
  196.7320  174.4740  145.3910 C   0  0  2  0  0  3  0  0  0  0  0  0
  196.9730  174.4930  143.8850 C   0  0  0  0  0  2  0  0  0  0  0  0
  196.8220  175.9350  143.4050 C   0  0  2  0  0  3  0  0  0  0  0  0
  193.7180  176.7400  145.3110 N   0  0  0  0  0  2  0  0  0  0  0  0
  194.9450  176.1200  144.9310 C   0  0  0  0  0  0  0  0  0  0  0  0
  195.5380  176.4960  143.8390 N   0  0  0  0  0  0  0  0  0  0  0  0
  196.8110  173.0610  145.9590 C   0  0  0  0  0  2  0  0  0  0  0  0
  197.4650  172.0930  144.9840 C   0  0  0  0  0  1  0  0  0  0  0  0
  2  1  1  6  0  0  0
  2 25  1  0  0  0  0
  2  3  1  0  0  0  0
  3  4  1  0  0  0  0
  4 13  1  0  0  0  0
  5 14  1  0  0  0  0
  6  9  1  0  0  0  0
  6 24  1  1  0  0  0
  6 12  1  0  0  0  0
  7 15  1  0  0  0  0
  7 11  1  0  0  0  0
  9  7  1  0  0  0  0
 11 12  1  6  0  0  0
 11 19  1  0  0  0  0
 13  5  1  0  0  0  0
 13 15  1  0  0  0  0
 14  8  1  0  0  0  0
 14 10  2  0  0  0  0
 15  8  2  0  0  0  0
 17 18  1  0  0  0  0
 17 16  1  1  0  0  0
 19 21  1  6  0  0  0
 19 20  1  0  0  0  0
 20 17  1  0  0  0  0
 21 22  1  0  0  0  0
 22 18  1  0  0  0  0
 23 24  1  0  0  0  0
 25 26  1  0  0  0  0
 26 27  1  0  0  0  0
 27 32  1  0  0  0  0
 29 30  2  0  0  0  0
 30 32  1  0  0  0  0
 31 29  1  0  0  0  0
 31 27  1  0  0  0  0
 32 28  1  1  0  0  0
 33 29  1  0  0  0  0
 33 34  1  0  0  0  0
 34 36  1  0  0  0  0
 36 35  1  6  0  0  0
 39 37  1  0  0  0  0
 39 45  1  6  0  0  0
 40 39  1  0  0  0  0
 41 36  1  6  0  0  0
 41 44  1  0  0  0  0
 41 40  1  0  0  0  0
 42 38  1  0  0  0  0
 43 42  1  0  0  0  0
 43 37  1  0  0  0  0
 44 43  2  0  0  0  0
 46 45  1  0  0  0  0
M  END
>  <MODEL>
6

>  <REMARK>
 VINA RESULT:      -6.6      2.317      3.222
  Name = 
  13 active torsions:
  status: ('A' for Active; 'I' for Inactive)
    1  A    between atoms: N_4  and  C_6
    2  A    between atoms: C_6  and  C_34
    3  A    between atoms: C_7  and  O_28
    4  A    between atoms: C_7  and  C_36
    5  A    between atoms: C_11  and  C_16
    6  A    between atoms: C_13  and  C_18
    7  A    between atoms: C_14  and  C_32
    8  A    between atoms: C_26  and  C_27
    9  A    between atoms: C_26  and  O_28
   10  A    between atoms: N_29  and  C_35
   11  A    between atoms: N_29  and  C_39
   12  A    between atoms: C_34  and  C_35
   13  A    between atoms: N_37  and  C_39
                            x       y       z     vdW  Elec       q    Type
                         _______ _______ _______ _____ _____    ______ ____

>  <TORSDO>
F 13

$$$$
=
 OpenBabel11042414363D

 46 50  0  0  1  0  0  0  0  0999 V2000
  192.4150  172.4340  143.4940 C   0  0  0  0  0  1  0  0  0  0  0  0
  191.1670  171.6360  143.1660 C   0  0  1  0  0  3  0  0  0  0  0  0
  190.0740  172.5500  142.8850 N   0  0  0  0  0  2  0  0  0  0  0  0
  190.4970  173.8830  143.2920 C   0  0  0  0  0  2  0  0  0  0  0  0
  189.9180  173.7590  145.7800 C   0  0  0  0  0  2  0  0  0  0  0  0
  188.2870  177.1700  141.2630 C   0  0  2  0  0  3  0  0  0  0  0  0
  188.5330  176.3350  143.4790 N   0  0  0  0  0  0  0  0  0  0  0  0
  188.6250  175.7930  145.8040 N   0  0  0  0  0  0  0  0  0  0  0  0
  188.7190  175.9690  142.0890 C   0  0  0  0  0  2  0  0  0  0  0  0
  189.0620  174.7050  147.8490 O   0  0  0  0  0  0  0  0  0  0  0  0
  187.9750  177.6670  143.6430 C   0  0  1  0  0  3  0  0  0  0  0  0
  187.8950  178.2660  142.2440 C   0  0  0  0  0  2  0  0  0  0  0  0
  189.7320  174.3180  144.4530 N   0  0  0  0  0  0  0  0  0  0  0  0
  189.1850  174.7570  146.5980 C   0  0  0  0  0  0  0  0  0  0  0  0
  188.9510  175.5150  144.5840 C   0  0  0  0  0  0  0  0  0  0  0  0
  185.5010  178.3470  147.9390 C   0  0  0  0  0  1  0  0  0  0  0  0
  185.3700  177.9050  146.4970 C   0  0  1  0  0  3  0  0  0  0  0  0
  184.3370  178.7760  145.7880 C   0  0  0  0  0  2  0  0  0  0  0  0
  186.6050  177.6160  144.3340 C   0  0  1  0  0  3  0  0  0  0  0  0
  186.7240  178.0210  145.8040 C   0  0  0  0  0  2  0  0  0  0  0  0
  185.5470  178.4670  143.6200 C   0  0  0  0  0  2  0  0  0  0  0  0
  184.2020  178.3480  144.3290 C   0  0  0  0  0  2  0  0  0  0  0  0
  186.1080  177.9670  140.3460 C   0  0  0  0  0  1  0  0  0  0  0  0
  187.0910  176.8120  140.3980 C   0  0  0  0  0  2  0  0  0  0  0  0
  191.4130  170.7520  141.9510 C   0  0  0  0  0  2  0  0  0  0  0  0
  190.4290  171.0690  140.8340 C   0  0  0  0  0  2  0  0  0  0  0  0
  191.1420  171.4480  139.6230 N   0  0  0  0  0  0  0  0  0  0  0  0
  190.0840  172.1680  137.6030 N   0  0  0  0  0  1  0  0  0  0  0  0
  192.2830  173.4290  139.6280 C   0  0  0  0  0  0  0  0  0  0  0  0
  191.2050  173.7290  139.0050 N   0  0  0  0  0  0  0  0  0  0  0  0
  192.3260  172.0820  140.0270 N   0  0  0  0  0  2  0  0  0  0  0  0
  190.3740  172.5300  138.9800 C   0  0  2  0  0  3  0  0  0  0  0  0
  193.4110  174.3800  139.8110 C   0  0  0  0  0  2  0  0  0  0  0  0
  193.5630  174.6660  141.1690 O   0  0  0  0  0  0  0  0  0  0  0  0
  195.5670  175.4290  140.4030 O   0  0  0  0  0  1  0  0  0  0  0  0
  194.9440  174.6530  141.3840 C   0  0  1  0  0  3  0  0  0  0  0  0
  194.9000  175.2330  145.5440 O   0  0  0  0  0  0  0  0  0  0  0  0
  192.4810  176.3120  146.6980 C   0  0  0  0  0  1  0  0  0  0  0  0
  196.1450  174.7610  145.0260 C   0  0  2  0  0  3  0  0  0  0  0  0
  195.9560  174.1660  143.6330 C   0  0  0  0  0  2  0  0  0  0  0  0
  195.2600  175.2140  142.7670 C   0  0  2  0  0  3  0  0  0  0  0  0
  192.6870  176.2490  145.2620 N   0  0  0  0  0  2  0  0  0  0  0  0
  193.8940  175.7330  144.7050 C   0  0  0  0  0  0  0  0  0  0  0  0
  194.0330  175.6910  143.4140 N   0  0  0  0  0  0  0  0  0  0  0  0
  196.7900  173.7660  145.9830 C   0  0  0  0  0  2  0  0  0  0  0  0
  196.7120  172.3400  145.4580 C   0  0  0  0  0  1  0  0  0  0  0  0
  2  1  1  6  0  0  0
  3  2  1  0  0  0  0
  3  4  1  0  0  0  0
  4 13  1  0  0  0  0
  5 14  1  0  0  0  0
  6 24  1  1  0  0  0
  6  9  1  0  0  0  0
  6 12  1  0  0  0  0
  7 11  1  0  0  0  0
  7 15  1  0  0  0  0
  8 14  1  0  0  0  0
  9  7  1  0  0  0  0
 11 12  1  6  0  0  0
 11 19  1  0  0  0  0
 13 15  1  0  0  0  0
 13  5  1  0  0  0  0
 14 10  2  0  0  0  0
 15  8  2  0  0  0  0
 17 16  1  1  0  0  0
 18 17  1  0  0  0  0
 19 21  1  6  0  0  0
 19 20  1  0  0  0  0
 20 17  1  0  0  0  0
 21 22  1  0  0  0  0
 22 18  1  0  0  0  0
 23 24  1  0  0  0  0
 25  2  1  0  0  0  0
 26 25  1  0  0  0  0
 27 31  1  0  0  0  0
 27 26  1  0  0  0  0
 29 33  1  0  0  0  0
 29 31  1  0  0  0  0
 30 29  2  0  0  0  0
 32 28  1  6  0  0  0
 32 30  1  0  0  0  0
 32 27  1  0  0  0  0
 33 34  1  0  0  0  0
 34 36  1  0  0  0  0
 36 35  1  6  0  0  0
 39 37  1  0  0  0  0
 39 45  1  1  0  0  0
 40 39  1  0  0  0  0
 41 36  1  6  0  0  0
 41 44  1  0  0  0  0
 41 40  1  0  0  0  0
 42 38  1  0  0  0  0
 43 42  1  0  0  0  0
 43 37  1  0  0  0  0
 44 43  2  0  0  0  0
 46 45  1  0  0  0  0
M  END
>  <MODEL>
7

>  <REMARK>
 VINA RESULT:      -6.6      2.076      3.236
  Name = 
  13 active torsions:
  status: ('A' for Active; 'I' for Inactive)
    1  A    between atoms: N_4  and  C_6
    2  A    between atoms: C_6  and  C_34
    3  A    between atoms: C_7  and  O_28
    4  A    between atoms: C_7  and  C_36
    5  A    between atoms: C_11  and  C_16
    6  A    between atoms: C_13  and  C_18
    7  A    between atoms: C_14  and  C_32
    8  A    between atoms: C_26  and  C_27
    9  A    between atoms: C_26  and  O_28
   10  A    between atoms: N_29  and  C_35
   11  A    between atoms: N_29  and  C_39
   12  A    between atoms: C_34  and  C_35
   13  A    between atoms: N_37  and  C_39
                            x       y       z     vdW  Elec       q    Type
                         _______ _______ _______ _____ _____    ______ ____

>  <TORSDO>
F 13

$$$$
=
 OpenBabel11042414363D

 46 50  0  0  1  0  0  0  0  0999 V2000
  189.2290  174.0570  136.7770 C   0  0  0  0  0  1  0  0  0  0  0  0
  189.8770  173.7390  138.1110 C   0  0  1  0  0  3  0  0  0  0  0  0
  188.9990  172.8710  138.8750 N   0  0  0  0  0  2  0  0  0  0  0  0
  188.1860  173.7150  139.7400 C   0  0  0  0  0  2  0  0  0  0  0  0
  189.1380  172.2900  141.6380 C   0  0  0  0  0  2  0  0  0  0  0  0
  187.3820  177.8840  141.0730 C   0  0  2  0  0  3  0  0  0  0  0  0
  188.3330  175.9070  141.9940 N   0  0  0  0  0  0  0  0  0  0  0  0
  189.4020  174.1270  143.1770 N   0  0  0  0  0  0  0  0  0  0  0  0
  187.4820  176.3760  140.9190 C   0  0  0  0  0  2  0  0  0  0  0  0
  190.2460  172.0110  143.7830 O   0  0  0  0  0  0  0  0  0  0  0  0
  188.7730  176.9760  142.8740 C   0  0  1  0  0  3  0  0  0  0  0  0
  188.2580  178.2710  142.2560 C   0  0  0  0  0  2  0  0  0  0  0  0
  188.5750  173.5290  141.1320 N   0  0  0  0  0  0  0  0  0  0  0  0
  189.6550  172.7470  142.9520 C   0  0  0  0  0  0  0  0  0  0  0  0
  188.7820  174.5460  142.1220 C   0  0  0  0  0  0  0  0  0  0  0  0
  189.5800  177.9150  147.7230 C   0  0  0  0  0  1  0  0  0  0  0  0
  188.6850  177.1930  146.7390 C   0  0  1  0  0  3  0  0  0  0  0  0
  187.2480  177.6760  146.9050 C   0  0  0  0  0  2  0  0  0  0  0  0
  188.2560  176.7680  144.3050 C   0  0  1  0  0  3  0  0  0  0  0  0
  189.1710  177.4580  145.3180 C   0  0  0  0  0  2  0  0  0  0  0  0
  186.8030  177.2280  144.4840 C   0  0  0  0  0  2  0  0  0  0  0  0
  186.3350  176.9630  145.9120 C   0  0  0  0  0  2  0  0  0  0  0  0
  185.0580  177.9620  140.1660 C   0  0  0  0  0  1  0  0  0  0  0  0
  185.9440  178.2910  141.3530 C   0  0  0  0  0  2  0  0  0  0  0  0
  191.2130  173.0440  137.8930 C   0  0  0  0  0  2  0  0  0  0  0  0
  191.5110  172.0640  139.0200 C   0  0  0  0  0  2  0  0  0  0  0  0
  192.8300  172.3230  139.5790 N   0  0  0  0  0  0  0  0  0  0  0  0
  193.7020  174.5040  140.0270 N   0  0  0  0  0  1  0  0  0  0  0  0
  193.1730  171.8300  141.7840 C   0  0  0  0  0  0  0  0  0  0  0  0
  192.9900  173.0960  141.8080 N   0  0  0  0  0  0  0  0  0  0  0  0
  193.0980  171.2900  140.4890 N   0  0  0  0  0  2  0  0  0  0  0  0
  192.7180  173.5170  140.4370 C   0  0  2  0  0  3  0  0  0  0  0  0
  193.5320  171.0360  142.9890 C   0  0  0  0  0  2  0  0  0  0  0  0
  194.7260  171.5200  143.5280 O   0  0  0  0  0  0  0  0  0  0  0  0
  195.1720  170.6810  145.5960 O   0  0  0  0  0  1  0  0  0  0  0  0
  194.4700  171.6630  144.8930 C   0  0  1  0  0  3  0  0  0  0  0  0
  195.1800  175.8030  144.9440 O   0  0  0  0  0  0  0  0  0  0  0  0
  197.1980  176.8150  143.1410 C   0  0  0  0  0  1  0  0  0  0  0  0
  194.2200  175.3560  145.9030 C   0  0  2  0  0  3  0  0  0  0  0  0
  193.7000  173.9690  145.5360 C   0  0  0  0  0  2  0  0  0  0  0  0
  194.9060  173.0480  145.3620 C   0  0  2  0  0  3  0  0  0  0  0  0
  197.0010  175.3920  143.3540 N   0  0  0  0  0  2  0  0  0  0  0  0
  196.0150  174.9050  144.2620 C   0  0  0  0  0  0  0  0  0  0  0  0
  195.8690  173.6240  144.4170 N   0  0  0  0  0  0  0  0  0  0  0  0
  193.0870  176.3640  146.0480 C   0  0  0  0  0  2  0  0  0  0  0  0
  192.6020  176.8730  144.6980 C   0  0  0  0  0  1  0  0  0  0  0  0
  2  1  1  6  0  0  0
  2  3  1  0  0  0  0
  3  4  1  0  0  0  0
  4 13  1  0  0  0  0
  5 14  1  0  0  0  0
  6 24  1  1  0  0  0
  6 12  1  0  0  0  0
  7 15  1  0  0  0  0
  7 11  1  0  0  0  0
  9  6  1  0  0  0  0
  9  7  1  0  0  0  0
 11 12  1  6  0  0  0
 11 19  1  0  0  0  0
 13  5  1  0  0  0  0
 13 15  1  0  0  0  0
 14  8  1  0  0  0  0
 14 10  2  0  0  0  0
 15  8  2  0  0  0  0
 17 18  1  0  0  0  0
 17 16  1  1  0  0  0
 19 21  1  6  0  0  0
 19 20  1  0  0  0  0
 20 17  1  0  0  0  0
 21 22  1  0  0  0  0
 22 18  1  0  0  0  0
 23 24  1  0  0  0  0
 25  2  1  0  0  0  0
 25 26  1  0  0  0  0
 26 27  1  0  0  0  0
 27 32  1  0  0  0  0
 27 31  1  0  0  0  0
 29 30  2  0  0  0  0
 29 33  1  0  0  0  0
 31 29  1  0  0  0  0
 32 28  1  6  0  0  0
 32 30  1  0  0  0  0
 33 34  1  0  0  0  0
 34 36  1  0  0  0  0
 36 35  1  1  0  0  0
 37 39  1  0  0  0  0
 38 42  1  0  0  0  0
 39 45  1  6  0  0  0
 40 39  1  0  0  0  0
 41 36  1  6  0  0  0
 41 40  1  0  0  0  0
 42 43  1  0  0  0  0
 43 44  2  0  0  0  0
 43 37  1  0  0  0  0
 44 41  1  0  0  0  0
 46 45  1  0  0  0  0
M  END
>  <MODEL>
8

>  <REMARK>
 VINA RESULT:      -6.5      1.843      2.386
  Name = 
  13 active torsions:
  status: ('A' for Active; 'I' for Inactive)
    1  A    between atoms: N_4  and  C_6
    2  A    between atoms: C_6  and  C_34
    3  A    between atoms: C_7  and  O_28
    4  A    between atoms: C_7  and  C_36
    5  A    between atoms: C_11  and  C_16
    6  A    between atoms: C_13  and  C_18
    7  A    between atoms: C_14  and  C_32
    8  A    between atoms: C_26  and  C_27
    9  A    between atoms: C_26  and  O_28
   10  A    between atoms: N_29  and  C_35
   11  A    between atoms: N_29  and  C_39
   12  A    between atoms: C_34  and  C_35
   13  A    between atoms: N_37  and  C_39
                            x       y       z     vdW  Elec       q    Type
                         _______ _______ _______ _____ _____    ______ ____

>  <TORSDO>
F 13

$$$$
=
 OpenBabel11042414363D

 46 50  0  0  1  0  0  0  0  0999 V2000
  193.9590  173.2380  140.3030 C   0  0  0  0  0  1  0  0  0  0  0  0
  193.5230  171.8310  139.9430 C   0  0  1  0  0  3  0  0  0  0  0  0
  192.9960  171.1750  141.1270 N   0  0  0  0  0  2  0  0  0  0  0  0
  193.5130  171.8830  142.2900 C   0  0  0  0  0  2  0  0  0  0  0  0
  191.1170  171.6700  143.1590 C   0  0  0  0  0  2  0  0  0  0  0  0
  195.7520  175.0720  144.4390 C   0  0  2  0  0  3  0  0  0  0  0  0
  193.6040  174.0540  144.5670 N   0  0  0  0  0  0  0  0  0  0  0  0
  191.4180  173.1940  145.0030 N   0  0  0  0  0  0  0  0  0  0  0  0
  194.7350  174.2360  143.6790 C   0  0  0  0  0  2  0  0  0  0  0  0
  189.3880  172.0080  144.8340 O   0  0  0  0  0  0  0  0  0  0  0  0
  193.7690  174.7360  145.8400 C   0  0  1  0  0  3  0  0  0  0  0  0
  195.1770  175.3190  145.8270 C   0  0  0  0  0  2  0  0  0  0  0  0
  192.4120  172.3260  143.1360 N   0  0  0  0  0  0  0  0  0  0  0  0
  190.5330  172.2710  144.3840 C   0  0  0  0  0  0  0  0  0  0  0  0
  192.4810  173.2060  144.2670 C   0  0  0  0  0  0  0  0  0  0  0  0
  190.6670  177.9280  143.5540 C   0  0  0  0  0  1  0  0  0  0  0  0
  191.1750  177.4510  144.8980 C   0  0  1  0  0  3  0  0  0  0  0  0
  190.0060  176.9480  145.7380 C   0  0  0  0  0  2  0  0  0  0  0  0
  192.6940  175.8140  146.0380 C   0  0  1  0  0  3  0  0  0  0  0  0
  192.1960  176.3370  144.6900 C   0  0  0  0  0  2  0  0  0  0  0  0
  191.5200  175.3320  146.9010 C   0  0  0  0  0  2  0  0  0  0  0  0
  190.5060  176.4540  147.0930 C   0  0  0  0  0  2  0  0  0  0  0  0
  195.2910  176.4050  142.3800 C   0  0  0  0  0  1  0  0  0  0  0  0
  195.9700  176.4020  143.7380 C   0  0  0  0  0  2  0  0  0  0  0  0
  192.4480  171.8740  138.8670 C   0  0  0  0  0  2  0  0  0  0  0  0
  191.0580  171.7450  139.4760 C   0  0  0  0  0  2  0  0  0  0  0  0
  190.2950  172.9650  139.2580 N   0  0  0  0  0  0  0  0  0  0  0  0
  188.1880  173.0560  138.1280 N   0  0  0  0  0  1  0  0  0  0  0  0
  189.2690  173.9240  141.0610 C   0  0  0  0  0  0  0  0  0  0  0  0
  188.3070  173.3010  140.4920 N   0  0  0  0  0  0  0  0  0  0  0  0
  190.4910  173.7780  140.3830 N   0  0  0  0  0  2  0  0  0  0  0  0
  188.8650  172.6100  139.3340 C   0  0  2  0  0  3  0  0  0  0  0  0
  189.0860  174.7950  142.2520 C   0  0  0  0  0  2  0  0  0  0  0  0
  187.7710  175.2640  142.2880 O   0  0  0  0  0  0  0  0  0  0  0  0
  187.4780  176.6310  140.4920 O   0  0  0  0  0  1  0  0  0  0  0  0
  187.8500  176.5840  141.8370 C   0  0  1  0  0  3  0  0  0  0  0  0
  184.4620  177.9670  143.8980 O   0  0  0  0  0  0  0  0  0  0  0  0
  182.1420  178.6430  142.3150 C   0  0  0  0  0  1  0  0  0  0  0  0
  185.5970  177.7130  144.7290 C   0  0  2  0  0  3  0  0  0  0  0  0
  186.6020  176.8210  144.0070 C   0  0  0  0  0  2  0  0  0  0  0  0
  186.9260  177.4720  142.6640 C   0  0  2  0  0  3  0  0  0  0  0  0
  183.4260  178.3420  141.7080 N   0  0  0  0  0  2  0  0  0  0  0  0
  184.5700  178.0300  142.5010 C   0  0  0  0  0  0  0  0  0  0  0  0
  185.6970  177.7610  141.9160 N   0  0  0  0  0  0  0  0  0  0  0  0
  185.1700  177.1180  146.0660 C   0  0  0  0  0  2  0  0  0  0  0  0
  186.2810  177.1960  147.1030 C   0  0  0  0  0  1  0  0  0  0  0  0
  2  1  1  1  0  0  0
  2  3  1  0  0  0  0
  3  4  1  0  0  0  0
  4 13  1  0  0  0  0
  5 14  1  0  0  0  0
  6 24  1  6  0  0  0
  6 12  1  0  0  0  0
  7 11  1  0  0  0  0
  9  6  1  0  0  0  0
  9  7  1  0  0  0  0
 11 12  1  6  0  0  0
 11 19  1  0  0  0  0
 13  5  1  0  0  0  0
 13 15  1  0  0  0  0
 14 10  2  0  0  0  0
 14  8  1  0  0  0  0
 15  7  1  0  0  0  0
 15  8  2  0  0  0  0
 17 16  1  6  0  0  0
 17 18  1  0  0  0  0
 18 22  1  0  0  0  0
 19 20  1  6  0  0  0
 19 21  1  0  0  0  0
 20 17  1  0  0  0  0
 21 22  1  0  0  0  0
 23 24  1  0  0  0  0
 25 26  1  0  0  0  0
 25  2  1  0  0  0  0
 27 32  1  0  0  0  0
 27 26  1  0  0  0  0
 27 31  1  0  0  0  0
 29 33  1  0  0  0  0
 30 29  2  0  0  0  0
 31 29  1  0  0  0  0
 32 28  1  6  0  0  0
 32 30  1  0  0  0  0
 33 34  1  0  0  0  0
 36 35  1  6  0  0  0
 36 34  1  0  0  0  0
 37 39  1  0  0  0  0
 39 45  1  1  0  0  0
 40 39  1  0  0  0  0
 41 36  1  6  0  0  0
 41 40  1  0  0  0  0
 42 38  1  0  0  0  0
 42 43  1  0  0  0  0
 43 37  1  0  0  0  0
 44 43  2  0  0  0  0
 44 41  1  0  0  0  0
 45 46  1  0  0  0  0
M  END
>  <MODEL>
9

>  <REMARK>
 VINA RESULT:      -6.5      2.381      6.623
  Name = 
  13 active torsions:
  status: ('A' for Active; 'I' for Inactive)
    1  A    between atoms: N_4  and  C_6
    2  A    between atoms: C_6  and  C_34
    3  A    between atoms: C_7  and  O_28
    4  A    between atoms: C_7  and  C_36
    5  A    between atoms: C_11  and  C_16
    6  A    between atoms: C_13  and  C_18
    7  A    between atoms: C_14  and  C_32
    8  A    between atoms: C_26  and  C_27
    9  A    between atoms: C_26  and  O_28
   10  A    between atoms: N_29  and  C_35
   11  A    between atoms: N_29  and  C_39
   12  A    between atoms: C_34  and  C_35
   13  A    between atoms: N_37  and  C_39
                            x       y       z     vdW  Elec       q    Type
                         _______ _______ _______ _____ _____    ______ ____

>  <TORSDO>
F 13

$$$$
