=
 OpenBabel11042414193D

 62 68  0  0  1  0  0  0  0  0999 V2000
  188.2200  174.6900  141.3180 C   0  0  2  0  0  3  0  0  0  0  0  0
  190.6950  173.3000  143.4380 C   0  0  1  0  0  3  0  0  0  0  0  0
  189.3910  174.8000  142.0870 O   0  0  0  0  0  0  0  0  0  0  0  0
  192.0000  172.4050  141.6040 N   0  0  0  0  0  0  0  0  0  0  0  0
  188.5290  174.4380  139.8320 C   0  0  0  0  0  2  0  0  0  0  0  0
  191.7330  172.2670  143.0420 C   0  0  0  0  0  2  0  0  0  0  0  0
  188.9260  173.0480  139.6400 N   0  0  0  0  0  2  0  0  0  0  0  0
  189.9170  173.5040  142.1740 C   0  0  1  0  0  3  0  0  0  0  0  0
  190.9630  173.3180  141.1000 C   0  0  2  0  0  3  0  0  0  0  0  0
  190.3860  172.9310  139.7110 C   0  0  1  0  0  3  0  0  0  0  0  0
  185.7790  178.1540  141.7970 N   0  0  0  0  0  0  0  0  0  0  0  0
  187.3680  175.9060  141.5060 C   0  0  0  0  0  0  0  0  0  0  0  0
  185.9540  177.3230  142.8610 C   0  0  0  0  0  0  0  0  0  0  0  0
  186.7400  176.1770  142.7310 C   0  0  0  0  0  3  0  0  0  0  0  0
  187.1710  176.7720  140.4280 C   0  0  0  0  0  3  0  0  0  0  0  0
  186.3650  177.9010  140.5940 C   0  0  0  0  0  3  0  0  0  0  0  0
  185.3210  177.6440  144.1700 C   0  0  0  0  0  2  0  0  0  0  0  0
  185.7810  176.7200  145.1960 N   0  0  0  0  0  2  0  0  0  0  0  0
  187.4500  176.5910  146.9400 C   0  0  0  0  0  2  0  0  0  0  0  0
  186.1400  177.0100  147.5740 C   0  0  0  0  0  2  0  0  0  0  0  0
  186.5000  177.5010  146.1870 C   0  0  0  0  0  3  0  0  0  0  0  0
  189.8220  172.8050  144.5510 C   0  0  0  0  0  0  0  0  0  0  0  0
  189.2660  171.7190  144.4770 O   0  0  0  0  0  0  0  0  0  0  0  0
  189.6240  173.6530  145.7610 C   0  0  0  0  0  1  0  0  0  0  0  0
  190.8040  171.5430  139.2440 C   0  0  0  0  0  2  0  0  0  0  0  0
  189.6000  170.8230  138.6650 C   0  0  0  0  0  2  0  0  0  0  0  0
  190.0180  169.9800  137.4760 C   0  0  0  0  0  2  0  0  0  0  0  0
  190.7330  170.8690  136.4730 C   0  0  2  0  0  3  0  0  0  0  0  0
  189.9150  171.0550  135.3550 O   0  0  0  0  0  0  0  0  0  0  0  0
  189.4980  172.3850  135.4230 C   0  0  0  0  0  2  0  0  0  0  0  0
  189.9040  174.4170  136.1840 C   0  0  0  0  0  1  0  0  0  0  0  0
  190.4560  173.1390  136.0990 O   0  0  0  0  0  0  0  0  0  0  0  0
  191.9620  170.2740  136.0710 O   0  0  0  0  0  0  0  0  0  0  0  0
  195.1560  170.3590  137.9770 C   0  0  0  0  0  3  0  0  0  0  0  0
  195.4750  173.6950  136.2260 C   0  0  0  0  0  1  0  0  0  0  0  0
  194.9420  172.3770  136.6530 C   0  0  0  0  0  0  0  0  0  0  0  0
  193.9310  169.9080  137.4810 C   0  0  0  0  0  3  0  0  0  0  0  0
  193.7190  171.9240  136.1530 C   0  0  0  0  0  3  0  0  0  0  0  0
  195.6580  171.5970  137.5670 C   0  0  0  0  0  3  0  0  0  0  0  0
  193.2010  170.6910  136.5680 C   0  0  0  0  0  0  0  0  0  0  0  0
  193.3450  172.9970  141.4740 C   0  0  2  0  0  3  0  0  0  0  0  0
  194.0260  174.5840  139.7130 C   0  0  0  0  0  2  0  0  0  0  0  0
  193.7130  173.3370  140.0490 C   0  0  0  0  0  3  0  0  0  0  0  0
  194.3910  172.0490  142.0940 C   0  0  1  0  0  3  0  0  0  0  0  0
  194.5650  169.8340  142.2210 C   0  0  0  0  0  1  0  0  0  0  0  0
  194.5860  170.8990  141.3150 O   0  0  0  0  0  0  0  0  0  0  0  0
  195.7150  172.7500  142.3840 C   0  0  0  0  0  2  0  0  0  0  0  0
  195.9760  172.9230  143.8740 C   0  0  0  0  0  2  0  0  0  0  0  0
  194.8210  176.4380  143.5080 C   0  0  0  0  0  2  0  0  0  0  0  0
  195.4300  174.1900  144.3220 N   0  0  0  0  0  0  0  0  0  0  0  0
  194.5990  174.2150  145.4870 C   0  0  0  0  0  3  0  0  0  0  0  0
  192.7580  175.5840  144.3890 C   0  0  2  0  0  3  0  0  0  0  0  0
  192.7060  174.8410  146.8580 C   0  0  0  0  0  2  0  0  0  0  0  0
  191.2490  176.7180  146.0820 C   0  0  0  0  0  2  0  0  0  0  0  0
  195.9360  175.4190  143.7140 C   0  0  0  0  0  2  0  0  0  0  0  0
  192.0570  176.9030  144.7970 C   0  0  2  0  0  3  0  0  0  0  0  0
  192.1420  176.2130  147.2120 C   0  0  0  0  0  2  0  0  0  0  0  0
  193.4570  174.9120  145.5690 C   0  0  0  0  0  0  0  0  0  0  0  0
  193.5780  175.7480  143.1810 N   0  0  0  0  0  2  0  0  0  0  0  0
  189.7270  177.6760  144.2480 C   0  0  0  0  0  1  0  0  0  0  0  0
  191.6240  178.6330  143.1520 O   0  0  0  0  0  1  0  0  0  0  0  0
  191.1250  177.4520  143.7110 C   0  0  1  0  0  3  0  0  0  0  0  0
  1 12  1  6  0  0  0
  1  3  1  0  0  0  0
  2 22  1  1  0  0  0
  4  6  1  0  0  0  0
  5  1  1  0  0  0  0
  6  2  1  0  0  0  0
  7 10  1  0  0  0  0
  7  5  1  0  0  0  0
  8  3  1  1  0  0  0
  8  2  1  0  0  0  0
  9  4  1  1  0  0  0
  9  8  1  0  0  0  0
 10 25  1  1  0  0  0
 10  9  1  0  0  0  0
 11 13  1  0  0  0  0
 12 14  1  0  0  0  0
 13 17  1  0  0  0  0
 14 13  2  0  0  0  0
 15 16  1  0  0  0  0
 15 12  2  0  0  0  0
 16 11  2  0  0  0  0
 17 18  1  0  0  0  0
 18 21  1  0  0  0  0
 19 20  1  0  0  0  0
 21 19  1  0  0  0  0
 21 20  1  0  0  0  0
 22 24  1  0  0  0  0
 23 22  2  0  0  0  0
 26 25  1  0  0  0  0
 27 26  1  0  0  0  0
 28 27  1  1  0  0  0
 29 30  1  0  0  0  0
 29 28  1  0  0  0  0
 30 32  1  0  0  0  0
 32 31  1  0  0  0  0
 33 28  1  0  0  0  0
 33 40  1  0  0  0  0
 35 36  1  0  0  0  0
 36 39  2  0  0  0  0
 37 34  2  0  0  0  0
 38 40  2  0  0  0  0
 38 36  1  0  0  0  0
 39 34  1  0  0  0  0
 40 37  1  0  0  0  0
 41 43  1  6  0  0  0
 41  4  1  0  0  0  0
 41 44  1  0  0  0  0
 42 43  2  0  0  0  0
 44 47  1  6  0  0  0
 46 44  1  0  0  0  0
 46 45  1  0  0  0  0
 47 48  1  0  0  0  0
 48 50  1  0  0  0  0
 49 55  1  0  0  0  0
 50 51  1  0  0  0  0
 51 58  2  0  0  0  0
 52 59  1  6  0  0  0
 52 56  1  0  0  0  0
 52 58  1  0  0  0  0
 53 57  1  0  0  0  0
 54 57  1  0  0  0  0
 55 50  1  0  0  0  0
 56 62  1  6  0  0  0
 56 54  1  0  0  0  0
 58 53  1  0  0  0  0
 59 49  1  0  0  0  0
 61 62  1  0  0  0  0
 62 60  1  1  0  0  0
M  END
>  <MODEL>
1

>  <REMARK>
 VINA RESULT:      -6.0      0.000      0.000
  Name = 
  22 active torsions:
  status: ('A' for Active; 'I' for Inactive)
    1  A    between atoms: O_1  and  C_17
    2  A    between atoms: O_1  and  C_61
    3  A    between atoms: C_4  and  C_5
    4  A    between atoms: N_8  and  C_18
    5  A    between atoms: C_9  and  C_30
    6  A    between atoms: C_10  and  C_11
    7  A    between atoms: C_16  and  C_59
    8  A    between atoms: C_16  and  C_62
    9  A    between atoms: C_17  and  O_36
   10  A    between atoms: C_17  and  C_62
   11  A    between atoms: C_18  and  C_54
   12  A    between atoms: N_19  and  C_57
   13  A    between atoms: N_21  and  C_30
   14  A    between atoms: N_21  and  C_39
   15  A    between atoms: C_35  and  O_36
   16  A    between atoms: C_35  and  O_42
   17  A    between atoms: C_41  and  C_54
   18  A    between atoms: C_41  and  O_56
   19  A    between atoms: C_41  and  C_57
   20  A    between atoms: C_43  and  C_51
   21  A    between atoms: C_55  and  C_59
   22  A    between atoms: C_57  and  C_60
                            x       y       z     vdW  Elec       q    Type
                         _______ _______ _______ _____ _____    ______ ____

>  <TORSDO>
F 22

$$$$
=
 OpenBabel11042414193D

 62 68  0  0  1  0  0  0  0  0999 V2000
  192.3150  173.0000  144.3110 C   0  0  2  0  0  3  0  0  0  0  0  0
  191.9920  170.4860  141.8370 C   0  0  1  0  0  3  0  0  0  0  0  0
  192.6210  172.4630  143.0490 O   0  0  0  0  0  0  0  0  0  0  0  0
  189.9420  171.4060  140.9310 N   0  0  0  0  0  0  0  0  0  0  0  0
  191.1740  174.0300  144.2360 C   0  0  0  0  0  2  0  0  0  0  0  0
  190.7430  170.1780  141.0330 C   0  0  0  0  0  2  0  0  0  0  0  0
  189.8970  173.3400  144.0900 N   0  0  0  0  0  2  0  0  0  0  0  0
  191.5570  171.6090  142.7270 C   0  0  1  0  0  3  0  0  0  0  0  0
  190.5640  172.3550  141.8680 C   0  0  2  0  0  3  0  0  0  0  0  0
  189.5540  173.2200  142.6700 C   0  0  1  0  0  3  0  0  0  0  0  0
  195.7880  174.7050  146.1040 N   0  0  0  0  0  0  0  0  0  0  0  0
  193.5460  173.5850  144.9310 C   0  0  0  0  0  0  0  0  0  0  0  0
  195.8110  173.3910  145.7520 C   0  0  0  0  0  0  0  0  0  0  0  0
  194.6850  172.8030  145.1710 C   0  0  0  0  0  3  0  0  0  0  0  0
  193.5460  174.9310  145.3040 C   0  0  0  0  0  3  0  0  0  0  0  0
  194.6870  175.4780  145.8960 C   0  0  0  0  0  3  0  0  0  0  0  0
  197.0420  172.5810  145.9690 C   0  0  0  0  0  2  0  0  0  0  0  0
  196.8780  171.2490  145.4040 N   0  0  0  0  0  2  0  0  0  0  0  0
  197.7090  169.0900  146.1040 C   0  0  0  0  0  2  0  0  0  0  0  0
  196.1960  169.0310  146.0990 C   0  0  0  0  0  2  0  0  0  0  0  0
  196.9020  170.3070  146.5090 C   0  0  0  0  0  3  0  0  0  0  0  0
  192.4440  169.2960  142.6290 C   0  0  0  0  0  0  0  0  0  0  0  0
  191.8690  168.2220  142.5310 O   0  0  0  0  0  0  0  0  0  0  0  0
  193.6070  169.4280  143.5520 C   0  0  0  0  0  1  0  0  0  0  0  0
  188.1110  172.7500  142.5370 C   0  0  0  0  0  2  0  0  0  0  0  0
  187.2910  173.8300  141.8550 C   0  0  0  0  0  2  0  0  0  0  0  0
  187.7780  175.2010  142.2780 C   0  0  0  0  0  2  0  0  0  0  0  0
  186.5930  176.0100  142.7770 C   0  0  2  0  0  3  0  0  0  0  0  0
  186.4990  177.1950  142.0420 O   0  0  0  0  0  0  0  0  0  0  0  0
  185.3690  177.8460  142.5400 C   0  0  0  0  0  2  0  0  0  0  0  0
  185.5010  179.4850  144.0120 C   0  0  0  0  0  1  0  0  0  0  0  0
  185.6300  179.2100  142.6510 O   0  0  0  0  0  0  0  0  0  0  0  0
  186.7480  176.3170  144.1580 O   0  0  0  0  0  0  0  0  0  0  0  0
  189.5660  176.4060  146.5860 C   0  0  0  0  0  3  0  0  0  0  0  0
  191.1490  178.4600  143.8360 C   0  0  0  0  0  1  0  0  0  0  0  0
  190.1700  177.6370  144.5890 C   0  0  0  0  0  0  0  0  0  0  0  0
  188.3220  176.1110  146.0230 C   0  0  0  0  0  3  0  0  0  0  0  0
  188.9280  177.3380  144.0240 C   0  0  0  0  0  3  0  0  0  0  0  0
  190.4870  177.1740  145.8700 C   0  0  0  0  0  3  0  0  0  0  0  0
  187.9940  176.5790  144.7380 C   0  0  0  0  0  0  0  0  0  0  0  0
  190.0550  171.8750  139.5370 C   0  0  2  0  0  3  0  0  0  0  0  0
  188.5550  173.4750  138.4080 C   0  0  0  0  0  2  0  0  0  0  0  0
  188.7280  172.2640  138.9290 C   0  0  0  0  0  3  0  0  0  0  0  0
  190.7500  170.7980  138.6820 C   0  0  1  0  0  3  0  0  0  0  0  0
  190.5780  169.0800  137.2760 C   0  0  0  0  0  1  0  0  0  0  0  0
  189.8480  170.1320  137.8390 O   0  0  0  0  0  0  0  0  0  0  0  0
  191.9330  171.3520  137.8940 C   0  0  0  0  0  2  0  0  0  0  0  0
  192.0760  172.8630  138.0310 C   0  0  0  0  0  2  0  0  0  0  0  0
  194.9780  175.1000  138.6560 C   0  0  0  0  0  2  0  0  0  0  0  0
  193.4310  173.1920  138.4290 N   0  0  0  0  0  0  0  0  0  0  0  0
  194.1170  172.3250  139.3380 C   0  0  0  0  0  3  0  0  0  0  0  0
  194.8640  174.2050  140.8810 C   0  0  2  0  0  3  0  0  0  0  0  0
  195.5060  171.7310  141.2290 C   0  0  0  0  0  2  0  0  0  0  0  0
  196.8230  173.5380  142.3470 C   0  0  0  0  0  2  0  0  0  0  0  0
  194.1270  174.2570  137.7130 C   0  0  0  0  0  2  0  0  0  0  0  0
  196.2560  174.6150  141.4220 C   0  0  2  0  0  3  0  0  0  0  0  0
  196.9030  172.1960  141.6250 C   0  0  0  0  0  2  0  0  0  0  0  0
  194.8440  172.7620  140.3770 C   0  0  0  0  0  0  0  0  0  0  0  0
  194.3190  175.2040  139.9530 N   0  0  0  0  0  2  0  0  0  0  0  0
  197.3280  175.9960  143.2310 C   0  0  0  0  0  1  0  0  0  0  0  0
  196.3540  177.0360  141.3120 O   0  0  0  0  0  1  0  0  0  0  0  0
  196.2380  175.9470  142.1810 C   0  0  1  0  0  3  0  0  0  0  0  0
  1 12  1  6  0  0  0
  2 22  1  1  0  0  0
  2  8  1  0  0  0  0
  3  1  1  0  0  0  0
  4  6  1  0  0  0  0
  5  1  1  0  0  0  0
  6  2  1  0  0  0  0
  7  5  1  0  0  0  0
  8  3  1  6  0  0  0
  9  4  1  1  0  0  0
  9 10  1  0  0  0  0
  9  8  1  0  0  0  0
 10 25  1  1  0  0  0
 10  7  1  0  0  0  0
 12 14  2  0  0  0  0
 12 15  1  0  0  0  0
 13 17  1  0  0  0  0
 13 11  2  0  0  0  0
 14 13  1  0  0  0  0
 15 16  2  0  0  0  0
 16 11  1  0  0  0  0
 18 17  1  0  0  0  0
 18 21  1  0  0  0  0
 19 21  1  0  0  0  0
 20 19  1  0  0  0  0
 20 21  1  0  0  0  0
 22 24  1  0  0  0  0
 23 22  2  0  0  0  0
 26 27  1  0  0  0  0
 26 25  1  0  0  0  0
 28 27  1  6  0  0  0
 28 33  1  0  0  0  0
 29 30  1  0  0  0  0
 29 28  1  0  0  0  0
 30 32  1  0  0  0  0
 32 31  1  0  0  0  0
 33 40  1  0  0  0  0
 35 36  1  0  0  0  0
 36 39  1  0  0  0  0
 37 34  1  0  0  0  0
 38 36  2  0  0  0  0
 38 40  1  0  0  0  0
 39 34  2  0  0  0  0
 40 37  2  0  0  0  0
 41 43  1  6  0  0  0
 41  4  1  0  0  0  0
 42 43  2  0  0  0  0
 44 47  1  6  0  0  0
 44 41  1  0  0  0  0
 45 46  1  0  0  0  0
 46 44  1  0  0  0  0
 47 48  1  0  0  0  0
 48 50  1  0  0  0  0
 49 59  1  0  0  0  0
 50 51  1  0  0  0  0
 51 58  2  0  0  0  0
 52 59  1  6  0  0  0
 52 56  1  0  0  0  0
 53 57  1  0  0  0  0
 55 50  1  0  0  0  0
 55 49  1  0  0  0  0
 56 62  1  1  0  0  0
 56 54  1  0  0  0  0
 57 54  1  0  0  0  0
 58 52  1  0  0  0  0
 58 53  1  0  0  0  0
 61 62  1  0  0  0  0
 62 60  1  1  0  0  0
M  END
>  <MODEL>
2

>  <REMARK>
 VINA RESULT:      -5.7      2.371      8.005
  Name = 
  22 active torsions:
  status: ('A' for Active; 'I' for Inactive)
    1  A    between atoms: O_1  and  C_17
    2  A    between atoms: O_1  and  C_61
    3  A    between atoms: C_4  and  C_5
    4  A    between atoms: N_8  and  C_18
    5  A    between atoms: C_9  and  C_30
    6  A    between atoms: C_10  and  C_11
    7  A    between atoms: C_16  and  C_59
    8  A    between atoms: C_16  and  C_62
    9  A    between atoms: C_17  and  O_36
   10  A    between atoms: C_17  and  C_62
   11  A    between atoms: C_18  and  C_54
   12  A    between atoms: N_19  and  C_57
   13  A    between atoms: N_21  and  C_30
   14  A    between atoms: N_21  and  C_39
   15  A    between atoms: C_35  and  O_36
   16  A    between atoms: C_35  and  O_42
   17  A    between atoms: C_41  and  C_54
   18  A    between atoms: C_41  and  O_56
   19  A    between atoms: C_41  and  C_57
   20  A    between atoms: C_43  and  C_51
   21  A    between atoms: C_55  and  C_59
   22  A    between atoms: C_57  and  C_60
                            x       y       z     vdW  Elec       q    Type
                         _______ _______ _______ _____ _____    ______ ____

>  <TORSDO>
F 22

$$$$
=
 OpenBabel11042414193D

 62 68  0  0  1  0  0  0  0  0999 V2000
  192.3230  173.0940  143.7450 C   0  0  2  0  0  3  0  0  0  0  0  0
  191.7990  170.6440  141.2400 C   0  0  1  0  0  3  0  0  0  0  0  0
  192.6190  172.5220  142.4960 O   0  0  0  0  0  0  0  0  0  0  0  0
  189.9330  171.8240  140.2420 N   0  0  0  0  0  0  0  0  0  0  0  0
  191.3300  174.2630  143.6220 C   0  0  0  0  0  2  0  0  0  0  0  0
  190.5620  170.5020  140.3740 C   0  0  0  0  0  2  0  0  0  0  0  0
  189.9830  173.7450  143.4080 N   0  0  0  0  0  2  0  0  0  0  0  0
  191.4700  171.8140  142.1160 C   0  0  1  0  0  3  0  0  0  0  0  0
  190.6260  172.6840  141.2150 C   0  0  2  0  0  3  0  0  0  0  0  0
  189.6980  173.6720  141.9720 C   0  0  1  0  0  3  0  0  0  0  0  0
  195.8940  174.3250  145.7240 N   0  0  0  0  0  0  0  0  0  0  0  0
  193.5870  173.5130  144.4290 C   0  0  0  0  0  0  0  0  0  0  0  0
  195.8250  173.0620  145.2220 C   0  0  0  0  0  0  0  0  0  0  0  0
  194.6660  172.6280  144.5770 C   0  0  0  0  0  3  0  0  0  0  0  0
  193.6800  174.8030  144.9550 C   0  0  0  0  0  3  0  0  0  0  0  0
  194.8520  175.1950  145.6070 C   0  0  0  0  0  3  0  0  0  0  0  0
  196.9930  172.1460  145.3440 C   0  0  0  0  0  2  0  0  0  0  0  0
  196.8550  171.3020  146.5220 N   0  0  0  0  0  2  0  0  0  0  0  0
  195.5290  169.3240  146.1180 C   0  0  0  0  0  2  0  0  0  0  0  0
  196.5260  169.0040  147.2120 C   0  0  0  0  0  2  0  0  0  0  0  0
  196.9200  169.9230  146.0740 C   0  0  0  0  0  3  0  0  0  0  0  0
  192.0520  169.4050  142.0450 C   0  0  0  0  0  0  0  0  0  0  0  0
  192.9540  169.3660  142.8690 O   0  0  0  0  0  0  0  0  0  0  0  0
  191.1970  168.2030  141.8310 C   0  0  0  0  0  1  0  0  0  0  0  0
  188.2150  173.3940  141.7660 C   0  0  0  0  0  2  0  0  0  0  0  0
  187.4060  174.5750  142.2700 C   0  0  0  0  0  2  0  0  0  0  0  0
  187.7880  175.8310  141.5130 C   0  0  0  0  0  2  0  0  0  0  0  0
  187.0080  177.0030  142.0830 C   0  0  2  0  0  3  0  0  0  0  0  0
  186.8590  177.9820  141.0960 O   0  0  0  0  0  0  0  0  0  0  0  0
  185.5940  178.5320  141.3130 C   0  0  0  0  0  2  0  0  0  0  0  0
  183.5950  178.2170  142.1940 C   0  0  0  0  0  1  0  0  0  0  0  0
  184.7180  177.5320  141.7310 O   0  0  0  0  0  0  0  0  0  0  0  0
  187.6890  177.5560  143.2040 O   0  0  0  0  0  0  0  0  0  0  0  0
  187.6180  176.3440  146.7200 C   0  0  0  0  0  3  0  0  0  0  0  0
  184.3110  178.1740  146.7070 C   0  0  0  0  0  1  0  0  0  0  0  0
  185.6160  177.6270  146.2590 C   0  0  0  0  0  0  0  0  0  0  0  0
  188.0600  176.5720  145.4160 C   0  0  0  0  0  3  0  0  0  0  0  0
  186.0600  177.8600  144.9560 C   0  0  0  0  0  3  0  0  0  0  0  0
  186.3930  176.8670  147.1400 C   0  0  0  0  0  3  0  0  0  0  0  0
  187.2810  177.3290  144.5220 C   0  0  0  0  0  0  0  0  0  0  0  0
  190.1750  172.2760  138.8580 C   0  0  2  0  0  3  0  0  0  0  0  0
  188.6910  174.1570  138.2740 C   0  0  0  0  0  2  0  0  0  0  0  0
  188.9470  172.8550  138.1970 C   0  0  0  0  0  3  0  0  0  0  0  0
  190.7430  171.1110  138.0250 C   0  0  1  0  0  3  0  0  0  0  0  0
  190.3430  170.7710  135.8620 C   0  0  0  0  0  1  0  0  0  0  0  0
  189.7930  170.5880  137.1350 O   0  0  0  0  0  0  0  0  0  0  0  0
  192.0300  171.4880  137.2970 C   0  0  0  0  0  2  0  0  0  0  0  0
  193.2310  170.6750  137.7630 C   0  0  0  0  0  2  0  0  0  0  0  0
  195.1440  173.8620  137.7480 C   0  0  0  0  0  2  0  0  0  0  0  0
  194.3180  171.5670  138.1170 N   0  0  0  0  0  0  0  0  0  0  0  0
  195.0400  171.3340  139.3310 C   0  0  0  0  0  3  0  0  0  0  0  0
  194.8690  173.7430  140.1300 C   0  0  2  0  0  3  0  0  0  0  0  0
  196.1430  171.9000  141.4090 C   0  0  0  0  0  2  0  0  0  0  0  0
  196.6090  174.3090  141.8860 C   0  0  0  0  0  2  0  0  0  0  0  0
  194.7890  172.5210  137.1160 C   0  0  0  0  0  2  0  0  0  0  0  0
  195.9390  174.7650  140.5900 C   0  0  2  0  0  3  0  0  0  0  0  0
  197.2300  172.9260  141.7140 C   0  0  0  0  0  2  0  0  0  0  0  0
  195.3830  172.3050  140.1890 C   0  0  0  0  0  0  0  0  0  0  0  0
  194.2420  174.1360  138.8610 N   0  0  0  0  0  2  0  0  0  0  0  0
  194.0990  176.1350  141.6230 C   0  0  0  0  0  1  0  0  0  0  0  0
  196.3100  177.0190  141.4060 O   0  0  0  0  0  1  0  0  0  0  0  0
  195.3720  176.1730  140.8040 C   0  0  1  0  0  3  0  0  0  0  0  0
  1 12  1  6  0  0  0
  2 22  1  1  0  0  0
  2  8  1  0  0  0  0
  3  1  1  0  0  0  0
  4  6  1  0  0  0  0
  5  1  1  0  0  0  0
  6  2  1  0  0  0  0
  7  5  1  0  0  0  0
  8  3  1  6  0  0  0
  9  4  1  1  0  0  0
  9 10  1  0  0  0  0
  9  8  1  0  0  0  0
 10 25  1  1  0  0  0
 10  7  1  0  0  0  0
 12 14  2  0  0  0  0
 12 15  1  0  0  0  0
 13 17  1  0  0  0  0
 13 11  2  0  0  0  0
 14 13  1  0  0  0  0
 15 16  2  0  0  0  0
 16 11  1  0  0  0  0
 17 18  1  0  0  0  0
 19 20  1  0  0  0  0
 21 19  1  0  0  0  0
 21 18  1  0  0  0  0
 21 20  1  0  0  0  0
 22 23  2  0  0  0  0
 24 22  1  0  0  0  0
 25 26  1  0  0  0  0
 27 26  1  0  0  0  0
 28 27  1  6  0  0  0
 28 33  1  0  0  0  0
 29 30  1  0  0  0  0
 29 28  1  0  0  0  0
 30 32  1  0  0  0  0
 32 31  1  0  0  0  0
 33 40  1  0  0  0  0
 34 39  1  0  0  0  0
 36 35  1  0  0  0  0
 36 39  2  0  0  0  0
 37 34  2  0  0  0  0
 38 36  1  0  0  0  0
 40 38  2  0  0  0  0
 40 37  1  0  0  0  0
 41 43  1  6  0  0  0
 41  4  1  0  0  0  0
 43 42  2  0  0  0  0
 44 47  1  6  0  0  0
 44 41  1  0  0  0  0
 45 46  1  0  0  0  0
 46 44  1  0  0  0  0
 47 48  1  0  0  0  0
 48 50  1  0  0  0  0
 49 59  1  0  0  0  0
 50 51  1  0  0  0  0
 51 58  2  0  0  0  0
 52 59  1  6  0  0  0
 52 58  1  0  0  0  0
 52 56  1  0  0  0  0
 53 57  1  0  0  0  0
 55 49  1  0  0  0  0
 55 50  1  0  0  0  0
 56 62  1  1  0  0  0
 56 54  1  0  0  0  0
 57 54  1  0  0  0  0
 58 53  1  0  0  0  0
 62 61  1  0  0  0  0
 62 60  1  1  0  0  0
M  END
>  <MODEL>
3

>  <REMARK>
 VINA RESULT:      -5.6      2.362      8.388
  Name = 
  22 active torsions:
  status: ('A' for Active; 'I' for Inactive)
    1  A    between atoms: O_1  and  C_17
    2  A    between atoms: O_1  and  C_61
    3  A    between atoms: C_4  and  C_5
    4  A    between atoms: N_8  and  C_18
    5  A    between atoms: C_9  and  C_30
    6  A    between atoms: C_10  and  C_11
    7  A    between atoms: C_16  and  C_59
    8  A    between atoms: C_16  and  C_62
    9  A    between atoms: C_17  and  O_36
   10  A    between atoms: C_17  and  C_62
   11  A    between atoms: C_18  and  C_54
   12  A    between atoms: N_19  and  C_57
   13  A    between atoms: N_21  and  C_30
   14  A    between atoms: N_21  and  C_39
   15  A    between atoms: C_35  and  O_36
   16  A    between atoms: C_35  and  O_42
   17  A    between atoms: C_41  and  C_54
   18  A    between atoms: C_41  and  O_56
   19  A    between atoms: C_41  and  C_57
   20  A    between atoms: C_43  and  C_51
   21  A    between atoms: C_55  and  C_59
   22  A    between atoms: C_57  and  C_60
                            x       y       z     vdW  Elec       q    Type
                         _______ _______ _______ _____ _____    ______ ____

>  <TORSDO>
F 22

$$$$
=
 OpenBabel11042414193D

 62 68  0  0  1  0  0  0  0  0999 V2000
  187.5530  176.7920  141.4710 C   0  0  2  0  0  3  0  0  0  0  0  0
  188.4300  173.8810  139.6500 C   0  0  1  0  0  3  0  0  0  0  0  0
  187.3890  175.4290  141.1650 O   0  0  0  0  0  0  0  0  0  0  0  0
  190.2710  173.3150  141.1200 N   0  0  0  0  0  0  0  0  0  0  0  0
  188.4650  177.0010  142.6930 C   0  0  0  0  0  2  0  0  0  0  0  0
  189.7320  173.1130  139.7680 C   0  0  0  0  0  2  0  0  0  0  0  0
  189.8580  176.7980  142.3100 N   0  0  0  0  0  2  0  0  0  0  0  0
  188.6100  175.0080  140.6220 C   0  0  1  0  0  3  0  0  0  0  0  0
  189.4510  174.3840  141.7100 C   0  0  2  0  0  3  0  0  0  0  0  0
  190.2480  175.4080  142.5630 C   0  0  1  0  0  3  0  0  0  0  0  0
  183.7280  178.6090  141.9650 N   0  0  0  0  0  0  0  0  0  0  0  0
  186.2170  177.4380  141.6620 C   0  0  0  0  0  0  0  0  0  0  0  0
  184.4650  178.3240  143.0720 C   0  0  0  0  0  0  0  0  0  0  0  0
  185.7180  177.7210  142.9410 C   0  0  0  0  0  3  0  0  0  0  0  0
  185.4400  177.7370  140.5410 C   0  0  0  0  0  3  0  0  0  0  0  0
  184.1850  178.3270  140.7130 C   0  0  0  0  0  3  0  0  0  0  0  0
  183.9470  178.6710  144.4240 C   0  0  0  0  0  2  0  0  0  0  0  0
  184.6450  177.9060  145.4470 N   0  0  0  0  0  2  0  0  0  0  0  0
  186.5840  178.0740  146.8790 C   0  0  0  0  0  2  0  0  0  0  0  0
  185.3760  178.5240  147.6720 C   0  0  0  0  0  2  0  0  0  0  0  0
  185.4710  178.8380  146.1930 C   0  0  0  0  0  3  0  0  0  0  0  0
  188.2110  174.3840  138.2550 C   0  0  0  0  0  0  0  0  0  0  0  0
  187.3640  175.2330  138.0200 O   0  0  0  0  0  0  0  0  0  0  0  0
  189.0330  173.8340  137.1400 C   0  0  0  0  0  1  0  0  0  0  0  0
  191.7580  175.2740  142.4190 C   0  0  0  0  0  2  0  0  0  0  0  0
  192.4090  176.6220  142.6710 C   0  0  0  0  0  2  0  0  0  0  0  0
  192.6630  176.8110  144.1530 C   0  0  0  0  0  2  0  0  0  0  0  0
  193.2930  175.5440  144.7070 C   0  0  2  0  0  3  0  0  0  0  0  0
  192.9800  175.4280  146.0640 O   0  0  0  0  0  0  0  0  0  0  0  0
  191.7010  174.8690  146.0990 C   0  0  0  0  0  2  0  0  0  0  0  0
  191.1920  175.6570  148.0960 C   0  0  0  0  0  1  0  0  0  0  0  0
  190.8310  175.7390  146.7520 O   0  0  0  0  0  0  0  0  0  0  0  0
  194.7070  175.5810  144.5460 O   0  0  0  0  0  0  0  0  0  0  0  0
  196.5430  174.6180  141.4570 C   0  0  0  0  0  3  0  0  0  0  0  0
  196.2960  171.1920  143.0360 C   0  0  0  0  0  1  0  0  0  0  0  0
  196.1640  172.6550  142.8260 C   0  0  0  0  0  0  0  0  0  0  0  0
  195.8970  175.4050  142.4130 C   0  0  0  0  0  3  0  0  0  0  0  0
  195.5220  173.4430  143.7840 C   0  0  0  0  0  3  0  0  0  0  0  0
  196.6710  173.2420  141.6620 C   0  0  0  0  0  3  0  0  0  0  0  0
  195.3770  174.8210  143.5820 C   0  0  0  0  0  0  0  0  0  0  0  0
  190.0950  172.0420  141.8440 C   0  0  2  0  0  3  0  0  0  0  0  0
  190.6010  171.9000  144.2540 C   0  0  0  0  0  2  0  0  0  0  0  0
  189.7360  172.2280  143.3000 C   0  0  0  0  0  3  0  0  0  0  0  0
  191.3690  171.1850  141.7040 C   0  0  1  0  0  3  0  0  0  0  0  0
  190.8310  169.0270  141.7800 C   0  0  0  0  0  1  0  0  0  0  0  0
  191.1590  170.0590  140.8950 O   0  0  0  0  0  0  0  0  0  0  0  0
  192.5660  171.9960  141.2190 C   0  0  0  0  0  2  0  0  0  0  0  0
  193.5720  171.1560  140.4420 C   0  0  0  0  0  2  0  0  0  0  0  0
  192.4210  172.5300  137.1860 C   0  0  0  0  0  2  0  0  0  0  0  0
  193.7270  171.6910  139.1030 N   0  0  0  0  0  0  0  0  0  0  0  0
  194.9540  172.3380  138.7520 C   0  0  0  0  0  3  0  0  0  0  0  0
  193.8230  174.3910  137.7650 C   0  0  2  0  0  3  0  0  0  0  0  0
  196.3770  174.0320  137.7720 C   0  0  0  0  0  2  0  0  0  0  0  0
  195.3460  175.6840  136.2030 C   0  0  0  0  0  2  0  0  0  0  0  0
  192.7260  171.3470  138.0960 C   0  0  0  0  0  2  0  0  0  0  0  0
  193.9500  175.0890  136.3880 C   0  0  2  0  0  3  0  0  0  0  0  0
  196.4160  174.6060  136.3590 C   0  0  0  0  0  2  0  0  0  0  0  0
  195.0180  173.4890  138.0680 C   0  0  0  0  0  0  0  0  0  0  0  0
  192.5040  173.7720  137.9470 N   0  0  0  0  0  2  0  0  0  0  0  0
  193.5260  177.3930  135.4710 C   0  0  0  0  0  1  0  0  0  0  0  0
  191.8000  175.7390  135.4730 O   0  0  0  0  0  1  0  0  0  0  0  0
  192.9160  176.2010  136.1780 C   0  0  1  0  0  3  0  0  0  0  0  0
  1 12  1  1  0  0  0
  1  5  1  0  0  0  0
  2 22  1  6  0  0  0
  2  6  1  0  0  0  0
  2  8  1  0  0  0  0
  3  1  1  0  0  0  0
  4 41  1  0  0  0  0
  6  4  1  0  0  0  0
  7 10  1  0  0  0  0
  7  5  1  0  0  0  0
  8  3  1  1  0  0  0
  8  9  1  0  0  0  0
  9  4  1  6  0  0  0
  9 10  1  0  0  0  0
 10 25  1  6  0  0  0
 11 13  1  0  0  0  0
 12 14  1  0  0  0  0
 13 17  1  0  0  0  0
 14 13  2  0  0  0  0
 15 16  1  0  0  0  0
 15 12  2  0  0  0  0
 16 11  2  0  0  0  0
 17 18  1  0  0  0  0
 18 21  1  0  0  0  0
 19 20  1  0  0  0  0
 21 19  1  0  0  0  0
 21 20  1  0  0  0  0
 23 22  2  0  0  0  0
 24 22  1  0  0  0  0
 25 26  1  0  0  0  0
 26 27  1  0  0  0  0
 28 27  1  1  0  0  0
 28 29  1  0  0  0  0
 29 30  1  0  0  0  0
 30 32  1  0  0  0  0
 32 31  1  0  0  0  0
 33 28  1  0  0  0  0
 34 39  2  0  0  0  0
 34 37  1  0  0  0  0
 36 35  1  0  0  0  0
 36 38  2  0  0  0  0
 37 40  2  0  0  0  0
 39 36  1  0  0  0  0
 40 38  1  0  0  0  0
 40 33  1  0  0  0  0
 41 43  1  1  0  0  0
 43 42  2  0  0  0  0
 44 47  1  6  0  0  0
 44 41  1  0  0  0  0
 46 44  1  0  0  0  0
 46 45  1  0  0  0  0
 48 47  1  0  0  0  0
 49 59  1  0  0  0  0
 49 55  1  0  0  0  0
 50 48  1  0  0  0  0
 51 50  1  0  0  0  0
 52 59  1  6  0  0  0
 52 58  1  0  0  0  0
 53 58  1  0  0  0  0
 54 57  1  0  0  0  0
 54 56  1  0  0  0  0
 55 50  1  0  0  0  0
 56 62  1  1  0  0  0
 56 52  1  0  0  0  0
 57 53  1  0  0  0  0
 58 51  2  0  0  0  0
 61 62  1  0  0  0  0
 62 60  1  6  0  0  0
M  END
>  <MODEL>
4

>  <REMARK>
 VINA RESULT:      -5.6      2.254      6.630
  Name = 
  22 active torsions:
  status: ('A' for Active; 'I' for Inactive)
    1  A    between atoms: O_1  and  C_17
    2  A    between atoms: O_1  and  C_61
    3  A    between atoms: C_4  and  C_5
    4  A    between atoms: N_8  and  C_18
    5  A    between atoms: C_9  and  C_30
    6  A    between atoms: C_10  and  C_11
    7  A    between atoms: C_16  and  C_59
    8  A    between atoms: C_16  and  C_62
    9  A    between atoms: C_17  and  O_36
   10  A    between atoms: C_17  and  C_62
   11  A    between atoms: C_18  and  C_54
   12  A    between atoms: N_19  and  C_57
   13  A    between atoms: N_21  and  C_30
   14  A    between atoms: N_21  and  C_39
   15  A    between atoms: C_35  and  O_36
   16  A    between atoms: C_35  and  O_42
   17  A    between atoms: C_41  and  C_54
   18  A    between atoms: C_41  and  O_56
   19  A    between atoms: C_41  and  C_57
   20  A    between atoms: C_43  and  C_51
   21  A    between atoms: C_55  and  C_59
   22  A    between atoms: C_57  and  C_60
                            x       y       z     vdW  Elec       q    Type
                         _______ _______ _______ _____ _____    ______ ____

>  <TORSDO>
F 22

$$$$
=
 OpenBabel11042414193D

 62 68  0  0  1  0  0  0  0  0999 V2000
  187.8240  176.5450  141.2980 C   0  0  2  0  0  3  0  0  0  0  0  0
  188.6950  173.5950  139.5400 C   0  0  1  0  0  3  0  0  0  0  0  0
  187.6140  175.1940  140.9720 O   0  0  0  0  0  0  0  0  0  0  0  0
  190.3730  172.9290  141.1550 N   0  0  0  0  0  0  0  0  0  0  0  0
  188.6400  176.7040  142.5930 C   0  0  0  0  0  2  0  0  0  0  0  0
  189.9400  172.7580  139.7610 C   0  0  0  0  0  2  0  0  0  0  0  0
  190.0470  176.4270  142.3260 N   0  0  0  0  0  2  0  0  0  0  0  0
  188.8520  174.7090  140.5300 C   0  0  1  0  0  3  0  0  0  0  0  0
  189.5640  174.0400  141.6810 C   0  0  2  0  0  3  0  0  0  0  0  0
  190.3410  175.0190  142.6030 C   0  0  1  0  0  3  0  0  0  0  0  0
  184.0720  178.5640  141.4810 N   0  0  0  0  0  0  0  0  0  0  0  0
  186.5130  177.2620  141.3800 C   0  0  0  0  0  0  0  0  0  0  0  0
  184.6930  178.2280  142.6450 C   0  0  0  0  0  0  0  0  0  0  0  0
  185.9180  177.5580  142.6150 C   0  0  0  0  0  3  0  0  0  0  0  0
  185.8550  177.6140  140.2000 C   0  0  0  0  0  3  0  0  0  0  0  0
  184.6230  178.2700  140.2710 C   0  0  0  0  0  3  0  0  0  0  0  0
  184.0760  178.5880  143.9510 C   0  0  0  0  0  2  0  0  0  0  0  0
  185.0700  178.5350  145.0140 N   0  0  0  0  0  2  0  0  0  0  0  0
  185.1480  178.4110  147.4260 C   0  0  0  0  0  2  0  0  0  0  0  0
  185.3950  177.0210  146.8770 C   0  0  0  0  0  2  0  0  0  0  0  0
  184.4260  177.9500  146.1760 C   0  0  0  0  0  3  0  0  0  0  0  0
  188.6200  174.1100  138.1350 C   0  0  0  0  0  0  0  0  0  0  0  0
  187.6680  174.7810  137.7620 O   0  0  0  0  0  0  0  0  0  0  0  0
  189.7190  173.7950  137.1780 C   0  0  0  0  0  1  0  0  0  0  0  0
  191.8490  174.8040  142.5860 C   0  0  0  0  0  2  0  0  0  0  0  0
  192.5480  176.1510  142.5710 C   0  0  0  0  0  2  0  0  0  0  0  0
  192.3260  176.8690  143.8870 C   0  0  0  0  0  2  0  0  0  0  0  0
  193.4660  176.5260  144.8310 C   0  0  2  0  0  3  0  0  0  0  0  0
  194.3950  175.7250  144.1600 O   0  0  0  0  0  0  0  0  0  0  0  0
  195.4620  175.5800  145.0480 C   0  0  0  0  0  2  0  0  0  0  0  0
  196.4610  173.7760  144.2610 C   0  0  0  0  0  1  0  0  0  0  0  0
  196.5940  175.1610  144.3520 O   0  0  0  0  0  0  0  0  0  0  0  0
  192.9750  175.8310  145.9720 O   0  0  0  0  0  0  0  0  0  0  0  0
  189.5360  174.4910  146.4350 C   0  0  0  0  0  3  0  0  0  0  0  0
  188.8660  178.0730  147.4370 C   0  0  0  0  0  1  0  0  0  0  0  0
  189.5760  176.8470  146.9970 C   0  0  0  0  0  0  0  0  0  0  0  0
  190.9010  174.5410  146.1440 C   0  0  0  0  0  3  0  0  0  0  0  0
  190.9420  176.8960  146.7110 C   0  0  0  0  0  3  0  0  0  0  0  0
  188.8730  175.6460  146.8560 C   0  0  0  0  0  3  0  0  0  0  0  0
  191.6130  175.7460  146.2760 C   0  0  0  0  0  0  0  0  0  0  0  0
  190.0700  171.6660  141.8550 C   0  0  2  0  0  3  0  0  0  0  0  0
  190.4420  171.6420  144.2930 C   0  0  0  0  0  2  0  0  0  0  0  0
  189.6120  171.8690  143.2800 C   0  0  0  0  0  3  0  0  0  0  0  0
  191.3010  170.7380  141.8060 C   0  0  1  0  0  3  0  0  0  0  0  0
  190.7910  168.5730  141.7300 C   0  0  0  0  0  1  0  0  0  0  0  0
  191.1160  169.6660  140.9200 O   0  0  0  0  0  0  0  0  0  0  0  0
  192.5890  171.4940  141.4950 C   0  0  0  0  0  2  0  0  0  0  0  0
  193.7870  170.5690  141.3220 C   0  0  0  0  0  2  0  0  0  0  0  0
  194.8140  171.5760  137.8940 C   0  0  0  0  0  2  0  0  0  0  0  0
  194.6790  171.1070  140.3120 N   0  0  0  0  0  0  0  0  0  0  0  0
  195.7010  172.0270  140.7080 C   0  0  0  0  0  3  0  0  0  0  0  0
  195.1480  173.7300  138.9010 C   0  0  2  0  0  3  0  0  0  0  0  0
  197.0940  174.0000  140.5720 C   0  0  0  0  0  2  0  0  0  0  0  0
  197.0630  175.3300  138.4550 C   0  0  0  0  0  2  0  0  0  0  0  0
  194.6540  170.5150  138.9760 C   0  0  0  0  0  2  0  0  0  0  0  0
  196.0160  174.4170  137.8180 C   0  0  2  0  0  3  0  0  0  0  0  0
  197.9410  174.5460  139.4270 C   0  0  0  0  0  2  0  0  0  0  0  0
  195.9920  173.1490  140.0340 C   0  0  0  0  0  0  0  0  0  0  0  0
  194.1620  172.8110  138.3150 N   0  0  0  0  0  2  0  0  0  0  0  0
  195.0060  174.4990  135.5150 C   0  0  0  0  0  1  0  0  0  0  0  0
  193.9520  175.6040  137.3540 O   0  0  0  0  0  1  0  0  0  0  0  0
  195.1930  175.2420  136.8210 C   0  0  1  0  0  3  0  0  0  0  0  0
  1 12  1  1  0  0  0
  1  5  1  0  0  0  0
  2 22  1  6  0  0  0
  2  6  1  0  0  0  0
  2  8  1  0  0  0  0
  3  1  1  0  0  0  0
  4 41  1  0  0  0  0
  6  4  1  0  0  0  0
  7  5  1  0  0  0  0
  7 10  1  0  0  0  0
  8  3  1  1  0  0  0
  8  9  1  0  0  0  0
  9  4  1  6  0  0  0
  9 10  1  0  0  0  0
 10 25  1  6  0  0  0
 11 13  1  0  0  0  0
 12 14  1  0  0  0  0
 13 17  1  0  0  0  0
 14 13  2  0  0  0  0
 15 16  1  0  0  0  0
 15 12  2  0  0  0  0
 16 11  2  0  0  0  0
 17 18  1  0  0  0  0
 18 21  1  0  0  0  0
 20 19  1  0  0  0  0
 21 20  1  0  0  0  0
 21 19  1  0  0  0  0
 23 22  2  0  0  0  0
 24 22  1  0  0  0  0
 26 25  1  0  0  0  0
 26 27  1  0  0  0  0
 28 27  1  6  0  0  0
 28 33  1  0  0  0  0
 29 28  1  0  0  0  0
 29 30  1  0  0  0  0
 31 32  1  0  0  0  0
 32 30  1  0  0  0  0
 33 40  1  0  0  0  0
 34 39  1  0  0  0  0
 36 35  1  0  0  0  0
 37 40  1  0  0  0  0
 37 34  2  0  0  0  0
 38 36  1  0  0  0  0
 39 36  2  0  0  0  0
 40 38  2  0  0  0  0
 41 43  1  1  0  0  0
 43 42  2  0  0  0  0
 44 47  1  6  0  0  0
 44 41  1  0  0  0  0
 46 45  1  0  0  0  0
 46 44  1  0  0  0  0
 48 47  1  0  0  0  0
 49 59  1  0  0  0  0
 49 55  1  0  0  0  0
 50 51  1  0  0  0  0
 50 48  1  0  0  0  0
 52 59  1  6  0  0  0
 52 58  1  0  0  0  0
 54 57  1  0  0  0  0
 55 50  1  0  0  0  0
 56 62  1  6  0  0  0
 56 54  1  0  0  0  0
 56 52  1  0  0  0  0
 57 53  1  0  0  0  0
 58 53  1  0  0  0  0
 58 51  2  0  0  0  0
 62 60  1  6  0  0  0
 62 61  1  0  0  0  0
M  END
>  <MODEL>
5

>  <REMARK>
 VINA RESULT:      -5.3      2.252      7.137
  Name = 
  22 active torsions:
  status: ('A' for Active; 'I' for Inactive)
    1  A    between atoms: O_1  and  C_17
    2  A    between atoms: O_1  and  C_61
    3  A    between atoms: C_4  and  C_5
    4  A    between atoms: N_8  and  C_18
    5  A    between atoms: C_9  and  C_30
    6  A    between atoms: C_10  and  C_11
    7  A    between atoms: C_16  and  C_59
    8  A    between atoms: C_16  and  C_62
    9  A    between atoms: C_17  and  O_36
   10  A    between atoms: C_17  and  C_62
   11  A    between atoms: C_18  and  C_54
   12  A    between atoms: N_19  and  C_57
   13  A    between atoms: N_21  and  C_30
   14  A    between atoms: N_21  and  C_39
   15  A    between atoms: C_35  and  O_36
   16  A    between atoms: C_35  and  O_42
   17  A    between atoms: C_41  and  C_54
   18  A    between atoms: C_41  and  O_56
   19  A    between atoms: C_41  and  C_57
   20  A    between atoms: C_43  and  C_51
   21  A    between atoms: C_55  and  C_59
   22  A    between atoms: C_57  and  C_60
                            x       y       z     vdW  Elec       q    Type
                         _______ _______ _______ _____ _____    ______ ____

>  <TORSDO>
F 22

$$$$
=
 OpenBabel11042414193D

 62 68  0  0  1  0  0  0  0  0999 V2000
  191.2970  172.7180  139.6880 C   0  0  2  0  0  3  0  0  0  0  0  0
  193.8170  174.6070  141.3110 C   0  0  1  0  0  3  0  0  0  0  0  0
  192.3560  172.8350  140.6060 O   0  0  0  0  0  0  0  0  0  0  0  0
  192.3010  175.5190  142.9660 N   0  0  0  0  0  0  0  0  0  0  0  0
  189.9270  172.8860  140.3680 C   0  0  0  0  0  2  0  0  0  0  0  0
  193.5900  175.7370  142.2970 C   0  0  0  0  0  2  0  0  0  0  0  0
  189.6840  174.2970  140.6470 N   0  0  0  0  0  2  0  0  0  0  0  0
  192.4250  174.1940  140.9410 C   0  0  1  0  0  3  0  0  0  0  0  0
  191.6510  174.4320  142.2160 C   0  0  2  0  0  3  0  0  0  0  0  0
  190.1240  174.6190  142.0070 C   0  0  1  0  0  3  0  0  0  0  0  0
  191.5200  169.0140  137.5880 N   0  0  0  0  0  0  0  0  0  0  0  0
  191.3950  171.4160  138.9570 C   0  0  0  0  0  0  0  0  0  0  0  0
  192.6550  169.7470  137.7450 C   0  0  0  0  0  0  0  0  0  0  0  0
  192.6110  170.9680  138.4200 C   0  0  0  0  0  3  0  0  0  0  0  0
  190.2430  170.6470  138.7800 C   0  0  0  0  0  3  0  0  0  0  0  0
  190.3250  169.4370  138.0860 C   0  0  0  0  0  3  0  0  0  0  0  0
  193.9510  169.2410  137.2120 C   0  0  0  0  0  2  0  0  0  0  0  0
  194.6300  170.2840  136.4550 N   0  0  0  0  0  2  0  0  0  0  0  0
  196.5380  171.2690  137.5640 C   0  0  0  0  0  2  0  0  0  0  0  0
  196.7980  171.2930  136.0720 C   0  0  0  0  0  2  0  0  0  0  0  0
  196.0540  170.1280  136.6920 C   0  0  0  0  0  3  0  0  0  0  0  0
  194.5930  175.0680  140.1150 C   0  0  0  0  0  0  0  0  0  0  0  0
  195.7310  175.4990  140.2330 O   0  0  0  0  0  0  0  0  0  0  0  0
  193.9660  175.0040  138.7630 C   0  0  0  0  0  1  0  0  0  0  0  0
  189.6250  176.0090  142.3830 C   0  0  0  0  0  2  0  0  0  0  0  0
  188.3400  176.3020  141.6300 C   0  0  0  0  0  2  0  0  0  0  0  0
  187.1410  175.9240  142.4750 C   0  0  0  0  0  2  0  0  0  0  0  0
  186.1530  177.0790  142.4670 C   0  0  2  0  0  3  0  0  0  0  0  0
  186.0240  177.5670  141.1640 O   0  0  0  0  0  0  0  0  0  0  0  0
  184.8360  178.3000  141.1640 C   0  0  0  0  0  2  0  0  0  0  0  0
  182.7230  178.2250  140.5320 C   0  0  0  0  0  1  0  0  0  0  0  0
  184.0050  177.8400  140.1440 O   0  0  0  0  0  0  0  0  0  0  0  0
  186.6020  178.1230  143.3250 O   0  0  0  0  0  0  0  0  0  0  0  0
  185.7720  178.8710  146.8730 C   0  0  0  0  0  3  0  0  0  0  0  0
  187.9370  175.8260  147.4480 C   0  0  0  0  0  1  0  0  0  0  0  0
  187.1910  176.9100  146.7630 C   0  0  0  0  0  0  0  0  0  0  0  0
  185.8050  178.9680  145.4800 C   0  0  0  0  0  3  0  0  0  0  0  0
  187.2200  177.0050  145.3690 C   0  0  0  0  0  3  0  0  0  0  0  0
  186.4700  177.8440  147.5140 C   0  0  0  0  0  3  0  0  0  0  0  0
  186.5340  178.0370  144.7190 C   0  0  0  0  0  0  0  0  0  0  0  0
  192.6020  175.1090  144.3510 C   0  0  2  0  0  3  0  0  0  0  0  0
  190.9560  176.5390  145.5050 C   0  0  0  0  0  2  0  0  0  0  0  0
  191.4460  175.3200  145.3010 C   0  0  0  0  0  3  0  0  0  0  0  0
  193.8570  175.8510  144.8500 C   0  0  1  0  0  3  0  0  0  0  0  0
  194.7610  177.6730  145.7540 C   0  0  0  0  0  1  0  0  0  0  0  0
  193.5350  177.0450  145.5110 O   0  0  0  0  0  0  0  0  0  0  0  0
  194.7520  174.9680  145.7140 C   0  0  0  0  0  2  0  0  0  0  0  0
  196.0140  174.5180  144.9880 C   0  0  0  0  0  2  0  0  0  0  0  0
  194.8780  171.0050  145.4180 C   0  0  0  0  0  2  0  0  0  0  0  0
  195.9110  173.1110  144.6530 N   0  0  0  0  0  0  0  0  0  0  0  0
  196.1110  172.7030  143.2960 C   0  0  0  0  0  3  0  0  0  0  0  0
  194.0020  171.2840  143.2010 C   0  0  2  0  0  3  0  0  0  0  0  0
  195.6770  171.4870  141.2500 C   0  0  0  0  0  2  0  0  0  0  0  0
  194.0610  169.5810  141.3230 C   0  0  0  0  0  2  0  0  0  0  0  0
  195.8410  172.1400  145.7430 C   0  0  0  0  0  2  0  0  0  0  0  0
  193.7590  169.8070  142.8040 C   0  0  2  0  0  3  0  0  0  0  0  0
  195.4940  169.9950  140.9960 C   0  0  0  0  0  2  0  0  0  0  0  0
  195.3310  171.8140  142.6650 C   0  0  0  0  0  0  0  0  0  0  0  0
  193.7620  171.5170  144.6310 N   0  0  0  0  0  2  0  0  0  0  0  0
  191.3190  170.4220  142.7730 C   0  0  0  0  0  1  0  0  0  0  0  0
  192.0200  168.1710  142.3760 O   0  0  0  0  0  1  0  0  0  0  0  0
  192.3270  169.3360  143.0860 C   0  0  1  0  0  3  0  0  0  0  0  0
  1 12  1  1  0  0  0
  1  5  1  0  0  0  0
  1  3  1  0  0  0  0
  2 22  1  6  0  0  0
  2  6  1  0  0  0  0
  4 41  1  0  0  0  0
  5  7  1  0  0  0  0
  6  4  1  0  0  0  0
  7 10  1  0  0  0  0
  8  3  1  1  0  0  0
  8  2  1  0  0  0  0
  8  9  1  0  0  0  0
  9  4  1  6  0  0  0
 10  9  1  0  0  0  0
 10 25  1  6  0  0  0
 11 13  2  0  0  0  0
 11 16  1  0  0  0  0
 13 14  1  0  0  0  0
 14 12  2  0  0  0  0
 15 12  1  0  0  0  0
 16 15  2  0  0  0  0
 17 13  1  0  0  0  0
 18 21  1  0  0  0  0
 18 17  1  0  0  0  0
 20 21  1  0  0  0  0
 20 19  1  0  0  0  0
 21 19  1  0  0  0  0
 22 23  2  0  0  0  0
 24 22  1  0  0  0  0
 26 25  1  0  0  0  0
 26 27  1  0  0  0  0
 28 27  1  6  0  0  0
 28 33  1  0  0  0  0
 29 28  1  0  0  0  0
 30 29  1  0  0  0  0
 32 31  1  0  0  0  0
 32 30  1  0  0  0  0
 33 40  1  0  0  0  0
 34 39  1  0  0  0  0
 36 35  1  0  0  0  0
 36 39  2  0  0  0  0
 37 34  2  0  0  0  0
 38 36  1  0  0  0  0
 40 38  2  0  0  0  0
 40 37  1  0  0  0  0
 41 44  1  0  0  0  0
 41 43  1  1  0  0  0
 43 42  2  0  0  0  0
 44 46  1  0  0  0  0
 44 47  1  1  0  0  0
 46 45  1  0  0  0  0
 48 47  1  0  0  0  0
 49 55  1  0  0  0  0
 50 48  1  0  0  0  0
 50 55  1  0  0  0  0
 51 50  1  0  0  0  0
 52 58  1  1  0  0  0
 52 59  1  0  0  0  0
 53 58  1  0  0  0  0
 54 56  1  0  0  0  0
 56 62  1  6  0  0  0
 56 52  1  0  0  0  0
 57 53  1  0  0  0  0
 57 54  1  0  0  0  0
 58 51  2  0  0  0  0
 59 49  1  0  0  0  0
 61 62  1  0  0  0  0
 62 60  1  6  0  0  0
M  END
>  <MODEL>
6

>  <REMARK>
 VINA RESULT:      -5.0      2.494      8.906
  Name = 
  22 active torsions:
  status: ('A' for Active; 'I' for Inactive)
    1  A    between atoms: O_1  and  C_17
    2  A    between atoms: O_1  and  C_61
    3  A    between atoms: C_4  and  C_5
    4  A    between atoms: N_8  and  C_18
    5  A    between atoms: C_9  and  C_30
    6  A    between atoms: C_10  and  C_11
    7  A    between atoms: C_16  and  C_59
    8  A    between atoms: C_16  and  C_62
    9  A    between atoms: C_17  and  O_36
   10  A    between atoms: C_17  and  C_62
   11  A    between atoms: C_18  and  C_54
   12  A    between atoms: N_19  and  C_57
   13  A    between atoms: N_21  and  C_30
   14  A    between atoms: N_21  and  C_39
   15  A    between atoms: C_35  and  O_36
   16  A    between atoms: C_35  and  O_42
   17  A    between atoms: C_41  and  C_54
   18  A    between atoms: C_41  and  O_56
   19  A    between atoms: C_41  and  C_57
   20  A    between atoms: C_43  and  C_51
   21  A    between atoms: C_55  and  C_59
   22  A    between atoms: C_57  and  C_60
                            x       y       z     vdW  Elec       q    Type
                         _______ _______ _______ _____ _____    ______ ____

>  <TORSDO>
F 22

$$$$
=
 OpenBabel11042414193D

 62 68  0  0  1  0  0  0  0  0999 V2000
  188.8190  174.2860  140.8870 C   0  0  2  0  0  3  0  0  0  0  0  0
  191.7160  172.9090  142.3920 C   0  0  1  0  0  3  0  0  0  0  0  0
  190.0790  174.4230  141.4970 O   0  0  0  0  0  0  0  0  0  0  0  0
  192.8060  172.4600  140.2760 N   0  0  0  0  0  0  0  0  0  0  0  0
  188.9200  174.2960  139.3520 C   0  0  0  0  0  2  0  0  0  0  0  0
  192.7770  172.0800  141.6940 C   0  0  0  0  0  2  0  0  0  0  0  0
  189.4180  173.0080  138.8820 N   0  0  0  0  0  2  0  0  0  0  0  0
  190.7370  173.2010  141.2970 C   0  0  1  0  0  3  0  0  0  0  0  0
  191.6180  173.3050  140.0750 C   0  0  2  0  0  3  0  0  0  0  0  0
  190.8750  173.0600  138.7330 C   0  0  1  0  0  3  0  0  0  0  0  0
  186.1520  177.3180  142.2560 N   0  0  0  0  0  0  0  0  0  0  0  0
  187.8910  175.3480  141.3870 C   0  0  0  0  0  0  0  0  0  0  0  0
  186.5760  176.3720  143.1380 C   0  0  0  0  0  0  0  0  0  0  0  0
  187.4430  175.3610  142.7160 C   0  0  0  0  0  3  0  0  0  0  0  0
  187.4390  176.3280  140.5000 C   0  0  0  0  0  3  0  0  0  0  0  0
  186.5600  177.3140  140.9570 C   0  0  0  0  0  3  0  0  0  0  0  0
  186.1310  176.4210  144.5580 C   0  0  0  0  0  2  0  0  0  0  0  0
  185.8020  177.7880  144.9390 N   0  0  0  0  0  2  0  0  0  0  0  0
  184.0480  179.0200  146.0540 C   0  0  0  0  0  2  0  0  0  0  0  0
  185.1360  178.7340  147.0670 C   0  0  0  0  0  2  0  0  0  0  0  0
  184.8110  177.7120  145.9970 C   0  0  0  0  0  3  0  0  0  0  0  0
  191.0780  172.1520  143.5180 C   0  0  0  0  0  0  0  0  0  0  0  0
  191.1590  170.9340  143.5810 O   0  0  0  0  0  0  0  0  0  0  0  0
  190.3290  172.8970  144.5700 C   0  0  0  0  0  1  0  0  0  0  0  0
  191.3520  171.8170  137.9920 C   0  0  0  0  0  2  0  0  0  0  0  0
  190.2080  171.2530  137.1690 C   0  0  0  0  0  2  0  0  0  0  0  0
  190.4370  171.5310  135.6970 C   0  0  0  0  0  2  0  0  0  0  0  0
  191.1060  172.8880  135.5530 C   0  0  2  0  0  3  0  0  0  0  0  0
  190.3950  173.6570  134.6280 O   0  0  0  0  0  0  0  0  0  0  0  0
  189.3120  174.1770  135.3380 C   0  0  0  0  0  2  0  0  0  0  0  0
  189.2280  176.2560  134.6040 C   0  0  0  0  0  1  0  0  0  0  0  0
  188.5780  175.0260  134.5130 O   0  0  0  0  0  0  0  0  0  0  0  0
  192.4510  172.7340  135.1130 O   0  0  0  0  0  0  0  0  0  0  0  0
  195.5710  174.7040  134.6450 C   0  0  0  0  0  3  0  0  0  0  0  0
  193.2210  177.5700  135.3880 C   0  0  0  0  0  1  0  0  0  0  0  0
  193.7310  176.1980  135.1480 C   0  0  0  0  0  0  0  0  0  0  0  0
  194.7020  173.6140  134.7200 C   0  0  0  0  0  3  0  0  0  0  0  0
  192.8600  175.1070  135.2170 C   0  0  0  0  0  3  0  0  0  0  0  0
  195.0860  175.9960  134.8650 C   0  0  0  0  0  3  0  0  0  0  0  0
  193.3400  173.8080  135.0110 C   0  0  0  0  0  0  0  0  0  0  0  0
  194.0500  173.2240  140.0630 C   0  0  2  0  0  3  0  0  0  0  0  0
  194.5710  175.0030  138.4360 C   0  0  0  0  0  2  0  0  0  0  0  0
  194.1960  173.7470  138.6530 C   0  0  0  0  0  3  0  0  0  0  0  0
  195.2640  172.3560  140.4490 C   0  0  1  0  0  3  0  0  0  0  0  0
  197.1450  171.4570  139.6700 C   0  0  0  0  0  1  0  0  0  0  0  0
  195.8050  171.6860  139.3410 O   0  0  0  0  0  0  0  0  0  0  0  0
  196.3360  173.1480  141.1900 C   0  0  0  0  0  2  0  0  0  0  0  0
  196.3420  172.8710  142.6880 C   0  0  0  0  0  2  0  0  0  0  0  0
  195.2950  176.4160  143.0790 C   0  0  0  0  0  2  0  0  0  0  0  0
  195.8600  174.0370  143.4040 N   0  0  0  0  0  0  0  0  0  0  0  0
  195.0800  173.8510  144.5880 C   0  0  0  0  0  3  0  0  0  0  0  0
  193.2420  175.4570  143.8720 C   0  0  2  0  0  3  0  0  0  0  0  0
  193.2680  174.2400  146.1450 C   0  0  0  0  0  2  0  0  0  0  0  0
  191.8450  176.2700  145.8260 C   0  0  0  0  0  2  0  0  0  0  0  0
  196.3810  175.3490  143.0270 C   0  0  0  0  0  2  0  0  0  0  0  0
  192.6050  176.6860  144.5660 C   0  0  2  0  0  3  0  0  0  0  0  0
  192.7660  175.5280  146.7900 C   0  0  0  0  0  2  0  0  0  0  0  0
  193.9660  174.5460  144.8620 C   0  0  0  0  0  0  0  0  0  0  0  0
  194.0160  175.8370  142.6830 N   0  0  0  0  0  2  0  0  0  0  0  0
  190.2220  176.9770  143.8130 C   0  0  0  0  0  1  0  0  0  0  0  0
  191.7180  178.8400  143.8900 O   0  0  0  0  0  1  0  0  0  0  0  0
  191.6470  177.4640  143.6550 C   0  0  1  0  0  3  0  0  0  0  0  0
  1 12  1  6  0  0  0
  1  3  1  0  0  0  0
  2 22  1  1  0  0  0
  4  6  1  0  0  0  0
  5  1  1  0  0  0  0
  6  2  1  0  0  0  0
  7  5  1  0  0  0  0
  8  3  1  1  0  0  0
  8  2  1  0  0  0  0
  9  4  1  1  0  0  0
  9  8  1  0  0  0  0
 10 25  1  1  0  0  0
 10  7  1  0  0  0  0
 10  9  1  0  0  0  0
 11 13  1  0  0  0  0
 12 14  1  0  0  0  0
 13 17  1  0  0  0  0
 14 13  2  0  0  0  0
 15 16  1  0  0  0  0
 15 12  2  0  0  0  0
 16 11  2  0  0  0  0
 17 18  1  0  0  0  0
 18 21  1  0  0  0  0
 19 20  1  0  0  0  0
 21 19  1  0  0  0  0
 21 20  1  0  0  0  0
 22 23  2  0  0  0  0
 22 24  1  0  0  0  0
 26 25  1  0  0  0  0
 27 26  1  0  0  0  0
 28 27  1  6  0  0  0
 29 30  1  0  0  0  0
 29 28  1  0  0  0  0
 32 31  1  0  0  0  0
 32 30  1  0  0  0  0
 33 28  1  0  0  0  0
 34 37  2  0  0  0  0
 34 39  1  0  0  0  0
 36 38  1  0  0  0  0
 36 35  1  0  0  0  0
 37 40  1  0  0  0  0
 39 36  2  0  0  0  0
 40 33  1  0  0  0  0
 40 38  2  0  0  0  0
 41 43  1  6  0  0  0
 41  4  1  0  0  0  0
 41 44  1  0  0  0  0
 42 43  2  0  0  0  0
 44 47  1  6  0  0  0
 46 45  1  0  0  0  0
 46 44  1  0  0  0  0
 47 48  1  0  0  0  0
 48 50  1  0  0  0  0
 50 51  1  0  0  0  0
 51 58  2  0  0  0  0
 52 59  1  6  0  0  0
 52 56  1  0  0  0  0
 52 58  1  0  0  0  0
 53 57  1  0  0  0  0
 54 57  1  0  0  0  0
 55 49  1  0  0  0  0
 55 50  1  0  0  0  0
 56 62  1  6  0  0  0
 56 54  1  0  0  0  0
 58 53  1  0  0  0  0
 59 49  1  0  0  0  0
 62 60  1  1  0  0  0
 62 61  1  0  0  0  0
M  END
>  <MODEL>
7

>  <REMARK>
 VINA RESULT:      -4.8      1.611      2.188
  Name = 
  22 active torsions:
  status: ('A' for Active; 'I' for Inactive)
    1  A    between atoms: O_1  and  C_17
    2  A    between atoms: O_1  and  C_61
    3  A    between atoms: C_4  and  C_5
    4  A    between atoms: N_8  and  C_18
    5  A    between atoms: C_9  and  C_30
    6  A    between atoms: C_10  and  C_11
    7  A    between atoms: C_16  and  C_59
    8  A    between atoms: C_16  and  C_62
    9  A    between atoms: C_17  and  O_36
   10  A    between atoms: C_17  and  C_62
   11  A    between atoms: C_18  and  C_54
   12  A    between atoms: N_19  and  C_57
   13  A    between atoms: N_21  and  C_30
   14  A    between atoms: N_21  and  C_39
   15  A    between atoms: C_35  and  O_36
   16  A    between atoms: C_35  and  O_42
   17  A    between atoms: C_41  and  C_54
   18  A    between atoms: C_41  and  O_56
   19  A    between atoms: C_41  and  C_57
   20  A    between atoms: C_43  and  C_51
   21  A    between atoms: C_55  and  C_59
   22  A    between atoms: C_57  and  C_60
                            x       y       z     vdW  Elec       q    Type
                         _______ _______ _______ _____ _____    ______ ____

>  <TORSDO>
F 22

$$$$
=
 OpenBabel11042414193D

 62 68  0  0  1  0  0  0  0  0999 V2000
  195.3350  174.9930  141.7750 C   0  0  2  0  0  3  0  0  0  0  0  0
  194.0110  173.5220  144.7140 C   0  0  1  0  0  3  0  0  0  0  0  0
  194.5860  173.9990  142.4300 O   0  0  0  0  0  0  0  0  0  0  0  0
  192.0910  174.9970  144.7880 N   0  0  0  0  0  0  0  0  0  0  0  0
  194.4430  176.1330  141.2530 C   0  0  0  0  0  2  0  0  0  0  0  0
  192.9370  174.1160  145.6040 C   0  0  0  0  0  2  0  0  0  0  0  0
  194.0470  176.9960  142.3600 N   0  0  0  0  0  2  0  0  0  0  0  0
  194.1860  174.5620  143.6500 C   0  0  1  0  0  3  0  0  0  0  0  0
  192.7950  175.1310  143.5030 C   0  0  2  0  0  3  0  0  0  0  0  0
  192.7540  176.5600  142.8950 C   0  0  1  0  0  3  0  0  0  0  0  0
  197.6620  173.2030  138.6830 N   0  0  0  0  0  0  0  0  0  0  0  0
  196.1480  174.3810  140.6780 C   0  0  0  0  0  0  0  0  0  0  0  0
  196.6610  174.0570  138.3380 C   0  0  0  0  0  0  0  0  0  0  0  0
  195.8770  174.6510  139.3280 C   0  0  0  0  0  3  0  0  0  0  0  0
  197.1790  173.4980  141.0060 C   0  0  0  0  0  3  0  0  0  0  0  0
  197.9320  172.9120  139.9860 C   0  0  0  0  0  3  0  0  0  0  0  0
  196.4110  174.3750  136.9040 C   0  0  0  0  0  2  0  0  0  0  0  0
  195.8130  175.6960  136.7740 N   0  0  0  0  0  2  0  0  0  0  0  0
  195.7630  177.4260  135.0880 C   0  0  0  0  0  2  0  0  0  0  0  0
  194.3860  176.8000  135.1570 C   0  0  0  0  0  2  0  0  0  0  0  0
  195.6190  175.9420  135.3560 C   0  0  0  0  0  3  0  0  0  0  0  0
  195.2840  173.2840  145.4690 C   0  0  0  0  0  0  0  0  0  0  0  0
  195.8890  174.2110  145.9870 O   0  0  0  0  0  0  0  0  0  0  0  0
  195.8210  171.8980  145.5840 C   0  0  0  0  0  1  0  0  0  0  0  0
  192.2240  177.6150  143.8570 C   0  0  0  0  0  2  0  0  0  0  0  0
  190.8740  178.1070  143.3700 C   0  0  0  0  0  2  0  0  0  0  0  0
  190.2750  177.1110  142.3970 C   0  0  0  0  0  2  0  0  0  0  0  0
  188.8280  176.8590  142.7820 C   0  0  2  0  0  3  0  0  0  0  0  0
  188.2110  176.0960  141.7870 O   0  0  0  0  0  0  0  0  0  0  0  0
  187.8350  174.9080  142.4170 C   0  0  0  0  0  2  0  0  0  0  0  0
  188.5460  174.4120  140.3880 C   0  0  0  0  0  1  0  0  0  0  0  0
  187.9880  173.8430  141.5320 O   0  0  0  0  0  0  0  0  0  0  0  0
  188.1330  178.0920  142.9360 O   0  0  0  0  0  0  0  0  0  0  0  0
  184.9130  179.1820  144.4460 C   0  0  0  0  0  3  0  0  0  0  0  0
  186.2540  177.2130  147.3810 C   0  0  0  0  0  1  0  0  0  0  0  0
  186.1430  177.8300  146.0360 C   0  0  0  0  0  0  0  0  0  0  0  0
  185.9400  179.0160  143.5160 C   0  0  0  0  0  3  0  0  0  0  0  0
  187.1690  177.6600  145.1030 C   0  0  0  0  0  3  0  0  0  0  0  0
  185.0170  178.5930  145.7090 C   0  0  0  0  0  3  0  0  0  0  0  0
  187.0790  178.2570  143.8400 C   0  0  0  0  0  0  0  0  0  0  0  0
  190.7960  174.3100  144.6200 C   0  0  2  0  0  3  0  0  0  0  0  0
  189.9620  175.6350  146.5270 C   0  0  0  0  0  2  0  0  0  0  0  0
  189.8400  174.5530  145.7650 C   0  0  0  0  0  3  0  0  0  0  0  0
  191.0310  172.8000  144.4190 C   0  0  1  0  0  3  0  0  0  0  0  0
  189.2210  171.5630  144.0380 C   0  0  0  0  0  1  0  0  0  0  0  0
  190.0540  172.0250  145.0620 O   0  0  0  0  0  0  0  0  0  0  0  0
  191.1540  172.4200  142.9470 C   0  0  0  0  0  2  0  0  0  0  0  0
  192.2110  171.3510  142.7020 C   0  0  0  0  0  2  0  0  0  0  0  0
  190.4550  170.4530  139.5510 C   0  0  0  0  0  2  0  0  0  0  0  0
  192.1020  170.8580  141.3420 N   0  0  0  0  0  0  0  0  0  0  0  0
  193.2500  170.9140  140.4890 C   0  0  0  0  0  3  0  0  0  0  0  0
  192.0040  171.9870  138.5480 C   0  0  2  0  0  3  0  0  0  0  0  0
  194.4910  171.3110  138.4500 C   0  0  0  0  0  2  0  0  0  0  0  0
  193.2110  171.6930  136.3370 C   0  0  0  0  0  2  0  0  0  0  0  0
  190.9030  170.1110  140.9670 C   0  0  0  0  0  2  0  0  0  0  0  0
  191.8650  171.5940  137.0560 C   0  0  2  0  0  3  0  0  0  0  0  0
  194.2550  170.8180  137.0270 C   0  0  0  0  0  2  0  0  0  0  0  0
  193.2070  171.3180  139.2110 C   0  0  0  0  0  0  0  0  0  0  0  0
  190.7330  171.8570  139.2720 N   0  0  0  0  0  2  0  0  0  0  0  0
  191.5320  173.5170  135.4680 C   0  0  0  0  0  1  0  0  0  0  0  0
  190.0120  171.6730  135.4930 O   0  0  0  0  0  1  0  0  0  0  0  0
  190.8460  172.4540  136.2990 C   0  0  1  0  0  3  0  0  0  0  0  0
  1 12  1  6  0  0  0
  1  3  1  0  0  0  0
  2 22  1  1  0  0  0
  2  6  1  0  0  0  0
  4  6  1  0  0  0  0
  5  1  1  0  0  0  0
  5  7  1  0  0  0  0
  7 10  1  0  0  0  0
  8  3  1  6  0  0  0
  8  2  1  0  0  0  0
  9  8  1  0  0  0  0
  9  4  1  1  0  0  0
 10  9  1  0  0  0  0
 10 25  1  1  0  0  0
 11 16  1  0  0  0  0
 12 15  1  0  0  0  0
 13 11  2  0  0  0  0
 13 14  1  0  0  0  0
 14 12  2  0  0  0  0
 16 15  2  0  0  0  0
 17 13  1  0  0  0  0
 18 17  1  0  0  0  0
 19 20  1  0  0  0  0
 19 21  1  0  0  0  0
 20 21  1  0  0  0  0
 21 18  1  0  0  0  0
 22 24  1  0  0  0  0
 22 23  2  0  0  0  0
 26 25  1  0  0  0  0
 27 26  1  0  0  0  0
 28 27  1  6  0  0  0
 28 33  1  0  0  0  0
 29 30  1  0  0  0  0
 29 28  1  0  0  0  0
 31 32  1  0  0  0  0
 32 30  1  0  0  0  0
 33 40  1  0  0  0  0
 34 39  1  0  0  0  0
 36 35  1  0  0  0  0
 37 40  1  0  0  0  0
 37 34  2  0  0  0  0
 38 36  1  0  0  0  0
 39 36  2  0  0  0  0
 40 38  2  0  0  0  0
 41  4  1  0  0  0  0
 41 43  1  1  0  0  0
 43 42  2  0  0  0  0
 44 47  1  6  0  0  0
 44 41  1  0  0  0  0
 44 46  1  0  0  0  0
 45 46  1  0  0  0  0
 48 47  1  0  0  0  0
 49 55  1  0  0  0  0
 50 48  1  0  0  0  0
 51 50  1  0  0  0  0
 52 58  1  1  0  0  0
 52 59  1  0  0  0  0
 53 58  1  0  0  0  0
 54 57  1  0  0  0  0
 54 56  1  0  0  0  0
 55 50  1  0  0  0  0
 56 62  1  6  0  0  0
 56 52  1  0  0  0  0
 57 53  1  0  0  0  0
 58 51  2  0  0  0  0
 59 49  1  0  0  0  0
 61 62  1  0  0  0  0
 62 60  1  6  0  0  0
M  END
>  <MODEL>
8

>  <REMARK>
 VINA RESULT:      -4.7      2.272      9.364
  Name = 
  22 active torsions:
  status: ('A' for Active; 'I' for Inactive)
    1  A    between atoms: O_1  and  C_17
    2  A    between atoms: O_1  and  C_61
    3  A    between atoms: C_4  and  C_5
    4  A    between atoms: N_8  and  C_18
    5  A    between atoms: C_9  and  C_30
    6  A    between atoms: C_10  and  C_11
    7  A    between atoms: C_16  and  C_59
    8  A    between atoms: C_16  and  C_62
    9  A    between atoms: C_17  and  O_36
   10  A    between atoms: C_17  and  C_62
   11  A    between atoms: C_18  and  C_54
   12  A    between atoms: N_19  and  C_57
   13  A    between atoms: N_21  and  C_30
   14  A    between atoms: N_21  and  C_39
   15  A    between atoms: C_35  and  O_36
   16  A    between atoms: C_35  and  O_42
   17  A    between atoms: C_41  and  C_54
   18  A    between atoms: C_41  and  O_56
   19  A    between atoms: C_41  and  C_57
   20  A    between atoms: C_43  and  C_51
   21  A    between atoms: C_55  and  C_59
   22  A    between atoms: C_57  and  C_60
                            x       y       z     vdW  Elec       q    Type
                         _______ _______ _______ _____ _____    ______ ____

>  <TORSDO>
F 22

$$$$
=
 OpenBabel11042414193D

 62 68  0  0  1  0  0  0  0  0999 V2000
  191.3120  172.9320  142.5310 C   0  0  2  0  0  3  0  0  0  0  0  0
  192.5640  170.8300  139.9680 C   0  0  1  0  0  3  0  0  0  0  0  0
  192.2710  172.6120  141.5540 O   0  0  0  0  0  0  0  0  0  0  0  0
  191.1620  171.8090  138.2520 N   0  0  0  0  0  0  0  0  0  0  0  0
  190.2580  173.9190  142.0000 C   0  0  0  0  0  2  0  0  0  0  0  0
  191.9340  170.6100  138.6060 C   0  0  0  0  0  2  0  0  0  0  0  0
  189.3150  173.2160  141.1370 N   0  0  0  0  0  2  0  0  0  0  0  0
  191.6170  171.7830  140.6320 C   0  0  1  0  0  3  0  0  0  0  0  0
  191.1160  172.6200  139.4790 C   0  0  2  0  0  3  0  0  0  0  0  0
  189.7510  173.3110  139.7410 C   0  0  1  0  0  3  0  0  0  0  0  0
  193.2870  174.3890  146.0180 N   0  0  0  0  0  0  0  0  0  0  0  0
  191.9890  173.4540  143.7600 C   0  0  0  0  0  0  0  0  0  0  0  0
  192.3280  175.1600  145.4380 C   0  0  0  0  0  0  0  0  0  0  0  0
  191.6710  174.7130  144.2900 C   0  0  0  0  0  3  0  0  0  0  0  0
  192.9790  172.6820  144.3710 C   0  0  0  0  0  3  0  0  0  0  0  0
  193.6250  173.1720  145.5100 C   0  0  0  0  0  3  0  0  0  0  0  0
  191.9640  176.4750  146.0360 C   0  0  0  0  0  2  0  0  0  0  0  0
  190.5730  176.7960  145.7490 N   0  0  0  0  0  2  0  0  0  0  0  0
  188.5980  175.6100  146.4790 C   0  0  0  0  0  2  0  0  0  0  0  0
  188.4280  177.0710  146.8390 C   0  0  0  0  0  2  0  0  0  0  0  0
  189.7970  176.4260  146.9190 C   0  0  0  0  0  3  0  0  0  0  0  0
  192.6840  169.5470  140.7340 C   0  0  0  0  0  0  0  0  0  0  0  0
  191.7510  169.1240  141.4000 O   0  0  0  0  0  0  0  0  0  0  0  0
  193.9620  168.7810  140.6850 C   0  0  0  0  0  1  0  0  0  0  0  0
  188.6340  172.8170  138.8300 C   0  0  0  0  0  2  0  0  0  0  0  0
  188.1470  173.9640  137.9640 C   0  0  0  0  0  2  0  0  0  0  0  0
  187.6370  175.0950  138.8340 C   0  0  0  0  0  2  0  0  0  0  0  0
  186.8700  176.0750  137.9630 C   0  0  2  0  0  3  0  0  0  0  0  0
  187.4690  176.1400  136.7030 O   0  0  0  0  0  0  0  0  0  0  0  0
  186.4220  176.3810  135.8110 C   0  0  0  0  0  2  0  0  0  0  0  0
  187.9800  177.5720  134.8000 C   0  0  0  0  0  1  0  0  0  0  0  0
  186.9410  176.6760  134.5520 O   0  0  0  0  0  0  0  0  0  0  0  0
  186.8660  177.3690  138.5560 O   0  0  0  0  0  0  0  0  0  0  0  0
  184.6860  178.1640  141.4630 C   0  0  0  0  0  3  0  0  0  0  0  0
  187.9420  177.7120  143.3300 C   0  0  0  0  0  1  0  0  0  0  0  0
  186.9520  177.7740  142.2260 C   0  0  0  0  0  0  0  0  0  0  0  0
  185.0900  177.9180  140.1500 C   0  0  0  0  0  3  0  0  0  0  0  0
  187.3550  177.5230  140.9120 C   0  0  0  0  0  3  0  0  0  0  0  0
  185.6190  178.0970  142.5010 C   0  0  0  0  0  3  0  0  0  0  0  0
  186.4290  177.6000  139.8650 C   0  0  0  0  0  0  0  0  0  0  0  0
  191.9090  172.4970  137.1820 C   0  0  2  0  0  3  0  0  0  0  0  0
  191.3310  174.4870  135.8440 C   0  0  0  0  0  2  0  0  0  0  0  0
  191.0190  173.2520  136.2230 C   0  0  0  0  0  3  0  0  0  0  0  0
  192.7850  171.4790  136.4240 C   0  0  1  0  0  3  0  0  0  0  0  0
  192.6460  169.7720  135.0030 C   0  0  0  0  0  1  0  0  0  0  0  0
  192.2000  171.0810  135.2120 O   0  0  0  0  0  0  0  0  0  0  0  0
  194.2090  171.9810  136.2090 C   0  0  0  0  0  2  0  0  0  0  0  0
  195.2500  171.1200  136.9130 C   0  0  0  0  0  2  0  0  0  0  0  0
  196.8380  174.2240  138.2000 C   0  0  0  0  0  2  0  0  0  0  0  0
  196.0010  171.9300  137.8520 N   0  0  0  0  0  0  0  0  0  0  0  0
  196.0450  171.5370  139.2280 C   0  0  0  0  0  3  0  0  0  0  0  0
  195.4390  173.8430  140.1140 C   0  0  2  0  0  3  0  0  0  0  0  0
  195.9770  171.8270  141.6290 C   0  0  0  0  0  2  0  0  0  0  0  0
  196.0850  174.1500  142.5470 C   0  0  0  0  0  2  0  0  0  0  0  0
  196.8740  172.9770  137.3260 C   0  0  0  0  0  2  0  0  0  0  0  0
  196.1200  174.7710  141.1510 C   0  0  2  0  0  3  0  0  0  0  0  0
  196.7480  172.7750  142.5410 C   0  0  0  0  0  2  0  0  0  0  0  0
  195.8980  172.3920  140.2500 C   0  0  0  0  0  0  0  0  0  0  0  0
  195.5010  174.3980  138.7550 N   0  0  0  0  0  2  0  0  0  0  0  0
  194.2320  176.1530  142.0770 C   0  0  0  0  0  1  0  0  0  0  0  0
  196.3860  177.1190  141.6970 O   0  0  0  0  0  1  0  0  0  0  0  0
  195.4820  176.1640  141.2220 C   0  0  1  0  0  3  0  0  0  0  0  0
  1 12  1  1  0  0  0
  2  8  1  0  0  0  0
  2 22  1  1  0  0  0
  3  1  1  0  0  0  0
  4  6  1  0  0  0  0
  5  1  1  0  0  0  0
  6  2  1  0  0  0  0
  7  5  1  0  0  0  0
  8  3  1  1  0  0  0
  9  4  1  6  0  0  0
  9 10  1  0  0  0  0
  9  8  1  0  0  0  0
 10 25  1  6  0  0  0
 10  7  1  0  0  0  0
 12 14  2  0  0  0  0
 12 15  1  0  0  0  0
 13 11  2  0  0  0  0
 13 17  1  0  0  0  0
 14 13  1  0  0  0  0
 15 16  2  0  0  0  0
 16 11  1  0  0  0  0
 18 17  1  0  0  0  0
 18 21  1  0  0  0  0
 19 20  1  0  0  0  0
 19 21  1  0  0  0  0
 20 21  1  0  0  0  0
 22 23  2  0  0  0  0
 24 22  1  0  0  0  0
 26 25  1  0  0  0  0
 26 27  1  0  0  0  0
 28 33  1  0  0  0  0
 28 27  1  1  0  0  0
 29 28  1  0  0  0  0
 30 29  1  0  0  0  0
 32 31  1  0  0  0  0
 32 30  1  0  0  0  0
 33 40  1  0  0  0  0
 34 39  1  0  0  0  0
 36 39  2  0  0  0  0
 36 35  1  0  0  0  0
 37 34  2  0  0  0  0
 38 36  1  0  0  0  0
 40 37  1  0  0  0  0
 40 38  2  0  0  0  0
 41 43  1  6  0  0  0
 41  4  1  0  0  0  0
 42 43  2  0  0  0  0
 44 47  1  6  0  0  0
 44 41  1  0  0  0  0
 45 46  1  0  0  0  0
 46 44  1  0  0  0  0
 47 48  1  0  0  0  0
 48 50  1  0  0  0  0
 49 59  1  0  0  0  0
 50 51  1  0  0  0  0
 51 58  2  0  0  0  0
 52 59  1  6  0  0  0
 52 58  1  0  0  0  0
 52 56  1  0  0  0  0
 53 57  1  0  0  0  0
 55 50  1  0  0  0  0
 55 49  1  0  0  0  0
 56 62  1  1  0  0  0
 56 54  1  0  0  0  0
 57 54  1  0  0  0  0
 58 53  1  0  0  0  0
 62 61  1  0  0  0  0
 62 60  1  1  0  0  0
M  END
>  <MODEL>
9

>  <REMARK>
 VINA RESULT:      -4.7      2.419      6.653
  Name = 
  22 active torsions:
  status: ('A' for Active; 'I' for Inactive)
    1  A    between atoms: O_1  and  C_17
    2  A    between atoms: O_1  and  C_61
    3  A    between atoms: C_4  and  C_5
    4  A    between atoms: N_8  and  C_18
    5  A    between atoms: C_9  and  C_30
    6  A    between atoms: C_10  and  C_11
    7  A    between atoms: C_16  and  C_59
    8  A    between atoms: C_16  and  C_62
    9  A    between atoms: C_17  and  O_36
   10  A    between atoms: C_17  and  C_62
   11  A    between atoms: C_18  and  C_54
   12  A    between atoms: N_19  and  C_57
   13  A    between atoms: N_21  and  C_30
   14  A    between atoms: N_21  and  C_39
   15  A    between atoms: C_35  and  O_36
   16  A    between atoms: C_35  and  O_42
   17  A    between atoms: C_41  and  C_54
   18  A    between atoms: C_41  and  O_56
   19  A    between atoms: C_41  and  C_57
   20  A    between atoms: C_43  and  C_51
   21  A    between atoms: C_55  and  C_59
   22  A    between atoms: C_57  and  C_60
                            x       y       z     vdW  Elec       q    Type
                         _______ _______ _______ _____ _____    ______ ____

>  <TORSDO>
F 22

$$$$
