=
 OpenBabel11042414493D

 28 30  0  0  1  0  0  0  0  0999 V2000
  189.1060  176.7030  144.1010 C   0  0  2  0  0  3  0  0  0  0  0  0
  190.6080  171.6420  141.9870 N   0  0  0  0  0  0  0  0  0  0  0  0
  189.5220  172.2090  141.3180 N   0  0  0  0  0  2  0  0  0  0  0  0
  188.9660  175.3250  143.5120 C   0  0  0  0  0  0  0  0  0  0  0  0
  187.9410  173.9720  141.7250 C   0  0  0  0  0  3  0  0  0  0  0  0
  188.8260  172.8970  142.1560 C   0  0  2  0  0  3  0  0  0  0  0  0
  188.0110  175.1260  142.3870 C   0  0  0  0  0  3  0  0  0  0  0  0
  191.6070  171.5190  144.1930 C   0  0  0  0  0  1  0  0  0  0  0  0
  189.6580  174.2830  144.0410 C   0  0  0  0  0  0  0  0  0  0  0  0
  190.6190  172.0430  143.2130 C   0  0  0  0  0  0  0  0  0  0  0  0
  189.4040  172.8650  143.5360 C   0  0  2  0  0  3  0  0  0  0  0  0
  190.4420  174.5130  145.2190 N   0  0  0  0  0  2  0  0  0  0  0  0
  190.5740  175.3800  147.4750 C   0  0  0  0  0  1  0  0  0  0  0  0
  189.9320  174.3520  146.5700 C   0  0  0  0  0  2  0  0  0  0  0  0
  184.0080  178.6090  146.0590 C   0  0  0  0  0  1  0  0  0  0  0  0
  185.3190  178.1270  145.5540 C   0  0  0  0  0  0  0  0  0  0  0  0
  185.8900  178.7140  144.4200 C   0  0  0  0  0  3  0  0  0  0  0  0
  187.2160  176.6330  145.7350 C   0  0  0  0  0  3  0  0  0  0  0  0
  187.7950  177.2220  144.6050 C   0  0  0  0  0  0  0  0  0  0  0  0
  187.1240  178.2620  143.9440 C   0  0  0  0  0  3  0  0  0  0  0  0
  185.9820  177.0860  146.2100 C   0  0  0  0  0  3  0  0  0  0  0  0
  189.6760  177.5870  143.1790 O   0  0  0  0  0  0  0  0  0  0  0  0
  190.7590  178.1580  143.8500 C   0  0  0  0  0  2  0  0  0  0  0  0
  191.9960  177.3120  143.6280 C   0  0  0  0  0  2  0  0  0  0  0  0
  194.5720  176.1810  143.8230 N   0  0  0  0  0  1  0  0  0  0  0  0
  194.4310  176.3700  146.2720 N   0  0  0  0  0  1  0  0  0  0  0  0
  192.6620  177.0830  144.9010 N   0  0  0  0  0  0  0  0  0  0  0  0
  193.8470  176.5640  144.9900 C   0  0  0  0  0  0  0  0  0  0  0  0
  1 22  1  6  0  0  0
  1 19  1  0  0  0  0
  2 10  2  0  0  0  0
  3  2  1  0  0  0  0
  3  6  1  0  0  0  0
  4  9  2  0  0  0  0
  4  1  1  0  0  0  0
  5  7  2  0  0  0  0
  6  5  1  6  0  0  0
  6 11  1  0  0  0  0
  7  4  1  0  0  0  0
  9 12  1  0  0  0  0
 10  8  1  0  0  0  0
 11 10  1  6  0  0  0
 11  9  1  0  0  0  0
 12 14  1  0  0  0  0
 14 13  1  0  0  0  0
 16 15  1  0  0  0  0
 16 21  1  0  0  0  0
 17 16  2  0  0  0  0
 18 21  2  0  0  0  0
 19 18  1  0  0  0  0
 20 17  1  0  0  0  0
 20 19  2  0  0  0  0
 22 23  1  0  0  0  0
 24 23  1  0  0  0  0
 24 27  1  0  0  0  0
 25 28  1  0  0  0  0
 27 28  2  0  0  0  0
 28 26  1  0  0  0  0
M  END
>  <MODEL>
1

>  <REMARK>
 VINA RESULT:      -6.5      0.000      0.000
  Name = 
  8 active torsions:
  status: ('A' for Active; 'I' for Inactive)
    1  A    between atoms: C_4  and  C_8
    2  A    between atoms: C_4  and  O_11
    3  A    between atoms: C_4  and  C_21
    4  A    between atoms: N_10  and  C_23
    5  A    between atoms: N_10  and  C_27
    6  A    between atoms: O_11  and  C_18
    7  A    between atoms: C_13  and  N_14
    8  A    between atoms: C_13  and  C_18
                            x       y       z     vdW  Elec       q    Type
                         _______ _______ _______ _____ _____    ______ ____

>  <TORSDO>
F 8

$$$$
=
 OpenBabel11042414493D

 28 30  0  0  1  0  0  0  0  0999 V2000
  188.3990  176.4290  144.8890 C   0  0  2  0  0  3  0  0  0  0  0  0
  194.0200  175.8700  145.5370 N   0  0  0  0  0  0  0  0  0  0  0  0
  193.6610  177.0720  144.9250 N   0  0  0  0  0  2  0  0  0  0  0  0
  189.8680  176.5110  144.5720 C   0  0  0  0  0  0  0  0  0  0  0  0
  191.7130  177.9760  143.8480 C   0  0  0  0  0  3  0  0  0  0  0  0
  192.6040  176.8820  144.2140 C   0  0  2  0  0  3  0  0  0  0  0  0
  190.4050  177.7830  144.0150 C   0  0  0  0  0  3  0  0  0  0  0  0
  193.3200  173.5540  145.6950 C   0  0  0  0  0  1  0  0  0  0  0  0
  190.6640  175.4250  144.7410 C   0  0  0  0  0  0  0  0  0  0  0  0
  193.1430  174.9650  145.2610 C   0  0  0  0  0  0  0  0  0  0  0  0
  192.1200  175.4680  144.2830 C   0  0  2  0  0  3  0  0  0  0  0  0
  190.0550  174.1880  145.1350 N   0  0  0  0  0  2  0  0  0  0  0  0
  189.3540  173.1200  143.0780 C   0  0  0  0  0  1  0  0  0  0  0  0
  190.1450  172.9620  144.3580 C   0  0  0  0  0  2  0  0  0  0  0  0
  185.2440  178.3690  140.4450 C   0  0  0  0  0  1  0  0  0  0  0  0
  186.0490  177.8740  141.5920 C   0  0  0  0  0  0  0  0  0  0  0  0
  186.1620  178.6470  142.7520 C   0  0  0  0  0  3  0  0  0  0  0  0
  187.4520  176.1720  142.5900 C   0  0  0  0  0  3  0  0  0  0  0  0
  187.5630  176.9380  143.7560 C   0  0  0  0  0  0  0  0  0  0  0  0
  186.9180  178.1830  143.8310 C   0  0  0  0  0  3  0  0  0  0  0  0
  186.6960  176.6380  141.5110 C   0  0  0  0  0  3  0  0  0  0  0  0
  188.1020  177.1070  146.0760 O   0  0  0  0  0  0  0  0  0  0  0  0
  187.5110  176.1480  146.9010 C   0  0  0  0  0  2  0  0  0  0  0  0
  186.4250  176.7960  147.7350 C   0  0  0  0  0  2  0  0  0  0  0  0
  185.6600  179.4910  147.4080 N   0  0  0  0  0  1  0  0  0  0  0  0
  183.8930  178.7640  145.8580 N   0  0  0  0  0  1  0  0  0  0  0  0
  185.3280  177.2040  146.8710 N   0  0  0  0  0  0  0  0  0  0  0  0
  184.9780  178.4440  146.7210 C   0  0  0  0  0  0  0  0  0  0  0  0
  1 22  1  1  0  0  0
  3  2  1  0  0  0  0
  4  9  2  0  0  0  0
  4  1  1  0  0  0  0
  5  7  2  0  0  0  0
  6  5  1  1  0  0  0
  6 11  1  0  0  0  0
  6  3  1  0  0  0  0
  7  4  1  0  0  0  0
  9 12  1  0  0  0  0
 10  2  2  0  0  0  0
 10  8  1  0  0  0  0
 11  9  1  1  0  0  0
 11 10  1  0  0  0  0
 13 14  1  0  0  0  0
 14 12  1  0  0  0  0
 15 16  1  0  0  0  0
 16 17  1  0  0  0  0
 17 20  2  0  0  0  0
 18 19  2  0  0  0  0
 19 20  1  0  0  0  0
 19  1  1  0  0  0  0
 21 16  2  0  0  0  0
 21 18  1  0  0  0  0
 22 23  1  0  0  0  0
 23 24  1  0  0  0  0
 26 28  1  0  0  0  0
 27 24  1  0  0  0  0
 28 27  2  0  0  0  0
 28 25  1  0  0  0  0
M  END
>  <MODEL>
2

>  <REMARK>
 VINA RESULT:      -6.5      2.838      5.333
  Name = 
  8 active torsions:
  status: ('A' for Active; 'I' for Inactive)
    1  A    between atoms: C_4  and  C_8
    2  A    between atoms: C_4  and  O_11
    3  A    between atoms: C_4  and  C_21
    4  A    between atoms: N_10  and  C_23
    5  A    between atoms: N_10  and  C_27
    6  A    between atoms: O_11  and  C_18
    7  A    between atoms: C_13  and  N_14
    8  A    between atoms: C_13  and  C_18
                            x       y       z     vdW  Elec       q    Type
                         _______ _______ _______ _____ _____    ______ ____

>  <TORSDO>
F 8

$$$$
=
 OpenBabel11042414493D

 28 30  0  0  1  0  0  0  0  0999 V2000
  189.2870  176.6110  144.4390 C   0  0  2  0  0  3  0  0  0  0  0  0
  184.4300  178.9170  146.2910 N   0  0  0  0  0  0  0  0  0  0  0  0
  185.0600  178.1300  147.2560 N   0  0  0  0  0  2  0  0  0  0  0  0
  187.9680  176.7320  145.1550 C   0  0  0  0  0  0  0  0  0  0  0  0
  186.7870  176.4600  147.3010 C   0  0  0  0  0  3  0  0  0  0  0  0
  185.6730  177.1590  146.6720 C   0  0  2  0  0  3  0  0  0  0  0  0
  187.8770  176.2540  146.5620 C   0  0  0  0  0  3  0  0  0  0  0  0
  184.1040  179.0540  143.8920 C   0  0  0  0  0  1  0  0  0  0  0  0
  186.8800  177.2150  144.5030 C   0  0  0  0  0  0  0  0  0  0  0  0
  184.7180  178.4730  145.1140 C   0  0  0  0  0  0  0  0  0  0  0  0
  185.5140  177.2000  145.1850 C   0  0  2  0  0  3  0  0  0  0  0  0
  186.9990  177.5140  143.1050 N   0  0  0  0  0  2  0  0  0  0  0  0
  186.8540  177.2060  140.7080 C   0  0  0  0  0  1  0  0  0  0  0  0
  186.3580  176.7370  142.0580 C   0  0  0  0  0  2  0  0  0  0  0  0
  190.1170  171.2310  142.4830 C   0  0  0  0  0  1  0  0  0  0  0  0
  189.9090  172.6110  142.9920 C   0  0  0  0  0  0  0  0  0  0  0  0
  189.8800  172.8510  144.3690 C   0  0  0  0  0  3  0  0  0  0  0  0
  189.5450  174.9680  142.5730 C   0  0  0  0  0  3  0  0  0  0  0  0
  189.5220  175.2150  143.9510 C   0  0  0  0  0  0  0  0  0  0  0  0
  189.6860  174.1490  144.8490 C   0  0  0  0  0  3  0  0  0  0  0  0
  189.7400  173.6690  142.0950 C   0  0  0  0  0  3  0  0  0  0  0  0
  190.3410  177.0430  145.2520 O   0  0  0  0  0  0  0  0  0  0  0  0
  191.2760  177.5870  144.3700 C   0  0  0  0  0  2  0  0  0  0  0  0
  192.6470  177.0170  144.6690 C   0  0  0  0  0  2  0  0  0  0  0  0
  193.2040  174.3850  145.5130 N   0  0  0  0  0  1  0  0  0  0  0  0
  193.4650  173.7230  143.1580 N   0  0  0  0  0  1  0  0  0  0  0  0
  192.9360  175.9360  143.7390 N   0  0  0  0  0  0  0  0  0  0  0  0
  193.1910  174.7260  144.1280 C   0  0  0  0  0  0  0  0  0  0  0  0
  1  4  1  0  0  0  0
  1 22  1  1  0  0  0
  2  3  1  0  0  0  0
  4  7  1  0  0  0  0
  6  3  1  0  0  0  0
  6  5  1  6  0  0  0
  7  5  2  0  0  0  0
  8 10  1  0  0  0  0
  9  4  2  0  0  0  0
 10 11  1  0  0  0  0
 10  2  2  0  0  0  0
 11  9  1  6  0  0  0
 11  6  1  0  0  0  0
 12  9  1  0  0  0  0
 13 14  1  0  0  0  0
 14 12  1  0  0  0  0
 15 16  1  0  0  0  0
 16 17  1  0  0  0  0
 17 20  2  0  0  0  0
 18 19  2  0  0  0  0
 19  1  1  0  0  0  0
 19 20  1  0  0  0  0
 21 18  1  0  0  0  0
 21 16  2  0  0  0  0
 23 24  1  0  0  0  0
 23 22  1  0  0  0  0
 26 28  1  0  0  0  0
 27 28  2  0  0  0  0
 27 24  1  0  0  0  0
 28 25  1  0  0  0  0
M  END
>  <MODEL>
3

>  <REMARK>
 VINA RESULT:      -6.3      2.593      6.067
  Name = 
  8 active torsions:
  status: ('A' for Active; 'I' for Inactive)
    1  A    between atoms: C_4  and  C_8
    2  A    between atoms: C_4  and  O_11
    3  A    between atoms: C_4  and  C_21
    4  A    between atoms: N_10  and  C_23
    5  A    between atoms: N_10  and  C_27
    6  A    between atoms: O_11  and  C_18
    7  A    between atoms: C_13  and  N_14
    8  A    between atoms: C_13  and  C_18
                            x       y       z     vdW  Elec       q    Type
                         _______ _______ _______ _____ _____    ______ ____

>  <TORSDO>
F 8

$$$$
=
 OpenBabel11042414493D

 28 30  0  0  1  0  0  0  0  0999 V2000
  188.7180  176.0720  145.6530 C   0  0  2  0  0  3  0  0  0  0  0  0
  193.1010  175.2390  142.1270 N   0  0  0  0  0  0  0  0  0  0  0  0
  193.1380  176.4850  142.7540 N   0  0  0  0  0  2  0  0  0  0  0  0
  189.7720  176.3710  144.6210 C   0  0  0  0  0  0  0  0  0  0  0  0
  191.6050  177.8840  143.9660 C   0  0  0  0  0  3  0  0  0  0  0  0
  191.9320  176.8960  142.9450 C   0  0  2  0  0  3  0  0  0  0  0  0
  190.5640  177.6250  144.7560 C   0  0  0  0  0  3  0  0  0  0  0  0
  191.5240  173.6060  141.2740 C   0  0  0  0  0  1  0  0  0  0  0  0
  189.9480  175.5380  143.5640 C   0  0  0  0  0  0  0  0  0  0  0  0
  191.8760  174.8540  142.0010 C   0  0  0  0  0  0  0  0  0  0  0  0
  190.9140  175.9200  142.4450 C   0  0  2  0  0  3  0  0  0  0  0  0
  189.0490  174.4310  143.4110 N   0  0  0  0  0  2  0  0  0  0  0  0
  187.9000  172.9170  141.9120 C   0  0  0  0  0  1  0  0  0  0  0  0
  188.0370  174.3520  142.3720 C   0  0  0  0  0  2  0  0  0  0  0  0
  183.8560  179.0750  144.7600 C   0  0  0  0  0  1  0  0  0  0  0  0
  185.1090  178.3100  144.9860 C   0  0  0  0  0  0  0  0  0  0  0  0
  186.1940  178.4730  144.1190 C   0  0  0  0  0  3  0  0  0  0  0  0
  186.3840  176.7080  146.2790 C   0  0  0  0  0  3  0  0  0  0  0  0
  187.4740  176.8710  145.4180 C   0  0  0  0  0  0  0  0  0  0  0  0
  187.3730  177.7540  144.3310 C   0  0  0  0  0  3  0  0  0  0  0  0
  185.2040  177.4270  146.0660 C   0  0  0  0  0  3  0  0  0  0  0  0
  189.2100  176.2770  146.9470 O   0  0  0  0  0  0  0  0  0  0  0  0
  189.8760  175.0930  147.2710 C   0  0  0  0  0  2  0  0  0  0  0  0
  191.2870  175.4120  147.7220 C   0  0  0  0  0  2  0  0  0  0  0  0
  193.6050  176.7300  146.8050 N   0  0  0  0  0  1  0  0  0  0  0  0
  194.1880  174.7240  145.5040 N   0  0  0  0  0  1  0  0  0  0  0  0
  192.2380  174.7910  146.8130 N   0  0  0  0  0  0  0  0  0  0  0  0
  193.3050  175.3970  146.3930 C   0  0  0  0  0  0  0  0  0  0  0  0
  1 22  1  1  0  0  0
  2  3  1  0  0  0  0
  3  6  1  0  0  0  0
  4  7  1  0  0  0  0
  4  1  1  0  0  0  0
  5  7  2  0  0  0  0
  6  5  1  1  0  0  0
  8 10  1  0  0  0  0
  9  4  2  0  0  0  0
 10  2  2  0  0  0  0
 11 10  1  1  0  0  0
 11  6  1  0  0  0  0
 11  9  1  0  0  0  0
 12  9  1  0  0  0  0
 13 14  1  0  0  0  0
 14 12  1  0  0  0  0
 15 16  1  0  0  0  0
 16 21  1  0  0  0  0
 17 20  1  0  0  0  0
 17 16  2  0  0  0  0
 19  1  1  0  0  0  0
 19 18  1  0  0  0  0
 20 19  2  0  0  0  0
 21 18  2  0  0  0  0
 22 23  1  0  0  0  0
 23 24  1  0  0  0  0
 26 28  1  0  0  0  0
 27 24  1  0  0  0  0
 28 25  1  0  0  0  0
 28 27  2  0  0  0  0
M  END
>  <MODEL>
4

>  <REMARK>
 VINA RESULT:      -6.3      1.827      3.468
  Name = 
  8 active torsions:
  status: ('A' for Active; 'I' for Inactive)
    1  A    between atoms: C_4  and  C_8
    2  A    between atoms: C_4  and  O_11
    3  A    between atoms: C_4  and  C_21
    4  A    between atoms: N_10  and  C_23
    5  A    between atoms: N_10  and  C_27
    6  A    between atoms: O_11  and  C_18
    7  A    between atoms: C_13  and  N_14
    8  A    between atoms: C_13  and  C_18
                            x       y       z     vdW  Elec       q    Type
                         _______ _______ _______ _____ _____    ______ ____

>  <TORSDO>
F 8

$$$$
=
 OpenBabel11042414493D

 28 30  0  0  1  0  0  0  0  0999 V2000
  189.3480  175.2670  143.6110 C   0  0  2  0  0  3  0  0  0  0  0  0
  184.6430  178.4590  143.4940 N   0  0  0  0  0  0  0  0  0  0  0  0
  185.4660  178.6640  142.3850 N   0  0  0  0  0  2  0  0  0  0  0  0
  188.4630  176.4640  143.3880 C   0  0  0  0  0  0  0  0  0  0  0  0
  187.7420  178.1890  141.7810 C   0  0  0  0  0  3  0  0  0  0  0  0
  186.6950  178.5150  142.7410 C   0  0  2  0  0  3  0  0  0  0  0  0
  188.5880  177.2110  142.1060 C   0  0  0  0  0  3  0  0  0  0  0  0
  184.7650  177.9280  145.8570 C   0  0  0  0  0  1  0  0  0  0  0  0
  187.6160  176.8790  144.3650 C   0  0  0  0  0  0  0  0  0  0  0  0
  185.3620  178.1130  144.5090 C   0  0  0  0  0  0  0  0  0  0  0  0
  186.8290  178.1750  144.1920 C   0  0  2  0  0  3  0  0  0  0  0  0
  187.6560  176.2080  145.6320 N   0  0  0  0  0  2  0  0  0  0  0  0
  189.2180  177.5480  146.9070 C   0  0  0  0  0  1  0  0  0  0  0  0
  187.8560  176.8910  146.8990 C   0  0  0  0  0  2  0  0  0  0  0  0
  194.1470  176.6890  146.5100 C   0  0  0  0  0  1  0  0  0  0  0  0
  192.9180  176.3260  145.7580 C   0  0  0  0  0  0  0  0  0  0  0  0
  192.5320  177.0790  144.6450 C   0  0  0  0  0  3  0  0  0  0  0  0
  190.9910  174.8910  145.4570 C   0  0  0  0  0  3  0  0  0  0  0  0
  190.6030  175.6380  144.3380 C   0  0  0  0  0  0  0  0  0  0  0  0
  191.3760  176.7390  143.9370 C   0  0  0  0  0  3  0  0  0  0  0  0
  192.1470  175.2330  146.1640 C   0  0  0  0  0  3  0  0  0  0  0  0
  189.6380  174.6250  142.4020 O   0  0  0  0  0  0  0  0  0  0  0  0
  189.4870  173.2640  142.6720 C   0  0  0  0  0  2  0  0  0  0  0  0
  188.4630  172.6700  141.7270 C   0  0  0  0  0  2  0  0  0  0  0  0
  188.9400  171.9160  139.0510 N   0  0  0  0  0  1  0  0  0  0  0  0
  188.2500  174.1660  138.3330 N   0  0  0  0  0  1  0  0  0  0  0  0
  188.2560  173.5730  140.6060 N   0  0  0  0  0  0  0  0  0  0  0  0
  188.4750  173.2250  139.3750 C   0  0  0  0  0  0  0  0  0  0  0  0
  1 22  1  6  0  0  0
  1 19  1  0  0  0  0
  2 10  2  0  0  0  0
  3  6  1  0  0  0  0
  3  2  1  0  0  0  0
  4  1  1  0  0  0  0
  4  9  2  0  0  0  0
  5  7  2  0  0  0  0
  6  5  1  6  0  0  0
  6 11  1  0  0  0  0
  7  4  1  0  0  0  0
  9 12  1  0  0  0  0
 10  8  1  0  0  0  0
 11  9  1  6  0  0  0
 11 10  1  0  0  0  0
 12 14  1  0  0  0  0
 14 13  1  0  0  0  0
 16 21  1  0  0  0  0
 16 15  1  0  0  0  0
 17 16  2  0  0  0  0
 18 21  2  0  0  0  0
 19 18  1  0  0  0  0
 20 19  2  0  0  0  0
 20 17  1  0  0  0  0
 22 23  1  0  0  0  0
 24 23  1  0  0  0  0
 25 28  1  0  0  0  0
 26 28  1  0  0  0  0
 27 24  1  0  0  0  0
 28 27  2  0  0  0  0
M  END
>  <MODEL>
5

>  <REMARK>
 VINA RESULT:      -6.1      2.665      6.316
  Name = 
  8 active torsions:
  status: ('A' for Active; 'I' for Inactive)
    1  A    between atoms: C_4  and  C_8
    2  A    between atoms: C_4  and  O_11
    3  A    between atoms: C_4  and  C_21
    4  A    between atoms: N_10  and  C_23
    5  A    between atoms: N_10  and  C_27
    6  A    between atoms: O_11  and  C_18
    7  A    between atoms: C_13  and  N_14
    8  A    between atoms: C_13  and  C_18
                            x       y       z     vdW  Elec       q    Type
                         _______ _______ _______ _____ _____    ______ ____

>  <TORSDO>
F 8

$$$$
=
 OpenBabel11042414493D

 28 30  0  0  1  0  0  0  0  0999 V2000
  189.0130  176.7830  143.9250 C   0  0  2  0  0  3  0  0  0  0  0  0
  189.9420  172.3400  140.4990 N   0  0  0  0  0  0  0  0  0  0  0  0
  189.2290  173.3650  139.8770 N   0  0  0  0  0  2  0  0  0  0  0  0
  188.7550  175.7360  142.8740 C   0  0  0  0  0  0  0  0  0  0  0  0
  188.0050  175.3160  140.5640 C   0  0  0  0  0  3  0  0  0  0  0  0
  188.4880  173.9530  140.7520 C   0  0  2  0  0  3  0  0  0  0  0  0
  188.1300  176.1570  141.5900 C   0  0  0  0  0  3  0  0  0  0  0  0
  190.2400  171.3010  142.6690 C   0  0  0  0  0  1  0  0  0  0  0  0
  189.0370  174.4320  143.1260 C   0  0  0  0  0  0  0  0  0  0  0  0
  189.6960  172.3480  141.7650 C   0  0  0  0  0  0  0  0  0  0  0  0
  188.6400  173.3580  142.1160 C   0  0  2  0  0  3  0  0  0  0  0  0
  189.4940  174.0740  144.4370 N   0  0  0  0  0  2  0  0  0  0  0  0
  191.0080  174.7170  146.2130 C   0  0  0  0  0  1  0  0  0  0  0  0
  190.8910  174.0980  144.8380 C   0  0  0  0  0  2  0  0  0  0  0  0
  184.0800  178.3750  146.4930 C   0  0  0  0  0  1  0  0  0  0  0  0
  185.3490  177.9740  145.8310 C   0  0  0  0  0  0  0  0  0  0  0  0
  185.8070  178.6780  144.7140 C   0  0  0  0  0  3  0  0  0  0  0  0
  187.2770  176.5150  145.7030 C   0  0  0  0  0  3  0  0  0  0  0  0
  187.7440  177.2200  144.5880 C   0  0  0  0  0  0  0  0  0  0  0  0
  187.0010  178.3020  144.0920 C   0  0  0  0  0  3  0  0  0  0  0  0
  186.0830  176.8910  146.3240 C   0  0  0  0  0  3  0  0  0  0  0  0
  189.7020  177.8750  143.3870 O   0  0  0  0  0  0  0  0  0  0  0  0
  190.8060  178.0510  144.2220 C   0  0  0  0  0  2  0  0  0  0  0  0
  192.0130  177.3600  143.6210 C   0  0  0  0  0  2  0  0  0  0  0  0
  194.0860  175.4660  143.3710 N   0  0  0  0  0  1  0  0  0  0  0  0
  194.9130  176.1320  145.5910 N   0  0  0  0  0  1  0  0  0  0  0  0
  193.0160  177.1500  144.6530 N   0  0  0  0  0  0  0  0  0  0  0  0
  193.9700  176.2790  144.5370 C   0  0  0  0  0  0  0  0  0  0  0  0
  1 22  1  6  0  0  0
  1 19  1  0  0  0  0
  2 10  2  0  0  0  0
  3  2  1  0  0  0  0
  3  6  1  0  0  0  0
  4  9  2  0  0  0  0
  4  1  1  0  0  0  0
  5  7  2  0  0  0  0
  6  5  1  1  0  0  0
  6 11  1  0  0  0  0
  7  4  1  0  0  0  0
  9 12  1  0  0  0  0
 10  8  1  0  0  0  0
 11 10  1  6  0  0  0
 11  9  1  0  0  0  0
 12 14  1  0  0  0  0
 14 13  1  0  0  0  0
 16 21  1  0  0  0  0
 16 15  1  0  0  0  0
 17 16  2  0  0  0  0
 18 21  2  0  0  0  0
 19 18  1  0  0  0  0
 20 19  2  0  0  0  0
 20 17  1  0  0  0  0
 22 23  1  0  0  0  0
 24 23  1  0  0  0  0
 24 27  1  0  0  0  0
 25 28  1  0  0  0  0
 28 27  2  0  0  0  0
 28 26  1  0  0  0  0
M  END
>  <MODEL>
6

>  <REMARK>
 VINA RESULT:      -6.1      0.940      1.160
  Name = 
  8 active torsions:
  status: ('A' for Active; 'I' for Inactive)
    1  A    between atoms: C_4  and  C_8
    2  A    between atoms: C_4  and  O_11
    3  A    between atoms: C_4  and  C_21
    4  A    between atoms: N_10  and  C_23
    5  A    between atoms: N_10  and  C_27
    6  A    between atoms: O_11  and  C_18
    7  A    between atoms: C_13  and  N_14
    8  A    between atoms: C_13  and  C_18
                            x       y       z     vdW  Elec       q    Type
                         _______ _______ _______ _____ _____    ______ ____

>  <TORSDO>
F 8

$$$$
=
 OpenBabel11042414493D

 28 30  0  0  1  0  0  0  0  0999 V2000
  188.5890  175.6710  143.3130 C   0  0  2  0  0  3  0  0  0  0  0  0
  184.0290  178.7550  144.7370 N   0  0  0  0  0  0  0  0  0  0  0  0
  184.6080  179.1650  143.5350 N   0  0  0  0  0  2  0  0  0  0  0  0
  187.7030  176.8740  143.4920 C   0  0  0  0  0  0  0  0  0  0  0  0
  186.6990  178.8410  142.3970 C   0  0  0  0  0  3  0  0  0  0  0  0
  185.8810  178.9770  143.5960 C   0  0  2  0  0  3  0  0  0  0  0  0
  187.5740  177.8360  142.3630 C   0  0  0  0  0  3  0  0  0  0  0  0
  184.6270  177.8200  146.8930 C   0  0  0  0  0  1  0  0  0  0  0  0
  187.0850  177.0960  144.6810 C   0  0  0  0  0  0  0  0  0  0  0  0
  184.9360  178.2490  145.5030 C   0  0  0  0  0  0  0  0  0  0  0  0
  186.3060  178.3900  144.9050 C   0  0  2  0  0  3  0  0  0  0  0  0
  187.3740  176.2140  145.7740 N   0  0  0  0  0  2  0  0  0  0  0  0
  189.0650  175.3330  147.2650 C   0  0  0  0  0  1  0  0  0  0  0  0
  188.2650  176.5550  146.8700 C   0  0  0  0  0  2  0  0  0  0  0  0
  193.9990  176.7870  145.0310 C   0  0  0  0  0  1  0  0  0  0  0  0
  192.6090  176.4940  144.5950 C   0  0  0  0  0  0  0  0  0  0  0  0
  192.1510  175.1730  144.5600 C   0  0  0  0  0  3  0  0  0  0  0  0
  190.4510  177.2620  143.8090 C   0  0  0  0  0  3  0  0  0  0  0  0
  189.9860  175.9430  143.7780 C   0  0  0  0  0  0  0  0  0  0  0  0
  190.8440  174.8960  144.1510 C   0  0  0  0  0  3  0  0  0  0  0  0
  191.7590  177.5380  144.2180 C   0  0  0  0  0  3  0  0  0  0  0  0
  188.5780  175.2330  141.9840 O   0  0  0  0  0  0  0  0  0  0  0  0
  187.9150  174.0050  142.0160 C   0  0  0  0  0  2  0  0  0  0  0  0
  188.5180  173.0750  140.9820 C   0  0  0  0  0  2  0  0  0  0  0  0
  190.0660  171.1630  142.3600 N   0  0  0  0  0  1  0  0  0  0  0  0
  192.0960  172.3970  141.7200 N   0  0  0  0  0  1  0  0  0  0  0  0
  189.9690  173.1430  141.0570 N   0  0  0  0  0  0  0  0  0  0  0  0
  190.6800  172.2620  141.6900 C   0  0  0  0  0  0  0  0  0  0  0  0
  1 22  1  6  0  0  0
  1  4  1  0  0  0  0
  1 19  1  0  0  0  0
  2 10  2  0  0  0  0
  3  6  1  0  0  0  0
  3  2  1  0  0  0  0
  4  9  2  0  0  0  0
  6  5  1  6  0  0  0
  6 11  1  0  0  0  0
  7  5  2  0  0  0  0
  7  4  1  0  0  0  0
  9 12  1  0  0  0  0
 10  8  1  0  0  0  0
 11  9  1  6  0  0  0
 11 10  1  0  0  0  0
 12 14  1  0  0  0  0
 14 13  1  0  0  0  0
 16 15  1  0  0  0  0
 17 16  1  0  0  0  0
 18 21  1  0  0  0  0
 19 18  2  0  0  0  0
 19 20  1  0  0  0  0
 20 17  2  0  0  0  0
 21 16  2  0  0  0  0
 22 23  1  0  0  0  0
 24 27  1  0  0  0  0
 24 23  1  0  0  0  0
 27 28  2  0  0  0  0
 28 26  1  0  0  0  0
 28 25  1  0  0  0  0
M  END
>  <MODEL>
7

>  <REMARK>
 VINA RESULT:      -6.0      2.495      6.138
  Name = 
  8 active torsions:
  status: ('A' for Active; 'I' for Inactive)
    1  A    between atoms: C_4  and  C_8
    2  A    between atoms: C_4  and  O_11
    3  A    between atoms: C_4  and  C_21
    4  A    between atoms: N_10  and  C_23
    5  A    between atoms: N_10  and  C_27
    6  A    between atoms: O_11  and  C_18
    7  A    between atoms: C_13  and  N_14
    8  A    between atoms: C_13  and  C_18
                            x       y       z     vdW  Elec       q    Type
                         _______ _______ _______ _____ _____    ______ ____

>  <TORSDO>
F 8

$$$$
=
 OpenBabel11042414493D

 28 30  0  0  1  0  0  0  0  0999 V2000
  188.7090  175.8430  143.4160 C   0  0  2  0  0  3  0  0  0  0  0  0
  193.2120  172.4080  142.9080 N   0  0  0  0  0  0  0  0  0  0  0  0
  192.1630  171.8260  143.6220 N   0  0  0  0  0  2  0  0  0  0  0  0
  189.7530  174.8240  143.7890 C   0  0  0  0  0  0  0  0  0  0  0  0
  190.1600  172.5760  144.7160 C   0  0  0  0  0  3  0  0  0  0  0  0
  191.5390  172.7440  144.2750 C   0  0  2  0  0  3  0  0  0  0  0  0
  189.3160  173.5820  144.4850 C   0  0  0  0  0  3  0  0  0  0  0  0
  194.2460  174.5630  142.5010 C   0  0  0  0  0  1  0  0  0  0  0  0
  191.0650  175.0690  143.5420 C   0  0  0  0  0  0  0  0  0  0  0  0
  193.1840  173.6880  143.0640 C   0  0  0  0  0  0  0  0  0  0  0  0
  192.1300  174.1010  144.0520 C   0  0  2  0  0  3  0  0  0  0  0  0
  191.4310  176.3490  143.0090 N   0  0  0  0  0  2  0  0  0  0  0  0
  191.1910  178.6700  143.6530 C   0  0  0  0  0  1  0  0  0  0  0  0
  192.0200  177.4140  143.8040 C   0  0  0  0  0  2  0  0  0  0  0  0
  185.9410  177.9740  148.0270 C   0  0  0  0  0  1  0  0  0  0  0  0
  186.6590  177.4250  146.8470 C   0  0  0  0  0  0  0  0  0  0  0  0
  188.0510  177.5240  146.7680 C   0  0  0  0  0  3  0  0  0  0  0  0
  186.6170  176.2920  144.7070 C   0  0  0  0  0  3  0  0  0  0  0  0
  188.0110  176.3830  144.6260 C   0  0  0  0  0  0  0  0  0  0  0  0
  188.7270  177.0070  145.6600 C   0  0  0  0  0  3  0  0  0  0  0  0
  185.9420  176.8100  145.8160 C   0  0  0  0  0  3  0  0  0  0  0  0
  187.7930  175.3120  142.5020 O   0  0  0  0  0  0  0  0  0  0  0  0
  188.1840  175.8210  141.2630 C   0  0  0  0  0  2  0  0  0  0  0  0
  187.8050  177.2860  141.1730 C   0  0  0  0  0  2  0  0  0  0  0  0
  186.2580  179.0400  142.7480 N   0  0  0  0  0  1  0  0  0  0  0  0
  184.2450  178.2740  141.5600 N   0  0  0  0  0  1  0  0  0  0  0  0
  186.3630  177.4050  141.0330 N   0  0  0  0  0  0  0  0  0  0  0  0
  185.6520  178.2130  141.7560 C   0  0  0  0  0  0  0  0  0  0  0  0
  1 22  1  6  0  0  0
  1  4  1  0  0  0  0
  1 19  1  0  0  0  0
  2 10  2  0  0  0  0
  2  3  1  0  0  0  0
  3  6  1  0  0  0  0
  4  7  1  0  0  0  0
  6  5  1  6  0  0  0
  7  5  2  0  0  0  0
  8 10  1  0  0  0  0
  9  4  2  0  0  0  0
  9 11  1  0  0  0  0
 11 10  1  6  0  0  0
 11  6  1  0  0  0  0
 12  9  1  0  0  0  0
 12 14  1  0  0  0  0
 13 14  1  0  0  0  0
 16 15  1  0  0  0  0
 17 16  1  0  0  0  0
 18 21  1  0  0  0  0
 19 18  2  0  0  0  0
 19 20  1  0  0  0  0
 20 17  2  0  0  0  0
 21 16  2  0  0  0  0
 23 22  1  0  0  0  0
 24 23  1  0  0  0  0
 26 28  1  0  0  0  0
 27 24  1  0  0  0  0
 27 28  2  0  0  0  0
 28 25  1  0  0  0  0
M  END
>  <MODEL>
8

>  <REMARK>
 VINA RESULT:      -5.9      2.894      4.567
  Name = 
  8 active torsions:
  status: ('A' for Active; 'I' for Inactive)
    1  A    between atoms: C_4  and  C_8
    2  A    between atoms: C_4  and  O_11
    3  A    between atoms: C_4  and  C_21
    4  A    between atoms: N_10  and  C_23
    5  A    between atoms: N_10  and  C_27
    6  A    between atoms: O_11  and  C_18
    7  A    between atoms: C_13  and  N_14
    8  A    between atoms: C_13  and  C_18
                            x       y       z     vdW  Elec       q    Type
                         _______ _______ _______ _____ _____    ______ ____

>  <TORSDO>
F 8

$$$$
=
 OpenBabel11042414493D

 28 30  0  0  1  0  0  0  0  0999 V2000
  191.2250  174.8710  144.0650 C   0  0  2  0  0  3  0  0  0  0  0  0
  186.3550  177.7600  144.5890 N   0  0  0  0  0  0  0  0  0  0  0  0
  186.9960  177.9920  143.3700 N   0  0  0  0  0  2  0  0  0  0  0  0
  190.2420  176.0060  143.9570 C   0  0  0  0  0  0  0  0  0  0  0  0
  189.1880  177.6480  142.4500 C   0  0  0  0  0  3  0  0  0  0  0  0
  188.2700  177.9290  143.5470 C   0  0  2  0  0  3  0  0  0  0  0  0
  190.1330  176.7320  142.6620 C   0  0  0  0  0  3  0  0  0  0  0  0
  186.8470  177.2880  146.9160 C   0  0  0  0  0  1  0  0  0  0  0  0
  189.5180  176.3870  145.0410 C   0  0  0  0  0  0  0  0  0  0  0  0
  187.2320  177.4810  145.4930 C   0  0  0  0  0  0  0  0  0  0  0  0
  188.6320  177.6280  144.9680 C   0  0  2  0  0  3  0  0  0  0  0  0
  189.7820  175.7470  146.2970 N   0  0  0  0  0  2  0  0  0  0  0  0
  191.2340  175.4490  148.2100 C   0  0  0  0  0  1  0  0  0  0  0  0
  190.3750  176.4250  147.4370 C   0  0  0  0  0  2  0  0  0  0  0  0
  196.6500  176.7980  143.5060 C   0  0  0  0  0  1  0  0  0  0  0  0
  195.2580  176.2970  143.6440 C   0  0  0  0  0  0  0  0  0  0  0  0
  194.5940  175.7660  142.5340 C   0  0  0  0  0  3  0  0  0  0  0  0
  193.3030  175.8860  145.0120 C   0  0  0  0  0  3  0  0  0  0  0  0
  192.6360  175.3480  143.9060 C   0  0  0  0  0  0  0  0  0  0  0  0
  193.2850  175.2940  142.6630 C   0  0  0  0  0  3  0  0  0  0  0  0
  194.6120  176.3580  144.8820 C   0  0  0  0  0  3  0  0  0  0  0  0
  190.9290  173.8620  143.1420 O   0  0  0  0  0  0  0  0  0  0  0  0
  190.1830  172.9250  143.8600 C   0  0  0  0  0  2  0  0  0  0  0  0
  188.9990  172.4740  143.0290 C   0  0  0  0  0  2  0  0  0  0  0  0
  187.2760  174.5600  142.2330 N   0  0  0  0  0  1  0  0  0  0  0  0
  188.4010  174.6050  140.0450 N   0  0  0  0  0  1  0  0  0  0  0  0
  189.0660  173.0920  141.7140 N   0  0  0  0  0  0  0  0  0  0  0  0
  188.2740  174.0520  141.3490 C   0  0  0  0  0  0  0  0  0  0  0  0
  1 22  1  6  0  0  0
  2 10  2  0  0  0  0
  3  6  1  0  0  0  0
  3  2  1  0  0  0  0
  4  1  1  0  0  0  0
  4  9  2  0  0  0  0
  5  7  2  0  0  0  0
  6  5  1  6  0  0  0
  6 11  1  0  0  0  0
  7  4  1  0  0  0  0
  9 12  1  0  0  0  0
 10  8  1  0  0  0  0
 11  9  1  6  0  0  0
 11 10  1  0  0  0  0
 12 14  1  0  0  0  0
 14 13  1  0  0  0  0
 15 16  1  0  0  0  0
 16 21  1  0  0  0  0
 17 20  1  0  0  0  0
 17 16  2  0  0  0  0
 19  1  1  0  0  0  0
 19 18  1  0  0  0  0
 20 19  2  0  0  0  0
 21 18  2  0  0  0  0
 22 23  1  0  0  0  0
 24 23  1  0  0  0  0
 26 28  1  0  0  0  0
 27 24  1  0  0  0  0
 28 27  2  0  0  0  0
 28 25  1  0  0  0  0
M  END
>  <MODEL>
9

>  <REMARK>
 VINA RESULT:      -5.7      2.307      6.472
  Name = 
  8 active torsions:
  status: ('A' for Active; 'I' for Inactive)
    1  A    between atoms: C_4  and  C_8
    2  A    between atoms: C_4  and  O_11
    3  A    between atoms: C_4  and  C_21
    4  A    between atoms: N_10  and  C_23
    5  A    between atoms: N_10  and  C_27
    6  A    between atoms: O_11  and  C_18
    7  A    between atoms: C_13  and  N_14
    8  A    between atoms: C_13  and  C_18
                            x       y       z     vdW  Elec       q    Type
                         _______ _______ _______ _____ _____    ______ ____

>  <TORSDO>
F 8

$$$$
