=
 OpenBabel11042415313D

 47 53  0  0  1  0  0  0  0  0999 V2000
  190.5960  173.9840  144.9330 C   0  0  2  0  0  3  0  0  0  0  0  0
  190.1030  172.1710  143.2530 C   0  0  0  0  0  3  0  0  0  0  0  0
  192.1780  172.2680  140.9510 C   0  0  0  0  0  3  0  0  0  0  0  0
  194.2070  175.6750  145.7610 S   0  0  0  0  0  0  0  0  0  0  0  0
  194.2420  174.2880  144.5520 C   0  0  1  0  0  3  0  0  0  0  0  0
  190.9680  172.8530  143.9990 C   0  0  0  0  0  0  0  0  0  0  0  0
  194.0870  173.9830  142.1150 O   0  0  0  0  0  0  0  0  0  0  0  0
  194.5250  174.1930  140.8000 C   0  0  0  0  0  0  0  0  0  0  0  0
  192.9610  173.6260  144.7260 N   0  0  0  0  0  0  0  0  0  0  0  0
  196.0790  175.2650  139.2610 C   0  0  0  0  0  3  0  0  0  0  0  0
  192.3820  172.6780  143.8900 N   0  0  0  0  0  2  0  0  0  0  0  0
  191.9750  174.4170  145.3180 C   0  0  0  0  0  0  0  0  0  0  0  0
  193.8800  173.5710  139.7000 C   0  0  0  0  0  0  0  0  0  0  0  0
  194.3750  174.9090  143.1610 C   0  0  0  0  0  2  0  0  0  0  0  0
  192.4040  175.5490  145.8390 C   0  0  0  0  0  0  0  0  0  0  0  0
  192.6850  172.7120  139.8070 C   0  0  0  0  0  3  0  0  0  0  0  0
  195.6220  175.0380  140.5590 C   0  0  0  0  0  3  0  0  0  0  0  0
  190.5520  171.1470  142.3640 N   0  0  0  0  0  2  0  0  0  0  0  0
  194.3480  173.8160  138.4030 C   0  0  0  0  0  3  0  0  0  0  0  0
  195.4420  174.6530  138.1730 C   0  0  0  0  0  0  0  0  0  0  0  0
  190.9370  171.4240  140.9870 C   0  0  2  0  0  3  0  0  0  0  0  0
  189.7240  177.6080  144.6150 C   0  0  0  0  0  3  0  0  0  0  0  0
  190.6140  177.1240  145.4330 C   0  0  0  0  0  0  0  0  0  0  0  0
  191.5090  176.6360  146.2480 C   0  0  0  0  0  3  0  0  0  0  0  0
  185.6680  177.2080  142.5190 C   0  0  0  0  0  1  0  0  0  0  0  0
  186.8080  177.9230  143.0960 N   0  0  0  0  0  0  0  0  0  0  0  0
  187.9350  178.0050  142.1490 C   0  0  2  0  0  3  0  0  0  0  0  0
  187.2820  177.0830  144.2010 C   0  0  1  0  0  3  0  0  0  0  0  0
  188.7480  176.6970  143.9370 C   0  0  1  0  0  3  0  0  0  0  0  0
  187.5260  178.0040  140.7460 N   0  0  0  0  0  1  0  0  0  0  0  0
  188.8900  176.8710  142.4490 C   0  0  0  0  0  2  0  0  0  0  0  0
  186.0190  178.8790  145.4930 C   0  0  0  0  0  2  0  0  0  0  0  0
  187.0050  177.7070  145.5800 C   0  0  0  0  0  3  0  0  0  0  0  0
  186.2120  178.6300  147.9190 O   0  0  0  0  0  0  0  0  0  0  0  0
  186.4880  176.6390  146.5590 C   0  0  0  0  0  2  0  0  0  0  0  0
  185.5430  179.3220  146.8880 C   0  0  0  0  0  2  0  0  0  0  0  0
  185.8440  177.2760  147.8000 C   0  0  0  0  0  2  0  0  0  0  0  0
  191.1370  170.1290  140.2640 C   0  0  0  0  0  0  0  0  0  0  0  0
  192.0400  169.3410  140.6550 O   0  0  0  0  0  0  0  0  0  0  0  0
  189.7140  170.8400  138.3840 C   0  0  0  0  0  1  0  0  0  0  0  0
  190.3650  169.8290  139.1380 O   0  0  0  0  0  0  0  0  0  0  0  0
  189.8680  173.4570  146.1620 C   0  0  0  0  0  2  0  0  0  0  0  0
  189.1450  174.5870  146.8710 C   0  0  0  0  0  1  0  0  0  0  0  0
  195.8750  174.8580  136.8600 O   0  0  0  0  0  0  0  0  0  0  0  0
  197.0040  175.6570  136.5370 C   0  0  2  0  0  3  0  0  0  0  0  0
  196.6820  176.5380  135.3970 C   0  0  0  0  0  2  0  0  0  0  0  0
  197.4260  175.3570  135.2280 O   0  0  0  0  0  0  0  0  0  0  0  0
  1 12  1  0  0  0  0
  1 42  1  1  0  0  0
  2  6  2  0  0  0  0
  3 21  1  0  0  0  0
  4 15  1  0  0  0  0
  5 14  1  6  0  0  0
  5  9  1  0  0  0  0
  5  4  1  0  0  0  0
  6  1  1  0  0  0  0
  7 14  1  0  0  0  0
  8  7  1  0  0  0  0
  9 12  1  0  0  0  0
 10 17  2  0  0  0  0
 11  6  1  0  0  0  0
 11  9  1  0  0  0  0
 12 15  2  0  0  0  0
 13 16  1  0  0  0  0
 13  8  2  0  0  0  0
 15 24  1  0  0  0  0
 16  3  2  0  0  0  0
 17  8  1  0  0  0  0
 18  2  1  0  0  0  0
 19 13  1  0  0  0  0
 20 19  2  0  0  0  0
 20 10  1  0  0  0  0
 21 38  1  6  0  0  0
 21 18  1  0  0  0  0
 22 23  2  0  0  0  0
 23 24  2  0  0  0  0
 25 26  1  0  0  0  0
 26 28  1  0  0  0  0
 27 30  1  6  0  0  0
 27 31  1  0  0  0  0
 27 26  1  0  0  0  0
 28 33  1  1  0  0  0
 29 28  1  0  0  0  0
 29 22  1  1  0  0  0
 31 29  1  0  0  0  0
 32 33  1  0  0  0  0
 32 36  1  0  0  0  0
 33 35  1  0  0  0  0
 35 37  1  0  0  0  0
 36 34  1  0  0  0  0
 37 34  1  0  0  0  0
 38 39  2  0  0  0  0
 40 41  1  0  0  0  0
 41 38  1  0  0  0  0
 42 43  1  0  0  0  0
 44 20  1  0  0  0  0
 45 44  1  6  0  0  0
 46 45  1  0  0  0  0
 47 46  1  0  0  0  0
 47 45  1  0  0  0  0
M  END
>  <MODEL>
1

>  <REMARK>
 VINA RESULT:      -8.1      0.000      0.000
  Name = 
  8 active torsions:
  status: ('A' for Active; 'I' for Inactive)
    1  A    between atoms: C_1  and  C_28
    2  A    between atoms: C_16  and  O_44
    3  A    between atoms: C_18  and  C_19
    4  A    between atoms: C_20  and  C_26
    5  A    between atoms: C_22  and  O_32
    6  A    between atoms: C_22  and  C_45
    7  A    between atoms: C_31  and  C_43
    8  A    between atoms: C_42  and  O_44
                            x       y       z     vdW  Elec       q    Type
                         _______ _______ _______ _____ _____    ______ ____

>  <TORSDO>
F 8

$$$$
=
 OpenBabel11042415313D

 47 53  0  0  1  0  0  0  0  0999 V2000
  192.4350  176.4790  144.8130 C   0  0  2  0  0  3  0  0  0  0  0  0
  190.6000  176.9930  146.4630 C   0  0  0  0  0  3  0  0  0  0  0  0
  187.8820  177.2130  144.9860 C   0  0  0  0  0  3  0  0  0  0  0  0
  192.0900  174.5250  141.2560 S   0  0  0  0  0  0  0  0  0  0  0  0
  190.5520  174.6150  142.2610 C   0  0  1  0  0  3  0  0  0  0  0  0
  191.0580  176.3100  145.4170 C   0  0  0  0  0  0  0  0  0  0  0  0
  188.6090  176.1070  142.4990 O   0  0  0  0  0  0  0  0  0  0  0  0
  187.4740  176.7670  142.0080 C   0  0  0  0  0  0  0  0  0  0  0  0
  191.0100  174.9840  143.5890 N   0  0  0  0  0  0  0  0  0  0  0  0
  186.0040  177.2860  140.1360 C   0  0  0  0  0  3  0  0  0  0  0  0
  190.2340  175.4240  144.6560 N   0  0  0  0  0  2  0  0  0  0  0  0
  192.2670  175.5900  143.6220 C   0  0  0  0  0  0  0  0  0  0  0  0
  186.6620  177.5670  142.8530 C   0  0  0  0  0  0  0  0  0  0  0  0
  189.6750  175.7040  141.6410 C   0  0  0  0  0  2  0  0  0  0  0  0
  192.9470  175.5290  142.4950 C   0  0  0  0  0  0  0  0  0  0  0  0
  186.9450  177.8320  144.2770 C   0  0  0  0  0  3  0  0  0  0  0  0
  187.1280  176.6400  140.6510 C   0  0  0  0  0  3  0  0  0  0  0  0
  189.2660  176.7960  146.9360 N   0  0  0  0  0  2  0  0  0  0  0  0
  185.5420  178.2140  142.3170 C   0  0  0  0  0  3  0  0  0  0  0  0
  185.2030  178.0770  140.9690 C   0  0  0  0  0  0  0  0  0  0  0  0
  188.1360  177.5590  146.4240 C   0  0  2  0  0  3  0  0  0  0  0  0
  196.5350  175.3230  142.4870 C   0  0  0  0  0  3  0  0  0  0  0  0
  195.3430  175.8300  142.3590 C   0  0  0  0  0  0  0  0  0  0  0  0
  194.1450  176.3320  142.2340 C   0  0  0  0  0  3  0  0  0  0  0  0
  195.0300  171.5640  140.3380 C   0  0  0  0  0  1  0  0  0  0  0  0
  194.9150  172.8900  140.9470 N   0  0  0  0  0  0  0  0  0  0  0  0
  195.3270  173.9560  140.0140 C   0  0  2  0  0  3  0  0  0  0  0  0
  195.9020  172.9140  142.0320 C   0  0  1  0  0  3  0  0  0  0  0  0
  196.8980  174.0580  141.7720 C   0  0  1  0  0  3  0  0  0  0  0  0
  195.1140  173.6210  138.6080 N   0  0  0  0  0  1  0  0  0  0  0  0
  196.7750  174.2950  140.2910 C   0  0  0  0  0  2  0  0  0  0  0  0
  193.8880  172.2060  143.4240 C   0  0  0  0  0  2  0  0  0  0  0  0
  195.2490  172.9150  143.4250 C   0  0  0  0  0  3  0  0  0  0  0  0
  194.2030  172.5740  145.8220 O   0  0  0  0  0  0  0  0  0  0  0  0
  196.1890  172.2750  144.4600 C   0  0  0  0  0  2  0  0  0  0  0  0
  193.3690  171.9750  144.8550 C   0  0  0  0  0  2  0  0  0  0  0  0
  195.4420  171.9080  145.7520 C   0  0  0  0  0  2  0  0  0  0  0  0
  186.9350  177.2840  147.2730 C   0  0  0  0  0  0  0  0  0  0  0  0
  186.6260  176.0900  147.5320 O   0  0  0  0  0  0  0  0  0  0  0  0
  184.8420  178.5800  147.1980 C   0  0  0  0  0  1  0  0  0  0  0  0
  186.1380  178.3410  147.7230 O   0  0  0  0  0  0  0  0  0  0  0  0
  193.5060  175.9040  145.7280 C   0  0  0  0  0  2  0  0  0  0  0  0
  194.5630  176.9510  146.0260 C   0  0  0  0  0  1  0  0  0  0  0  0
  184.0690  178.7370  140.4850 O   0  0  0  0  0  0  0  0  0  0  0  0
  182.8100  178.0960  140.3400 C   0  0  2  0  0  3  0  0  0  0  0  0
  181.7350  178.9950  140.8080 C   0  0  0  0  0  2  0  0  0  0  0  0
  182.2170  177.9430  141.6080 O   0  0  0  0  0  0  0  0  0  0  0  0
  1  6  1  0  0  0  0
  1 42  1  1  0  0  0
  2 18  1  0  0  0  0
  3 21  1  0  0  0  0
  4  5  1  0  0  0  0
  4 15  1  0  0  0  0
  5 14  1  6  0  0  0
  5  9  1  0  0  0  0
  6  2  2  0  0  0  0
  8  7  1  0  0  0  0
  8 13  1  0  0  0  0
  9 12  1  0  0  0  0
  9 11  1  0  0  0  0
 10 17  1  0  0  0  0
 10 20  2  0  0  0  0
 11  6  1  0  0  0  0
 12  1  1  0  0  0  0
 13 16  1  0  0  0  0
 14  7  1  0  0  0  0
 15 12  2  0  0  0  0
 16  3  2  0  0  0  0
 17  8  2  0  0  0  0
 19 13  2  0  0  0  0
 20 19  1  0  0  0  0
 21 18  1  0  0  0  0
 21 38  1  1  0  0  0
 23 22  2  0  0  0  0
 24 23  2  0  0  0  0
 24 15  1  0  0  0  0
 25 26  1  0  0  0  0
 26 28  1  0  0  0  0
 27 30  1  6  0  0  0
 27 31  1  0  0  0  0
 27 26  1  0  0  0  0
 28 33  1  1  0  0  0
 29 28  1  0  0  0  0
 29 22  1  1  0  0  0
 31 29  1  0  0  0  0
 32 33  1  0  0  0  0
 32 36  1  0  0  0  0
 33 35  1  0  0  0  0
 35 37  1  0  0  0  0
 36 34  1  0  0  0  0
 37 34  1  0  0  0  0
 38 39  2  0  0  0  0
 38 41  1  0  0  0  0
 40 41  1  0  0  0  0
 42 43  1  0  0  0  0
 44 20  1  0  0  0  0
 45 44  1  1  0  0  0
 45 46  1  0  0  0  0
 45 47  1  0  0  0  0
 46 47  1  0  0  0  0
M  END
>  <MODEL>
2

>  <REMARK>
 VINA RESULT:      -7.6      3.695      9.199
  Name = 
  8 active torsions:
  status: ('A' for Active; 'I' for Inactive)
    1  A    between atoms: C_1  and  C_28
    2  A    between atoms: C_16  and  O_44
    3  A    between atoms: C_18  and  C_19
    4  A    between atoms: C_20  and  C_26
    5  A    between atoms: C_22  and  O_32
    6  A    between atoms: C_22  and  C_45
    7  A    between atoms: C_31  and  C_43
    8  A    between atoms: C_42  and  O_44
                            x       y       z     vdW  Elec       q    Type
                         _______ _______ _______ _____ _____    ______ ____

>  <TORSDO>
F 8

$$$$
=
 OpenBabel11042415313D

 47 53  0  0  1  0  0  0  0  0999 V2000
  192.3170  173.9720  139.9160 C   0  0  2  0  0  3  0  0  0  0  0  0
  193.1490  174.4540  142.2460 C   0  0  0  0  0  3  0  0  0  0  0  0
  190.8350  175.5630  143.9870 C   0  0  0  0  0  3  0  0  0  0  0  0
  188.5230  173.0090  138.7920 S   0  0  0  0  0  0  0  0  0  0  0  0
  188.7920  173.1760  140.6040 C   0  0  1  0  0  3  0  0  0  0  0  0
  192.2290  173.9520  141.4260 C   0  0  0  0  0  0  0  0  0  0  0  0
  188.6520  174.9380  142.3170 O   0  0  0  0  0  0  0  0  0  0  0  0
  187.9640  175.9120  143.0530 C   0  0  0  0  0  0  0  0  0  0  0  0
  190.2350  173.1260  140.7600 N   0  0  0  0  0  0  0  0  0  0  0  0
  185.9040  177.1410  143.4800 C   0  0  0  0  0  3  0  0  0  0  0  0
  190.9720  173.4550  141.8930 N   0  0  0  0  0  2  0  0  0  0  0  0
  190.9550  173.4360  139.6060 C   0  0  0  0  0  0  0  0  0  0  0  0
  188.6020  176.6440  144.0880 C   0  0  0  0  0  0  0  0  0  0  0  0
  188.2250  174.5360  141.0170 C   0  0  0  0  0  2  0  0  0  0  0  0
  190.2400  173.5000  138.5010 C   0  0  0  0  0  0  0  0  0  0  0  0
  190.0260  176.5080  144.4520 C   0  0  0  0  0  3  0  0  0  0  0  0
  186.6140  176.1770  142.7640 C   0  0  0  0  0  3  0  0  0  0  0  0
  192.9580  174.4300  143.6610 N   0  0  0  0  0  2  0  0  0  0  0  0
  187.8770  177.6120  144.7920 C   0  0  0  0  0  3  0  0  0  0  0  0
  186.5340  177.8640  144.5010 C   0  0  0  0  0  0  0  0  0  0  0  0
  192.2830  175.5060  144.3760 C   0  0  2  0  0  3  0  0  0  0  0  0
  192.1550  172.6680  135.5750 C   0  0  0  0  0  3  0  0  0  0  0  0
  191.4480  173.3750  136.4100 C   0  0  0  0  0  0  0  0  0  0  0  0
  190.7410  174.0790  137.2510 C   0  0  0  0  0  3  0  0  0  0  0  0
  191.7530  168.1670  136.3370 C   0  0  0  0  0  1  0  0  0  0  0  0
  192.0530  169.5570  136.6810 N   0  0  0  0  0  0  0  0  0  0  0  0
  190.8330  170.3070  137.0310 C   0  0  2  0  0  3  0  0  0  0  0  0
  192.5520  170.1710  135.4460 C   0  0  1  0  0  3  0  0  0  0  0  0
  191.6400  171.3540  135.0760 C   0  0  1  0  0  3  0  0  0  0  0  0
  189.7750  169.4760  137.6030 N   0  0  0  0  0  1  0  0  0  0  0  0
  190.3560  171.0400  135.7960 C   0  0  0  0  0  2  0  0  0  0  0  0
  194.6080  170.3740  136.9370 C   0  0  0  0  0  2  0  0  0  0  0  0
  194.0540  170.4960  135.5120 C   0  0  0  0  0  3  0  0  0  0  0  0
  196.6770  170.7090  135.6770 O   0  0  0  0  0  0  0  0  0  0  0  0
  194.8420  169.5920  134.5490 C   0  0  0  0  0  2  0  0  0  0  0  0
  196.1460  170.4350  136.9550 C   0  0  0  0  0  2  0  0  0  0  0  0
  196.3470  169.6100  134.8600 C   0  0  0  0  0  2  0  0  0  0  0  0
  192.4460  175.2940  145.8470 C   0  0  0  0  0  0  0  0  0  0  0  0
  191.5510  174.6730  146.4810 O   0  0  0  0  0  0  0  0  0  0  0  0
  194.2110  176.9990  146.0560 C   0  0  0  0  0  1  0  0  0  0  0  0
  193.5520  175.8280  146.5140 O   0  0  0  0  0  0  0  0  0  0  0  0
  193.3720  172.9930  139.4190 C   0  0  0  0  0  2  0  0  0  0  0  0
  194.4830  173.7340  138.7010 C   0  0  0  0  0  1  0  0  0  0  0  0
  185.8520  178.8360  145.2400 O   0  0  0  0  0  0  0  0  0  0  0  0
  184.6240  178.5760  145.9050 C   0  0  2  0  0  3  0  0  0  0  0  0
  184.8510  178.5120  147.3630 C   0  0  0  0  0  2  0  0  0  0  0  0
  184.7160  177.3470  146.5860 O   0  0  0  0  0  0  0  0  0  0  0  0
  1 42  1  1  0  0  0
  1  6  1  0  0  0  0
  2 18  1  0  0  0  0
  3 21  1  0  0  0  0
  3 16  2  0  0  0  0
  4  5  1  0  0  0  0
  5  9  1  0  0  0  0
  5 14  1  6  0  0  0
  6 11  1  0  0  0  0
  6  2  2  0  0  0  0
  7  8  1  0  0  0  0
  8 13  1  0  0  0  0
  9 11  1  0  0  0  0
 10 20  2  0  0  0  0
 12  1  1  0  0  0  0
 12  9  1  0  0  0  0
 13 16  1  0  0  0  0
 13 19  2  0  0  0  0
 14  7  1  0  0  0  0
 15  4  1  0  0  0  0
 15 12  2  0  0  0  0
 17  8  2  0  0  0  0
 17 10  1  0  0  0  0
 18 21  1  0  0  0  0
 20 19  1  0  0  0  0
 20 44  1  0  0  0  0
 21 38  1  1  0  0  0
 22 23  2  0  0  0  0
 23 24  2  0  0  0  0
 24 15  1  0  0  0  0
 25 26  1  0  0  0  0
 26 27  1  0  0  0  0
 27 30  1  6  0  0  0
 28 33  1  1  0  0  0
 28 26  1  0  0  0  0
 29 28  1  0  0  0  0
 29 22  1  1  0  0  0
 29 31  1  0  0  0  0
 31 27  1  0  0  0  0
 32 36  1  0  0  0  0
 33 32  1  0  0  0  0
 34 36  1  0  0  0  0
 35 37  1  0  0  0  0
 35 33  1  0  0  0  0
 37 34  1  0  0  0  0
 38 39  2  0  0  0  0
 38 41  1  0  0  0  0
 40 41  1  0  0  0  0
 43 42  1  0  0  0  0
 45 44  1  6  0  0  0
 45 47  1  0  0  0  0
 45 46  1  0  0  0  0
 47 46  1  0  0  0  0
M  END
>  <MODEL>
3

>  <REMARK>
 VINA RESULT:      -7.2      3.419     10.634
  Name = 
  8 active torsions:
  status: ('A' for Active; 'I' for Inactive)
    1  A    between atoms: C_1  and  C_28
    2  A    between atoms: C_16  and  O_44
    3  A    between atoms: C_18  and  C_19
    4  A    between atoms: C_20  and  C_26
    5  A    between atoms: C_22  and  O_32
    6  A    between atoms: C_22  and  C_45
    7  A    between atoms: C_31  and  C_43
    8  A    between atoms: C_42  and  O_44
                            x       y       z     vdW  Elec       q    Type
                         _______ _______ _______ _____ _____    ______ ____

>  <TORSDO>
F 8

$$$$
=
 OpenBabel11042415313D

 47 53  0  0  1  0  0  0  0  0999 V2000
  193.9210  172.5930  143.3910 C   0  0  2  0  0  3  0  0  0  0  0  0
  193.7010  174.0640  145.4260 C   0  0  0  0  0  3  0  0  0  0  0  0
  190.9340  175.4640  145.4250 C   0  0  0  0  0  3  0  0  0  0  0  0
  190.9240  170.7790  141.3130 S   0  0  0  0  0  0  0  0  0  0  0  0
  190.4000  171.6870  142.8250 C   0  0  1  0  0  3  0  0  0  0  0  0
  193.1930  173.1640  144.5880 C   0  0  0  0  0  0  0  0  0  0  0  0
  189.6450  173.9500  143.4280 O   0  0  0  0  0  0  0  0  0  0  0  0
  188.7660  175.0380  143.3380 C   0  0  0  0  0  0  0  0  0  0  0  0
  191.6320  171.8900  143.5680 N   0  0  0  0  0  0  0  0  0  0  0  0
  186.7970  176.0570  142.3270 C   0  0  0  0  0  3  0  0  0  0  0  0
  191.8310  172.7350  144.6550 N   0  0  0  0  0  2  0  0  0  0  0  0
  192.7940  171.8070  142.8000 C   0  0  0  0  0  0  0  0  0  0  0  0
  188.9410  176.1970  144.1390 C   0  0  0  0  0  0  0  0  0  0  0  0
  189.7920  173.0130  142.3640 C   0  0  0  0  0  2  0  0  0  0  0  0
  192.6260  171.3330  141.5820 C   0  0  0  0  0  0  0  0  0  0  0  0
  190.0610  176.4030  145.0780 C   0  0  0  0  0  3  0  0  0  0  0  0
  187.6880  174.9890  142.4380 C   0  0  0  0  0  3  0  0  0  0  0  0
  192.9210  174.5810  146.5050 N   0  0  0  0  0  2  0  0  0  0  0  0
  188.0420  177.2630  144.0100 C   0  0  0  0  0  3  0  0  0  0  0  0
  186.9700  177.2020  143.1160 C   0  0  0  0  0  0  0  0  0  0  0  0
  192.0700  175.7550  146.3610 C   0  0  2  0  0  3  0  0  0  0  0  0
  193.0700  172.3310  138.1580 C   0  0  0  0  0  3  0  0  0  0  0  0
  193.3620  171.8790  139.3440 C   0  0  0  0  0  0  0  0  0  0  0  0
  193.6470  171.4270  140.5340 C   0  0  0  0  0  3  0  0  0  0  0  0
  193.1930  176.4850  136.2270 C   0  0  0  0  0  1  0  0  0  0  0  0
  193.5990  175.0930  136.4260 N   0  0  0  0  0  0  0  0  0  0  0  0
  192.7080  174.1580  135.7140 C   0  0  2  0  0  3  0  0  0  0  0  0
  193.3950  174.8230  137.8540 C   0  0  1  0  0  3  0  0  0  0  0  0
  192.3980  173.6590  138.0000 C   0  0  1  0  0  3  0  0  0  0  0  0
  192.0990  174.7250  134.5130 N   0  0  0  0  0  1  0  0  0  0  0  0
  191.6600  173.6670  136.6890 C   0  0  0  0  0  2  0  0  0  0  0  0
  195.9340  175.0030  137.7500 C   0  0  0  0  0  2  0  0  0  0  0  0
  194.7190  174.6550  138.6190 C   0  0  0  0  0  3  0  0  0  0  0  0
  197.0050  174.7170  139.9300 O   0  0  0  0  0  0  0  0  0  0  0  0
  194.7110  175.5050  139.9000 C   0  0  0  0  0  2  0  0  0  0  0  0
  197.2220  175.0920  138.5880 C   0  0  0  0  0  2  0  0  0  0  0  0
  196.1250  175.6700  140.4780 C   0  0  0  0  0  2  0  0  0  0  0  0
  191.5740  176.1680  147.7110 C   0  0  0  0  0  0  0  0  0  0  0  0
  191.1440  175.2880  148.5040 O   0  0  0  0  0  0  0  0  0  0  0  0
  191.5730  177.9480  149.4130 C   0  0  0  0  0  1  0  0  0  0  0  0
  191.5390  177.5220  148.0600 O   0  0  0  0  0  0  0  0  0  0  0  0
  195.0270  171.6430  143.8290 C   0  0  0  0  0  2  0  0  0  0  0  0
  196.3320  172.0030  143.1450 C   0  0  0  0  0  1  0  0  0  0  0  0
  186.0960  178.2900  143.0320 O   0  0  0  0  0  0  0  0  0  0  0  0
  184.9810  178.4500  143.8970 C   0  0  2  0  0  3  0  0  0  0  0  0
  184.8070  179.8790  144.2280 C   0  0  0  0  0  2  0  0  0  0  0  0
  185.4190  178.9830  145.1240 O   0  0  0  0  0  0  0  0  0  0  0  0
  1 42  1  1  0  0  0
  1  6  1  0  0  0  0
  2 18  1  0  0  0  0
  3 21  1  0  0  0  0
  4 15  1  0  0  0  0
  4  5  1  0  0  0  0
  5 14  1  6  0  0  0
  5  9  1  0  0  0  0
  6 11  1  0  0  0  0
  6  2  2  0  0  0  0
  8  7  1  0  0  0  0
  8 13  1  0  0  0  0
  9 11  1  0  0  0  0
 10 17  1  0  0  0  0
 10 20  2  0  0  0  0
 12  1  1  0  0  0  0
 12  9  1  0  0  0  0
 13 16  1  0  0  0  0
 14  7  1  0  0  0  0
 15 12  2  0  0  0  0
 16  3  2  0  0  0  0
 17  8  2  0  0  0  0
 19 13  2  0  0  0  0
 20 19  1  0  0  0  0
 21 18  1  0  0  0  0
 21 38  1  1  0  0  0
 22 23  2  0  0  0  0
 23 24  2  0  0  0  0
 24 15  1  0  0  0  0
 25 26  1  0  0  0  0
 26 28  1  0  0  0  0
 27 30  1  6  0  0  0
 27 26  1  0  0  0  0
 27 31  1  0  0  0  0
 28 29  1  0  0  0  0
 28 33  1  6  0  0  0
 29 22  1  6  0  0  0
 31 29  1  0  0  0  0
 32 36  1  0  0  0  0
 32 33  1  0  0  0  0
 33 35  1  0  0  0  0
 34 37  1  0  0  0  0
 35 37  1  0  0  0  0
 36 34  1  0  0  0  0
 38 41  1  0  0  0  0
 38 39  2  0  0  0  0
 41 40  1  0  0  0  0
 43 42  1  0  0  0  0
 44 20  1  0  0  0  0
 45 44  1  6  0  0  0
 45 46  1  0  0  0  0
 45 47  1  0  0  0  0
 46 47  1  0  0  0  0
M  END
>  <MODEL>
4

>  <REMARK>
 VINA RESULT:      -6.9      3.082      9.245
  Name = 
  8 active torsions:
  status: ('A' for Active; 'I' for Inactive)
    1  A    between atoms: C_1  and  C_28
    2  A    between atoms: C_16  and  O_44
    3  A    between atoms: C_18  and  C_19
    4  A    between atoms: C_20  and  C_26
    5  A    between atoms: C_22  and  O_32
    6  A    between atoms: C_22  and  C_45
    7  A    between atoms: C_31  and  C_43
    8  A    between atoms: C_42  and  O_44
                            x       y       z     vdW  Elec       q    Type
                         _______ _______ _______ _____ _____    ______ ____

>  <TORSDO>
F 8

$$$$
=
 OpenBabel11042415313D

 47 53  0  0  1  0  0  0  0  0999 V2000
  195.0660  173.4580  144.6200 C   0  0  2  0  0  3  0  0  0  0  0  0
  193.6950  174.8570  146.2060 C   0  0  0  0  0  3  0  0  0  0  0  0
  190.9180  175.4530  144.9610 C   0  0  0  0  0  3  0  0  0  0  0  0
  193.7000  170.8560  141.8000 S   0  0  0  0  0  0  0  0  0  0  0  0
  192.4070  171.6190  142.8650 C   0  0  1  0  0  3  0  0  0  0  0  0
  193.8020  173.8350  145.3610 C   0  0  0  0  0  0  0  0  0  0  0  0
  190.9530  173.6040  142.8340 O   0  0  0  0  0  0  0  0  0  0  0  0
  189.9530  174.4110  142.2750 C   0  0  0  0  0  0  0  0  0  0  0  0
  193.1440  172.1640  143.9910 N   0  0  0  0  0  0  0  0  0  0  0  0
  188.3810  174.8370  140.4620 C   0  0  0  0  0  3  0  0  0  0  0  0
  192.6760  173.0540  144.9520 N   0  0  0  0  0  2  0  0  0  0  0  0
  194.5010  172.3830  143.7470 C   0  0  0  0  0  0  0  0  0  0  0  0
  189.5050  175.5900  142.9250 C   0  0  0  0  0  0  0  0  0  0  0  0
  191.7390  172.7200  142.0390 C   0  0  0  0  0  2  0  0  0  0  0  0
  194.9590  171.8560  142.6300 C   0  0  0  0  0  0  0  0  0  0  0  0
  190.0630  176.1120  144.1880 C   0  0  0  0  0  3  0  0  0  0  0  0
  189.3790  174.0520  141.0430 C   0  0  0  0  0  3  0  0  0  0  0  0
  192.4450  175.1640  146.8270 N   0  0  0  0  0  2  0  0  0  0  0  0
  188.5080  176.3690  142.3250 C   0  0  0  0  0  3  0  0  0  0  0  0
  187.9400  176.0020  141.1030 C   0  0  0  0  0  0  0  0  0  0  0  0
  191.4710  176.0600  146.2170 C   0  0  2  0  0  3  0  0  0  0  0  0
  196.7570  171.8500  139.5180 C   0  0  0  0  0  3  0  0  0  0  0  0
  196.5130  172.0280  140.7840 C   0  0  0  0  0  0  0  0  0  0  0  0
  196.2620  172.2020  142.0530 C   0  0  0  0  0  3  0  0  0  0  0  0
  195.8720  175.3700  136.7200 C   0  0  0  0  0  1  0  0  0  0  0  0
  196.6790  174.5650  137.6370 N   0  0  0  0  0  0  0  0  0  0  0  0
  197.3240  173.4330  136.9460 C   0  0  2  0  0  3  0  0  0  0  0  0
  195.7250  173.9610  138.5760 C   0  0  1  0  0  3  0  0  0  0  0  0
  195.8420  172.4300  138.4840 C   0  0  1  0  0  3  0  0  0  0  0  0
  197.6030  173.6880  135.5350 N   0  0  0  0  0  1  0  0  0  0  0  0
  196.4540  172.2090  137.1280 C   0  0  0  0  0  2  0  0  0  0  0  0
  196.8940  175.6600  140.0730 C   0  0  0  0  0  2  0  0  0  0  0  0
  195.8420  174.5460  139.9940 C   0  0  0  0  0  3  0  0  0  0  0  0
  195.8840  175.8330  142.2950 O   0  0  0  0  0  0  0  0  0  0  0  0
  194.4750  175.0600  140.4770 C   0  0  0  0  0  2  0  0  0  0  0  0
  196.8170  176.4160  141.4120 C   0  0  0  0  0  2  0  0  0  0  0  0
  194.6170  175.9820  141.6970 C   0  0  0  0  0  2  0  0  0  0  0  0
  190.3880  176.3520  147.2060 C   0  0  0  0  0  0  0  0  0  0  0  0
  190.5330  177.3100  148.0130 O   0  0  0  0  0  0  0  0  0  0  0  0
  187.9510  176.0410  147.0300 C   0  0  0  0  0  1  0  0  0  0  0  0
  189.2560  175.5340  147.2660 O   0  0  0  0  0  0  0  0  0  0  0  0
  196.0930  172.8530  145.5680 C   0  0  0  0  0  2  0  0  0  0  0  0
  197.2710  173.7920  145.7370 C   0  0  0  0  0  1  0  0  0  0  0  0
  186.9420  176.8100  140.5500 O   0  0  0  0  0  0  0  0  0  0  0  0
  185.8330  177.2850  141.3010 C   0  0  2  0  0  3  0  0  0  0  0  0
  185.0920  178.2910  140.5130 C   0  0  0  0  0  2  0  0  0  0  0  0
  185.9870  178.6650  141.5320 O   0  0  0  0  0  0  0  0  0  0  0  0
  1  6  1  0  0  0  0
  1 42  1  1  0  0  0
  2 18  1  0  0  0  0
  3 21  1  0  0  0  0
  4 15  1  0  0  0  0
  4  5  1  0  0  0  0
  5 14  1  6  0  0  0
  5  9  1  0  0  0  0
  6  2  2  0  0  0  0
  8  7  1  0  0  0  0
  8 13  1  0  0  0  0
  9 11  1  0  0  0  0
 10 17  1  0  0  0  0
 10 20  2  0  0  0  0
 11  6  1  0  0  0  0
 12  9  1  0  0  0  0
 12  1  1  0  0  0  0
 13 16  1  0  0  0  0
 14  7  1  0  0  0  0
 15 12  2  0  0  0  0
 16  3  2  0  0  0  0
 17  8  2  0  0  0  0
 19 13  2  0  0  0  0
 20 19  1  0  0  0  0
 21 18  1  0  0  0  0
 21 38  1  1  0  0  0
 22 23  2  0  0  0  0
 23 24  2  0  0  0  0
 24 15  1  0  0  0  0
 25 26  1  0  0  0  0
 26 28  1  0  0  0  0
 27 30  1  6  0  0  0
 27 31  1  0  0  0  0
 27 26  1  0  0  0  0
 28 33  1  1  0  0  0
 29 28  1  0  0  0  0
 29 22  1  1  0  0  0
 31 29  1  0  0  0  0
 32 36  1  0  0  0  0
 33 32  1  0  0  0  0
 33 35  1  0  0  0  0
 35 37  1  0  0  0  0
 36 34  1  0  0  0  0
 37 34  1  0  0  0  0
 38 41  1  0  0  0  0
 38 39  2  0  0  0  0
 40 41  1  0  0  0  0
 42 43  1  0  0  0  0
 44 20  1  0  0  0  0
 45 44  1  6  0  0  0
 45 47  1  0  0  0  0
 46 45  1  0  0  0  0
 46 47  1  0  0  0  0
M  END
>  <MODEL>
5

>  <REMARK>
 VINA RESULT:      -6.8      3.287      8.821
  Name = 
  8 active torsions:
  status: ('A' for Active; 'I' for Inactive)
    1  A    between atoms: C_1  and  C_28
    2  A    between atoms: C_16  and  O_44
    3  A    between atoms: C_18  and  C_19
    4  A    between atoms: C_20  and  C_26
    5  A    between atoms: C_22  and  O_32
    6  A    between atoms: C_22  and  C_45
    7  A    between atoms: C_31  and  C_43
    8  A    between atoms: C_42  and  O_44
                            x       y       z     vdW  Elec       q    Type
                         _______ _______ _______ _____ _____    ______ ____

>  <TORSDO>
F 8

$$$$
=
 OpenBabel11042415313D

 47 53  0  0  1  0  0  0  0  0999 V2000
  192.0080  176.2210  145.8060 C   0  0  2  0  0  3  0  0  0  0  0  0
  189.7800  177.1800  145.1190 C   0  0  0  0  0  3  0  0  0  0  0  0
  188.7150  175.6920  142.6150 C   0  0  0  0  0  3  0  0  0  0  0  0
  193.3750  172.4370  145.1740 S   0  0  0  0  0  0  0  0  0  0  0  0
  191.6430  172.7520  144.6380 C   0  0  1  0  0  3  0  0  0  0  0  0
  190.5690  176.1330  145.3470 C   0  0  0  0  0  0  0  0  0  0  0  0
  190.4640  173.4820  142.6050 O   0  0  0  0  0  0  0  0  0  0  0  0
  190.0990  173.3520  141.2580 C   0  0  0  0  0  0  0  0  0  0  0  0
  191.2780  173.9890  145.3050 N   0  0  0  0  0  0  0  0  0  0  0  0
  190.2870  172.1460  139.1490 C   0  0  0  0  0  3  0  0  0  0  0  0
  190.1730  174.7920  145.0460 N   0  0  0  0  0  2  0  0  0  0  0  0
  192.3610  174.7710  145.7110 C   0  0  0  0  0  0  0  0  0  0  0  0
  189.2020  174.2640  140.6440 C   0  0  0  0  0  0  0  0  0  0  0  0
  191.6670  172.9150  143.1170 C   0  0  0  0  0  2  0  0  0  0  0  0
  193.5350  174.1770  145.6430 C   0  0  0  0  0  0  0  0  0  0  0  0
  188.6200  175.4430  141.3140 C   0  0  0  0  0  3  0  0  0  0  0  0
  190.6320  172.3000  140.4920 C   0  0  0  0  0  3  0  0  0  0  0  0
  188.4450  176.9990  144.6440 N   0  0  0  0  0  2  0  0  0  0  0  0
  188.8720  174.0990  139.2930 C   0  0  0  0  0  3  0  0  0  0  0  0
  189.4020  173.0470  138.5420 C   0  0  0  0  0  0  0  0  0  0  0  0
  188.1250  176.9310  143.2240 C   0  0  2  0  0  3  0  0  0  0  0  0
  196.4650  175.0230  143.7410 C   0  0  0  0  0  3  0  0  0  0  0  0
  195.6390  174.9630  144.7460 C   0  0  0  0  0  0  0  0  0  0  0  0
  194.8080  174.8980  145.7500 C   0  0  0  0  0  3  0  0  0  0  0  0
  193.4280  174.5410  140.3420 C   0  0  0  0  0  1  0  0  0  0  0  0
  193.9800  174.3220  141.6790 N   0  0  0  0  0  0  0  0  0  0  0  0
  193.6420  175.4270  142.5960 C   0  0  2  0  0  3  0  0  0  0  0  0
  195.4380  174.3760  141.5190 C   0  0  1  0  0  3  0  0  0  0  0  0
  195.9930  175.5060  142.4040 C   0  0  1  0  0  3  0  0  0  0  0  0
  192.3850  176.0970  142.2710 N   0  0  0  0  0  1  0  0  0  0  0  0
  194.8000  176.4000  142.6140 C   0  0  0  0  0  2  0  0  0  0  0  0
  195.0730  171.8800  141.8730 C   0  0  0  0  0  2  0  0  0  0  0  0
  196.1050  173.0040  141.7100 C   0  0  0  0  0  3  0  0  0  0  0  0
  197.1380  170.5780  141.7130 O   0  0  0  0  0  0  0  0  0  0  0  0
  197.0530  172.6990  140.5380 C   0  0  0  0  0  2  0  0  0  0  0  0
  195.7330  170.4910  141.7950 C   0  0  0  0  0  2  0  0  0  0  0  0
  197.4320  171.2110  140.4900 C   0  0  0  0  0  2  0  0  0  0  0  0
  186.6400  176.9690  143.0540 C   0  0  0  0  0  0  0  0  0  0  0  0
  185.9410  176.0410  143.5440 O   0  0  0  0  0  0  0  0  0  0  0  0
  185.9010  177.9160  140.9040 C   0  0  0  0  0  1  0  0  0  0  0  0
  186.0450  177.9950  142.3140 O   0  0  0  0  0  0  0  0  0  0  0  0
  192.0900  176.6690  147.2590 C   0  0  0  0  0  2  0  0  0  0  0  0
  191.2520  175.7610  148.1390 C   0  0  0  0  0  1  0  0  0  0  0  0
  189.0340  172.9210  137.1990 O   0  0  0  0  0  0  0  0  0  0  0  0
  189.3160  173.9190  136.2280 C   0  0  2  0  0  3  0  0  0  0  0  0
  189.7870  173.2820  134.9810 C   0  0  0  0  0  2  0  0  0  0  0  0
  190.6820  173.8690  135.8940 O   0  0  0  0  0  0  0  0  0  0  0  0
  1 42  1  1  0  0  0
  2  6  2  0  0  0  0
  3 21  1  0  0  0  0
  4 15  1  0  0  0  0
  5 14  1  6  0  0  0
  5  4  1  0  0  0  0
  5  9  1  0  0  0  0
  6  1  1  0  0  0  0
  7 14  1  0  0  0  0
  8  7  1  0  0  0  0
  9 12  1  0  0  0  0
 10 17  1  0  0  0  0
 11  9  1  0  0  0  0
 11  6  1  0  0  0  0
 12  1  1  0  0  0  0
 13  8  1  0  0  0  0
 13 16  1  0  0  0  0
 15 12  2  0  0  0  0
 15 24  1  0  0  0  0
 16  3  2  0  0  0  0
 17  8  2  0  0  0  0
 18  2  1  0  0  0  0
 19 13  2  0  0  0  0
 20 10  2  0  0  0  0
 20 19  1  0  0  0  0
 21 38  1  1  0  0  0
 21 18  1  0  0  0  0
 22 23  2  0  0  0  0
 23 24  2  0  0  0  0
 25 26  1  0  0  0  0
 26 27  1  0  0  0  0
 27 30  1  6  0  0  0
 27 31  1  0  0  0  0
 28 26  1  0  0  0  0
 28 33  1  1  0  0  0
 28 29  1  0  0  0  0
 29 31  1  0  0  0  0
 29 22  1  1  0  0  0
 33 32  1  0  0  0  0
 34 36  1  0  0  0  0
 35 33  1  0  0  0  0
 36 32  1  0  0  0  0
 37 35  1  0  0  0  0
 37 34  1  0  0  0  0
 38 39  2  0  0  0  0
 40 41  1  0  0  0  0
 41 38  1  0  0  0  0
 42 43  1  0  0  0  0
 44 20  1  0  0  0  0
 45 44  1  1  0  0  0
 46 47  1  0  0  0  0
 46 45  1  0  0  0  0
 47 45  1  0  0  0  0
M  END
>  <MODEL>
6

>  <REMARK>
 VINA RESULT:      -6.8      3.007      7.404
  Name = 
  8 active torsions:
  status: ('A' for Active; 'I' for Inactive)
    1  A    between atoms: C_1  and  C_28
    2  A    between atoms: C_16  and  O_44
    3  A    between atoms: C_18  and  C_19
    4  A    between atoms: C_20  and  C_26
    5  A    between atoms: C_22  and  O_32
    6  A    between atoms: C_22  and  C_45
    7  A    between atoms: C_31  and  C_43
    8  A    between atoms: C_42  and  O_44
                            x       y       z     vdW  Elec       q    Type
                         _______ _______ _______ _____ _____    ______ ____

>  <TORSDO>
F 8

$$$$
=
 OpenBabel11042415313D

 47 53  0  0  1  0  0  0  0  0999 V2000
  194.2390  172.6590  141.6840 C   0  0  2  0  0  3  0  0  0  0  0  0
  194.6180  174.1850  143.6540 C   0  0  0  0  0  3  0  0  0  0  0  0
  191.9760  175.6290  144.3960 C   0  0  0  0  0  3  0  0  0  0  0  0
  190.7620  170.8430  140.5910 S   0  0  0  0  0  0  0  0  0  0  0  0
  190.6960  171.7970  142.1630 C   0  0  1  0  0  3  0  0  0  0  0  0
  193.8860  173.2720  143.0210 C   0  0  0  0  0  0  0  0  0  0  0  0
  190.1610  174.0870  142.8900 O   0  0  0  0  0  0  0  0  0  0  0  0
  189.3020  175.1860  143.0210 C   0  0  0  0  0  0  0  0  0  0  0  0
  192.0880  171.9990  142.5210 N   0  0  0  0  0  0  0  0  0  0  0  0
  187.1360  176.2120  142.5790 C   0  0  0  0  0  3  0  0  0  0  0  0
  192.5940  172.8670  143.4820 N   0  0  0  0  0  2  0  0  0  0  0  0
  192.9850  171.8770  141.4580 C   0  0  0  0  0  0  0  0  0  0  0  0
  189.7060  176.3610  143.7060 C   0  0  0  0  0  0  0  0  0  0  0  0
  189.9930  173.1200  141.8550 C   0  0  0  0  0  2  0  0  0  0  0  0
  192.4750  171.3750  140.3520 C   0  0  0  0  0  0  0  0  0  0  0  0
  191.0480  176.5730  144.2830 C   0  0  0  0  0  3  0  0  0  0  0  0
  188.0120  175.1320  142.4640 C   0  0  0  0  0  3  0  0  0  0  0  0
  194.1800  174.7410  144.8950 N   0  0  0  0  0  2  0  0  0  0  0  0
  188.8170  177.4390  143.8060 C   0  0  0  0  0  3  0  0  0  0  0  0
  187.5350  177.3730  143.2540 C   0  0  0  0  0  0  0  0  0  0  0  0
  193.3330  175.9250  144.9640 C   0  0  2  0  0  3  0  0  0  0  0  0
  192.1480  172.7410  137.0430 C   0  0  0  0  0  3  0  0  0  0  0  0
  192.6560  172.0840  138.0470 C   0  0  0  0  0  0  0  0  0  0  0  0
  193.1580  171.4260  139.0560 C   0  0  0  0  0  3  0  0  0  0  0  0
  191.7900  176.8570  135.0590 C   0  0  0  0  0  1  0  0  0  0  0  0
  191.9860  175.4070  135.0990 N   0  0  0  0  0  0  0  0  0  0  0  0
  190.7010  174.6840  135.1540 C   0  0  2  0  0  3  0  0  0  0  0  0
  192.6470  175.1330  136.3810 C   0  0  1  0  0  3  0  0  0  0  0  0
  191.7610  174.1780  137.2010 C   0  0  1  0  0  3  0  0  0  0  0  0
  189.5990  175.3980  134.5130 N   0  0  0  0  0  1  0  0  0  0  0  0
  190.3940  174.3720  136.6020 C   0  0  0  0  0  2  0  0  0  0  0  0
  194.6620  175.0500  134.8240 C   0  0  0  0  0  2  0  0  0  0  0  0
  194.1090  174.6880  136.2090 C   0  0  0  0  0  3  0  0  0  0  0  0
  196.6970  174.2660  135.9330 O   0  0  0  0  0  0  0  0  0  0  0  0
  194.9880  175.2930  137.3160 C   0  0  0  0  0  2  0  0  0  0  0  0
  196.1870  174.8480  134.7530 C   0  0  0  0  0  2  0  0  0  0  0  0
  196.4820  175.1970  136.9670 C   0  0  0  0  0  2  0  0  0  0  0  0
  193.2430  176.3800  146.3860 C   0  0  0  0  0  0  0  0  0  0  0  0
  194.0920  177.2020  146.8240 O   0  0  0  0  0  0  0  0  0  0  0  0
  191.3710  176.6890  147.9570 C   0  0  0  0  0  1  0  0  0  0  0  0
  192.2580  175.8550  147.2280 O   0  0  0  0  0  0  0  0  0  0  0  0
  195.4160  171.7020  141.8180 C   0  0  0  0  0  2  0  0  0  0  0  0
  196.5950  172.2000  141.0040 C   0  0  0  0  0  1  0  0  0  0  0  0
  186.6830  178.4730  143.3890 O   0  0  0  0  0  0  0  0  0  0  0  0
  185.6530  178.5320  144.3660 C   0  0  2  0  0  3  0  0  0  0  0  0
  184.3460  178.7160  143.7010 C   0  0  0  0  0  2  0  0  0  0  0  0
  185.0260  179.7900  144.3030 O   0  0  0  0  0  0  0  0  0  0  0  0
  1 42  1  1  0  0  0
  1  6  1  0  0  0  0
  2 18  1  0  0  0  0
  3 21  1  0  0  0  0
  4  5  1  0  0  0  0
  5 14  1  6  0  0  0
  5  9  1  0  0  0  0
  6 11  1  0  0  0  0
  6  2  2  0  0  0  0
  7  8  1  0  0  0  0
  8 13  1  0  0  0  0
  9 11  1  0  0  0  0
 10 20  2  0  0  0  0
 12  1  1  0  0  0  0
 12  9  1  0  0  0  0
 13 19  2  0  0  0  0
 13 16  1  0  0  0  0
 14  7  1  0  0  0  0
 15  4  1  0  0  0  0
 15 12  2  0  0  0  0
 16  3  2  0  0  0  0
 17 10  1  0  0  0  0
 17  8  2  0  0  0  0
 18 21  1  0  0  0  0
 20 44  1  0  0  0  0
 20 19  1  0  0  0  0
 21 38  1  1  0  0  0
 22 23  2  0  0  0  0
 23 24  2  0  0  0  0
 24 15  1  0  0  0  0
 25 26  1  0  0  0  0
 26 27  1  0  0  0  0
 26 28  1  0  0  0  0
 27 30  1  1  0  0  0
 27 31  1  0  0  0  0
 28 33  1  6  0  0  0
 28 29  1  0  0  0  0
 29 22  1  6  0  0  0
 31 29  1  0  0  0  0
 32 33  1  0  0  0  0
 33 35  1  0  0  0  0
 34 37  1  0  0  0  0
 36 32  1  0  0  0  0
 36 34  1  0  0  0  0
 37 35  1  0  0  0  0
 38 39  2  0  0  0  0
 38 41  1  0  0  0  0
 41 40  1  0  0  0  0
 43 42  1  0  0  0  0
 45 44  1  6  0  0  0
 46 47  1  0  0  0  0
 46 45  1  0  0  0  0
 47 45  1  0  0  0  0
M  END
>  <MODEL>
7

>  <REMARK>
 VINA RESULT:      -6.8      3.162      9.498
  Name = 
  8 active torsions:
  status: ('A' for Active; 'I' for Inactive)
    1  A    between atoms: C_1  and  C_28
    2  A    between atoms: C_16  and  O_44
    3  A    between atoms: C_18  and  C_19
    4  A    between atoms: C_20  and  C_26
    5  A    between atoms: C_22  and  O_32
    6  A    between atoms: C_22  and  C_45
    7  A    between atoms: C_31  and  C_43
    8  A    between atoms: C_42  and  O_44
                            x       y       z     vdW  Elec       q    Type
                         _______ _______ _______ _____ _____    ______ ____

>  <TORSDO>
F 8

$$$$
=
 OpenBabel11042415313D

 47 53  0  0  1  0  0  0  0  0999 V2000
  190.5820  173.9180  137.5520 C   0  0  2  0  0  3  0  0  0  0  0  0
  192.7540  174.8660  136.6940 C   0  0  0  0  0  3  0  0  0  0  0  0
  195.0720  174.0930  138.6040 C   0  0  0  0  0  3  0  0  0  0  0  0
  190.0670  170.5920  139.8470 S   0  0  0  0  0  0  0  0  0  0  0  0
  191.7950  170.9190  139.3050 C   0  0  1  0  0  3  0  0  0  0  0  0
  192.0550  173.8590  137.2130 C   0  0  0  0  0  0  0  0  0  0  0  0
  193.7750  172.1180  140.1390 O   0  0  0  0  0  0  0  0  0  0  0  0
  194.7850  172.3570  141.0810 C   0  0  0  0  0  0  0  0  0  0  0  0
  191.6570  171.8790  138.2240 N   0  0  0  0  0  0  0  0  0  0  0  0
  195.8050  171.8320  143.2300 C   0  0  0  0  0  3  0  0  0  0  0  0
  192.6650  172.6380  137.6380 N   0  0  0  0  0  2  0  0  0  0  0  0
  190.4550  172.5880  138.2250 C   0  0  0  0  0  0  0  0  0  0  0  0
  195.7850  173.3380  140.8580 C   0  0  0  0  0  0  0  0  0  0  0  0
  192.5340  171.5180  140.5030 C   0  0  0  0  0  2  0  0  0  0  0  0
  189.5370  172.1290  139.0510 C   0  0  0  0  0  0  0  0  0  0  0  0
  195.8390  174.2250  139.6800 C   0  0  0  0  0  3  0  0  0  0  0  0
  194.8120  171.6150  142.2750 C   0  0  0  0  0  3  0  0  0  0  0  0
  194.1550  174.7320  136.4480 N   0  0  0  0  0  2  0  0  0  0  0  0
  196.7710  173.5480  141.8310 C   0  0  0  0  0  3  0  0  0  0  0  0
  196.7930  172.8020  143.0120 C   0  0  0  0  0  0  0  0  0  0  0  0
  195.1580  175.0550  137.4540 C   0  0  2  0  0  3  0  0  0  0  0  0
  188.1910  174.2390  141.6310 C   0  0  0  0  0  3  0  0  0  0  0  0
  188.2570  173.5620  140.5210 C   0  0  0  0  0  0  0  0  0  0  0  0
  188.3300  172.8800  139.4100 C   0  0  0  0  0  3  0  0  0  0  0  0
  189.9960  176.9920  144.8200 C   0  0  0  0  0  1  0  0  0  0  0  0
  189.1440  175.9150  144.3130 N   0  0  0  0  0  0  0  0  0  0  0  0
  189.8950  174.6550  144.1540 C   0  0  2  0  0  3  0  0  0  0  0  0
  188.7610  176.3190  142.9560 C   0  0  1  0  0  3  0  0  0  0  0  0
  189.2460  175.2480  141.9630 C   0  0  1  0  0  3  0  0  0  0  0  0
  191.0150  174.5170  145.0810 N   0  0  0  0  0  1  0  0  0  0  0  0
  190.3490  174.5530  142.7140 C   0  0  0  0  0  2  0  0  0  0  0  0
  186.6020  176.7940  144.2240 C   0  0  0  0  0  2  0  0  0  0  0  0
  187.2720  176.6890  142.8480 C   0  0  0  0  0  3  0  0  0  0  0  0
  184.8120  177.6380  142.7870 O   0  0  0  0  0  0  0  0  0  0  0  0
  187.1000  178.0010  142.0640 C   0  0  0  0  0  2  0  0  0  0  0  0
  185.2000  177.4200  144.1260 C   0  0  0  0  0  2  0  0  0  0  0  0
  185.6980  178.5990  142.2630 C   0  0  0  0  0  2  0  0  0  0  0  0
  196.5130  175.0290  136.8210 C   0  0  0  0  0  0  0  0  0  0  0  0
  197.2690  176.0300  136.9460 O   0  0  0  0  0  0  0  0  0  0  0  0
  197.9400  173.0510  136.4780 C   0  0  0  0  0  1  0  0  0  0  0  0
  196.9070  173.9280  136.0550 O   0  0  0  0  0  0  0  0  0  0  0  0
  189.7320  173.9300  136.2890 C   0  0  0  0  0  2  0  0  0  0  0  0
  188.5830  174.9090  136.4370 C   0  0  0  0  0  1  0  0  0  0  0  0
  197.8030  173.0440  143.9470 O   0  0  0  0  0  0  0  0  0  0  0  0
  197.7880  174.1620  144.8230 C   0  0  2  0  0  3  0  0  0  0  0  0
  197.1950  173.7730  146.1180 C   0  0  0  0  0  2  0  0  0  0  0  0
  196.4560  174.4770  145.1510 O   0  0  0  0  0  0  0  0  0  0  0  0
  1 42  1  6  0  0  0
  1 12  1  0  0  0  0
  2  6  2  0  0  0  0
  3 16  2  0  0  0  0
  5  4  1  0  0  0  0
  5 14  1  1  0  0  0
  6  1  1  0  0  0  0
  6 11  1  0  0  0  0
  7 14  1  0  0  0  0
  7  8  1  0  0  0  0
  8 17  1  0  0  0  0
  9 12  1  0  0  0  0
  9  5  1  0  0  0  0
 11  9  1  0  0  0  0
 12 15  2  0  0  0  0
 13  8  2  0  0  0  0
 13 19  1  0  0  0  0
 15 24  1  0  0  0  0
 15  4  1  0  0  0  0
 16 13  1  0  0  0  0
 17 10  2  0  0  0  0
 18  2  1  0  0  0  0
 18 21  1  0  0  0  0
 19 20  2  0  0  0  0
 20 10  1  0  0  0  0
 20 44  1  0  0  0  0
 21 38  1  6  0  0  0
 21  3  1  0  0  0  0
 23 22  2  0  0  0  0
 24 23  2  0  0  0  0
 26 25  1  0  0  0  0
 27 26  1  0  0  0  0
 27 30  1  1  0  0  0
 28 33  1  1  0  0  0
 28 26  1  0  0  0  0
 29 22  1  1  0  0  0
 29 31  1  0  0  0  0
 29 28  1  0  0  0  0
 31 27  1  0  0  0  0
 33 32  1  0  0  0  0
 34 36  1  0  0  0  0
 35 37  1  0  0  0  0
 35 33  1  0  0  0  0
 36 32  1  0  0  0  0
 37 34  1  0  0  0  0
 38 39  2  0  0  0  0
 41 40  1  0  0  0  0
 41 38  1  0  0  0  0
 42 43  1  0  0  0  0
 45 44  1  6  0  0  0
 45 47  1  0  0  0  0
 45 46  1  0  0  0  0
 47 46  1  0  0  0  0
M  END
>  <MODEL>
8

>  <REMARK>
 VINA RESULT:      -6.6      3.155      6.472
  Name = 
  8 active torsions:
  status: ('A' for Active; 'I' for Inactive)
    1  A    between atoms: C_1  and  C_28
    2  A    between atoms: C_16  and  O_44
    3  A    between atoms: C_18  and  C_19
    4  A    between atoms: C_20  and  C_26
    5  A    between atoms: C_22  and  O_32
    6  A    between atoms: C_22  and  C_45
    7  A    between atoms: C_31  and  C_43
    8  A    between atoms: C_42  and  O_44
                            x       y       z     vdW  Elec       q    Type
                         _______ _______ _______ _____ _____    ______ ____

>  <TORSDO>
F 8

$$$$
=
 OpenBabel11042415313D

 47 53  0  0  1  0  0  0  0  0999 V2000
  196.4110  172.9740  143.6150 C   0  0  2  0  0  3  0  0  0  0  0  0
  196.3690  170.8480  142.2620 C   0  0  0  0  0  3  0  0  0  0  0  0
  195.2000  171.4100  139.4450 C   0  0  0  0  0  3  0  0  0  0  0  0
  196.6840  176.7910  142.2200 S   0  0  0  0  0  0  0  0  0  0  0  0
  196.8030  175.4720  140.9430 C   0  0  1  0  0  3  0  0  0  0  0  0
  196.6230  172.1500  142.3640 C   0  0  0  0  0  0  0  0  0  0  0  0
  195.2880  174.2270  139.4560 O   0  0  0  0  0  0  0  0  0  0  0  0
  194.3380  174.1410  138.4290 C   0  0  0  0  0  0  0  0  0  0  0  0
  197.0710  174.2610  141.6990 N   0  0  0  0  0  0  0  0  0  0  0  0
  192.9080  175.2620  136.8050 C   0  0  0  0  0  3  0  0  0  0  0  0
  197.0020  172.9500  141.2410 N   0  0  0  0  0  2  0  0  0  0  0  0
  196.7080  174.3250  143.0450 C   0  0  0  0  0  0  0  0  0  0  0  0
  193.8480  172.8880  137.9790 C   0  0  0  0  0  0  0  0  0  0  0  0
  195.4470  175.4090  140.2360 C   0  0  0  0  0  2  0  0  0  0  0  0
  196.3980  175.5280  143.4840 C   0  0  0  0  0  0  0  0  0  0  0  0
  194.2260  171.5850  138.5600 C   0  0  0  0  0  3  0  0  0  0  0  0
  193.8540  175.3170  137.8290 C   0  0  0  0  0  3  0  0  0  0  0  0
  196.5580  170.1610  141.0230 N   0  0  0  0  0  2  0  0  0  0  0  0
  192.8940  172.8510  136.9540 C   0  0  0  0  0  3  0  0  0  0  0  0
  192.4230  174.0250  136.3610 C   0  0  0  0  0  0  0  0  0  0  0  0
  195.5070  170.0580  140.0200 C   0  0  2  0  0  3  0  0  0  0  0  0
  193.1380  175.5750  144.9980 C   0  0  0  0  0  3  0  0  0  0  0  0
  194.4320  175.6720  144.8850 C   0  0  0  0  0  0  0  0  0  0  0  0
  195.7280  175.7680  144.7660 C   0  0  0  0  0  3  0  0  0  0  0  0
  189.7540  173.7720  142.4870 C   0  0  0  0  0  1  0  0  0  0  0  0
  190.6580  174.8270  142.9470 N   0  0  0  0  0  0  0  0  0  0  0  0
  191.9700  174.7500  142.2780 C   0  0  2  0  0  3  0  0  0  0  0  0
  190.9200  174.5340  144.3610 C   0  0  1  0  0  3  0  0  0  0  0  0
  192.4330  174.3310  144.5540 C   0  0  1  0  0  3  0  0  0  0  0  0
  191.9130  174.1750  140.9360 N   0  0  0  0  0  1  0  0  0  0  0  0
  192.9140  173.9770  143.1730 C   0  0  0  0  0  2  0  0  0  0  0  0
  189.5550  176.6790  144.5390 C   0  0  0  0  0  2  0  0  0  0  0  0
  190.2680  175.5570  145.3070 C   0  0  0  0  0  3  0  0  0  0  0  0
  188.8440  177.1740  146.8270 O   0  0  0  0  0  0  0  0  0  0  0  0
  189.2920  174.8570  146.2670 C   0  0  0  0  0  2  0  0  0  0  0  0
  188.6870  177.5410  145.4740 C   0  0  0  0  0  2  0  0  0  0  0  0
  188.3510  175.8610  146.9480 C   0  0  0  0  0  2  0  0  0  0  0  0
  195.9380  169.0980  138.9570 C   0  0  0  0  0  0  0  0  0  0  0  0
  195.1560  168.1710  138.6130 O   0  0  0  0  0  0  0  0  0  0  0  0
  197.4110  169.2890  136.9920 C   0  0  0  0  0  1  0  0  0  0  0  0
  197.2140  169.2000  138.3950 O   0  0  0  0  0  0  0  0  0  0  0  0
  197.4490  172.6320  144.6750 C   0  0  0  0  0  2  0  0  0  0  0  0
  196.7680  172.2840  145.9850 C   0  0  0  0  0  1  0  0  0  0  0  0
  191.4770  173.9330  135.3360 O   0  0  0  0  0  0  0  0  0  0  0  0
  190.1600  173.4440  135.5470 C   0  0  2  0  0  3  0  0  0  0  0  0
  189.1860  174.5410  135.3700 C   0  0  0  0  0  2  0  0  0  0  0  0
  189.5880  174.1100  136.6480 O   0  0  0  0  0  0  0  0  0  0  0  0
  1 42  1  1  0  0  0
  2  6  2  0  0  0  0
  3 21  1  0  0  0  0
  4 15  1  0  0  0  0
  5 14  1  1  0  0  0
  5  9  1  0  0  0  0
  5  4  1  0  0  0  0
  6  1  1  0  0  0  0
  7 14  1  0  0  0  0
  8  7  1  0  0  0  0
  9 12  1  0  0  0  0
 10 17  1  0  0  0  0
 11  9  1  0  0  0  0
 11  6  1  0  0  0  0
 12 15  2  0  0  0  0
 12  1  1  0  0  0  0
 13  8  1  0  0  0  0
 13 16  1  0  0  0  0
 15 24  1  0  0  0  0
 16  3  2  0  0  0  0
 17  8  2  0  0  0  0
 18  2  1  0  0  0  0
 19 13  2  0  0  0  0
 20 10  2  0  0  0  0
 20 19  1  0  0  0  0
 21 38  1  6  0  0  0
 21 18  1  0  0  0  0
 23 22  2  0  0  0  0
 24 23  2  0  0  0  0
 25 26  1  0  0  0  0
 26 28  1  0  0  0  0
 27 30  1  6  0  0  0
 27 26  1  0  0  0  0
 27 31  1  0  0  0  0
 28 29  1  0  0  0  0
 28 33  1  1  0  0  0
 29 22  1  6  0  0  0
 31 29  1  0  0  0  0
 32 33  1  0  0  0  0
 32 36  1  0  0  0  0
 33 35  1  0  0  0  0
 34 37  1  0  0  0  0
 35 37  1  0  0  0  0
 36 34  1  0  0  0  0
 39 38  2  0  0  0  0
 40 41  1  0  0  0  0
 41 38  1  0  0  0  0
 42 43  1  0  0  0  0
 44 20  1  0  0  0  0
 45 44  1  6  0  0  0
 45 47  1  0  0  0  0
 46 45  1  0  0  0  0
 46 47  1  0  0  0  0
M  END
>  <MODEL>
9

>  <REMARK>
 VINA RESULT:      -6.5      3.219      5.051
  Name = 
  8 active torsions:
  status: ('A' for Active; 'I' for Inactive)
    1  A    between atoms: C_1  and  C_28
    2  A    between atoms: C_16  and  O_44
    3  A    between atoms: C_18  and  C_19
    4  A    between atoms: C_20  and  C_26
    5  A    between atoms: C_22  and  O_32
    6  A    between atoms: C_22  and  C_45
    7  A    between atoms: C_31  and  C_43
    8  A    between atoms: C_42  and  O_44
                            x       y       z     vdW  Elec       q    Type
                         _______ _______ _______ _____ _____    ______ ____

>  <TORSDO>
F 8

$$$$
