=
 OpenBabel11042414253D

 48 51  0  0  1  0  0  0  0  0999 V2000
  192.4140  171.2600  143.6380 C   0  0  0  0  0  0  0  0  0  0  0  0
  191.0860  173.3120  142.2820 C   0  0  0  0  0  3  0  0  0  0  0  0
  191.0700  173.2910  143.6880 C   0  0  0  0  0  0  0  0  0  0  0  0
  191.7600  172.3220  141.5620 C   0  0  0  0  0  0  0  0  0  0  0  0
  192.4150  171.2900  142.2410 C   0  0  0  0  0  3  0  0  0  0  0  0
  191.7440  172.2580  144.3570 C   0  0  0  0  0  3  0  0  0  0  0  0
  190.3460  174.3400  144.4470 C   0  0  0  0  0  0  0  0  0  0  0  0
  188.9410  176.3310  145.8760 C   0  0  0  0  0  0  0  0  0  0  0  0
  190.2240  175.6380  143.9310 C   0  0  0  0  0  3  0  0  0  0  0  0
  189.7650  174.0510  145.6910 C   0  0  0  0  0  3  0  0  0  0  0  0
  189.5320  176.6230  144.6400 C   0  0  0  0  0  3  0  0  0  0  0  0
  189.0730  175.0370  146.3980 C   0  0  0  0  0  3  0  0  0  0  0  0
  188.2340  177.4020  146.6190 C   0  0  0  0  0  0  0  0  0  0  0  0
  188.8540  178.0010  147.5400 O   0  0  0  0  0  0  0  0  0  0  0  0
  186.8360  177.8060  146.3330 C   0  0  0  0  0  0  0  0  0  0  0  0
  185.7750  177.0910  146.9120 C   0  0  0  0  0  3  0  0  0  0  0  0
  186.5410  178.9170  145.5260 C   0  0  0  0  0  3  0  0  0  0  0  0
  185.2160  179.2940  145.2890 C   0  0  0  0  0  3  0  0  0  0  0  0
  184.1700  178.5670  145.8620 C   0  0  0  0  0  3  0  0  0  0  0  0
  184.4500  177.4670  146.6760 C   0  0  0  0  0  3  0  0  0  0  0  0
  191.7410  172.3410  140.0750 C   0  0  0  0  0  2  0  0  0  0  0  0
  191.1090  173.5640  139.6090 N   0  0  0  0  0  2  0  0  0  0  0  0
  189.9150  173.1760  138.8780 C   0  0  1  0  0  3  0  0  0  0  0  0
  189.6040  171.8570  139.1530 F   0  0  0  0  0  0  0  0  0  0  0  0
  187.8770  174.3140  138.4280 O   0  0  0  0  0  0  0  0  0  0  0  0
  188.7800  174.0590  139.2680 C   0  0  0  0  0  0  0  0  0  0  0  0
  188.7430  174.6390  140.5730 N   0  0  0  0  0  2  0  0  0  0  0  0
  188.1940  176.9200  141.2410 C   0  0  0  0  0  2  0  0  0  0  0  0
  187.0210  174.9400  142.2950 C   0  0  0  0  0  2  0  0  0  0  0  0
  185.9170  177.2090  142.3960 C   0  0  0  0  0  2  0  0  0  0  0  0
  187.0670  177.8870  141.6350 C   0  0  0  0  0  2  0  0  0  0  0  0
  187.6620  175.5060  141.0170 C   0  0  0  0  0  3  0  0  0  0  0  0
  186.4180  176.0190  143.2060 C   0  0  0  0  0  2  0  0  0  0  0  0
  193.1150  170.1600  144.3550 C   0  0  0  0  0  2  0  0  0  0  0  0
  194.4940  169.9420  143.7640 C   0  0  0  0  0  2  0  0  0  0  0  0
  196.3070  171.5160  144.5270 C   0  0  0  0  0  0  0  0  0  0  0  0
  195.1950  171.2120  143.6860 N   0  0  0  0  0  2  0  0  0  0  0  0
  196.6820  170.6970  145.4090 O   0  0  0  0  0  0  0  0  0  0  0  0
  196.6220  173.4890  143.0530 C   0  0  0  0  0  1  0  0  0  0  0  0
  196.9990  172.8320  144.3690 C   0  0  1  0  0  3  0  0  0  0  0  0
  197.1320  173.4550  146.6520 O   0  0  0  0  0  0  0  0  0  0  0  0
  196.7410  173.7440  145.5310 C   0  0  0  0  0  0  0  0  0  0  0  0
  195.9810  175.0110  145.3100 C   0  0  0  0  0  2  0  0  0  0  0  0
  194.7760  175.0150  146.1220 N   0  0  0  0  0  2  0  0  0  0  0  0
  194.7310  177.6900  146.0800 O   0  0  0  0  0  1  0  0  0  0  0  0
  192.4510  176.5270  146.6350 O   0  0  0  0  0  1  0  0  0  0  0  0
  193.5240  176.4970  144.0940 O   0  0  0  0  0  0  0  0  0  0  0  0
  193.8900  176.4800  145.7450 P   0  0  0  0  0  0  0  0  0  0  0  0
  1 34  1  0  0  0  0
  1  6  1  0  0  0  0
  2  3  1  0  0  0  0
  3  6  2  0  0  0  0
  3  7  1  0  0  0  0
  4  5  1  0  0  0  0
  4  2  2  0  0  0  0
  5  1  2  0  0  0  0
  7 10  1  0  0  0  0
  8 12  1  0  0  0  0
  8 13  1  0  0  0  0
  9  7  2  0  0  0  0
  9 11  1  0  0  0  0
 10 12  2  0  0  0  0
 11  8  2  0  0  0  0
 13 14  2  0  0  0  0
 15 13  1  0  0  0  0
 15 16  1  0  0  0  0
 17 15  2  0  0  0  0
 18 17  1  0  0  0  0
 18 19  2  0  0  0  0
 19 20  1  0  0  0  0
 20 16  2  0  0  0  0
 21  4  1  0  0  0  0
 22 21  1  0  0  0  0
 23 24  1  1  0  0  0
 23 26  1  0  0  0  0
 23 22  1  0  0  0  0
 25 26  2  0  0  0  0
 26 27  1  0  0  0  0
 27 32  1  0  0  0  0
 28 31  1  0  0  0  0
 29 33  1  0  0  0  0
 30 33  1  0  0  0  0
 31 30  1  0  0  0  0
 32 28  1  0  0  0  0
 32 29  1  0  0  0  0
 35 34  1  0  0  0  0
 36 38  2  0  0  0  0
 37 35  1  0  0  0  0
 37 36  1  0  0  0  0
 40 39  1  6  0  0  0
 40 36  1  0  0  0  0
 40 42  1  0  0  0  0
 42 41  2  0  0  0  0
 43 42  1  0  0  0  0
 43 44  1  0  0  0  0
 47 48  2  0  0  0  0
 48 45  1  0  0  0  0
 48 44  1  0  0  0  0
 48 46  1  0  0  0  0
M  END
>  <MODEL>
1

>  <REMARK>
 VINA RESULT:      -7.0      0.000      0.000
  Name = 
  16 active torsions:
  status: ('A' for Active; 'I' for Inactive)
    1  A    between atoms: N_1  and  C_8
    2  A    between atoms: N_1  and  C_16
    3  A    between atoms: C_2  and  C_30
    4  A    between atoms: C_3  and  C_31
    5  A    between atoms: C_5  and  C_6
    6  A    between atoms: C_6  and  C_25
    7  A    between atoms: C_8  and  C_43
    8  A    between atoms: C_9  and  C_13
    9  A    between atoms: C_13  and  C_22
   10  A    between atoms: C_16  and  C_32
   11  A    between atoms: N_19  and  C_22
   12  A    between atoms: C_28  and  C_35
   13  A    between atoms: C_28  and  N_41
   14  A    between atoms: C_30  and  C_35
   15  A    between atoms: C_33  and  N_48
   16  A    between atoms: P_39  and  N_41
                            x       y       z     vdW  Elec       q    Type
                         _______ _______ _______ _____ _____    ______ ____

>  <TORSDO>
F 16

$$$$
=
 OpenBabel11042414253D

 48 51  0  0  1  0  0  0  0  0999 V2000
  189.6270  175.2380  146.6290 C   0  0  0  0  0  0  0  0  0  0  0  0
  192.0490  174.4600  145.4720 C   0  0  0  0  0  3  0  0  0  0  0  0
  190.8690  173.7810  145.1240 C   0  0  0  0  0  0  0  0  0  0  0  0
  192.0200  175.5190  146.3850 C   0  0  0  0  0  0  0  0  0  0  0  0
  190.8100  175.8990  146.9720 C   0  0  0  0  0  3  0  0  0  0  0  0
  189.6590  174.1840  145.7090 C   0  0  0  0  0  3  0  0  0  0  0  0
  190.9070  172.6540  144.1600 C   0  0  0  0  0  0  0  0  0  0  0  0
  190.9890  170.5290  142.3000 C   0  0  0  0  0  0  0  0  0  0  0  0
  189.7940  172.3630  143.3580 C   0  0  0  0  0  3  0  0  0  0  0  0
  192.0590  171.8650  144.0270 C   0  0  0  0  0  3  0  0  0  0  0  0
  189.8340  171.3100  142.4420 C   0  0  0  0  0  3  0  0  0  0  0  0
  192.0970  170.8120  143.1090 C   0  0  0  0  0  3  0  0  0  0  0  0
  190.9950  169.4020  141.3370 C   0  0  0  0  0  0  0  0  0  0  0  0
  191.0230  168.2260  141.7920 O   0  0  0  0  0  0  0  0  0  0  0  0
  190.9680  169.5860  139.8650 C   0  0  0  0  0  0  0  0  0  0  0  0
  191.5720  170.7190  139.2970 C   0  0  0  0  0  3  0  0  0  0  0  0
  190.3860  168.6320  139.0150 C   0  0  0  0  0  3  0  0  0  0  0  0
  190.3930  168.8150  137.6280 C   0  0  0  0  0  3  0  0  0  0  0  0
  190.9880  169.9530  137.0780 C   0  0  0  0  0  3  0  0  0  0  0  0
  191.5800  170.9030  137.9120 C   0  0  0  0  0  3  0  0  0  0  0  0
  193.2830  176.2070  146.7660 C   0  0  0  0  0  2  0  0  0  0  0  0
  193.8030  176.9420  145.6260 N   0  0  0  0  0  2  0  0  0  0  0  0
  195.1340  176.4250  145.3560 C   0  0  1  0  0  3  0  0  0  0  0  0
  195.3920  175.3410  146.1760 F   0  0  0  0  0  0  0  0  0  0  0  0
  196.0300  176.6220  143.1630 O   0  0  0  0  0  0  0  0  0  0  0  0
  195.2310  176.0170  143.9260 C   0  0  0  0  0  0  0  0  0  0  0  0
  194.3950  174.9730  143.4230 N   0  0  0  0  0  2  0  0  0  0  0  0
  193.0290  174.4530  141.4700 C   0  0  0  0  0  2  0  0  0  0  0  0
  195.1540  173.1640  141.9490 C   0  0  0  0  0  2  0  0  0  0  0  0
  194.2310  173.1680  139.5990 C   0  0  0  0  0  2  0  0  0  0  0  0
  193.0410  174.0590  139.9860 C   0  0  0  0  0  2  0  0  0  0  0  0
  194.4440  174.5250  142.0390 C   0  0  0  0  0  3  0  0  0  0  0  0
  194.6760  172.3020  140.7720 C   0  0  0  0  0  2  0  0  0  0  0  0
  188.3410  175.6500  147.2560 C   0  0  0  0  0  2  0  0  0  0  0  0
  188.0840  177.1240  147.0090 C   0  0  0  0  0  2  0  0  0  0  0  0
  186.0310  178.2680  146.1040 C   0  0  0  0  0  0  0  0  0  0  0  0
  187.0480  177.2740  146.0020 N   0  0  0  0  0  2  0  0  0  0  0  0
  185.9740  179.0210  147.1140 O   0  0  0  0  0  0  0  0  0  0  0  0
  183.6890  178.8870  145.5590 C   0  0  0  0  0  1  0  0  0  0  0  0
  185.0140  178.3840  145.0140 C   0  0  1  0  0  3  0  0  0  0  0  0
  185.6140  180.4480  144.0170 O   0  0  0  0  0  0  0  0  0  0  0  0
  185.5010  179.2390  143.8830 C   0  0  0  0  0  0  0  0  0  0  0  0
  185.8320  178.6010  142.5740 C   0  0  0  0  0  2  0  0  0  0  0  0
  187.2620  178.3540  142.4900 N   0  0  0  0  0  2  0  0  0  0  0  0
  186.3440  175.8700  142.8740 O   0  0  0  0  0  1  0  0  0  0  0  0
  188.9480  176.1380  142.9420 O   0  0  0  0  0  1  0  0  0  0  0  0
  187.5250  176.3080  140.5860 O   0  0  0  0  0  0  0  0  0  0  0  0
  187.4870  176.6320  142.2450 P   0  0  0  0  0  0  0  0  0  0  0  0
  1  5  1  0  0  0  0
  1 34  1  0  0  0  0
  2  4  1  0  0  0  0
  3  2  2  0  0  0  0
  3  6  1  0  0  0  0
  4 21  1  0  0  0  0
  4  5  2  0  0  0  0
  6  1  2  0  0  0  0
  7  3  1  0  0  0  0
  8 11  2  0  0  0  0
  8 12  1  0  0  0  0
  9  7  2  0  0  0  0
 10  7  1  0  0  0  0
 11  9  1  0  0  0  0
 12 10  2  0  0  0  0
 13 14  2  0  0  0  0
 13  8  1  0  0  0  0
 15 13  1  0  0  0  0
 16 15  1  0  0  0  0
 17 15  2  0  0  0  0
 18 17  1  0  0  0  0
 19 18  2  0  0  0  0
 19 20  1  0  0  0  0
 20 16  2  0  0  0  0
 22 21  1  0  0  0  0
 23 22  1  0  0  0  0
 23 24  1  1  0  0  0
 25 26  2  0  0  0  0
 26 23  1  0  0  0  0
 27 26  1  0  0  0  0
 28 32  1  0  0  0  0
 29 32  1  0  0  0  0
 30 31  1  0  0  0  0
 30 33  1  0  0  0  0
 31 28  1  0  0  0  0
 32 27  1  0  0  0  0
 33 29  1  0  0  0  0
 35 34  1  0  0  0  0
 36 38  2  0  0  0  0
 37 36  1  0  0  0  0
 37 35  1  0  0  0  0
 40 39  1  1  0  0  0
 40 36  1  0  0  0  0
 42 41  2  0  0  0  0
 42 40  1  0  0  0  0
 43 42  1  0  0  0  0
 44 43  1  0  0  0  0
 47 48  2  0  0  0  0
 48 44  1  0  0  0  0
 48 45  1  0  0  0  0
 48 46  1  0  0  0  0
M  END
>  <MODEL>
2

>  <REMARK>
 VINA RESULT:      -6.9      3.352      9.279
  Name = 
  16 active torsions:
  status: ('A' for Active; 'I' for Inactive)
    1  A    between atoms: N_1  and  C_8
    2  A    between atoms: N_1  and  C_16
    3  A    between atoms: C_2  and  C_30
    4  A    between atoms: C_3  and  C_31
    5  A    between atoms: C_5  and  C_6
    6  A    between atoms: C_6  and  C_25
    7  A    between atoms: C_8  and  C_43
    8  A    between atoms: C_9  and  C_13
    9  A    between atoms: C_13  and  C_22
   10  A    between atoms: C_16  and  C_32
   11  A    between atoms: N_19  and  C_22
   12  A    between atoms: C_28  and  C_35
   13  A    between atoms: C_28  and  N_41
   14  A    between atoms: C_30  and  C_35
   15  A    between atoms: C_33  and  N_48
   16  A    between atoms: P_39  and  N_41
                            x       y       z     vdW  Elec       q    Type
                         _______ _______ _______ _____ _____    ______ ____

>  <TORSDO>
F 16

$$$$
=
 OpenBabel11042414253D

 48 51  0  0  1  0  0  0  0  0999 V2000
  190.0320  175.7860  145.7890 C   0  0  0  0  0  0  0  0  0  0  0  0
  191.9620  175.4410  143.7970 C   0  0  0  0  0  3  0  0  0  0  0  0
  190.6580  174.9580  143.5860 C   0  0  0  0  0  0  0  0  0  0  0  0
  192.2970  176.0920  144.9880 C   0  0  0  0  0  0  0  0  0  0  0  0
  191.3340  176.2540  145.9880 C   0  0  0  0  0  3  0  0  0  0  0  0
  189.6980  175.1420  144.5930 C   0  0  0  0  0  3  0  0  0  0  0  0
  190.3100  174.2620  142.3230 C   0  0  0  0  0  0  0  0  0  0  0  0
  189.6600  172.9070  139.9310 C   0  0  0  0  0  0  0  0  0  0  0  0
  191.2380  174.1760  141.2760 C   0  0  0  0  0  3  0  0  0  0  0  0
  189.0490  173.6700  142.1580 C   0  0  0  0  0  3  0  0  0  0  0  0
  190.9150  173.5090  140.0920 C   0  0  0  0  0  3  0  0  0  0  0  0
  188.7270  173.0040  140.9730 C   0  0  0  0  0  3  0  0  0  0  0  0
  189.3340  172.2280  138.6540 C   0  0  0  0  0  0  0  0  0  0  0  0
  188.4670  172.7510  137.9020 O   0  0  0  0  0  0  0  0  0  0  0  0
  189.9760  170.9650  138.2150 C   0  0  0  0  0  0  0  0  0  0  0  0
  190.2840  170.7780  136.8580 C   0  0  0  0  0  3  0  0  0  0  0  0
  190.3260  169.9600  139.1320 C   0  0  0  0  0  3  0  0  0  0  0  0
  190.9520  168.7870  138.7000 C   0  0  0  0  0  3  0  0  0  0  0  0
  191.2420  168.6100  137.3450 C   0  0  0  0  0  3  0  0  0  0  0  0
  190.9100  169.6060  136.4250 C   0  0  0  0  0  3  0  0  0  0  0  0
  193.6880  176.5690  145.2080 C   0  0  0  0  0  2  0  0  0  0  0  0
  194.5960  175.8540  144.3280 N   0  0  0  0  0  2  0  0  0  0  0  0
  195.3270  174.9030  145.1490 C   0  0  1  0  0  3  0  0  0  0  0  0
  195.0950  175.1640  146.4870 F   0  0  0  0  0  0  0  0  0  0  0  0
  195.0870  172.5920  145.6490 O   0  0  0  0  0  0  0  0  0  0  0  0
  194.8930  173.5180  144.8160 C   0  0  0  0  0  0  0  0  0  0  0  0
  194.2970  173.2410  143.5480 N   0  0  0  0  0  2  0  0  0  0  0  0
  193.9320  171.7560  141.6480 C   0  0  0  0  0  2  0  0  0  0  0  0
  192.4170  171.6680  143.6740 C   0  0  0  0  0  2  0  0  0  0  0  0
  192.5250  169.6630  142.1420 C   0  0  0  0  0  2  0  0  0  0  0  0
  193.5400  170.3370  141.2070 C   0  0  0  0  0  2  0  0  0  0  0  0
  193.8480  171.9110  143.1640 C   0  0  0  0  0  3  0  0  0  0  0  0
  191.6150  170.6930  142.8010 C   0  0  0  0  0  2  0  0  0  0  0  0
  189.0110  175.9640  146.8580 C   0  0  0  0  0  2  0  0  0  0  0  0
  188.4430  177.3690  146.8140 C   0  0  0  0  0  2  0  0  0  0  0  0
  186.0840  178.1170  146.3460 C   0  0  0  0  0  0  0  0  0  0  0  0
  187.2530  177.3860  145.9810 N   0  0  0  0  0  2  0  0  0  0  0  0
  186.0350  178.7360  147.4430 O   0  0  0  0  0  0  0  0  0  0  0  0
  183.6930  178.7350  146.0920 C   0  0  0  0  0  1  0  0  0  0  0  0
  184.9070  178.1140  145.4240 C   0  0  1  0  0  3  0  0  0  0  0  0
  185.7810  179.8660  144.0880 O   0  0  0  0  0  0  0  0  0  0  0  0
  185.2150  178.7830  144.1180 C   0  0  0  0  0  0  0  0  0  0  0  0
  184.8070  178.1210  142.8430 C   0  0  0  0  0  2  0  0  0  0  0  0
  185.8090  178.3600  141.8170 N   0  0  0  0  0  2  0  0  0  0  0  0
  187.3550  176.5740  140.5610 O   0  0  0  0  0  0  0  0  0  0  0  0
  186.3950  175.8120  142.8750 O   0  0  0  0  0  1  0  0  0  0  0  0
  188.3970  177.6980  142.6750 O   0  0  0  0  0  1  0  0  0  0  0  0
  187.0050  177.0840  141.9390 P   0  0  0  0  0  0  0  0  0  0  0  0
  1  5  1  0  0  0  0
  1 34  1  0  0  0  0
  2  4  1  0  0  0  0
  3  2  2  0  0  0  0
  3  6  1  0  0  0  0
  4 21  1  0  0  0  0
  4  5  2  0  0  0  0
  6  1  2  0  0  0  0
  7  3  1  0  0  0  0
  8 11  2  0  0  0  0
  8 12  1  0  0  0  0
  9  7  2  0  0  0  0
 10  7  1  0  0  0  0
 11  9  1  0  0  0  0
 12 10  2  0  0  0  0
 13  8  1  0  0  0  0
 14 13  2  0  0  0  0
 15 13  1  0  0  0  0
 15 17  1  0  0  0  0
 16 15  2  0  0  0  0
 18 17  2  0  0  0  0
 19 18  1  0  0  0  0
 20 16  1  0  0  0  0
 20 19  2  0  0  0  0
 22 23  1  0  0  0  0
 22 21  1  0  0  0  0
 23 24  1  1  0  0  0
 26 23  1  0  0  0  0
 26 25  2  0  0  0  0
 27 26  1  0  0  0  0
 28 32  1  0  0  0  0
 30 33  1  0  0  0  0
 31 28  1  0  0  0  0
 31 30  1  0  0  0  0
 32 27  1  0  0  0  0
 32 29  1  0  0  0  0
 33 29  1  0  0  0  0
 35 34  1  0  0  0  0
 36 38  2  0  0  0  0
 37 36  1  0  0  0  0
 37 35  1  0  0  0  0
 40 39  1  1  0  0  0
 40 36  1  0  0  0  0
 41 42  2  0  0  0  0
 42 40  1  0  0  0  0
 43 42  1  0  0  0  0
 44 48  1  0  0  0  0
 44 43  1  0  0  0  0
 45 48  2  0  0  0  0
 48 47  1  0  0  0  0
 48 46  1  0  0  0  0
M  END
>  <MODEL>
3

>  <REMARK>
 VINA RESULT:      -6.9      3.145      9.340
  Name = 
  16 active torsions:
  status: ('A' for Active; 'I' for Inactive)
    1  A    between atoms: N_1  and  C_8
    2  A    between atoms: N_1  and  C_16
    3  A    between atoms: C_2  and  C_30
    4  A    between atoms: C_3  and  C_31
    5  A    between atoms: C_5  and  C_6
    6  A    between atoms: C_6  and  C_25
    7  A    between atoms: C_8  and  C_43
    8  A    between atoms: C_9  and  C_13
    9  A    between atoms: C_13  and  C_22
   10  A    between atoms: C_16  and  C_32
   11  A    between atoms: N_19  and  C_22
   12  A    between atoms: C_28  and  C_35
   13  A    between atoms: C_28  and  N_41
   14  A    between atoms: C_30  and  C_35
   15  A    between atoms: C_33  and  N_48
   16  A    between atoms: P_39  and  N_41
                            x       y       z     vdW  Elec       q    Type
                         _______ _______ _______ _____ _____    ______ ____

>  <TORSDO>
F 16

$$$$
=
 OpenBabel11042414253D

 48 51  0  0  1  0  0  0  0  0999 V2000
  191.4210  175.2980  146.4340 C   0  0  0  0  0  0  0  0  0  0  0  0
  193.0080  174.1910  144.4180 C   0  0  0  0  0  3  0  0  0  0  0  0
  191.6160  174.2680  144.2360 C   0  0  0  0  0  0  0  0  0  0  0  0
  193.6010  174.6640  145.5920 C   0  0  0  0  0  0  0  0  0  0  0  0
  192.8060  175.2070  146.6040 C   0  0  0  0  0  3  0  0  0  0  0  0
  190.8310  174.8300  145.2550 C   0  0  0  0  0  3  0  0  0  0  0  0
  190.9910  173.7580  142.9910 C   0  0  0  0  0  0  0  0  0  0  0  0
  189.7770  172.8090  140.6230 C   0  0  0  0  0  0  0  0  0  0  0  0
  189.9460  172.8250  143.0480 C   0  0  0  0  0  3  0  0  0  0  0  0
  191.4290  174.2050  141.7360 C   0  0  0  0  0  3  0  0  0  0  0  0
  189.3490  172.3540  141.8770 C   0  0  0  0  0  3  0  0  0  0  0  0
  190.8300  173.7330  140.5650 C   0  0  0  0  0  3  0  0  0  0  0  0
  189.1420  172.2740  139.3940 C   0  0  0  0  0  0  0  0  0  0  0  0
  187.9320  172.5540  139.1750 O   0  0  0  0  0  0  0  0  0  0  0  0
  189.8580  171.4260  138.4100 C   0  0  0  0  0  0  0  0  0  0  0  0
  189.7440  170.0290  138.4840 C   0  0  0  0  0  3  0  0  0  0  0  0
  190.6220  171.9880  137.3730 C   0  0  0  0  0  3  0  0  0  0  0  0
  191.2700  171.1710  136.4420 C   0  0  0  0  0  3  0  0  0  0  0  0
  191.1550  169.7820  136.5350 C   0  0  0  0  0  3  0  0  0  0  0  0
  190.3900  169.2110  137.5540 C   0  0  0  0  0  3  0  0  0  0  0  0
  195.0720  174.5460  145.7820 C   0  0  0  0  0  2  0  0  0  0  0  0
  195.7420  174.6610  144.4980 N   0  0  0  0  0  2  0  0  0  0  0  0
  196.7140  173.5850  144.4240 C   0  0  1  0  0  3  0  0  0  0  0  0
  196.9820  173.1070  145.6950 F   0  0  0  0  0  0  0  0  0  0  0  0
  196.5650  171.3040  143.7720 O   0  0  0  0  0  0  0  0  0  0  0  0
  196.1820  172.4870  143.5690 C   0  0  0  0  0  0  0  0  0  0  0  0
  195.2740  172.7860  142.5070 N   0  0  0  0  0  2  0  0  0  0  0  0
  194.2850  172.3830  140.3140 C   0  0  0  0  0  2  0  0  0  0  0  0
  193.5380  171.0590  142.3390 C   0  0  0  0  0  2  0  0  0  0  0  0
  193.1150  170.1130  140.0360 C   0  0  0  0  0  2  0  0  0  0  0  0
  193.7610  171.3190  139.3380 C   0  0  0  0  0  2  0  0  0  0  0  0
  194.7160  171.7590  141.6390 C   0  0  0  0  0  3  0  0  0  0  0  0
  192.4830  170.5170  141.3630 C   0  0  0  0  0  2  0  0  0  0  0  0
  190.5800  175.8800  147.5160 C   0  0  0  0  0  2  0  0  0  0  0  0
  190.0050  177.2130  147.0760 C   0  0  0  0  0  2  0  0  0  0  0  0
  187.9050  177.3350  145.6900 C   0  0  0  0  0  0  0  0  0  0  0  0
  188.5640  177.0970  146.9330 N   0  0  0  0  0  2  0  0  0  0  0  0
  188.5620  177.7070  144.6810 O   0  0  0  0  0  0  0  0  0  0  0  0
  185.8230  176.9700  146.9910 C   0  0  0  0  0  1  0  0  0  0  0  0
  186.4220  177.1670  145.6100 C   0  0  1  0  0  3  0  0  0  0  0  0
  185.7130  179.4170  145.3890 O   0  0  0  0  0  0  0  0  0  0  0  0
  185.7670  178.3050  144.8860 C   0  0  0  0  0  0  0  0  0  0  0  0
  185.1600  178.0650  143.5430 C   0  0  0  0  0  2  0  0  0  0  0  0
  185.8710  178.8310  142.5330 N   0  0  0  0  0  2  0  0  0  0  0  0
  186.6320  176.3020  142.1000 O   0  0  0  0  0  1  0  0  0  0  0  0
  188.3560  178.1410  141.3910 O   0  0  0  0  0  1  0  0  0  0  0  0
  186.0340  177.6940  139.9720 O   0  0  0  0  0  0  0  0  0  0  0  0
  186.7290  177.6910  141.5130 P   0  0  0  0  0  0  0  0  0  0  0  0
  1  5  1  0  0  0  0
  1 34  1  0  0  0  0
  2  4  1  0  0  0  0
  3  2  2  0  0  0  0
  3  6  1  0  0  0  0
  4 21  1  0  0  0  0
  4  5  2  0  0  0  0
  6  1  2  0  0  0  0
  7  9  1  0  0  0  0
  7  3  1  0  0  0  0
  8 11  1  0  0  0  0
 10  7  2  0  0  0  0
 11  9  2  0  0  0  0
 12  8  2  0  0  0  0
 12 10  1  0  0  0  0
 13  8  1  0  0  0  0
 14 13  2  0  0  0  0
 15 16  1  0  0  0  0
 15 13  1  0  0  0  0
 17 15  2  0  0  0  0
 18 19  2  0  0  0  0
 18 17  1  0  0  0  0
 19 20  1  0  0  0  0
 20 16  2  0  0  0  0
 22 21  1  0  0  0  0
 23 22  1  0  0  0  0
 23 24  1  1  0  0  0
 26 25  2  0  0  0  0
 26 23  1  0  0  0  0
 27 26  1  0  0  0  0
 28 32  1  0  0  0  0
 30 33  1  0  0  0  0
 31 30  1  0  0  0  0
 31 28  1  0  0  0  0
 32 29  1  0  0  0  0
 32 27  1  0  0  0  0
 33 29  1  0  0  0  0
 35 34  1  0  0  0  0
 36 37  1  0  0  0  0
 37 35  1  0  0  0  0
 38 36  2  0  0  0  0
 40 36  1  0  0  0  0
 40 39  1  1  0  0  0
 42 41  2  0  0  0  0
 42 40  1  0  0  0  0
 43 42  1  0  0  0  0
 44 43  1  0  0  0  0
 46 48  1  0  0  0  0
 47 48  2  0  0  0  0
 48 45  1  0  0  0  0
 48 44  1  0  0  0  0
M  END
>  <MODEL>
4

>  <REMARK>
 VINA RESULT:      -6.9      3.219      8.993
  Name = 
  16 active torsions:
  status: ('A' for Active; 'I' for Inactive)
    1  A    between atoms: N_1  and  C_8
    2  A    between atoms: N_1  and  C_16
    3  A    between atoms: C_2  and  C_30
    4  A    between atoms: C_3  and  C_31
    5  A    between atoms: C_5  and  C_6
    6  A    between atoms: C_6  and  C_25
    7  A    between atoms: C_8  and  C_43
    8  A    between atoms: C_9  and  C_13
    9  A    between atoms: C_13  and  C_22
   10  A    between atoms: C_16  and  C_32
   11  A    between atoms: N_19  and  C_22
   12  A    between atoms: C_28  and  C_35
   13  A    between atoms: C_28  and  N_41
   14  A    between atoms: C_30  and  C_35
   15  A    between atoms: C_33  and  N_48
   16  A    between atoms: P_39  and  N_41
                            x       y       z     vdW  Elec       q    Type
                         _______ _______ _______ _____ _____    ______ ____

>  <TORSDO>
F 16

$$$$
=
 OpenBabel11042414253D

 48 51  0  0  1  0  0  0  0  0999 V2000
  189.9960  174.8140  145.8730 C   0  0  0  0  0  0  0  0  0  0  0  0
  191.9400  174.8490  143.8650 C   0  0  0  0  0  3  0  0  0  0  0  0
  190.9430  173.8590  143.8430 C   0  0  0  0  0  0  0  0  0  0  0  0
  191.9640  175.8140  144.8770 C   0  0  0  0  0  0  0  0  0  0  0  0
  190.9980  175.7890  145.8870 C   0  0  0  0  0  3  0  0  0  0  0  0
  189.9700  173.8550  144.8550 C   0  0  0  0  0  3  0  0  0  0  0  0
  190.9260  172.8340  142.7710 C   0  0  0  0  0  0  0  0  0  0  0  0
  190.8610  170.8890  140.7220 C   0  0  0  0  0  0  0  0  0  0  0  0
  190.4420  171.5420  143.0260 C   0  0  0  0  0  3  0  0  0  0  0  0
  191.3850  173.1400  141.4810 C   0  0  0  0  0  3  0  0  0  0  0  0
  190.4150  170.5810  142.0130 C   0  0  0  0  0  3  0  0  0  0  0  0
  191.3560  172.1770  140.4700 C   0  0  0  0  0  3  0  0  0  0  0  0
  190.8440  169.8420  139.6720 C   0  0  0  0  0  0  0  0  0  0  0  0
  190.8030  168.6340  140.0330 O   0  0  0  0  0  0  0  0  0  0  0  0
  190.8700  170.1420  138.2200 C   0  0  0  0  0  0  0  0  0  0  0  0
  189.6960  170.5680  137.5790 C   0  0  0  0  0  3  0  0  0  0  0  0
  192.0550  170.0510  137.4710 C   0  0  0  0  0  3  0  0  0  0  0  0
  192.0620  170.3620  136.1080 C   0  0  0  0  0  3  0  0  0  0  0  0
  190.8840  170.7740  135.4810 C   0  0  0  0  0  3  0  0  0  0  0  0
  189.7020  170.8800  136.2160 C   0  0  0  0  0  3  0  0  0  0  0  0
  193.0440  176.8360  144.9040 C   0  0  0  0  0  2  0  0  0  0  0  0
  194.1660  176.3840  144.0980 N   0  0  0  0  0  2  0  0  0  0  0  0
  195.2210  175.9900  145.0160 C   0  0  1  0  0  3  0  0  0  0  0  0
  194.9250  176.4380  146.2900 F   0  0  0  0  0  0  0  0  0  0  0  0
  195.9740  173.9400  145.9570 O   0  0  0  0  0  0  0  0  0  0  0  0
  195.3540  174.5060  145.0160 C   0  0  0  0  0  0  0  0  0  0  0  0
  194.8150  173.7400  143.9370 N   0  0  0  0  0  2  0  0  0  0  0  0
  194.6660  171.8130  142.4500 C   0  0  0  0  0  2  0  0  0  0  0  0
  193.9070  171.6550  144.8600 C   0  0  0  0  0  2  0  0  0  0  0  0
  194.4850  169.5330  143.6200 C   0  0  0  0  0  2  0  0  0  0  0  0
  194.8330  170.2900  142.3300 C   0  0  0  0  0  2  0  0  0  0  0  0
  194.9090  172.2890  143.8800 C   0  0  0  0  0  3  0  0  0  0  0  0
  193.4160  170.2690  144.4200 C   0  0  0  0  0  2  0  0  0  0  0  0
  188.9690  174.7940  146.9510 C   0  0  0  0  0  2  0  0  0  0  0  0
  188.4160  176.1880  147.1760 C   0  0  0  0  0  2  0  0  0  0  0  0
  186.2210  177.2700  146.5780 C   0  0  0  0  0  0  0  0  0  0  0  0
  187.3290  176.4360  146.2440 N   0  0  0  0  0  2  0  0  0  0  0  0
  186.1300  177.7810  147.7270 O   0  0  0  0  0  0  0  0  0  0  0  0
  184.0770  178.4270  146.1010 C   0  0  0  0  0  1  0  0  0  0  0  0
  185.1540  177.5040  145.5580 C   0  0  1  0  0  3  0  0  0  0  0  0
  186.3540  179.0610  144.2330 O   0  0  0  0  0  0  0  0  0  0  0  0
  185.7160  178.0190  144.2660 C   0  0  0  0  0  0  0  0  0  0  0  0
  185.4750  177.2530  143.0070 C   0  0  0  0  0  2  0  0  0  0  0  0
  186.2750  176.0400  143.0030 N   0  0  0  0  0  2  0  0  0  0  0  0
  187.4920  177.4700  141.0960 O   0  0  0  0  0  0  0  0  0  0  0  0
  188.2800  174.9840  141.3240 O   0  0  0  0  0  1  0  0  0  0  0  0
  188.9400  176.9000  143.1940 O   0  0  0  0  0  1  0  0  0  0  0  0
  187.7470  176.3830  142.1140 P   0  0  0  0  0  0  0  0  0  0  0  0
  1  5  1  0  0  0  0
  1 34  1  0  0  0  0
  2  4  1  0  0  0  0
  3  2  2  0  0  0  0
  3  6  1  0  0  0  0
  4 21  1  0  0  0  0
  4  5  2  0  0  0  0
  6  1  2  0  0  0  0
  7  9  1  0  0  0  0
  7  3  1  0  0  0  0
  8 11  1  0  0  0  0
 10  7  2  0  0  0  0
 11  9  2  0  0  0  0
 12  8  2  0  0  0  0
 12 10  1  0  0  0  0
 13 14  2  0  0  0  0
 13  8  1  0  0  0  0
 15 13  1  0  0  0  0
 16 15  1  0  0  0  0
 17 15  2  0  0  0  0
 18 17  1  0  0  0  0
 19 18  2  0  0  0  0
 19 20  1  0  0  0  0
 20 16  2  0  0  0  0
 22 21  1  0  0  0  0
 22 23  1  0  0  0  0
 23 24  1  1  0  0  0
 26 23  1  0  0  0  0
 26 25  2  0  0  0  0
 27 26  1  0  0  0  0
 28 32  1  0  0  0  0
 30 33  1  0  0  0  0
 31 28  1  0  0  0  0
 31 30  1  0  0  0  0
 32 27  1  0  0  0  0
 32 29  1  0  0  0  0
 33 29  1  0  0  0  0
 34 35  1  0  0  0  0
 36 38  2  0  0  0  0
 37 36  1  0  0  0  0
 37 35  1  0  0  0  0
 40 39  1  1  0  0  0
 40 36  1  0  0  0  0
 41 42  2  0  0  0  0
 42 40  1  0  0  0  0
 43 42  1  0  0  0  0
 44 43  1  0  0  0  0
 45 48  2  0  0  0  0
 46 48  1  0  0  0  0
 48 44  1  0  0  0  0
 48 47  1  0  0  0  0
M  END
>  <MODEL>
5

>  <REMARK>
 VINA RESULT:      -6.8      3.166      9.407
  Name = 
  16 active torsions:
  status: ('A' for Active; 'I' for Inactive)
    1  A    between atoms: N_1  and  C_8
    2  A    between atoms: N_1  and  C_16
    3  A    between atoms: C_2  and  C_30
    4  A    between atoms: C_3  and  C_31
    5  A    between atoms: C_5  and  C_6
    6  A    between atoms: C_6  and  C_25
    7  A    between atoms: C_8  and  C_43
    8  A    between atoms: C_9  and  C_13
    9  A    between atoms: C_13  and  C_22
   10  A    between atoms: C_16  and  C_32
   11  A    between atoms: N_19  and  C_22
   12  A    between atoms: C_28  and  C_35
   13  A    between atoms: C_28  and  N_41
   14  A    between atoms: C_30  and  C_35
   15  A    between atoms: C_33  and  N_48
   16  A    between atoms: P_39  and  N_41
                            x       y       z     vdW  Elec       q    Type
                         _______ _______ _______ _____ _____    ______ ____

>  <TORSDO>
F 16

$$$$
=
 OpenBabel11042414253D

 48 51  0  0  1  0  0  0  0  0999 V2000
  190.0880  174.6860  146.3330 C   0  0  0  0  0  0  0  0  0  0  0  0
  192.2710  174.4540  144.6030 C   0  0  0  0  0  3  0  0  0  0  0  0
  191.0650  173.8080  144.2810 C   0  0  0  0  0  0  0  0  0  0  0  0
  192.3860  175.2100  145.7730 C   0  0  0  0  0  0  0  0  0  0  0  0
  191.2970  175.3170  146.6430 C   0  0  0  0  0  3  0  0  0  0  0  0
  189.9750  173.9360  145.1570 C   0  0  0  0  0  3  0  0  0  0  0  0
  190.9500  173.0010  143.0420 C   0  0  0  0  0  0  0  0  0  0  0  0
  190.7290  171.4360  140.7000 C   0  0  0  0  0  0  0  0  0  0  0  0
  192.0770  172.3730  142.4930 C   0  0  0  0  0  3  0  0  0  0  0  0
  189.7120  172.8450  142.4020 C   0  0  0  0  0  3  0  0  0  0  0  0
  191.9680  171.6030  141.3340 C   0  0  0  0  0  3  0  0  0  0  0  0
  189.6040  172.0740  141.2420 C   0  0  0  0  0  3  0  0  0  0  0  0
  190.6460  170.6330  139.4560 C   0  0  0  0  0  0  0  0  0  0  0  0
  190.6400  169.3760  139.5550 O   0  0  0  0  0  0  0  0  0  0  0  0
  190.5680  171.2340  138.1030 C   0  0  0  0  0  0  0  0  0  0  0  0
  189.8020  170.6060  137.1080 C   0  0  0  0  0  3  0  0  0  0  0  0
  191.2130  172.4430  137.7960 C   0  0  0  0  0  3  0  0  0  0  0  0
  191.1070  173.0040  136.5200 C   0  0  0  0  0  3  0  0  0  0  0  0
  190.3490  172.3630  135.5370 C   0  0  0  0  0  3  0  0  0  0  0  0
  189.6940  171.1660  135.8320 C   0  0  0  0  0  3  0  0  0  0  0  0
  193.6790  175.8610  146.1130 C   0  0  0  0  0  2  0  0  0  0  0  0
  194.1190  176.6860  145.0010 N   0  0  0  0  0  2  0  0  0  0  0  0
  195.5080  176.3490  144.7420 C   0  0  1  0  0  3  0  0  0  0  0  0
  195.8650  175.2330  145.4790 F   0  0  0  0  0  0  0  0  0  0  0  0
  196.5050  176.7850  142.6280 O   0  0  0  0  0  0  0  0  0  0  0  0
  195.6950  176.0800  143.2890 C   0  0  0  0  0  0  0  0  0  0  0  0
  194.9320  175.0560  142.6480 N   0  0  0  0  0  2  0  0  0  0  0  0
  193.7260  174.9200  140.5320 C   0  0  0  0  0  2  0  0  0  0  0  0
  195.6080  173.3120  141.0590 C   0  0  0  0  0  2  0  0  0  0  0  0
  194.9470  173.6710  138.6490 C   0  0  0  0  0  2  0  0  0  0  0  0
  193.8460  174.6740  139.0200 C   0  0  0  0  0  2  0  0  0  0  0  0
  195.0700  174.7420  141.2330 C   0  0  0  0  0  3  0  0  0  0  0  0
  195.1520  172.6430  139.7550 C   0  0  0  0  0  2  0  0  0  0  0  0
  188.9330  174.8050  147.2630 C   0  0  0  0  0  2  0  0  0  0  0  0
  188.4790  176.2500  147.3560 C   0  0  0  0  0  2  0  0  0  0  0  0
  186.2060  177.1960  146.8250 C   0  0  0  0  0  0  0  0  0  0  0  0
  187.3730  176.4710  146.4410 N   0  0  0  0  0  2  0  0  0  0  0  0
  186.0810  177.6260  148.0030 O   0  0  0  0  0  0  0  0  0  0  0  0
  184.0610  178.3560  146.3600 C   0  0  0  0  0  1  0  0  0  0  0  0
  185.1210  177.4120  145.8200 C   0  0  1  0  0  3  0  0  0  0  0  0
  186.0790  179.0300  144.3780 O   0  0  0  0  0  0  0  0  0  0  0  0
  185.6600  177.8890  144.5050 C   0  0  0  0  0  0  0  0  0  0  0  0
  185.6670  176.9590  143.3360 C   0  0  0  0  0  2  0  0  0  0  0  0
  185.6640  177.7180  142.0970 N   0  0  0  0  0  2  0  0  0  0  0  0
  188.2170  178.1650  141.4330 O   0  0  0  0  0  1  0  0  0  0  0  0
  186.6960  177.2290  139.5180 O   0  0  0  0  0  0  0  0  0  0  0  0
  187.5120  175.6580  141.6330 O   0  0  0  0  0  1  0  0  0  0  0  0
  187.0670  177.2210  141.1700 P   0  0  0  0  0  0  0  0  0  0  0  0
  1  5  1  0  0  0  0
  1 34  1  0  0  0  0
  2  4  1  0  0  0  0
  3  2  2  0  0  0  0
  3  6  1  0  0  0  0
  4 21  1  0  0  0  0
  4  5  2  0  0  0  0
  6  1  2  0  0  0  0
  7  3  1  0  0  0  0
  8 12  2  0  0  0  0
  8 11  1  0  0  0  0
  9  7  1  0  0  0  0
 10  7  2  0  0  0  0
 11  9  2  0  0  0  0
 12 10  1  0  0  0  0
 13 14  2  0  0  0  0
 13  8  1  0  0  0  0
 15 13  1  0  0  0  0
 16 15  2  0  0  0  0
 17 15  1  0  0  0  0
 18 17  2  0  0  0  0
 19 20  2  0  0  0  0
 19 18  1  0  0  0  0
 20 16  1  0  0  0  0
 22 21  1  0  0  0  0
 23 22  1  0  0  0  0
 23 24  1  1  0  0  0
 25 26  2  0  0  0  0
 26 23  1  0  0  0  0
 27 26  1  0  0  0  0
 28 32  1  0  0  0  0
 29 32  1  0  0  0  0
 30 31  1  0  0  0  0
 30 33  1  0  0  0  0
 31 28  1  0  0  0  0
 32 27  1  0  0  0  0
 33 29  1  0  0  0  0
 34 35  1  0  0  0  0
 36 38  2  0  0  0  0
 37 36  1  0  0  0  0
 37 35  1  0  0  0  0
 40 39  1  1  0  0  0
 40 36  1  0  0  0  0
 41 42  2  0  0  0  0
 42 40  1  0  0  0  0
 43 42  1  0  0  0  0
 44 43  1  0  0  0  0
 46 48  2  0  0  0  0
 48 45  1  0  0  0  0
 48 47  1  0  0  0  0
 48 44  1  0  0  0  0
M  END
>  <MODEL>
6

>  <REMARK>
 VINA RESULT:      -6.6      3.327      9.156
  Name = 
  16 active torsions:
  status: ('A' for Active; 'I' for Inactive)
    1  A    between atoms: N_1  and  C_8
    2  A    between atoms: N_1  and  C_16
    3  A    between atoms: C_2  and  C_30
    4  A    between atoms: C_3  and  C_31
    5  A    between atoms: C_5  and  C_6
    6  A    between atoms: C_6  and  C_25
    7  A    between atoms: C_8  and  C_43
    8  A    between atoms: C_9  and  C_13
    9  A    between atoms: C_13  and  C_22
   10  A    between atoms: C_16  and  C_32
   11  A    between atoms: N_19  and  C_22
   12  A    between atoms: C_28  and  C_35
   13  A    between atoms: C_28  and  N_41
   14  A    between atoms: C_30  and  C_35
   15  A    between atoms: C_33  and  N_48
   16  A    between atoms: P_39  and  N_41
                            x       y       z     vdW  Elec       q    Type
                         _______ _______ _______ _____ _____    ______ ____

>  <TORSDO>
F 16

$$$$
=
 OpenBabel11042414253D

 48 51  0  0  1  0  0  0  0  0999 V2000
  188.0340  176.7440  145.2570 C   0  0  0  0  0  0  0  0  0  0  0  0
  187.5550  176.7510  142.5030 C   0  0  0  0  0  3  0  0  0  0  0  0
  188.3200  175.7160  143.0670 C   0  0  0  0  0  0  0  0  0  0  0  0
  187.0320  177.7700  143.3050 C   0  0  0  0  0  0  0  0  0  0  0  0
  187.2810  177.7710  144.6800 C   0  0  0  0  0  3  0  0  0  0  0  0
  188.5500  175.7220  144.4520 C   0  0  0  0  0  3  0  0  0  0  0  0
  188.8790  174.6410  142.2110 C   0  0  0  0  0  0  0  0  0  0  0  0
  189.9500  172.5770  140.6070 C   0  0  0  0  0  0  0  0  0  0  0  0
  190.2570  174.5720  141.9610 C   0  0  0  0  0  3  0  0  0  0  0  0
  188.0400  173.6710  141.6420 C   0  0  0  0  0  3  0  0  0  0  0  0
  190.7850  173.5530  141.1650 C   0  0  0  0  0  3  0  0  0  0  0  0
  188.5700  172.6530  140.8460 C   0  0  0  0  0  3  0  0  0  0  0  0
  190.5340  171.5210  139.7450 C   0  0  0  0  0  0  0  0  0  0  0  0
  191.0400  170.5070  140.3000 O   0  0  0  0  0  0  0  0  0  0  0  0
  190.5510  171.5950  138.2640 C   0  0  0  0  0  0  0  0  0  0  0  0
  189.7370  170.7290  137.5160 C   0  0  0  0  0  3  0  0  0  0  0  0
  191.3350  172.5410  137.5840 C   0  0  0  0  0  3  0  0  0  0  0  0
  191.3190  172.6090  136.1870 C   0  0  0  0  0  3  0  0  0  0  0  0
  190.5120  171.7340  135.4560 C   0  0  0  0  0  3  0  0  0  0  0  0
  189.7190  170.7950  136.1210 C   0  0  0  0  0  3  0  0  0  0  0  0
  186.2500  178.8750  142.6880 C   0  0  0  0  0  2  0  0  0  0  0  0
  185.3380  178.3330  141.6940 N   0  0  0  0  0  2  0  0  0  0  0  0
  184.0690  178.1010  142.3610 C   0  0  1  0  0  3  0  0  0  0  0  0
  183.9190  178.9920  143.4080 F   0  0  0  0  0  0  0  0  0  0  0  0
  183.2030  178.2410  140.1510 O   0  0  0  0  0  0  0  0  0  0  0  0
  182.9540  178.2680  141.3860 C   0  0  0  0  0  0  0  0  0  0  0  0
  181.6240  178.4950  141.8550 N   0  0  0  0  0  2  0  0  0  0  0  0
  180.2610  180.1480  140.6890 C   0  0  0  0  0  2  0  0  0  0  0  0
  179.2390  177.9980  141.5520 C   0  0  0  0  0  2  0  0  0  0  0  0
  178.0530  179.2640  139.7180 C   0  0  0  0  0  2  0  0  0  0  0  0
  179.1220  180.3650  139.6810 C   0  0  0  0  0  2  0  0  0  0  0  0
  180.4920  178.6620  140.9560 C   0  0  0  0  0  3  0  0  0  0  0  0
  177.9270  178.6630  141.1130 C   0  0  0  0  0  2  0  0  0  0  0  0
  188.2950  176.7510  146.7220 C   0  0  0  0  0  2  0  0  0  0  0  0
  189.5650  177.5210  147.0270 C   0  0  0  0  0  2  0  0  0  0  0  0
  191.6740  176.4170  146.2030 C   0  0  0  0  0  0  0  0  0  0  0  0
  190.6680  176.5910  147.1990 N   0  0  0  0  0  2  0  0  0  0  0  0
  191.6030  177.0400  145.1090 O   0  0  0  0  0  0  0  0  0  0  0  0
  192.6590  174.2190  145.6020 C   0  0  0  0  0  1  0  0  0  0  0  0
  192.7960  175.4640  146.4610 C   0  0  1  0  0  3  0  0  0  0  0  0
  194.4240  177.1350  146.8790 O   0  0  0  0  0  0  0  0  0  0  0  0
  194.1360  176.1110  146.2770 C   0  0  0  0  0  0  0  0  0  0  0  0
  195.1190  175.5020  145.3320 C   0  0  0  0  0  2  0  0  0  0  0  0
  195.4970  176.4690  144.3160 N   0  0  0  0  0  2  0  0  0  0  0  0
  196.6000  174.6920  142.6460 O   0  0  0  0  0  1  0  0  0  0  0  0
  195.5220  176.7930  141.5140 O   0  0  0  0  0  0  0  0  0  0  0  0
  193.9900  174.7960  142.6410 O   0  0  0  0  0  1  0  0  0  0  0  0
  195.4400  175.6550  142.7640 P   0  0  0  0  0  0  0  0  0  0  0  0
  1 34  1  0  0  0  0
  2  3  2  0  0  0  0
  2  4  1  0  0  0  0
  3  6  1  0  0  0  0
  4  5  2  0  0  0  0
  5  1  1  0  0  0  0
  6  1  2  0  0  0  0
  7  3  1  0  0  0  0
  8 12  2  0  0  0  0
  8 11  1  0  0  0  0
  9  7  1  0  0  0  0
 10  7  2  0  0  0  0
 11  9  2  0  0  0  0
 12 10  1  0  0  0  0
 13 14  2  0  0  0  0
 13  8  1  0  0  0  0
 15 13  1  0  0  0  0
 16 15  2  0  0  0  0
 17 15  1  0  0  0  0
 18 17  2  0  0  0  0
 19 20  2  0  0  0  0
 19 18  1  0  0  0  0
 20 16  1  0  0  0  0
 21  4  1  0  0  0  0
 22 23  1  0  0  0  0
 22 21  1  0  0  0  0
 23 24  1  1  0  0  0
 25 26  2  0  0  0  0
 26 27  1  0  0  0  0
 26 23  1  0  0  0  0
 28 32  1  0  0  0  0
 30 33  1  0  0  0  0
 31 30  1  0  0  0  0
 31 28  1  0  0  0  0
 32 29  1  0  0  0  0
 32 27  1  0  0  0  0
 33 29  1  0  0  0  0
 34 35  1  0  0  0  0
 35 37  1  0  0  0  0
 36 40  1  0  0  0  0
 36 37  1  0  0  0  0
 38 36  2  0  0  0  0
 40 39  1  6  0  0  0
 42 40  1  0  0  0  0
 42 41  2  0  0  0  0
 43 42  1  0  0  0  0
 44 43  1  0  0  0  0
 45 48  1  0  0  0  0
 46 48  2  0  0  0  0
 47 48  1  0  0  0  0
 48 44  1  0  0  0  0
M  END
>  <MODEL>
7

>  <REMARK>
 VINA RESULT:      -6.6      4.064      7.813
  Name = 
  16 active torsions:
  status: ('A' for Active; 'I' for Inactive)
    1  A    between atoms: N_1  and  C_8
    2  A    between atoms: N_1  and  C_16
    3  A    between atoms: C_2  and  C_30
    4  A    between atoms: C_3  and  C_31
    5  A    between atoms: C_5  and  C_6
    6  A    between atoms: C_6  and  C_25
    7  A    between atoms: C_8  and  C_43
    8  A    between atoms: C_9  and  C_13
    9  A    between atoms: C_13  and  C_22
   10  A    between atoms: C_16  and  C_32
   11  A    between atoms: N_19  and  C_22
   12  A    between atoms: C_28  and  C_35
   13  A    between atoms: C_28  and  N_41
   14  A    between atoms: C_30  and  C_35
   15  A    between atoms: C_33  and  N_48
   16  A    between atoms: P_39  and  N_41
                            x       y       z     vdW  Elec       q    Type
                         _______ _______ _______ _____ _____    ______ ____

>  <TORSDO>
F 16

$$$$
=
 OpenBabel11042414253D

 48 51  0  0  1  0  0  0  0  0999 V2000
  190.1580  174.6160  146.4720 C   0  0  0  0  0  0  0  0  0  0  0  0
  192.4270  174.1880  144.8960 C   0  0  0  0  0  3  0  0  0  0  0  0
  191.2420  173.4900  144.6030 C   0  0  0  0  0  0  0  0  0  0  0  0
  192.4780  175.0910  145.9620 C   0  0  0  0  0  0  0  0  0  0  0  0
  191.3460  175.2960  146.7560 C   0  0  0  0  0  3  0  0  0  0  0  0
  190.1090  173.7180  145.3990 C   0  0  0  0  0  3  0  0  0  0  0  0
  191.1960  172.5280  143.4750 C   0  0  0  0  0  0  0  0  0  0  0  0
  191.0930  170.6710  141.3480 C   0  0  0  0  0  0  0  0  0  0  0  0
  192.2370  171.6100  143.2770 C   0  0  0  0  0  3  0  0  0  0  0  0
  190.1060  172.5130  142.5920 C   0  0  0  0  0  3  0  0  0  0  0  0
  192.1870  170.6950  142.2230 C   0  0  0  0  0  3  0  0  0  0  0  0
  190.0580  171.5970  141.5390 C   0  0  0  0  0  3  0  0  0  0  0  0
  191.0780  169.7060  140.2230 C   0  0  0  0  0  0  0  0  0  0  0  0
  191.1200  168.4740  140.4900 O   0  0  0  0  0  0  0  0  0  0  0  0
  191.0160  170.1150  138.7990 C   0  0  0  0  0  0  0  0  0  0  0  0
  189.7940  170.0470  138.1100 C   0  0  0  0  0  3  0  0  0  0  0  0
  192.1440  170.6120  138.1250 C   0  0  0  0  0  3  0  0  0  0  0  0
  192.0570  171.0140  136.7890 C   0  0  0  0  0  3  0  0  0  0  0  0
  190.8370  170.9300  136.1140 C   0  0  0  0  0  3  0  0  0  0  0  0
  189.7050  170.4490  136.7750 C   0  0  0  0  0  3  0  0  0  0  0  0
  193.7480  175.7970  146.2780 C   0  0  0  0  0  2  0  0  0  0  0  0
  194.0900  176.6990  145.1910 N   0  0  0  0  0  2  0  0  0  0  0  0
  195.4370  176.3620  144.7630 C   0  0  1  0  0  3  0  0  0  0  0  0
  195.9070  175.2890  145.4980 F   0  0  0  0  0  0  0  0  0  0  0  0
  196.1680  176.6680  142.5210 O   0  0  0  0  0  0  0  0  0  0  0  0
  195.4290  176.0220  143.3120 C   0  0  0  0  0  0  0  0  0  0  0  0
  194.5630  174.9960  142.8240 N   0  0  0  0  0  2  0  0  0  0  0  0
  193.0570  174.4620  140.9800 C   0  0  0  0  0  2  0  0  0  0  0  0
  195.3040  173.3150  141.1960 C   0  0  0  0  0  2  0  0  0  0  0  0
  194.1630  173.3540  138.9440 C   0  0  0  0  0  2  0  0  0  0  0  0
  192.9560  174.1350  139.4830 C   0  0  0  0  0  2  0  0  0  0  0  0
  194.5120  174.6140  141.4200 C   0  0  0  0  0  3  0  0  0  0  0  0
  194.7780  172.4730  140.0250 C   0  0  0  0  0  2  0  0  0  0  0  0
  188.9560  174.8400  147.3200 C   0  0  0  0  0  2  0  0  0  0  0  0
  188.2140  176.0820  146.8640 C   0  0  0  0  0  2  0  0  0  0  0  0
  188.7150  176.9860  144.5670 C   0  0  0  0  0  0  0  0  0  0  0  0
  188.0580  176.0510  145.4200 N   0  0  0  0  0  2  0  0  0  0  0  0
  189.4190  177.9110  145.0560 O   0  0  0  0  0  0  0  0  0  0  0  0
  189.7620  176.2720  142.4320 C   0  0  0  0  0  1  0  0  0  0  0  0
  188.5320  176.8750  143.0870 C   0  0  1  0  0  3  0  0  0  0  0  0
  187.3580  174.9420  142.3780 O   0  0  0  0  0  0  0  0  0  0  0  0
  187.2920  176.1100  142.7320 C   0  0  0  0  0  0  0  0  0  0  0  0
  185.9670  176.7940  142.7970 C   0  0  0  0  0  2  0  0  0  0  0  0
  186.1490  178.2360  142.7570 N   0  0  0  0  0  2  0  0  0  0  0  0
  185.5520  180.3650  144.2630 O   0  0  0  0  0  1  0  0  0  0  0  0
  185.3180  178.0400  145.4450 O   0  0  0  0  0  1  0  0  0  0  0  0
  183.5290  178.8870  143.5240 O   0  0  0  0  0  0  0  0  0  0  0  0
  185.1460  178.9310  144.0160 P   0  0  0  0  0  0  0  0  0  0  0  0
  1  5  1  0  0  0  0
  1 34  1  0  0  0  0
  2  4  1  0  0  0  0
  3  2  2  0  0  0  0
  3  6  1  0  0  0  0
  4 21  1  0  0  0  0
  4  5  2  0  0  0  0
  6  1  2  0  0  0  0
  7  3  1  0  0  0  0
  8 12  2  0  0  0  0
  8 11  1  0  0  0  0
  9  7  1  0  0  0  0
 10  7  2  0  0  0  0
 11  9  2  0  0  0  0
 12 10  1  0  0  0  0
 13 14  2  0  0  0  0
 13  8  1  0  0  0  0
 15 13  1  0  0  0  0
 16 15  2  0  0  0  0
 17 15  1  0  0  0  0
 18 17  2  0  0  0  0
 19 20  2  0  0  0  0
 19 18  1  0  0  0  0
 20 16  1  0  0  0  0
 22 21  1  0  0  0  0
 23 22  1  0  0  0  0
 23 24  1  1  0  0  0
 25 26  2  0  0  0  0
 26 23  1  0  0  0  0
 27 26  1  0  0  0  0
 28 32  1  0  0  0  0
 29 32  1  0  0  0  0
 30 31  1  0  0  0  0
 30 33  1  0  0  0  0
 31 28  1  0  0  0  0
 32 27  1  0  0  0  0
 33 29  1  0  0  0  0
 35 34  1  0  0  0  0
 36 38  2  0  0  0  0
 36 37  1  0  0  0  0
 37 35  1  0  0  0  0
 40 39  1  6  0  0  0
 40 36  1  0  0  0  0
 41 42  2  0  0  0  0
 42 43  1  0  0  0  0
 42 40  1  0  0  0  0
 44 43  1  0  0  0  0
 44 48  1  0  0  0  0
 47 48  2  0  0  0  0
 48 45  1  0  0  0  0
 48 46  1  0  0  0  0
M  END
>  <MODEL>
8

>  <REMARK>
 VINA RESULT:      -6.5      3.474      8.783
  Name = 
  16 active torsions:
  status: ('A' for Active; 'I' for Inactive)
    1  A    between atoms: N_1  and  C_8
    2  A    between atoms: N_1  and  C_16
    3  A    between atoms: C_2  and  C_30
    4  A    between atoms: C_3  and  C_31
    5  A    between atoms: C_5  and  C_6
    6  A    between atoms: C_6  and  C_25
    7  A    between atoms: C_8  and  C_43
    8  A    between atoms: C_9  and  C_13
    9  A    between atoms: C_13  and  C_22
   10  A    between atoms: C_16  and  C_32
   11  A    between atoms: N_19  and  C_22
   12  A    between atoms: C_28  and  C_35
   13  A    between atoms: C_28  and  N_41
   14  A    between atoms: C_30  and  C_35
   15  A    between atoms: C_33  and  N_48
   16  A    between atoms: P_39  and  N_41
                            x       y       z     vdW  Elec       q    Type
                         _______ _______ _______ _____ _____    ______ ____

>  <TORSDO>
F 16

$$$$
=
 OpenBabel11042414253D

 48 51  0  0  1  0  0  0  0  0999 V2000
  191.3720  175.8550  146.5400 C   0  0  0  0  0  0  0  0  0  0  0  0
  188.9710  176.2450  145.1630 C   0  0  0  0  0  3  0  0  0  0  0  0
  189.9770  175.4520  144.5840 C   0  0  0  0  0  0  0  0  0  0  0  0
  189.1600  176.8340  146.4170 C   0  0  0  0  0  0  0  0  0  0  0  0
  190.3650  176.6480  147.0990 C   0  0  0  0  0  3  0  0  0  0  0  0
  191.1760  175.2610  145.2880 C   0  0  0  0  0  3  0  0  0  0  0  0
  189.7740  174.8350  143.2500 C   0  0  0  0  0  0  0  0  0  0  0  0
  189.3970  173.6310  140.7220 C   0  0  0  0  0  0  0  0  0  0  0  0
  190.8310  174.7520  142.3340 C   0  0  0  0  0  3  0  0  0  0  0  0
  188.5220  174.3170  142.8850 C   0  0  0  0  0  3  0  0  0  0  0  0
  190.6430  174.1600  141.0830 C   0  0  0  0  0  3  0  0  0  0  0  0
  188.3360  173.7250  141.6340 C   0  0  0  0  0  3  0  0  0  0  0  0
  189.2190  173.0310  139.3780 C   0  0  0  0  0  0  0  0  0  0  0  0
  189.2900  171.7760  139.2700 O   0  0  0  0  0  0  0  0  0  0  0  0
  188.9610  173.8300  138.1560 C   0  0  0  0  0  0  0  0  0  0  0  0
  189.8560  173.7570  137.0770 C   0  0  0  0  0  3  0  0  0  0  0  0
  187.8160  174.6340  138.0310 C   0  0  0  0  0  3  0  0  0  0  0  0
  187.5790  175.3610  136.8610 C   0  0  0  0  0  3  0  0  0  0  0  0
  188.4840  175.2870  135.7990 C   0  0  0  0  0  3  0  0  0  0  0  0
  189.6210  174.4830  135.9060 C   0  0  0  0  0  3  0  0  0  0  0  0
  188.0970  177.6960  147.0010 C   0  0  0  0  0  2  0  0  0  0  0  0
  186.8190  177.0090  146.9340 N   0  0  0  0  0  2  0  0  0  0  0  0
  185.7940  178.0280  146.7800 C   0  0  1  0  0  3  0  0  0  0  0  0
  186.0280  179.0660  147.6640 F   0  0  0  0  0  0  0  0  0  0  0  0
  185.8240  179.7820  145.1760 O   0  0  0  0  0  0  0  0  0  0  0  0
  185.8030  178.5380  145.3810 C   0  0  0  0  0  0  0  0  0  0  0  0
  185.7500  177.6220  144.2860 N   0  0  0  0  0  2  0  0  0  0  0  0
  184.4010  177.7760  142.2590 C   0  0  0  0  0  2  0  0  0  0  0  0
  186.8940  177.3540  142.1310 C   0  0  0  0  0  2  0  0  0  0  0  0
  185.7060  178.2850  140.1060 C   0  0  0  0  0  2  0  0  0  0  0  0
  184.3430  178.2920  140.8130 C   0  0  0  0  0  2  0  0  0  0  0  0
  185.7590  178.0570  142.8970 C   0  0  0  0  0  3  0  0  0  0  0  0
  186.5970  177.1670  140.6360 C   0  0  0  0  0  2  0  0  0  0  0  0
  192.6520  175.6600  147.2730 C   0  0  0  0  0  2  0  0  0  0  0  0
  193.7910  176.3320  146.5310 C   0  0  0  0  0  2  0  0  0  0  0  0
  195.5900  175.5510  144.9500 C   0  0  0  0  0  0  0  0  0  0  0  0
  194.7290  175.3250  146.0650 N   0  0  0  0  0  2  0  0  0  0  0  0
  195.5220  176.6280  144.2990 O   0  0  0  0  0  0  0  0  0  0  0  0
  197.1250  173.7780  145.7640 C   0  0  0  0  0  1  0  0  0  0  0  0
  196.5520  174.4800  144.5460 C   0  0  1  0  0  3  0  0  0  0  0  0
  195.2980  173.8910  142.6230 O   0  0  0  0  0  0  0  0  0  0  0  0
  195.9340  173.5020  143.5910 C   0  0  0  0  0  0  0  0  0  0  0  0
  196.0870  172.0380  143.8430 C   0  0  0  0  0  2  0  0  0  0  0  0
  194.9350  171.3220  143.3220 N   0  0  0  0  0  2  0  0  0  0  0  0
  192.6880  172.1530  144.5150 O   0  0  0  0  0  0  0  0  0  0  0  0
  194.5850  171.3280  146.1200 O   0  0  0  0  0  1  0  0  0  0  0  0
  193.1240  169.5780  144.5700 O   0  0  0  0  0  1  0  0  0  0  0  0
  193.7930  171.1290  144.6380 P   0  0  0  0  0  0  0  0  0  0  0  0
  1  5  1  0  0  0  0
  1 34  1  0  0  0  0
  2  4  1  0  0  0  0
  3  2  2  0  0  0  0
  3  6  1  0  0  0  0
  4 21  1  0  0  0  0
  4  5  2  0  0  0  0
  6  1  2  0  0  0  0
  7  3  1  0  0  0  0
  8 11  2  0  0  0  0
  8 12  1  0  0  0  0
  9  7  2  0  0  0  0
 10  7  1  0  0  0  0
 11  9  1  0  0  0  0
 12 10  2  0  0  0  0
 13  8  1  0  0  0  0
 14 13  2  0  0  0  0
 15 13  1  0  0  0  0
 16 15  2  0  0  0  0
 17 15  1  0  0  0  0
 18 17  2  0  0  0  0
 19 20  2  0  0  0  0
 19 18  1  0  0  0  0
 20 16  1  0  0  0  0
 22 21  1  0  0  0  0
 23 22  1  0  0  0  0
 23 24  1  1  0  0  0
 25 26  2  0  0  0  0
 26 23  1  0  0  0  0
 27 26  1  0  0  0  0
 28 32  1  0  0  0  0
 29 32  1  0  0  0  0
 30 33  1  0  0  0  0
 30 31  1  0  0  0  0
 31 28  1  0  0  0  0
 32 27  1  0  0  0  0
 33 29  1  0  0  0  0
 35 34  1  0  0  0  0
 36 37  1  0  0  0  0
 37 35  1  0  0  0  0
 38 36  2  0  0  0  0
 40 36  1  0  0  0  0
 40 39  1  1  0  0  0
 41 42  2  0  0  0  0
 42 43  1  0  0  0  0
 42 40  1  0  0  0  0
 44 43  1  0  0  0  0
 44 48  1  0  0  0  0
 45 48  2  0  0  0  0
 47 48  1  0  0  0  0
 48 46  1  0  0  0  0
M  END
>  <MODEL>
9

>  <REMARK>
 VINA RESULT:      -6.4      3.042      6.681
  Name = 
  16 active torsions:
  status: ('A' for Active; 'I' for Inactive)
    1  A    between atoms: N_1  and  C_8
    2  A    between atoms: N_1  and  C_16
    3  A    between atoms: C_2  and  C_30
    4  A    between atoms: C_3  and  C_31
    5  A    between atoms: C_5  and  C_6
    6  A    between atoms: C_6  and  C_25
    7  A    between atoms: C_8  and  C_43
    8  A    between atoms: C_9  and  C_13
    9  A    between atoms: C_13  and  C_22
   10  A    between atoms: C_16  and  C_32
   11  A    between atoms: N_19  and  C_22
   12  A    between atoms: C_28  and  C_35
   13  A    between atoms: C_28  and  N_41
   14  A    between atoms: C_30  and  C_35
   15  A    between atoms: C_33  and  N_48
   16  A    between atoms: P_39  and  N_41
                            x       y       z     vdW  Elec       q    Type
                         _______ _______ _______ _____ _____    ______ ____

>  <TORSDO>
F 16

$$$$
