=
 OpenBabel11042414563D

 39 41  0  0  1  0  0  0  0  0999 V2000
  188.5900  174.2590  139.3440 C   0  0  0  0  0  0  0  0  0  0  0  0
  188.8220  175.4800  141.8920 C   0  0  1  0  0  3  0  0  0  0  0  0
  187.7800  174.3740  138.3880 O   0  0  0  0  0  0  0  0  0  0  0  0
  188.3960  175.0020  140.5420 N   0  0  0  0  0  0  0  0  0  0  0  0
  187.5840  175.8820  141.4370 C   0  0  2  0  0  3  0  0  0  0  0  0
  187.6220  177.3260  140.9340 C   0  0  2  0  0  3  0  0  0  0  0  0
  186.6220  178.5410  142.9210 C   0  0  0  0  0  3  0  0  0  0  0  0
  187.8560  178.3090  142.0830 C   0  0  0  0  0  2  0  0  0  0  0  0
  186.3420  177.7220  140.1950 C   0  0  0  0  0  2  0  0  0  0  0  0
  185.1340  177.6580  141.1260 C   0  0  0  0  0  2  0  0  0  0  0  0
  185.3800  178.3150  142.4600 C   0  0  0  0  0  0  0  0  0  0  0  0
  184.1940  178.5940  143.3220 C   0  0  0  0  0  2  0  0  0  0  0  0
  184.6080  179.3190  144.5920 C   0  0  0  0  0  2  0  0  0  0  0  0
  183.8280  178.7730  145.7750 C   0  0  0  0  0  2  0  0  0  0  0  0
  187.0670  178.0520  147.4400 C   0  0  0  0  0  2  0  0  0  0  0  0
  186.7400  176.7250  146.7890 C   0  0  0  0  0  2  0  0  0  0  0  0
  185.3280  176.8360  146.2400 C   0  0  0  0  0  2  0  0  0  0  0  0
  185.9650  179.0060  147.0380 C   0  0  0  0  0  2  0  0  0  0  0  0
  184.7640  178.1290  146.7840 C   0  0  0  0  0  3  0  0  0  0  0  0
  189.9730  173.1410  139.1960 S   0  0  0  0  0  0  0  0  0  0  0  0
  190.2350  173.6020  137.4640 C   0  0  0  0  0  1  0  0  0  0  0  0
  188.6530  174.4620  142.8270 O   0  0  0  0  0  0  0  0  0  0  0  0
  188.6170  175.1080  144.0650 C   0  0  0  0  0  2  0  0  0  0  0  0
  189.8610  174.7630  144.8750 C   0  0  0  0  0  2  0  0  0  0  0  0
  190.6230  175.7170  146.9470 N   0  0  0  0  0  2  0  0  0  0  0  0
  190.2700  175.9150  145.7300 C   0  0  0  0  0  0  0  0  0  0  0  0
  190.4780  177.2550  145.0840 C   0  0  0  0  0  2  0  0  0  0  0  0
  191.7870  177.3780  144.2990 C   0  0  2  0  0  3  0  0  0  0  0  0
  191.5850  177.2380  142.9220 O   0  0  0  0  0  1  0  0  0  0  0  0
  192.9550  176.5330  144.8220 C   0  0  2  0  0  3  0  0  0  0  0  0
  193.9160  177.3450  145.4270 O   0  0  0  0  0  1  0  0  0  0  0  0
  194.5660  176.0410  143.1500 O   0  0  0  0  0  0  0  0  0  0  0  0
  193.5940  175.6070  143.8220 C   0  0  0  0  0  0  0  0  0  0  0  0
  193.1150  174.3210  143.5510 O   0  0  0  0  0  0  0  0  0  0  0  0
  193.8060  173.1380  143.9200 C   0  0  0  0  0  2  0  0  0  0  0  0
  194.2020  173.1970  145.3860 C   0  0  0  0  0  2  0  0  0  0  0  0
  196.3440  174.4290  145.7140 O   0  0  0  0  0  1  0  0  0  0  0  0
  196.3370  172.1410  145.6920 O   0  0  0  0  0  0  0  0  0  0  0  0
  195.6880  173.2120  145.5770 C   0  0  0  0  0  0  0  0  0  0  0  0
  1  4  1  0  0  0  0
  2 22  1  1  0  0  0
  3  1  2  0  0  0  0
  4  2  1  0  0  0  0
  5  4  1  6  0  0  0
  5  2  1  0  0  0  0
  6  9  1  1  0  0  0
  6  5  1  0  0  0  0
  6  8  1  0  0  0  0
  8  7  1  0  0  0  0
  9 10  1  0  0  0  0
 10 11  1  0  0  0  0
 11  7  2  0  0  0  0
 11 12  1  0  0  0  0
 12 13  1  0  0  0  0
 13 14  1  0  0  0  0
 14 19  1  0  0  0  0
 16 15  1  0  0  0  0
 17 19  1  0  0  0  0
 17 16  1  0  0  0  0
 18 15  1  0  0  0  0
 19 18  1  0  0  0  0
 20  1  1  0  0  0  0
 21 20  1  0  0  0  0
 22 23  1  0  0  0  0
 23 24  1  0  0  0  0
 24 26  1  0  0  0  0
 26 25  2  0  0  0  0
 27 26  1  0  0  0  0
 28 29  1  6  0  0  0
 28 30  1  0  0  0  0
 28 27  1  0  0  0  0
 30 31  1  6  0  0  0
 32 33  2  0  0  0  0
 33 30  1  0  0  0  0
 34 33  1  0  0  0  0
 34 35  1  0  0  0  0
 35 36  1  0  0  0  0
 36 39  1  0  0  0  0
 39 38  2  0  0  0  0
 39 37  1  0  0  0  0
M  END
>  <MODEL>
1

>  <REMARK>
 VINA RESULT:      -6.4      0.000      0.000
  Name = 
  18 active torsions:
  status: ('A' for Active; 'I' for Inactive)
    1  A    between atoms: C_2  and  C_6
    2  A    between atoms: C_2  and  C_27
    3  A    between atoms: C_4  and  C_30
    4  A    between atoms: C_5  and  C_6
    5  A    between atoms: C_5  and  C_38
    6  A    between atoms: C_8  and  C_34
    7  A    between atoms: C_8  and  C_36
    8  A    between atoms: O_10  and  C_33
    9  A    between atoms: O_10  and  C_36
   10  A    between atoms: C_12  and  S_24
   11  A    between atoms: C_13  and  C_32
   12  A    between atoms: C_13  and  C_33
   13  A    between atoms: C_15  and  O_17
   14  A    between atoms: O_17  and  C_37
   15  A    between atoms: C_19  and  C_23
   16  A    between atoms: C_19  and  C_34
   17  A    between atoms: C_23  and  C_26
   18  A    between atoms: C_26  and  C_37
                            x       y       z     vdW  Elec       q    Type
                         _______ _______ _______ _____ _____    ______ ____

>  <TORSDO>
F 18

$$$$
=
 OpenBabel11042414563D

 39 41  0  0  1  0  0  0  0  0999 V2000
  195.0480  173.0160  143.0520 C   0  0  0  0  0  0  0  0  0  0  0  0
  193.0840  173.0950  145.0950 C   0  0  1  0  0  3  0  0  0  0  0  0
  195.5120  173.8670  142.2500 O   0  0  0  0  0  0  0  0  0  0  0  0
  194.0010  173.3710  143.9490 N   0  0  0  0  0  0  0  0  0  0  0  0
  192.9440  174.3030  144.4460 C   0  0  2  0  0  3  0  0  0  0  0  0
  193.5770  175.4400  145.2500 C   0  0  2  0  0  3  0  0  0  0  0  0
  191.7680  175.8570  146.9760 C   0  0  0  0  0  3  0  0  0  0  0  0
  193.1750  175.3690  146.7250 C   0  0  0  0  0  2  0  0  0  0  0  0
  193.2100  176.8210  144.7010 C   0  0  0  0  0  2  0  0  0  0  0  0
  191.7050  177.0600  144.7930 C   0  0  0  0  0  2  0  0  0  0  0  0
  191.1280  176.6850  146.1340 C   0  0  0  0  0  0  0  0  0  0  0  0
  189.7490  177.1620  146.4510 C   0  0  0  0  0  2  0  0  0  0  0  0
  188.8580  177.0900  145.2220 C   0  0  0  0  0  2  0  0  0  0  0  0
  187.6280  176.2540  145.5260 C   0  0  0  0  0  2  0  0  0  0  0  0
  185.5790  179.3100  145.0310 C   0  0  0  0  0  2  0  0  0  0  0  0
  185.1210  178.8360  146.3930 C   0  0  0  0  0  2  0  0  0  0  0  0
  185.7470  177.4710  146.6210 C   0  0  0  0  0  2  0  0  0  0  0  0
  186.6680  178.3580  144.5920 C   0  0  0  0  0  2  0  0  0  0  0  0
  186.3610  177.0620  145.3010 C   0  0  0  0  0  3  0  0  0  0  0  0
  195.6950  171.3530  143.0430 S   0  0  0  0  0  0  0  0  0  0  0  0
  196.5430  171.6120  144.6230 C   0  0  0  0  0  1  0  0  0  0  0  0
  192.0640  172.2390  144.6870 O   0  0  0  0  0  0  0  0  0  0  0  0
  190.9150  173.0330  144.6540 C   0  0  0  0  0  2  0  0  0  0  0  0
  189.7830  172.2920  143.9530 C   0  0  0  0  0  2  0  0  0  0  0  0
  190.3150  170.5760  142.3550 N   0  0  0  0  0  2  0  0  0  0  0  0
  190.2130  171.8300  142.6000 C   0  0  0  0  0  0  0  0  0  0  0  0
  190.2990  172.8360  141.4880 C   0  0  0  0  0  2  0  0  0  0  0  0
  188.9940  173.5920  141.2230 C   0  0  2  0  0  3  0  0  0  0  0  0
  188.3710  173.1620  140.0480 O   0  0  0  0  0  1  0  0  0  0  0  0
  189.0800  175.1200  141.3320 C   0  0  2  0  0  3  0  0  0  0  0  0
  190.1080  175.4940  142.1990 O   0  0  0  0  0  1  0  0  0  0  0  0
  186.9340  175.1830  142.3460 O   0  0  0  0  0  0  0  0  0  0  0  0
  187.7980  175.8230  141.6910 C   0  0  0  0  0  0  0  0  0  0  0  0
  187.4920  177.1220  141.2720 O   0  0  0  0  0  0  0  0  0  0  0  0
  186.3960  177.4310  140.4250 C   0  0  0  0  0  2  0  0  0  0  0  0
  185.5730  178.5600  141.0230 C   0  0  0  0  0  2  0  0  0  0  0  0
  183.6550  177.9350  142.4860 O   0  0  0  0  0  1  0  0  0  0  0  0
  183.3400  178.1650  140.2310 O   0  0  0  0  0  0  0  0  0  0  0  0
  184.1350  178.1840  141.2070 C   0  0  0  0  0  0  0  0  0  0  0  0
  1  4  1  0  0  0  0
  2 22  1  6  0  0  0
  3  1  2  0  0  0  0
  4  2  1  0  0  0  0
  5  4  1  6  0  0  0
  5  2  1  0  0  0  0
  5  6  1  0  0  0  0
  6  9  1  6  0  0  0
  6  8  1  0  0  0  0
  8  7  1  0  0  0  0
  9 10  1  0  0  0  0
 10 11  1  0  0  0  0
 11 12  1  0  0  0  0
 11  7  2  0  0  0  0
 13 14  1  0  0  0  0
 13 12  1  0  0  0  0
 15 16  1  0  0  0  0
 16 17  1  0  0  0  0
 18 15  1  0  0  0  0
 18 19  1  0  0  0  0
 19 14  1  0  0  0  0
 19 17  1  0  0  0  0
 20  1  1  0  0  0  0
 20 21  1  0  0  0  0
 23 22  1  0  0  0  0
 24 23  1  0  0  0  0
 25 26  2  0  0  0  0
 26 24  1  0  0  0  0
 27 26  1  0  0  0  0
 28 29  1  6  0  0  0
 28 30  1  0  0  0  0
 28 27  1  0  0  0  0
 30 33  1  0  0  0  0
 30 31  1  1  0  0  0
 33 32  2  0  0  0  0
 34 33  1  0  0  0  0
 35 36  1  0  0  0  0
 35 34  1  0  0  0  0
 36 39  1  0  0  0  0
 38 39  2  0  0  0  0
 39 37  1  0  0  0  0
M  END
>  <MODEL>
2

>  <REMARK>
 VINA RESULT:      -6.0      2.741      7.285
  Name = 
  18 active torsions:
  status: ('A' for Active; 'I' for Inactive)
    1  A    between atoms: C_2  and  C_6
    2  A    between atoms: C_2  and  C_27
    3  A    between atoms: C_4  and  C_30
    4  A    between atoms: C_5  and  C_6
    5  A    between atoms: C_5  and  C_38
    6  A    between atoms: C_8  and  C_34
    7  A    between atoms: C_8  and  C_36
    8  A    between atoms: O_10  and  C_33
    9  A    between atoms: O_10  and  C_36
   10  A    between atoms: C_12  and  S_24
   11  A    between atoms: C_13  and  C_32
   12  A    between atoms: C_13  and  C_33
   13  A    between atoms: C_15  and  O_17
   14  A    between atoms: O_17  and  C_37
   15  A    between atoms: C_19  and  C_23
   16  A    between atoms: C_19  and  C_34
   17  A    between atoms: C_23  and  C_26
   18  A    between atoms: C_26  and  C_37
                            x       y       z     vdW  Elec       q    Type
                         _______ _______ _______ _____ _____    ______ ____

>  <TORSDO>
F 18

$$$$
=
 OpenBabel11042414563D

 39 41  0  0  1  0  0  0  0  0999 V2000
  194.3040  175.4190  144.3390 C   0  0  0  0  0  0  0  0  0  0  0  0
  191.6720  174.9860  145.2990 C   0  0  1  0  0  3  0  0  0  0  0  0
  194.8140  176.2170  143.5100 O   0  0  0  0  0  0  0  0  0  0  0  0
  192.9000  175.4240  144.5680 N   0  0  0  0  0  0  0  0  0  0  0  0
  191.5060  175.8500  144.2370 C   0  0  2  0  0  3  0  0  0  0  0  0
  191.2610  177.2800  144.7200 C   0  0  2  0  0  3  0  0  0  0  0  0
  188.7390  177.2640  144.9730 C   0  0  0  0  0  3  0  0  0  0  0  0
  190.0710  177.3470  145.6800 C   0  0  0  0  0  2  0  0  0  0  0  0
  191.0230  178.2560  143.5650 C   0  0  0  0  0  2  0  0  0  0  0  0
  189.7650  177.8790  142.7860 C   0  0  0  0  0  2  0  0  0  0  0  0
  188.5860  177.5770  143.6760 C   0  0  0  0  0  0  0  0  0  0  0  0
  187.2380  177.5090  143.0380 C   0  0  0  0  0  2  0  0  0  0  0  0
  186.3160  178.5720  143.6100 C   0  0  0  0  0  2  0  0  0  0  0  0
  185.0090  177.9380  144.0500 C   0  0  0  0  0  2  0  0  0  0  0  0
  186.0180  178.6960  147.5410 C   0  0  0  0  0  2  0  0  0  0  0  0
  186.0060  177.1830  147.5340 C   0  0  0  0  0  2  0  0  0  0  0  0
  185.4090  176.7500  146.2060 C   0  0  0  0  0  2  0  0  0  0  0  0
  185.6850  179.1310  146.1320 C   0  0  0  0  0  2  0  0  0  0  0  0
  184.8620  178.0030  145.5610 C   0  0  0  0  0  3  0  0  0  0  0  0
  195.3510  174.2650  145.2070 S   0  0  0  0  0  0  0  0  0  0  0  0
  196.8270  174.8650  144.3460 C   0  0  0  0  0  1  0  0  0  0  0  0
  191.3190  173.7000  144.8980 O   0  0  0  0  0  0  0  0  0  0  0  0
  189.9330  173.7410  144.7250 C   0  0  0  0  0  2  0  0  0  0  0  0
  189.5150  172.7960  143.6050 C   0  0  0  0  0  2  0  0  0  0  0  0
  188.0470  174.1630  142.2790 N   0  0  0  0  0  2  0  0  0  0  0  0
  189.1750  173.5610  142.3700 C   0  0  0  0  0  0  0  0  0  0  0  0
  190.2520  173.7980  141.3490 C   0  0  0  0  0  2  0  0  0  0  0  0
  190.0920  172.9790  140.0650 C   0  0  2  0  0  3  0  0  0  0  0  0
  190.2850  171.6130  140.2900 O   0  0  0  0  0  1  0  0  0  0  0  0
  190.8620  173.5020  138.8460 C   0  0  2  0  0  3  0  0  0  0  0  0
  190.0770  173.4170  137.6960 O   0  0  0  0  0  1  0  0  0  0  0  0
  192.3020  171.9410  137.7860 O   0  0  0  0  0  0  0  0  0  0  0  0
  192.2150  172.8860  138.6130 C   0  0  0  0  0  0  0  0  0  0  0  0
  193.3610  173.2610  139.3220 O   0  0  0  0  0  0  0  0  0  0  0  0
  193.5800  174.5740  139.8150 C   0  0  0  0  0  2  0  0  0  0  0  0
  194.9000  175.1170  139.2940 C   0  0  0  0  0  2  0  0  0  0  0  0
  196.5820  176.3030  140.7000 O   0  0  0  0  0  0  0  0  0  0  0  0
  196.2790  174.0480  140.9450 O   0  0  0  0  0  1  0  0  0  0  0  0
  195.9750  175.1070  140.3390 C   0  0  0  0  0  0  0  0  0  0  0  0
  1  4  1  0  0  0  0
  1 20  1  0  0  0  0
  2 22  1  6  0  0  0
  3  1  2  0  0  0  0
  4  2  1  0  0  0  0
  5  4  1  6  0  0  0
  5  6  1  0  0  0  0
  5  2  1  0  0  0  0
  6  9  1  6  0  0  0
  6  8  1  0  0  0  0
  7  8  1  0  0  0  0
 10  9  1  0  0  0  0
 10 11  1  0  0  0  0
 11  7  2  0  0  0  0
 12 13  1  0  0  0  0
 12 11  1  0  0  0  0
 13 14  1  0  0  0  0
 14 19  1  0  0  0  0
 16 15  1  0  0  0  0
 17 16  1  0  0  0  0
 18 15  1  0  0  0  0
 19 18  1  0  0  0  0
 19 17  1  0  0  0  0
 21 20  1  0  0  0  0
 23 22  1  0  0  0  0
 24 23  1  0  0  0  0
 25 26  2  0  0  0  0
 26 24  1  0  0  0  0
 27 26  1  0  0  0  0
 28 29  1  1  0  0  0
 28 27  1  0  0  0  0
 30 31  1  6  0  0  0
 30 28  1  0  0  0  0
 32 33  2  0  0  0  0
 33 30  1  0  0  0  0
 33 34  1  0  0  0  0
 34 35  1  0  0  0  0
 36 35  1  0  0  0  0
 36 39  1  0  0  0  0
 39 37  2  0  0  0  0
 39 38  1  0  0  0  0
M  END
>  <MODEL>
3

>  <REMARK>
 VINA RESULT:      -6.0      2.763      5.304
  Name = 
  18 active torsions:
  status: ('A' for Active; 'I' for Inactive)
    1  A    between atoms: C_2  and  C_6
    2  A    between atoms: C_2  and  C_27
    3  A    between atoms: C_4  and  C_30
    4  A    between atoms: C_5  and  C_6
    5  A    between atoms: C_5  and  C_38
    6  A    between atoms: C_8  and  C_34
    7  A    between atoms: C_8  and  C_36
    8  A    between atoms: O_10  and  C_33
    9  A    between atoms: O_10  and  C_36
   10  A    between atoms: C_12  and  S_24
   11  A    between atoms: C_13  and  C_32
   12  A    between atoms: C_13  and  C_33
   13  A    between atoms: C_15  and  O_17
   14  A    between atoms: O_17  and  C_37
   15  A    between atoms: C_19  and  C_23
   16  A    between atoms: C_19  and  C_34
   17  A    between atoms: C_23  and  C_26
   18  A    between atoms: C_26  and  C_37
                            x       y       z     vdW  Elec       q    Type
                         _______ _______ _______ _____ _____    ______ ____

>  <TORSDO>
F 18

$$$$
=
 OpenBabel11042414563D

 39 41  0  0  1  0  0  0  0  0999 V2000
  184.4110  178.0370  142.3050 C   0  0  0  0  0  0  0  0  0  0  0  0
  186.9430  176.8360  142.7360 C   0  0  1  0  0  3  0  0  0  0  0  0
  183.4870  178.4280  143.0640 O   0  0  0  0  0  0  0  0  0  0  0  0
  185.5690  177.4130  142.8480 N   0  0  0  0  0  0  0  0  0  0  0  0
  186.3350  176.7950  143.9730 C   0  0  2  0  0  3  0  0  0  0  0  0
  186.8870  177.8820  144.8970 C   0  0  2  0  0  3  0  0  0  0  0  0
  189.1590  176.9100  145.4590 C   0  0  0  0  0  3  0  0  0  0  0  0
  188.4050  178.0130  144.7560 C   0  0  0  0  0  2  0  0  0  0  0  0
  186.5440  177.6300  146.3670 C   0  0  0  0  0  2  0  0  0  0  0  0
  187.1790  176.3320  146.8590 C   0  0  0  0  0  2  0  0  0  0  0  0
  188.6270  176.1960  146.4650 C   0  0  0  0  0  0  0  0  0  0  0  0
  189.4320  175.1380  147.1460 C   0  0  0  0  0  2  0  0  0  0  0  0
  190.7440  174.9040  146.4170 C   0  0  0  0  0  2  0  0  0  0  0  0
  191.8970  175.4360  147.2480 C   0  0  0  0  0  2  0  0  0  0  0  0
  193.7830  176.2680  144.1600 C   0  0  0  0  0  2  0  0  0  0  0  0
  194.8780  175.7720  145.0790 C   0  0  0  0  0  2  0  0  0  0  0  0
  194.2560  175.5890  146.4520 C   0  0  0  0  0  2  0  0  0  0  0  0
  192.4870  176.1160  144.9220 C   0  0  0  0  0  2  0  0  0  0  0  0
  192.8770  176.2040  146.3760 C   0  0  0  0  0  3  0  0  0  0  0  0
  184.2510  178.2490  140.5410 S   0  0  0  0  0  0  0  0  0  0  0  0
  182.4490  178.0810  140.6250 C   0  0  0  0  0  1  0  0  0  0  0  0
  186.8770  175.5720  142.1550 O   0  0  0  0  0  0  0  0  0  0  0  0
  188.0530  175.4520  141.4110 C   0  0  0  0  0  2  0  0  0  0  0  0
  189.2280  175.1440  142.3300 C   0  0  0  0  0  2  0  0  0  0  0  0
  189.9510  173.7160  140.5350 N   0  0  0  0  0  2  0  0  0  0  0  0
  190.0590  174.0370  141.7720 C   0  0  0  0  0  0  0  0  0  0  0  0
  191.1670  173.4720  142.6140 C   0  0  0  0  0  2  0  0  0  0  0  0
  190.9670  172.0080  143.0150 C   0  0  2  0  0  3  0  0  0  0  0  0
  189.6130  171.6810  143.1420 O   0  0  0  0  0  1  0  0  0  0  0  0
  191.8140  171.5230  144.1980 C   0  0  2  0  0  3  0  0  0  0  0  0
  192.5020  172.5890  144.7790 O   0  0  0  0  0  1  0  0  0  0  0  0
  192.4830  169.6270  142.9350 O   0  0  0  0  0  0  0  0  0  0  0  0
  192.7500  170.3800  143.9080 C   0  0  0  0  0  0  0  0  0  0  0  0
  193.8560  170.0730  144.7070 O   0  0  0  0  0  0  0  0  0  0  0  0
  195.1990  170.2310  144.2760 C   0  0  0  0  0  2  0  0  0  0  0  0
  195.7730  171.5300  144.8160 C   0  0  0  0  0  2  0  0  0  0  0  0
  197.2910  173.1080  143.6230 O   0  0  0  0  0  1  0  0  0  0  0  0
  195.1470  172.8080  142.8810 O   0  0  0  0  0  0  0  0  0  0  0  0
  196.0300  172.5350  143.7340 C   0  0  0  0  0  0  0  0  0  0  0  0
  1  4  1  0  0  0  0
  1  3  2  0  0  0  0
  2 22  1  6  0  0  0
  2  4  1  0  0  0  0
  2  5  1  0  0  0  0
  5  4  1  6  0  0  0
  5  6  1  0  0  0  0
  6  8  1  1  0  0  0
  6  9  1  0  0  0  0
  7 11  2  0  0  0  0
  8  7  1  0  0  0  0
  9 10  1  0  0  0  0
 11 10  1  0  0  0  0
 11 12  1  0  0  0  0
 13 12  1  0  0  0  0
 13 14  1  0  0  0  0
 15 18  1  0  0  0  0
 15 16  1  0  0  0  0
 16 17  1  0  0  0  0
 18 19  1  0  0  0  0
 19 17  1  0  0  0  0
 19 14  1  0  0  0  0
 20 21  1  0  0  0  0
 20  1  1  0  0  0  0
 23 22  1  0  0  0  0
 23 24  1  0  0  0  0
 25 26  2  0  0  0  0
 26 24  1  0  0  0  0
 26 27  1  0  0  0  0
 27 28  1  0  0  0  0
 28 29  1  1  0  0  0
 28 30  1  0  0  0  0
 30 31  1  6  0  0  0
 32 33  2  0  0  0  0
 33 30  1  0  0  0  0
 33 34  1  0  0  0  0
 35 34  1  0  0  0  0
 35 36  1  0  0  0  0
 37 39  1  0  0  0  0
 38 39  2  0  0  0  0
 39 36  1  0  0  0  0
M  END
>  <MODEL>
4

>  <REMARK>
 VINA RESULT:      -6.0      2.834      5.800
  Name = 
  18 active torsions:
  status: ('A' for Active; 'I' for Inactive)
    1  A    between atoms: C_2  and  C_6
    2  A    between atoms: C_2  and  C_27
    3  A    between atoms: C_4  and  C_30
    4  A    between atoms: C_5  and  C_6
    5  A    between atoms: C_5  and  C_38
    6  A    between atoms: C_8  and  C_34
    7  A    between atoms: C_8  and  C_36
    8  A    between atoms: O_10  and  C_33
    9  A    between atoms: O_10  and  C_36
   10  A    between atoms: C_12  and  S_24
   11  A    between atoms: C_13  and  C_32
   12  A    between atoms: C_13  and  C_33
   13  A    between atoms: C_15  and  O_17
   14  A    between atoms: O_17  and  C_37
   15  A    between atoms: C_19  and  C_23
   16  A    between atoms: C_19  and  C_34
   17  A    between atoms: C_23  and  C_26
   18  A    between atoms: C_26  and  C_37
                            x       y       z     vdW  Elec       q    Type
                         _______ _______ _______ _____ _____    ______ ____

>  <TORSDO>
F 18

$$$$
=
 OpenBabel11042414563D

 39 41  0  0  1  0  0  0  0  0999 V2000
  196.2040  175.8790  143.0030 C   0  0  0  0  0  0  0  0  0  0  0  0
  195.3280  174.9110  145.5190 C   0  0  1  0  0  3  0  0  0  0  0  0
  195.6440  176.4940  142.0580 O   0  0  0  0  0  0  0  0  0  0  0  0
  195.4520  175.4810  144.1440 N   0  0  0  0  0  0  0  0  0  0  0  0
  194.1650  175.2790  144.8770 C   0  0  2  0  0  3  0  0  0  0  0  0
  193.6410  176.6160  145.4030 C   0  0  2  0  0  3  0  0  0  0  0  0
  192.0780  175.8190  147.2320 C   0  0  0  0  0  3  0  0  0  0  0  0
  193.3580  176.5490  146.9060 C   0  0  0  0  0  2  0  0  0  0  0  0
  192.3730  177.0750  144.6790 C   0  0  0  0  0  2  0  0  0  0  0  0
  191.2320  176.0860  144.9020 C   0  0  0  0  0  2  0  0  0  0  0  0
  191.0810  175.6730  146.3440 C   0  0  0  0  0  0  0  0  0  0  0  0
  189.8220  174.9700  146.7320 C   0  0  0  0  0  2  0  0  0  0  0  0
  188.6490  175.4640  145.9020 C   0  0  0  0  0  2  0  0  0  0  0  0
  187.7080  176.2770  146.7720 C   0  0  0  0  0  2  0  0  0  0  0  0
  185.5400  178.8340  145.1770 C   0  0  0  0  0  2  0  0  0  0  0  0
  184.6310  178.2670  146.2460 C   0  0  0  0  0  2  0  0  0  0  0  0
  185.3420  177.0640  146.8400 C   0  0  0  0  0  2  0  0  0  0  0  0
  186.8710  178.1350  145.3350 C   0  0  0  0  0  2  0  0  0  0  0  0
  186.5390  176.8000  145.9540 C   0  0  0  0  0  3  0  0  0  0  0  0
  197.9410  175.4900  142.8930 S   0  0  0  0  0  0  0  0  0  0  0  0
  197.5910  173.7350  142.6100 C   0  0  0  0  0  1  0  0  0  0  0  0
  195.4560  173.5250  145.4680 O   0  0  0  0  0  0  0  0  0  0  0  0
  194.1690  173.0320  145.6960 C   0  0  0  0  0  2  0  0  0  0  0  0
  194.1240  171.5330  145.4300 C   0  0  0  0  0  2  0  0  0  0  0  0
  192.9020  169.9960  144.0420 N   0  0  0  0  0  2  0  0  0  0  0  0
  193.1420  171.2170  144.3520 C   0  0  0  0  0  0  0  0  0  0  0  0
  192.2880  172.3260  143.8070 C   0  0  0  0  0  2  0  0  0  0  0  0
  192.4870  172.5960  142.3130 C   0  0  2  0  0  3  0  0  0  0  0  0
  193.7550  173.1170  142.0410 O   0  0  0  0  0  1  0  0  0  0  0  0
  191.3580  173.3750  141.6250 C   0  0  2  0  0  3  0  0  0  0  0  0
  191.6070  174.7470  141.6740 O   0  0  0  0  0  1  0  0  0  0  0  0
  189.5490  171.8860  142.0020 O   0  0  0  0  0  0  0  0  0  0  0  0
  189.9650  173.0690  142.1050 C   0  0  0  0  0  0  0  0  0  0  0  0
  189.0890  174.0460  142.5890 O   0  0  0  0  0  0  0  0  0  0  0  0
  187.8140  174.3020  142.0210 C   0  0  0  0  0  2  0  0  0  0  0  0
  187.2500  175.6060  142.5630 C   0  0  0  0  0  2  0  0  0  0  0  0
  187.4460  176.3510  140.1920 O   0  0  0  0  0  0  0  0  0  0  0  0
  186.8030  177.8410  141.8060 O   0  0  0  0  0  1  0  0  0  0  0  0
  187.1770  176.6750  141.5160 C   0  0  0  0  0  0  0  0  0  0  0  0
  1  4  1  0  0  0  0
  2 22  1  6  0  0  0
  3  1  2  0  0  0  0
  4  2  1  0  0  0  0
  5  4  1  6  0  0  0
  5  6  1  0  0  0  0
  5  2  1  0  0  0  0
  6  9  1  6  0  0  0
  6  8  1  0  0  0  0
  8  7  1  0  0  0  0
  9 10  1  0  0  0  0
 10 11  1  0  0  0  0
 11 12  1  0  0  0  0
 11  7  2  0  0  0  0
 13 12  1  0  0  0  0
 13 14  1  0  0  0  0
 15 18  1  0  0  0  0
 15 16  1  0  0  0  0
 16 17  1  0  0  0  0
 18 19  1  0  0  0  0
 19 14  1  0  0  0  0
 19 17  1  0  0  0  0
 20  1  1  0  0  0  0
 21 20  1  0  0  0  0
 22 23  1  0  0  0  0
 24 23  1  0  0  0  0
 25 26  2  0  0  0  0
 26 24  1  0  0  0  0
 27 26  1  0  0  0  0
 28 29  1  1  0  0  0
 28 27  1  0  0  0  0
 30 31  1  1  0  0  0
 30 33  1  0  0  0  0
 30 28  1  0  0  0  0
 32 33  2  0  0  0  0
 33 34  1  0  0  0  0
 35 36  1  0  0  0  0
 35 34  1  0  0  0  0
 37 39  2  0  0  0  0
 39 38  1  0  0  0  0
 39 36  1  0  0  0  0
M  END
>  <MODEL>
5

>  <REMARK>
 VINA RESULT:      -6.0      2.786      6.850
  Name = 
  18 active torsions:
  status: ('A' for Active; 'I' for Inactive)
    1  A    between atoms: C_2  and  C_6
    2  A    between atoms: C_2  and  C_27
    3  A    between atoms: C_4  and  C_30
    4  A    between atoms: C_5  and  C_6
    5  A    between atoms: C_5  and  C_38
    6  A    between atoms: C_8  and  C_34
    7  A    between atoms: C_8  and  C_36
    8  A    between atoms: O_10  and  C_33
    9  A    between atoms: O_10  and  C_36
   10  A    between atoms: C_12  and  S_24
   11  A    between atoms: C_13  and  C_32
   12  A    between atoms: C_13  and  C_33
   13  A    between atoms: C_15  and  O_17
   14  A    between atoms: O_17  and  C_37
   15  A    between atoms: C_19  and  C_23
   16  A    between atoms: C_19  and  C_34
   17  A    between atoms: C_23  and  C_26
   18  A    between atoms: C_26  and  C_37
                            x       y       z     vdW  Elec       q    Type
                         _______ _______ _______ _____ _____    ______ ____

>  <TORSDO>
F 18

$$$$
=
 OpenBabel11042414563D

 39 41  0  0  1  0  0  0  0  0999 V2000
  194.4370  175.9970  145.1390 C   0  0  0  0  0  0  0  0  0  0  0  0
  192.0300  174.6260  144.5350 C   0  0  1  0  0  3  0  0  0  0  0  0
  194.7920  177.2040  145.0970 O   0  0  0  0  0  0  0  0  0  0  0  0
  193.1340  175.6170  144.7100 N   0  0  0  0  0  0  0  0  0  0  0  0
  191.8230  175.9000  144.0510 C   0  0  2  0  0  3  0  0  0  0  0  0
  190.9240  176.7080  144.9880 C   0  0  2  0  0  3  0  0  0  0  0  0
  188.6410  175.8400  144.3110 C   0  0  0  0  0  3  0  0  0  0  0  0
  189.6860  175.9080  145.3990 C   0  0  0  0  0  2  0  0  0  0  0  0
  190.4750  178.0340  144.3690 C   0  0  0  0  0  2  0  0  0  0  0  0
  189.6310  177.7940  143.1200 C   0  0  0  0  0  2  0  0  0  0  0  0
  188.5710  176.7410  143.3170 C   0  0  0  0  0  0  0  0  0  0  0  0
  187.4950  176.6440  142.2860 C   0  0  0  0  0  2  0  0  0  0  0  0
  186.1870  177.2070  142.8170 C   0  0  0  0  0  2  0  0  0  0  0  0
  186.2240  178.7230  142.7750 C   0  0  0  0  0  2  0  0  0  0  0  0
  185.3550  178.8290  146.3830 C   0  0  0  0  0  2  0  0  0  0  0  0
  183.9930  178.7450  145.7290 C   0  0  0  0  0  2  0  0  0  0  0  0
  184.2080  178.8990  144.2340 C   0  0  0  0  0  2  0  0  0  0  0  0
  186.3690  178.7620  145.2640 C   0  0  0  0  0  2  0  0  0  0  0  0
  185.6520  179.3100  144.0550 C   0  0  0  0  0  3  0  0  0  0  0  0
  195.5860  174.7620  145.7200 S   0  0  0  0  0  0  0  0  0  0  0  0
  195.8130  174.1030  144.0470 C   0  0  0  0  0  1  0  0  0  0  0  0
  192.3240  173.7770  143.4700 O   0  0  0  0  0  0  0  0  0  0  0  0
  192.2220  172.4870  143.9950 C   0  0  0  0  0  2  0  0  0  0  0  0
  191.2170  171.6700  143.1920 C   0  0  0  0  0  2  0  0  0  0  0  0
  189.4120  172.0380  144.7380 N   0  0  0  0  0  2  0  0  0  0  0  0
  189.8200  172.0780  143.5230 C   0  0  0  0  0  0  0  0  0  0  0  0
  188.9920  172.7410  142.4600 C   0  0  0  0  0  2  0  0  0  0  0  0
  189.7530  173.0410  141.1660 C   0  0  2  0  0  3  0  0  0  0  0  0
  190.0370  174.4030  141.0310 O   0  0  0  0  0  1  0  0  0  0  0  0
  189.1650  172.4210  139.8920 C   0  0  2  0  0  3  0  0  0  0  0  0
  189.8410  171.2460  139.5600 O   0  0  0  0  0  1  0  0  0  0  0  0
  188.1220  174.1620  138.6610 O   0  0  0  0  0  0  0  0  0  0  0  0
  189.0720  173.3370  138.7010 C   0  0  0  0  0  0  0  0  0  0  0  0
  189.9430  173.2650  137.6090 O   0  0  0  0  0  0  0  0  0  0  0  0
  191.1210  174.0480  137.4970 C   0  0  0  0  0  2  0  0  0  0  0  0
  192.2990  173.3120  138.1170 C   0  0  0  0  0  2  0  0  0  0  0  0
  193.3000  174.0170  140.2880 O   0  0  0  0  0  1  0  0  0  0  0  0
  193.8730  175.1090  138.3610 O   0  0  0  0  0  0  0  0  0  0  0  0
  193.1810  174.2190  138.9190 C   0  0  0  0  0  0  0  0  0  0  0  0
  1 20  1  0  0  0  0
  2 22  1  6  0  0  0
  2  4  1  0  0  0  0
  3  1  2  0  0  0  0
  4  1  1  0  0  0  0
  5  2  1  0  0  0  0
  5  4  1  1  0  0  0
  5  6  1  0  0  0  0
  6  9  1  6  0  0  0
  6  8  1  0  0  0  0
  7  8  1  0  0  0  0
 10 11  1  0  0  0  0
 10  9  1  0  0  0  0
 11  7  2  0  0  0  0
 12 13  1  0  0  0  0
 12 11  1  0  0  0  0
 14 13  1  0  0  0  0
 14 19  1  0  0  0  0
 16 15  1  0  0  0  0
 17 16  1  0  0  0  0
 18 15  1  0  0  0  0
 19 17  1  0  0  0  0
 19 18  1  0  0  0  0
 21 20  1  0  0  0  0
 22 23  1  0  0  0  0
 24 26  1  0  0  0  0
 24 23  1  0  0  0  0
 26 25  2  0  0  0  0
 27 26  1  0  0  0  0
 28 29  1  6  0  0  0
 28 27  1  0  0  0  0
 30 31  1  6  0  0  0
 30 28  1  0  0  0  0
 32 33  2  0  0  0  0
 33 30  1  0  0  0  0
 34 33  1  0  0  0  0
 35 34  1  0  0  0  0
 35 36  1  0  0  0  0
 36 39  1  0  0  0  0
 38 39  2  0  0  0  0
 39 37  1  0  0  0  0
M  END
>  <MODEL>
6

>  <REMARK>
 VINA RESULT:      -5.9      2.591      5.901
  Name = 
  18 active torsions:
  status: ('A' for Active; 'I' for Inactive)
    1  A    between atoms: C_2  and  C_6
    2  A    between atoms: C_2  and  C_27
    3  A    between atoms: C_4  and  C_30
    4  A    between atoms: C_5  and  C_6
    5  A    between atoms: C_5  and  C_38
    6  A    between atoms: C_8  and  C_34
    7  A    between atoms: C_8  and  C_36
    8  A    between atoms: O_10  and  C_33
    9  A    between atoms: O_10  and  C_36
   10  A    between atoms: C_12  and  S_24
   11  A    between atoms: C_13  and  C_32
   12  A    between atoms: C_13  and  C_33
   13  A    between atoms: C_15  and  O_17
   14  A    between atoms: O_17  and  C_37
   15  A    between atoms: C_19  and  C_23
   16  A    between atoms: C_19  and  C_34
   17  A    between atoms: C_23  and  C_26
   18  A    between atoms: C_26  and  C_37
                            x       y       z     vdW  Elec       q    Type
                         _______ _______ _______ _____ _____    ______ ____

>  <TORSDO>
F 18

$$$$
=
 OpenBabel11042414563D

 39 41  0  0  1  0  0  0  0  0999 V2000
  194.5180  176.3650  145.0760 C   0  0  0  0  0  0  0  0  0  0  0  0
  192.2530  174.6630  145.1820 C   0  0  1  0  0  3  0  0  0  0  0  0
  194.7310  177.5620  145.4040 O   0  0  0  0  0  0  0  0  0  0  0  0
  193.2180  175.8040  145.2160 N   0  0  0  0  0  0  0  0  0  0  0  0
  191.7500  175.9130  145.4780 C   0  0  2  0  0  3  0  0  0  0  0  0
  191.4910  176.0630  146.9780 C   0  0  2  0  0  3  0  0  0  0  0  0
  189.1790  175.0410  147.1590 C   0  0  0  0  0  3  0  0  0  0  0  0
  190.6410  174.9100  147.5140 C   0  0  0  0  0  2  0  0  0  0  0  0
  190.8070  177.3870  147.3240 C   0  0  0  0  0  2  0  0  0  0  0  0
  189.4280  177.4730  146.6730 C   0  0  0  0  0  2  0  0  0  0  0  0
  188.6120  176.2190  146.8490 C   0  0  0  0  0  0  0  0  0  0  0  0
  187.1530  176.2950  146.5390 C   0  0  0  0  0  2  0  0  0  0  0  0
  186.4060  177.0300  147.6380 C   0  0  0  0  0  2  0  0  0  0  0  0
  185.8370  178.3290  147.0960 C   0  0  0  0  0  2  0  0  0  0  0  0
  185.4860  179.3480  143.5430 C   0  0  0  0  0  2  0  0  0  0  0  0
  184.0450  179.2850  144.0010 C   0  0  0  0  0  2  0  0  0  0  0  0
  184.0480  178.6790  145.3940 C   0  0  0  0  0  2  0  0  0  0  0  0
  186.3320  179.0350  144.7560 C   0  0  0  0  0  2  0  0  0  0  0  0
  185.4540  178.1770  145.6330 C   0  0  0  0  0  3  0  0  0  0  0  0
  195.8520  175.3840  144.4130 S   0  0  0  0  0  0  0  0  0  0  0  0
  195.8410  174.2880  145.8550 C   0  0  0  0  0  1  0  0  0  0  0  0
  191.9410  174.3500  143.8610 O   0  0  0  0  0  0  0  0  0  0  0  0
  192.8660  173.3700  143.4920 C   0  0  0  0  0  2  0  0  0  0  0  0
  193.3940  173.6470  142.0900 C   0  0  0  0  0  2  0  0  0  0  0  0
  193.6670  171.4260  141.2090 N   0  0  0  0  0  2  0  0  0  0  0  0
  193.0300  172.5380  141.1600 C   0  0  0  0  0  0  0  0  0  0  0  0
  191.7770  172.6660  140.3410 C   0  0  0  0  0  2  0  0  0  0  0  0
  190.5300  172.0780  141.0050 C   0  0  2  0  0  3  0  0  0  0  0  0
  190.3900  170.7130  140.7370 O   0  0  0  0  0  1  0  0  0  0  0  0
  189.2310  172.8660  140.7920 C   0  0  2  0  0  3  0  0  0  0  0  0
  189.4270  173.8940  139.8680 O   0  0  0  0  0  1  0  0  0  0  0  0
  188.9700  172.9500  143.1500 O   0  0  0  0  0  0  0  0  0  0  0  0
  188.5720  173.3900  142.0390 C   0  0  0  0  0  0  0  0  0  0  0  0
  187.4930  174.2810  142.0210 O   0  0  0  0  0  0  0  0  0  0  0  0
  187.6260  175.6730  142.2650 C   0  0  0  0  0  2  0  0  0  0  0  0
  189.0480  175.9950  142.6960 C   0  0  0  0  0  2  0  0  0  0  0  0
  188.4670  178.2830  141.8920 O   0  0  0  0  0  0  0  0  0  0  0  0
  190.4610  177.9200  142.9550 O   0  0  0  0  0  1  0  0  0  0  0  0
  189.3890  177.4420  142.5040 C   0  0  0  0  0  0  0  0  0  0  0  0
  1  4  1  0  0  0  0
  1  3  2  0  0  0  0
  2 22  1  6  0  0  0
  2  4  1  0  0  0  0
  2  5  1  0  0  0  0
  5  4  1  1  0  0  0
  5  6  1  0  0  0  0
  6  9  1  6  0  0  0
  6  8  1  0  0  0  0
  7  8  1  0  0  0  0
 10 11  1  0  0  0  0
 10  9  1  0  0  0  0
 11  7  2  0  0  0  0
 12 11  1  0  0  0  0
 12 13  1  0  0  0  0
 14 13  1  0  0  0  0
 15 16  1  0  0  0  0
 15 18  1  0  0  0  0
 16 17  1  0  0  0  0
 17 19  1  0  0  0  0
 18 19  1  0  0  0  0
 19 14  1  0  0  0  0
 20  1  1  0  0  0  0
 20 21  1  0  0  0  0
 23 22  1  0  0  0  0
 24 23  1  0  0  0  0
 26 25  2  0  0  0  0
 26 24  1  0  0  0  0
 27 28  1  0  0  0  0
 27 26  1  0  0  0  0
 28 29  1  6  0  0  0
 30 31  1  6  0  0  0
 30 28  1  0  0  0  0
 30 33  1  0  0  0  0
 33 32  2  0  0  0  0
 34 33  1  0  0  0  0
 34 35  1  0  0  0  0
 35 36  1  0  0  0  0
 37 39  2  0  0  0  0
 39 36  1  0  0  0  0
 39 38  1  0  0  0  0
M  END
>  <MODEL>
7

>  <REMARK>
 VINA RESULT:      -5.9      2.592      6.552
  Name = 
  18 active torsions:
  status: ('A' for Active; 'I' for Inactive)
    1  A    between atoms: C_2  and  C_6
    2  A    between atoms: C_2  and  C_27
    3  A    between atoms: C_4  and  C_30
    4  A    between atoms: C_5  and  C_6
    5  A    between atoms: C_5  and  C_38
    6  A    between atoms: C_8  and  C_34
    7  A    between atoms: C_8  and  C_36
    8  A    between atoms: O_10  and  C_33
    9  A    between atoms: O_10  and  C_36
   10  A    between atoms: C_12  and  S_24
   11  A    between atoms: C_13  and  C_32
   12  A    between atoms: C_13  and  C_33
   13  A    between atoms: C_15  and  O_17
   14  A    between atoms: O_17  and  C_37
   15  A    between atoms: C_19  and  C_23
   16  A    between atoms: C_19  and  C_34
   17  A    between atoms: C_23  and  C_26
   18  A    between atoms: C_26  and  C_37
                            x       y       z     vdW  Elec       q    Type
                         _______ _______ _______ _____ _____    ______ ____

>  <TORSDO>
F 18

$$$$
=
 OpenBabel11042414563D

 39 41  0  0  1  0  0  0  0  0999 V2000
  190.4080  172.0460  140.1730 C   0  0  0  0  0  0  0  0  0  0  0  0
  189.4540  173.8860  142.1070 C   0  0  1  0  0  3  0  0  0  0  0  0
  191.4160  171.2960  140.1000 O   0  0  0  0  0  0  0  0  0  0  0  0
  190.2380  172.9120  141.2890 N   0  0  0  0  0  0  0  0  0  0  0  0
  190.7280  173.5770  142.5360 C   0  0  2  0  0  3  0  0  0  0  0  0
  190.6930  172.5940  143.7070 C   0  0  2  0  0  3  0  0  0  0  0  0
  190.9560  174.1860  145.6620 C   0  0  0  0  0  3  0  0  0  0  0  0
  190.0430  173.2220  144.9420 C   0  0  0  0  0  2  0  0  0  0  0  0
  192.0860  172.0830  144.0840 C   0  0  0  0  0  2  0  0  0  0  0  0
  192.9760  173.2310  144.5560 C   0  0  0  0  0  2  0  0  0  0  0  0
  192.2940  174.1410  145.5440 C   0  0  0  0  0  0  0  0  0  0  0  0
  193.1500  175.0980  146.3070 C   0  0  0  0  0  2  0  0  0  0  0  0
  194.5910  175.0300  145.8310 C   0  0  0  0  0  2  0  0  0  0  0  0
  194.9090  176.2420  144.9740 C   0  0  0  0  0  2  0  0  0  0  0  0
  196.3490  176.6530  141.5770 C   0  0  0  0  0  2  0  0  0  0  0  0
  194.8820  176.4340  141.2770 C   0  0  0  0  0  2  0  0  0  0  0  0
  194.2140  176.0510  142.5860 C   0  0  0  0  0  2  0  0  0  0  0  0
  196.4790  176.6610  143.0830 C   0  0  0  0  0  2  0  0  0  0  0  0
  195.3310  175.8170  143.5780 C   0  0  0  0  0  3  0  0  0  0  0  0
  189.2040  172.0330  138.8560 S   0  0  0  0  0  0  0  0  0  0  0  0
  189.7410  170.3930  138.3030 C   0  0  0  0  0  1  0  0  0  0  0  0
  189.4730  175.1370  141.4950 O   0  0  0  0  0  0  0  0  0  0  0  0
  188.1310  175.4450  141.2560 C   0  0  0  0  0  2  0  0  0  0  0  0
  187.5330  176.1590  142.4610 C   0  0  0  0  0  2  0  0  0  0  0  0
  188.3780  178.1400  141.3910 N   0  0  0  0  0  2  0  0  0  0  0  0
  187.6170  177.6390  142.2930 C   0  0  0  0  0  0  0  0  0  0  0  0
  186.6370  178.5060  143.0320 C   0  0  0  0  0  2  0  0  0  0  0  0
  185.2880  177.8350  143.3070 C   0  0  2  0  0  3  0  0  0  0  0  0
  184.5280  177.6930  142.1430 O   0  0  0  0  0  1  0  0  0  0  0  0
  184.4880  178.4150  144.4800 C   0  0  2  0  0  3  0  0  0  0  0  0
  184.4210  179.8050  144.3900 O   0  0  0  0  0  1  0  0  0  0  0  0
  184.0560  177.7710  146.7240 O   0  0  0  0  0  0  0  0  0  0  0  0
  184.9380  177.9910  145.8530 C   0  0  0  0  0  0  0  0  0  0  0  0
  186.2830  177.9040  146.2260 O   0  0  0  0  0  0  0  0  0  0  0  0
  186.8480  176.7590  146.8460 C   0  0  0  0  0  2  0  0  0  0  0  0
  188.0960  176.3200  146.0960 C   0  0  0  0  0  2  0  0  0  0  0  0
  189.6210  177.7990  147.4010 O   0  0  0  0  0  1  0  0  0  0  0  0
  189.7770  177.7300  145.1190 O   0  0  0  0  0  0  0  0  0  0  0  0
  189.1910  177.3410  146.1620 C   0  0  0  0  0  0  0  0  0  0  0  0
  1  4  1  0  0  0  0
  2 22  1  6  0  0  0
  2  5  1  0  0  0  0
  3  1  2  0  0  0  0
  4  2  1  0  0  0  0
  5  4  1  6  0  0  0
  5  6  1  0  0  0  0
  6  9  1  1  0  0  0
  6  8  1  0  0  0  0
  8  7  1  0  0  0  0
  9 10  1  0  0  0  0
 10 11  1  0  0  0  0
 11  7  2  0  0  0  0
 11 12  1  0  0  0  0
 13 12  1  0  0  0  0
 14 13  1  0  0  0  0
 15 18  1  0  0  0  0
 16 15  1  0  0  0  0
 16 17  1  0  0  0  0
 17 19  1  0  0  0  0
 18 19  1  0  0  0  0
 19 14  1  0  0  0  0
 20  1  1  0  0  0  0
 21 20  1  0  0  0  0
 23 22  1  0  0  0  0
 23 24  1  0  0  0  0
 25 26  2  0  0  0  0
 26 24  1  0  0  0  0
 26 27  1  0  0  0  0
 27 28  1  0  0  0  0
 28 29  1  6  0  0  0
 28 30  1  0  0  0  0
 30 31  1  1  0  0  0
 30 33  1  0  0  0  0
 33 34  1  0  0  0  0
 33 32  2  0  0  0  0
 34 35  1  0  0  0  0
 36 39  1  0  0  0  0
 36 35  1  0  0  0  0
 38 39  2  0  0  0  0
 39 37  1  0  0  0  0
M  END
>  <MODEL>
8

>  <REMARK>
 VINA RESULT:      -5.8      2.966      7.734
  Name = 
  18 active torsions:
  status: ('A' for Active; 'I' for Inactive)
    1  A    between atoms: C_2  and  C_6
    2  A    between atoms: C_2  and  C_27
    3  A    between atoms: C_4  and  C_30
    4  A    between atoms: C_5  and  C_6
    5  A    between atoms: C_5  and  C_38
    6  A    between atoms: C_8  and  C_34
    7  A    between atoms: C_8  and  C_36
    8  A    between atoms: O_10  and  C_33
    9  A    between atoms: O_10  and  C_36
   10  A    between atoms: C_12  and  S_24
   11  A    between atoms: C_13  and  C_32
   12  A    between atoms: C_13  and  C_33
   13  A    between atoms: C_15  and  O_17
   14  A    between atoms: O_17  and  C_37
   15  A    between atoms: C_19  and  C_23
   16  A    between atoms: C_19  and  C_34
   17  A    between atoms: C_23  and  C_26
   18  A    between atoms: C_26  and  C_37
                            x       y       z     vdW  Elec       q    Type
                         _______ _______ _______ _____ _____    ______ ____

>  <TORSDO>
F 18

$$$$
=
 OpenBabel11042414563D

 39 41  0  0  1  0  0  0  0  0999 V2000
  184.4880  178.1510  142.2760 C   0  0  0  0  0  0  0  0  0  0  0  0
  186.9650  176.8120  142.6130 C   0  0  1  0  0  3  0  0  0  0  0  0
  183.6270  178.6120  143.0690 O   0  0  0  0  0  0  0  0  0  0  0  0
  185.6340  177.4710  142.7770 N   0  0  0  0  0  0  0  0  0  0  0  0
  186.4170  176.8330  143.8790 C   0  0  2  0  0  3  0  0  0  0  0  0
  187.0760  177.9050  144.7480 C   0  0  2  0  0  3  0  0  0  0  0  0
  189.2330  176.7340  145.3810 C   0  0  0  0  0  3  0  0  0  0  0  0
  188.6000  177.8710  144.6140 C   0  0  0  0  0  2  0  0  0  0  0  0
  186.7040  177.7700  146.2270 C   0  0  0  0  0  2  0  0  0  0  0  0
  187.2000  176.4410  146.7930 C   0  0  0  0  0  2  0  0  0  0  0  0
  188.6270  176.1340  146.4190 C   0  0  0  0  0  0  0  0  0  0  0  0
  189.3150  175.0380  147.1620 C   0  0  0  0  0  2  0  0  0  0  0  0
  190.6500  174.7040  146.5190 C   0  0  0  0  0  2  0  0  0  0  0  0
  191.7830  175.2550  147.3670 C   0  0  0  0  0  2  0  0  0  0  0  0
  194.5790  176.9800  145.6390 C   0  0  0  0  0  2  0  0  0  0  0  0
  193.8060  176.3880  144.4810 C   0  0  0  0  0  2  0  0  0  0  0  0
  192.7420  175.4820  145.0760 C   0  0  0  0  0  2  0  0  0  0  0  0
  193.8040  176.6360  146.8900 C   0  0  0  0  0  2  0  0  0  0  0  0
  193.0590  175.3690  146.5500 C   0  0  0  0  0  3  0  0  0  0  0  0
  184.2530  178.3340  140.5170 S   0  0  0  0  0  0  0  0  0  0  0  0
  182.4940  177.9200  140.6490 C   0  0  0  0  0  1  0  0  0  0  0  0
  186.7960  175.5410  142.0670 O   0  0  0  0  0  0  0  0  0  0  0  0
  187.9250  174.8220  142.4670 C   0  0  0  0  0  2  0  0  0  0  0  0
  188.7890  174.4840  141.2580 C   0  0  0  0  0  2  0  0  0  0  0  0
  188.2310  172.6630  139.7900 N   0  0  0  0  0  2  0  0  0  0  0  0
  188.6910  173.0320  140.9290 C   0  0  0  0  0  0  0  0  0  0  0  0
  189.3440  172.0390  141.8480 C   0  0  0  0  0  2  0  0  0  0  0  0
  190.7900  171.6980  141.4800 C   0  0  2  0  0  3  0  0  0  0  0  0
  190.8890  170.4570  140.8450 O   0  0  0  0  0  1  0  0  0  0  0  0
  191.8200  171.8820  142.6020 C   0  0  2  0  0  3  0  0  0  0  0  0
  191.1850  171.9780  143.8400 O   0  0  0  0  0  1  0  0  0  0  0  0
  193.8970  172.9510  143.0240 O   0  0  0  0  0  0  0  0  0  0  0  0
  192.7970  173.0120  142.4150 C   0  0  0  0  0  0  0  0  0  0  0  0
  192.5120  174.1550  141.6610 O   0  0  0  0  0  0  0  0  0  0  0  0
  193.2400  174.5260  140.5000 C   0  0  0  0  0  2  0  0  0  0  0  0
  194.3630  175.4810  140.8690 C   0  0  0  0  0  2  0  0  0  0  0  0
  196.7830  174.8990  141.0220 O   0  0  0  0  0  1  0  0  0  0  0  0
  195.7400  174.9110  138.9850 O   0  0  0  0  0  0  0  0  0  0  0  0
  195.6640  175.1090  140.2250 C   0  0  0  0  0  0  0  0  0  0  0  0
  1  4  1  0  0  0  0
  1  3  2  0  0  0  0
  2 22  1  6  0  0  0
  2  4  1  0  0  0  0
  2  5  1  0  0  0  0
  5  4  1  6  0  0  0
  5  6  1  0  0  0  0
  6  8  1  1  0  0  0
  6  9  1  0  0  0  0
  7 11  2  0  0  0  0
  8  7  1  0  0  0  0
  9 10  1  0  0  0  0
 11 10  1  0  0  0  0
 11 12  1  0  0  0  0
 13 12  1  0  0  0  0
 13 14  1  0  0  0  0
 15 18  1  0  0  0  0
 16 17  1  0  0  0  0
 16 15  1  0  0  0  0
 17 19  1  0  0  0  0
 19 18  1  0  0  0  0
 19 14  1  0  0  0  0
 20 21  1  0  0  0  0
 20  1  1  0  0  0  0
 22 23  1  0  0  0  0
 24 23  1  0  0  0  0
 25 26  2  0  0  0  0
 26 24  1  0  0  0  0
 26 27  1  0  0  0  0
 28 29  1  1  0  0  0
 28 27  1  0  0  0  0
 28 30  1  0  0  0  0
 30 31  1  1  0  0  0
 33 30  1  0  0  0  0
 33 32  2  0  0  0  0
 34 33  1  0  0  0  0
 35 36  1  0  0  0  0
 35 34  1  0  0  0  0
 38 39  2  0  0  0  0
 39 36  1  0  0  0  0
 39 37  1  0  0  0  0
M  END
>  <MODEL>
9

>  <REMARK>
 VINA RESULT:      -5.8      2.978      6.048
  Name = 
  18 active torsions:
  status: ('A' for Active; 'I' for Inactive)
    1  A    between atoms: C_2  and  C_6
    2  A    between atoms: C_2  and  C_27
    3  A    between atoms: C_4  and  C_30
    4  A    between atoms: C_5  and  C_6
    5  A    between atoms: C_5  and  C_38
    6  A    between atoms: C_8  and  C_34
    7  A    between atoms: C_8  and  C_36
    8  A    between atoms: O_10  and  C_33
    9  A    between atoms: O_10  and  C_36
   10  A    between atoms: C_12  and  S_24
   11  A    between atoms: C_13  and  C_32
   12  A    between atoms: C_13  and  C_33
   13  A    between atoms: C_15  and  O_17
   14  A    between atoms: O_17  and  C_37
   15  A    between atoms: C_19  and  C_23
   16  A    between atoms: C_19  and  C_34
   17  A    between atoms: C_23  and  C_26
   18  A    between atoms: C_26  and  C_37
                            x       y       z     vdW  Elec       q    Type
                         _______ _______ _______ _____ _____    ______ ____

>  <TORSDO>
F 18

$$$$
