=
 OpenBabel11042419413D

 61 67  0  0  1  0  0  0  0  0999 V2000
  185.8530  177.8910  146.7470 C   0  0  0  0  0  0  0  0  0  0  0  0
  186.1140  179.0960  144.4450 C   0  0  0  0  0  3  0  0  0  0  0  0
  184.8820  178.3800  147.6650 N   0  0  0  0  0  1  0  0  0  0  0  0
  185.9840  178.4730  145.5860 C   0  0  0  0  0  0  0  0  0  0  0  0
  185.3620  178.7220  143.2280 C   0  0  0  0  0  0  0  0  0  0  0  0
  183.9180  178.0540  140.9030 C   0  0  0  0  0  0  0  0  0  0  0  0
  183.2550  178.1850  142.1290 C   0  0  0  0  0  3  0  0  0  0  0  0
  183.9720  178.5210  143.2810 C   0  0  0  0  0  3  0  0  0  0  0  0
  185.3000  178.2630  140.8410 C   0  0  0  0  0  3  0  0  0  0  0  0
  186.0340  178.5940  141.9920 C   0  0  0  0  0  0  0  0  0  0  0  0
  187.4920  178.8350  141.9060 C   0  0  0  0  0  3  0  0  0  0  0  0
  189.2780  176.9900  142.3900 C   0  0  0  0  0  3  0  0  0  0  0  0
  188.3830  177.9140  142.1680 C   0  0  0  0  0  0  0  0  0  0  0  0
  187.9890  175.0960  141.4260 C   0  0  0  0  0  2  0  0  0  0  0  0
  188.9000  175.5530  142.5490 C   0  0  1  0  0  3  0  0  0  0  0  0
  189.4720  174.7780  141.3650 C   0  0  1  0  0  3  0  0  0  0  0  0
  189.7000  173.3770  141.7320 N   0  0  2  0  0  0  0  0  0  0  0  0
  191.1990  172.0380  143.1480 C   0  0  0  0  0  0  0  0  0  0  0  0
  190.7640  173.4140  142.7450 C   0  0  0  0  0  2  0  0  0  0  0  0
  191.7320  169.2600  139.9040 C   0  0  0  0  0  3  0  0  0  0  0  0
  191.7670  169.6710  142.4120 C   0  0  0  0  0  2  0  0  0  0  0  0
  190.9360  170.3310  139.7480 C   0  0  0  0  0  3  0  0  0  0  0  0
  191.5860  171.1340  142.0140 C   0  0  1  0  0  3  0  0  0  0  0  0
  190.1740  172.6350  140.5390 C   0  0  1  0  0  3  0  0  0  0  0  0
  191.7940  171.9080  144.3340 C   0  0  0  0  0  2  0  0  0  0  0  0
  192.3590  168.8940  141.2340 C   0  0  0  0  0  2  0  0  0  0  0  0
  190.5180  171.1840  140.9240 C   0  0  1  0  0  3  0  0  0  0  0  0
  189.1000  172.6080  139.4500 C   0  0  0  0  0  2  0  0  0  0  0  0
  189.4430  173.5620  138.3990 N   0  0  0  0  0  2  0  0  0  0  0  0
  190.4990  173.0270  137.5300 C   0  0  0  0  0  3  0  0  0  0  0  0
  191.4350  174.1150  137.0410 C   0  0  0  0  0  1  0  0  0  0  0  0
  189.9370  172.2270  136.3730 C   0  0  0  0  0  1  0  0  0  0  0  0
  181.8790  177.4400  139.7530 N   0  0  0  0  0  1  0  0  0  0  0  0
  183.2270  177.7160  139.7370 O   0  0  0  0  0  0  0  0  0  0  0  0
  186.8950  176.9750  147.2210 C   0  0  0  0  0  0  0  0  0  0  0  0
  186.7150  176.3720  148.3160 O   0  0  0  0  0  0  0  0  0  0  0  0
  189.3980  174.6150  146.2350 C   0  0  0  0  0  3  0  0  0  0  0  0
  188.1070  176.7050  146.4170 C   0  0  0  0  0  0  0  0  0  0  0  0
  190.6630  175.0350  146.1550 C   0  0  0  0  0  3  0  0  0  0  0  0
  191.1040  176.3390  145.6000 C   0  0  0  0  0  0  0  0  0  0  0  0
  188.2520  175.3990  145.6970 C   0  0  0  0  0  2  0  0  0  0  0  0
  190.3910  177.4720  145.7080 C   0  0  0  0  0  3  0  0  0  0  0  0
  189.0670  177.6350  146.3420 C   0  0  0  0  0  3  0  0  0  0  0  0
  193.4290  176.7680  145.7920 O   0  0  0  0  0  0  0  0  0  0  0  0
  192.4690  176.4300  145.0480 C   0  0  0  0  0  0  0  0  0  0  0  0
  192.6900  176.1660  143.6920 O   0  0  0  0  0  0  0  0  0  0  0  0
  193.9920  175.9770  143.1490 C   0  0  0  0  0  2  0  0  0  0  0  0
  195.6880  174.1150  143.1560 C   0  0  2  0  0  3  0  0  0  0  0  0
  194.2430  174.5090  142.8130 C   0  0  2  0  0  3  0  0  0  0  0  0
  193.9350  172.6680  139.4670 C   0  0  0  0  0  1  0  0  0  0  0  0
  195.4290  171.5630  143.5460 C   0  0  0  0  0  2  0  0  0  0  0  0
  195.6860  170.8470  141.2140 C   0  0  2  0  0  3  0  0  0  0  0  0
  194.2200  172.8420  140.9460 C   0  0  1  0  0  3  0  0  0  0  0  0
  196.0420  172.6770  142.7140 C   0  0  1  0  0  3  0  0  0  0  0  0
  196.9570  170.4300  140.8180 O   0  0  0  0  0  1  0  0  0  0  0  0
  195.6490  172.3680  141.2730 C   0  0  1  0  0  3  0  0  0  0  0  0
  194.0120  174.3030  141.3210 C   0  0  0  0  0  2  0  0  0  0  0  0
  195.4100  170.3480  142.6320 C   0  0  0  0  0  2  0  0  0  0  0  0
  195.2210  173.8330  145.6540 C   0  0  0  0  0  1  0  0  0  0  0  0
  196.1110  174.4610  144.5960 C   0  0  1  0  0  3  0  0  0  0  0  0
  197.4430  174.1050  144.8160 O   0  0  0  0  0  1  0  0  0  0  0  0
  1 35  1  0  0  0  0
  1  3  1  0  0  0  0
  2  4  2  0  0  0  0
  4  1  2  0  0  0  0
  5  8  1  0  0  0  0
  5  2  1  0  0  0  0
  6  7  1  0  0  0  0
  7  8  2  0  0  0  0
  9  6  2  0  0  0  0
  9 10  1  0  0  0  0
 10  5  2  0  0  0  0
 11 10  1  0  0  0  0
 11 13  2  0  0  0  0
 13 12  2  0  0  0  0
 14 15  1  0  0  0  0
 15 12  1  6  0  0  0
 16 14  1  6  0  0  0
 16 17  1  0  0  0  0
 16 15  1  0  0  0  0
 17 19  1  1  0  0  0
 18 25  2  0  0  0  0
 19 18  1  0  0  0  0
 20 26  1  0  0  0  0
 22 20  2  0  0  0  0
 23 21  1  1  0  0  0
 23 18  1  0  0  0  0
 24 28  1  6  0  0  0
 24 27  1  0  0  0  0
 24 17  1  0  0  0  0
 26 21  1  0  0  0  0
 27 22  1  6  0  0  0
 27 23  1  0  0  0  0
 29 28  1  0  0  0  0
 30 29  1  0  0  0  0
 31 30  1  0  0  0  0
 32 30  1  0  0  0  0
 34 33  1  0  0  0  0
 34  6  1  0  0  0  0
 35 36  2  0  0  0  0
 38 35  1  0  0  0  0
 39 37  2  0  0  0  0
 40 42  2  0  0  0  0
 40 39  1  0  0  0  0
 41 37  1  0  0  0  0
 41 38  1  0  0  0  0
 42 43  1  0  0  0  0
 43 38  2  0  0  0  0
 45 40  1  0  0  0  0
 45 44  2  0  0  0  0
 46 45  1  0  0  0  0
 47 46  1  0  0  0  0
 48 60  1  1  0  0  0
 49 47  1  6  0  0  0
 49 48  1  0  0  0  0
 52 55  1  1  0  0  0
 52 56  1  0  0  0  0
 52 58  1  0  0  0  0
 53 50  1  6  0  0  0
 53 56  1  0  0  0  0
 53 57  1  0  0  0  0
 54 48  1  0  0  0  0
 54 51  1  1  0  0  0
 56 54  1  0  0  0  0
 57 49  1  0  0  0  0
 58 51  1  0  0  0  0
 60 61  1  0  0  0  0
 60 59  1  0  0  0  0
M  END
>  <MODEL>
1

>  <REMARK>
 VINA RESULT:      -7.4      0.000      0.000
  Name = 
  15 active torsions:
  status: ('A' for Active; 'I' for Inactive)
    1  A    between atoms: N_1  and  C_28
    2  A    between atoms: C_2  and  C_47
    3  A    between atoms: C_3  and  C_59
    4  A    between atoms: C_4  and  C_54
    5  A    between atoms: C_9  and  C_49
    6  A    between atoms: C_10  and  C_16
    7  A    between atoms: C_15  and  C_49
    8  A    between atoms: C_20  and  N_23
    9  A    between atoms: C_21  and  C_24
   10  A    between atoms: N_23  and  C_27
   11  A    between atoms: C_24  and  O_42
   12  A    between atoms: C_25  and  C_31
   13  A    between atoms: C_26  and  O_33
   14  A    between atoms: C_27  and  C_39
   15  A    between atoms: O_42  and  C_59
                            x       y       z     vdW  Elec       q    Type
                         _______ _______ _______ _____ _____    ______ ____

>  <TORSDO>
F 15

$$$$
=
 OpenBabel11042419413D

 61 67  0  0  1  0  0  0  0  0999 V2000
  185.7100  177.7380  146.1380 C   0  0  0  0  0  0  0  0  0  0  0  0
  186.5790  178.9460  143.9920 C   0  0  0  0  0  3  0  0  0  0  0  0
  184.4050  178.0490  146.6130 N   0  0  0  0  0  1  0  0  0  0  0  0
  186.1520  178.3220  145.0580 C   0  0  0  0  0  0  0  0  0  0  0  0
  186.3940  178.4280  142.6210 C   0  0  0  0  0  0  0  0  0  0  0  0
  186.0380  177.4820  139.9900 C   0  0  0  0  0  0  0  0  0  0  0  0
  184.9310  177.8760  140.7520 C   0  0  0  0  0  3  0  0  0  0  0  0
  185.1090  178.3480  142.0550 C   0  0  0  0  0  3  0  0  0  0  0  0
  187.3200  177.5680  140.5430 C   0  0  0  0  0  3  0  0  0  0  0  0
  187.5130  178.0350  141.8550 C   0  0  0  0  0  0  0  0  0  0  0  0
  188.8780  178.1420  142.4170 C   0  0  0  0  0  3  0  0  0  0  0  0
  190.3120  176.0660  143.0990 C   0  0  0  0  0  3  0  0  0  0  0  0
  189.5850  177.1020  142.7750 C   0  0  0  0  0  0  0  0  0  0  0  0
  189.3740  174.6120  141.3150 C   0  0  0  0  0  2  0  0  0  0  0  0
  189.9020  174.6760  142.7350 C   0  0  1  0  0  3  0  0  0  0  0  0
  190.8060  174.1970  141.6020 C   0  0  1  0  0  3  0  0  0  0  0  0
  190.9120  172.7360  141.6130 N   0  0  2  0  0  0  0  0  0  0  0  0
  192.1000  170.9590  142.8300 C   0  0  0  0  0  0  0  0  0  0  0  0
  191.7950  172.4240  142.7470 C   0  0  0  0  0  2  0  0  0  0  0  0
  193.0480  169.0660  139.0830 C   0  0  0  0  0  3  0  0  0  0  0  0
  192.6850  168.8200  141.5860 C   0  0  0  0  0  2  0  0  0  0  0  0
  192.3320  170.2040  139.1000 C   0  0  0  0  0  3  0  0  0  0  0  0
  192.6310  170.3460  141.5680 C   0  0  1  0  0  3  0  0  0  0  0  0
  191.5460  172.2850  140.3510 C   0  0  1  0  0  3  0  0  0  0  0  0
  192.4860  170.4830  144.0150 C   0  0  0  0  0  2  0  0  0  0  0  0
  193.4310  168.3230  140.3460 C   0  0  0  0  0  2  0  0  0  0  0  0
  191.7610  170.7610  140.3840 C   0  0  1  0  0  3  0  0  0  0  0  0
  190.6660  172.6270  139.1470 C   0  0  0  0  0  2  0  0  0  0  0  0
  191.3760  173.5510  138.2670 N   0  0  0  0  0  2  0  0  0  0  0  0
  191.0930  173.2550  136.8560 C   0  0  0  0  0  3  0  0  0  0  0  0
  191.0860  174.5090  136.0050 C   0  0  0  0  0  1  0  0  0  0  0  0
  189.8090  172.4690  136.6840 C   0  0  0  0  0  1  0  0  0  0  0  0
  186.8220  176.1690  138.1150 N   0  0  0  0  0  1  0  0  0  0  0  0
  185.8890  177.0030  138.6870 O   0  0  0  0  0  0  0  0  0  0  0  0
  186.6480  177.0350  147.0190 C   0  0  0  0  0  0  0  0  0  0  0  0
  186.2400  176.6520  148.1510 O   0  0  0  0  0  0  0  0  0  0  0  0
  189.2660  174.6040  146.8100 C   0  0  0  0  0  3  0  0  0  0  0  0
  188.0260  176.7200  146.5820 C   0  0  0  0  0  0  0  0  0  0  0  0
  190.5150  175.0000  147.0660 C   0  0  0  0  0  3  0  0  0  0  0  0
  191.1220  176.2780  146.6190 C   0  0  0  0  0  0  0  0  0  0  0  0
  188.3280  175.3900  145.9610 C   0  0  0  0  0  2  0  0  0  0  0  0
  190.4350  177.4250  146.5010 C   0  0  0  0  0  3  0  0  0  0  0  0
  188.9920  177.6310  146.7460 C   0  0  0  0  0  3  0  0  0  0  0  0
  193.2920  176.9650  147.2850 O   0  0  0  0  0  0  0  0  0  0  0  0
  192.5870  176.3290  146.4570 C   0  0  0  0  0  0  0  0  0  0  0  0
  193.1890  175.6910  145.3670 O   0  0  0  0  0  0  0  0  0  0  0  0
  194.3560  176.1970  144.7290 C   0  0  0  0  0  2  0  0  0  0  0  0
  194.6530  174.6000  142.8040 C   0  0  2  0  0  3  0  0  0  0  0  0
  195.2100  175.0680  144.1580 C   0  0  2  0  0  3  0  0  0  0  0  0
  196.0520  171.6370  145.6390 C   0  0  0  0  0  1  0  0  0  0  0  0
  196.7890  173.6330  141.6940 C   0  0  0  0  0  2  0  0  0  0  0  0
  196.6560  171.3740  142.6390 C   0  0  2  0  0  3  0  0  0  0  0  0
  196.0570  172.7590  144.6200 C   0  0  1  0  0  3  0  0  0  0  0  0
  195.3960  173.3690  142.2400 C   0  0  1  0  0  3  0  0  0  0  0  0
  196.0690  170.3900  141.8430 O   0  0  0  0  0  1  0  0  0  0  0  0
  195.5670  172.2420  143.2540 C   0  0  1  0  0  3  0  0  0  0  0  0
  195.1900  173.9000  145.1350 C   0  0  0  0  0  2  0  0  0  0  0  0
  197.5040  172.2930  141.7620 C   0  0  0  0  0  2  0  0  0  0  0  0
  195.6870  176.5510  141.5140 C   0  0  0  0  0  1  0  0  0  0  0  0
  194.4350  175.7350  141.7860 C   0  0  1  0  0  3  0  0  0  0  0  0
  193.9220  175.2290  140.5890 O   0  0  0  0  0  1  0  0  0  0  0  0
  1  3  1  0  0  0  0
  1 35  1  0  0  0  0
  2  4  2  0  0  0  0
  4  1  2  0  0  0  0
  5  2  1  0  0  0  0
  6  9  2  0  0  0  0
  6  7  1  0  0  0  0
  7  8  2  0  0  0  0
  8  5  1  0  0  0  0
  9 10  1  0  0  0  0
 10 11  1  0  0  0  0
 10  5  2  0  0  0  0
 11 13  2  0  0  0  0
 13 12  2  0  0  0  0
 14 15  1  0  0  0  0
 15 12  1  6  0  0  0
 16 14  1  6  0  0  0
 16 17  1  0  0  0  0
 16 15  1  0  0  0  0
 17 19  1  1  0  0  0
 18 25  2  0  0  0  0
 19 18  1  0  0  0  0
 20 22  2  0  0  0  0
 20 26  1  0  0  0  0
 23 21  1  1  0  0  0
 23 18  1  0  0  0  0
 24 28  1  6  0  0  0
 24 27  1  0  0  0  0
 24 17  1  0  0  0  0
 26 21  1  0  0  0  0
 27 22  1  6  0  0  0
 27 23  1  0  0  0  0
 29 28  1  0  0  0  0
 30 29  1  0  0  0  0
 31 30  1  0  0  0  0
 32 30  1  0  0  0  0
 33 34  1  0  0  0  0
 34  6  1  0  0  0  0
 35 36  2  0  0  0  0
 37 39  2  0  0  0  0
 38 43  2  0  0  0  0
 38 35  1  0  0  0  0
 40 39  1  0  0  0  0
 41 38  1  0  0  0  0
 41 37  1  0  0  0  0
 42 40  2  0  0  0  0
 42 43  1  0  0  0  0
 45 40  1  0  0  0  0
 45 44  2  0  0  0  0
 46 45  1  0  0  0  0
 47 46  1  0  0  0  0
 48 60  1  6  0  0  0
 48 49  1  0  0  0  0
 49 47  1  1  0  0  0
 49 57  1  0  0  0  0
 51 58  1  0  0  0  0
 52 55  1  6  0  0  0
 52 56  1  0  0  0  0
 53 57  1  0  0  0  0
 53 50  1  1  0  0  0
 54 51  1  1  0  0  0
 54 48  1  0  0  0  0
 54 56  1  0  0  0  0
 56 53  1  0  0  0  0
 58 52  1  0  0  0  0
 59 60  1  0  0  0  0
 61 60  1  0  0  0  0
M  END
>  <MODEL>
2

>  <REMARK>
 VINA RESULT:      -7.4      1.519      2.220
  Name = 
  15 active torsions:
  status: ('A' for Active; 'I' for Inactive)
    1  A    between atoms: N_1  and  C_28
    2  A    between atoms: C_2  and  C_47
    3  A    between atoms: C_3  and  C_59
    4  A    between atoms: C_4  and  C_54
    5  A    between atoms: C_9  and  C_49
    6  A    between atoms: C_10  and  C_16
    7  A    between atoms: C_15  and  C_49
    8  A    between atoms: C_20  and  N_23
    9  A    between atoms: C_21  and  C_24
   10  A    between atoms: N_23  and  C_27
   11  A    between atoms: C_24  and  O_42
   12  A    between atoms: C_25  and  C_31
   13  A    between atoms: C_26  and  O_33
   14  A    between atoms: C_27  and  C_39
   15  A    between atoms: O_42  and  C_59
                            x       y       z     vdW  Elec       q    Type
                         _______ _______ _______ _____ _____    ______ ____

>  <TORSDO>
F 15

$$$$
=
 OpenBabel11042419413D

 61 67  0  0  1  0  0  0  0  0999 V2000
  196.0350  174.3710  142.1430 C   0  0  0  0  0  0  0  0  0  0  0  0
  197.7910  172.9420  143.4450 C   0  0  0  0  0  3  0  0  0  0  0  0
  195.7170  174.0050  140.8050 N   0  0  0  0  0  1  0  0  0  0  0  0
  196.8990  173.6570  142.8120 C   0  0  0  0  0  0  0  0  0  0  0  0
  197.4480  171.7680  144.2740 C   0  0  0  0  0  0  0  0  0  0  0  0
  196.7510  169.5350  145.8450 C   0  0  0  0  0  0  0  0  0  0  0  0
  196.6780  170.8250  146.3850 C   0  0  0  0  0  3  0  0  0  0  0  0
  197.0200  171.9320  145.6030 C   0  0  0  0  0  3  0  0  0  0  0  0
  197.1670  169.3650  144.5200 C   0  0  0  0  0  3  0  0  0  0  0  0
  197.5210  170.4680  143.7250 C   0  0  0  0  0  0  0  0  0  0  0  0
  197.9360  170.2740  142.3180 C   0  0  0  0  0  3  0  0  0  0  0  0
  196.2860  169.5410  140.4280 C   0  0  0  0  0  3  0  0  0  0  0  0
  197.1110  169.8880  141.3790 C   0  0  0  0  0  0  0  0  0  0  0  0
  194.4070  170.3790  141.8220 C   0  0  0  0  0  2  0  0  0  0  0  0
  194.8080  169.5110  140.6450 C   0  0  1  0  0  3  0  0  0  0  0  0
  194.2660  170.9190  140.4100 C   0  0  1  0  0  3  0  0  0  0  0  0
  192.8630  170.8650  139.9900 N   0  0  2  0  0  0  0  0  0  0  0  0
  191.5280  170.2660  138.0140 C   0  0  0  0  0  0  0  0  0  0  0  0
  192.8900  170.2860  138.6390 C   0  0  0  0  0  2  0  0  0  0  0  0
  189.2260  173.8680  138.5150 C   0  0  0  0  0  3  0  0  0  0  0  0
  189.3370  171.4940  137.6140 C   0  0  0  0  0  2  0  0  0  0  0  0
  190.2190  173.5800  139.3730 C   0  0  0  0  0  3  0  0  0  0  0  0
  190.8100  171.5840  138.0060 C   0  0  1  0  0  3  0  0  0  0  0  0
  192.3210  172.2430  139.9300 C   0  0  1  0  0  3  0  0  0  0  0  0
  191.3210  169.3900  137.0300 C   0  0  0  0  0  2  0  0  0  0  0  0
  188.7720  172.9050  137.4370 C   0  0  0  0  0  2  0  0  0  0  0  0
  190.8780  172.2200  139.3920 C   0  0  1  0  0  3  0  0  0  0  0  0
  192.3130  172.8870  141.3180 C   0  0  0  0  0  2  0  0  0  0  0  0
  191.3850  172.1690  142.1870 N   0  0  0  0  0  2  0  0  0  0  0  0
  190.9630  173.0110  143.3150 C   0  0  0  0  0  3  0  0  0  0  0  0
  190.4630  172.1830  144.4820 C   0  0  0  0  0  1  0  0  0  0  0  0
  189.9410  174.0500  142.9020 C   0  0  0  0  0  1  0  0  0  0  0  0
  195.3030  168.3910  147.4100 N   0  0  0  0  0  1  0  0  0  0  0  0
  196.4190  168.4110  146.6040 O   0  0  0  0  0  0  0  0  0  0  0  0
  195.6520  175.6970  142.6370 C   0  0  0  0  0  0  0  0  0  0  0  0
  196.0360  176.7140  141.9930 O   0  0  0  0  0  0  0  0  0  0  0  0
  194.9050  174.6750  145.9840 C   0  0  0  0  0  3  0  0  0  0  0  0
  194.7860  175.8560  143.8250 C   0  0  0  0  0  0  0  0  0  0  0  0
  193.6240  174.5110  146.3210 C   0  0  0  0  0  3  0  0  0  0  0  0
  192.5060  175.3990  145.9170 C   0  0  0  0  0  0  0  0  0  0  0  0
  195.3890  175.8430  145.1970 C   0  0  0  0  0  2  0  0  0  0  0  0
  192.4530  176.0360  144.7360 C   0  0  0  0  0  3  0  0  0  0  0  0
  193.4670  176.0100  143.6620 C   0  0  0  0  0  3  0  0  0  0  0  0
  191.4330  175.2660  148.0280 O   0  0  0  0  0  0  0  0  0  0  0  0
  191.3170  175.4540  146.7870 C   0  0  0  0  0  0  0  0  0  0  0  0
  190.0550  175.6900  146.2280 O   0  0  0  0  0  0  0  0  0  0  0  0
  189.0870  176.5320  146.8440 C   0  0  0  0  0  2  0  0  0  0  0  0
  186.8880  176.9070  145.6770 C   0  0  2  0  0  3  0  0  0  0  0  0
  188.3460  177.3730  145.8090 C   0  0  2  0  0  3  0  0  0  0  0  0
  189.1020  177.9240  142.0940 C   0  0  0  0  0  1  0  0  0  0  0  0
  185.7450  179.0770  144.8310 C   0  0  0  0  0  2  0  0  0  0  0  0
  186.1660  178.7570  142.4360 C   0  0  2  0  0  3  0  0  0  0  0  0
  188.3540  178.0670  143.4040 C   0  0  1  0  0  3  0  0  0  0  0  0
  186.1220  177.6320  144.5480 C   0  0  1  0  0  3  0  0  0  0  0  0
  185.1360  178.1900  141.6840 O   0  0  0  0  0  1  0  0  0  0  0  0
  186.8780  177.6650  143.2220 C   0  0  1  0  0  3  0  0  0  0  0  0
  189.0420  177.2170  144.4640 C   0  0  0  0  0  2  0  0  0  0  0  0
  185.5700  179.7180  143.4630 C   0  0  0  0  0  2  0  0  0  0  0  0
  186.3090  178.0590  147.8850 C   0  0  0  0  0  1  0  0  0  0  0  0
  186.1270  176.8280  147.0140 C   0  0  1  0  0  3  0  0  0  0  0  0
  184.7680  176.5920  146.7930 O   0  0  0  0  0  1  0  0  0  0  0  0
  1 35  1  0  0  0  0
  1  4  2  0  0  0  0
  2  5  1  0  0  0  0
  3  1  1  0  0  0  0
  4  2  2  0  0  0  0
  5  8  1  0  0  0  0
  6  7  1  0  0  0  0
  6 34  1  0  0  0  0
  8  7  2  0  0  0  0
  9  6  2  0  0  0  0
 10  5  2  0  0  0  0
 10  9  1  0  0  0  0
 11 10  1  0  0  0  0
 12 13  2  0  0  0  0
 13 11  2  0  0  0  0
 15 12  1  1  0  0  0
 15 14  1  0  0  0  0
 16 15  1  0  0  0  0
 16 14  1  1  0  0  0
 17 19  1  6  0  0  0
 17 16  1  0  0  0  0
 18 19  1  0  0  0  0
 20 22  2  0  0  0  0
 23 21  1  1  0  0  0
 23 18  1  0  0  0  0
 23 27  1  0  0  0  0
 24 17  1  0  0  0  0
 24 28  1  1  0  0  0
 25 18  2  0  0  0  0
 26 21  1  0  0  0  0
 26 20  1  0  0  0  0
 27 22  1  6  0  0  0
 27 24  1  0  0  0  0
 28 29  1  0  0  0  0
 29 30  1  0  0  0  0
 30 31  1  0  0  0  0
 32 30  1  0  0  0  0
 34 33  1  0  0  0  0
 35 38  1  0  0  0  0
 36 35  2  0  0  0  0
 37 39  2  0  0  0  0
 38 41  1  0  0  0  0
 40 39  1  0  0  0  0
 40 45  1  0  0  0  0
 41 37  1  0  0  0  0
 42 40  2  0  0  0  0
 43 38  2  0  0  0  0
 43 42  1  0  0  0  0
 45 44  2  0  0  0  0
 46 45  1  0  0  0  0
 46 47  1  0  0  0  0
 48 49  1  0  0  0  0
 48 60  1  1  0  0  0
 49 47  1  1  0  0  0
 52 55  1  1  0  0  0
 52 56  1  0  0  0  0
 52 58  1  0  0  0  0
 53 50  1  6  0  0  0
 53 57  1  0  0  0  0
 54 51  1  1  0  0  0
 54 48  1  0  0  0  0
 56 53  1  0  0  0  0
 56 54  1  0  0  0  0
 57 49  1  0  0  0  0
 58 51  1  0  0  0  0
 60 59  1  0  0  0  0
 61 60  1  0  0  0  0
M  END
>  <MODEL>
3

>  <REMARK>
 VINA RESULT:      -6.8      2.861      9.754
  Name = 
  15 active torsions:
  status: ('A' for Active; 'I' for Inactive)
    1  A    between atoms: N_1  and  C_28
    2  A    between atoms: C_2  and  C_47
    3  A    between atoms: C_3  and  C_59
    4  A    between atoms: C_4  and  C_54
    5  A    between atoms: C_9  and  C_49
    6  A    between atoms: C_10  and  C_16
    7  A    between atoms: C_15  and  C_49
    8  A    between atoms: C_20  and  N_23
    9  A    between atoms: C_21  and  C_24
   10  A    between atoms: N_23  and  C_27
   11  A    between atoms: C_24  and  O_42
   12  A    between atoms: C_25  and  C_31
   13  A    between atoms: C_26  and  O_33
   14  A    between atoms: C_27  and  C_39
   15  A    between atoms: O_42  and  C_59
                            x       y       z     vdW  Elec       q    Type
                         _______ _______ _______ _____ _____    ______ ____

>  <TORSDO>
F 15

$$$$
=
 OpenBabel11042419413D

 61 67  0  0  1  0  0  0  0  0999 V2000
  195.6050  174.4580  142.1880 C   0  0  0  0  0  0  0  0  0  0  0  0
  197.3510  172.8110  143.2180 C   0  0  0  0  0  3  0  0  0  0  0  0
  195.0580  174.1570  140.9090 N   0  0  0  0  0  1  0  0  0  0  0  0
  196.4670  173.6360  142.7230 C   0  0  0  0  0  0  0  0  0  0  0  0
  196.9960  171.6670  144.0840 C   0  0  0  0  0  0  0  0  0  0  0  0
  196.2760  169.4910  145.7230 C   0  0  0  0  0  0  0  0  0  0  0  0
  196.1110  170.8030  146.1840 C   0  0  0  0  0  3  0  0  0  0  0  0
  196.4640  171.8820  145.3680 C   0  0  0  0  0  3  0  0  0  0  0  0
  196.7960  169.2700  144.4430 C   0  0  0  0  0  3  0  0  0  0  0  0
  197.1630  170.3450  143.6150 C   0  0  0  0  0  0  0  0  0  0  0  0
  197.6890  170.0960  142.2550 C   0  0  0  0  0  3  0  0  0  0  0  0
  196.1930  169.2910  140.2680 C   0  0  0  0  0  3  0  0  0  0  0  0
  196.9410  169.6740  141.2680 C   0  0  0  0  0  0  0  0  0  0  0  0
  194.2200  170.0400  141.5800 C   0  0  0  0  0  2  0  0  0  0  0  0
  194.7030  169.2690  140.3660 C   0  0  1  0  0  3  0  0  0  0  0  0
  194.1970  170.7010  140.2140 C   0  0  1  0  0  3  0  0  0  0  0  0
  192.8310  170.7090  139.6830 N   0  0  2  0  0  0  0  0  0  0  0  0
  191.6660  170.5580  137.5230 C   0  0  0  0  0  0  0  0  0  0  0  0
  192.9790  170.4670  138.2410 C   0  0  0  0  0  2  0  0  0  0  0  0
  189.1710  173.8710  138.6710 C   0  0  0  0  0  3  0  0  0  0  0  0
  189.4550  171.7830  137.2510 C   0  0  0  0  0  2  0  0  0  0  0  0
  190.1140  173.4160  139.5130 C   0  0  0  0  0  3  0  0  0  0  0  0
  190.8910  171.8190  137.7670 C   0  0  1  0  0  3  0  0  0  0  0  0
  192.2310  172.0450  139.9060 C   0  0  1  0  0  3  0  0  0  0  0  0
  191.5690  169.9350  136.3480 C   0  0  0  0  0  2  0  0  0  0  0  0
  188.8380  173.1790  137.3650 C   0  0  0  0  0  2  0  0  0  0  0  0
  190.8320  172.1090  139.2650 C   0  0  1  0  0  3  0  0  0  0  0  0
  192.0960  172.3410  141.4010 C   0  0  0  0  0  2  0  0  0  0  0  0
  191.2810  171.3080  142.0330 N   0  0  0  0  0  2  0  0  0  0  0  0
  190.6570  171.8130  143.2640 C   0  0  0  0  0  3  0  0  0  0  0  0
  189.2160  172.2260  143.0400 C   0  0  0  0  0  1  0  0  0  0  0  0
  191.4570  172.9350  143.8920 C   0  0  0  0  0  1  0  0  0  0  0  0
  195.1290  168.5310  147.6250 N   0  0  0  0  0  1  0  0  0  0  0  0
  195.9350  168.3950  146.5180 O   0  0  0  0  0  0  0  0  0  0  0  0
  195.4540  175.8090  142.7360 C   0  0  0  0  0  0  0  0  0  0  0  0
  195.9970  176.7710  142.1250 O   0  0  0  0  0  0  0  0  0  0  0  0
  194.6810  174.8870  146.1070 C   0  0  0  0  0  3  0  0  0  0  0  0
  194.6380  176.0640  143.9430 C   0  0  0  0  0  0  0  0  0  0  0  0
  193.3980  174.8610  146.4730 C   0  0  0  0  0  3  0  0  0  0  0  0
  192.3710  175.8600  146.0890 C   0  0  0  0  0  0  0  0  0  0  0  0
  195.2680  175.9930  145.3000 C   0  0  0  0  0  2  0  0  0  0  0  0
  192.3580  176.4940  144.9050 C   0  0  0  0  0  3  0  0  0  0  0  0
  193.3390  176.3560  143.8080 C   0  0  0  0  0  3  0  0  0  0  0  0
  191.3440  175.8730  148.2270 O   0  0  0  0  0  0  0  0  0  0  0  0
  191.2150  176.0450  146.9850 C   0  0  0  0  0  0  0  0  0  0  0  0
  189.9670  176.3870  146.4500 O   0  0  0  0  0  0  0  0  0  0  0  0
  189.4200  175.7440  145.3040 C   0  0  0  0  0  2  0  0  0  0  0  0
  188.1540  177.4470  143.9480 C   0  0  2  0  0  3  0  0  0  0  0  0
  188.0400  176.3000  144.9640 C   0  0  2  0  0  3  0  0  0  0  0  0
  185.3770  177.8340  147.2510 C   0  0  0  0  0  1  0  0  0  0  0  0
  185.8220  177.3460  142.8180 C   0  0  0  0  0  2  0  0  0  0  0  0
  184.6180  178.7590  144.4220 C   0  0  2  0  0  3  0  0  0  0  0  0
  186.0020  177.3640  145.9520 C   0  0  1  0  0  3  0  0  0  0  0  0
  186.8020  178.1390  143.6650 C   0  0  1  0  0  3  0  0  0  0  0  0
  184.4710  180.1050  144.0910 O   0  0  0  0  0  1  0  0  0  0  0  0
  186.0330  178.5140  144.9280 C   0  0  1  0  0  3  0  0  0  0  0  0
  187.3980  176.8270  146.2400 C   0  0  0  0  0  2  0  0  0  0  0  0
  184.4520  177.9090  143.1630 C   0  0  0  0  0  2  0  0  0  0  0  0
  188.2850  176.0670  141.7990 C   0  0  0  0  0  1  0  0  0  0  0  0
  188.9660  177.0940  142.6870 C   0  0  1  0  0  3  0  0  0  0  0  0
  189.2570  178.2460  141.9520 O   0  0  0  0  0  1  0  0  0  0  0  0
  1  4  2  0  0  0  0
  1 35  1  0  0  0  0
  2  5  1  0  0  0  0
  3  1  1  0  0  0  0
  4  2  2  0  0  0  0
  5  8  1  0  0  0  0
  6  7  1  0  0  0  0
  6 34  1  0  0  0  0
  8  7  2  0  0  0  0
  9  6  2  0  0  0  0
 10  5  2  0  0  0  0
 10  9  1  0  0  0  0
 11 10  1  0  0  0  0
 12 13  2  0  0  0  0
 13 11  2  0  0  0  0
 15 12  1  1  0  0  0
 15 14  1  0  0  0  0
 16 15  1  0  0  0  0
 16 14  1  1  0  0  0
 17 19  1  6  0  0  0
 17 24  1  0  0  0  0
 17 16  1  0  0  0  0
 18 23  1  0  0  0  0
 18 19  1  0  0  0  0
 20 22  2  0  0  0  0
 21 26  1  0  0  0  0
 23 21  1  1  0  0  0
 23 27  1  0  0  0  0
 24 28  1  1  0  0  0
 25 18  2  0  0  0  0
 26 20  1  0  0  0  0
 27 22  1  6  0  0  0
 27 24  1  0  0  0  0
 28 29  1  0  0  0  0
 29 30  1  0  0  0  0
 30 32  1  0  0  0  0
 31 30  1  0  0  0  0
 34 33  1  0  0  0  0
 35 38  1  0  0  0  0
 36 35  2  0  0  0  0
 37 39  2  0  0  0  0
 38 41  1  0  0  0  0
 40 39  1  0  0  0  0
 40 45  1  0  0  0  0
 41 37  1  0  0  0  0
 42 40  2  0  0  0  0
 43 38  2  0  0  0  0
 43 42  1  0  0  0  0
 45 44  2  0  0  0  0
 46 45  1  0  0  0  0
 47 46  1  0  0  0  0
 48 60  1  6  0  0  0
 48 49  1  0  0  0  0
 49 47  1  1  0  0  0
 49 57  1  0  0  0  0
 51 58  1  0  0  0  0
 52 55  1  6  0  0  0
 52 56  1  0  0  0  0
 53 57  1  0  0  0  0
 53 50  1  1  0  0  0
 54 51  1  6  0  0  0
 54 48  1  0  0  0  0
 54 56  1  0  0  0  0
 56 53  1  0  0  0  0
 58 52  1  0  0  0  0
 59 60  1  0  0  0  0
 61 60  1  0  0  0  0
M  END
>  <MODEL>
4

>  <REMARK>
 VINA RESULT:      -6.4      2.936      9.713
  Name = 
  15 active torsions:
  status: ('A' for Active; 'I' for Inactive)
    1  A    between atoms: N_1  and  C_28
    2  A    between atoms: C_2  and  C_47
    3  A    between atoms: C_3  and  C_59
    4  A    between atoms: C_4  and  C_54
    5  A    between atoms: C_9  and  C_49
    6  A    between atoms: C_10  and  C_16
    7  A    between atoms: C_15  and  C_49
    8  A    between atoms: C_20  and  N_23
    9  A    between atoms: C_21  and  C_24
   10  A    between atoms: N_23  and  C_27
   11  A    between atoms: C_24  and  O_42
   12  A    between atoms: C_25  and  C_31
   13  A    between atoms: C_26  and  O_33
   14  A    between atoms: C_27  and  C_39
   15  A    between atoms: O_42  and  C_59
                            x       y       z     vdW  Elec       q    Type
                         _______ _______ _______ _____ _____    ______ ____

>  <TORSDO>
F 15

$$$$
=
 OpenBabel11042419413D

 61 67  0  0  1  0  0  0  0  0999 V2000
  194.2750  176.5340  145.8350 C   0  0  0  0  0  0  0  0  0  0  0  0
  195.7760  174.4330  145.4450 C   0  0  0  0  0  3  0  0  0  0  0  0
  194.8770  177.8220  145.7680 N   0  0  0  0  0  1  0  0  0  0  0  0
  195.0090  175.4760  145.6270 C   0  0  0  0  0  0  0  0  0  0  0  0
  196.0050  173.8150  144.1220 C   0  0  0  0  0  0  0  0  0  0  0  0
  196.4720  172.6110  141.6180 C   0  0  0  0  0  0  0  0  0  0  0  0
  197.2870  173.6630  142.0560 C   0  0  0  0  0  3  0  0  0  0  0  0
  197.0560  174.2560  143.3000 C   0  0  0  0  0  3  0  0  0  0  0  0
  195.4300  172.1610  142.4350 C   0  0  0  0  0  3  0  0  0  0  0  0
  195.1820  172.7530  143.6850 C   0  0  0  0  0  0  0  0  0  0  0  0
  194.0900  172.2500  144.5480 C   0  0  0  0  0  3  0  0  0  0  0  0
  192.0250  170.9410  143.6250 C   0  0  0  0  0  3  0  0  0  0  0  0
  193.0490  171.6120  144.0800 C   0  0  0  0  0  0  0  0  0  0  0  0
  190.8180  169.4870  142.0110 C   0  0  0  0  0  2  0  0  0  0  0  0
  191.9750  170.4470  142.2160 C   0  0  1  0  0  3  0  0  0  0  0  0
  190.6730  170.9370  141.5890 C   0  0  1  0  0  3  0  0  0  0  0  0
  190.8160  171.0530  140.1350 N   0  0  2  0  0  0  0  0  0  0  0  0
  191.3140  169.6350  138.1890 C   0  0  0  0  0  0  0  0  0  0  0  0
  191.0330  169.6790  139.6600 C   0  0  0  0  0  2  0  0  0  0  0  0
  194.0640  172.6180  136.7550 C   0  0  0  0  0  3  0  0  0  0  0  0
  192.5200  170.6760  136.2070 C   0  0  0  0  0  2  0  0  0  0  0  0
  193.3910  172.8200  137.9000 C   0  0  0  0  0  3  0  0  0  0  0  0
  192.4230  170.5310  137.7230 C   0  0  1  0  0  3  0  0  0  0  0  0
  192.0080  171.8800  139.8290 C   0  0  1  0  0  3  0  0  0  0  0  0
  191.0810  168.4830  137.5570 C   0  0  0  0  0  2  0  0  0  0  0  0
  193.8010  171.4330  135.8490 C   0  0  0  0  0  2  0  0  0  0  0  0
  192.2380  171.9310  138.3070 C   0  0  1  0  0  3  0  0  0  0  0  0
  191.8270  173.3090  140.3420 C   0  0  0  0  0  2  0  0  0  0  0  0
  192.9700  173.6810  141.1710 N   0  0  0  0  0  2  0  0  0  0  0  0
  193.3670  175.0740  140.9240 C   0  0  0  0  0  3  0  0  0  0  0  0
  194.5310  175.1680  139.9580 C   0  0  0  0  0  1  0  0  0  0  0  0
  193.6600  175.8220  142.2090 C   0  0  0  0  0  1  0  0  0  0  0  0
  195.7790  171.0970  139.8620 N   0  0  0  0  0  1  0  0  0  0  0  0
  196.6780  172.0030  140.3780 O   0  0  0  0  0  0  0  0  0  0  0  0
  192.9490  176.3900  146.4420 C   0  0  0  0  0  0  0  0  0  0  0  0
  192.8460  176.4900  147.6970 O   0  0  0  0  0  0  0  0  0  0  0  0
  190.8540  174.0990  144.6610 C   0  0  0  0  0  3  0  0  0  0  0  0
  191.7400  176.1910  145.6130 C   0  0  0  0  0  0  0  0  0  0  0  0
  190.3820  174.4740  143.4700 C   0  0  0  0  0  3  0  0  0  0  0  0
  189.8710  175.8250  143.1320 C   0  0  0  0  0  0  0  0  0  0  0  0
  190.8610  175.0000  145.8470 C   0  0  0  0  0  2  0  0  0  0  0  0
  190.3640  176.9590  143.6580 C   0  0  0  0  0  3  0  0  0  0  0  0
  191.4420  177.0820  144.6600 C   0  0  0  0  0  3  0  0  0  0  0  0
  189.0520  175.2980  140.9690 O   0  0  0  0  0  0  0  0  0  0  0  0
  188.8850  175.9410  142.0410 C   0  0  0  0  0  0  0  0  0  0  0  0
  187.7780  176.7850  142.1890 O   0  0  0  0  0  0  0  0  0  0  0  0
  186.5060  176.3140  142.6200 C   0  0  0  0  0  2  0  0  0  0  0  0
  186.3410  178.2530  144.2190 C   0  0  2  0  0  3  0  0  0  0  0  0
  186.2220  176.7290  144.0610 C   0  0  2  0  0  3  0  0  0  0  0  0
  187.9690  175.6860  147.3070 C   0  0  0  0  0  1  0  0  0  0  0  0
  184.7900  178.6650  146.2570 C   0  0  0  0  0  2  0  0  0  0  0  0
  186.4460  178.2560  148.0190 C   0  0  2  0  0  3  0  0  0  0  0  0
  186.9710  176.4140  146.4280 C   0  0  1  0  0  3  0  0  0  0  0  0
  186.1960  178.7210  145.6850 C   0  0  1  0  0  3  0  0  0  0  0  0
  187.0800  179.3740  148.5610 O   0  0  0  0  0  1  0  0  0  0  0  0
  187.0620  177.9340  146.6640 C   0  0  1  0  0  3  0  0  0  0  0  0
  187.2380  176.0530  144.9730 C   0  0  0  0  0  2  0  0  0  0  0  0
  184.9760  178.5850  147.7640 C   0  0  0  0  0  2  0  0  0  0  0  0
  184.0650  178.5900  143.1050 C   0  0  0  0  0  1  0  0  0  0  0  0
  185.5060  179.0590  143.2070 C   0  0  1  0  0  3  0  0  0  0  0  0
  185.5470  180.4220  143.5110 O   0  0  0  0  0  1  0  0  0  0  0  0
  1 35  1  0  0  0  0
  2  4  2  0  0  0  0
  3  1  1  0  0  0  0
  4  1  2  0  0  0  0
  5  2  1  0  0  0  0
  6  7  2  0  0  0  0
  6  9  1  0  0  0  0
  7  8  1  0  0  0  0
  8  5  2  0  0  0  0
  9 10  2  0  0  0  0
 10  5  1  0  0  0  0
 10 11  1  0  0  0  0
 12 13  2  0  0  0  0
 13 11  2  0  0  0  0
 14 15  1  0  0  0  0
 15 12  1  1  0  0  0
 16 14  1  6  0  0  0
 16 15  1  0  0  0  0
 17 19  1  6  0  0  0
 17 16  1  0  0  0  0
 18 19  1  0  0  0  0
 20 22  2  0  0  0  0
 23 21  1  6  0  0  0
 23 18  1  0  0  0  0
 23 27  1  0  0  0  0
 24 17  1  0  0  0  0
 24 28  1  6  0  0  0
 25 18  2  0  0  0  0
 26 21  1  0  0  0  0
 26 20  1  0  0  0  0
 27 22  1  1  0  0  0
 27 24  1  0  0  0  0
 28 29  1  0  0  0  0
 30 29  1  0  0  0  0
 30 32  1  0  0  0  0
 31 30  1  0  0  0  0
 33 34  1  0  0  0  0
 34  6  1  0  0  0  0
 35 36  2  0  0  0  0
 37 41  1  0  0  0  0
 38 41  1  0  0  0  0
 38 35  1  0  0  0  0
 39 37  2  0  0  0  0
 40 39  1  0  0  0  0
 40 42  2  0  0  0  0
 42 43  1  0  0  0  0
 43 38  2  0  0  0  0
 44 45  2  0  0  0  0
 45 46  1  0  0  0  0
 45 40  1  0  0  0  0
 46 47  1  0  0  0  0
 48 60  1  6  0  0  0
 48 54  1  0  0  0  0
 49 47  1  6  0  0  0
 49 48  1  0  0  0  0
 49 57  1  0  0  0  0
 51 58  1  0  0  0  0
 52 55  1  6  0  0  0
 53 56  1  0  0  0  0
 53 50  1  1  0  0  0
 54 51  1  1  0  0  0
 54 56  1  0  0  0  0
 56 52  1  0  0  0  0
 57 53  1  0  0  0  0
 58 52  1  0  0  0  0
 59 60  1  0  0  0  0
 60 61  1  0  0  0  0
M  END
>  <MODEL>
5

>  <REMARK>
 VINA RESULT:      -6.4      2.700      8.869
  Name = 
  15 active torsions:
  status: ('A' for Active; 'I' for Inactive)
    1  A    between atoms: N_1  and  C_28
    2  A    between atoms: C_2  and  C_47
    3  A    between atoms: C_3  and  C_59
    4  A    between atoms: C_4  and  C_54
    5  A    between atoms: C_9  and  C_49
    6  A    between atoms: C_10  and  C_16
    7  A    between atoms: C_15  and  C_49
    8  A    between atoms: C_20  and  N_23
    9  A    between atoms: C_21  and  C_24
   10  A    between atoms: N_23  and  C_27
   11  A    between atoms: C_24  and  O_42
   12  A    between atoms: C_25  and  C_31
   13  A    between atoms: C_26  and  O_33
   14  A    between atoms: C_27  and  C_39
   15  A    between atoms: O_42  and  C_59
                            x       y       z     vdW  Elec       q    Type
                         _______ _______ _______ _____ _____    ______ ____

>  <TORSDO>
F 15

$$$$
=
 OpenBabel11042419413D

 61 67  0  0  1  0  0  0  0  0999 V2000
  189.1300  174.9980  146.2670 C   0  0  0  0  0  0  0  0  0  0  0  0
  188.4080  177.3760  145.4630 C   0  0  0  0  0  3  0  0  0  0  0  0
  188.8970  174.6390  147.6250 N   0  0  0  0  0  1  0  0  0  0  0  0
  188.7610  176.1770  145.8470 C   0  0  0  0  0  0  0  0  0  0  0  0
  187.0790  177.6880  144.8970 C   0  0  0  0  0  0  0  0  0  0  0  0
  184.5470  178.3240  143.8380 C   0  0  0  0  0  0  0  0  0  0  0  0
  184.6620  177.8570  145.1540 C   0  0  0  0  0  3  0  0  0  0  0  0
  185.9190  177.5450  145.6790 C   0  0  0  0  0  3  0  0  0  0  0  0
  185.6980  178.4770  143.0580 C   0  0  0  0  0  3  0  0  0  0  0  0
  186.9680  178.1610  143.5710 C   0  0  0  0  0  0  0  0  0  0  0  0
  188.1780  178.3510  142.7410 C   0  0  0  0  0  3  0  0  0  0  0  0
  189.6810  176.3730  141.9300 C   0  0  0  0  0  3  0  0  0  0  0  0
  188.9390  177.3600  142.3540 C   0  0  0  0  0  0  0  0  0  0  0  0
  188.2250  174.5730  141.0270 C   0  0  0  0  0  2  0  0  0  0  0  0
  189.2520  174.9490  142.0770 C   0  0  1  0  0  3  0  0  0  0  0  0
  189.6810  174.1940  140.8220 C   0  0  1  0  0  3  0  0  0  0  0  0
  189.8760  172.7720  141.1220 N   0  0  2  0  0  0  0  0  0  0  0  0
  191.4100  171.3230  142.3830 C   0  0  0  0  0  0  0  0  0  0  0  0
  191.0050  172.7290  142.0610 C   0  0  0  0  0  2  0  0  0  0  0  0
  191.6130  168.6530  139.0130 C   0  0  0  0  0  3  0  0  0  0  0  0
  191.8310  168.9660  141.5260 C   0  0  0  0  0  2  0  0  0  0  0  0
  190.8510  169.7590  138.9510 C   0  0  0  0  0  3  0  0  0  0  0  0
  191.6830  170.4490  141.1950 C   0  0  1  0  0  3  0  0  0  0  0  0
  190.2380  172.0590  139.8740 C   0  0  1  0  0  3  0  0  0  0  0  0
  192.0780  171.1250  143.5210 C   0  0  0  0  0  2  0  0  0  0  0  0
  192.3120  168.2130  140.2830 C   0  0  0  0  0  2  0  0  0  0  0  0
  190.5480  170.5820  140.1820 C   0  0  1  0  0  3  0  0  0  0  0  0
  189.0930  172.1150  138.8610 C   0  0  0  0  0  2  0  0  0  0  0  0
  189.6360  172.0810  137.5050 N   0  0  0  0  0  2  0  0  0  0  0  0
  189.2800  173.3010  136.7670 C   0  0  0  0  0  3  0  0  0  0  0  0
  190.5080  174.0790  136.3350 C   0  0  0  0  0  1  0  0  0  0  0  0
  188.3200  174.1790  137.5430 C   0  0  0  0  0  1  0  0  0  0  0  0
  182.9970  178.3350  141.9800 N   0  0  0  0  0  1  0  0  0  0  0  0
  183.3030  178.6390  143.2870 O   0  0  0  0  0  0  0  0  0  0  0  0
  190.0510  174.1950  145.4580 C   0  0  0  0  0  0  0  0  0  0  0  0
  189.6170  173.1360  144.9230 O   0  0  0  0  0  0  0  0  0  0  0  0
  193.3800  174.5190  146.7300 C   0  0  0  0  0  3  0  0  0  0  0  0
  191.4430  174.6320  145.2130 C   0  0  0  0  0  0  0  0  0  0  0  0
  194.0470  175.6460  146.4690 C   0  0  0  0  0  3  0  0  0  0  0  0
  194.0440  176.3690  145.1740 C   0  0  0  0  0  0  0  0  0  0  0  0
  192.5860  173.7940  145.6990 C   0  0  0  0  0  2  0  0  0  0  0  0
  192.9800  176.4240  144.3560 C   0  0  0  0  0  3  0  0  0  0  0  0
  191.6670  175.7760  144.5560 C   0  0  0  0  0  3  0  0  0  0  0  0
  195.3870  178.3060  145.4360 O   0  0  0  0  0  0  0  0  0  0  0  0
  195.2120  177.2060  144.8450 C   0  0  0  0  0  0  0  0  0  0  0  0
  196.1130  176.7880  143.8580 O   0  0  0  0  0  0  0  0  0  0  0  0
  196.7820  175.5330  143.9100 C   0  0  0  0  0  2  0  0  0  0  0  0
  197.1690  173.3320  142.7510 C   0  0  2  0  0  3  0  0  0  0  0  0
  196.3310  174.6190  142.7740 C   0  0  2  0  0  3  0  0  0  0  0  0
  196.1940  175.2730  139.0020 C   0  0  0  0  0  1  0  0  0  0  0  0
  195.5250  171.6860  141.6040 C   0  0  0  0  0  2  0  0  0  0  0  0
  196.0970  172.2150  139.2790 C   0  0  2  0  0  3  0  0  0  0  0  0
  196.0440  174.4900  140.2910 C   0  0  1  0  0  3  0  0  0  0  0  0
  196.8500  172.4250  141.5410 C   0  0  1  0  0  3  0  0  0  0  0  0
  197.0190  171.3790  138.6500 O   0  0  0  0  0  1  0  0  0  0  0  0
  196.8340  173.1700  140.2090 C   0  0  1  0  0  3  0  0  0  0  0  0
  196.5130  175.3550  141.4530 C   0  0  0  0  0  2  0  0  0  0  0  0
  195.1720  171.3750  140.1580 C   0  0  0  0  0  2  0  0  0  0  0  0
  195.8630  172.3590  144.7220 C   0  0  0  0  0  1  0  0  0  0  0  0
  197.2290  172.5940  144.1010 C   0  0  1  0  0  3  0  0  0  0  0  0
  197.9120  171.3820  143.9690 O   0  0  0  0  0  1  0  0  0  0  0  0
  1  3  1  0  0  0  0
  2  4  2  0  0  0  0
  4  1  2  0  0  0  0
  5  2  1  0  0  0  0
  5  8  1  0  0  0  0
  6  7  1  0  0  0  0
  7  8  2  0  0  0  0
  9 10  1  0  0  0  0
  9  6  2  0  0  0  0
 10  5  2  0  0  0  0
 11 10  1  0  0  0  0
 12 13  2  0  0  0  0
 13 11  2  0  0  0  0
 14 15  1  0  0  0  0
 15 12  1  6  0  0  0
 16 14  1  6  0  0  0
 16 17  1  0  0  0  0
 16 15  1  0  0  0  0
 17 19  1  1  0  0  0
 18 25  2  0  0  0  0
 19 18  1  0  0  0  0
 20 26  1  0  0  0  0
 22 20  2  0  0  0  0
 23 21  1  1  0  0  0
 23 18  1  0  0  0  0
 24 28  1  6  0  0  0
 24 27  1  0  0  0  0
 24 17  1  0  0  0  0
 26 21  1  0  0  0  0
 27 22  1  6  0  0  0
 27 23  1  0  0  0  0
 29 28  1  0  0  0  0
 30 29  1  0  0  0  0
 30 32  1  0  0  0  0
 31 30  1  0  0  0  0
 33 34  1  0  0  0  0
 34  6  1  0  0  0  0
 35  1  1  0  0  0  0
 36 35  2  0  0  0  0
 38 35  1  0  0  0  0
 38 41  1  0  0  0  0
 39 37  2  0  0  0  0
 40 39  1  0  0  0  0
 41 37  1  0  0  0  0
 42 43  1  0  0  0  0
 42 40  2  0  0  0  0
 43 38  2  0  0  0  0
 45 40  1  0  0  0  0
 45 44  2  0  0  0  0
 46 47  1  0  0  0  0
 46 45  1  0  0  0  0
 48 49  1  0  0  0  0
 48 60  1  1  0  0  0
 49 47  1  1  0  0  0
 52 55  1  1  0  0  0
 52 58  1  0  0  0  0
 52 56  1  0  0  0  0
 53 50  1  6  0  0  0
 53 57  1  0  0  0  0
 54 51  1  1  0  0  0
 54 48  1  0  0  0  0
 56 53  1  0  0  0  0
 56 54  1  0  0  0  0
 57 49  1  0  0  0  0
 58 51  1  0  0  0  0
 60 59  1  0  0  0  0
 61 60  1  0  0  0  0
M  END
>  <MODEL>
6

>  <REMARK>
 VINA RESULT:      -6.2      1.852      2.662
  Name = 
  15 active torsions:
  status: ('A' for Active; 'I' for Inactive)
    1  A    between atoms: N_1  and  C_28
    2  A    between atoms: C_2  and  C_47
    3  A    between atoms: C_3  and  C_59
    4  A    between atoms: C_4  and  C_54
    5  A    between atoms: C_9  and  C_49
    6  A    between atoms: C_10  and  C_16
    7  A    between atoms: C_15  and  C_49
    8  A    between atoms: C_20  and  N_23
    9  A    between atoms: C_21  and  C_24
   10  A    between atoms: N_23  and  C_27
   11  A    between atoms: C_24  and  O_42
   12  A    between atoms: C_25  and  C_31
   13  A    between atoms: C_26  and  O_33
   14  A    between atoms: C_27  and  C_39
   15  A    between atoms: O_42  and  C_59
                            x       y       z     vdW  Elec       q    Type
                         _______ _______ _______ _____ _____    ______ ____

>  <TORSDO>
F 15

$$$$
=
 OpenBabel11042419413D

 61 67  0  0  1  0  0  0  0  0999 V2000
  191.9260  170.4100  138.3520 C   0  0  0  0  0  0  0  0  0  0  0  0
  193.6880  171.9600  137.2080 C   0  0  0  0  0  3  0  0  0  0  0  0
  192.3460  169.1350  138.8260 N   0  0  0  0  0  1  0  0  0  0  0  0
  192.7990  171.2020  137.7920 C   0  0  0  0  0  0  0  0  0  0  0  0
  194.5130  172.9490  137.9330 C   0  0  0  0  0  0  0  0  0  0  0  0
  196.0490  174.8440  139.3430 C   0  0  0  0  0  0  0  0  0  0  0  0
  195.1680  175.2610  138.3380 C   0  0  0  0  0  3  0  0  0  0  0  0
  194.4030  174.3200  137.6420 C   0  0  0  0  0  3  0  0  0  0  0  0
  196.1560  173.4820  139.6440 C   0  0  0  0  0  3  0  0  0  0  0  0
  195.3990  172.5250  138.9480 C   0  0  0  0  0  0  0  0  0  0  0  0
  195.5050  171.0900  139.2940 C   0  0  0  0  0  3  0  0  0  0  0  0
  194.3370  170.0310  141.3780 C   0  0  0  0  0  3  0  0  0  0  0  0
  194.9350  170.5680  140.3490 C   0  0  0  0  0  0  0  0  0  0  0  0
  192.4560  169.8450  142.9920 C   0  0  0  0  0  2  0  0  0  0  0  0
  193.3250  170.7850  142.1780 C   0  0  1  0  0  3  0  0  0  0  0  0
  193.6220  170.5520  143.6570 C   0  0  1  0  0  3  0  0  0  0  0  0
  193.1340  171.6770  144.4610 N   0  0  2  0  0  0  0  0  0  0  0  0
  191.1010  173.0320  144.7360 C   0  0  0  0  0  0  0  0  0  0  0  0
  191.7240  171.8370  144.0790 C   0  0  0  0  0  2  0  0  0  0  0  0
  193.5110  176.5970  144.7260 C   0  0  0  0  0  3  0  0  0  0  0  0
  191.3510  175.4640  145.4360 C   0  0  0  0  0  2  0  0  0  0  0  0
  194.0930  175.3920  144.6020 C   0  0  0  0  0  3  0  0  0  0  0  0
  191.8440  174.3220  144.5510 C   0  0  1  0  0  3  0  0  0  0  0  0
  193.8910  172.8980  144.0970 C   0  0  1  0  0  3  0  0  0  0  0  0
  189.7720  173.0410  144.8510 C   0  0  0  0  0  2  0  0  0  0  0  0
  192.0330  176.7660  145.0140 C   0  0  0  0  0  2  0  0  0  0  0  0
  193.3260  174.1140  144.8550 C   0  0  1  0  0  3  0  0  0  0  0  0
  195.3720  172.7480  144.4510 C   0  0  0  0  0  2  0  0  0  0  0  0
  196.1800  172.8650  143.2400 N   0  0  0  0  0  2  0  0  0  0  0  0
  197.5020  172.2530  143.4310 C   0  0  0  0  0  3  0  0  0  0  0  0
  197.8190  171.2420  142.3470 C   0  0  0  0  0  1  0  0  0  0  0  0
  197.6570  171.6450  144.8090 C   0  0  0  0  0  1  0  0  0  0  0  0
  197.4430  175.4210  141.2360 N   0  0  0  0  0  1  0  0  0  0  0  0
  196.8280  175.7610  140.0520 O   0  0  0  0  0  0  0  0  0  0  0  0
  190.4940  170.6860  138.2020 C   0  0  0  0  0  0  0  0  0  0  0  0
  189.8520  170.0680  137.3060 O   0  0  0  0  0  0  0  0  0  0  0  0
  188.3290  173.5160  138.5320 C   0  0  0  0  0  3  0  0  0  0  0  0
  189.7890  171.6180  139.1090 C   0  0  0  0  0  0  0  0  0  0  0  0
  188.6250  174.4300  139.4590 C   0  0  0  0  0  3  0  0  0  0  0  0
  189.1140  174.1420  140.8290 C   0  0  0  0  0  0  0  0  0  0  0  0
  188.3900  172.0510  138.7960 C   0  0  0  0  0  2  0  0  0  0  0  0
  189.9120  173.1040  141.1300 C   0  0  0  0  0  3  0  0  0  0  0  0
  190.4130  172.0660  140.2050 C   0  0  0  0  0  3  0  0  0  0  0  0
  189.7570  175.9280  142.2510 O   0  0  0  0  0  0  0  0  0  0  0  0
  188.8470  175.1370  141.8840 C   0  0  0  0  0  0  0  0  0  0  0  0
  187.5880  175.1840  142.4940 O   0  0  0  0  0  0  0  0  0  0  0  0
  186.8240  176.3810  142.5880 C   0  0  0  0  0  2  0  0  0  0  0  0
  186.4720  178.2350  144.2560 C   0  0  2  0  0  3  0  0  0  0  0  0
  186.4950  176.7140  144.0410 C   0  0  2  0  0  3  0  0  0  0  0  0
  188.3110  175.7160  147.2630 C   0  0  0  0  0  1  0  0  0  0  0  0
  184.8780  178.4280  146.2920 C   0  0  0  0  0  2  0  0  0  0  0  0
  186.5540  178.1080  148.0540 C   0  0  2  0  0  3  0  0  0  0  0  0
  187.2560  176.3820  146.4020 C   0  0  1  0  0  3  0  0  0  0  0  0
  186.2760  178.6330  145.7350 C   0  0  1  0  0  3  0  0  0  0  0  0
  187.0790  179.2580  148.6420 O   0  0  0  0  0  1  0  0  0  0  0  0
  187.2050  177.8930  146.6940 C   0  0  1  0  0  3  0  0  0  0  0  0
  187.5630  176.1010  144.9370 C   0  0  0  0  0  2  0  0  0  0  0  0
  185.0610  178.3100  147.7970 C   0  0  0  0  0  2  0  0  0  0  0  0
  184.1780  178.4090  143.1400 C   0  0  0  0  0  1  0  0  0  0  0  0
  185.5720  178.9980  143.2660 C   0  0  1  0  0  3  0  0  0  0  0  0
  185.4930  180.3490  143.6140 O   0  0  0  0  0  1  0  0  0  0  0  0
  1  3  1  0  0  0  0
  2  4  2  0  0  0  0
  2  5  1  0  0  0  0
  4  1  2  0  0  0  0
  5 10  1  0  0  0  0
  6  9  1  0  0  0  0
  6 34  1  0  0  0  0
  7  6  2  0  0  0  0
  8  5  2  0  0  0  0
  8  7  1  0  0  0  0
 10 11  1  0  0  0  0
 10  9  2  0  0  0  0
 11 13  2  0  0  0  0
 13 12  2  0  0  0  0
 15 12  1  6  0  0  0
 15 14  1  0  0  0  0
 15 16  1  0  0  0  0
 16 14  1  1  0  0  0
 16 17  1  0  0  0  0
 17 19  1  6  0  0  0
 18 25  2  0  0  0  0
 19 18  1  0  0  0  0
 20 26  1  0  0  0  0
 22 20  2  0  0  0  0
 23 18  1  0  0  0  0
 23 27  1  0  0  0  0
 23 21  1  1  0  0  0
 24 28  1  1  0  0  0
 24 17  1  0  0  0  0
 24 27  1  0  0  0  0
 26 21  1  0  0  0  0
 27 22  1  6  0  0  0
 29 30  1  0  0  0  0
 29 28  1  0  0  0  0
 30 32  1  0  0  0  0
 31 30  1  0  0  0  0
 34 33  1  0  0  0  0
 35  1  1  0  0  0  0
 35 38  1  0  0  0  0
 36 35  2  0  0  0  0
 37 41  1  0  0  0  0
 37 39  2  0  0  0  0
 38 43  2  0  0  0  0
 39 40  1  0  0  0  0
 40 42  2  0  0  0  0
 40 45  1  0  0  0  0
 41 38  1  0  0  0  0
 43 42  1  0  0  0  0
 45 44  2  0  0  0  0
 45 46  1  0  0  0  0
 46 47  1  0  0  0  0
 48 60  1  6  0  0  0
 48 54  1  0  0  0  0
 49 47  1  6  0  0  0
 49 48  1  0  0  0  0
 49 57  1  0  0  0  0
 51 58  1  0  0  0  0
 52 55  1  6  0  0  0
 53 56  1  0  0  0  0
 53 50  1  1  0  0  0
 54 51  1  1  0  0  0
 54 56  1  0  0  0  0
 56 52  1  0  0  0  0
 57 53  1  0  0  0  0
 58 52  1  0  0  0  0
 59 60  1  0  0  0  0
 60 61  1  0  0  0  0
M  END
>  <MODEL>
7

>  <REMARK>
 VINA RESULT:      -6.1      3.190      9.960
  Name = 
  15 active torsions:
  status: ('A' for Active; 'I' for Inactive)
    1  A    between atoms: N_1  and  C_28
    2  A    between atoms: C_2  and  C_47
    3  A    between atoms: C_3  and  C_59
    4  A    between atoms: C_4  and  C_54
    5  A    between atoms: C_9  and  C_49
    6  A    between atoms: C_10  and  C_16
    7  A    between atoms: C_15  and  C_49
    8  A    between atoms: C_20  and  N_23
    9  A    between atoms: C_21  and  C_24
   10  A    between atoms: N_23  and  C_27
   11  A    between atoms: C_24  and  O_42
   12  A    between atoms: C_25  and  C_31
   13  A    between atoms: C_26  and  O_33
   14  A    between atoms: C_27  and  C_39
   15  A    between atoms: O_42  and  C_59
                            x       y       z     vdW  Elec       q    Type
                         _______ _______ _______ _____ _____    ______ ____

>  <TORSDO>
F 15

$$$$
=
 OpenBabel11042419413D

 61 67  0  0  1  0  0  0  0  0999 V2000
  191.0450  173.6410  141.8570 C   0  0  0  0  0  0  0  0  0  0  0  0
  192.4720  174.5440  143.8500 C   0  0  0  0  0  3  0  0  0  0  0  0
  191.4630  173.9400  140.5300 N   0  0  0  0  0  1  0  0  0  0  0  0
  191.7570  174.0720  142.8630 C   0  0  0  0  0  0  0  0  0  0  0  0
  193.5920  173.8030  144.4660 C   0  0  0  0  0  0  0  0  0  0  0  0
  195.7380  172.3710  145.6000 C   0  0  0  0  0  0  0  0  0  0  0  0
  194.4860  171.7610  145.4510 C   0  0  0  0  0  3  0  0  0  0  0  0
  193.4240  172.4720  144.8840 C   0  0  0  0  0  3  0  0  0  0  0  0
  195.9150  173.6920  145.1760 C   0  0  0  0  0  3  0  0  0  0  0  0
  194.8540  174.4210  144.6120 C   0  0  0  0  0  0  0  0  0  0  0  0
  195.0640  175.8100  144.1470 C   0  0  0  0  0  3  0  0  0  0  0  0
  196.6890  176.4360  142.1980 C   0  0  0  0  0  3  0  0  0  0  0  0
  195.8930  176.1210  143.1850 C   0  0  0  0  0  0  0  0  0  0  0  0
  196.8940  173.9990  141.7580 C   0  0  0  0  0  2  0  0  0  0  0  0
  197.2990  175.3930  141.3190 C   0  0  1  0  0  3  0  0  0  0  0  0
  196.1700  174.6610  140.5990 C   0  0  1  0  0  3  0  0  0  0  0  0
  196.6470  174.1080  139.3280 N   0  0  2  0  0  0  0  0  0  0  0  0
  197.1120  174.8440  137.0290 C   0  0  0  0  0  0  0  0  0  0  0  0
  196.7420  175.2600  138.4200 C   0  0  0  0  0  2  0  0  0  0  0  0
  195.0340  171.3850  135.5320 C   0  0  0  0  0  3  0  0  0  0  0  0
  196.7900  173.1790  135.1340 C   0  0  0  0  0  2  0  0  0  0  0  0
  195.1460  171.5810  136.8570 C   0  0  0  0  0  3  0  0  0  0  0  0
  196.2460  173.7750  136.4300 C   0  0  1  0  0  3  0  0  0  0  0  0
  195.6440  173.1470  138.8110 C   0  0  1  0  0  3  0  0  0  0  0  0
  197.6650  175.7690  136.2430 C   0  0  0  0  0  2  0  0  0  0  0  0
  195.7330  172.2620  134.5140 C   0  0  0  0  0  2  0  0  0  0  0  0
  196.0750  172.6290  137.4260 C   0  0  1  0  0  3  0  0  0  0  0  0
  195.4970  171.9510  139.7530 C   0  0  0  0  0  2  0  0  0  0  0  0
  194.1150  171.8570  140.2150 N   0  0  0  0  0  2  0  0  0  0  0  0
  194.0540  171.3400  141.5890 C   0  0  0  0  0  3  0  0  0  0  0  0
  195.3620  170.7000  142.0100 C   0  0  0  0  0  1  0  0  0  0  0  0
  192.8900  170.3930  141.7930 C   0  0  0  0  0  1  0  0  0  0  0  0
  196.7630  170.3310  146.4010 N   0  0  0  0  0  1  0  0  0  0  0  0
  196.8150  171.6860  146.1650 O   0  0  0  0  0  0  0  0  0  0  0  0
  189.6840  173.1480  142.0900 C   0  0  0  0  0  0  0  0  0  0  0  0
  189.5360  171.9770  142.5390 O   0  0  0  0  0  0  0  0  0  0  0  0
  188.0560  175.5520  139.9980 C   0  0  0  0  0  3  0  0  0  0  0  0
  188.5040  174.0110  141.8670 C   0  0  0  0  0  0  0  0  0  0  0  0
  187.4420  176.5830  140.5830 C   0  0  0  0  0  3  0  0  0  0  0  0
  186.6220  176.5090  141.8170 C   0  0  0  0  0  0  0  0  0  0  0  0
  187.9300  174.1520  140.4900 C   0  0  0  0  0  2  0  0  0  0  0  0
  186.8780  175.6650  142.8300 C   0  0  0  0  0  3  0  0  0  0  0  0
  187.9580  174.6600  142.9020 C   0  0  0  0  0  3  0  0  0  0  0  0
  184.9200  177.9590  141.0250 O   0  0  0  0  0  0  0  0  0  0  0  0
  185.5730  177.5270  142.0130 C   0  0  0  0  0  0  0  0  0  0  0  0
  185.3210  178.0300  143.2950 O   0  0  0  0  0  0  0  0  0  0  0  0
  186.2830  178.7790  144.0280 C   0  0  0  0  0  2  0  0  0  0  0  0
  187.2870  177.9790  146.1950 C   0  0  2  0  0  3  0  0  0  0  0  0
  187.3290  177.8670  144.6630 C   0  0  2  0  0  3  0  0  0  0  0  0
  191.1320  177.8000  144.2070 C   0  0  0  0  0  1  0  0  0  0  0  0
  188.2430  175.6700  146.8910 C   0  0  0  0  0  2  0  0  0  0  0  0
  190.6220  176.2640  146.8170 C   0  0  2  0  0  3  0  0  0  0  0  0
  189.7830  177.3820  144.7560 C   0  0  1  0  0  3  0  0  0  0  0  0
  188.4120  177.1800  146.8900 C   0  0  1  0  0  3  0  0  0  0  0  0
  191.2200  176.6240  148.0250 O   0  0  0  0  0  1  0  0  0  0  0  0
  189.7950  177.4310  146.2960 C   0  0  1  0  0  3  0  0  0  0  0  0
  188.7080  178.2890  144.1720 C   0  0  0  0  0  2  0  0  0  0  0  0
  189.6470  175.1130  147.0610 C   0  0  0  0  0  2  0  0  0  0  0  0
  185.2190  176.4830  146.3530 C   0  0  0  0  0  1  0  0  0  0  0  0
  185.8870  177.7700  146.8040 C   0  0  1  0  0  3  0  0  0  0  0  0
  185.9460  177.8180  148.1990 O   0  0  0  0  0  1  0  0  0  0  0  0
  1 35  1  0  0  0  0
  1  4  2  0  0  0  0
  2  5  1  0  0  0  0
  3  1  1  0  0  0  0
  4  2  2  0  0  0  0
  5 10  2  0  0  0  0
  5  8  1  0  0  0  0
  6 34  1  0  0  0  0
  7  6  1  0  0  0  0
  8  7  2  0  0  0  0
  9  6  2  0  0  0  0
 10  9  1  0  0  0  0
 11 10  1  0  0  0  0
 12 13  2  0  0  0  0
 13 11  2  0  0  0  0
 15 14  1  0  0  0  0
 15 12  1  1  0  0  0
 16 15  1  0  0  0  0
 16 14  1  1  0  0  0
 17 19  1  6  0  0  0
 17 16  1  0  0  0  0
 18 19  1  0  0  0  0
 20 22  2  0  0  0  0
 23 21  1  6  0  0  0
 23 18  1  0  0  0  0
 23 27  1  0  0  0  0
 24 17  1  0  0  0  0
 24 28  1  1  0  0  0
 25 18  2  0  0  0  0
 26 21  1  0  0  0  0
 26 20  1  0  0  0  0
 27 22  1  6  0  0  0
 27 24  1  0  0  0  0
 28 29  1  0  0  0  0
 29 30  1  0  0  0  0
 30 32  1  0  0  0  0
 30 31  1  0  0  0  0
 34 33  1  0  0  0  0
 35 36  2  0  0  0  0
 37 41  1  0  0  0  0
 37 39  2  0  0  0  0
 38 35  1  0  0  0  0
 38 43  2  0  0  0  0
 39 40  1  0  0  0  0
 40 45  1  0  0  0  0
 40 42  2  0  0  0  0
 41 38  1  0  0  0  0
 42 43  1  0  0  0  0
 44 45  2  0  0  0  0
 45 46  1  0  0  0  0
 46 47  1  0  0  0  0
 48 60  1  1  0  0  0
 48 54  1  0  0  0  0
 49 47  1  6  0  0  0
 49 48  1  0  0  0  0
 51 58  1  0  0  0  0
 52 58  1  0  0  0  0
 52 55  1  1  0  0  0
 53 50  1  6  0  0  0
 53 56  1  0  0  0  0
 54 51  1  6  0  0  0
 56 52  1  0  0  0  0
 56 54  1  0  0  0  0
 57 49  1  0  0  0  0
 57 53  1  0  0  0  0
 59 60  1  0  0  0  0
 60 61  1  0  0  0  0
M  END
>  <MODEL>
8

>  <REMARK>
 VINA RESULT:      -6.1      2.916      8.910
  Name = 
  15 active torsions:
  status: ('A' for Active; 'I' for Inactive)
    1  A    between atoms: N_1  and  C_28
    2  A    between atoms: C_2  and  C_47
    3  A    between atoms: C_3  and  C_59
    4  A    between atoms: C_4  and  C_54
    5  A    between atoms: C_9  and  C_49
    6  A    between atoms: C_10  and  C_16
    7  A    between atoms: C_15  and  C_49
    8  A    between atoms: C_20  and  N_23
    9  A    between atoms: C_21  and  C_24
   10  A    between atoms: N_23  and  C_27
   11  A    between atoms: C_24  and  O_42
   12  A    between atoms: C_25  and  C_31
   13  A    between atoms: C_26  and  O_33
   14  A    between atoms: C_27  and  C_39
   15  A    between atoms: O_42  and  C_59
                            x       y       z     vdW  Elec       q    Type
                         _______ _______ _______ _____ _____    ______ ____

>  <TORSDO>
F 15

$$$$
=
 OpenBabel11042419413D

 61 67  0  0  1  0  0  0  0  0999 V2000
  195.0760  175.8880  144.5980 C   0  0  0  0  0  0  0  0  0  0  0  0
  196.2420  174.0120  145.9920 C   0  0  0  0  0  3  0  0  0  0  0  0
  195.8580  176.6310  143.6690 N   0  0  0  0  0  1  0  0  0  0  0  0
  195.6410  174.9370  145.2900 C   0  0  0  0  0  0  0  0  0  0  0  0
  196.3390  172.6020  145.5600 C   0  0  0  0  0  0  0  0  0  0  0  0
  196.5350  169.9020  144.7800 C   0  0  0  0  0  0  0  0  0  0  0  0
  197.6920  170.6760  144.9300 C   0  0  0  0  0  3  0  0  0  0  0  0
  197.5940  172.0140  145.3210 C   0  0  0  0  0  3  0  0  0  0  0  0
  195.2840  170.4780  145.0260 C   0  0  0  0  0  3  0  0  0  0  0  0
  195.1700  171.8240  145.4120 C   0  0  0  0  0  0  0  0  0  0  0  0
  193.8410  172.4120  145.6920 C   0  0  0  0  0  3  0  0  0  0  0  0
  191.8000  172.1670  144.0780 C   0  0  0  0  0  3  0  0  0  0  0  0
  192.8280  172.3040  144.8720 C   0  0  0  0  0  0  0  0  0  0  0  0
  190.5740  171.3650  142.0710 C   0  0  0  0  0  2  0  0  0  0  0  0
  191.8270  171.2290  142.9150 C   0  0  1  0  0  3  0  0  0  0  0  0
  191.8510  172.0610  141.6360 C   0  0  1  0  0  3  0  0  0  0  0  0
  192.4860  171.3110  140.5480 N   0  0  2  0  0  0  0  0  0  0  0  0
  194.7320  170.6330  139.8120 C   0  0  0  0  0  0  0  0  0  0  0  0
  193.9150  171.2740  140.8920 C   0  0  0  0  0  2  0  0  0  0  0  0
  193.7510  171.8490  135.8010 C   0  0  0  0  0  3  0  0  0  0  0  0
  195.1640  170.3790  137.3190 C   0  0  0  0  0  2  0  0  0  0  0  0
  192.8420  171.9740  136.7830 C   0  0  0  0  0  3  0  0  0  0  0  0
  194.5370  171.2060  138.4390 C   0  0  1  0  0  3  0  0  0  0  0  0
  192.2980  172.0480  139.2760 C   0  0  1  0  0  3  0  0  0  0  0  0
  195.9170  170.1300  140.1600 C   0  0  0  0  0  2  0  0  0  0  0  0
  195.0850  171.1600  136.0050 C   0  0  0  0  0  2  0  0  0  0  0  0
  193.0450  171.3310  138.1360 C   0  0  1  0  0  3  0  0  0  0  0  0
  190.8160  172.1340  138.9090 C   0  0  0  0  0  2  0  0  0  0  0  0
  190.4700  173.5150  138.5840 N   0  0  0  0  0  2  0  0  0  0  0  0
  189.5380  173.5700  137.4500 C   0  0  0  0  0  3  0  0  0  0  0  0
  190.1190  174.3350  136.2770 C   0  0  0  0  0  1  0  0  0  0  0  0
  188.1850  174.1220  137.8480 C   0  0  0  0  0  1  0  0  0  0  0  0
  196.2450  168.1660  143.1190 N   0  0  0  0  0  1  0  0  0  0  0  0
  196.6030  168.5640  144.3870 O   0  0  0  0  0  0  0  0  0  0  0  0
  193.7610  176.3950  144.9990 C   0  0  0  0  0  0  0  0  0  0  0  0
  193.5950  176.7580  146.1980 O   0  0  0  0  0  0  0  0  0  0  0  0
  190.9380  178.2970  143.8950 C   0  0  0  0  0  3  0  0  0  0  0  0
  192.6600  176.5400  144.0220 C   0  0  0  0  0  0  0  0  0  0  0  0
  189.8440  177.6350  143.5100 C   0  0  0  0  0  3  0  0  0  0  0  0
  189.8300  176.3940  142.6970 C   0  0  0  0  0  0  0  0  0  0  0  0
  192.3120  177.8940  143.4850 C   0  0  0  0  0  2  0  0  0  0  0  0
  190.7750  175.4420  142.7770 C   0  0  0  0  0  3  0  0  0  0  0  0
  191.9840  175.4550  143.6260 C   0  0  0  0  0  3  0  0  0  0  0  0
  188.6630  175.2020  141.0110 O   0  0  0  0  0  0  0  0  0  0  0  0
  188.6340  176.1130  141.8820 C   0  0  0  0  0  0  0  0  0  0  0  0
  187.4750  176.8780  142.0600 O   0  0  0  0  0  0  0  0  0  0  0  0
  186.2780  176.3410  142.6120 C   0  0  0  0  0  2  0  0  0  0  0  0
  186.2380  178.2590  144.2430 C   0  0  2  0  0  3  0  0  0  0  0  0
  186.1200  176.7360  144.0780 C   0  0  2  0  0  3  0  0  0  0  0  0
  188.1580  175.6740  147.1420 C   0  0  0  0  0  1  0  0  0  0  0  0
  184.8700  178.6320  146.4160 C   0  0  0  0  0  2  0  0  0  0  0  0
  186.6800  178.2210  148.0190 C   0  0  2  0  0  3  0  0  0  0  0  0
  187.0790  176.4020  146.3650 C   0  0  1  0  0  3  0  0  0  0  0  0
  186.2200  178.7090  145.7220 C   0  0  1  0  0  3  0  0  0  0  0  0
  187.3500  179.3390  148.5160 O   0  0  0  0  0  1  0  0  0  0  0  0
  187.1760  177.9200  146.6110 C   0  0  1  0  0  3  0  0  0  0  0  0
  187.2190  176.0610  144.8870 C   0  0  0  0  0  2  0  0  0  0  0  0
  185.1910  178.5370  147.8990 C   0  0  0  0  0  2  0  0  0  0  0  0
  184.0350  178.3280  142.9470 C   0  0  0  0  0  1  0  0  0  0  0  0
  185.3080  179.0680  143.3200 C   0  0  1  0  0  3  0  0  0  0  0  0
  184.9950  180.3020  143.8960 O   0  0  0  0  0  1  0  0  0  0  0  0
  1 35  1  0  0  0  0
  1  4  2  0  0  0  0
  3  1  1  0  0  0  0
  4  2  2  0  0  0  0
  5  2  1  0  0  0  0
  6  7  2  0  0  0  0
  6  9  1  0  0  0  0
  7  8  1  0  0  0  0
  8  5  2  0  0  0  0
  9 10  2  0  0  0  0
 10  5  1  0  0  0  0
 10 11  1  0  0  0  0
 12 13  2  0  0  0  0
 13 11  2  0  0  0  0
 14 15  1  0  0  0  0
 15 12  1  1  0  0  0
 16 14  1  6  0  0  0
 16 15  1  0  0  0  0
 17 19  1  1  0  0  0
 17 16  1  0  0  0  0
 18 25  2  0  0  0  0
 18 19  1  0  0  0  0
 20 26  1  0  0  0  0
 20 22  2  0  0  0  0
 23 21  1  6  0  0  0
 23 18  1  0  0  0  0
 24 28  1  6  0  0  0
 24 17  1  0  0  0  0
 26 21  1  0  0  0  0
 27 22  1  6  0  0  0
 27 23  1  0  0  0  0
 27 24  1  0  0  0  0
 29 28  1  0  0  0  0
 30 32  1  0  0  0  0
 30 29  1  0  0  0  0
 31 30  1  0  0  0  0
 33 34  1  0  0  0  0
 34  6  1  0  0  0  0
 35 36  2  0  0  0  0
 38 35  1  0  0  0  0
 39 37  2  0  0  0  0
 40 42  2  0  0  0  0
 40 39  1  0  0  0  0
 41 37  1  0  0  0  0
 41 38  1  0  0  0  0
 42 43  1  0  0  0  0
 43 38  2  0  0  0  0
 44 45  2  0  0  0  0
 45 46  1  0  0  0  0
 45 40  1  0  0  0  0
 46 47  1  0  0  0  0
 48 60  1  6  0  0  0
 48 54  1  0  0  0  0
 49 47  1  6  0  0  0
 49 48  1  0  0  0  0
 49 57  1  0  0  0  0
 51 58  1  0  0  0  0
 52 55  1  6  0  0  0
 53 56  1  0  0  0  0
 53 50  1  1  0  0  0
 54 51  1  1  0  0  0
 54 56  1  0  0  0  0
 56 52  1  0  0  0  0
 57 53  1  0  0  0  0
 58 52  1  0  0  0  0
 59 60  1  0  0  0  0
 60 61  1  0  0  0  0
M  END
>  <MODEL>
9

>  <REMARK>
 VINA RESULT:      -6.1      2.812      9.221
  Name = 
  15 active torsions:
  status: ('A' for Active; 'I' for Inactive)
    1  A    between atoms: N_1  and  C_28
    2  A    between atoms: C_2  and  C_47
    3  A    between atoms: C_3  and  C_59
    4  A    between atoms: C_4  and  C_54
    5  A    between atoms: C_9  and  C_49
    6  A    between atoms: C_10  and  C_16
    7  A    between atoms: C_15  and  C_49
    8  A    between atoms: C_20  and  N_23
    9  A    between atoms: C_21  and  C_24
   10  A    between atoms: N_23  and  C_27
   11  A    between atoms: C_24  and  O_42
   12  A    between atoms: C_25  and  C_31
   13  A    between atoms: C_26  and  O_33
   14  A    between atoms: C_27  and  C_39
   15  A    between atoms: O_42  and  C_59
                            x       y       z     vdW  Elec       q    Type
                         _______ _______ _______ _____ _____    ______ ____

>  <TORSDO>
F 15

$$$$
