=
 OpenBabel11042414533D

 32 36  0  0  1  0  0  0  0  0999 V2000
  194.1570  174.7380  145.6130 C   0  0  0  0  0  2  0  0  0  0  0  0
  191.7080  172.8280  143.7180 C   0  0  1  0  0  3  0  0  0  0  0  0
  192.2740  170.5250  143.2860 O   0  0  0  0  0  0  0  0  0  0  0  0
  190.1480  171.3520  139.3160 C   0  0  0  0  0  0  0  0  0  0  0  0
  191.7820  177.0230  143.0050 O   0  0  0  0  0  1  0  0  0  0  0  0
  193.2500  177.0750  144.9440 C   0  0  0  0  0  2  0  0  0  0  0  0
  191.8130  177.0150  144.4020 C   0  0  2  0  0  3  0  0  0  0  0  0
  194.1840  175.9010  144.6110 C   0  0  2  0  0  3  0  0  0  0  0  0
  192.9170  173.9720  145.5660 N   0  0  0  0  0  2  0  0  0  0  0  0
  193.0270  173.0040  144.4880 C   0  0  1  0  0  3  0  0  0  0  0  0
  190.7160  175.9860  146.3170 C   0  0  0  0  0  3  0  0  0  0  0  0
  191.2800  170.4160  140.3320 S   0  0  0  0  0  0  0  0  0  0  0  0
  190.2780  174.8790  144.1560 C   0  0  0  0  0  2  0  0  0  0  0  0
  190.2400  173.9710  141.9130 C   0  0  0  0  0  2  0  0  0  0  0  0
  190.9200  171.6320  141.6300 C   0  0  2  0  0  3  0  0  0  0  0  0
  193.4970  171.6560  145.0390 C   0  0  0  0  0  2  0  0  0  0  0  0
  190.9720  175.9170  145.0020 C   0  0  0  0  0  0  0  0  0  0  0  0
  189.9320  172.7720  139.7130 C   0  0  1  0  0  3  0  0  0  0  0  0
  191.1580  174.1650  143.1310 C   0  0  2  0  0  3  0  0  0  0  0  0
  193.9650  169.2900  144.4340 C   0  0  0  0  0  1  0  0  0  0  0  0
  189.5030  170.8280  138.4230 O   0  0  0  0  0  0  0  0  0  0  0  0
  193.5400  170.6390  143.8930 C   0  0  1  0  0  3  0  0  0  0  0  0
  190.8110  172.9690  140.9330 C   0  0  1  0  0  3  0  0  0  0  0  0
  190.3510  173.6220  138.6910 O   0  0  0  0  0  1  0  0  0  0  0  0
  192.0320  171.7560  142.6500 C   0  0  1  0  0  3  0  0  0  0  0  0
  194.2160  175.4830  143.1350 C   0  0  2  0  0  3  0  0  0  0  0  0
  195.3360  174.5560  142.9020 N   0  0  0  0  0  2  0  0  0  0  0  0
  195.3950  175.9220  142.3600 C   0  0  2  0  0  3  0  0  0  0  0  0
  197.7130  176.0350  143.0860 N   0  0  0  0  0  1  0  0  0  0  0  0
  196.4370  176.7260  143.1300 C   0  0  0  0  0  2  0  0  0  0  0  0
  189.8360  175.0130  147.0340 C   0  0  0  0  0  2  0  0  0  0  0  0
  188.4190  175.5460  147.0680 C   0  0  0  0  0  1  0  0  0  0  0  0
  2 10  1  0  0  0  0
  3 22  1  0  0  0  0
  4 18  1  0  0  0  0
  4 12  1  0  0  0  0
  5  7  1  0  0  0  0
  7  6  1  0  0  0  0
  7 17  1  0  0  0  0
  8  6  1  0  0  0  0
  8  1  1  0  0  0  0
  9  1  1  0  0  0  0
 10 16  1  0  0  0  0
 10  9  1  0  0  0  0
 11 31  1  0  0  0  0
 12 15  1  0  0  0  0
 13 17  1  0  0  0  0
 14 19  1  0  0  0  0
 15 25  1  0  0  0  0
 17 11  2  0  0  0  0
 18 23  1  0  0  0  0
 19  2  1  0  0  0  0
 19 13  1  0  0  0  0
 21  4  2  0  0  0  0
 22 20  1  0  0  0  0
 22 16  1  0  0  0  0
 23 15  1  0  0  0  0
 23 14  1  0  0  0  0
 24 18  1  0  0  0  0
 25  3  1  0  0  0  0
 25  2  1  0  0  0  0
 26  8  1  0  0  0  0
 27 26  1  0  0  0  0
 28 27  1  0  0  0  0
 28 30  1  0  0  0  0
 28 26  1  0  0  0  0
 29 30  1  0  0  0  0
 31 32  1  0  0  0  0
M  END
>  <MODEL>
1

>  <REMARK>
 VINA RESULT:      -6.5      0.000      0.000
  Name = 
  3 active torsions:
  status: ('A' for Active; 'I' for Inactive)
    1  A    between atoms: C_7  and  C_11
    2  A    between atoms: C_9  and  C_27
    3  A    between atoms: C_14  and  C_18
                            x       y       z     vdW  Elec       q    Type
                         _______ _______ _______ _____ _____    ______ ____

>  <TORSDO>
F 3

$$$$
=
 OpenBabel11042414533D

 32 36  0  0  1  0  0  0  0  0999 V2000
  196.0860  172.7390  141.8560 C   0  0  0  0  0  2  0  0  0  0  0  0
  193.3390  173.9610  143.9040 C   0  0  1  0  0  3  0  0  0  0  0  0
  191.2090  172.8880  143.5590 O   0  0  0  0  0  0  0  0  0  0  0  0
  189.6090  177.1060  144.3400 C   0  0  0  0  0  0  0  0  0  0  0  0
  196.4400  176.7500  143.0570 O   0  0  0  0  0  1  0  0  0  0  0  0
  197.6210  174.8010  142.2070 C   0  0  0  0  0  2  0  0  0  0  0  0
  197.2070  175.6410  143.4250 C   0  0  2  0  0  3  0  0  0  0  0  0
  196.5010  174.1410  141.3860 C   0  0  2  0  0  3  0  0  0  0  0  0
  195.3660  172.7510  143.1240 N   0  0  0  0  0  2  0  0  0  0  0  0
  193.9700  173.0420  142.8460 C   0  0  1  0  0  3  0  0  0  0  0  0
  197.3590  173.9300  145.1490 C   0  0  0  0  0  3  0  0  0  0  0  0
  189.4420  175.4530  143.6810 S   0  0  0  0  0  0  0  0  0  0  0  0
  195.2240  175.1660  145.1050 C   0  0  0  0  0  2  0  0  0  0  0  0
  193.2280  176.4480  144.6300 C   0  0  0  0  0  2  0  0  0  0  0  0
  191.1550  175.2020  144.2240 C   0  0  2  0  0  3  0  0  0  0  0  0
  193.1740  171.7400  142.7410 C   0  0  0  0  0  2  0  0  0  0  0  0
  196.5870  174.8440  144.5430 C   0  0  0  0  0  0  0  0  0  0  0  0
  191.0010  177.6240  144.4620 C   0  0  1  0  0  3  0  0  0  0  0  0
  194.1030  175.3110  144.0770 C   0  0  2  0  0  3  0  0  0  0  0  0
  190.8910  170.7970  142.4490 C   0  0  0  0  0  1  0  0  0  0  0  0
  188.6510  177.7250  144.7700 O   0  0  0  0  0  0  0  0  0  0  0  0
  191.6960  172.0780  142.5150 C   0  0  1  0  0  3  0  0  0  0  0  0
  191.8780  176.5000  143.9470 C   0  0  1  0  0  3  0  0  0  0  0  0
  191.1630  178.7520  143.6580 O   0  0  0  0  0  1  0  0  0  0  0  0
  191.8710  174.1230  143.4400 C   0  0  1  0  0  3  0  0  0  0  0  0
  195.3400  175.0630  140.9950 C   0  0  2  0  0  3  0  0  0  0  0  0
  194.5260  174.4250  139.9470 N   0  0  0  0  0  2  0  0  0  0  0  0
  195.3630  175.5890  139.6140 C   0  0  2  0  0  3  0  0  0  0  0  0
  196.1600  175.2080  137.3490 N   0  0  0  0  0  1  0  0  0  0  0  0
  196.5340  175.1370  138.7490 C   0  0  0  0  0  2  0  0  0  0  0  0
  196.9060  173.1190  146.3220 C   0  0  0  0  0  2  0  0  0  0  0  0
  196.8640  171.6550  145.9360 C   0  0  0  0  0  1  0  0  0  0  0  0
  1  9  1  0  0  0  0
  2 19  1  0  0  0  0
  4 18  1  0  0  0  0
  4 21  2  0  0  0  0
  5  7  1  0  0  0  0
  6  7  1  0  0  0  0
  7 17  1  0  0  0  0
  8  1  1  0  0  0  0
  8  6  1  0  0  0  0
 10  9  1  0  0  0  0
 10  2  1  0  0  0  0
 11 31  1  0  0  0  0
 12 15  1  0  0  0  0
 12  4  1  0  0  0  0
 16 10  1  0  0  0  0
 17 13  1  0  0  0  0
 17 11  2  0  0  0  0
 19 14  1  0  0  0  0
 19 13  1  0  0  0  0
 20 22  1  0  0  0  0
 22 16  1  0  0  0  0
 22  3  1  0  0  0  0
 23 15  1  0  0  0  0
 23 18  1  0  0  0  0
 23 14  1  0  0  0  0
 24 18  1  0  0  0  0
 25  3  1  0  0  0  0
 25  2  1  0  0  0  0
 25 15  1  0  0  0  0
 26  8  1  0  0  0  0
 27 26  1  0  0  0  0
 28 27  1  0  0  0  0
 28 26  1  0  0  0  0
 29 30  1  0  0  0  0
 30 28  1  0  0  0  0
 32 31  1  0  0  0  0
M  END
>  <MODEL>
2

>  <REMARK>
 VINA RESULT:      -6.5      2.718      5.247
  Name = 
  3 active torsions:
  status: ('A' for Active; 'I' for Inactive)
    1  A    between atoms: C_7  and  C_11
    2  A    between atoms: C_9  and  C_27
    3  A    between atoms: C_14  and  C_18
                            x       y       z     vdW  Elec       q    Type
                         _______ _______ _______ _____ _____    ______ ____

>  <TORSDO>
F 3

$$$$
=
 OpenBabel11042414533D

 32 36  0  0  1  0  0  0  0  0999 V2000
  192.6890  172.9400  144.6610 C   0  0  0  0  0  2  0  0  0  0  0  0
  190.6310  175.9390  144.5940 C   0  0  1  0  0  3  0  0  0  0  0  0
  188.7840  175.9840  146.1420 O   0  0  0  0  0  0  0  0  0  0  0  0
  186.7180  178.2080  142.7140 C   0  0  0  0  0  0  0  0  0  0  0  0
  192.6000  174.9280  140.9600 O   0  0  0  0  0  1  0  0  0  0  0  0
  193.7890  173.3180  142.3420 C   0  0  0  0  0  2  0  0  0  0  0  0
  193.6580  174.7710  141.8590 C   0  0  2  0  0  3  0  0  0  0  0  0
  192.6170  172.7280  143.1420 C   0  0  2  0  0  3  0  0  0  0  0  0
  192.4660  174.3260  145.0550 N   0  0  0  0  0  2  0  0  0  0  0  0
  191.0320  174.5510  145.1190 C   0  0  1  0  0  3  0  0  0  0  0  0
  194.7480  175.9010  143.7200 C   0  0  0  0  0  3  0  0  0  0  0  0
  186.6790  177.2440  144.2180 S   0  0  0  0  0  0  0  0  0  0  0  0
  192.5220  176.7900  143.1300 C   0  0  0  0  0  2  0  0  0  0  0  0
  190.2660  177.2510  142.3880 C   0  0  0  0  0  2  0  0  0  0  0  0
  188.4860  177.1810  144.0730 C   0  0  2  0  0  3  0  0  0  0  0  0
  190.5360  174.3700  146.5540 C   0  0  0  0  0  2  0  0  0  0  0  0
  193.6420  175.7910  142.9680 C   0  0  0  0  0  0  0  0  0  0  0  0
  187.9270  178.0400  141.8600 C   0  0  1  0  0  3  0  0  0  0  0  0
  191.1110  176.2050  143.1340 C   0  0  2  0  0  3  0  0  0  0  0  0
  188.5400  174.5400  148.0290 C   0  0  0  0  0  1  0  0  0  0  0  0
  185.8620  179.0390  142.4620 O   0  0  0  0  0  0  0  0  0  0  0  0
  189.0360  174.6780  146.6050 C   0  0  1  0  0  3  0  0  0  0  0  0
  188.7830  177.0300  142.5990 C   0  0  1  0  0  3  0  0  0  0  0  0
  187.5640  177.5250  140.6160 O   0  0  0  0  0  1  0  0  0  0  0  0
  189.0940  175.9820  144.7710 C   0  0  1  0  0  3  0  0  0  0  0  0
  191.2280  172.9330  142.5250 C   0  0  2  0  0  3  0  0  0  0  0  0
  190.2760  171.9700  143.1020 N   0  0  0  0  0  2  0  0  0  0  0  0
  190.7090  171.8190  141.7040 C   0  0  2  0  0  3  0  0  0  0  0  0
  190.8160  169.3910  141.6370 N   0  0  0  0  0  1  0  0  0  0  0  0
  191.6170  170.6000  141.5850 C   0  0  0  0  0  2  0  0  0  0  0  0
  194.9060  176.9190  144.8050 C   0  0  0  0  0  2  0  0  0  0  0  0
  194.5660  176.2900  146.1390 C   0  0  0  0  0  1  0  0  0  0  0  0
  1  9  1  0  0  0  0
  2 25  1  0  0  0  0
  2 10  1  0  0  0  0
  3 22  1  0  0  0  0
  4 12  1  0  0  0  0
  5  7  1  0  0  0  0
  6  8  1  0  0  0  0
  7  6  1  0  0  0  0
  7 17  1  0  0  0  0
  8  1  1  0  0  0  0
  9 10  1  0  0  0  0
 10 16  1  0  0  0  0
 11 31  1  0  0  0  0
 13 19  1  0  0  0  0
 14 23  1  0  0  0  0
 14 19  1  0  0  0  0
 15 12  1  0  0  0  0
 15 25  1  0  0  0  0
 16 22  1  0  0  0  0
 17 13  1  0  0  0  0
 17 11  2  0  0  0  0
 18 23  1  0  0  0  0
 18  4  1  0  0  0  0
 19  2  1  0  0  0  0
 21  4  2  0  0  0  0
 22 20  1  0  0  0  0
 23 15  1  0  0  0  0
 24 18  1  0  0  0  0
 25  3  1  0  0  0  0
 26 27  1  0  0  0  0
 26  8  1  0  0  0  0
 28 26  1  0  0  0  0
 28 27  1  0  0  0  0
 30 29  1  0  0  0  0
 30 28  1  0  0  0  0
 31 32  1  0  0  0  0
M  END
>  <MODEL>
3

>  <REMARK>
 VINA RESULT:      -6.2      3.242      5.742
  Name = 
  3 active torsions:
  status: ('A' for Active; 'I' for Inactive)
    1  A    between atoms: C_7  and  C_11
    2  A    between atoms: C_9  and  C_27
    3  A    between atoms: C_14  and  C_18
                            x       y       z     vdW  Elec       q    Type
                         _______ _______ _______ _____ _____    ______ ____

>  <TORSDO>
F 3

$$$$
=
 OpenBabel11042414533D

 32 36  0  0  1  0  0  0  0  0999 V2000
  192.3630  176.3950  142.7520 C   0  0  0  0  0  2  0  0  0  0  0  0
  194.7630  174.4760  144.6980 C   0  0  1  0  0  3  0  0  0  0  0  0
  197.0680  174.6760  144.0210 O   0  0  0  0  0  0  0  0  0  0  0  0
  197.2020  170.2620  145.2330 C   0  0  0  0  0  0  0  0  0  0  0  0
  190.8070  172.9160  144.5240 O   0  0  0  0  0  1  0  0  0  0  0  0
  190.2700  175.0660  143.5190 C   0  0  0  0  0  2  0  0  0  0  0  0
  190.5260  174.2560  144.8010 C   0  0  2  0  0  3  0  0  0  0  0  0
  191.4310  175.1970  142.5200 C   0  0  2  0  0  3  0  0  0  0  0  0
  193.1940  176.2500  143.9410 N   0  0  0  0  0  2  0  0  0  0  0  0
  194.3550  175.4520  143.5830 C   0  0  1  0  0  3  0  0  0  0  0  0
  191.2030  176.0700  146.2780 C   0  0  0  0  0  3  0  0  0  0  0  0
  197.8410  171.6720  144.3400 S   0  0  0  0  0  0  0  0  0  0  0  0
  192.7550  174.1520  146.2170 C   0  0  0  0  0  2  0  0  0  0  0  0
  194.1050  172.1990  145.7490 C   0  0  0  0  0  2  0  0  0  0  0  0
  196.4070  172.5730  144.9920 C   0  0  2  0  0  3  0  0  0  0  0  0
  195.5300  176.3650  143.2290 C   0  0  0  0  0  2  0  0  0  0  0  0
  191.5250  174.8850  145.7390 C   0  0  0  0  0  0  0  0  0  0  0  0
  195.7470  170.2920  145.5500 C   0  0  1  0  0  3  0  0  0  0  0  0
  193.6100  173.5150  145.1240 C   0  0  2  0  0  3  0  0  0  0  0  0
  197.9380  176.3930  142.6080 C   0  0  0  0  0  1  0  0  0  0  0  0
  197.9360  169.3860  145.6590 O   0  0  0  0  0  0  0  0  0  0  0  0
  196.7570  175.4990  142.9220 C   0  0  1  0  0  3  0  0  0  0  0  0
  195.2510  171.5990  144.9630 C   0  0  1  0  0  3  0  0  0  0  0  0
  195.1010  169.2250  144.9270 O   0  0  0  0  0  1  0  0  0  0  0  0
  196.0110  173.7550  144.1340 C   0  0  1  0  0  3  0  0  0  0  0  0
  192.1410  173.8860  142.1580 C   0  0  2  0  0  3  0  0  0  0  0  0
  192.8090  174.0210  140.8540 N   0  0  0  0  0  2  0  0  0  0  0  0
  191.6180  173.1660  140.9780 C   0  0  2  0  0  3  0  0  0  0  0  0
  189.3100  172.9230  140.2530 N   0  0  0  0  0  1  0  0  0  0  0  0
  190.4460  173.8270  140.2610 C   0  0  0  0  0  2  0  0  0  0  0  0
  192.0580  176.7750  147.2830 C   0  0  0  0  0  2  0  0  0  0  0  0
  191.2190  177.1440  148.4880 C   0  0  0  0  0  1  0  0  0  0  0  0
  1  9  1  0  0  0  0
  2 19  1  0  0  0  0
  3 25  1  0  0  0  0
  4 18  1  0  0  0  0
  4 21  2  0  0  0  0
  5  7  1  0  0  0  0
  6  7  1  0  0  0  0
  7 17  1  0  0  0  0
  8  1  1  0  0  0  0
  8  6  1  0  0  0  0
 10  9  1  0  0  0  0
 10  2  1  0  0  0  0
 11 31  1  0  0  0  0
 12 15  1  0  0  0  0
 12  4  1  0  0  0  0
 16 10  1  0  0  0  0
 17 13  1  0  0  0  0
 17 11  2  0  0  0  0
 19 14  1  0  0  0  0
 19 13  1  0  0  0  0
 20 22  1  0  0  0  0
 22 16  1  0  0  0  0
 22  3  1  0  0  0  0
 23 15  1  0  0  0  0
 23 18  1  0  0  0  0
 23 14  1  0  0  0  0
 24 18  1  0  0  0  0
 25  2  1  0  0  0  0
 25 15  1  0  0  0  0
 26  8  1  0  0  0  0
 27 28  1  0  0  0  0
 27 26  1  0  0  0  0
 28 26  1  0  0  0  0
 29 30  1  0  0  0  0
 30 28  1  0  0  0  0
 31 32  1  0  0  0  0
M  END
>  <MODEL>
4

>  <REMARK>
 VINA RESULT:      -6.1      2.996      5.768
  Name = 
  3 active torsions:
  status: ('A' for Active; 'I' for Inactive)
    1  A    between atoms: C_7  and  C_11
    2  A    between atoms: C_9  and  C_27
    3  A    between atoms: C_14  and  C_18
                            x       y       z     vdW  Elec       q    Type
                         _______ _______ _______ _____ _____    ______ ____

>  <TORSDO>
F 3

$$$$
=
 OpenBabel11042414533D

 32 36  0  0  1  0  0  0  0  0999 V2000
  189.8610  174.1190  145.6900 C   0  0  0  0  0  2  0  0  0  0  0  0
  192.3510  173.7830  143.0600 C   0  0  1  0  0  3  0  0  0  0  0  0
  193.7880  171.8550  143.2100 O   0  0  0  0  0  0  0  0  0  0  0  0
  196.9050  174.7690  141.5500 C   0  0  0  0  0  0  0  0  0  0  0  0
  191.1000  177.7480  143.9700 O   0  0  0  0  0  1  0  0  0  0  0  0
  189.3820  176.6370  145.2870 C   0  0  0  0  0  2  0  0  0  0  0  0
  189.8580  177.1120  143.9050 C   0  0  2  0  0  3  0  0  0  0  0  0
  190.2320  175.5760  146.0040 C   0  0  2  0  0  3  0  0  0  0  0  0
  190.2170  173.7180  144.3350 N   0  0  0  0  0  2  0  0  0  0  0  0
  191.6180  173.3320  144.3330 C   0  0  1  0  0  3  0  0  0  0  0  0
  188.5840  175.5770  142.5070 C   0  0  0  0  0  3  0  0  0  0  0  0
  196.4490  173.2730  142.4150 S   0  0  0  0  0  0  0  0  0  0  0  0
  191.0010  175.6620  142.0150 C   0  0  0  0  0  2  0  0  0  0  0  0
  193.4110  175.8780  141.9580 C   0  0  0  0  0  2  0  0  0  0  0  0
  194.7340  173.8280  142.2040 C   0  0  2  0  0  3  0  0  0  0  0  0
  191.7450  171.8170  144.5020 C   0  0  0  0  0  2  0  0  0  0  0  0
  189.7950  176.0530  142.8340 C   0  0  0  0  0  0  0  0  0  0  0  0
  195.9060  175.8730  141.5790 C   0  0  1  0  0  3  0  0  0  0  0  0
  192.2590  175.3210  142.8120 C   0  0  2  0  0  3  0  0  0  0  0  0
  193.3630  169.9280  144.5560 C   0  0  0  0  0  1  0  0  0  0  0  0
  197.9220  174.8380  140.8800 O   0  0  0  0  0  0  0  0  0  0  0  0
  193.2270  171.4310  144.4300 C   0  0  1  0  0  3  0  0  0  0  0  0
  194.7510  175.3270  142.3950 C   0  0  1  0  0  3  0  0  0  0  0  0
  196.4460  176.9890  142.2190 O   0  0  0  0  0  1  0  0  0  0  0  0
  193.7960  173.2600  143.2470 C   0  0  1  0  0  3  0  0  0  0  0  0
  191.7380  175.8630  146.0560 C   0  0  2  0  0  3  0  0  0  0  0  0
  192.3720  175.0240  147.0870 N   0  0  0  0  0  2  0  0  0  0  0  0
  192.2410  176.4730  147.3040 C   0  0  2  0  0  3  0  0  0  0  0  0
  191.5640  177.9150  149.1410 N   0  0  0  0  0  1  0  0  0  0  0  0
  191.1990  176.7290  148.3870 C   0  0  0  0  0  2  0  0  0  0  0  0
  188.3600  174.5830  141.4120 C   0  0  0  0  0  2  0  0  0  0  0  0
  187.8210  173.2970  142.0030 C   0  0  0  0  0  1  0  0  0  0  0  0
  1  8  1  0  0  0  0
  2 25  1  0  0  0  0
  2 10  1  0  0  0  0
  3 25  1  0  0  0  0
  3 22  1  0  0  0  0
  4 18  1  0  0  0  0
  4 12  1  0  0  0  0
  6  8  1  0  0  0  0
  7  5  1  0  0  0  0
  7  6  1  0  0  0  0
  8 26  1  0  0  0  0
  9  1  1  0  0  0  0
 10  9  1  0  0  0  0
 10 16  1  0  0  0  0
 11 17  2  0  0  0  0
 13 19  1  0  0  0  0
 13 17  1  0  0  0  0
 14 23  1  0  0  0  0
 14 19  1  0  0  0  0
 15 23  1  0  0  0  0
 15 12  1  0  0  0  0
 15 25  1  0  0  0  0
 17  7  1  0  0  0  0
 18 24  1  0  0  0  0
 18 23  1  0  0  0  0
 19  2  1  0  0  0  0
 21  4  2  0  0  0  0
 22 16  1  0  0  0  0
 22 20  1  0  0  0  0
 26 27  1  0  0  0  0
 26 28  1  0  0  0  0
 27 28  1  0  0  0  0
 28 30  1  0  0  0  0
 30 29  1  0  0  0  0
 31 32  1  0  0  0  0
 31 11  1  0  0  0  0
M  END
>  <MODEL>
5

>  <REMARK>
 VINA RESULT:      -6.0      3.020      4.855
  Name = 
  3 active torsions:
  status: ('A' for Active; 'I' for Inactive)
    1  A    between atoms: C_7  and  C_11
    2  A    between atoms: C_9  and  C_27
    3  A    between atoms: C_14  and  C_18
                            x       y       z     vdW  Elec       q    Type
                         _______ _______ _______ _____ _____    ______ ____

>  <TORSDO>
F 3

$$$$
=
 OpenBabel11042414533D

 32 36  0  0  1  0  0  0  0  0999 V2000
  191.4770  175.3340  142.3990 C   0  0  0  0  0  2  0  0  0  0  0  0
  188.2320  175.8000  143.9750 C   0  0  1  0  0  3  0  0  0  0  0  0
  186.6050  177.0300  142.6920 O   0  0  0  0  0  0  0  0  0  0  0  0
  185.3990  178.6090  146.8170 C   0  0  0  0  0  0  0  0  0  0  0  0
  191.5530  175.3660  146.6010 O   0  0  0  0  0  1  0  0  0  0  0  0
  192.7520  174.7370  144.5800 C   0  0  0  0  0  2  0  0  0  0  0  0
  191.8060  174.3150  145.7160 C   0  0  2  0  0  3  0  0  0  0  0  0
  192.2620  175.8350  143.6210 C   0  0  2  0  0  3  0  0  0  0  0  0
  190.1550  174.8220  142.7410 N   0  0  0  0  0  2  0  0  0  0  0  0
  189.2440  175.9500  142.8290 C   0  0  1  0  0  3  0  0  0  0  0  0
  190.6920  172.4470  144.6220 C   0  0  0  0  0  3  0  0  0  0  0  0
  185.4480  178.7310  145.0350 S   0  0  0  0  0  0  0  0  0  0  0  0
  189.1730  174.1140  145.6240 C   0  0  0  0  0  2  0  0  0  0  0  0
  188.0260  176.0330  146.5490 C   0  0  0  0  0  2  0  0  0  0  0  0
  186.4590  177.2260  145.0880 C   0  0  2  0  0  3  0  0  0  0  0  0
  188.5090  176.1350  141.5010 C   0  0  0  0  0  2  0  0  0  0  0  0
  190.5510  173.6240  145.2500 C   0  0  0  0  0  0  0  0  0  0  0  0
  186.4990  177.8300  147.4500 C   0  0  1  0  0  3  0  0  0  0  0  0
  188.9080  175.5970  145.3670 C   0  0  2  0  0  3  0  0  0  0  0  0
  186.7450  177.4560  140.3460 C   0  0  0  0  0  1  0  0  0  0  0  0
  184.4590  179.0400  147.4640 O   0  0  0  0  0  0  0  0  0  0  0  0
  187.5080  177.2880  141.6430 C   0  0  1  0  0  3  0  0  0  0  0  0
  187.3620  177.3690  146.2920 C   0  0  1  0  0  3  0  0  0  0  0  0
  187.2460  178.6550  148.2910 O   0  0  0  0  0  1  0  0  0  0  0  0
  187.3570  177.0740  143.8790 C   0  0  1  0  0  3  0  0  0  0  0  0
  191.6840  177.0870  144.2920 C   0  0  2  0  0  3  0  0  0  0  0  0
  192.2280  178.2950  143.6490 N   0  0  0  0  0  2  0  0  0  0  0  0
  192.6500  177.9420  145.0140 C   0  0  2  0  0  3  0  0  0  0  0  0
  194.5740  177.2890  146.3480 N   0  0  0  0  0  1  0  0  0  0  0  0
  194.1010  177.4760  144.9890 C   0  0  0  0  0  2  0  0  0  0  0  0
  189.5350  171.6120  144.1720 C   0  0  0  0  0  2  0  0  0  0  0  0
  189.5230  171.5420  142.6600 C   0  0  0  0  0  1  0  0  0  0  0  0
  1  9  1  0  0  0  0
  1  8  1  0  0  0  0
  2 19  1  0  0  0  0
  3 25  1  0  0  0  0
  4 18  1  0  0  0  0
  4 21  2  0  0  0  0
  6  7  1  0  0  0  0
  7  5  1  0  0  0  0
  8 26  1  0  0  0  0
  8  6  1  0  0  0  0
  9 10  1  0  0  0  0
 10  2  1  0  0  0  0
 11 17  2  0  0  0  0
 12 15  1  0  0  0  0
 12  4  1  0  0  0  0
 15 23  1  0  0  0  0
 16 22  1  0  0  0  0
 16 10  1  0  0  0  0
 17 13  1  0  0  0  0
 17  7  1  0  0  0  0
 18 24  1  0  0  0  0
 19 13  1  0  0  0  0
 19 14  1  0  0  0  0
 20 22  1  0  0  0  0
 22  3  1  0  0  0  0
 23 14  1  0  0  0  0
 23 18  1  0  0  0  0
 25  2  1  0  0  0  0
 25 15  1  0  0  0  0
 26 28  1  0  0  0  0
 27 26  1  0  0  0  0
 27 28  1  0  0  0  0
 30 28  1  0  0  0  0
 30 29  1  0  0  0  0
 31 11  1  0  0  0  0
 32 31  1  0  0  0  0
M  END
>  <MODEL>
6

>  <REMARK>
 VINA RESULT:      -5.9      3.967      6.867
  Name = 
  3 active torsions:
  status: ('A' for Active; 'I' for Inactive)
    1  A    between atoms: C_7  and  C_11
    2  A    between atoms: C_9  and  C_27
    3  A    between atoms: C_14  and  C_18
                            x       y       z     vdW  Elec       q    Type
                         _______ _______ _______ _____ _____    ______ ____

>  <TORSDO>
F 3

$$$$
=
 OpenBabel11042414533D

 32 36  0  0  1  0  0  0  0  0999 V2000
  195.6800  172.5230  142.0990 C   0  0  0  0  0  2  0  0  0  0  0  0
  192.4200  172.9940  143.6430 C   0  0  1  0  0  3  0  0  0  0  0  0
  190.5150  172.6310  142.2120 O   0  0  0  0  0  0  0  0  0  0  0  0
  188.7510  176.0750  144.6590 C   0  0  0  0  0  0  0  0  0  0  0  0
  195.6300  175.2410  145.3050 O   0  0  0  0  0  1  0  0  0  0  0  0
  197.0210  173.8210  143.9030 C   0  0  0  0  0  2  0  0  0  0  0  0
  196.2360  173.9850  145.2140 C   0  0  2  0  0  3  0  0  0  0  0  0
  196.2260  173.8730  142.5880 C   0  0  2  0  0  3  0  0  0  0  0  0
  194.5900  172.0160  142.9240 N   0  0  0  0  0  2  0  0  0  0  0  0
  193.3580  172.6440  142.4770 C   0  0  1  0  0  3  0  0  0  0  0  0
  195.8230  171.6390  145.7170 C   0  0  0  0  0  3  0  0  0  0  0  0
  188.8040  175.0420  143.2020 S   0  0  0  0  0  0  0  0  0  0  0  0
  193.8160  173.0760  145.7620 C   0  0  0  0  0  2  0  0  0  0  0  0
  192.0810  174.7460  145.5240 C   0  0  0  0  0  2  0  0  0  0  0  0
  190.2500  174.2580  143.9680 C   0  0  2  0  0  3  0  0  0  0  0  0
  192.6380  171.7360  141.4790 C   0  0  0  0  0  2  0  0  0  0  0  0
  195.2880  172.8520  145.5120 C   0  0  0  0  0  0  0  0  0  0  0  0
  190.0280  176.2100  145.4140 C   0  0  1  0  0  3  0  0  0  0  0  0
  193.0880  173.9140  144.7120 C   0  0  2  0  0  3  0  0  0  0  0  0
  190.5710  171.4830  140.1190 C   0  0  0  0  0  1  0  0  0  0  0  0
  187.7050  176.5460  145.0730 O   0  0  0  0  0  0  0  0  0  0  0  0
  191.3130  172.3920  141.0760 C   0  0  1  0  0  3  0  0  0  0  0  0
  191.0240  175.3700  144.6390 C   0  0  1  0  0  3  0  0  0  0  0  0
  190.4420  177.5410  145.4190 O   0  0  0  0  0  1  0  0  0  0  0  0
  191.1810  173.6190  142.9590 C   0  0  1  0  0  3  0  0  0  0  0  0
  195.2530  175.0510  142.4530 C   0  0  2  0  0  3  0  0  0  0  0  0
  194.7800  175.1520  141.0620 N   0  0  0  0  0  2  0  0  0  0  0  0
  195.7010  176.1690  141.5950 C   0  0  2  0  0  3  0  0  0  0  0  0
  196.9010  175.6660  139.5420 N   0  0  0  0  0  1  0  0  0  0  0  0
  197.0690  176.0020  140.9440 C   0  0  0  0  0  2  0  0  0  0  0  0
  195.0140  170.4390  146.0970 C   0  0  0  0  0  2  0  0  0  0  0  0
  195.8890  169.4630  146.8550 C   0  0  0  0  0  1  0  0  0  0  0  0
  1  8  1  0  0  0  0
  1  9  1  0  0  0  0
  2 19  1  0  0  0  0
  3 25  1  0  0  0  0
  4 21  2  0  0  0  0
  4 18  1  0  0  0  0
  6  7  1  0  0  0  0
  7  5  1  0  0  0  0
  7 17  1  0  0  0  0
  8  6  1  0  0  0  0
 10  9  1  0  0  0  0
 10  2  1  0  0  0  0
 11 31  1  0  0  0  0
 12 15  1  0  0  0  0
 12  4  1  0  0  0  0
 15 23  1  0  0  0  0
 16 10  1  0  0  0  0
 17 11  2  0  0  0  0
 17 13  1  0  0  0  0
 18 24  1  0  0  0  0
 19 14  1  0  0  0  0
 19 13  1  0  0  0  0
 20 22  1  0  0  0  0
 22 16  1  0  0  0  0
 22  3  1  0  0  0  0
 23 18  1  0  0  0  0
 23 14  1  0  0  0  0
 25  2  1  0  0  0  0
 25 15  1  0  0  0  0
 26  8  1  0  0  0  0
 27 28  1  0  0  0  0
 27 26  1  0  0  0  0
 28 26  1  0  0  0  0
 29 30  1  0  0  0  0
 30 28  1  0  0  0  0
 31 32  1  0  0  0  0
M  END
>  <MODEL>
7

>  <REMARK>
 VINA RESULT:      -5.9      2.513      4.983
  Name = 
  3 active torsions:
  status: ('A' for Active; 'I' for Inactive)
    1  A    between atoms: C_7  and  C_11
    2  A    between atoms: C_9  and  C_27
    3  A    between atoms: C_14  and  C_18
                            x       y       z     vdW  Elec       q    Type
                         _______ _______ _______ _____ _____    ______ ____

>  <TORSDO>
F 3

$$$$
=
 OpenBabel11042414533D

 32 36  0  0  1  0  0  0  0  0999 V2000
  190.4400  178.1660  144.4160 C   0  0  0  0  0  2  0  0  0  0  0  0
  191.4420  174.8370  143.3410 C   0  0  1  0  0  3  0  0  0  0  0  0
  193.4860  174.7120  142.0710 O   0  0  0  0  0  0  0  0  0  0  0  0
  191.2300  171.3950  139.8640 C   0  0  0  0  0  0  0  0  0  0  0  0
  187.2680  175.4590  143.8920 O   0  0  0  0  0  1  0  0  0  0  0  0
  187.9670  177.5550  144.9100 C   0  0  0  0  0  2  0  0  0  0  0  0
  187.7550  176.0410  145.0650 C   0  0  2  0  0  3  0  0  0  0  0  0
  189.0080  178.0240  143.8810 C   0  0  2  0  0  3  0  0  0  0  0  0
  191.0710  176.8830  144.7060 N   0  0  0  0  0  2  0  0  0  0  0  0
  191.6160  176.3600  143.4650 C   0  0  1  0  0  3  0  0  0  0  0  0
  189.3120  175.6140  146.8880 C   0  0  0  0  0  3  0  0  0  0  0  0
  192.5210  172.6250  139.9640 S   0  0  0  0  0  0  0  0  0  0  0  0
  189.5860  174.1400  144.9270 C   0  0  0  0  0  2  0  0  0  0  0  0
  189.6680  173.0330  142.7770 C   0  0  0  0  0  2  0  0  0  0  0  0
  191.8030  173.0620  141.5720 C   0  0  2  0  0  3  0  0  0  0  0  0
  193.0950  176.7290  143.3450 C   0  0  0  0  0  2  0  0  0  0  0  0
  188.9410  175.3070  145.6350 C   0  0  0  0  0  0  0  0  0  0  0  0
  190.0220  171.6440  140.7000 C   0  0  1  0  0  3  0  0  0  0  0  0
  189.9560  174.3790  143.4640 C   0  0  2  0  0  3  0  0  0  0  0  0
  195.1350  176.4350  141.9520 C   0  0  0  0  0  1  0  0  0  0  0  0
  191.3780  170.3580  139.2400 O   0  0  0  0  0  0  0  0  0  0  0  0
  193.6600  176.1090  142.0620 C   0  0  1  0  0  3  0  0  0  0  0  0
  190.3050  172.9550  141.4060 C   0  0  1  0  0  3  0  0  0  0  0  0
  188.8980  171.7820  139.8860 O   0  0  0  0  0  1  0  0  0  0  0  0
  192.1000  174.4880  141.9850 C   0  0  1  0  0  3  0  0  0  0  0  0
  188.8970  177.3830  142.4920 C   0  0  2  0  0  3  0  0  0  0  0  0
  188.9460  178.4250  141.4540 N   0  0  0  0  0  2  0  0  0  0  0  0
  187.6840  177.7160  141.7160 C   0  0  2  0  0  3  0  0  0  0  0  0
  185.3520  178.1490  142.2520 N   0  0  0  0  0  1  0  0  0  0  0  0
  186.7020  178.6660  142.3920 C   0  0  0  0  0  2  0  0  0  0  0  0
  190.4200  174.9160  147.6110 C   0  0  0  0  0  2  0  0  0  0  0  0
  191.4740  175.9260  148.0130 C   0  0  0  0  0  1  0  0  0  0  0  0
  1  9  1  0  0  0  0
  2 19  1  0  0  0  0
  2 10  1  0  0  0  0
  4 12  1  0  0  0  0
  4 18  1  0  0  0  0
  5  7  1  0  0  0  0
  6  7  1  0  0  0  0
  7 17  1  0  0  0  0
  8  1  1  0  0  0  0
  8  6  1  0  0  0  0
 10  9  1  0  0  0  0
 11 31  1  0  0  0  0
 12 15  1  0  0  0  0
 13 17  1  0  0  0  0
 14 19  1  0  0  0  0
 15 25  1  0  0  0  0
 16 10  1  0  0  0  0
 17 11  2  0  0  0  0
 18 23  1  0  0  0  0
 19 13  1  0  0  0  0
 20 22  1  0  0  0  0
 21  4  2  0  0  0  0
 22  3  1  0  0  0  0
 22 16  1  0  0  0  0
 23 15  1  0  0  0  0
 23 14  1  0  0  0  0
 24 18  1  0  0  0  0
 25  3  1  0  0  0  0
 25  2  1  0  0  0  0
 26  8  1  0  0  0  0
 27 28  1  0  0  0  0
 27 26  1  0  0  0  0
 28 30  1  0  0  0  0
 28 26  1  0  0  0  0
 29 30  1  0  0  0  0
 31 32  1  0  0  0  0
M  END
>  <MODEL>
8

>  <REMARK>
 VINA RESULT:      -5.7      3.120      4.897
  Name = 
  3 active torsions:
  status: ('A' for Active; 'I' for Inactive)
    1  A    between atoms: C_7  and  C_11
    2  A    between atoms: C_9  and  C_27
    3  A    between atoms: C_14  and  C_18
                            x       y       z     vdW  Elec       q    Type
                         _______ _______ _______ _____ _____    ______ ____

>  <TORSDO>
F 3

$$$$
=
 OpenBabel11042414533D

 32 36  0  0  1  0  0  0  0  0999 V2000
  196.0530  173.6400  145.2070 C   0  0  0  0  0  2  0  0  0  0  0  0
  193.1000  175.2990  143.8800 C   0  0  1  0  0  3  0  0  0  0  0  0
  191.6180  176.2750  145.5110 O   0  0  0  0  0  0  0  0  0  0  0  0
  188.4010  174.9060  142.5550 C   0  0  0  0  0  0  0  0  0  0  0  0
  194.7040  172.1420  141.5190 O   0  0  0  0  0  1  0  0  0  0  0  0
  196.5780  172.2720  143.0650 C   0  0  0  0  0  2  0  0  0  0  0  0
  195.8770  172.8390  141.8190 C   0  0  2  0  0  3  0  0  0  0  0  0
  195.8230  172.3530  144.4010 C   0  0  2  0  0  3  0  0  0  0  0  0
  195.4290  174.8110  144.6020 N   0  0  0  0  0  2  0  0  0  0  0  0
  194.0340  174.8380  145.0100 C   0  0  1  0  0  3  0  0  0  0  0  0
  196.7850  175.0980  141.8550 C   0  0  0  0  0  3  0  0  0  0  0  0
  188.9340  175.4040  144.1860 S   0  0  0  0  0  0  0  0  0  0  0  0
  194.3260  174.9740  141.6810 C   0  0  0  0  0  2  0  0  0  0  0  0
  191.9630  174.4530  141.7090 C   0  0  0  0  0  2  0  0  0  0  0  0
  190.6050  175.4640  143.4820 C   0  0  2  0  0  3  0  0  0  0  0  0
  193.8630  175.7400  146.2330 C   0  0  0  0  0  2  0  0  0  0  0  0
  195.6820  174.3330  141.8470 C   0  0  0  0  0  0  0  0  0  0  0  0
  189.4440  174.2960  141.6830 C   0  0  1  0  0  3  0  0  0  0  0  0
  193.2240  174.4310  142.5890 C   0  0  2  0  0  3  0  0  0  0  0  0
  192.1880  176.7250  147.7860 C   0  0  0  0  0  1  0  0  0  0  0  0
  187.2820  175.1570  142.1410 O   0  0  0  0  0  0  0  0  0  0  0  0
  192.3760  175.8030  146.6000 C   0  0  1  0  0  3  0  0  0  0  0  0
  190.7010  174.2940  142.5300 C   0  0  1  0  0  3  0  0  0  0  0  0
  189.0920  172.9850  141.3640 O   0  0  0  0  0  1  0  0  0  0  0  0
  191.6910  175.2800  144.5200 C   0  0  1  0  0  3  0  0  0  0  0  0
  194.3710  171.8610  144.3690 C   0  0  2  0  0  3  0  0  0  0  0  0
  193.8470  171.7570  145.7410 N   0  0  0  0  0  2  0  0  0  0  0  0
  194.1190  170.5340  144.9700 C   0  0  2  0  0  3  0  0  0  0  0  0
  194.9820  169.2310  146.8320 N   0  0  0  0  0  1  0  0  0  0  0  0
  195.3360  169.8280  145.5570 C   0  0  0  0  0  2  0  0  0  0  0  0
  196.7470  176.5930  141.8050 C   0  0  0  0  0  2  0  0  0  0  0  0
  197.1730  177.1520  143.1460 C   0  0  0  0  0  1  0  0  0  0  0  0
  2 25  1  0  0  0  0
  2 10  1  0  0  0  0
  3 22  1  0  0  0  0
  4 12  1  0  0  0  0
  5  7  1  0  0  0  0
  6  8  1  0  0  0  0
  7 17  1  0  0  0  0
  7  6  1  0  0  0  0
  8  1  1  0  0  0  0
  9 10  1  0  0  0  0
  9  1  1  0  0  0  0
 10 16  1  0  0  0  0
 13 17  1  0  0  0  0
 13 19  1  0  0  0  0
 14 23  1  0  0  0  0
 14 19  1  0  0  0  0
 15 12  1  0  0  0  0
 15 25  1  0  0  0  0
 16 22  1  0  0  0  0
 17 11  2  0  0  0  0
 18 23  1  0  0  0  0
 18  4  1  0  0  0  0
 19  2  1  0  0  0  0
 21  4  2  0  0  0  0
 22 20  1  0  0  0  0
 23 15  1  0  0  0  0
 24 18  1  0  0  0  0
 25  3  1  0  0  0  0
 26  8  1  0  0  0  0
 26 28  1  0  0  0  0
 26 27  1  0  0  0  0
 28 30  1  0  0  0  0
 28 27  1  0  0  0  0
 30 29  1  0  0  0  0
 31 11  1  0  0  0  0
 31 32  1  0  0  0  0
M  END
>  <MODEL>
9

>  <REMARK>
 VINA RESULT:      -5.7      2.556      5.494
  Name = 
  3 active torsions:
  status: ('A' for Active; 'I' for Inactive)
    1  A    between atoms: C_7  and  C_11
    2  A    between atoms: C_9  and  C_27
    3  A    between atoms: C_14  and  C_18
                            x       y       z     vdW  Elec       q    Type
                         _______ _______ _______ _____ _____    ______ ____

>  <TORSDO>
F 3

$$$$
