=
 OpenBabel11042416493D

 29 32  0  0  1  0  0  0  0  0999 V2000
  193.6670  177.0920  145.4300 C   0  0  0  0  0  3  0  0  0  0  0  0
  195.2720  175.9940  143.9840 C   0  0  0  0  0  0  0  0  0  0  0  0
  191.5600  174.9510  142.6970 S   0  0  0  0  0  0  0  0  0  0  0  0
  194.2280  175.3600  143.3050 C   0  0  0  0  0  3  0  0  0  0  0  0
  194.9910  176.8740  145.0350 C   0  0  0  0  0  3  0  0  0  0  0  0
  190.3220  175.4900  145.0810 C   0  0  2  0  0  3  0  0  0  0  0  0
  190.4790  174.5850  144.0940 C   0  0  1  0  0  3  0  0  0  0  0  0
  192.6220  176.4420  144.7660 C   0  0  0  0  0  0  0  0  0  0  0  0
  192.9040  175.5880  143.6920 C   0  0  0  0  0  0  0  0  0  0  0  0
  191.2920  176.5280  145.2860 N   0  0  0  0  0  2  0  0  0  0  0  0
  196.6320  175.7620  143.5890 C   0  0  0  0  0  0  0  0  0  0  0  0
  197.7300  175.5750  143.2690 N   0  0  0  0  0  0  0  0  0  0  0  0
  189.6380  173.3460  144.0340 C   0  0  2  0  0  3  0  0  0  0  0  0
  190.1840  172.3620  144.8390 F   0  0  0  0  0  0  0  0  0  0  0  0
  189.5220  172.8530  142.5990 C   0  0  0  0  0  2  0  0  0  0  0  0
  188.2040  173.2890  141.9840 C   0  0  0  0  0  2  0  0  0  0  0  0
  188.1580  175.2840  141.0420 C   0  0  0  0  0  1  0  0  0  0  0  0
  188.4320  173.9440  140.7730 O   0  0  0  0  0  0  0  0  0  0  0  0
  189.2430  175.3330  146.1120 C   0  0  0  0  0  2  0  0  0  0  0  0
  187.4300  176.1370  144.5770 C   0  0  0  0  0  3  0  0  0  0  0  0
  184.7040  178.8490  144.6580 S   0  0  0  0  0  0  0  0  0  0  0  0
  184.6980  177.9710  143.2100 C   0  0  0  0  0  0  0  0  0  0  0  0
  183.7890  178.2060  142.1420 N   0  0  0  0  0  1  0  0  0  0  0  0
  186.3720  177.0070  144.3150 C   0  0  0  0  0  0  0  0  0  0  0  0
  185.9920  177.9530  145.2560 C   0  0  0  0  0  0  0  0  0  0  0  0
  187.6960  177.2010  146.7600 C   0  0  0  0  0  3  0  0  0  0  0  0
  185.6510  177.0100  143.1660 N   0  0  0  0  0  0  0  0  0  0  0  0
  186.6310  178.0740  146.4870 C   0  0  0  0  0  3  0  0  0  0  0  0
  188.0920  176.2340  145.8140 C   0  0  0  0  0  0  0  0  0  0  0  0
  2  5  2  0  0  0  0
  3  9  1  0  0  0  0
  3  7  1  0  0  0  0
  4  9  2  0  0  0  0
  4  2  1  0  0  0  0
  5  1  1  0  0  0  0
  6 10  1  0  0  0  0
  6 19  1  1  0  0  0
  7 13  1  6  0  0  0
  7  6  1  0  0  0  0
  8 10  1  0  0  0  0
  8  1  2  0  0  0  0
  9  8  1  0  0  0  0
 11  2  1  0  0  0  0
 12 11  3  0  0  0  0
 13 14  1  1  0  0  0
 15 13  1  0  0  0  0
 16 15  1  0  0  0  0
 18 17  1  0  0  0  0
 18 16  1  0  0  0  0
 20 29  1  0  0  0  0
 21 25  1  0  0  0  0
 22 21  1  0  0  0  0
 23 22  1  0  0  0  0
 24 20  2  0  0  0  0
 24 25  1  0  0  0  0
 25 28  2  0  0  0  0
 27 22  2  0  0  0  0
 27 24  1  0  0  0  0
 28 26  1  0  0  0  0
 29 19  1  0  0  0  0
 29 26  2  0  0  0  0
M  END
>  <MODEL>
1

>  <REMARK>
 VINA RESULT:      -6.5      0.000      0.000
  Name = 
  7 active torsions:
  status: ('A' for Active; 'I' for Inactive)
    1  A    between atoms: C_2  and  C_5
    2  A    between atoms: C_7  and  C_21
    3  A    between atoms: C_7  and  O_28
    4  A    between atoms: C_12  and  C_16
    5  A    between atoms: C_12  and  C_29
    6  A    between atoms: C_13  and  C_18
    7  A    between atoms: C_13  and  C_21
                            x       y       z     vdW  Elec       q    Type
                         _______ _______ _______ _____ _____    ______ ____

>  <TORSDO>
F 7

$$$$
=
 OpenBabel11042416493D

 29 32  0  0  1  0  0  0  0  0999 V2000
  187.1560  176.3840  142.1610 C   0  0  0  0  0  3  0  0  0  0  0  0
  185.6320  177.7100  143.5000 C   0  0  0  0  0  0  0  0  0  0  0  0
  188.9710  177.0670  145.7290 S   0  0  0  0  0  0  0  0  0  0  0  0
  186.5280  177.6560  144.5730 C   0  0  0  0  0  3  0  0  0  0  0  0
  185.9540  177.0900  142.2890 C   0  0  0  0  0  3  0  0  0  0  0  0
  189.7670  174.8490  144.3290 C   0  0  2  0  0  3  0  0  0  0  0  0
  189.5370  175.3620  145.5540 C   0  0  1  0  0  3  0  0  0  0  0  0
  188.0420  176.3110  143.2390 C   0  0  0  0  0  0  0  0  0  0  0  0
  187.7330  176.9610  144.4410 C   0  0  0  0  0  0  0  0  0  0  0  0
  189.1780  175.4440  143.1630 N   0  0  0  0  0  2  0  0  0  0  0  0
  184.3940  178.4230  143.6340 C   0  0  0  0  0  0  0  0  0  0  0  0
  183.3940  178.9980  143.7420 N   0  0  0  0  0  0  0  0  0  0  0  0
  189.9090  174.6090  146.7950 C   0  0  2  0  0  3  0  0  0  0  0  0
  188.7680  174.1900  147.4560 F   0  0  0  0  0  0  0  0  0  0  0  0
  190.7610  175.4780  147.7080 C   0  0  0  0  0  2  0  0  0  0  0  0
  192.2160  175.4500  147.2750 C   0  0  0  0  0  2  0  0  0  0  0  0
  193.9800  176.6580  146.7250 C   0  0  0  0  0  1  0  0  0  0  0  0
  192.5870  176.6910  146.7540 O   0  0  0  0  0  0  0  0  0  0  0  0
  190.4800  173.5410  144.1580 C   0  0  0  0  0  2  0  0  0  0  0  0
  192.5370  174.8540  143.5800 C   0  0  0  0  0  3  0  0  0  0  0  0
  196.3260  174.4900  144.1290 S   0  0  0  0  0  0  0  0  0  0  0  0
  195.9310  175.8890  143.2620 C   0  0  0  0  0  0  0  0  0  0  0  0
  196.8890  176.8270  142.7880 N   0  0  0  0  0  1  0  0  0  0  0  0
  193.9230  174.9980  143.6180 C   0  0  0  0  0  0  0  0  0  0  0  0
  194.7110  174.0480  144.2530 C   0  0  0  0  0  0  0  0  0  0  0  0
  192.7710  172.7770  144.8450 C   0  0  0  0  0  3  0  0  0  0  0  0
  194.6000  176.0330  143.0600 N   0  0  0  0  0  0  0  0  0  0  0  0
  194.1650  172.9300  144.8770 C   0  0  0  0  0  3  0  0  0  0  0  0
  191.9580  173.7340  144.2040 C   0  0  0  0  0  0  0  0  0  0  0  0
  1  5  2  0  0  0  0
  1  8  1  0  0  0  0
  2 11  1  0  0  0  0
  2  4  2  0  0  0  0
  5  2  1  0  0  0  0
  6 19  1  1  0  0  0
  6  7  1  0  0  0  0
  7  3  1  0  0  0  0
  7 13  1  1  0  0  0
  8  9  2  0  0  0  0
  9  4  1  0  0  0  0
  9  3  1  0  0  0  0
 10  8  1  0  0  0  0
 10  6  1  0  0  0  0
 11 12  3  0  0  0  0
 13 14  1  1  0  0  0
 13 15  1  0  0  0  0
 16 15  1  0  0  0  0
 17 18  1  0  0  0  0
 18 16  1  0  0  0  0
 19 29  1  0  0  0  0
 20 24  2  0  0  0  0
 20 29  1  0  0  0  0
 21 25  1  0  0  0  0
 22 21  1  0  0  0  0
 23 22  1  0  0  0  0
 24 25  1  0  0  0  0
 25 28  2  0  0  0  0
 26 28  1  0  0  0  0
 27 22  2  0  0  0  0
 27 24  1  0  0  0  0
 29 26  2  0  0  0  0
M  END
>  <MODEL>
2

>  <REMARK>
 VINA RESULT:      -6.5      2.614      8.074
  Name = 
  7 active torsions:
  status: ('A' for Active; 'I' for Inactive)
    1  A    between atoms: C_2  and  C_5
    2  A    between atoms: C_7  and  C_21
    3  A    between atoms: C_7  and  O_28
    4  A    between atoms: C_12  and  C_16
    5  A    between atoms: C_12  and  C_29
    6  A    between atoms: C_13  and  C_18
    7  A    between atoms: C_13  and  C_21
                            x       y       z     vdW  Elec       q    Type
                         _______ _______ _______ _____ _____    ______ ____

>  <TORSDO>
F 7

$$$$
=
 OpenBabel11042416493D

 29 32  0  0  1  0  0  0  0  0999 V2000
  189.3160  172.2900  143.9270 C   0  0  0  0  0  3  0  0  0  0  0  0
  190.9820  171.7430  142.2530 C   0  0  0  0  0  0  0  0  0  0  0  0
  192.8790  173.7000  145.2690 S   0  0  0  0  0  0  0  0  0  0  0  0
  191.9540  172.4140  143.0010 C   0  0  0  0  0  3  0  0  0  0  0  0
  189.6670  171.6650  142.7250 C   0  0  0  0  0  3  0  0  0  0  0  0
  190.6180  174.9200  146.2210 C   0  0  2  0  0  3  0  0  0  0  0  0
  191.8970  175.1030  145.8370 C   0  0  1  0  0  3  0  0  0  0  0  0
  190.2810  172.9800  144.6650 C   0  0  0  0  0  0  0  0  0  0  0  0
  191.6050  173.0270  144.2080 C   0  0  0  0  0  0  0  0  0  0  0  0
  189.8820  173.7640  145.7930 N   0  0  0  0  0  2  0  0  0  0  0  0
  191.3370  171.1120  141.0150 C   0  0  0  0  0  0  0  0  0  0  0  0
  191.6250  170.6030  140.0150 N   0  0  0  0  0  0  0  0  0  0  0  0
  192.5890  176.4170  146.0390 C   0  0  2  0  0  3  0  0  0  0  0  0
  192.4510  177.2040  144.9090 F   0  0  0  0  0  0  0  0  0  0  0  0
  194.0610  176.1990  146.3560 C   0  0  0  0  0  2  0  0  0  0  0  0
  194.9420  176.8980  145.3350 C   0  0  0  0  0  2  0  0  0  0  0  0
  195.2520  176.0410  143.3250 C   0  0  0  0  0  1  0  0  0  0  0  0
  195.7080  175.9610  144.6390 O   0  0  0  0  0  0  0  0  0  0  0  0
  189.8620  175.9990  146.9390 C   0  0  0  0  0  2  0  0  0  0  0  0
  188.7590  176.7710  144.8230 C   0  0  0  0  0  3  0  0  0  0  0  0
  185.1940  177.6780  143.7040 S   0  0  0  0  0  0  0  0  0  0  0  0
  186.3260  177.8540  142.4570 C   0  0  0  0  0  0  0  0  0  0  0  0
  185.9990  178.2880  141.1430 N   0  0  0  0  0  1  0  0  0  0  0  0
  187.6090  177.1560  144.1360 C   0  0  0  0  0  0  0  0  0  0  0  0
  186.3790  177.1700  144.7790 C   0  0  0  0  0  0  0  0  0  0  0  0
  187.3890  176.4110  146.8130 C   0  0  0  0  0  3  0  0  0  0  0  0
  187.5870  177.5380  142.8340 N   0  0  0  0  0  0  0  0  0  0  0  0
  186.2360  176.8020  146.1130 C   0  0  0  0  0  3  0  0  0  0  0  0
  188.6440  176.3910  146.1720 C   0  0  0  0  0  0  0  0  0  0  0  0
  1  8  1  0  0  0  0
  2  5  1  0  0  0  0
  2  4  2  0  0  0  0
  3  7  1  0  0  0  0
  4  9  1  0  0  0  0
  5  1  2  0  0  0  0
  6 19  1  6  0  0  0
  7 13  1  1  0  0  0
  7  6  1  0  0  0  0
  8 10  1  0  0  0  0
  9  8  2  0  0  0  0
  9  3  1  0  0  0  0
 10  6  1  0  0  0  0
 11  2  1  0  0  0  0
 12 11  3  0  0  0  0
 13 14  1  6  0  0  0
 13 15  1  0  0  0  0
 16 15  1  0  0  0  0
 17 18  1  0  0  0  0
 18 16  1  0  0  0  0
 20 29  1  0  0  0  0
 21 25  1  0  0  0  0
 22 27  2  0  0  0  0
 22 21  1  0  0  0  0
 23 22  1  0  0  0  0
 24 25  1  0  0  0  0
 24 20  2  0  0  0  0
 25 28  2  0  0  0  0
 27 24  1  0  0  0  0
 28 26  1  0  0  0  0
 29 26  2  0  0  0  0
 29 19  1  0  0  0  0
M  END
>  <MODEL>
3

>  <REMARK>
 VINA RESULT:      -6.5      2.948      4.770
  Name = 
  7 active torsions:
  status: ('A' for Active; 'I' for Inactive)
    1  A    between atoms: C_2  and  C_5
    2  A    between atoms: C_7  and  C_21
    3  A    between atoms: C_7  and  O_28
    4  A    between atoms: C_12  and  C_16
    5  A    between atoms: C_12  and  C_29
    6  A    between atoms: C_13  and  C_18
    7  A    between atoms: C_13  and  C_21
                            x       y       z     vdW  Elec       q    Type
                         _______ _______ _______ _____ _____    ______ ____

>  <TORSDO>
F 7

$$$$
=
 OpenBabel11042416493D

 29 32  0  0  1  0  0  0  0  0999 V2000
  189.3430  172.6170  144.1510 C   0  0  0  0  0  3  0  0  0  0  0  0
  190.7680  171.6630  142.4380 C   0  0  0  0  0  0  0  0  0  0  0  0
  193.1820  173.4710  145.1650 S   0  0  0  0  0  0  0  0  0  0  0  0
  191.8920  172.2060  143.0700 C   0  0  0  0  0  3  0  0  0  0  0  0
  189.4960  171.8540  142.9880 C   0  0  0  0  0  3  0  0  0  0  0  0
  191.2360  175.1380  146.1370 C   0  0  2  0  0  3  0  0  0  0  0  0
  192.4970  175.0630  145.6670 C   0  0  1  0  0  3  0  0  0  0  0  0
  190.4630  173.1780  144.7720 C   0  0  0  0  0  0  0  0  0  0  0  0
  191.7390  172.9580  144.2380 C   0  0  0  0  0  0  0  0  0  0  0  0
  190.2840  174.1010  145.8510 N   0  0  0  0  0  2  0  0  0  0  0  0
  190.9220  170.8910  141.2390 C   0  0  0  0  0  0  0  0  0  0  0  0
  191.0470  170.2670  140.2700 N   0  0  0  0  0  0  0  0  0  0  0  0
  193.4160  176.2450  145.7170 C   0  0  2  0  0  3  0  0  0  0  0  0
  193.1270  177.1160  144.6820 F   0  0  0  0  0  0  0  0  0  0  0  0
  194.8680  175.7930  145.6390 C   0  0  0  0  0  2  0  0  0  0  0  0
  195.5450  176.3670  144.4070 C   0  0  0  0  0  2  0  0  0  0  0  0
  196.8150  174.5810  144.6760 C   0  0  0  0  0  1  0  0  0  0  0  0
  196.1900  175.3520  143.6970 O   0  0  0  0  0  0  0  0  0  0  0  0
  190.7280  176.3820  146.8030 C   0  0  0  0  0  2  0  0  0  0  0  0
  188.3440  177.1500  146.7020 C   0  0  0  0  0  3  0  0  0  0  0  0
  185.9730  178.5500  144.0170 S   0  0  0  0  0  0  0  0  0  0  0  0
  185.2200  178.3950  145.5250 C   0  0  0  0  0  0  0  0  0  0  0  0
  183.8630  178.7420  145.7750 N   0  0  0  0  0  1  0  0  0  0  0  0
  187.2730  177.6620  145.9700 C   0  0  0  0  0  0  0  0  0  0  0  0
  187.4230  177.9600  144.6230 C   0  0  0  0  0  0  0  0  0  0  0  0
  189.7110  177.2570  144.6810 C   0  0  0  0  0  3  0  0  0  0  0  0
  186.0410  177.9040  146.4830 N   0  0  0  0  0  0  0  0  0  0  0  0
  188.6280  177.7710  143.9510 C   0  0  0  0  0  3  0  0  0  0  0  0
  189.5740  176.9520  146.0500 C   0  0  0  0  0  0  0  0  0  0  0  0
  1  8  1  0  0  0  0
  2  5  1  0  0  0  0
  2  4  2  0  0  0  0
  3  7  1  0  0  0  0
  4  9  1  0  0  0  0
  5  1  2  0  0  0  0
  6 19  1  6  0  0  0
  7 13  1  1  0  0  0
  7  6  1  0  0  0  0
  8 10  1  0  0  0  0
  9  8  2  0  0  0  0
  9  3  1  0  0  0  0
 10  6  1  0  0  0  0
 11  2  1  0  0  0  0
 12 11  3  0  0  0  0
 13 14  1  6  0  0  0
 15 13  1  0  0  0  0
 16 15  1  0  0  0  0
 18 16  1  0  0  0  0
 18 17  1  0  0  0  0
 21 25  1  0  0  0  0
 21 22  1  0  0  0  0
 22 23  1  0  0  0  0
 22 27  2  0  0  0  0
 24 27  1  0  0  0  0
 24 20  2  0  0  0  0
 25 24  1  0  0  0  0
 26 29  2  0  0  0  0
 28 25  2  0  0  0  0
 28 26  1  0  0  0  0
 29 20  1  0  0  0  0
 29 19  1  0  0  0  0
M  END
>  <MODEL>
4

>  <REMARK>
 VINA RESULT:      -6.3      3.051      5.102
  Name = 
  7 active torsions:
  status: ('A' for Active; 'I' for Inactive)
    1  A    between atoms: C_2  and  C_5
    2  A    between atoms: C_7  and  C_21
    3  A    between atoms: C_7  and  O_28
    4  A    between atoms: C_12  and  C_16
    5  A    between atoms: C_12  and  C_29
    6  A    between atoms: C_13  and  C_18
    7  A    between atoms: C_13  and  C_21
                            x       y       z     vdW  Elec       q    Type
                         _______ _______ _______ _____ _____    ______ ____

>  <TORSDO>
F 7

$$$$
=
 OpenBabel11042416493D

 29 32  0  0  1  0  0  0  0  0999 V2000
  187.4270  176.5570  147.3820 C   0  0  0  0  0  3  0  0  0  0  0  0
  185.9580  177.6000  145.7610 C   0  0  0  0  0  0  0  0  0  0  0  0
  189.3130  176.4250  143.7880 S   0  0  0  0  0  0  0  0  0  0  0  0
  186.9320  177.4330  144.7710 C   0  0  0  0  0  3  0  0  0  0  0  0
  186.1990  177.1460  147.0620 C   0  0  0  0  0  3  0  0  0  0  0  0
  190.8910  176.3480  146.0280 C   0  0  2  0  0  3  0  0  0  0  0  0
  190.7880  176.7950  144.7600 C   0  0  1  0  0  3  0  0  0  0  0  0
  188.4090  176.4080  146.3990 C   0  0  0  0  0  0  0  0  0  0  0  0
  188.1540  176.8330  145.0890 C   0  0  0  0  0  0  0  0  0  0  0  0
  189.7210  175.9730  146.7700 N   0  0  0  0  0  2  0  0  0  0  0  0
  184.7030  178.2160  145.4360 C   0  0  0  0  0  0  0  0  0  0  0  0
  183.6900  178.7130  145.1750 N   0  0  0  0  0  0  0  0  0  0  0  0
  191.9470  177.4440  144.0680 C   0  0  2  0  0  3  0  0  0  0  0  0
  191.7090  178.7980  143.9100 F   0  0  0  0  0  0  0  0  0  0  0  0
  192.1940  176.7890  142.7160 C   0  0  0  0  0  2  0  0  0  0  0  0
  193.5850  176.1820  142.6580 C   0  0  0  0  0  2  0  0  0  0  0  0
  192.4360  174.6040  141.6270 C   0  0  0  0  0  1  0  0  0  0  0  0
  193.4990  174.7960  142.5080 O   0  0  0  0  0  0  0  0  0  0  0  0
  192.1940  176.4090  146.7680 C   0  0  0  0  0  2  0  0  0  0  0  0
  192.6640  174.1160  145.8680 C   0  0  0  0  0  3  0  0  0  0  0  0
  195.7690  172.1320  144.7670 S   0  0  0  0  0  0  0  0  0  0  0  0
  194.3430  171.2300  144.6240 C   0  0  0  0  0  0  0  0  0  0  0  0
  194.2950  169.8900  144.1510 N   0  0  0  0  0  1  0  0  0  0  0  0
  193.5760  173.1650  145.4110 C   0  0  0  0  0  0  0  0  0  0  0  0
  194.9290  173.4650  145.3470 C   0  0  0  0  0  0  0  0  0  0  0  0
  194.5210  175.6710  146.1830 C   0  0  0  0  0  3  0  0  0  0  0  0
  193.2400  171.9150  145.0070 N   0  0  0  0  0  0  0  0  0  0  0  0
  195.4320  174.7070  145.7230 C   0  0  0  0  0  3  0  0  0  0  0  0
  193.1440  175.3810  146.2520 C   0  0  0  0  0  0  0  0  0  0  0  0
  2  5  2  0  0  0  0
  3  7  1  0  0  0  0
  3  9  1  0  0  0  0
  4  9  2  0  0  0  0
  4  2  1  0  0  0  0
  5  1  1  0  0  0  0
  6 19  1  1  0  0  0
  6 10  1  0  0  0  0
  7 13  1  6  0  0  0
  7  6  1  0  0  0  0
  8 10  1  0  0  0  0
  8  1  2  0  0  0  0
  9  8  1  0  0  0  0
 11  2  1  0  0  0  0
 12 11  3  0  0  0  0
 13 14  1  6  0  0  0
 15 13  1  0  0  0  0
 16 15  1  0  0  0  0
 17 18  1  0  0  0  0
 18 16  1  0  0  0  0
 20 29  1  0  0  0  0
 21 25  1  0  0  0  0
 22 21  1  0  0  0  0
 22 27  2  0  0  0  0
 23 22  1  0  0  0  0
 24 20  2  0  0  0  0
 25 24  1  0  0  0  0
 25 28  2  0  0  0  0
 26 29  2  0  0  0  0
 27 24  1  0  0  0  0
 28 26  1  0  0  0  0
 29 19  1  0  0  0  0
M  END
>  <MODEL>
5

>  <REMARK>
 VINA RESULT:      -6.3      3.101      7.959
  Name = 
  7 active torsions:
  status: ('A' for Active; 'I' for Inactive)
    1  A    between atoms: C_2  and  C_5
    2  A    between atoms: C_7  and  C_21
    3  A    between atoms: C_7  and  O_28
    4  A    between atoms: C_12  and  C_16
    5  A    between atoms: C_12  and  C_29
    6  A    between atoms: C_13  and  C_18
    7  A    between atoms: C_13  and  C_21
                            x       y       z     vdW  Elec       q    Type
                         _______ _______ _______ _____ _____    ______ ____

>  <TORSDO>
F 7

$$$$
=
 OpenBabel11042416493D

 29 32  0  0  1  0  0  0  0  0999 V2000
  191.0120  174.9010  142.0520 C   0  0  0  0  0  3  0  0  0  0  0  0
  188.9950  173.9410  141.1130 C   0  0  0  0  0  0  0  0  0  0  0  0
  187.8700  176.4560  144.1010 S   0  0  0  0  0  0  0  0  0  0  0  0
  188.2280  174.6150  142.0680 C   0  0  0  0  0  3  0  0  0  0  0  0
  190.3850  174.0980  141.0930 C   0  0  0  0  0  3  0  0  0  0  0  0
  190.2890  176.3940  145.3880 C   0  0  2  0  0  3  0  0  0  0  0  0
  188.9540  176.2730  145.5320 C   0  0  1  0  0  3  0  0  0  0  0  0
  190.2490  175.5590  143.0210 C   0  0  0  0  0  0  0  0  0  0  0  0
  188.8540  175.4270  143.0170 C   0  0  0  0  0  0  0  0  0  0  0  0
  190.9050  176.2300  144.1010 N   0  0  0  0  0  2  0  0  0  0  0  0
  188.3540  173.1060  140.1370 C   0  0  0  0  0  0  0  0  0  0  0  0
  187.8370  172.4330  139.3480 N   0  0  0  0  0  0  0  0  0  0  0  0
  188.3250  176.1660  146.8880 C   0  0  2  0  0  3  0  0  0  0  0  0
  188.4400  174.8730  147.3650 F   0  0  0  0  0  0  0  0  0  0  0  0
  186.8620  176.5810  146.8290 C   0  0  0  0  0  2  0  0  0  0  0  0
  186.6820  177.9970  147.3470 C   0  0  0  0  0  2  0  0  0  0  0  0
  184.8180  177.5420  146.2570 C   0  0  0  0  0  1  0  0  0  0  0  0
  185.5930  178.6040  146.7180 O   0  0  0  0  0  0  0  0  0  0  0  0
  191.1910  176.5090  146.5810 C   0  0  0  0  0  2  0  0  0  0  0  0
  192.6620  174.5440  146.0710 C   0  0  0  0  0  3  0  0  0  0  0  0
  196.4150  173.9460  145.4820 S   0  0  0  0  0  0  0  0  0  0  0  0
  195.5120  172.5170  145.3880 C   0  0  0  0  0  0  0  0  0  0  0  0
  196.0740  171.2380  145.1220 N   0  0  0  0  0  1  0  0  0  0  0  0
  193.9310  174.0220  145.8220 C   0  0  0  0  0  0  0  0  0  0  0  0
  195.0400  174.8560  145.7990 C   0  0  0  0  0  0  0  0  0  0  0  0
  193.6680  176.7620  146.2620 C   0  0  0  0  0  3  0  0  0  0  0  0
  194.1870  172.7100  145.5920 N   0  0  0  0  0  0  0  0  0  0  0  0
  194.9410  176.2280  146.0120 C   0  0  0  0  0  3  0  0  0  0  0  0
  192.5320  175.9270  146.2880 C   0  0  0  0  0  0  0  0  0  0  0  0
  1  8  1  0  0  0  0
  2  4  2  0  0  0  0
  3  7  1  0  0  0  0
  4  9  1  0  0  0  0
  5  2  1  0  0  0  0
  5  1  2  0  0  0  0
  6  7  1  0  0  0  0
  6 19  1  1  0  0  0
  7 13  1  1  0  0  0
  8 10  1  0  0  0  0
  9  8  2  0  0  0  0
  9  3  1  0  0  0  0
 10  6  1  0  0  0  0
 11  2  1  0  0  0  0
 12 11  3  0  0  0  0
 13 14  1  6  0  0  0
 15 13  1  0  0  0  0
 15 16  1  0  0  0  0
 17 18  1  0  0  0  0
 18 16  1  0  0  0  0
 20 29  1  0  0  0  0
 21 25  1  0  0  0  0
 22 21  1  0  0  0  0
 22 27  2  0  0  0  0
 23 22  1  0  0  0  0
 24 20  2  0  0  0  0
 25 24  1  0  0  0  0
 25 28  2  0  0  0  0
 26 29  2  0  0  0  0
 27 24  1  0  0  0  0
 28 26  1  0  0  0  0
 29 19  1  0  0  0  0
M  END
>  <MODEL>
6

>  <REMARK>
 VINA RESULT:      -6.3      3.221      7.432
  Name = 
  7 active torsions:
  status: ('A' for Active; 'I' for Inactive)
    1  A    between atoms: C_2  and  C_5
    2  A    between atoms: C_7  and  C_21
    3  A    between atoms: C_7  and  O_28
    4  A    between atoms: C_12  and  C_16
    5  A    between atoms: C_12  and  C_29
    6  A    between atoms: C_13  and  C_18
    7  A    between atoms: C_13  and  C_21
                            x       y       z     vdW  Elec       q    Type
                         _______ _______ _______ _____ _____    ______ ____

>  <TORSDO>
F 7

$$$$
=
 OpenBabel11042416493D

 29 32  0  0  1  0  0  0  0  0999 V2000
  183.4950  177.8160  140.5550 C   0  0  0  0  0  3  0  0  0  0  0  0
  181.6140  178.8860  141.6460 C   0  0  0  0  0  0  0  0  0  0  0  0
  184.7360  178.9560  144.2500 S   0  0  0  0  0  0  0  0  0  0  0  0
  182.3760  179.0390  142.8090 C   0  0  0  0  0  3  0  0  0  0  0  0
  182.1800  178.2920  140.5130 C   0  0  0  0  0  3  0  0  0  0  0  0
  186.0730  176.8730  143.0730 C   0  0  2  0  0  3  0  0  0  0  0  0
  185.6150  177.3800  144.2350 C   0  0  1  0  0  3  0  0  0  0  0  0
  184.2510  177.9480  141.7230 C   0  0  0  0  0  0  0  0  0  0  0  0
  183.6930  178.5750  142.8460 C   0  0  0  0  0  0  0  0  0  0  0  0
  185.5250  177.3040  141.8180 N   0  0  0  0  0  2  0  0  0  0  0  0
  180.2610  179.3620  141.6060 C   0  0  0  0  0  0  0  0  0  0  0  0
  179.1690  179.7460  141.5740 N   0  0  0  0  0  0  0  0  0  0  0  0
  185.9710  176.7560  145.5500 C   0  0  2  0  0  3  0  0  0  0  0  0
  184.8220  176.3840  146.2260 F   0  0  0  0  0  0  0  0  0  0  0  0
  186.7920  177.7210  146.3920 C   0  0  0  0  0  2  0  0  0  0  0  0
  188.0700  177.0610  146.8770 C   0  0  0  0  0  2  0  0  0  0  0  0
  189.1490  175.1890  147.3290 C   0  0  0  0  0  1  0  0  0  0  0  0
  187.9520  175.6720  146.8020 O   0  0  0  0  0  0  0  0  0  0  0  0
  187.0250  175.7140  143.0540 C   0  0  0  0  0  2  0  0  0  0  0  0
  189.3860  175.2460  143.7550 C   0  0  0  0  0  3  0  0  0  0  0  0
  192.6050  177.2890  144.2590 S   0  0  0  0  0  0  0  0  0  0  0  0
  192.8210  175.6470  144.6110 C   0  0  0  0  0  0  0  0  0  0  0  0
  194.0530  175.0830  145.0430 N   0  0  0  0  0  1  0  0  0  0  0  0
  190.6760  175.7030  144.0200 C   0  0  0  0  0  0  0  0  0  0  0  0
  190.9910  177.0450  143.8650 C   0  0  0  0  0  0  0  0  0  0  0  0
  188.7520  177.5310  143.1690 C   0  0  0  0  0  3  0  0  0  0  0  0
  191.6980  174.9120  144.4370 N   0  0  0  0  0  0  0  0  0  0  0  0
  190.0540  177.9820  143.4390 C   0  0  0  0  0  3  0  0  0  0  0  0
  188.4190  176.1700  143.3210 C   0  0  0  0  0  0  0  0  0  0  0  0
  1  8  1  0  0  0  0
  2  4  2  0  0  0  0
  4  9  1  0  0  0  0
  5  1  2  0  0  0  0
  5  2  1  0  0  0  0
  6 19  1  1  0  0  0
  6  7  1  0  0  0  0
  7  3  1  0  0  0  0
  7 13  1  1  0  0  0
  8 10  1  0  0  0  0
  8  9  2  0  0  0  0
  9  3  1  0  0  0  0
 10  6  1  0  0  0  0
 11  2  1  0  0  0  0
 12 11  3  0  0  0  0
 13 14  1  1  0  0  0
 13 15  1  0  0  0  0
 15 16  1  0  0  0  0
 18 16  1  0  0  0  0
 18 17  1  0  0  0  0
 19 29  1  0  0  0  0
 20 24  1  0  0  0  0
 21 22  1  0  0  0  0
 22 23  1  0  0  0  0
 24 27  1  0  0  0  0
 25 24  2  0  0  0  0
 25 21  1  0  0  0  0
 26 29  1  0  0  0  0
 26 28  2  0  0  0  0
 27 22  2  0  0  0  0
 28 25  1  0  0  0  0
 29 20  2  0  0  0  0
M  END
>  <MODEL>
7

>  <REMARK>
 VINA RESULT:      -6.3      2.864      8.930
  Name = 
  7 active torsions:
  status: ('A' for Active; 'I' for Inactive)
    1  A    between atoms: C_2  and  C_5
    2  A    between atoms: C_7  and  C_21
    3  A    between atoms: C_7  and  O_28
    4  A    between atoms: C_12  and  C_16
    5  A    between atoms: C_12  and  C_29
    6  A    between atoms: C_13  and  C_18
    7  A    between atoms: C_13  and  C_21
                            x       y       z     vdW  Elec       q    Type
                         _______ _______ _______ _____ _____    ______ ____

>  <TORSDO>
F 7

$$$$
=
 OpenBabel11042416493D

 29 32  0  0  1  0  0  0  0  0999 V2000
  185.9110  178.2840  140.8040 C   0  0  0  0  0  3  0  0  0  0  0  0
  183.6070  178.2930  141.5550 C   0  0  0  0  0  0  0  0  0  0  0  0
  185.9650  178.6320  144.8490 S   0  0  0  0  0  0  0  0  0  0  0  0
  184.0400  178.3410  142.8840 C   0  0  0  0  0  3  0  0  0  0  0  0
  184.5420  178.2830  140.5150 C   0  0  0  0  0  3  0  0  0  0  0  0
  188.1900  177.5600  143.6610 C   0  0  2  0  0  3  0  0  0  0  0  0
  187.3810  177.5190  144.7380 C   0  0  1  0  0  3  0  0  0  0  0  0
  186.3460  178.3110  142.1320 C   0  0  0  0  0  0  0  0  0  0  0  0
  185.4080  178.3560  143.1710 C   0  0  0  0  0  0  0  0  0  0  0  0
  187.7360  178.1320  142.4250 N   0  0  0  0  0  2  0  0  0  0  0  0
  182.2040  178.2780  141.2580 C   0  0  0  0  0  0  0  0  0  0  0  0
  181.0710  178.2660  141.0170 N   0  0  0  0  0  0  0  0  0  0  0  0
  187.7280  176.6930  145.9390 C   0  0  2  0  0  3  0  0  0  0  0  0
  186.5880  176.1000  146.4530 F   0  0  0  0  0  0  0  0  0  0  0  0
  188.4020  177.5510  146.9990 C   0  0  0  0  0  2  0  0  0  0  0  0
  189.8190  177.0710  147.2610 C   0  0  0  0  0  2  0  0  0  0  0  0
  191.0710  175.2960  147.6480 C   0  0  0  0  0  1  0  0  0  0  0  0
  189.9270  175.7100  146.9690 O   0  0  0  0  0  0  0  0  0  0  0  0
  189.5090  176.8460  143.6530 C   0  0  0  0  0  2  0  0  0  0  0  0
  190.6330  175.2150  142.1160 C   0  0  0  0  0  3  0  0  0  0  0  0
  189.5630  172.2030  139.9770 S   0  0  0  0  0  0  0  0  0  0  0  0
  191.2190  172.5330  139.8460 C   0  0  0  0  0  0  0  0  0  0  0  0
  192.1170  171.7820  139.0370 N   0  0  0  0  0  1  0  0  0  0  0  0
  190.5560  174.1150  141.2620 C   0  0  0  0  0  0  0  0  0  0  0  0
  189.3420  173.4790  141.0460 C   0  0  0  0  0  0  0  0  0  0  0  0
  188.2340  175.0010  142.5240 C   0  0  0  0  0  3  0  0  0  0  0  0
  191.6130  173.5900  140.5940 N   0  0  0  0  0  0  0  0  0  0  0  0
  188.1660  173.8950  141.6630 C   0  0  0  0  0  3  0  0  0  0  0  0
  189.4610  175.6570  142.7540 C   0  0  0  0  0  0  0  0  0  0  0  0
  1  8  1  0  0  0  0
  2  4  2  0  0  0  0
  4  9  1  0  0  0  0
  5  1  2  0  0  0  0
  5  2  1  0  0  0  0
  6 19  1  6  0  0  0
  6  7  1  0  0  0  0
  7  3  1  0  0  0  0
  7 13  1  1  0  0  0
  8 10  1  0  0  0  0
  8  9  2  0  0  0  0
  9  3  1  0  0  0  0
 10  6  1  0  0  0  0
 11  2  1  0  0  0  0
 12 11  3  0  0  0  0
 13 14  1  1  0  0  0
 13 15  1  0  0  0  0
 15 16  1  0  0  0  0
 18 16  1  0  0  0  0
 18 17  1  0  0  0  0
 20 29  1  0  0  0  0
 21 25  1  0  0  0  0
 22 21  1  0  0  0  0
 22 27  2  0  0  0  0
 23 22  1  0  0  0  0
 24 20  2  0  0  0  0
 25 24  1  0  0  0  0
 25 28  2  0  0  0  0
 26 29  2  0  0  0  0
 27 24  1  0  0  0  0
 28 26  1  0  0  0  0
 29 19  1  0  0  0  0
M  END
>  <MODEL>
8

>  <REMARK>
 VINA RESULT:      -6.2      3.492      8.235
  Name = 
  7 active torsions:
  status: ('A' for Active; 'I' for Inactive)
    1  A    between atoms: C_2  and  C_5
    2  A    between atoms: C_7  and  C_21
    3  A    between atoms: C_7  and  O_28
    4  A    between atoms: C_12  and  C_16
    5  A    between atoms: C_12  and  C_29
    6  A    between atoms: C_13  and  C_18
    7  A    between atoms: C_13  and  C_21
                            x       y       z     vdW  Elec       q    Type
                         _______ _______ _______ _____ _____    ______ ____

>  <TORSDO>
F 7

$$$$
=
 OpenBabel11042416493D

 29 32  0  0  1  0  0  0  0  0999 V2000
  193.8660  177.1810  145.3920 C   0  0  0  0  0  3  0  0  0  0  0  0
  195.2150  175.1800  145.1680 C   0  0  0  0  0  0  0  0  0  0  0  0
  191.8140  174.6040  143.0170 S   0  0  0  0  0  0  0  0  0  0  0  0
  194.2020  174.5800  144.4140 C   0  0  0  0  0  3  0  0  0  0  0  0
  195.0550  176.4870  145.6420 C   0  0  0  0  0  3  0  0  0  0  0  0
  190.3510  176.4780  144.3800 C   0  0  2  0  0  3  0  0  0  0  0  0
  190.3760  175.2100  143.9220 C   0  0  1  0  0  3  0  0  0  0  0  0
  192.8440  176.5760  144.6560 C   0  0  0  0  0  0  0  0  0  0  0  0
  193.0200  175.2790  144.1540 C   0  0  0  0  0  0  0  0  0  0  0  0
  191.5680  177.2170  144.5580 N   0  0  0  0  0  2  0  0  0  0  0  0
  196.4300  174.4640  145.4360 C   0  0  0  0  0  0  0  0  0  0  0  0
  197.4100  173.8870  145.6530 N   0  0  0  0  0  0  0  0  0  0  0  0
  189.1610  174.3350  143.9890 C   0  0  2  0  0  3  0  0  0  0  0  0
  189.4220  173.2190  144.7640 F   0  0  0  0  0  0  0  0  0  0  0  0
  188.7280  173.9200  142.5910 C   0  0  0  0  0  2  0  0  0  0  0  0
  188.7410  172.4080  142.4490 C   0  0  0  0  0  2  0  0  0  0  0  0
  189.1580  172.6170  140.2920 C   0  0  0  0  0  1  0  0  0  0  0  0
  189.6450  172.0260  141.4560 O   0  0  0  0  0  0  0  0  0  0  0  0
  189.0840  177.0900  144.8990 C   0  0  0  0  0  2  0  0  0  0  0  0
  186.7720  177.4770  144.0090 C   0  0  0  0  0  3  0  0  0  0  0  0
  185.1950  178.2940  140.5980 S   0  0  0  0  0  0  0  0  0  0  0  0
  184.0370  178.1400  141.8240 C   0  0  0  0  0  0  0  0  0  0  0  0
  182.6380  178.2950  141.6190 N   0  0  0  0  0  1  0  0  0  0  0  0
  185.9260  177.7630  142.9380 C   0  0  0  0  0  0  0  0  0  0  0  0
  186.4480  177.9780  141.6700 C   0  0  0  0  0  0  0  0  0  0  0  0
  188.6730  177.6380  142.4840 C   0  0  0  0  0  3  0  0  0  0  0  0
  184.5760  177.8530  143.0320 N   0  0  0  0  0  0  0  0  0  0  0  0
  187.8140  177.9250  141.4120 C   0  0  0  0  0  3  0  0  0  0  0  0
  188.1580  177.4190  143.7770 C   0  0  0  0  0  0  0  0  0  0  0  0
  1  5  1  0  0  0  0
  2 11  1  0  0  0  0
  2  5  2  0  0  0  0
  3  7  1  0  0  0  0
  3  9  1  0  0  0  0
  4  2  1  0  0  0  0
  6 10  1  0  0  0  0
  6 19  1  1  0  0  0
  7 13  1  6  0  0  0
  7  6  1  0  0  0  0
  8  1  2  0  0  0  0
  9  4  2  0  0  0  0
  9  8  1  0  0  0  0
 10  8  1  0  0  0  0
 11 12  3  0  0  0  0
 13 14  1  1  0  0  0
 15 13  1  0  0  0  0
 16 15  1  0  0  0  0
 17 18  1  0  0  0  0
 18 16  1  0  0  0  0
 21 25  1  0  0  0  0
 21 22  1  0  0  0  0
 22 27  2  0  0  0  0
 23 22  1  0  0  0  0
 24 27  1  0  0  0  0
 24 20  2  0  0  0  0
 25 24  1  0  0  0  0
 26 29  2  0  0  0  0
 28 25  2  0  0  0  0
 28 26  1  0  0  0  0
 29 20  1  0  0  0  0
 29 19  1  0  0  0  0
M  END
>  <MODEL>
9

>  <REMARK>
 VINA RESULT:      -6.2      1.729      2.195
  Name = 
  7 active torsions:
  status: ('A' for Active; 'I' for Inactive)
    1  A    between atoms: C_2  and  C_5
    2  A    between atoms: C_7  and  C_21
    3  A    between atoms: C_7  and  O_28
    4  A    between atoms: C_12  and  C_16
    5  A    between atoms: C_12  and  C_29
    6  A    between atoms: C_13  and  C_18
    7  A    between atoms: C_13  and  C_21
                            x       y       z     vdW  Elec       q    Type
                         _______ _______ _______ _____ _____    ______ ____

>  <TORSDO>
F 7

$$$$
