=
 OpenBabel11042419283D

 40 44  0  0  1  0  0  0  0  0999 V2000
  187.6850  175.7970  141.3340 C   0  0  0  0  0  1  0  0  0  0  0  0
  187.9050  176.9660  146.3540 C   0  0  0  0  0  1  0  0  0  0  0  0
  189.1850  176.4720  145.7120 C   0  0  1  0  0  0  0  0  0  0  0  0
  192.1890  175.0400  146.7460 C   0  0  0  0  0  2  0  0  0  0  0  0
  188.9090  176.0020  144.2680 C   0  0  1  0  0  3  0  0  0  0  0  0
  191.0820  174.5750  144.4450 C   0  0  1  0  0  0  0  0  0  0  0  0
  188.6020  177.0510  143.2050 C   0  0  1  0  0  3  0  0  0  0  0  0
  190.9380  174.5780  145.9850 C   0  0  2  0  0  3  0  0  0  0  0  0
  193.5000  175.0000  145.9450 C   0  0  2  0  0  3  0  0  0  0  0  0
  192.0290  173.5870  143.7660 C   0  0  0  0  0  2  0  0  0  0  0  0
  190.1270  177.5050  145.7430 O   0  0  0  0  0  1  0  0  0  0  0  0
  190.0690  175.2900  143.6170 C   0  0  2  0  0  0  0  0  0  0  0  0
  193.9350  173.5930  145.4790 C   0  0  1  0  0  3  0  0  0  0  0  0
  188.8790  176.4560  141.8710 N   0  0  0  0  0  0  0  0  0  0  0  0
  191.3030  175.8790  143.9850 O   0  0  0  0  0  0  0  0  0  0  0  0
  189.9760  175.4830  142.1180 C   0  0  2  0  0  3  0  0  0  0  0  0
  189.6780  175.2730  146.5340 C   0  0  0  0  0  2  0  0  0  0  0  0
  192.8270  172.7800  144.7920 C   0  0  0  0  0  2  0  0  0  0  0  0
  189.9470  174.2020  141.3190 C   0  0  0  0  0  0  0  0  0  0  0  0
  189.9170  171.8560  139.7870 C   0  0  0  0  0  0  0  0  0  0  0  0
  190.7550  172.9150  139.4280 C   0  0  0  0  0  3  0  0  0  0  0  0
  190.7680  174.0870  140.1910 C   0  0  0  0  0  3  0  0  0  0  0  0
  189.0900  171.9670  140.9080 C   0  0  0  0  0  3  0  0  0  0  0  0
  189.1020  173.1370  141.6720 C   0  0  0  0  0  3  0  0  0  0  0  0
  189.8950  169.6830  138.3710 N   0  0  0  0  0  0  0  0  0  0  0  0
  189.9040  170.6530  139.0030 C   0  0  0  0  0  0  0  0  0  0  0  0
  195.1410  173.6930  144.5520 C   0  0  0  0  0  2  0  0  0  0  0  0
  195.3930  172.4560  143.9580 O   0  0  0  0  0  1  0  0  0  0  0  0
  187.2870  177.8450  143.3720 C   0  0  1  0  0  3  0  0  0  0  0  0
  187.1580  178.9380  142.3270 C   0  0  0  0  0  1  0  0  0  0  0  0
  185.7830  176.8080  143.4300 S   0  0  0  0  0  0  0  0  0  0  0  0
  184.6750  178.2110  143.1000 C   0  0  2  0  0  3  0  0  0  0  0  0
  184.1520  178.7470  144.4180 C   0  0  0  0  0  1  0  0  0  0  0  0
  183.5610  177.7720  142.2730 N   0  0  0  0  0  2  0  0  0  0  0  0
  182.4520  178.3590  140.3160 O   0  0  0  0  0  1  0  0  0  0  0  0
  183.6680  178.4510  140.9910 C   0  0  0  0  0  3  0  0  0  0  0  0
  184.6690  177.8550  140.2240 O   0  0  0  0  0  1  0  0  0  0  0  0
  194.6030  175.6890  146.7440 C   0  0  0  0  0  2  0  0  0  0  0  0
  194.6930  177.4600  145.4280 C   0  0  0  0  0  1  0  0  0  0  0  0
  194.4230  177.0750  146.7410 O   0  0  0  0  0  0  0  0  0  0  0  0
  1 14  1  0  0  0  0
  3 11  1  0  0  0  0
  3  2  1  1  0  0  0
  3 17  1  0  0  0  0
  5  3  1  0  0  0  0
  6  8  1  0  0  0  0
  7 29  1  0  0  0  0
  7  5  1  0  0  0  0
  8 17  1  0  0  0  0
  8  4  1  0  0  0  0
  9 38  1  0  0  0  0
  9  4  1  0  0  0  0
 10  6  1  0  0  0  0
 10 18  1  0  0  0  0
 12 15  1  0  0  0  0
 12  5  1  0  0  0  0
 12  6  1  0  0  0  0
 13  9  1  0  0  0  0
 14 16  1  0  0  0  0
 14  7  1  0  0  0  0
 15  6  1  0  0  0  0
 16 12  1  0  0  0  0
 18 13  1  0  0  0  0
 19 24  1  0  0  0  0
 19 16  1  0  0  0  0
 20 23  1  0  0  0  0
 21 20  2  0  0  0  0
 21 22  1  0  0  0  0
 22 19  2  0  0  0  0
 23 24  2  0  0  0  0
 25 26  3  0  0  0  0
 26 20  1  0  0  0  0
 27 13  1  0  0  0  0
 28 27  1  0  0  0  0
 29 31  1  0  0  0  0
 30 29  1  0  0  0  0
 32 31  1  0  0  0  0
 32 33  1  0  0  0  0
 34 32  1  0  0  0  0
 35 36  1  0  0  0  0
 36 34  1  0  0  0  0
 37 36  1  0  0  0  0
 39 40  1  0  0  0  0
 40 38  1  0  0  0  0
M  END
>  <MODEL>
1

>  <REMARK>
 VINA RESULT:      -6.6      0.000      0.000
  Name = 
  10 active torsions:
  status: ('A' for Active; 'I' for Inactive)
    1  A    between atoms: C_7  and  C_21
    2  A    between atoms: C_9  and  C_20
    3  A    between atoms: C_10  and  C_30
    4  A    between atoms: C_14  and  N_29
    5  A    between atoms: C_14  and  S_32
    6  A    between atoms: C_16  and  C_36
    7  A    between atoms: O_19  and  C_30
    8  A    between atoms: C_21  and  S_32
    9  A    between atoms: C_22  and  C_40
   10  A    between atoms: C_24  and  N_29
                            x       y       z     vdW  Elec       q    Type
                         _______ _______ _______ _____ _____    ______ ____

>  <TORSDO>
F 10

$$$$
=
 OpenBabel11042419283D

 40 44  0  0  1  0  0  0  0  0999 V2000
  187.7720  175.5420  141.3420 C   0  0  0  0  0  1  0  0  0  0  0  0
  187.9850  176.7790  146.3460 C   0  0  0  0  0  1  0  0  0  0  0  0
  189.2790  176.3300  145.6980 C   0  0  1  0  0  0  0  0  0  0  0  0
  192.3470  175.0350  146.7230 C   0  0  0  0  0  2  0  0  0  0  0  0
  189.0100  175.8320  144.2620 C   0  0  1  0  0  3  0  0  0  0  0  0
  191.2410  174.4970  144.4370 C   0  0  1  0  0  0  0  0  0  0  0  0
  188.6510  176.8540  143.1900 C   0  0  1  0  0  3  0  0  0  0  0  0
  191.1100  174.5120  145.9780 C   0  0  2  0  0  3  0  0  0  0  0  0
  193.6520  175.0380  145.9110 C   0  0  2  0  0  3  0  0  0  0  0  0
  192.2230  173.5400  143.7610 C   0  0  0  0  0  2  0  0  0  0  0  0
  190.1770  177.4010  145.7090 O   0  0  0  0  0  1  0  0  0  0  0  0
  190.1930  175.1600  143.6100 C   0  0  2  0  0  0  0  0  0  0  0  0
  194.1410  173.6460  145.4580 C   0  0  1  0  0  3  0  0  0  0  0  0
  188.9420  176.2550  141.8610 N   0  0  0  0  0  0  0  0  0  0  0  0
  191.4040  175.8030  143.9600 O   0  0  0  0  0  0  0  0  0  0  0  0
  190.0800  175.3310  142.1100 C   0  0  2  0  0  3  0  0  0  0  0  0
  189.8270  175.1620  146.5300 C   0  0  0  0  0  2  0  0  0  0  0  0
  193.0610  172.7790  144.7900 C   0  0  0  0  0  2  0  0  0  0  0  0
  190.0970  174.0400  141.3260 C   0  0  0  0  0  0  0  0  0  0  0  0
  190.1500  171.6770  139.8210 C   0  0  0  0  0  0  0  0  0  0  0  0
  190.9170  172.7750  139.4250 C   0  0  0  0  0  3  0  0  0  0  0  0
  190.8890  173.9560  140.1750 C   0  0  0  0  0  3  0  0  0  0  0  0
  189.3520  171.7570  140.9660 C   0  0  0  0  0  3  0  0  0  0  0  0
  189.3230  172.9350  141.7160 C   0  0  0  0  0  3  0  0  0  0  0  0
  190.2030  169.4890  138.4300 N   0  0  0  0  0  0  0  0  0  0  0  0
  190.1790  170.4650  139.0510 C   0  0  0  0  0  0  0  0  0  0  0  0
  195.3340  173.7840  144.5190 C   0  0  0  0  0  2  0  0  0  0  0  0
  195.7390  172.5270  144.0720 O   0  0  0  0  0  1  0  0  0  0  0  0
  187.3070  177.5960  143.3590 C   0  0  1  0  0  3  0  0  0  0  0  0
  187.1220  178.6660  142.2990 C   0  0  0  0  0  1  0  0  0  0  0  0
  185.8470  176.4980  143.4480 S   0  0  0  0  0  0  0  0  0  0  0  0
  184.8240  177.7510  144.2760 C   0  0  2  0  0  3  0  0  0  0  0  0
  184.0680  178.5440  143.2270 C   0  0  0  0  0  1  0  0  0  0  0  0
  185.6730  178.6460  145.0480 N   0  0  0  0  0  2  0  0  0  0  0  0
  185.8580  179.3870  147.2440 O   0  0  0  0  0  1  0  0  0  0  0  0
  184.9500  179.0080  146.2570 C   0  0  0  0  0  3  0  0  0  0  0  0
  184.2080  177.9150  146.7070 O   0  0  0  0  0  1  0  0  0  0  0  0
  194.7320  175.7820  146.6920 C   0  0  0  0  0  2  0  0  0  0  0  0
  194.7370  177.6590  145.5310 C   0  0  0  0  0  1  0  0  0  0  0  0
  194.4260  177.1430  146.7870 O   0  0  0  0  0  0  0  0  0  0  0  0
  1 14  1  0  0  0  0
  3 11  1  0  0  0  0
  3  2  1  1  0  0  0
  3 17  1  0  0  0  0
  5  3  1  0  0  0  0
  6  8  1  0  0  0  0
  7 29  1  0  0  0  0
  7  5  1  0  0  0  0
  8 17  1  0  0  0  0
  8  4  1  0  0  0  0
  9 38  1  0  0  0  0
  9  4  1  0  0  0  0
 10  6  1  0  0  0  0
 10 18  1  0  0  0  0
 12 15  1  0  0  0  0
 12  5  1  0  0  0  0
 12  6  1  0  0  0  0
 13  9  1  0  0  0  0
 14 16  1  0  0  0  0
 14  7  1  0  0  0  0
 15  6  1  0  0  0  0
 16 12  1  0  0  0  0
 18 13  1  0  0  0  0
 19 24  1  0  0  0  0
 19 16  1  0  0  0  0
 20 23  1  0  0  0  0
 21 20  2  0  0  0  0
 21 22  1  0  0  0  0
 22 19  2  0  0  0  0
 23 24  2  0  0  0  0
 25 26  3  0  0  0  0
 26 20  1  0  0  0  0
 27 13  1  0  0  0  0
 28 27  1  0  0  0  0
 29 31  1  0  0  0  0
 30 29  1  0  0  0  0
 31 32  1  0  0  0  0
 32 34  1  0  0  0  0
 33 32  1  0  0  0  0
 34 36  1  0  0  0  0
 36 37  1  0  0  0  0
 36 35  1  0  0  0  0
 38 40  1  0  0  0  0
 39 40  1  0  0  0  0
M  END
>  <MODEL>
2

>  <REMARK>
 VINA RESULT:      -6.5      1.645      1.939
  Name = 
  10 active torsions:
  status: ('A' for Active; 'I' for Inactive)
    1  A    between atoms: C_7  and  C_21
    2  A    between atoms: C_9  and  C_20
    3  A    between atoms: C_10  and  C_30
    4  A    between atoms: C_14  and  N_29
    5  A    between atoms: C_14  and  S_32
    6  A    between atoms: C_16  and  C_36
    7  A    between atoms: O_19  and  C_30
    8  A    between atoms: C_21  and  S_32
    9  A    between atoms: C_22  and  C_40
   10  A    between atoms: C_24  and  N_29
                            x       y       z     vdW  Elec       q    Type
                         _______ _______ _______ _____ _____    ______ ____

>  <TORSDO>
F 10

$$$$
=
 OpenBabel11042419283D

 40 44  0  0  1  0  0  0  0  0999 V2000
  193.0090  171.9840  142.3520 C   0  0  0  0  0  1  0  0  0  0  0  0
  193.7320  175.8840  145.6510 C   0  0  0  0  0  1  0  0  0  0  0  0
  192.3300  175.7020  145.1060 C   0  0  1  0  0  0  0  0  0  0  0  0
  189.4570  177.6360  144.7160 C   0  0  0  0  0  2  0  0  0  0  0  0
  192.3220  174.6160  144.0080 C   0  0  1  0  0  3  0  0  0  0  0  0
  190.1200  175.6930  143.1270 C   0  0  1  0  0  0  0  0  0  0  0  0
  192.5140  173.1610  144.4210 C   0  0  1  0  0  3  0  0  0  0  0  0
  190.5250  177.0280  143.7940 C   0  0  2  0  0  3  0  0  0  0  0  0
  188.0290  177.1090  144.5060 C   0  0  2  0  0  3  0  0  0  0  0  0
  189.0050  175.6670  142.0820 C   0  0  0  0  0  2  0  0  0  0  0  0
  191.4810  175.3670  146.1640 O   0  0  0  0  0  1  0  0  0  0  0  0
  191.0220  174.5140  143.2500 C   0  0  2  0  0  0  0  0  0  0  0  0
  187.4250  177.4000  143.1150 C   0  0  1  0  0  3  0  0  0  0  0  0
  191.9720  172.2970  143.3390 N   0  0  0  0  0  0  0  0  0  0  0  0
  189.9130  174.7150  144.1060 O   0  0  0  0  0  0  0  0  0  0  0  0
  190.8700  173.0960  142.7410 C   0  0  2  0  0  3  0  0  0  0  0  0
  191.9050  177.0380  144.4790 C   0  0  0  0  0  2  0  0  0  0  0  0
  188.3420  177.0370  141.9360 C   0  0  0  0  0  2  0  0  0  0  0  0
  190.6740  172.9800  141.2480 C   0  0  0  0  0  0  0  0  0  0  0  0
  190.2800  172.7130  138.4860 C   0  0  0  0  0  0  0  0  0  0  0  0
  189.4540  172.0280  139.3800 C   0  0  0  0  0  3  0  0  0  0  0  0
  189.6520  172.1590  140.7590 C   0  0  0  0  0  3  0  0  0  0  0  0
  191.3070  173.5300  138.9680 C   0  0  0  0  0  3  0  0  0  0  0  0
  191.5070  173.6620  140.3450 C   0  0  0  0  0  3  0  0  0  0  0  0
  189.9120  172.4680  135.9310 N   0  0  0  0  0  0  0  0  0  0  0  0
  190.0760  172.5770  137.0720 C   0  0  0  0  0  0  0  0  0  0  0  0
  186.0890  176.6860  142.9580 C   0  0  0  0  0  2  0  0  0  0  0  0
  185.1070  177.5890  142.5520 O   0  0  0  0  0  1  0  0  0  0  0  0
  193.8890  172.7830  145.0150 C   0  0  1  0  0  3  0  0  0  0  0  0
  193.9630  171.3050  145.3540 C   0  0  0  0  0  1  0  0  0  0  0  0
  195.3170  173.2970  143.9960 S   0  0  0  0  0  0  0  0  0  0  0  0
  196.5320  172.6630  145.1900 C   0  0  2  0  0  3  0  0  0  0  0  0
  196.9100  173.7750  146.1490 C   0  0  0  0  0  1  0  0  0  0  0  0
  197.7180  172.2010  144.4840 N   0  0  0  0  0  2  0  0  0  0  0  0
  197.0690  170.1350  143.6380 O   0  0  0  0  0  1  0  0  0  0  0  0
  197.7960  170.7580  144.6500 C   0  0  0  0  0  3  0  0  0  0  0  0
  197.2670  170.3970  145.8900 O   0  0  0  0  0  1  0  0  0  0  0  0
  187.1290  177.6260  145.6250 C   0  0  0  0  0  2  0  0  0  0  0  0
  185.2720  176.8150  146.5010 C   0  0  0  0  0  1  0  0  0  0  0  0
  186.6400  176.5690  146.3970 O   0  0  0  0  0  0  0  0  0  0  0  0
  1 14  1  0  0  0  0
  3  2  1  1  0  0  0
  3 11  1  0  0  0  0
  5  7  1  0  0  0  0
  5  3  1  0  0  0  0
  6 12  1  0  0  0  0
  6  8  1  0  0  0  0
  6 15  1  0  0  0  0
  7 29  1  0  0  0  0
  8 17  1  0  0  0  0
  8  4  1  0  0  0  0
  9  4  1  0  0  0  0
  9 38  1  0  0  0  0
 10  6  1  0  0  0  0
 12  5  1  0  0  0  0
 12 15  1  0  0  0  0
 13  9  1  0  0  0  0
 14  7  1  0  0  0  0
 16 12  1  0  0  0  0
 16 14  1  0  0  0  0
 17  3  1  0  0  0  0
 18 10  1  0  0  0  0
 18 13  1  0  0  0  0
 19 16  1  0  0  0  0
 20 23  2  0  0  0  0
 20 21  1  0  0  0  0
 21 22  2  0  0  0  0
 22 19  1  0  0  0  0
 23 24  1  0  0  0  0
 24 19  2  0  0  0  0
 25 26  3  0  0  0  0
 26 20  1  0  0  0  0
 27 13  1  0  0  0  0
 28 27  1  0  0  0  0
 29 30  1  0  0  0  0
 31 29  1  0  0  0  0
 31 32  1  0  0  0  0
 32 33  1  0  0  0  0
 34 36  1  0  0  0  0
 34 32  1  0  0  0  0
 35 36  1  0  0  0  0
 36 37  1  0  0  0  0
 38 40  1  0  0  0  0
 40 39  1  0  0  0  0
M  END
>  <MODEL>
3

>  <REMARK>
 VINA RESULT:      -6.5      3.089      8.039
  Name = 
  10 active torsions:
  status: ('A' for Active; 'I' for Inactive)
    1  A    between atoms: C_7  and  C_21
    2  A    between atoms: C_9  and  C_20
    3  A    between atoms: C_10  and  C_30
    4  A    between atoms: C_14  and  N_29
    5  A    between atoms: C_14  and  S_32
    6  A    between atoms: C_16  and  C_36
    7  A    between atoms: O_19  and  C_30
    8  A    between atoms: C_21  and  S_32
    9  A    between atoms: C_22  and  C_40
   10  A    between atoms: C_24  and  N_29
                            x       y       z     vdW  Elec       q    Type
                         _______ _______ _______ _____ _____    ______ ____

>  <TORSDO>
F 10

$$$$
=
 OpenBabel11042419283D

 40 44  0  0  1  0  0  0  0  0999 V2000
  193.0230  172.3350  142.2210 C   0  0  0  0  0  1  0  0  0  0  0  0
  193.8000  176.5710  145.0610 C   0  0  0  0  0  1  0  0  0  0  0  0
  192.3700  176.2680  144.6640 C   0  0  1  0  0  0  0  0  0  0  0  0
  189.3680  178.0120  144.3560 C   0  0  0  0  0  2  0  0  0  0  0  0
  192.3310  175.0810  143.6790 C   0  0  1  0  0  3  0  0  0  0  0  0
  190.0030  175.9570  142.9030 C   0  0  1  0  0  0  0  0  0  0  0  0
  192.6400  173.6840  144.2070 C   0  0  1  0  0  3  0  0  0  0  0  0
  190.3870  177.3690  143.4020 C   0  0  2  0  0  3  0  0  0  0  0  0
  187.9590  177.3980  144.3260 C   0  0  2  0  0  3  0  0  0  0  0  0
  188.8070  175.7740  141.9690 C   0  0  0  0  0  2  0  0  0  0  0  0
  191.6340  175.9980  145.8210 O   0  0  0  0  0  1  0  0  0  0  0  0
  190.9790  174.8410  143.0540 C   0  0  2  0  0  0  0  0  0  0  0  0
  187.2240  177.5210  142.9740 C   0  0  1  0  0  3  0  0  0  0  0  0
  192.0580  172.6920  143.2640 N   0  0  0  0  0  0  0  0  0  0  0  0
  189.9370  175.0700  143.9840 O   0  0  0  0  0  0  0  0  0  0  0  0
  190.8650  173.3740  142.6960 C   0  0  2  0  0  3  0  0  0  0  0  0
  191.8170  177.5130  143.9560 C   0  0  0  0  0  2  0  0  0  0  0  0
  188.0560  177.0890  141.7560 C   0  0  0  0  0  2  0  0  0  0  0  0
  190.5500  173.1030  141.2440 C   0  0  0  0  0  0  0  0  0  0  0  0
  189.9350  172.5480  138.5670 C   0  0  0  0  0  0  0  0  0  0  0  0
  189.1840  171.9670  139.5920 C   0  0  0  0  0  3  0  0  0  0  0  0
  189.4920  172.2430  140.9280 C   0  0  0  0  0  3  0  0  0  0  0  0
  190.9970  173.4020  138.8750 C   0  0  0  0  0  3  0  0  0  0  0  0
  191.3070  173.6780  140.2100 C   0  0  0  0  0  3  0  0  0  0  0  0
  189.3620  172.0360  136.0900 N   0  0  0  0  0  0  0  0  0  0  0  0
  189.6180  172.2640  137.1960 C   0  0  0  0  0  0  0  0  0  0  0  0
  185.9220  176.7310  143.0060 C   0  0  0  0  0  2  0  0  0  0  0  0
  184.8500  177.5590  142.6730 O   0  0  0  0  0  1  0  0  0  0  0  0
  194.0790  173.4340  144.7080 C   0  0  1  0  0  3  0  0  0  0  0  0
  194.2150  172.0680  145.3570 C   0  0  0  0  0  1  0  0  0  0  0  0
  195.3730  173.6920  143.4420 S   0  0  0  0  0  0  0  0  0  0  0  0
  196.6860  173.9190  144.6780 C   0  0  2  0  0  3  0  0  0  0  0  0
  196.0830  174.5170  145.9340 C   0  0  0  0  0  1  0  0  0  0  0  0
  197.7060  174.8130  144.1500 N   0  0  0  0  0  2  0  0  0  0  0  0
  197.9410  175.5350  141.9530 O   0  0  0  0  0  1  0  0  0  0  0  0
  197.1070  175.5780  143.0680 C   0  0  0  0  0  3  0  0  0  0  0  0
  196.9370  176.9050  143.4680 O   0  0  0  0  0  1  0  0  0  0  0  0
  187.1300  177.9790  145.4680 C   0  0  0  0  0  2  0  0  0  0  0  0
  185.9190  176.7830  146.8730 C   0  0  0  0  0  1  0  0  0  0  0  0
  187.2290  177.1780  146.6090 O   0  0  0  0  0  0  0  0  0  0  0  0
  1 14  1  0  0  0  0
  3  2  1  1  0  0  0
  3 11  1  0  0  0  0
  5  7  1  0  0  0  0
  5  3  1  0  0  0  0
  6 12  1  0  0  0  0
  6  8  1  0  0  0  0
  6 15  1  0  0  0  0
  7 29  1  0  0  0  0
  8 17  1  0  0  0  0
  8  4  1  0  0  0  0
  9  4  1  0  0  0  0
  9 38  1  0  0  0  0
 10  6  1  0  0  0  0
 12  5  1  0  0  0  0
 12 15  1  0  0  0  0
 13 27  1  0  0  0  0
 13  9  1  0  0  0  0
 14  7  1  0  0  0  0
 16 12  1  0  0  0  0
 16 14  1  0  0  0  0
 17  3  1  0  0  0  0
 18 10  1  0  0  0  0
 18 13  1  0  0  0  0
 19 16  1  0  0  0  0
 20 23  2  0  0  0  0
 20 21  1  0  0  0  0
 21 22  2  0  0  0  0
 22 19  1  0  0  0  0
 23 24  1  0  0  0  0
 24 19  2  0  0  0  0
 25 26  3  0  0  0  0
 26 20  1  0  0  0  0
 28 27  1  0  0  0  0
 29 30  1  0  0  0  0
 31 32  1  0  0  0  0
 31 29  1  0  0  0  0
 32 33  1  0  0  0  0
 34 32  1  0  0  0  0
 35 36  1  0  0  0  0
 36 37  1  0  0  0  0
 36 34  1  0  0  0  0
 38 40  1  0  0  0  0
 40 39  1  0  0  0  0
M  END
>  <MODEL>
4

>  <REMARK>
 VINA RESULT:      -6.2      3.091      7.586
  Name = 
  10 active torsions:
  status: ('A' for Active; 'I' for Inactive)
    1  A    between atoms: C_7  and  C_21
    2  A    between atoms: C_9  and  C_20
    3  A    between atoms: C_10  and  C_30
    4  A    between atoms: C_14  and  N_29
    5  A    between atoms: C_14  and  S_32
    6  A    between atoms: C_16  and  C_36
    7  A    between atoms: O_19  and  C_30
    8  A    between atoms: C_21  and  S_32
    9  A    between atoms: C_22  and  C_40
   10  A    between atoms: C_24  and  N_29
                            x       y       z     vdW  Elec       q    Type
                         _______ _______ _______ _____ _____    ______ ____

>  <TORSDO>
F 10

$$$$
=
 OpenBabel11042419283D

 40 44  0  0  1  0  0  0  0  0999 V2000
  190.4440  176.8720  145.1450 C   0  0  0  0  0  1  0  0  0  0  0  0
  192.5680  172.1990  144.6380 C   0  0  0  0  0  1  0  0  0  0  0  0
  191.9670  172.8140  143.3910 C   0  0  1  0  0  0  0  0  0  0  0  0
  190.7840  171.7170  140.3020 C   0  0  0  0  0  2  0  0  0  0  0  0
  191.2230  174.1190  143.7470 C   0  0  1  0  0  3  0  0  0  0  0  0
  189.8730  173.8090  141.5410 C   0  0  1  0  0  0  0  0  0  0  0  0
  192.0430  175.3430  144.1390 C   0  0  1  0  0  3  0  0  0  0  0  0
  190.1730  172.2930  141.5890 C   0  0  2  0  0  3  0  0  0  0  0  0
  190.5970  172.5780  139.0420 C   0  0  2  0  0  3  0  0  0  0  0  0
  188.7770  174.3430  140.6180 C   0  0  0  0  0  2  0  0  0  0  0  0
  192.9920  173.0440  142.4690 O   0  0  0  0  0  1  0  0  0  0  0  0
  190.4060  174.6920  142.6160 C   0  0  2  0  0  0  0  0  0  0  0  0
  189.1300  172.7900  138.6100 C   0  0  1  0  0  3  0  0  0  0  0  0
  191.2020  176.5510  143.9330 N   0  0  0  0  0  0  0  0  0  0  0  0
  191.0630  174.5260  141.3730 O   0  0  0  0  0  0  0  0  0  0  0  0
  190.3030  176.1910  142.8050 C   0  0  2  0  0  3  0  0  0  0  0  0
  190.9540  171.8090  142.8250 C   0  0  0  0  0  2  0  0  0  0  0  0
  188.1910  173.2340  139.7440 C   0  0  0  0  0  2  0  0  0  0  0  0
  188.8910  176.7240  142.8590 C   0  0  0  0  0  0  0  0  0  0  0  0
  186.2500  177.6550  142.9780 C   0  0  0  0  0  0  0  0  0  0  0  0
  186.6190  176.5060  143.6830 C   0  0  0  0  0  3  0  0  0  0  0  0
  187.9370  176.0400  143.6210 C   0  0  0  0  0  3  0  0  0  0  0  0
  187.1970  178.3380  142.2100 C   0  0  0  0  0  3  0  0  0  0  0  0
  188.5130  177.8740  142.1470 C   0  0  0  0  0  3  0  0  0  0  0  0
  183.8070  178.5170  143.0920 N   0  0  0  0  0  0  0  0  0  0  0  0
  184.8980  178.1320  143.0420 C   0  0  0  0  0  0  0  0  0  0  0  0
  189.0550  173.7940  137.4670 C   0  0  0  0  0  2  0  0  0  0  0  0
  187.8340  174.4670  137.4980 O   0  0  0  0  0  1  0  0  0  0  0  0
  192.8460  175.2480  145.4550 C   0  0  1  0  0  3  0  0  0  0  0  0
  192.0570  174.5410  146.5420 C   0  0  0  0  0  1  0  0  0  0  0  0
  194.5120  174.5170  145.2710 S   0  0  0  0  0  0  0  0  0  0  0  0
  195.2970  176.1240  144.9490 C   0  0  2  0  0  3  0  0  0  0  0  0
  194.5810  177.1930  145.7510 C   0  0  0  0  0  1  0  0  0  0  0  0
  195.2120  176.4360  143.5300 N   0  0  0  0  0  2  0  0  0  0  0  0
  196.5660  176.7910  141.6740 O   0  0  0  0  0  1  0  0  0  0  0  0
  196.5540  176.7560  143.0670 C   0  0  0  0  0  3  0  0  0  0  0  0
  197.4500  175.7840  143.5130 O   0  0  0  0  0  1  0  0  0  0  0  0
  191.4360  172.0010  137.9060 C   0  0  0  0  0  2  0  0  0  0  0  0
  191.7320  170.3960  136.4190 C   0  0  0  0  0  1  0  0  0  0  0  0
  190.9530  170.7470  137.5200 O   0  0  0  0  0  0  0  0  0  0  0  0
  3  5  1  0  0  0  0
  3  2  1  1  0  0  0
  4  8  1  0  0  0  0
  5  7  1  0  0  0  0
  6  8  1  0  0  0  0
  6 12  1  0  0  0  0
  7 29  1  0  0  0  0
  8 17  1  0  0  0  0
  9  4  1  0  0  0  0
 10  6  1  0  0  0  0
 11  3  1  0  0  0  0
 12 16  1  0  0  0  0
 12  5  1  0  0  0  0
 13  9  1  0  0  0  0
 13 18  1  0  0  0  0
 14  7  1  0  0  0  0
 14  1  1  0  0  0  0
 15  6  1  0  0  0  0
 15 12  1  0  0  0  0
 16 19  1  0  0  0  0
 16 14  1  0  0  0  0
 17  3  1  0  0  0  0
 18 10  1  0  0  0  0
 19 22  1  0  0  0  0
 20 26  1  0  0  0  0
 20 21  1  0  0  0  0
 22 21  2  0  0  0  0
 23 20  2  0  0  0  0
 24 23  1  0  0  0  0
 24 19  2  0  0  0  0
 26 25  3  0  0  0  0
 27 28  1  0  0  0  0
 27 13  1  0  0  0  0
 29 30  1  0  0  0  0
 31 29  1  0  0  0  0
 32 31  1  0  0  0  0
 32 33  1  0  0  0  0
 34 32  1  0  0  0  0
 35 36  1  0  0  0  0
 36 37  1  0  0  0  0
 36 34  1  0  0  0  0
 38  9  1  0  0  0  0
 39 40  1  0  0  0  0
 40 38  1  0  0  0  0
M  END
>  <MODEL>
5

>  <REMARK>
 VINA RESULT:      -6.1      3.105      8.105
  Name = 
  10 active torsions:
  status: ('A' for Active; 'I' for Inactive)
    1  A    between atoms: C_7  and  C_21
    2  A    between atoms: C_9  and  C_20
    3  A    between atoms: C_10  and  C_30
    4  A    between atoms: C_14  and  N_29
    5  A    between atoms: C_14  and  S_32
    6  A    between atoms: C_16  and  C_36
    7  A    between atoms: O_19  and  C_30
    8  A    between atoms: C_21  and  S_32
    9  A    between atoms: C_22  and  C_40
   10  A    between atoms: C_24  and  N_29
                            x       y       z     vdW  Elec       q    Type
                         _______ _______ _______ _____ _____    ______ ____

>  <TORSDO>
F 10

$$$$
=
 OpenBabel11042419283D

 40 44  0  0  1  0  0  0  0  0999 V2000
  191.7330  171.5970  141.4560 C   0  0  0  0  0  1  0  0  0  0  0  0
  192.8160  174.6340  145.4830 C   0  0  0  0  0  1  0  0  0  0  0  0
  191.4540  174.8100  144.8420 C   0  0  1  0  0  0  0  0  0  0  0  0
  188.9870  177.2660  144.6910 C   0  0  0  0  0  2  0  0  0  0  0  0
  191.3580  173.9620  143.5560 C   0  0  1  0  0  3  0  0  0  0  0  0
  189.4480  175.5600  142.7900 C   0  0  1  0  0  0  0  0  0  0  0  0
  191.2690  172.4460  143.6860 C   0  0  1  0  0  3  0  0  0  0  0  0
  190.0120  176.6550  143.7240 C   0  0  2  0  0  3  0  0  0  0  0  0
  187.5130  177.0520  144.3100 C   0  0  2  0  0  3  0  0  0  0  0  0
  188.4360  175.9260  141.7040 C   0  0  0  0  0  2  0  0  0  0  0  0
  190.4750  174.4450  145.7700 O   0  0  0  0  0  1  0  0  0  0  0  0
  190.1270  174.2350  142.7270 C   0  0  2  0  0  0  0  0  0  0  0  0
  187.0860  177.6960  142.9730 C   0  0  1  0  0  3  0  0  0  0  0  0
  190.6840  171.9060  142.4310 N   0  0  0  0  0  0  0  0  0  0  0  0
  188.9990  174.4720  143.5480 O   0  0  0  0  0  0  0  0  0  0  0  0
  189.7840  172.9850  141.9450 C   0  0  2  0  0  3  0  0  0  0  0  0
  191.3110  176.2920  144.4660 C   0  0  0  0  0  2  0  0  0  0  0  0
  188.0250  177.3960  141.7940 C   0  0  0  0  0  2  0  0  0  0  0  0
  189.6980  173.1810  140.4490 C   0  0  0  0  0  0  0  0  0  0  0  0
  189.4900  173.5070  137.6740 C   0  0  0  0  0  0  0  0  0  0  0  0
  188.3920  173.0530  138.4090 C   0  0  0  0  0  3  0  0  0  0  0  0
  188.4970  172.8880  139.7940 C   0  0  0  0  0  3  0  0  0  0  0  0
  190.6950  173.7950  138.3210 C   0  0  0  0  0  3  0  0  0  0  0  0
  190.8010  173.6310  139.7050 C   0  0  0  0  0  3  0  0  0  0  0  0
  189.2940  173.8120  135.1060 N   0  0  0  0  0  0  0  0  0  0  0  0
  189.3820  173.6760  136.2520 C   0  0  0  0  0  0  0  0  0  0  0  0
  185.6670  177.2740  142.6130 C   0  0  0  0  0  2  0  0  0  0  0  0
  184.9520  178.3660  142.1220 O   0  0  0  0  0  1  0  0  0  0  0  0
  192.5070  171.7250  144.2650 C   0  0  1  0  0  3  0  0  0  0  0  0
  192.3450  170.2160  144.2210 C   0  0  0  0  0  1  0  0  0  0  0  0
  194.0950  172.2380  143.5180 S   0  0  0  0  0  0  0  0  0  0  0  0
  195.0690  171.6730  144.9450 C   0  0  2  0  0  3  0  0  0  0  0  0
  196.0140  172.7810  145.3680 C   0  0  0  0  0  1  0  0  0  0  0  0
  195.8330  170.4900  144.5780 N   0  0  0  0  0  2  0  0  0  0  0  0
  194.7050  169.8450  146.5060 O   0  0  0  0  0  1  0  0  0  0  0  0
  195.8270  169.5890  145.7200 C   0  0  0  0  0  3  0  0  0  0  0  0
  196.9800  169.7850  146.4810 O   0  0  0  0  0  1  0  0  0  0  0  0
  186.6210  177.5090  145.4610 C   0  0  0  0  0  2  0  0  0  0  0  0
  186.2960  177.5440  147.6440 C   0  0  0  0  0  1  0  0  0  0  0  0
  187.2940  177.4050  146.6810 O   0  0  0  0  0  0  0  0  0  0  0  0
  1 14  1  0  0  0  0
  3  2  1  1  0  0  0
  3 11  1  0  0  0  0
  5  7  1  0  0  0  0
  5  3  1  0  0  0  0
  6 15  1  0  0  0  0
  6  8  1  0  0  0  0
  7 29  1  0  0  0  0
  8 17  1  0  0  0  0
  8  4  1  0  0  0  0
  9  4  1  0  0  0  0
  9 38  1  0  0  0  0
 10 18  1  0  0  0  0
 10  6  1  0  0  0  0
 12  6  1  0  0  0  0
 12 15  1  0  0  0  0
 12  5  1  0  0  0  0
 13  9  1  0  0  0  0
 14  7  1  0  0  0  0
 16 14  1  0  0  0  0
 16 12  1  0  0  0  0
 17  3  1  0  0  0  0
 18 13  1  0  0  0  0
 19 16  1  0  0  0  0
 20 23  2  0  0  0  0
 20 21  1  0  0  0  0
 21 22  2  0  0  0  0
 22 19  1  0  0  0  0
 23 24  1  0  0  0  0
 24 19  2  0  0  0  0
 25 26  3  0  0  0  0
 26 20  1  0  0  0  0
 27 13  1  0  0  0  0
 28 27  1  0  0  0  0
 30 29  1  0  0  0  0
 31 29  1  0  0  0  0
 31 32  1  0  0  0  0
 32 33  1  0  0  0  0
 34 32  1  0  0  0  0
 34 36  1  0  0  0  0
 36 37  1  0  0  0  0
 36 35  1  0  0  0  0
 38 40  1  0  0  0  0
 40 39  1  0  0  0  0
M  END
>  <MODEL>
6

>  <REMARK>
 VINA RESULT:      -5.8      3.037      7.903
  Name = 
  10 active torsions:
  status: ('A' for Active; 'I' for Inactive)
    1  A    between atoms: C_7  and  C_21
    2  A    between atoms: C_9  and  C_20
    3  A    between atoms: C_10  and  C_30
    4  A    between atoms: C_14  and  N_29
    5  A    between atoms: C_14  and  S_32
    6  A    between atoms: C_16  and  C_36
    7  A    between atoms: O_19  and  C_30
    8  A    between atoms: C_21  and  S_32
    9  A    between atoms: C_22  and  C_40
   10  A    between atoms: C_24  and  N_29
                            x       y       z     vdW  Elec       q    Type
                         _______ _______ _______ _____ _____    ______ ____

>  <TORSDO>
F 10

$$$$
=
 OpenBabel11042419283D

 40 44  0  0  1  0  0  0  0  0999 V2000
  189.0520  173.7780  142.6040 C   0  0  0  0  0  1  0  0  0  0  0  0
  191.7860  175.1850  146.7460 C   0  0  0  0  0  1  0  0  0  0  0  0
  192.5580  174.9620  145.4620 C   0  0  1  0  0  0  0  0  0  0  0  0
  195.8480  174.2860  144.5300 C   0  0  0  0  0  2  0  0  0  0  0  0
  191.6290  174.3800  144.3760 C   0  0  1  0  0  3  0  0  0  0  0  0
  193.7710  173.4850  143.1930 C   0  0  1  0  0  0  0  0  0  0  0  0
  190.5690  175.2860  143.7600 C   0  0  1  0  0  3  0  0  0  0  0  0
  194.5150  173.5220  144.5480 C   0  0  2  0  0  3  0  0  0  0  0  0
  196.4610  174.5050  143.1370 C   0  0  2  0  0  3  0  0  0  0  0  0
  194.3600  172.7050  142.0180 C   0  0  0  0  0  2  0  0  0  0  0  0
  193.1150  176.1800  145.0600 O   0  0  0  0  0  1  0  0  0  0  0  0
  192.3460  173.9180  143.1320 C   0  0  2  0  0  0  0  0  0  0  0  0
  196.8450  173.2130  142.3840 C   0  0  1  0  0  3  0  0  0  0  0  0
  190.1720  174.7100  142.4480 N   0  0  0  0  0  0  0  0  0  0  0  0
  193.4180  174.7830  142.8070 O   0  0  0  0  0  0  0  0  0  0  0  0
  191.3950  174.0200  141.9590 C   0  0  2  0  0  3  0  0  0  0  0  0
  193.6650  173.9410  145.7620 C   0  0  0  0  0  2  0  0  0  0  0  0
  195.7420  172.1430  142.3540 C   0  0  0  0  0  2  0  0  0  0  0  0
  191.1930  172.7310  141.1970 C   0  0  0  0  0  0  0  0  0  0  0  0
  190.8010  170.3730  139.7350 C   0  0  0  0  0  0  0  0  0  0  0  0
  190.9410  171.5930  139.0690 C   0  0  0  0  0  3  0  0  0  0  0  0
  191.1340  172.7710  139.7990 C   0  0  0  0  0  3  0  0  0  0  0  0
  190.8520  170.3270  141.1310 C   0  0  0  0  0  3  0  0  0  0  0  0
  191.0450  171.5020  141.8620 C   0  0  0  0  0  3  0  0  0  0  0  0
  190.4410  168.1910  138.3800 N   0  0  0  0  0  0  0  0  0  0  0  0
  190.6020  169.1650  138.9850 C   0  0  0  0  0  0  0  0  0  0  0  0
  197.2740  173.5400  140.9590 C   0  0  0  0  0  2  0  0  0  0  0  0
  197.5650  172.3660  140.2650 O   0  0  0  0  0  1  0  0  0  0  0  0
  189.4410  175.7720  144.6970 C   0  0  1  0  0  3  0  0  0  0  0  0
  189.3080  174.8820  145.9190 C   0  0  0  0  0  1  0  0  0  0  0  0
  189.5650  177.5330  145.1740 S   0  0  0  0  0  0  0  0  0  0  0  0
  187.8850  177.9160  144.5990 C   0  0  2  0  0  3  0  0  0  0  0  0
  186.9080  177.6800  145.7340 C   0  0  0  0  0  1  0  0  0  0  0  0
  187.5440  177.0590  143.4730 N   0  0  0  0  0  2  0  0  0  0  0  0
  186.5680  178.6660  142.1070 O   0  0  0  0  0  1  0  0  0  0  0  0
  187.6850  177.8470  142.2590 C   0  0  0  0  0  3  0  0  0  0  0  0
  187.7890  176.9980  141.1560 O   0  0  0  0  0  1  0  0  0  0  0  0
  197.6480  175.4590  143.2520 C   0  0  0  0  0  2  0  0  0  0  0  0
  196.4360  176.7910  141.9750 C   0  0  0  0  0  1  0  0  0  0  0  0
  197.2300  176.7860  143.1210 O   0  0  0  0  0  0  0  0  0  0  0  0
  3 17  1  0  0  0  0
  3  2  1  1  0  0  0
  4  8  1  0  0  0  0
  5  3  1  0  0  0  0
  6  8  1  0  0  0  0
  7  5  1  0  0  0  0
  7 29  1  0  0  0  0
  8 17  1  0  0  0  0
  9 38  1  0  0  0  0
  9  4  1  0  0  0  0
 10 18  1  0  0  0  0
 10  6  1  0  0  0  0
 11  3  1  0  0  0  0
 12  6  1  0  0  0  0
 12  5  1  0  0  0  0
 13  9  1  0  0  0  0
 14  1  1  0  0  0  0
 14  7  1  0  0  0  0
 15 12  1  0  0  0  0
 15  6  1  0  0  0  0
 16 14  1  0  0  0  0
 16 12  1  0  0  0  0
 18 13  1  0  0  0  0
 19 24  1  0  0  0  0
 19 16  1  0  0  0  0
 20 23  1  0  0  0  0
 21 20  2  0  0  0  0
 21 22  1  0  0  0  0
 22 19  2  0  0  0  0
 23 24  2  0  0  0  0
 25 26  3  0  0  0  0
 26 20  1  0  0  0  0
 27 13  1  0  0  0  0
 28 27  1  0  0  0  0
 29 31  1  0  0  0  0
 29 30  1  0  0  0  0
 32 31  1  0  0  0  0
 32 33  1  0  0  0  0
 34 32  1  0  0  0  0
 35 36  1  0  0  0  0
 36 34  1  0  0  0  0
 37 36  1  0  0  0  0
 39 40  1  0  0  0  0
 40 38  1  0  0  0  0
M  END
>  <MODEL>
7

>  <REMARK>
 VINA RESULT:      -5.8      2.285      3.497
  Name = 
  10 active torsions:
  status: ('A' for Active; 'I' for Inactive)
    1  A    between atoms: C_7  and  C_21
    2  A    between atoms: C_9  and  C_20
    3  A    between atoms: C_10  and  C_30
    4  A    between atoms: C_14  and  N_29
    5  A    between atoms: C_14  and  S_32
    6  A    between atoms: C_16  and  C_36
    7  A    between atoms: O_19  and  C_30
    8  A    between atoms: C_21  and  S_32
    9  A    between atoms: C_22  and  C_40
   10  A    between atoms: C_24  and  N_29
                            x       y       z     vdW  Elec       q    Type
                         _______ _______ _______ _____ _____    ______ ____

>  <TORSDO>
F 10

$$$$
=
 OpenBabel11042419283D

 40 44  0  0  1  0  0  0  0  0999 V2000
  192.4500  175.4970  145.0140 C   0  0  0  0  0  1  0  0  0  0  0  0
  193.2250  170.6520  143.4180 C   0  0  0  0  0  1  0  0  0  0  0  0
  192.5030  171.5790  142.4610 C   0  0  1  0  0  0  0  0  0  0  0  0
  190.3850  171.2840  139.7090 C   0  0  0  0  0  2  0  0  0  0  0  0
  192.1970  172.9250  143.1520 C   0  0  1  0  0  3  0  0  0  0  0  0
  190.3200  173.2710  141.3790 C   0  0  1  0  0  0  0  0  0  0  0  0
  193.3520  173.8760  143.4420 C   0  0  1  0  0  3  0  0  0  0  0  0
  190.2570  171.7400  141.1710 C   0  0  2  0  0  3  0  0  0  0  0  0
  190.1090  172.3670  138.6550 C   0  0  2  0  0  3  0  0  0  0  0  0
  189.1920  174.1610  140.8570 C   0  0  0  0  0  2  0  0  0  0  0  0
  193.3000  171.7560  141.3260 O   0  0  0  0  0  1  0  0  0  0  0  0
  191.2900  173.8340  142.3600 C   0  0  2  0  0  0  0  0  0  0  0  0
  188.6730  172.9370  138.6670 C   0  0  1  0  0  3  0  0  0  0  0  0
  192.7950  175.2440  143.6120 N   0  0  0  0  0  0  0  0  0  0  0  0
  191.5690  173.7560  140.9750 O   0  0  0  0  0  0  0  0  0  0  0  0
  191.5920  175.2680  142.7390 C   0  0  2  0  0  3  0  0  0  0  0  0
  191.1750  170.9060  142.0830 C   0  0  0  0  0  2  0  0  0  0  0  0
  188.1680  173.3570  140.0570 C   0  0  0  0  0  2  0  0  0  0  0  0
  190.4010  176.0530  143.2370 C   0  0  0  0  0  0  0  0  0  0  0  0
  188.1640  177.4540  144.1770 C   0  0  0  0  0  0  0  0  0  0  0  0
  188.4060  176.1480  144.6130 C   0  0  0  0  0  3  0  0  0  0  0  0
  189.5210  175.4480  144.1420 C   0  0  0  0  0  3  0  0  0  0  0  0
  189.0360  178.0610  143.2690 C   0  0  0  0  0  3  0  0  0  0  0  0
  190.1500  177.3630  142.7970 C   0  0  0  0  0  3  0  0  0  0  0  0
  186.0960  178.7500  145.0520 N   0  0  0  0  0  0  0  0  0  0  0  0
  187.0190  178.1710  144.6620 C   0  0  0  0  0  0  0  0  0  0  0  0
  188.5640  174.1160  137.7090 C   0  0  0  0  0  2  0  0  0  0  0  0
  187.4470  174.8890  138.0250 O   0  0  0  0  0  1  0  0  0  0  0  0
  194.4030  173.4000  144.4690 C   0  0  1  0  0  3  0  0  0  0  0  0
  193.8020  172.4390  145.4780 C   0  0  0  0  0  1  0  0  0  0  0  0
  195.9230  172.7090  143.7260 S   0  0  0  0  0  0  0  0  0  0  0  0
  196.9800  174.0210  144.4060 C   0  0  2  0  0  3  0  0  0  0  0  0
  197.1860  173.7720  145.8880 C   0  0  0  0  0  1  0  0  0  0  0  0
  196.3410  175.3150  144.2120 N   0  0  0  0  0  2  0  0  0  0  0  0
  197.7680  176.8110  143.1480 O   0  0  0  0  0  1  0  0  0  0  0  0
  196.7910  175.8410  142.9320 C   0  0  0  0  0  3  0  0  0  0  0  0
  195.7140  176.4130  142.2540 O   0  0  0  0  0  1  0  0  0  0  0  0
  190.4880  171.8390  137.2740 C   0  0  0  0  0  2  0  0  0  0  0  0
  191.4300  170.2530  136.0610 C   0  0  0  0  0  1  0  0  0  0  0  0
  191.1830  170.6310  137.3800 O   0  0  0  0  0  0  0  0  0  0  0  0
  3  5  1  0  0  0  0
  3  2  1  1  0  0  0
  4  8  1  0  0  0  0
  5  7  1  0  0  0  0
  6 12  1  0  0  0  0
  7 14  1  0  0  0  0
  7 29  1  0  0  0  0
  8  6  1  0  0  0  0
  8 17  1  0  0  0  0
  9 13  1  0  0  0  0
  9  4  1  0  0  0  0
 10  6  1  0  0  0  0
 11  3  1  0  0  0  0
 12 16  1  0  0  0  0
 12  5  1  0  0  0  0
 13 18  1  0  0  0  0
 14  1  1  0  0  0  0
 15  6  1  0  0  0  0
 15 12  1  0  0  0  0
 16 19  1  0  0  0  0
 16 14  1  0  0  0  0
 17  3  1  0  0  0  0
 18 10  1  0  0  0  0
 19 22  1  0  0  0  0
 20 21  1  0  0  0  0
 20 26  1  0  0  0  0
 22 21  2  0  0  0  0
 23 20  2  0  0  0  0
 24 19  2  0  0  0  0
 24 23  1  0  0  0  0
 26 25  3  0  0  0  0
 27 28  1  0  0  0  0
 27 13  1  0  0  0  0
 29 30  1  0  0  0  0
 31 32  1  0  0  0  0
 31 29  1  0  0  0  0
 32 33  1  0  0  0  0
 34 32  1  0  0  0  0
 36 35  1  0  0  0  0
 36 34  1  0  0  0  0
 37 36  1  0  0  0  0
 38 40  1  0  0  0  0
 38  9  1  0  0  0  0
 39 40  1  0  0  0  0
M  END
>  <MODEL>
8

>  <REMARK>
 VINA RESULT:      -5.7      3.476      8.789
  Name = 
  10 active torsions:
  status: ('A' for Active; 'I' for Inactive)
    1  A    between atoms: C_7  and  C_21
    2  A    between atoms: C_9  and  C_20
    3  A    between atoms: C_10  and  C_30
    4  A    between atoms: C_14  and  N_29
    5  A    between atoms: C_14  and  S_32
    6  A    between atoms: C_16  and  C_36
    7  A    between atoms: O_19  and  C_30
    8  A    between atoms: C_21  and  S_32
    9  A    between atoms: C_22  and  C_40
   10  A    between atoms: C_24  and  N_29
                            x       y       z     vdW  Elec       q    Type
                         _______ _______ _______ _____ _____    ______ ____

>  <TORSDO>
F 10

$$$$
=
 OpenBabel11042419283D

 40 44  0  0  1  0  0  0  0  0999 V2000
  192.2920  175.5770  145.0370 C   0  0  0  0  0  1  0  0  0  0  0  0
  193.3010  170.8060  143.3530 C   0  0  0  0  0  1  0  0  0  0  0  0
  192.5630  171.7240  142.4010 C   0  0  1  0  0  0  0  0  0  0  0  0
  190.5200  171.4060  139.5960 C   0  0  0  0  0  2  0  0  0  0  0  0
  192.1860  173.0400  143.1140 C   0  0  1  0  0  3  0  0  0  0  0  0
  190.3360  173.3500  141.3060 C   0  0  1  0  0  0  0  0  0  0  0  0
  193.2950  174.0310  143.4510 C   0  0  1  0  0  3  0  0  0  0  0  0
  190.3410  171.8230  141.0630 C   0  0  2  0  0  3  0  0  0  0  0  0
  190.2220  172.5010  138.5590 C   0  0  2  0  0  3  0  0  0  0  0  0
  189.1840  174.2050  140.7790 C   0  0  0  0  0  2  0  0  0  0  0  0
  193.3770  171.9600  141.2890 O   0  0  0  0  0  1  0  0  0  0  0  0
  191.2600  173.9290  142.3220 C   0  0  2  0  0  0  0  0  0  0  0  0
  188.7640  173.0110  138.5510 C   0  0  1  0  0  3  0  0  0  0  0  0
  192.6780  175.3710  143.6380 N   0  0  0  0  0  0  0  0  0  0  0  0
  191.5730  173.8940  140.9420 O   0  0  0  0  0  0  0  0  0  0  0  0
  191.4950  175.3660  142.7380 C   0  0  2  0  0  3  0  0  0  0  0  0
  191.2730  171.0070  141.9780 C   0  0  0  0  0  2  0  0  0  0  0  0
  188.2110  173.3780  139.9380 C   0  0  0  0  0  2  0  0  0  0  0  0
  190.2620  176.0890  143.2260 C   0  0  0  0  0  0  0  0  0  0  0  0
  188.0010  177.4860  144.1150 C   0  0  0  0  0  0  0  0  0  0  0  0
  188.8840  178.0860  143.2140 C   0  0  0  0  0  3  0  0  0  0  0  0
  190.0140  177.3900  142.7720 C   0  0  0  0  0  3  0  0  0  0  0  0
  188.2460  176.1900  144.5780 C   0  0  0  0  0  3  0  0  0  0  0  0
  189.3740  175.4930  144.1370 C   0  0  0  0  0  3  0  0  0  0  0  0
  185.9060  178.7780  144.9340 N   0  0  0  0  0  0  0  0  0  0  0  0
  186.8420  178.2020  144.5690 C   0  0  0  0  0  0  0  0  0  0  0  0
  188.6280  174.2060  137.6160 C   0  0  0  0  0  2  0  0  0  0  0  0
  187.4620  174.9140  137.9110 O   0  0  0  0  0  1  0  0  0  0  0  0
  194.3420  173.5760  144.4910 C   0  0  1  0  0  3  0  0  0  0  0  0
  193.7460  172.6050  145.4950 C   0  0  0  0  0  1  0  0  0  0  0  0
  195.8830  172.9100  143.7660 S   0  0  0  0  0  0  0  0  0  0  0  0
  196.5040  172.3170  145.3680 C   0  0  2  0  0  3  0  0  0  0  0  0
  197.1320  173.4780  146.1150 C   0  0  0  0  0  1  0  0  0  0  0  0
  197.5000  171.2770  145.1530 N   0  0  0  0  0  2  0  0  0  0  0  0
  197.7430  168.9990  145.5460 O   0  0  0  0  0  1  0  0  0  0  0  0
  197.1880  170.1750  146.0480 C   0  0  0  0  0  3  0  0  0  0  0  0
  195.8040  170.0270  146.1490 O   0  0  0  0  0  1  0  0  0  0  0  0
  190.6530  172.0200  137.1760 C   0  0  0  0  0  2  0  0  0  0  0  0
  189.6280  171.1720  135.4150 C   0  0  0  0  0  1  0  0  0  0  0  0
  189.8770  170.9330  136.7660 O   0  0  0  0  0  0  0  0  0  0  0  0
  3  5  1  0  0  0  0
  3  2  1  1  0  0  0
  4  8  1  0  0  0  0
  5  7  1  0  0  0  0
  6 12  1  0  0  0  0
  7 14  1  0  0  0  0
  7 29  1  0  0  0  0
  8  6  1  0  0  0  0
  8 17  1  0  0  0  0
  9  4  1  0  0  0  0
 10  6  1  0  0  0  0
 11  3  1  0  0  0  0
 12 16  1  0  0  0  0
 12  5  1  0  0  0  0
 13  9  1  0  0  0  0
 13 18  1  0  0  0  0
 14  1  1  0  0  0  0
 15  6  1  0  0  0  0
 15 12  1  0  0  0  0
 16 19  1  0  0  0  0
 16 14  1  0  0  0  0
 17  3  1  0  0  0  0
 18 10  1  0  0  0  0
 19 24  1  0  0  0  0
 20 26  1  0  0  0  0
 20 23  1  0  0  0  0
 21 20  2  0  0  0  0
 22 21  1  0  0  0  0
 22 19  2  0  0  0  0
 24 23  2  0  0  0  0
 26 25  3  0  0  0  0
 27 28  1  0  0  0  0
 27 13  1  0  0  0  0
 29 30  1  0  0  0  0
 31 29  1  0  0  0  0
 31 32  1  0  0  0  0
 32 33  1  0  0  0  0
 34 32  1  0  0  0  0
 34 36  1  0  0  0  0
 35 36  1  0  0  0  0
 36 37  1  0  0  0  0
 38  9  1  0  0  0  0
 39 40  1  0  0  0  0
 40 38  1  0  0  0  0
M  END
>  <MODEL>
9

>  <REMARK>
 VINA RESULT:      -5.5      3.614      9.311
  Name = 
  10 active torsions:
  status: ('A' for Active; 'I' for Inactive)
    1  A    between atoms: C_7  and  C_21
    2  A    between atoms: C_9  and  C_20
    3  A    between atoms: C_10  and  C_30
    4  A    between atoms: C_14  and  N_29
    5  A    between atoms: C_14  and  S_32
    6  A    between atoms: C_16  and  C_36
    7  A    between atoms: O_19  and  C_30
    8  A    between atoms: C_21  and  S_32
    9  A    between atoms: C_22  and  C_40
   10  A    between atoms: C_24  and  N_29
                            x       y       z     vdW  Elec       q    Type
                         _______ _______ _______ _____ _____    ______ ____

>  <TORSDO>
F 10

$$$$
