=
 OpenBabel11042416073D

 34 37  0  0  1  0  0  0  0  0999 V2000
  188.6270  174.2520  141.6380 C   0  0  1  0  0  3  0  0  0  0  0  0
  187.1820  176.8590  145.5540 C   0  0  0  0  0  1  0  0  0  0  0  0
  189.8500  176.1180  146.6200 C   0  0  2  0  0  3  0  0  0  0  0  0
  192.3080  175.6770  145.9970 C   0  0  0  0  0  0  0  0  0  0  0  0
  190.2850  175.4630  142.8030 C   0  0  1  0  0  3  0  0  0  0  0  0
  189.9590  173.4900  141.6830 C   0  0  2  0  0  0  0  0  0  0  0  0
  188.2000  176.2570  144.6340 C   0  0  0  0  0  0  0  0  0  0  0  0
  189.2350  175.0030  147.3220 N   0  0  0  0  0  1  0  0  0  0  0  0
  187.8640  175.9090  143.3780 C   0  0  0  0  0  0  0  0  0  0  0  0
  193.7340  175.5070  146.3910 C   0  0  0  0  0  1  0  0  0  0  0  0
  191.6730  176.6010  148.0870 O   0  0  0  0  0  0  0  0  0  0  0  0
  191.9420  175.3990  144.7480 C   0  0  0  0  0  3  0  0  0  0  0  0
  189.5790  175.9960  145.1330 C   0  0  0  0  0  0  0  0  0  0  0  0
  189.7830  172.3050  142.6220 C   0  0  0  0  0  1  0  0  0  0  0  0
  188.8680  175.3570  142.5180 N   0  0  0  0  0  0  0  0  0  0  0  0
  190.5510  175.5790  144.2820 C   0  0  0  0  0  0  0  0  0  0  0  0
  188.2370  174.7900  140.2640 C   0  0  0  0  0  1  0  0  0  0  0  0
  191.3110  176.1720  146.9580 C   0  0  0  0  0  0  0  0  0  0  0  0
  190.9430  174.3420  142.2460 O   0  0  0  0  0  0  0  0  0  0  0  0
  189.8660  171.7960  139.7960 C   0  0  0  0  0  3  0  0  0  0  0  0
  190.4120  172.9720  140.3320 C   0  0  0  0  0  0  0  0  0  0  0  0
  190.3280  171.3210  138.5680 C   0  0  0  0  0  0  0  0  0  0  0  0
  191.4020  173.6190  139.6520 N   0  0  0  0  0  0  0  0  0  0  0  0
  191.8650  173.1700  138.4540 C   0  0  0  0  0  3  0  0  0  0  0  0
  191.3330  172.0090  137.8890 C   0  0  0  0  0  3  0  0  0  0  0  0
  189.6510  169.8590  137.8840 Cl  0  0  0  0  0  0  0  0  0  0  0  0
  186.4680  176.0880  142.8620 C   0  0  0  0  0  2  0  0  0  0  0  0
  186.3950  177.3310  141.9950 C   0  0  0  0  0  2  0  0  0  0  0  0
  185.0250  177.9770  142.1180 C   0  0  0  0  0  2  0  0  0  0  0  0
  184.5230  177.8470  143.4430 O   0  0  0  0  0  0  0  0  0  0  0  0
  185.1700  179.9520  144.0760 O   0  0  0  0  0  0  0  0  0  0  0  0
  184.4990  178.9170  144.3380 C   0  0  0  0  0  0  0  0  0  0  0  0
  184.3330  178.5460  146.7660 C   0  0  0  0  0  1  0  0  0  0  0  0
  183.7420  178.8410  145.5100 O   0  0  0  0  0  0  0  0  0  0  0  0
  1 17  1  6  0  0  0
  1  6  1  0  0  0  0
  1 15  1  0  0  0  0
  3 18  1  0  0  0  0
  3  8  1  1  0  0  0
  4 10  1  0  0  0  0
  4 18  1  0  0  0  0
  5 19  1  1  0  0  0
  5 16  1  0  0  0  0
  6 19  1  0  0  0  0
  6 14  1  1  0  0  0
  7 13  1  0  0  0  0
  7  2  1  0  0  0  0
  9  7  2  0  0  0  0
 12  4  2  0  0  0  0
 13  3  1  0  0  0  0
 15  5  1  0  0  0  0
 15  9  1  0  0  0  0
 16 12  1  0  0  0  0
 16 13  2  0  0  0  0
 18 11  2  0  0  0  0
 20 21  1  0  0  0  0
 21  6  1  0  0  0  0
 22 20  2  0  0  0  0
 23 21  2  0  0  0  0
 24 23  1  0  0  0  0
 25 24  2  0  0  0  0
 25 22  1  0  0  0  0
 26 22  1  0  0  0  0
 27  9  1  0  0  0  0
 28 29  1  0  0  0  0
 28 27  1  0  0  0  0
 29 30  1  0  0  0  0
 30 32  1  0  0  0  0
 31 32  2  0  0  0  0
 32 34  1  0  0  0  0
 34 33  1  0  0  0  0
M  END
>  <MODEL>
1

>  <REMARK>
 VINA RESULT:      -7.5      0.000      0.000
  Name = 
  7 active torsions:
  status: ('A' for Active; 'I' for Inactive)
    1  A    between atoms: O_1  and  C_18
    2  A    between atoms: O_1  and  C_29
    3  A    between atoms: C_2  and  C_15
    4  A    between atoms: C_2  and  C_33
    5  A    between atoms: C_9  and  C_13
    6  A    between atoms: C_18  and  O_30
    7  A    between atoms: C_29  and  C_33
                            x       y       z     vdW  Elec       q    Type
                         _______ _______ _______ _____ _____    ______ ____

>  <TORSDO>
F 7

$$$$
=
 OpenBabel11042416073D

 34 37  0  0  1  0  0  0  0  0999 V2000
  190.0870  175.5500  144.3220 C   0  0  1  0  0  3  0  0  0  0  0  0
  186.4160  177.0310  147.2460 C   0  0  0  0  0  1  0  0  0  0  0  0
  185.3180  178.1740  144.7390 C   0  0  2  0  0  3  0  0  0  0  0  0
  185.1000  177.8310  142.1970 C   0  0  0  0  0  0  0  0  0  0  0  0
  187.9170  175.5990  143.3930 C   0  0  1  0  0  3  0  0  0  0  0  0
  190.1090  175.9880  142.8510 C   0  0  2  0  0  0  0  0  0  0  0  0
  187.0220  176.6380  145.9330 C   0  0  0  0  0  0  0  0  0  0  0  0
  185.9140  179.4530  145.0870 N   0  0  0  0  0  1  0  0  0  0  0  0
  188.1470  175.9010  145.8930 C   0  0  0  0  0  0  0  0  0  0  0  0
  184.4580  178.1630  140.8940 C   0  0  0  0  0  1  0  0  0  0  0  0
  183.4230  178.9060  143.4830 O   0  0  0  0  0  0  0  0  0  0  0  0
  186.1830  177.0570  142.2090 C   0  0  0  0  0  3  0  0  0  0  0  0
  186.3980  177.1120  144.6650 C   0  0  0  0  0  0  0  0  0  0  0  0
  190.4500  177.4710  142.8160 C   0  0  0  0  0  1  0  0  0  0  0  0
  188.6860  175.5240  144.6200 N   0  0  0  0  0  0  0  0  0  0  0  0
  186.8470  176.6600  143.4670 C   0  0  0  0  0  0  0  0  0  0  0  0
  190.6740  174.1660  144.5910 C   0  0  0  0  0  1  0  0  0  0  0  0
  184.5390  178.3210  143.4650 C   0  0  0  0  0  0  0  0  0  0  0  0
  188.8040  175.8350  142.3170 O   0  0  0  0  0  0  0  0  0  0  0  0
  190.7190  174.1940  141.1630 C   0  0  0  0  0  3  0  0  0  0  0  0
  191.1210  175.2410  142.0060 C   0  0  0  0  0  0  0  0  0  0  0  0
  191.6760  173.4980  140.4250 C   0  0  0  0  0  0  0  0  0  0  0  0
  192.4470  175.5470  142.1030 N   0  0  0  0  0  0  0  0  0  0  0  0
  193.3950  174.8790  141.3900 C   0  0  0  0  0  3  0  0  0  0  0  0
  193.0240  173.8400  140.5350 C   0  0  0  0  0  3  0  0  0  0  0  0
  191.1870  172.1940  139.3650 Cl  0  0  0  0  0  0  0  0  0  0  0  0
  188.8440  175.4660  147.1460 C   0  0  0  0  0  2  0  0  0  0  0  0
  189.9250  176.4680  147.5080 C   0  0  0  0  0  2  0  0  0  0  0  0
  191.2450  175.7530  147.7450 C   0  0  0  0  0  2  0  0  0  0  0  0
  192.3420  176.5900  147.3980 O   0  0  0  0  0  0  0  0  0  0  0  0
  193.0820  176.9780  145.2640 O   0  0  0  0  0  0  0  0  0  0  0  0
  193.1850  176.3040  146.3240 C   0  0  0  0  0  0  0  0  0  0  0  0
  194.3280  174.3380  145.3800 C   0  0  0  0  0  1  0  0  0  0  0  0
  194.1320  175.2790  146.4220 O   0  0  0  0  0  0  0  0  0  0  0  0
  1 17  1  6  0  0  0
  1 15  1  0  0  0  0
  3  8  1  6  0  0  0
  4 12  2  0  0  0  0
  4 18  1  0  0  0  0
  5 19  1  6  0  0  0
  5 16  1  0  0  0  0
  5 15  1  0  0  0  0
  6 14  1  6  0  0  0
  6  1  1  0  0  0  0
  7  2  1  0  0  0  0
  9  7  2  0  0  0  0
  9 27  1  0  0  0  0
 10  4  1  0  0  0  0
 12 16  1  0  0  0  0
 13  3  1  0  0  0  0
 13  7  1  0  0  0  0
 15  9  1  0  0  0  0
 16 13  2  0  0  0  0
 18 11  2  0  0  0  0
 18  3  1  0  0  0  0
 19  6  1  0  0  0  0
 20 21  1  0  0  0  0
 21 23  2  0  0  0  0
 21  6  1  0  0  0  0
 22 25  1  0  0  0  0
 22 20  2  0  0  0  0
 24 23  1  0  0  0  0
 25 24  2  0  0  0  0
 26 22  1  0  0  0  0
 27 28  1  0  0  0  0
 28 29  1  0  0  0  0
 30 29  1  0  0  0  0
 31 32  2  0  0  0  0
 32 34  1  0  0  0  0
 32 30  1  0  0  0  0
 33 34  1  0  0  0  0
M  END
>  <MODEL>
2

>  <REMARK>
 VINA RESULT:      -7.3      2.008      6.143
  Name = 
  7 active torsions:
  status: ('A' for Active; 'I' for Inactive)
    1  A    between atoms: O_1  and  C_18
    2  A    between atoms: O_1  and  C_29
    3  A    between atoms: C_2  and  C_15
    4  A    between atoms: C_2  and  C_33
    5  A    between atoms: C_9  and  C_13
    6  A    between atoms: C_18  and  O_30
    7  A    between atoms: C_29  and  C_33
                            x       y       z     vdW  Elec       q    Type
                         _______ _______ _______ _____ _____    ______ ____

>  <TORSDO>
F 7

$$$$
=
 OpenBabel11042416073D

 34 37  0  0  1  0  0  0  0  0999 V2000
  188.1280  175.8640  142.7130 C   0  0  1  0  0  3  0  0  0  0  0  0
  191.5100  172.3930  141.8540 C   0  0  0  0  0  1  0  0  0  0  0  0
  193.2490  174.1440  143.5010 C   0  0  2  0  0  3  0  0  0  0  0  0
  193.3030  175.7590  145.5050 C   0  0  0  0  0  0  0  0  0  0  0  0
  189.6870  175.4230  144.4310 C   0  0  1  0  0  3  0  0  0  0  0  0
  188.5280  177.1450  143.4580 C   0  0  2  0  0  0  0  0  0  0  0  0
  190.8950  173.5160  142.6330 C   0  0  0  0  0  0  0  0  0  0  0  0
  193.7660  174.7410  142.2800 N   0  0  0  0  0  1  0  0  0  0  0  0
  189.5970  173.8290  142.4710 C   0  0  0  0  0  0  0  0  0  0  0  0
  194.0620  176.5200  146.5360 C   0  0  0  0  0  1  0  0  0  0  0  0
  195.1450  174.3780  144.9350 O   0  0  0  0  0  0  0  0  0  0  0  0
  192.0030  175.9950  145.3490 C   0  0  0  0  0  3  0  0  0  0  0  0
  191.7440  174.3210  143.5560 C   0  0  0  0  0  0  0  0  0  0  0  0
  189.3910  177.9750  142.5190 C   0  0  0  0  0  1  0  0  0  0  0  0
  189.0360  174.8930  143.2490 N   0  0  0  0  0  0  0  0  0  0  0  0
  191.1830  175.2510  144.3700 C   0  0  0  0  0  0  0  0  0  0  0  0
  186.6980  175.3920  142.9620 C   0  0  0  0  0  1  0  0  0  0  0  0
  193.9630  174.7340  144.6820 C   0  0  0  0  0  0  0  0  0  0  0  0
  189.3290  176.7840  144.5720 O   0  0  0  0  0  0  0  0  0  0  0  0
  186.9820  178.0540  145.2530 C   0  0  0  0  0  3  0  0  0  0  0  0
  187.3480  177.9880  143.9010 C   0  0  0  0  0  0  0  0  0  0  0  0
  185.8690  178.8070  145.6280 C   0  0  0  0  0  0  0  0  0  0  0  0
  186.5960  178.6450  142.9720 N   0  0  0  0  0  0  0  0  0  0  0  0
  185.5070  179.3840  143.3200 C   0  0  0  0  0  3  0  0  0  0  0  0
  185.1250  179.4790  144.6600 C   0  0  0  0  0  3  0  0  0  0  0  0
  185.4050  178.9040  147.3130 Cl  0  0  0  0  0  0  0  0  0  0  0  0
  188.7280  173.0900  141.4990 C   0  0  0  0  0  2  0  0  0  0  0  0
  188.7790  173.7700  140.1430 C   0  0  0  0  0  2  0  0  0  0  0  0
  188.7890  172.7300  139.0350 C   0  0  0  0  0  2  0  0  0  0  0  0
  188.1890  173.2470  137.8520 O   0  0  0  0  0  0  0  0  0  0  0  0
  190.0550  174.1220  136.8510 O   0  0  0  0  0  0  0  0  0  0  0  0
  188.8150  174.2100  137.0610 C   0  0  0  0  0  0  0  0  0  0  0  0
  186.9180  175.7770  137.1460 C   0  0  0  0  0  1  0  0  0  0  0  0
  188.0770  175.2610  136.5100 O   0  0  0  0  0  0  0  0  0  0  0  0
  1 17  1  1  0  0  0
  1 15  1  0  0  0  0
  1  6  1  0  0  0  0
  2  7  1  0  0  0  0
  3  8  1  6  0  0  0
  3 13  1  0  0  0  0
  3 18  1  0  0  0  0
  4 10  1  0  0  0  0
  5 16  1  6  0  0  0
  5 19  1  0  0  0  0
  6 14  1  6  0  0  0
  6 21  1  0  0  0  0
  6 19  1  0  0  0  0
  7 13  1  0  0  0  0
  9  7  2  0  0  0  0
  9 15  1  0  0  0  0
 12  4  2  0  0  0  0
 13 16  2  0  0  0  0
 15  5  1  0  0  0  0
 16 12  1  0  0  0  0
 18 11  2  0  0  0  0
 18  4  1  0  0  0  0
 20 22  1  0  0  0  0
 21 20  2  0  0  0  0
 22 26  1  0  0  0  0
 23 24  2  0  0  0  0
 23 21  1  0  0  0  0
 24 25  1  0  0  0  0
 25 22  2  0  0  0  0
 27  9  1  0  0  0  0
 28 27  1  0  0  0  0
 29 28  1  0  0  0  0
 30 29  1  0  0  0  0
 31 32  2  0  0  0  0
 32 30  1  0  0  0  0
 34 32  1  0  0  0  0
 34 33  1  0  0  0  0
M  END
>  <MODEL>
3

>  <REMARK>
 VINA RESULT:      -7.0      3.560      6.876
  Name = 
  7 active torsions:
  status: ('A' for Active; 'I' for Inactive)
    1  A    between atoms: O_1  and  C_18
    2  A    between atoms: O_1  and  C_29
    3  A    between atoms: C_2  and  C_15
    4  A    between atoms: C_2  and  C_33
    5  A    between atoms: C_9  and  C_13
    6  A    between atoms: C_18  and  O_30
    7  A    between atoms: C_29  and  C_33
                            x       y       z     vdW  Elec       q    Type
                         _______ _______ _______ _____ _____    ______ ____

>  <TORSDO>
F 7

$$$$
=
 OpenBabel11042416073D

 34 37  0  0  1  0  0  0  0  0999 V2000
  188.6900  176.1040  142.2280 C   0  0  1  0  0  3  0  0  0  0  0  0
  192.6560  173.5810  140.7700 C   0  0  0  0  0  1  0  0  0  0  0  0
  194.0900  175.4070  142.6160 C   0  0  2  0  0  3  0  0  0  0  0  0
  193.9260  176.6970  144.8380 C   0  0  0  0  0  0  0  0  0  0  0  0
  190.4000  175.7630  143.8190 C   0  0  1  0  0  3  0  0  0  0  0  0
  188.8600  177.3220  143.1460 C   0  0  2  0  0  0  0  0  0  0  0  0
  191.8690  174.4270  141.7250 C   0  0  0  0  0  0  0  0  0  0  0  0
  194.4050  176.2660  141.4860 N   0  0  0  0  0  1  0  0  0  0  0  0
  190.5270  174.4790  141.6450 C   0  0  0  0  0  0  0  0  0  0  0  0
  194.5700  177.4470  145.9520 C   0  0  0  0  0  1  0  0  0  0  0  0
  195.9760  175.8300  144.0200 O   0  0  0  0  0  0  0  0  0  0  0  0
  192.5980  176.6740  144.7530 C   0  0  0  0  0  3  0  0  0  0  0  0
  192.5860  175.2540  142.7360 C   0  0  0  0  0  0  0  0  0  0  0  0
  189.4810  178.4400  142.3210 C   0  0  0  0  0  1  0  0  0  0  0  0
  189.8060  175.2810  142.5880 N   0  0  0  0  0  0  0  0  0  0  0  0
  191.8940  175.9200  143.6950 C   0  0  0  0  0  0  0  0  0  0  0  0
  187.4020  175.3110  142.4400 C   0  0  0  0  0  1  0  0  0  0  0  0
  194.7340  175.9610  143.8540 C   0  0  0  0  0  0  0  0  0  0  0  0
  189.7800  176.9840  144.1720 O   0  0  0  0  0  0  0  0  0  0  0  0
  187.2190  177.5350  145.0700 C   0  0  0  0  0  3  0  0  0  0  0  0
  187.5600  177.8260  143.7410 C   0  0  0  0  0  0  0  0  0  0  0  0
  185.9990  177.9790  145.5800 C   0  0  0  0  0  0  0  0  0  0  0  0
  186.6820  178.5230  142.9640 N   0  0  0  0  0  0  0  0  0  0  0  0
  185.4880  178.9640  143.4440 C   0  0  0  0  0  3  0  0  0  0  0  0
  185.1250  178.7000  144.7670 C   0  0  0  0  0  3  0  0  0  0  0  0
  185.5640  177.6280  147.2380 Cl  0  0  0  0  0  0  0  0  0  0  0  0
  189.7740  173.7190  140.5960 C   0  0  0  0  0  2  0  0  0  0  0  0
  189.6680  172.2590  140.9940 C   0  0  0  0  0  2  0  0  0  0  0  0
  188.9190  172.1270  142.3110 C   0  0  0  0  0  2  0  0  0  0  0  0
  189.7110  171.4420  143.2760 O   0  0  0  0  0  0  0  0  0  0  0  0
  189.5930  172.6300  145.2320 O   0  0  0  0  0  0  0  0  0  0  0  0
  190.3170  172.1040  144.3440 C   0  0  0  0  0  0  0  0  0  0  0  0
  192.5550  171.2870  143.7230 C   0  0  0  0  0  1  0  0  0  0  0  0
  191.7100  172.1830  144.4270 O   0  0  0  0  0  0  0  0  0  0  0  0
  1 17  1  1  0  0  0
  1 15  1  0  0  0  0
  1  6  1  0  0  0  0
  2  7  1  0  0  0  0
  3  8  1  6  0  0  0
  3 13  1  0  0  0  0
  3 18  1  0  0  0  0
  4 10  1  0  0  0  0
  5 16  1  6  0  0  0
  5 19  1  0  0  0  0
  6 14  1  6  0  0  0
  6 21  1  0  0  0  0
  6 19  1  0  0  0  0
  7 13  1  0  0  0  0
  9  7  2  0  0  0  0
  9 15  1  0  0  0  0
 12  4  2  0  0  0  0
 13 16  2  0  0  0  0
 15  5  1  0  0  0  0
 16 12  1  0  0  0  0
 18 11  2  0  0  0  0
 18  4  1  0  0  0  0
 20 22  1  0  0  0  0
 21 20  2  0  0  0  0
 22 26  1  0  0  0  0
 23 24  2  0  0  0  0
 23 21  1  0  0  0  0
 24 25  1  0  0  0  0
 25 22  2  0  0  0  0
 27 28  1  0  0  0  0
 27  9  1  0  0  0  0
 28 29  1  0  0  0  0
 29 30  1  0  0  0  0
 30 32  1  0  0  0  0
 32 34  1  0  0  0  0
 32 31  2  0  0  0  0
 33 34  1  0  0  0  0
M  END
>  <MODEL>
4

>  <REMARK>
 VINA RESULT:      -7.0      3.494      6.878
  Name = 
  7 active torsions:
  status: ('A' for Active; 'I' for Inactive)
    1  A    between atoms: O_1  and  C_18
    2  A    between atoms: O_1  and  C_29
    3  A    between atoms: C_2  and  C_15
    4  A    between atoms: C_2  and  C_33
    5  A    between atoms: C_9  and  C_13
    6  A    between atoms: C_18  and  O_30
    7  A    between atoms: C_29  and  C_33
                            x       y       z     vdW  Elec       q    Type
                         _______ _______ _______ _____ _____    ______ ____

>  <TORSDO>
F 7

$$$$
=
 OpenBabel11042416073D

 34 37  0  0  1  0  0  0  0  0999 V2000
  188.4580  174.4250  141.4260 C   0  0  1  0  0  3  0  0  0  0  0  0
  187.0230  177.4580  145.0260 C   0  0  0  0  0  1  0  0  0  0  0  0
  189.4920  176.5050  146.3660 C   0  0  2  0  0  3  0  0  0  0  0  0
  191.9230  175.7460  145.9900 C   0  0  0  0  0  0  0  0  0  0  0  0
  190.1490  175.5260  142.6510 C   0  0  1  0  0  3  0  0  0  0  0  0
  189.6830  173.5250  141.6350 C   0  0  2  0  0  0  0  0  0  0  0  0
  188.0330  176.6800  144.2380 C   0  0  0  0  0  0  0  0  0  0  0  0
  188.6970  175.5190  147.0810 N   0  0  0  0  0  1  0  0  0  0  0  0
  187.7590  176.2810  142.9830 C   0  0  0  0  0  0  0  0  0  0  0  0
  193.2840  175.4470  146.5170 C   0  0  0  0  0  1  0  0  0  0  0  0
  191.2370  176.8870  147.9530 O   0  0  0  0  0  0  0  0  0  0  0  0
  191.6270  175.4200  144.7340 C   0  0  0  0  0  3  0  0  0  0  0  0
  189.3280  176.3040  144.8720 C   0  0  0  0  0  0  0  0  0  0  0  0
  189.2950  172.4400  142.6290 C   0  0  0  0  0  1  0  0  0  0  0  0
  188.7560  175.5580  142.2510 N   0  0  0  0  0  0  0  0  0  0  0  0
  190.3080  175.7200  144.1380 C   0  0  0  0  0  0  0  0  0  0  0  0
  188.2450  174.9020  139.9910 C   0  0  0  0  0  1  0  0  0  0  0  0
  190.9180  176.4190  146.8260 C   0  0  0  0  0  0  0  0  0  0  0  0
  190.7130  174.3010  142.2270 O   0  0  0  0  0  0  0  0  0  0  0  0
  191.3510  173.3040  139.7350 C   0  0  0  0  0  3  0  0  0  0  0  0
  190.1780  172.8620  140.3650 C   0  0  0  0  0  0  0  0  0  0  0  0
  191.7640  172.7000  138.5470 C   0  0  0  0  0  0  0  0  0  0  0  0
  189.4500  171.8610  139.7920 N   0  0  0  0  0  0  0  0  0  0  0  0
  189.8370  171.2610  138.6340 C   0  0  0  0  0  3  0  0  0  0  0  0
  191.0060  171.6710  137.9900 C   0  0  0  0  0  3  0  0  0  0  0  0
  193.2290  173.2370  137.7550 Cl  0  0  0  0  0  0  0  0  0  0  0  0
  186.4400  176.5770  142.3370 C   0  0  0  0  0  2  0  0  0  0  0  0
  186.5630  177.8030  141.4520 C   0  0  0  0  0  2  0  0  0  0  0  0
  185.5480  177.7400  140.3220 C   0  0  0  0  0  2  0  0  0  0  0  0
  184.4870  178.6630  140.5440 O   0  0  0  0  0  0  0  0  0  0  0  0
  183.1830  178.2880  142.3910 O   0  0  0  0  0  0  0  0  0  0  0  0
  183.2820  178.2810  141.1340 C   0  0  0  0  0  0  0  0  0  0  0  0
  180.9040  178.4500  140.5170 C   0  0  0  0  0  1  0  0  0  0  0  0
  182.1980  177.8950  140.3400 O   0  0  0  0  0  0  0  0  0  0  0  0
  1 17  1  6  0  0  0
  1  6  1  0  0  0  0
  1 15  1  0  0  0  0
  3 18  1  0  0  0  0
  3  8  1  1  0  0  0
  4 10  1  0  0  0  0
  4 18  1  0  0  0  0
  5 19  1  1  0  0  0
  5 16  1  0  0  0  0
  6 19  1  0  0  0  0
  6 14  1  1  0  0  0
  7 13  1  0  0  0  0
  7  2  1  0  0  0  0
  9  7  2  0  0  0  0
 12  4  2  0  0  0  0
 13  3  1  0  0  0  0
 15  5  1  0  0  0  0
 15  9  1  0  0  0  0
 16 12  1  0  0  0  0
 16 13  2  0  0  0  0
 18 11  2  0  0  0  0
 20 21  1  0  0  0  0
 21  6  1  0  0  0  0
 22 20  2  0  0  0  0
 23 21  2  0  0  0  0
 24 23  1  0  0  0  0
 25 22  1  0  0  0  0
 25 24  2  0  0  0  0
 26 22  1  0  0  0  0
 27  9  1  0  0  0  0
 28 27  1  0  0  0  0
 29 30  1  0  0  0  0
 29 28  1  0  0  0  0
 30 32  1  0  0  0  0
 32 31  2  0  0  0  0
 34 33  1  0  0  0  0
 34 32  1  0  0  0  0
M  END
>  <MODEL>
5

>  <REMARK>
 VINA RESULT:      -6.8      1.657      2.225
  Name = 
  7 active torsions:
  status: ('A' for Active; 'I' for Inactive)
    1  A    between atoms: O_1  and  C_18
    2  A    between atoms: O_1  and  C_29
    3  A    between atoms: C_2  and  C_15
    4  A    between atoms: C_2  and  C_33
    5  A    between atoms: C_9  and  C_13
    6  A    between atoms: C_18  and  O_30
    7  A    between atoms: C_29  and  C_33
                            x       y       z     vdW  Elec       q    Type
                         _______ _______ _______ _____ _____    ______ ____

>  <TORSDO>
F 7

$$$$
=
 OpenBabel11042416073D

 34 37  0  0  1  0  0  0  0  0999 V2000
  189.0390  174.5010  142.0160 C   0  0  1  0  0  3  0  0  0  0  0  0
  189.1460  177.2070  146.1250 C   0  0  0  0  0  1  0  0  0  0  0  0
  192.0040  176.4120  146.1820 C   0  0  2  0  0  3  0  0  0  0  0  0
  194.0660  175.8940  144.7310 C   0  0  0  0  0  0  0  0  0  0  0  0
  191.0280  175.6850  142.4790 C   0  0  1  0  0  3  0  0  0  0  0  0
  190.2830  173.7050  141.5990 C   0  0  2  0  0  0  0  0  0  0  0  0
  189.7540  176.5630  144.9160 C   0  0  0  0  0  0  0  0  0  0  0  0
  191.6600  175.3240  147.0840 N   0  0  0  0  0  1  0  0  0  0  0  0
  188.9830  176.2050  143.8720 C   0  0  0  0  0  0  0  0  0  0  0  0
  195.5350  175.6910  144.5920 C   0  0  0  0  0  1  0  0  0  0  0  0
  194.2400  176.8680  146.8860 O   0  0  0  0  0  0  0  0  0  0  0  0
  193.2700  175.6060  143.7040 C   0  0  0  0  0  3  0  0  0  0  0  0
  191.2150  176.2730  144.8940 C   0  0  0  0  0  0  0  0  0  0  0  0
  190.4320  172.5400  142.5670 C   0  0  0  0  0  1  0  0  0  0  0  0
  189.6010  175.6120  142.7240 N   0  0  0  0  0  0  0  0  0  0  0  0
  191.8090  175.8170  143.7620 C   0  0  0  0  0  0  0  0  0  0  0  0
  188.1930  175.0280  140.8590 C   0  0  0  0  0  1  0  0  0  0  0  0
  193.4900  176.4310  145.9730 C   0  0  0  0  0  0  0  0  0  0  0  0
  191.4210  174.5380  141.7510 O   0  0  0  0  0  0  0  0  0  0  0  0
  190.8890  173.7850  139.1360 C   0  0  0  0  0  3  0  0  0  0  0  0
  190.2110  173.1530  140.1890 C   0  0  0  0  0  0  0  0  0  0  0  0
  190.7760  173.2780  137.8410 C   0  0  0  0  0  0  0  0  0  0  0  0
  189.4350  172.0630  139.9230 N   0  0  0  0  0  0  0  0  0  0  0  0
  189.3130  171.5550  138.6670 C   0  0  0  0  0  3  0  0  0  0  0  0
  189.9850  172.1560  137.6000 C   0  0  0  0  0  3  0  0  0  0  0  0
  191.6220  174.0540  136.5200 Cl  0  0  0  0  0  0  0  0  0  0  0  0
  187.5000  176.4140  143.8860 C   0  0  0  0  0  2  0  0  0  0  0  0
  187.1550  177.7100  143.1760 C   0  0  0  0  0  2  0  0  0  0  0  0
  186.2350  178.5540  144.0420 C   0  0  0  0  0  2  0  0  0  0  0  0
  185.1590  177.7710  144.5490 O   0  0  0  0  0  0  0  0  0  0  0  0
  183.7000  178.6650  146.0740 O   0  0  0  0  0  0  0  0  0  0  0  0
  184.6880  177.9120  145.8540 C   0  0  0  0  0  0  0  0  0  0  0  0
  185.9480  177.9110  147.9700 C   0  0  0  0  0  1  0  0  0  0  0  0
  185.3050  177.2280  146.9060 O   0  0  0  0  0  0  0  0  0  0  0  0
  1 17  1  6  0  0  0
  1 15  1  0  0  0  0
  3  8  1  1  0  0  0
  4 18  1  0  0  0  0
  5 19  1  1  0  0  0
  5 15  1  0  0  0  0
  5 16  1  0  0  0  0
  6 19  1  0  0  0  0
  6  1  1  0  0  0  0
  6 14  1  1  0  0  0
  7  2  1  0  0  0  0
  9 27  1  0  0  0  0
  9  7  2  0  0  0  0
 10  4  1  0  0  0  0
 12 16  1  0  0  0  0
 12  4  2  0  0  0  0
 13  7  1  0  0  0  0
 13  3  1  0  0  0  0
 15  9  1  0  0  0  0
 16 13  2  0  0  0  0
 18  3  1  0  0  0  0
 18 11  2  0  0  0  0
 20 21  1  0  0  0  0
 21  6  1  0  0  0  0
 22 20  2  0  0  0  0
 23 21  2  0  0  0  0
 24 23  1  0  0  0  0
 25 22  1  0  0  0  0
 25 24  2  0  0  0  0
 26 22  1  0  0  0  0
 28 27  1  0  0  0  0
 28 29  1  0  0  0  0
 29 30  1  0  0  0  0
 30 32  1  0  0  0  0
 32 31  2  0  0  0  0
 32 34  1  0  0  0  0
 34 33  1  0  0  0  0
M  END
>  <MODEL>
6

>  <REMARK>
 VINA RESULT:      -6.8      1.666      2.032
  Name = 
  7 active torsions:
  status: ('A' for Active; 'I' for Inactive)
    1  A    between atoms: O_1  and  C_18
    2  A    between atoms: O_1  and  C_29
    3  A    between atoms: C_2  and  C_15
    4  A    between atoms: C_2  and  C_33
    5  A    between atoms: C_9  and  C_13
    6  A    between atoms: C_18  and  O_30
    7  A    between atoms: C_29  and  C_33
                            x       y       z     vdW  Elec       q    Type
                         _______ _______ _______ _____ _____    ______ ____

>  <TORSDO>
F 7

$$$$
=
 OpenBabel11042416073D

 34 37  0  0  1  0  0  0  0  0999 V2000
  188.2850  175.8790  142.6400 C   0  0  1  0  0  3  0  0  0  0  0  0
  191.8030  172.5570  141.7390 C   0  0  0  0  0  1  0  0  0  0  0  0
  193.4640  174.3420  143.4280 C   0  0  2  0  0  3  0  0  0  0  0  0
  193.4440  175.9200  145.4630 C   0  0  0  0  0  0  0  0  0  0  0  0
  189.8500  175.4660  144.3600 C   0  0  1  0  0  3  0  0  0  0  0  0
  188.6310  177.1600  143.4110 C   0  0  2  0  0  0  0  0  0  0  0  0
  191.1410  173.6400  142.5350 C   0  0  0  0  0  0  0  0  0  0  0  0
  193.9640  174.9810  142.2230 N   0  0  0  0  0  1  0  0  0  0  0  0
  189.8320  173.9060  142.3700 C   0  0  0  0  0  0  0  0  0  0  0  0
  194.1680  176.6910  146.5120 C   0  0  0  0  0  1  0  0  0  0  0  0
  195.3410  174.6220  144.8790 O   0  0  0  0  0  0  0  0  0  0  0  0
  192.1370  176.1090  145.3030 C   0  0  0  0  0  3  0  0  0  0  0  0
  191.9530  174.4600  143.4780 C   0  0  0  0  0  0  0  0  0  0  0  0
  189.4670  178.0400  142.4930 C   0  0  0  0  0  1  0  0  0  0  0  0
  189.2270  174.9340  143.1640 N   0  0  0  0  0  0  0  0  0  0  0  0
  191.3520  175.3520  144.3050 C   0  0  0  0  0  0  0  0  0  0  0  0
  186.8720  175.3480  142.8720 C   0  0  0  0  0  1  0  0  0  0  0  0
  194.1480  174.9370  144.6250 C   0  0  0  0  0  0  0  0  0  0  0  0
  189.4400  176.8100  144.5230 O   0  0  0  0  0  0  0  0  0  0  0  0
  187.0020  177.9220  145.2020 C   0  0  0  0  0  3  0  0  0  0  0  0
  187.4170  177.9480  143.8620 C   0  0  0  0  0  0  0  0  0  0  0  0
  185.8600  178.6270  145.5820 C   0  0  0  0  0  0  0  0  0  0  0  0
  186.6830  178.6480  142.9490 N   0  0  0  0  0  0  0  0  0  0  0  0
  185.5660  179.3410  143.3020 C   0  0  0  0  0  3  0  0  0  0  0  0
  185.1350  179.3430  144.6300 C   0  0  0  0  0  3  0  0  0  0  0  0
  185.3340  178.6080  147.2510 Cl  0  0  0  0  0  0  0  0  0  0  0  0
  188.9980  173.1530  141.3790 C   0  0  0  0  0  2  0  0  0  0  0  0
  189.1010  173.8090  140.0150 C   0  0  0  0  0  2  0  0  0  0  0  0
  188.1920  173.1030  139.0230 C   0  0  0  0  0  2  0  0  0  0  0  0
  188.9390  172.6070  137.9170 O   0  0  0  0  0  0  0  0  0  0  0  0
  191.1570  172.0870  137.6660 O   0  0  0  0  0  0  0  0  0  0  0  0
  190.0180  171.7380  138.0790 C   0  0  0  0  0  0  0  0  0  0  0  0
  190.9140  169.7880  139.2870 C   0  0  0  0  0  1  0  0  0  0  0  0
  189.8370  170.4940  138.6910 O   0  0  0  0  0  0  0  0  0  0  0  0
  1 17  1  1  0  0  0
  1 15  1  0  0  0  0
  1  6  1  0  0  0  0
  2  7  1  0  0  0  0
  3  8  1  6  0  0  0
  3 13  1  0  0  0  0
  3 18  1  0  0  0  0
  4 10  1  0  0  0  0
  5 16  1  6  0  0  0
  5 19  1  0  0  0  0
  6 14  1  6  0  0  0
  6 21  1  0  0  0  0
  6 19  1  0  0  0  0
  7 13  1  0  0  0  0
  9  7  2  0  0  0  0
  9 15  1  0  0  0  0
 12  4  2  0  0  0  0
 13 16  2  0  0  0  0
 15  5  1  0  0  0  0
 16 12  1  0  0  0  0
 18 11  2  0  0  0  0
 18  4  1  0  0  0  0
 20 22  1  0  0  0  0
 21 20  2  0  0  0  0
 22 26  1  0  0  0  0
 23 24  2  0  0  0  0
 23 21  1  0  0  0  0
 24 25  1  0  0  0  0
 25 22  2  0  0  0  0
 27  9  1  0  0  0  0
 28 27  1  0  0  0  0
 29 28  1  0  0  0  0
 30 32  1  0  0  0  0
 30 29  1  0  0  0  0
 31 32  2  0  0  0  0
 32 34  1  0  0  0  0
 34 33  1  0  0  0  0
M  END
>  <MODEL>
7

>  <REMARK>
 VINA RESULT:      -6.7      3.399      7.219
  Name = 
  7 active torsions:
  status: ('A' for Active; 'I' for Inactive)
    1  A    between atoms: O_1  and  C_18
    2  A    between atoms: O_1  and  C_29
    3  A    between atoms: C_2  and  C_15
    4  A    between atoms: C_2  and  C_33
    5  A    between atoms: C_9  and  C_13
    6  A    between atoms: C_18  and  O_30
    7  A    between atoms: C_29  and  C_33
                            x       y       z     vdW  Elec       q    Type
                         _______ _______ _______ _____ _____    ______ ____

>  <TORSDO>
F 7

$$$$
=
 OpenBabel11042416073D

 34 37  0  0  1  0  0  0  0  0999 V2000
  190.4590  175.5780  143.8950 C   0  0  1  0  0  3  0  0  0  0  0  0
  185.8670  176.8930  142.7110 C   0  0  0  0  0  1  0  0  0  0  0  0
  185.7080  177.6850  145.5650 C   0  0  2  0  0  3  0  0  0  0  0  0
  187.0310  178.6570  147.5490 C   0  0  0  0  0  0  0  0  0  0  0  0
  189.5580  177.4640  144.9920 C   0  0  1  0  0  3  0  0  0  0  0  0
  190.9170  175.6560  145.3580 C   0  0  2  0  0  0  0  0  0  0  0  0
  187.1230  176.9600  143.5260 C   0  0  0  0  0  0  0  0  0  0  0  0
  185.1040  176.3980  145.8660 N   0  0  0  0  0  1  0  0  0  0  0  0
  188.2890  176.5170  143.0200 C   0  0  0  0  0  0  0  0  0  0  0  0
  187.0680  179.2750  148.9030 C   0  0  0  0  0  1  0  0  0  0  0  0
  184.7080  179.0400  147.2600 O   0  0  0  0  0  0  0  0  0  0  0  0
  188.1680  178.2560  146.9860 C   0  0  0  0  0  3  0  0  0  0  0  0
  187.0660  177.4730  144.9230 C   0  0  0  0  0  0  0  0  0  0  0  0
  190.2170  174.5410  146.1220 C   0  0  0  0  0  1  0  0  0  0  0  0
  189.4740  176.6150  143.8200 N   0  0  0  0  0  0  0  0  0  0  0  0
  188.2070  177.6680  145.6310 C   0  0  0  0  0  0  0  0  0  0  0  0
  191.5490  175.8540  142.8620 C   0  0  0  0  0  1  0  0  0  0  0  0
  185.7630  178.5110  146.8170 C   0  0  0  0  0  0  0  0  0  0  0  0
  190.4770  176.8900  145.9010 O   0  0  0  0  0  0  0  0  0  0  0  0
  193.0090  174.2270  145.5150 C   0  0  0  0  0  3  0  0  0  0  0  0
  192.4140  175.4980  145.5390 C   0  0  0  0  0  0  0  0  0  0  0  0
  194.3830  174.1080  145.7220 C   0  0  0  0  0  0  0  0  0  0  0  0
  193.1890  176.5930  145.7850 N   0  0  0  0  0  0  0  0  0  0  0  0
  194.5310  176.4950  145.9890 C   0  0  0  0  0  3  0  0  0  0  0  0
  195.1540  175.2450  145.9600 C   0  0  0  0  0  3  0  0  0  0  0  0
  195.1390  172.5290  145.6880 Cl  0  0  0  0  0  0  0  0  0  0  0  0
  188.3740  175.9260  141.6460 C   0  0  0  0  0  2  0  0  0  0  0  0
  188.1970  174.4210  141.7210 C   0  0  0  0  0  2  0  0  0  0  0  0
  188.7540  173.7650  140.4680 C   0  0  0  0  0  2  0  0  0  0  0  0
  190.1180  173.4010  140.6520 O   0  0  0  0  0  0  0  0  0  0  0  0
  190.1820  171.1420  141.0320 O   0  0  0  0  0  0  0  0  0  0  0  0
  190.4960  172.3000  141.4210 C   0  0  0  0  0  0  0  0  0  0  0  0
  191.0480  171.6140  143.7200 C   0  0  0  0  0  1  0  0  0  0  0  0
  191.2120  172.4790  142.6080 O   0  0  0  0  0  0  0  0  0  0  0  0
  1 17  1  6  0  0  0
  1  6  1  0  0  0  0
  2  7  1  0  0  0  0
  3  8  1  1  0  0  0
  3 18  1  0  0  0  0
  4 10  1  0  0  0  0
  5 16  1  1  0  0  0
  5 19  1  0  0  0  0
  6 21  1  0  0  0  0
  6 19  1  0  0  0  0
  6 14  1  1  0  0  0
  7 13  1  0  0  0  0
  9  7  2  0  0  0  0
  9 15  1  0  0  0  0
 12  4  2  0  0  0  0
 13  3  1  0  0  0  0
 13 16  2  0  0  0  0
 15  1  1  0  0  0  0
 15  5  1  0  0  0  0
 16 12  1  0  0  0  0
 18 11  2  0  0  0  0
 18  4  1  0  0  0  0
 20 21  2  0  0  0  0
 20 22  1  0  0  0  0
 21 23  1  0  0  0  0
 22 25  2  0  0  0  0
 23 24  2  0  0  0  0
 25 24  1  0  0  0  0
 26 22  1  0  0  0  0
 27 28  1  0  0  0  0
 27  9  1  0  0  0  0
 29 30  1  0  0  0  0
 29 28  1  0  0  0  0
 30 32  1  0  0  0  0
 31 32  2  0  0  0  0
 32 34  1  0  0  0  0
 34 33  1  0  0  0  0
M  END
>  <MODEL>
8

>  <REMARK>
 VINA RESULT:      -6.6      2.760      6.391
  Name = 
  7 active torsions:
  status: ('A' for Active; 'I' for Inactive)
    1  A    between atoms: O_1  and  C_18
    2  A    between atoms: O_1  and  C_29
    3  A    between atoms: C_2  and  C_15
    4  A    between atoms: C_2  and  C_33
    5  A    between atoms: C_9  and  C_13
    6  A    between atoms: C_18  and  O_30
    7  A    between atoms: C_29  and  C_33
                            x       y       z     vdW  Elec       q    Type
                         _______ _______ _______ _____ _____    ______ ____

>  <TORSDO>
F 7

$$$$
=
 OpenBabel11042416073D

 34 37  0  0  1  0  0  0  0  0999 V2000
  190.2550  176.4770  144.5830 C   0  0  1  0  0  3  0  0  0  0  0  0
  193.9530  174.5400  141.9770 C   0  0  0  0  0  1  0  0  0  0  0  0
  191.7850  172.9960  140.6660 C   0  0  2  0  0  3  0  0  0  0  0  0
  189.3370  173.0760  139.8740 C   0  0  0  0  0  0  0  0  0  0  0  0
  189.8150  175.9180  142.3320 C   0  0  1  0  0  3  0  0  0  0  0  0
  188.8320  175.9310  144.4020 C   0  0  2  0  0  0  0  0  0  0  0  0
  192.5260  174.9360  142.2080 C   0  0  0  0  0  0  0  0  0  0  0  0
  192.0480  171.8950  141.5790 N   0  0  0  0  0  1  0  0  0  0  0  0
  192.2170  175.8770  143.1180 C   0  0  0  0  0  0  0  0  0  0  0  0
  188.2160  172.5150  139.0690 C   0  0  0  0  0  1  0  0  0  0  0  0
  190.9930  171.7970  138.7570 O   0  0  0  0  0  0  0  0  0  0  0  0
  189.0870  174.0490  140.7460 C   0  0  0  0  0  3  0  0  0  0  0  0
  191.4410  174.2430  141.4580 C   0  0  0  0  0  0  0  0  0  0  0  0
  188.7830  174.5490  145.0370 C   0  0  0  0  0  1  0  0  0  0  0  0
  190.8450  176.2460  143.2980 N   0  0  0  0  0  0  0  0  0  0  0  0
  190.1580  174.6750  141.5500 C   0  0  0  0  0  0  0  0  0  0  0  0
  190.3380  177.9680  144.9040 C   0  0  0  0  0  1  0  0  0  0  0  0
  190.7140  172.5910  139.6960 C   0  0  0  0  0  0  0  0  0  0  0  0
  188.5840  175.7750  143.0140 O   0  0  0  0  0  0  0  0  0  0  0  0
  187.1490  177.8300  144.3200 C   0  0  0  0  0  3  0  0  0  0  0  0
  187.7610  176.7930  145.0410 C   0  0  0  0  0  0  0  0  0  0  0  0
  186.1940  178.6310  144.9440 C   0  0  0  0  0  0  0  0  0  0  0  0
  187.4240  176.6010  146.3490 N   0  0  0  0  0  0  0  0  0  0  0  0
  186.4940  177.3740  146.9740 C   0  0  0  0  0  3  0  0  0  0  0  0
  185.8590  178.4050  146.2780 C   0  0  0  0  0  3  0  0  0  0  0  0
  185.4180  179.9230  144.0530 Cl  0  0  0  0  0  0  0  0  0  0  0  0
  193.2740  176.5450  143.9440 C   0  0  0  0  0  2  0  0  0  0  0  0
  193.5710  175.7090  145.1750 C   0  0  0  0  0  2  0  0  0  0  0  0
  193.4100  176.5490  146.4320 C   0  0  0  0  0  2  0  0  0  0  0  0
  192.7550  175.8070  147.4550 O   0  0  0  0  0  0  0  0  0  0  0  0
  190.5890  175.2070  147.8990 O   0  0  0  0  0  0  0  0  0  0  0  0
  191.4640  176.1140  147.8850 C   0  0  0  0  0  0  0  0  0  0  0  0
  191.5280  177.9130  149.5650 C   0  0  0  0  0  1  0  0  0  0  0  0
  191.1450  177.4120  148.2940 O   0  0  0  0  0  0  0  0  0  0  0  0
  1 17  1  6  0  0  0
  2  7  1  0  0  0  0
  3 13  1  0  0  0  0
  3  8  1  1  0  0  0
  4 12  2  0  0  0  0
  5 16  1  1  0  0  0
  5 19  1  0  0  0  0
  5 15  1  0  0  0  0
  6  1  1  0  0  0  0
  6 14  1  1  0  0  0
  6 21  1  0  0  0  0
  7  9  2  0  0  0  0
  9 15  1  0  0  0  0
  9 27  1  0  0  0  0
 10  4  1  0  0  0  0
 11 18  2  0  0  0  0
 12 16  1  0  0  0  0
 13 16  2  0  0  0  0
 13  7  1  0  0  0  0
 15  1  1  0  0  0  0
 18  4  1  0  0  0  0
 18  3  1  0  0  0  0
 19  6  1  0  0  0  0
 20 22  2  0  0  0  0
 20 21  1  0  0  0  0
 21 23  2  0  0  0  0
 22 25  1  0  0  0  0
 23 24  1  0  0  0  0
 25 24  2  0  0  0  0
 26 22  1  0  0  0  0
 27 28  1  0  0  0  0
 28 29  1  0  0  0  0
 29 30  1  0  0  0  0
 30 32  1  0  0  0  0
 32 31  2  0  0  0  0
 32 34  1  0  0  0  0
 34 33  1  0  0  0  0
M  END
>  <MODEL>
9

>  <REMARK>
 VINA RESULT:      -6.5      3.178      7.546
  Name = 
  7 active torsions:
  status: ('A' for Active; 'I' for Inactive)
    1  A    between atoms: O_1  and  C_18
    2  A    between atoms: O_1  and  C_29
    3  A    between atoms: C_2  and  C_15
    4  A    between atoms: C_2  and  C_33
    5  A    between atoms: C_9  and  C_13
    6  A    between atoms: C_18  and  O_30
    7  A    between atoms: C_29  and  C_33
                            x       y       z     vdW  Elec       q    Type
                         _______ _______ _______ _____ _____    ______ ____

>  <TORSDO>
F 7

$$$$
