=
 OpenBabel11042418083D

 40 42  0  0  1  0  0  0  0  0999 V2000
  196.1150  174.4340  144.2570 C   0  0  0  0  0  0  0  0  0  0  0  0
  197.2550  175.0820  143.5470 C   0  0  2  0  0  3  0  0  0  0  0  0
  195.3400  175.5950  144.2670 C   0  0  0  0  0  0  0  0  0  0  0  0
  196.6240  176.6610  143.5550 S   0  0  0  0  0  0  0  0  0  0  0  0
  191.4380  176.5260  145.7390 C   0  0  0  0  0  0  0  0  0  0  0  0
  192.4910  176.2430  146.6170 C   0  0  0  0  0  3  0  0  0  0  0  0
  193.1400  176.2920  142.3730 C   0  0  0  0  0  1  0  0  0  0  0  0
  193.9850  175.9080  144.7370 C   0  0  0  0  0  0  0  0  0  0  0  0
  191.6680  176.5240  144.3610 C   0  0  0  0  0  3  0  0  0  0  0  0
  192.9320  176.2160  143.8500 C   0  0  0  0  0  0  0  0  0  0  0  0
  193.7580  175.9430  146.1170 C   0  0  0  0  0  3  0  0  0  0  0  0
  190.1340  176.8300  146.2330 N   0  0  0  0  0  0  0  0  0  0  0  0
  185.4290  178.4000  145.5370 C   0  0  1  0  0  3  0  0  0  0  0  0
  189.1510  177.3820  145.3990 N   0  0  0  0  0  0  0  0  0  0  0  0
  184.3540  178.7910  144.5400 C   0  0  0  0  0  1  0  0  0  0  0  0
  185.0100  177.1910  146.3550 C   0  0  0  0  0  2  0  0  0  0  0  0
  187.4040  176.9280  146.9250 N   0  0  0  0  0  0  0  0  0  0  0  0
  186.8060  178.1650  144.8840 C   0  0  1  0  0  3  0  0  0  0  0  0
  186.0400  177.0040  147.4630 C   0  0  0  0  0  2  0  0  0  0  0  0
  187.7890  177.4890  145.8130 C   0  0  0  0  0  0  0  0  0  0  0  0
  187.2760  178.2430  142.6320 O   0  0  0  0  0  1  0  0  0  0  0  0
  186.7200  177.4650  143.5970 N   0  0  0  0  0  2  0  0  0  0  0  0
  197.1360  172.2860  145.7570 Cl  0  0  0  0  0  0  0  0  0  0  0  0
  193.2210  170.7000  144.6850 C   0  0  0  0  0  1  0  0  0  0  0  0
  193.9560  171.6470  143.7970 C   0  0  0  0  0  0  0  0  0  0  0  0
  194.9380  172.3470  144.2920 C   0  0  0  0  0  0  0  0  0  0  0  0
  195.9240  173.0620  144.7540 C   0  0  0  0  0  0  0  0  0  0  0  0
  194.0500  173.0800  141.8830 O   0  0  0  0  0  1  0  0  0  0  0  0
  193.5560  171.8650  142.3670 C   0  0  2  0  0  3  0  0  0  0  0  0
  192.0340  171.8420  142.2420 C   0  0  0  0  0  2  0  0  0  0  0  0
  190.5070  172.9650  143.8920 C   0  0  0  0  0  1  0  0  0  0  0  0
  191.3840  173.1600  142.6670 C   0  0  2  0  0  3  0  0  0  0  0  0
  190.6380  173.7210  141.6220 O   0  0  0  0  0  0  0  0  0  0  0  0
  189.7930  172.6950  141.1890 C   0  0  0  0  0  2  0  0  0  0  0  0
  188.4560  174.7640  140.9690 C   0  0  0  0  0  1  0  0  0  0  0  0
  188.4060  173.2510  140.9270 C   0  0  2  0  0  3  0  0  0  0  0  0
  187.5210  172.7920  141.9030 O   0  0  0  0  0  1  0  0  0  0  0  0
  197.3910  174.5740  142.1400 C   0  0  0  0  0  0  0  0  0  0  0  0
  197.5430  173.3400  141.9380 O   0  0  0  0  0  1  0  0  0  0  0  0
  197.3620  175.4490  141.0600 O   0  0  0  0  0  0  0  0  0  0  0  0
  1  3  2  0  0  0  0
  1 27  1  0  0  0  0
  2 38  1  6  0  0  0
  2  4  1  0  0  0  0
  2  1  1  0  0  0  0
  3  8  1  0  0  0  0
  4  3  1  0  0  0  0
  5 12  1  0  0  0  0
  5  6  1  0  0  0  0
  7 10  1  0  0  0  0
  8 11  1  0  0  0  0
  9  5  2  0  0  0  0
 10  9  1  0  0  0  0
 10  8  2  0  0  0  0
 11  6  2  0  0  0  0
 13 15  1  6  0  0  0
 13 16  1  0  0  0  0
 14 20  1  0  0  0  0
 14 12  2  0  0  0  0
 16 19  1  0  0  0  0
 17 19  1  0  0  0  0
 18 22  1  6  0  0  0
 18 13  1  0  0  0  0
 18 20  1  0  0  0  0
 20 17  2  0  0  0  0
 21 22  1  0  0  0  0
 25 26  2  0  0  0  0
 25 24  1  0  0  0  0
 26 27  2  0  0  0  0
 27 23  1  0  0  0  0
 29 28  1  1  0  0  0
 29 25  1  0  0  0  0
 30 29  1  0  0  0  0
 30 32  1  0  0  0  0
 32 31  1  1  0  0  0
 33 32  1  0  0  0  0
 34 33  1  0  0  0  0
 36 35  1  1  0  0  0
 36 34  1  0  0  0  0
 36 37  1  0  0  0  0
 39 38  1  0  0  0  0
 40 38  2  0  0  0  0
M  END
>  <MODEL>
1

>  <REMARK>
 VINA RESULT:      -6.6      0.000      0.000
  Name = 
  12 active torsions:
  status: ('A' for Active; 'I' for Inactive)
    1  A    between atoms: C_2  and  C_29
    2  A    between atoms: C_5  and  N_22
    3  A    between atoms: N_8  and  N_22
    4  A    between atoms: C_9  and  C_34
    5  A    between atoms: C_9  and  C_35
    6  A    between atoms: C_15  and  C_30
    7  A    between atoms: C_16  and  C_32
    8  A    between atoms: O_18  and  C_34
    9  A    between atoms: O_18  and  C_37
   10  A    between atoms: C_21  and  C_37
   11  A    between atoms: C_23  and  N_39
   12  A    between atoms: C_24  and  C_35
                            x       y       z     vdW  Elec       q    Type
                         _______ _______ _______ _____ _____    ______ ____

>  <TORSDO>
F 12

$$$$
=
 OpenBabel11042418083D

 40 42  0  0  1  0  0  0  0  0999 V2000
  194.1760  171.8870  142.9240 C   0  0  0  0  0  0  0  0  0  0  0  0
  194.3890  170.4960  143.4170 C   0  0  2  0  0  3  0  0  0  0  0  0
  192.7990  171.8560  143.1490 C   0  0  0  0  0  0  0  0  0  0  0  0
  192.7480  170.1100  143.6400 S   0  0  0  0  0  0  0  0  0  0  0  0
  189.6780  174.7550  142.8090 C   0  0  0  0  0  0  0  0  0  0  0  0
  190.1500  174.3480  144.0630 C   0  0  0  0  0  3  0  0  0  0  0  0
  191.8820  172.7780  140.4610 C   0  0  0  0  0  1  0  0  0  0  0  0
  191.7220  172.8410  142.9950 C   0  0  0  0  0  0  0  0  0  0  0  0
  190.2470  174.2230  141.6500 C   0  0  0  0  0  3  0  0  0  0  0  0
  191.2650  173.2670  141.7300 C   0  0  0  0  0  0  0  0  0  0  0  0
  191.1710  173.4010  144.1520 C   0  0  0  0  0  3  0  0  0  0  0  0
  188.6310  175.7190  142.6980 N   0  0  0  0  0  0  0  0  0  0  0  0
  184.7900  178.2810  144.6370 C   0  0  1  0  0  3  0  0  0  0  0  0
  187.7990  176.0170  143.7870 N   0  0  0  0  0  0  0  0  0  0  0  0
  184.0640  178.7270  145.8930 C   0  0  0  0  0  1  0  0  0  0  0  0
  185.3160  179.4700  143.8530 C   0  0  0  0  0  2  0  0  0  0  0  0
  186.8050  177.8660  142.6990 N   0  0  0  0  0  0  0  0  0  0  0  0
  185.9190  177.2700  144.9160 C   0  0  1  0  0  3  0  0  0  0  0  0
  185.8320  178.9490  142.5160 C   0  0  0  0  0  2  0  0  0  0  0  0
  186.8280  177.0620  143.7250 C   0  0  0  0  0  0  0  0  0  0  0  0
  186.5930  176.5440  146.9940 O   0  0  0  0  0  1  0  0  0  0  0  0
  186.6880  177.5850  146.1260 N   0  0  0  0  0  2  0  0  0  0  0  0
  196.7850  172.4840  142.0600 Cl  0  0  0  0  0  0  0  0  0  0  0  0
  194.7940  176.2650  141.2060 C   0  0  0  0  0  1  0  0  0  0  0  0
  194.3660  175.3880  142.3340 C   0  0  0  0  0  0  0  0  0  0  0  0
  194.7480  174.1420  142.3480 C   0  0  0  0  0  0  0  0  0  0  0  0
  195.1120  172.8920  142.3920 C   0  0  0  0  0  0  0  0  0  0  0  0
  192.5470  176.8260  142.9280 O   0  0  0  0  0  1  0  0  0  0  0  0
  193.4540  175.8810  143.4190 C   0  0  2  0  0  3  0  0  0  0  0  0
  194.2730  176.4940  144.5510 C   0  0  0  0  0  2  0  0  0  0  0  0
  193.8200  174.5640  146.0950 C   0  0  0  0  0  1  0  0  0  0  0  0
  193.7790  176.0740  145.9370 C   0  0  2  0  0  3  0  0  0  0  0  0
  192.4860  176.5520  146.1840 O   0  0  0  0  0  0  0  0  0  0  0  0
  191.9280  175.6370  147.0810 C   0  0  0  0  0  2  0  0  0  0  0  0
  189.6150  174.8500  147.4690 C   0  0  0  0  0  1  0  0  0  0  0  0
  190.5170  176.0660  147.4390 C   0  0  2  0  0  3  0  0  0  0  0  0
  190.0430  176.9690  146.4860 O   0  0  0  0  0  1  0  0  0  0  0  0
  195.1200  170.4810  144.7290 C   0  0  0  0  0  0  0  0  0  0  0  0
  194.5130  170.8190  145.7810 O   0  0  0  0  0  1  0  0  0  0  0  0
  196.4580  170.1100  144.7960 O   0  0  0  0  0  0  0  0  0  0  0  0
  1  3  2  0  0  0  0
  1  2  1  0  0  0  0
  2  4  1  0  0  0  0
  2 38  1  1  0  0  0
  3  4  1  0  0  0  0
  5  6  1  0  0  0  0
  6 11  2  0  0  0  0
  7 10  1  0  0  0  0
  8  3  1  0  0  0  0
  8 11  1  0  0  0  0
  9 10  1  0  0  0  0
  9  5  2  0  0  0  0
 10  8  2  0  0  0  0
 12  5  1  0  0  0  0
 12 14  2  0  0  0  0
 13 18  1  0  0  0  0
 13 15  1  1  0  0  0
 16 13  1  0  0  0  0
 17 20  2  0  0  0  0
 18 22  1  1  0  0  0
 19 17  1  0  0  0  0
 19 16  1  0  0  0  0
 20 14  1  0  0  0  0
 20 18  1  0  0  0  0
 22 21  1  0  0  0  0
 23 27  1  0  0  0  0
 24 25  1  0  0  0  0
 25 26  2  0  0  0  0
 25 29  1  0  0  0  0
 26 27  2  0  0  0  0
 27  1  1  0  0  0  0
 29 28  1  6  0  0  0
 29 30  1  0  0  0  0
 30 32  1  0  0  0  0
 32 31  1  6  0  0  0
 32 33  1  0  0  0  0
 33 34  1  0  0  0  0
 34 36  1  0  0  0  0
 36 35  1  6  0  0  0
 37 36  1  0  0  0  0
 38 40  2  0  0  0  0
 38 39  1  0  0  0  0
M  END
>  <MODEL>
2

>  <REMARK>
 VINA RESULT:      -6.5      2.808      4.687
  Name = 
  12 active torsions:
  status: ('A' for Active; 'I' for Inactive)
    1  A    between atoms: C_2  and  C_29
    2  A    between atoms: C_5  and  N_22
    3  A    between atoms: N_8  and  N_22
    4  A    between atoms: C_9  and  C_34
    5  A    between atoms: C_9  and  C_35
    6  A    between atoms: C_15  and  C_30
    7  A    between atoms: C_16  and  C_32
    8  A    between atoms: O_18  and  C_34
    9  A    between atoms: O_18  and  C_37
   10  A    between atoms: C_21  and  C_37
   11  A    between atoms: C_23  and  N_39
   12  A    between atoms: C_24  and  C_35
                            x       y       z     vdW  Elec       q    Type
                         _______ _______ _______ _____ _____    ______ ____

>  <TORSDO>
F 12

$$$$
=
 OpenBabel11042418083D

 40 42  0  0  1  0  0  0  0  0999 V2000
  195.9930  174.5050  143.2160 C   0  0  0  0  0  0  0  0  0  0  0  0
  197.1710  175.1960  142.6180 C   0  0  2  0  0  3  0  0  0  0  0  0
  195.3470  175.6960  143.5500 C   0  0  0  0  0  0  0  0  0  0  0  0
  196.7130  176.7770  143.0430 S   0  0  0  0  0  0  0  0  0  0  0  0
  191.5210  176.6110  145.2210 C   0  0  0  0  0  0  0  0  0  0  0  0
  191.7550  176.7320  143.8460 C   0  0  0  0  0  3  0  0  0  0  0  0
  194.8500  175.3330  146.4720 C   0  0  0  0  0  1  0  0  0  0  0  0
  194.0490  176.0120  144.1590 C   0  0  0  0  0  0  0  0  0  0  0  0
  192.5460  176.1660  146.0590 C   0  0  0  0  0  3  0  0  0  0  0  0
  193.8100  175.8660  145.5420 C   0  0  0  0  0  0  0  0  0  0  0  0
  193.0110  176.4270  143.3200 C   0  0  0  0  0  3  0  0  0  0  0  0
  190.2450  176.9230  145.7770 N   0  0  0  0  0  0  0  0  0  0  0  0
  185.5080  178.4750  145.2860 C   0  0  1  0  0  3  0  0  0  0  0  0
  189.2340  177.5040  144.9980 N   0  0  0  0  0  0  0  0  0  0  0  0
  184.4030  178.9020  144.3380 C   0  0  0  0  0  1  0  0  0  0  0  0
  185.1240  177.2240  146.0550 C   0  0  0  0  0  2  0  0  0  0  0  0
  187.5340  176.9590  146.5470 N   0  0  0  0  0  0  0  0  0  0  0  0
  186.8680  178.2870  144.5850 C   0  0  1  0  0  3  0  0  0  0  0  0
  186.1850  176.9950  147.1240 C   0  0  0  0  0  2  0  0  0  0  0  0
  187.8830  177.5770  145.4540 C   0  0  0  0  0  0  0  0  0  0  0  0
  187.2460  178.4920  142.3230 O   0  0  0  0  0  1  0  0  0  0  0  0
  186.7540  177.6490  143.2680 N   0  0  0  0  0  2  0  0  0  0  0  0
  196.9330  171.8580  143.3380 Cl  0  0  0  0  0  0  0  0  0  0  0  0
  192.7060  171.2280  144.1930 C   0  0  0  0  0  1  0  0  0  0  0  0
  193.1740  172.3410  143.3180 C   0  0  0  0  0  0  0  0  0  0  0  0
  194.4270  172.6970  143.3600 C   0  0  0  0  0  0  0  0  0  0  0  0
  195.6730  173.0770  143.3780 C   0  0  0  0  0  0  0  0  0  0  0  0
  191.0020  173.3160  143.0730 O   0  0  0  0  0  1  0  0  0  0  0  0
  192.2300  173.1070  142.4380 C   0  0  2  0  0  3  0  0  0  0  0  0
  192.0110  172.3540  141.1280 C   0  0  0  0  0  2  0  0  0  0  0  0
  193.3530  174.3070  140.2900 C   0  0  0  0  0  1  0  0  0  0  0  0
  192.4310  173.1640  139.9000 C   0  0  2  0  0  3  0  0  0  0  0  0
  191.3160  173.6560  139.2080 O   0  0  0  0  0  0  0  0  0  0  0  0
  190.2790  172.7730  139.5190 C   0  0  0  0  0  2  0  0  0  0  0  0
  188.6820  174.3280  140.5900 C   0  0  0  0  0  1  0  0  0  0  0  0
  188.9430  173.4770  139.3660 C   0  0  2  0  0  3  0  0  0  0  0  0
  187.9250  172.5320  139.2340 O   0  0  0  0  0  1  0  0  0  0  0  0
  197.2060  175.0390  141.1250 C   0  0  0  0  0  0  0  0  0  0  0  0
  197.7190  174.0030  140.6220 O   0  0  0  0  0  1  0  0  0  0  0  0
  196.6900  176.0250  140.2910 O   0  0  0  0  0  0  0  0  0  0  0  0
  1 27  1  0  0  0  0
  1  3  2  0  0  0  0
  2 38  1  6  0  0  0
  2  4  1  0  0  0  0
  2  1  1  0  0  0  0
  3  8  1  0  0  0  0
  4  3  1  0  0  0  0
  5 12  1  0  0  0  0
  5  9  1  0  0  0  0
  6  5  2  0  0  0  0
  8 10  1  0  0  0  0
 10  9  2  0  0  0  0
 10  7  1  0  0  0  0
 11  6  1  0  0  0  0
 11  8  2  0  0  0  0
 13 15  1  6  0  0  0
 13 16  1  0  0  0  0
 14 20  1  0  0  0  0
 14 12  2  0  0  0  0
 16 19  1  0  0  0  0
 17 19  1  0  0  0  0
 18 22  1  6  0  0  0
 18 13  1  0  0  0  0
 18 20  1  0  0  0  0
 20 17  2  0  0  0  0
 21 22  1  0  0  0  0
 23 27  1  0  0  0  0
 25 26  2  0  0  0  0
 25 24  1  0  0  0  0
 26 27  2  0  0  0  0
 29 28  1  1  0  0  0
 29 25  1  0  0  0  0
 30 29  1  0  0  0  0
 32 31  1  1  0  0  0
 32 30  1  0  0  0  0
 33 34  1  0  0  0  0
 33 32  1  0  0  0  0
 36 34  1  0  0  0  0
 36 35  1  1  0  0  0
 37 36  1  0  0  0  0
 39 38  1  0  0  0  0
 40 38  2  0  0  0  0
M  END
>  <MODEL>
3

>  <REMARK>
 VINA RESULT:      -6.5      1.266      1.827
  Name = 
  12 active torsions:
  status: ('A' for Active; 'I' for Inactive)
    1  A    between atoms: C_2  and  C_29
    2  A    between atoms: C_5  and  N_22
    3  A    between atoms: N_8  and  N_22
    4  A    between atoms: C_9  and  C_34
    5  A    between atoms: C_9  and  C_35
    6  A    between atoms: C_15  and  C_30
    7  A    between atoms: C_16  and  C_32
    8  A    between atoms: O_18  and  C_34
    9  A    between atoms: O_18  and  C_37
   10  A    between atoms: C_21  and  C_37
   11  A    between atoms: C_23  and  N_39
   12  A    between atoms: C_24  and  C_35
                            x       y       z     vdW  Elec       q    Type
                         _______ _______ _______ _____ _____    ______ ____

>  <TORSDO>
F 12

$$$$
=
 OpenBabel11042418083D

 40 42  0  0  1  0  0  0  0  0999 V2000
  194.2270  173.0920  145.0860 C   0  0  0  0  0  0  0  0  0  0  0  0
  195.7070  173.2740  145.1120 C   0  0  2  0  0  3  0  0  0  0  0  0
  193.9660  174.4030  145.4850 C   0  0  0  0  0  0  0  0  0  0  0  0
  195.7040  174.8480  145.7550 S   0  0  0  0  0  0  0  0  0  0  0  0
  190.3780  176.6160  146.1920 C   0  0  0  0  0  0  0  0  0  0  0  0
  190.7800  175.5970  147.0630 C   0  0  0  0  0  3  0  0  0  0  0  0
  193.1870  176.6380  143.6640 C   0  0  0  0  0  1  0  0  0  0  0  0
  192.7350  175.1760  145.6900 C   0  0  0  0  0  0  0  0  0  0  0  0
  191.1700  176.9300  145.0850 C   0  0  0  0  0  3  0  0  0  0  0  0
  192.3450  176.2190  144.8240 C   0  0  0  0  0  0  0  0  0  0  0  0
  191.9560  174.8870  146.8150 C   0  0  0  0  0  3  0  0  0  0  0  0
  189.1770  177.3490  146.4260 N   0  0  0  0  0  0  0  0  0  0  0  0
  184.6730  178.9710  144.9560 C   0  0  1  0  0  3  0  0  0  0  0  0
  188.2240  177.5270  145.4130 N   0  0  0  0  0  0  0  0  0  0  0  0
  183.5990  178.9420  143.8840 C   0  0  0  0  0  1  0  0  0  0  0  0
  184.1540  178.4190  146.2720 C   0  0  0  0  0  2  0  0  0  0  0  0
  186.5250  178.1590  146.9310 N   0  0  0  0  0  0  0  0  0  0  0  0
  185.9690  178.2510  144.5360 C   0  0  1  0  0  3  0  0  0  0  0  0
  185.2150  178.6850  147.3330 C   0  0  0  0  0  2  0  0  0  0  0  0
  186.9120  178.0160  145.6940 C   0  0  0  0  0  0  0  0  0  0  0  0
  186.3160  177.1030  142.5700 O   0  0  0  0  0  1  0  0  0  0  0  0
  185.7220  177.0120  143.7890 N   0  0  0  0  0  2  0  0  0  0  0  0
  193.9050  170.2990  145.1670 Cl  0  0  0  0  0  0  0  0  0  0  0  0
  190.0800  171.4810  143.4440 C   0  0  0  0  0  1  0  0  0  0  0  0
  191.3250  172.2660  143.2070 C   0  0  0  0  0  0  0  0  0  0  0  0
  192.3490  172.0840  143.9930 C   0  0  0  0  0  0  0  0  0  0  0  0
  193.3900  171.9260  144.7600 C   0  0  0  0  0  0  0  0  0  0  0  0
  192.7160  173.7920  141.9970 O   0  0  0  0  0  1  0  0  0  0  0  0
  191.4110  173.3080  142.1300 C   0  0  2  0  0  3  0  0  0  0  0  0
  190.4630  174.4620  142.4440 C   0  0  0  0  0  2  0  0  0  0  0  0
  188.0260  174.1020  141.9500 C   0  0  0  0  0  1  0  0  0  0  0  0
  189.3490  174.6140  141.4070 C   0  0  2  0  0  3  0  0  0  0  0  0
  189.6690  173.9550  140.2130 O   0  0  0  0  0  0  0  0  0  0  0  0
  188.4980  173.2870  139.8430 C   0  0  0  0  0  2  0  0  0  0  0  0
  189.7420  173.0460  137.7190 C   0  0  0  0  0  1  0  0  0  0  0  0
  188.3750  173.2690  138.3310 C   0  0  2  0  0  3  0  0  0  0  0  0
  187.8640  174.4890  137.8850 O   0  0  0  0  0  1  0  0  0  0  0  0
  196.2880  173.2700  143.7270 C   0  0  0  0  0  0  0  0  0  0  0  0
  196.7670  174.3340  143.2510 O   0  0  0  0  0  1  0  0  0  0  0  0
  196.2950  172.1100  142.9600 O   0  0  0  0  0  0  0  0  0  0  0  0
  1  2  1  0  0  0  0
  1  3  2  0  0  0  0
  2 38  1  6  0  0  0
  2  4  1  0  0  0  0
  3  8  1  0  0  0  0
  3  4  1  0  0  0  0
  5 12  1  0  0  0  0
  5  6  1  0  0  0  0
  7 10  1  0  0  0  0
  8 11  1  0  0  0  0
  9  5  2  0  0  0  0
 10  9  1  0  0  0  0
 10  8  2  0  0  0  0
 11  6  2  0  0  0  0
 13 15  1  6  0  0  0
 13 16  1  0  0  0  0
 14 20  1  0  0  0  0
 14 12  2  0  0  0  0
 16 19  1  0  0  0  0
 17 19  1  0  0  0  0
 18 22  1  1  0  0  0
 18 13  1  0  0  0  0
 18 20  1  0  0  0  0
 20 17  2  0  0  0  0
 21 22  1  0  0  0  0
 25 24  1  0  0  0  0
 25 26  2  0  0  0  0
 26 27  2  0  0  0  0
 27  1  1  0  0  0  0
 27 23  1  0  0  0  0
 29 28  1  1  0  0  0
 29 30  1  0  0  0  0
 29 25  1  0  0  0  0
 32 31  1  1  0  0  0
 32 30  1  0  0  0  0
 33 32  1  0  0  0  0
 34 33  1  0  0  0  0
 36 35  1  6  0  0  0
 36 34  1  0  0  0  0
 37 36  1  0  0  0  0
 39 38  1  0  0  0  0
 40 38  2  0  0  0  0
M  END
>  <MODEL>
4

>  <REMARK>
 VINA RESULT:      -6.4      1.738      2.353
  Name = 
  12 active torsions:
  status: ('A' for Active; 'I' for Inactive)
    1  A    between atoms: C_2  and  C_29
    2  A    between atoms: C_5  and  N_22
    3  A    between atoms: N_8  and  N_22
    4  A    between atoms: C_9  and  C_34
    5  A    between atoms: C_9  and  C_35
    6  A    between atoms: C_15  and  C_30
    7  A    between atoms: C_16  and  C_32
    8  A    between atoms: O_18  and  C_34
    9  A    between atoms: O_18  and  C_37
   10  A    between atoms: C_21  and  C_37
   11  A    between atoms: C_23  and  N_39
   12  A    between atoms: C_24  and  C_35
                            x       y       z     vdW  Elec       q    Type
                         _______ _______ _______ _____ _____    ______ ____

>  <TORSDO>
F 12

$$$$
=
 OpenBabel11042418083D

 40 42  0  0  1  0  0  0  0  0999 V2000
  195.1330  174.3820  143.1520 C   0  0  0  0  0  0  0  0  0  0  0  0
  196.4050  175.0850  142.8180 C   0  0  2  0  0  3  0  0  0  0  0  0
  194.6450  175.4360  143.9260 C   0  0  0  0  0  0  0  0  0  0  0  0
  196.1530  176.4390  143.8150 S   0  0  0  0  0  0  0  0  0  0  0  0
  190.9530  176.1820  145.9450 C   0  0  0  0  0  0  0  0  0  0  0  0
  191.3700  176.9920  144.8820 C   0  0  0  0  0  3  0  0  0  0  0  0
  193.7350  173.6310  146.1230 C   0  0  0  0  0  1  0  0  0  0  0  0
  193.3890  175.6690  144.6490 C   0  0  0  0  0  0  0  0  0  0  0  0
  191.7440  175.1000  146.3410 C   0  0  0  0  0  3  0  0  0  0  0  0
  192.9600  174.8360  145.7040 C   0  0  0  0  0  0  0  0  0  0  0  0
  192.5780  176.7310  144.2350 C   0  0  0  0  0  3  0  0  0  0  0  0
  189.7230  176.4360  146.6220 N   0  0  0  0  0  2  0  0  0  0  0  0
  185.4250  178.9590  146.1260 C   0  0  1  0  0  3  0  0  0  0  0  0
  188.5410  176.6890  145.9110 N   0  0  0  0  0  2  0  0  0  0  0  0
  184.0690  179.0390  145.4490 C   0  0  0  0  0  1  0  0  0  0  0  0
  185.2830  178.8160  147.6310 C   0  0  0  0  0  2  0  0  0  0  0  0
  187.6290  178.0290  147.6330 N   0  0  0  0  0  0  0  0  0  0  0  0
  186.3230  177.8430  145.5550 C   0  0  1  0  0  3  0  0  0  0  0  0
  186.6730  178.9610  148.2410 C   0  0  0  0  0  2  0  0  0  0  0  0
  187.5340  177.5650  146.4180 C   0  0  0  0  0  0  0  0  0  0  0  0
  185.5930  176.4050  143.9120 O   0  0  0  0  0  1  0  0  0  0  0  0
  185.5870  176.6090  145.2560 N   0  0  0  0  0  2  0  0  0  0  0  0
  195.7180  171.7150  142.4800 Cl  0  0  0  0  0  0  0  0  0  0  0  0
  191.3630  171.5640  142.5670 C   0  0  0  0  0  1  0  0  0  0  0  0
  192.0990  172.8020  142.1820 C   0  0  0  0  0  0  0  0  0  0  0  0
  193.3620  172.9110  142.4900 C   0  0  0  0  0  0  0  0  0  0  0  0
  194.6230  173.0510  142.7830 C   0  0  0  0  0  0  0  0  0  0  0  0
  192.3340  174.9290  141.1100 O   0  0  0  0  0  1  0  0  0  0  0  0
  191.4140  173.9550  141.5090 C   0  0  2  0  0  3  0  0  0  0  0  0
  190.3860  174.5740  142.4530 C   0  0  0  0  0  2  0  0  0  0  0  0
  188.8740  173.9380  140.5480 C   0  0  0  0  0  1  0  0  0  0  0  0
  188.9440  174.3010  142.0220 C   0  0  2  0  0  3  0  0  0  0  0  0
  188.1150  175.3980  142.2900 O   0  0  0  0  0  0  0  0  0  0  0  0
  187.8980  176.0000  141.0470 C   0  0  0  0  0  2  0  0  0  0  0  0
  188.4930  177.9030  142.5100 C   0  0  0  0  0  1  0  0  0  0  0  0
  187.8160  177.5060  141.2150 C   0  0  2  0  0  3  0  0  0  0  0  0
  186.4800  177.9040  141.2520 O   0  0  0  0  0  1  0  0  0  0  0  0
  196.4490  175.4920  141.3730 C   0  0  0  0  0  0  0  0  0  0  0  0
  196.7970  174.6510  140.5020 O   0  0  0  0  0  0  0  0  0  0  0  0
  196.1200  176.7860  140.9870 O   0  0  0  0  0  1  0  0  0  0  0  0
  1  3  2  0  0  0  0
  2 38  1  6  0  0  0
  2  1  1  0  0  0  0
  2  4  1  0  0  0  0
  3  8  1  0  0  0  0
  4  3  1  0  0  0  0
  5  9  1  0  0  0  0
  5 12  1  0  0  0  0
  6  5  2  0  0  0  0
  8 10  1  0  0  0  0
 10  7  1  0  0  0  0
 10  9  2  0  0  0  0
 11  8  2  0  0  0  0
 11  6  1  0  0  0  0
 13 15  1  6  0  0  0
 13 16  1  0  0  0  0
 14 20  1  0  0  0  0
 14 12  1  0  0  0  0
 16 19  1  0  0  0  0
 17 19  1  0  0  0  0
 18 22  1  1  0  0  0
 18 13  1  0  0  0  0
 18 20  1  0  0  0  0
 20 17  2  0  0  0  0
 21 22  1  0  0  0  0
 23 27  1  0  0  0  0
 25 26  2  0  0  0  0
 25 24  1  0  0  0  0
 26 27  2  0  0  0  0
 27  1  1  0  0  0  0
 29 28  1  1  0  0  0
 29 25  1  0  0  0  0
 29 30  1  0  0  0  0
 32 31  1  6  0  0  0
 32 33  1  0  0  0  0
 32 30  1  0  0  0  0
 34 36  1  0  0  0  0
 34 33  1  0  0  0  0
 36 37  1  0  0  0  0
 36 35  1  1  0  0  0
 39 38  2  0  0  0  0
 40 38  1  0  0  0  0
M  END
>  <MODEL>
5

>  <REMARK>
 VINA RESULT:      -6.4      1.650      2.545
  Name = 
  12 active torsions:
  status: ('A' for Active; 'I' for Inactive)
    1  A    between atoms: C_2  and  C_29
    2  A    between atoms: C_5  and  N_22
    3  A    between atoms: N_8  and  N_22
    4  A    between atoms: C_9  and  C_34
    5  A    between atoms: C_9  and  C_35
    6  A    between atoms: C_15  and  C_30
    7  A    between atoms: C_16  and  C_32
    8  A    between atoms: O_18  and  C_34
    9  A    between atoms: O_18  and  C_37
   10  A    between atoms: C_21  and  C_37
   11  A    between atoms: C_23  and  N_39
   12  A    between atoms: C_24  and  C_35
                            x       y       z     vdW  Elec       q    Type
                         _______ _______ _______ _____ _____    ______ ____

>  <TORSDO>
F 12

$$$$
=
 OpenBabel11042418083D

 40 42  0  0  1  0  0  0  0  0999 V2000
  193.2430  171.4800  142.0420 C   0  0  0  0  0  0  0  0  0  0  0  0
  193.3670  169.9930  142.0490 C   0  0  2  0  0  3  0  0  0  0  0  0
  191.8480  171.4560  142.0810 C   0  0  0  0  0  0  0  0  0  0  0  0
  191.7050  169.6530  141.9340 S   0  0  0  0  0  0  0  0  0  0  0  0
  188.8350  174.4860  142.1680 C   0  0  0  0  0  0  0  0  0  0  0  0
  189.5090  174.1740  140.9820 C   0  0  0  0  0  3  0  0  0  0  0  0
  190.3570  172.0300  144.6040 C   0  0  0  0  0  1  0  0  0  0  0  0
  190.8160  172.4980  142.1500 C   0  0  0  0  0  0  0  0  0  0  0  0
  189.1350  173.7850  143.3380 C   0  0  0  0  0  3  0  0  0  0  0  0
  190.1210  172.7930  143.3420 C   0  0  0  0  0  0  0  0  0  0  0  0
  190.4890  173.1800  140.9740 C   0  0  0  0  0  3  0  0  0  0  0  0
  187.8340  175.5020  142.1960 N   0  0  0  0  0  0  0  0  0  0  0  0
  184.4370  178.0870  144.8160 C   0  0  1  0  0  3  0  0  0  0  0  0
  187.4180  176.0810  143.4050 N   0  0  0  0  0  0  0  0  0  0  0  0
  184.1360  178.8770  146.0760 C   0  0  0  0  0  1  0  0  0  0  0  0
  184.2790  178.9460  143.5750 C   0  0  0  0  0  2  0  0  0  0  0  0
  185.6180  177.2330  142.3940 N   0  0  0  0  0  0  0  0  0  0  0  0
  185.8220  177.4120  144.8400 C   0  0  1  0  0  3  0  0  0  0  0  0
  184.3850  178.0280  142.3620 C   0  0  0  0  0  2  0  0  0  0  0  0
  186.2440  176.8880  143.4850 C   0  0  0  0  0  0  0  0  0  0  0  0
  187.3500  177.6520  146.5450 O   0  0  0  0  0  1  0  0  0  0  0  0
  186.8650  178.2600  145.4310 N   0  0  0  0  0  2  0  0  0  0  0  0
  195.9640  172.1680  141.8750 Cl  0  0  0  0  0  0  0  0  0  0  0  0
  194.1470  176.1290  141.7900 C   0  0  0  0  0  1  0  0  0  0  0  0
  193.5200  174.9910  142.5220 C   0  0  0  0  0  0  0  0  0  0  0  0
  193.8990  173.7750  142.2480 C   0  0  0  0  0  0  0  0  0  0  0  0
  194.2560  172.5470  141.9990 C   0  0  0  0  0  0  0  0  0  0  0  0
  192.0180  176.5420  143.5560 O   0  0  0  0  0  1  0  0  0  0  0  0
  192.4160  175.2020  143.5170 C   0  0  2  0  0  3  0  0  0  0  0  0
  192.8740  174.7610  144.9050 C   0  0  0  0  0  2  0  0  0  0  0  0
  194.9900  175.4130  146.0920 C   0  0  0  0  0  1  0  0  0  0  0  0
  193.6040  175.8670  145.6690 C   0  0  2  0  0  3  0  0  0  0  0  0
  192.8700  176.2860  146.7860 O   0  0  0  0  0  0  0  0  0  0  0  0
  192.0780  175.1870  147.1310 C   0  0  0  0  0  2  0  0  0  0  0  0
  189.6340  174.8100  147.0810 C   0  0  0  0  0  1  0  0  0  0  0  0
  190.7390  175.6670  147.6610 C   0  0  2  0  0  3  0  0  0  0  0  0
  190.5350  176.9970  147.2910 O   0  0  0  0  0  1  0  0  0  0  0  0
  193.9210  169.4920  143.3520 C   0  0  0  0  0  0  0  0  0  0  0  0
  193.1670  169.4170  144.3590 O   0  0  0  0  0  1  0  0  0  0  0  0
  195.2560  169.1220  143.4640 O   0  0  0  0  0  0  0  0  0  0  0  0
  1  2  1  0  0  0  0
  1  3  2  0  0  0  0
  2 38  1  1  0  0  0
  3  8  1  0  0  0  0
  4  2  1  0  0  0  0
  4  3  1  0  0  0  0
  5 12  1  0  0  0  0
  5  9  1  0  0  0  0
  6  5  2  0  0  0  0
  8 10  1  0  0  0  0
  9 10  2  0  0  0  0
 10  7  1  0  0  0  0
 11  6  1  0  0  0  0
 11  8  2  0  0  0  0
 12 14  2  0  0  0  0
 13 18  1  0  0  0  0
 13 15  1  1  0  0  0
 14 20  1  0  0  0  0
 16 13  1  0  0  0  0
 17 20  2  0  0  0  0
 18 22  1  6  0  0  0
 19 17  1  0  0  0  0
 19 16  1  0  0  0  0
 20 18  1  0  0  0  0
 22 21  1  0  0  0  0
 23 27  1  0  0  0  0
 24 25  1  0  0  0  0
 25 29  1  0  0  0  0
 26 25  2  0  0  0  0
 27  1  1  0  0  0  0
 27 26  2  0  0  0  0
 29 28  1  1  0  0  0
 29 30  1  0  0  0  0
 30 32  1  0  0  0  0
 32 31  1  1  0  0  0
 32 33  1  0  0  0  0
 33 34  1  0  0  0  0
 34 36  1  0  0  0  0
 36 35  1  6  0  0  0
 37 36  1  0  0  0  0
 38 40  2  0  0  0  0
 38 39  1  0  0  0  0
M  END
>  <MODEL>
6

>  <REMARK>
 VINA RESULT:      -6.4      2.991      5.163
  Name = 
  12 active torsions:
  status: ('A' for Active; 'I' for Inactive)
    1  A    between atoms: C_2  and  C_29
    2  A    between atoms: C_5  and  N_22
    3  A    between atoms: N_8  and  N_22
    4  A    between atoms: C_9  and  C_34
    5  A    between atoms: C_9  and  C_35
    6  A    between atoms: C_15  and  C_30
    7  A    between atoms: C_16  and  C_32
    8  A    between atoms: O_18  and  C_34
    9  A    between atoms: O_18  and  C_37
   10  A    between atoms: C_21  and  C_37
   11  A    between atoms: C_23  and  N_39
   12  A    between atoms: C_24  and  C_35
                            x       y       z     vdW  Elec       q    Type
                         _______ _______ _______ _____ _____    ______ ____

>  <TORSDO>
F 12

$$$$
=
 OpenBabel11042418083D

 40 42  0  0  1  0  0  0  0  0999 V2000
  185.9370  177.0870  144.7710 C   0  0  0  0  0  0  0  0  0  0  0  0
  184.8850  178.1150  144.5280 C   0  0  2  0  0  3  0  0  0  0  0  0
  186.1430  176.8410  143.4130 C   0  0  0  0  0  0  0  0  0  0  0  0
  184.7980  177.9170  142.8410 S   0  0  0  0  0  0  0  0  0  0  0  0
  188.7600  174.2390  141.2580 C   0  0  0  0  0  0  0  0  0  0  0  0
  187.8020  173.7280  142.1420 C   0  0  0  0  0  3  0  0  0  0  0  0
  188.1070  177.9560  141.4590 C   0  0  0  0  0  1  0  0  0  0  0  0
  187.0650  175.9780  142.6650 C   0  0  0  0  0  0  0  0  0  0  0  0
  188.8500  175.6190  141.0600 C   0  0  0  0  0  3  0  0  0  0  0  0
  188.0120  176.4950  141.7560 C   0  0  0  0  0  0  0  0  0  0  0  0
  186.9560  174.5940  142.8350 C   0  0  0  0  0  3  0  0  0  0  0  0
  189.6360  173.3680  140.5440 N   0  0  0  0  0  2  0  0  0  0  0  0
  189.6890  171.3180  135.9750 C   0  0  1  0  0  3  0  0  0  0  0  0
  189.8200  173.4960  139.1600 N   0  0  0  0  0  2  0  0  0  0  0  0
  190.1100  171.4570  134.5240 C   0  0  0  0  0  1  0  0  0  0  0  0
  190.3510  170.1190  136.6300 C   0  0  0  0  0  2  0  0  0  0  0  0
  189.7690  171.1610  138.7970 N   0  0  0  0  0  0  0  0  0  0  0  0
  189.9330  172.5940  136.8030 C   0  0  1  0  0  3  0  0  0  0  0  0
  189.7120  169.9290  138.0010 C   0  0  0  0  0  2  0  0  0  0  0  0
  189.8020  172.3630  138.2930 C   0  0  0  0  0  0  0  0  0  0  0  0
  190.9640  174.5770  136.2470 O   0  0  0  0  0  1  0  0  0  0  0  0
  191.2010  173.2590  136.4760 N   0  0  0  0  0  2  0  0  0  0  0  0
  185.6190  176.6030  147.5230 Cl  0  0  0  0  0  0  0  0  0  0  0  0
  189.4880  174.7180  146.8390 C   0  0  0  0  0  1  0  0  0  0  0  0
  189.0350  175.8950  146.0440 C   0  0  0  0  0  0  0  0  0  0  0  0
  187.7700  176.2100  146.0400 C   0  0  0  0  0  0  0  0  0  0  0  0
  186.5140  176.5510  146.0160 C   0  0  0  0  0  0  0  0  0  0  0  0
  189.3750  177.8470  144.7020 O   0  0  0  0  0  1  0  0  0  0  0  0
  189.9850  176.6900  145.1950 C   0  0  2  0  0  3  0  0  0  0  0  0
  190.4850  175.8360  144.0330 C   0  0  0  0  0  2  0  0  0  0  0  0
  192.5160  174.8180  142.9590 C   0  0  0  0  0  1  0  0  0  0  0  0
  191.9940  175.9610  143.8110 C   0  0  2  0  0  3  0  0  0  0  0  0
  192.6860  176.0140  145.0270 O   0  0  0  0  0  0  0  0  0  0  0  0
  193.8700  175.3060  144.8010 C   0  0  0  0  0  2  0  0  0  0  0  0
  194.5750  177.1910  146.2370 C   0  0  0  0  0  1  0  0  0  0  0  0
  195.0550  176.1250  145.2760 C   0  0  2  0  0  3  0  0  0  0  0  0
  195.6750  176.7340  144.1840 O   0  0  0  0  0  1  0  0  0  0  0  0
  185.3680  179.4940  144.8740 C   0  0  0  0  0  0  0  0  0  0  0  0
  185.5720  179.7950  146.0810 O   0  0  0  0  0  1  0  0  0  0  0  0
  185.5820  180.4450  143.8830 O   0  0  0  0  0  0  0  0  0  0  0  0
  1 27  1  0  0  0  0
  2  1  1  0  0  0  0
  2 38  1  6  0  0  0
  3  1  2  0  0  0  0
  4  3  1  0  0  0  0
  4  2  1  0  0  0  0
  5  6  1  0  0  0  0
  6 11  2  0  0  0  0
  7 10  1  0  0  0  0
  8 11  1  0  0  0  0
  8  3  1  0  0  0  0
  9  5  2  0  0  0  0
  9 10  1  0  0  0  0
 10  8  2  0  0  0  0
 12  5  1  0  0  0  0
 13 15  1  6  0  0  0
 13 16  1  0  0  0  0
 13 18  1  0  0  0  0
 14 12  1  0  0  0  0
 16 19  1  0  0  0  0
 18 22  1  1  0  0  0
 18 20  1  0  0  0  0
 19 17  1  0  0  0  0
 20 17  2  0  0  0  0
 20 14  1  0  0  0  0
 21 22  1  0  0  0  0
 25 24  1  0  0  0  0
 26 25  2  0  0  0  0
 27 26  2  0  0  0  0
 27 23  1  0  0  0  0
 29 28  1  6  0  0  0
 29 25  1  0  0  0  0
 30 29  1  0  0  0  0
 32 31  1  6  0  0  0
 32 30  1  0  0  0  0
 32 33  1  0  0  0  0
 34 33  1  0  0  0  0
 34 36  1  0  0  0  0
 36 35  1  1  0  0  0
 37 36  1  0  0  0  0
 38 39  1  0  0  0  0
 40 38  2  0  0  0  0
M  END
>  <MODEL>
7

>  <REMARK>
 VINA RESULT:      -6.3      4.615      9.192
  Name = 
  12 active torsions:
  status: ('A' for Active; 'I' for Inactive)
    1  A    between atoms: C_2  and  C_29
    2  A    between atoms: C_5  and  N_22
    3  A    between atoms: N_8  and  N_22
    4  A    between atoms: C_9  and  C_34
    5  A    between atoms: C_9  and  C_35
    6  A    between atoms: C_15  and  C_30
    7  A    between atoms: C_16  and  C_32
    8  A    between atoms: O_18  and  C_34
    9  A    between atoms: O_18  and  C_37
   10  A    between atoms: C_21  and  C_37
   11  A    between atoms: C_23  and  N_39
   12  A    between atoms: C_24  and  C_35
                            x       y       z     vdW  Elec       q    Type
                         _______ _______ _______ _____ _____    ______ ____

>  <TORSDO>
F 12

$$$$
=
 OpenBabel11042418083D

 40 42  0  0  1  0  0  0  0  0999 V2000
  195.3570  174.6850  142.2790 C   0  0  0  0  0  0  0  0  0  0  0  0
  196.7750  175.1450  142.2280 C   0  0  2  0  0  3  0  0  0  0  0  0
  194.9930  175.6170  143.2520 C   0  0  0  0  0  0  0  0  0  0  0  0
  196.6710  176.2580  143.5080 S   0  0  0  0  0  0  0  0  0  0  0  0
  191.2550  176.6050  145.0740 C   0  0  0  0  0  0  0  0  0  0  0  0
  191.4780  176.8430  143.7130 C   0  0  0  0  0  3  0  0  0  0  0  0
  194.5110  175.0060  146.1340 C   0  0  0  0  0  1  0  0  0  0  0  0
  193.7260  175.9540  143.9130 C   0  0  0  0  0  0  0  0  0  0  0  0
  192.2600  176.0180  145.8460 C   0  0  0  0  0  3  0  0  0  0  0  0
  193.4950  175.6900  145.2800 C   0  0  0  0  0  0  0  0  0  0  0  0
  192.7050  176.5120  143.1360 C   0  0  0  0  0  3  0  0  0  0  0  0
  190.0090  176.9410  145.6820 N   0  0  0  0  0  0  0  0  0  0  0  0
  185.3020  178.6290  145.4000 C   0  0  1  0  0  3  0  0  0  0  0  0
  188.9770  177.5380  144.9430 N   0  0  0  0  0  0  0  0  0  0  0  0
  184.1620  179.0720  144.5010 C   0  0  0  0  0  1  0  0  0  0  0  0
  184.9200  177.4060  146.2140 C   0  0  0  0  0  2  0  0  0  0  0  0
  187.3430  177.0760  146.5880 N   0  0  0  0  0  0  0  0  0  0  0  0
  186.6180  178.3850  144.6350 C   0  0  1  0  0  3  0  0  0  0  0  0
  186.0280  177.1660  147.2330 C   0  0  0  0  0  2  0  0  0  0  0  0
  187.6540  177.6610  145.4660 C   0  0  0  0  0  0  0  0  0  0  0  0
  186.8960  178.5280  142.3540 O   0  0  0  0  0  1  0  0  0  0  0  0
  186.4160  177.7250  143.3400 N   0  0  0  0  0  2  0  0  0  0  0  0
  194.3950  173.7220  139.8190 Cl  0  0  0  0  0  0  0  0  0  0  0  0
  193.3710  170.3800  142.4230 C   0  0  0  0  0  1  0  0  0  0  0  0
  193.4030  171.7850  142.9220 C   0  0  0  0  0  0  0  0  0  0  0  0
  194.0290  172.6920  142.2250 C   0  0  0  0  0  0  0  0  0  0  0  0
  194.6450  173.6210  141.5520 C   0  0  0  0  0  0  0  0  0  0  0  0
  193.4450  171.5430  145.3030 O   0  0  0  0  0  1  0  0  0  0  0  0
  192.7940  172.1720  144.2380 C   0  0  2  0  0  3  0  0  0  0  0  0
  191.3110  171.8090  144.2530 C   0  0  0  0  0  2  0  0  0  0  0  0
  189.6920  173.3570  145.3930 C   0  0  0  0  0  1  0  0  0  0  0  0
  190.3990  173.0270  144.0900 C   0  0  2  0  0  3  0  0  0  0  0  0
  189.4630  172.8290  143.0670 O   0  0  0  0  0  0  0  0  0  0  0  0
  190.0950  173.2810  141.9050 C   0  0  0  0  0  2  0  0  0  0  0  0
  188.2890  174.9670  142.0130 C   0  0  0  0  0  1  0  0  0  0  0  0
  189.1260  174.1120  141.0850 C   0  0  2  0  0  3  0  0  0  0  0  0
  188.2890  173.2700  140.3510 O   0  0  0  0  0  1  0  0  0  0  0  0
  197.0810  175.8490  140.9380 C   0  0  0  0  0  0  0  0  0  0  0  0
  197.9410  175.3640  140.1550 O   0  0  0  0  0  0  0  0  0  0  0  0
  196.4360  177.0340  140.6010 O   0  0  0  0  0  1  0  0  0  0  0  0
  1  3  2  0  0  0  0
  2 38  1  6  0  0  0
  2  1  1  0  0  0  0
  2  4  1  0  0  0  0
  3  4  1  0  0  0  0
  3  8  1  0  0  0  0
  5 12  1  0  0  0  0
  5  9  1  0  0  0  0
  6  5  2  0  0  0  0
  8 10  1  0  0  0  0
 10  9  2  0  0  0  0
 10  7  1  0  0  0  0
 11  6  1  0  0  0  0
 11  8  2  0  0  0  0
 13 15  1  6  0  0  0
 13 16  1  0  0  0  0
 14 20  1  0  0  0  0
 14 12  2  0  0  0  0
 16 19  1  0  0  0  0
 17 19  1  0  0  0  0
 18 22  1  6  0  0  0
 18 13  1  0  0  0  0
 18 20  1  0  0  0  0
 20 17  2  0  0  0  0
 21 22  1  0  0  0  0
 23 27  1  0  0  0  0
 24 25  1  0  0  0  0
 25 29  1  0  0  0  0
 26 25  2  0  0  0  0
 27 26  2  0  0  0  0
 27  1  1  0  0  0  0
 29 30  1  0  0  0  0
 29 28  1  1  0  0  0
 32 30  1  0  0  0  0
 32 31  1  1  0  0  0
 33 32  1  0  0  0  0
 34 33  1  0  0  0  0
 36 34  1  0  0  0  0
 36 35  1  1  0  0  0
 37 36  1  0  0  0  0
 39 38  2  0  0  0  0
 40 38  1  0  0  0  0
M  END
>  <MODEL>
8

>  <REMARK>
 VINA RESULT:      -6.2      1.685      2.105
  Name = 
  12 active torsions:
  status: ('A' for Active; 'I' for Inactive)
    1  A    between atoms: C_2  and  C_29
    2  A    between atoms: C_5  and  N_22
    3  A    between atoms: N_8  and  N_22
    4  A    between atoms: C_9  and  C_34
    5  A    between atoms: C_9  and  C_35
    6  A    between atoms: C_15  and  C_30
    7  A    between atoms: C_16  and  C_32
    8  A    between atoms: O_18  and  C_34
    9  A    between atoms: O_18  and  C_37
   10  A    between atoms: C_21  and  C_37
   11  A    between atoms: C_23  and  N_39
   12  A    between atoms: C_24  and  C_35
                            x       y       z     vdW  Elec       q    Type
                         _______ _______ _______ _____ _____    ______ ____

>  <TORSDO>
F 12

$$$$
=
 OpenBabel11042418083D

 40 42  0  0  1  0  0  0  0  0999 V2000
  194.2710  171.8030  143.1000 C   0  0  0  0  0  0  0  0  0  0  0  0
  194.6230  170.4910  143.7150 C   0  0  2  0  0  3  0  0  0  0  0  0
  192.8990  171.6230  143.2750 C   0  0  0  0  0  0  0  0  0  0  0  0
  193.0310  169.9270  143.9080 S   0  0  0  0  0  0  0  0  0  0  0  0
  189.4710  174.0790  142.5820 C   0  0  0  0  0  0  0  0  0  0  0  0
  189.8690  173.7480  143.8820 C   0  0  0  0  0  3  0  0  0  0  0  0
  192.1330  172.3950  140.4940 C   0  0  0  0  0  1  0  0  0  0  0  0
  191.7210  172.4540  143.0000 C   0  0  0  0  0  0  0  0  0  0  0  0
  190.2150  173.6180  141.4930 C   0  0  0  0  0  3  0  0  0  0  0  0
  191.3370  172.8070  141.6880 C   0  0  0  0  0  0  0  0  0  0  0  0
  190.9920  172.9450  144.0880 C   0  0  0  0  0  3  0  0  0  0  0  0
  188.3220  174.8940  142.3520 N   0  0  0  0  0  2  0  0  0  0  0  0
  185.0420  178.1560  144.2690 C   0  0  1  0  0  3  0  0  0  0  0  0
  187.5000  175.3060  143.4110 N   0  0  0  0  0  2  0  0  0  0  0  0
  184.3430  178.6750  145.5130 C   0  0  0  0  0  1  0  0  0  0  0  0
  185.8890  179.2370  143.6210 C   0  0  0  0  0  2  0  0  0  0  0  0
  187.0510  177.4080  142.4260 N   0  0  0  0  0  0  0  0  0  0  0  0
  185.8800  176.8890  144.5280 C   0  0  1  0  0  3  0  0  0  0  0  0
  186.3720  178.7010  142.2780 C   0  0  0  0  0  2  0  0  0  0  0  0
  186.8060  176.5530  143.3800 C   0  0  0  0  0  0  0  0  0  0  0  0
  187.7840  177.5790  145.6240 O   0  0  0  0  0  1  0  0  0  0  0  0
  186.6040  176.9290  145.8040 N   0  0  0  0  0  2  0  0  0  0  0  0
  196.1510  172.5560  141.1480 Cl  0  0  0  0  0  0  0  0  0  0  0  0
  195.4180  176.4050  143.0550 C   0  0  0  0  0  1  0  0  0  0  0  0
  195.3250  175.1230  143.8110 C   0  0  0  0  0  0  0  0  0  0  0  0
  195.2160  174.0040  143.1510 C   0  0  0  0  0  0  0  0  0  0  0  0
  195.1060  172.8690  142.5220 C   0  0  0  0  0  0  0  0  0  0  0  0
  196.1920  174.1510  145.8190 O   0  0  0  0  0  1  0  0  0  0  0  0
  195.2880  175.0890  145.3110 C   0  0  2  0  0  3  0  0  0  0  0  0
  193.8770  174.7550  145.7900 C   0  0  0  0  0  2  0  0  0  0  0  0
  191.9310  175.5100  147.1900 C   0  0  0  0  0  1  0  0  0  0  0  0
  193.1690  175.9520  146.4280 C   0  0  2  0  0  3  0  0  0  0  0  0
  192.8290  176.9140  145.4690 O   0  0  0  0  0  0  0  0  0  0  0  0
  191.4840  176.6720  145.1740 C   0  0  0  0  0  2  0  0  0  0  0  0
  191.9370  176.5980  142.7440 C   0  0  0  0  0  1  0  0  0  0  0  0
  191.1360  177.2840  143.8300 C   0  0  2  0  0  3  0  0  0  0  0  0
  191.4420  178.6460  143.8390 O   0  0  0  0  0  1  0  0  0  0  0  0
  195.2880  170.6670  145.0500 C   0  0  0  0  0  0  0  0  0  0  0  0
  194.5970  170.5960  146.1010 O   0  0  0  0  0  1  0  0  0  0  0  0
  196.6520  170.9190  145.1390 O   0  0  0  0  0  0  0  0  0  0  0  0
  1  3  2  0  0  0  0
  1  2  1  0  0  0  0
  2  4  1  0  0  0  0
  2 38  1  1  0  0  0
  3  4  1  0  0  0  0
  5  6  1  0  0  0  0
  6 11  2  0  0  0  0
  7 10  1  0  0  0  0
  8  3  1  0  0  0  0
  8 11  1  0  0  0  0
  9 10  1  0  0  0  0
  9  5  2  0  0  0  0
 10  8  2  0  0  0  0
 12  5  1  0  0  0  0
 12 14  1  0  0  0  0
 13 18  1  0  0  0  0
 13 15  1  1  0  0  0
 16 13  1  0  0  0  0
 17 20  2  0  0  0  0
 18 22  1  1  0  0  0
 19 17  1  0  0  0  0
 19 16  1  0  0  0  0
 20 14  1  0  0  0  0
 20 18  1  0  0  0  0
 21 22  1  0  0  0  0
 23 27  1  0  0  0  0
 24 25  1  0  0  0  0
 25 29  1  0  0  0  0
 26 25  2  0  0  0  0
 27  1  1  0  0  0  0
 27 26  2  0  0  0  0
 29 30  1  0  0  0  0
 29 28  1  6  0  0  0
 30 32  1  0  0  0  0
 32 31  1  6  0  0  0
 33 32  1  0  0  0  0
 34 33  1  0  0  0  0
 36 35  1  6  0  0  0
 36 37  1  0  0  0  0
 36 34  1  0  0  0  0
 38 40  2  0  0  0  0
 38 39  1  0  0  0  0
M  END
>  <MODEL>
9

>  <REMARK>
 VINA RESULT:      -6.2      2.775      4.609
  Name = 
  12 active torsions:
  status: ('A' for Active; 'I' for Inactive)
    1  A    between atoms: C_2  and  C_29
    2  A    between atoms: C_5  and  N_22
    3  A    between atoms: N_8  and  N_22
    4  A    between atoms: C_9  and  C_34
    5  A    between atoms: C_9  and  C_35
    6  A    between atoms: C_15  and  C_30
    7  A    between atoms: C_16  and  C_32
    8  A    between atoms: O_18  and  C_34
    9  A    between atoms: O_18  and  C_37
   10  A    between atoms: C_21  and  C_37
   11  A    between atoms: C_23  and  N_39
   12  A    between atoms: C_24  and  C_35
                            x       y       z     vdW  Elec       q    Type
                         _______ _______ _______ _____ _____    ______ ____

>  <TORSDO>
F 12

$$$$
