=
 OpenBabel11042417263D

 29 29  0  0  1  0  0  0  0  0999 V2000
  191.1040  175.8970  147.6370 C   0  0  0  0  0  3  0  0  0  0  0  0
  189.8860  174.5140  146.0340 C   0  0  0  0  0  3  0  0  0  0  0  0
  193.2450  176.6360  146.9700 O   0  0  0  0  0  0  0  0  0  0  0  0
  191.9610  175.6300  145.2140 C   0  0  1  0  0  3  0  0  0  0  0  0
  190.0260  175.1710  147.3430 C   0  0  0  0  0  3  0  0  0  0  0  0
  192.1680  176.0750  146.6380 C   0  0  0  0  0  0  0  0  0  0  0  0
  190.7870  174.6840  145.0590 C   0  0  0  0  0  0  0  0  0  0  0  0
  190.6030  173.9470  143.7720 C   0  0  0  0  0  2  0  0  0  0  0  0
  189.5420  173.9260  141.0230 N   0  0  0  0  0  2  0  0  0  0  0  0
  187.4440  173.5210  141.9660 O   0  0  0  0  0  0  0  0  0  0  0  0
  189.1870  173.7840  143.4740 N   0  0  0  0  0  2  0  0  0  0  0  0
  188.6740  173.7300  142.1430 C   0  0  0  0  0  0  0  0  0  0  0  0
  189.0640  173.9180  139.6470 C   0  0  0  0  0  2  0  0  0  0  0  0
  189.8070  172.8720  138.8330 C   0  0  0  0  0  2  0  0  0  0  0  0
  189.8060  171.6520  139.5100 O   0  0  0  0  0  1  0  0  0  0  0  0
  191.7280  177.0940  144.1580 S   0  0  0  0  0  0  0  0  0  0  0  0
  190.0400  177.3580  144.7790 C   0  0  0  0  0  2  0  0  0  0  0  0
  189.1100  177.6880  143.6250 C   0  0  0  0  0  2  0  0  0  0  0  0
  187.6640  177.7170  144.0970 C   0  0  1  0  0  3  0  0  0  0  0  0
  186.0060  176.2370  143.2680 O   0  0  0  0  0  0  0  0  0  0  0  0
  186.7380  177.2310  143.0210 C   0  0  0  0  0  0  0  0  0  0  0  0
  187.0120  177.1800  140.5540 C   0  0  0  0  0  1  0  0  0  0  0  0
  186.6490  177.8350  141.7600 O   0  0  0  0  0  0  0  0  0  0  0  0
  187.4950  176.9270  145.3900 C   0  0  0  0  0  2  0  0  0  0  0  0
  186.7420  177.7390  146.4310 C   0  0  0  0  0  2  0  0  0  0  0  0
  185.1450  177.3990  146.3960 C   0  0  0  0  0  2  0  0  0  0  0  0
  184.4320  177.4660  146.5210 O   0  0  0  0  0  0  0  0  0  0  0  0
  184.2980  178.6410  146.0890 C   0  0  0  0  0  2  0  0  0  0  0  0
  183.8370  178.8990  144.8040 O   0  0  0  0  0  1  0  0  0  0  0  0
  2  5  1  0  0  0  0
  4 16  1  6  0  0  0
  4  6  1  0  0  0  0
  5  1  2  0  0  0  0
  6  3  2  0  0  0  0
  6  1  1  0  0  0  0
  7  4  1  0  0  0  0
  7  2  2  0  0  0  0
  8  7  1  0  0  0  0
  9 12  1  0  0  0  0
 10 12  2  0  0  0  0
 11  8  1  0  0  0  0
 12 11  1  0  0  0  0
 13  9  1  0  0  0  0
 14 15  1  0  0  0  0
 14 13  1  0  0  0  0
 16 17  1  0  0  0  0
 18 17  1  0  0  0  0
 19 18  1  6  0  0  0
 19 24  1  0  0  0  0
 21 20  2  0  0  0  0
 21 19  1  0  0  0  0
 22 23  1  0  0  0  0
 23 21  1  0  0  0  0
 24 25  1  0  0  0  0
 26 25  1  0  0  0  0
 26 27  1  0  0  0  0
 28 27  1  0  0  0  0
 29 28  1  0  0  0  0
M  END
>  <MODEL>
1

>  <REMARK>
 VINA RESULT:      -5.8      0.000      0.000
  Name = 
  14 active torsions:
  status: ('A' for Active; 'I' for Inactive)
    1  A    between atoms: C_2  and  C_13
    2  A    between atoms: C_2  and  C_17
    3  A    between atoms: C_6  and  C_11
    4  A    between atoms: C_7  and  N_24
    5  A    between atoms: C_7  and  C_26
    6  A    between atoms: N_9  and  C_11
    7  A    between atoms: C_10  and  C_19
    8  A    between atoms: C_10  and  C_25
    9  A    between atoms: C_10  and  C_29
   10  A    between atoms: C_15  and  S_28
   11  A    between atoms: C_17  and  C_25
   12  A    between atoms: C_18  and  S_28
   13  A    between atoms: C_18  and  C_29
   14  A    between atoms: C_19  and  O_23
                            x       y       z     vdW  Elec       q    Type
                         _______ _______ _______ _____ _____    ______ ____

>  <TORSDO>
F 14

$$$$
=
 OpenBabel11042417263D

 29 28  0  0  1  0  0  0  0  0999 V2000
  184.1530  178.9110  145.6110 C   0  0  0  0  0  3  0  0  0  0  0  0
  185.5740  177.7920  147.2520 C   0  0  0  0  0  3  0  0  0  0  0  0
  185.2450  179.8220  143.7270 O   0  0  0  0  0  0  0  0  0  0  0  0
  186.6310  178.4090  145.0790 C   0  0  1  0  0  3  0  0  0  0  0  0
  184.2690  178.2830  146.7800 C   0  0  0  0  0  3  0  0  0  0  0  0
  185.3330  179.1020  144.7550 C   0  0  0  0  0  0  0  0  0  0  0  0
  186.6760  177.8780  146.4970 C   0  0  0  0  0  0  0  0  0  0  0  0
  187.9750  177.4000  147.0620 C   0  0  0  0  0  2  0  0  0  0  0  0
  190.5510  175.9720  147.0120 N   0  0  0  0  0  2  0  0  0  0  0  0
  189.3140  173.9910  146.9660 O   0  0  0  0  0  0  0  0  0  0  0  0
  188.0710  175.9500  146.9670 N   0  0  0  0  0  2  0  0  0  0  0  0
  189.3160  175.2510  146.9860 C   0  0  0  0  0  0  0  0  0  0  0  0
  191.8480  175.3090  146.9960 C   0  0  0  0  0  2  0  0  0  0  0  0
  192.6510  175.7420  145.7800 C   0  0  0  0  0  2  0  0  0  0  0  0
  193.5780  174.7540  145.4450 O   0  0  0  0  0  1  0  0  0  0  0  0
  186.8960  177.0530  143.8940 S   0  0  0  0  0  0  0  0  0  0  0  0
  188.4250  177.8080  143.2680 C   0  0  0  0  0  2  0  0  0  0  0  0
  188.5110  177.6300  141.7620 C   0  0  0  0  0  2  0  0  0  0  0  0
  187.4180  176.6910  141.2730 C   0  0  1  0  0  3  0  0  0  0  0  0
  186.4950  177.0450  139.1170 O   0  0  0  0  0  0  0  0  0  0  0  0
  186.4910  177.3950  140.3260 C   0  0  0  0  0  0  0  0  0  0  0  0
  184.2240  178.3960  140.4700 C   0  0  0  0  0  1  0  0  0  0  0  0
  185.6200  178.4160  140.7280 O   0  0  0  0  0  0  0  0  0  0  0  0
  188.0150  175.4340  140.6510 C   0  0  0  0  0  2  0  0  0  0  0  0
  188.5920  174.5190  141.7200 C   0  0  0  0  0  1  0  0  0  0  0  0
  188.4330  172.9500  141.2940 C   0  0  0  0  0  1  0  0  0  0  0  0
  189.0800  173.2800  141.3220 O   0  0  0  0  0  0  0  0  0  0  0  0
  189.7930  172.2610  141.1160 C   0  0  0  0  0  2  0  0  0  0  0  0
  190.2880  171.9600  139.8540 O   0  0  0  0  0  1  0  0  0  0  0  0
  1  5  2  0  0  0  0
  3  6  2  0  0  0  0
  4 16  1  6  0  0  0
  4  7  1  0  0  0  0
  5  2  1  0  0  0  0
  6  4  1  0  0  0  0
  6  1  1  0  0  0  0
  7  8  1  0  0  0  0
  7  2  2  0  0  0  0
 10 12  2  0  0  0  0
 11 12  1  0  0  0  0
 11  8  1  0  0  0  0
 12  9  1  0  0  0  0
 13  9  1  0  0  0  0
 14 13  1  0  0  0  0
 15 14  1  0  0  0  0
 17 16  1  0  0  0  0
 18 17  1  0  0  0  0
 19 24  1  6  0  0  0
 19 18  1  0  0  0  0
 20 21  2  0  0  0  0
 21 23  1  0  0  0  0
 21 19  1  0  0  0  0
 22 23  1  0  0  0  0
 24 25  1  0  0  0  0
 26 27  1  0  0  0  0
 28 27  1  0  0  0  0
 29 28  1  0  0  0  0
M  END
>  <MODEL>
2

>  <REMARK>
 VINA RESULT:      -5.8      2.409      6.292
  Name = 
  14 active torsions:
  status: ('A' for Active; 'I' for Inactive)
    1  A    between atoms: C_2  and  C_13
    2  A    between atoms: C_2  and  C_17
    3  A    between atoms: C_6  and  C_11
    4  A    between atoms: C_7  and  N_24
    5  A    between atoms: C_7  and  C_26
    6  A    between atoms: N_9  and  C_11
    7  A    between atoms: C_10  and  C_19
    8  A    between atoms: C_10  and  C_25
    9  A    between atoms: C_10  and  C_29
   10  A    between atoms: C_15  and  S_28
   11  A    between atoms: C_17  and  C_25
   12  A    between atoms: C_18  and  S_28
   13  A    between atoms: C_18  and  C_29
   14  A    between atoms: C_19  and  O_23
                            x       y       z     vdW  Elec       q    Type
                         _______ _______ _______ _____ _____    ______ ____

>  <TORSDO>
F 14

$$$$
=
 OpenBabel11042417263D

 29 28  0  0  1  0  0  0  0  0999 V2000
  183.9420  178.7790  145.7380 C   0  0  0  0  0  3  0  0  0  0  0  0
  185.8300  177.8040  146.9430 C   0  0  0  0  0  3  0  0  0  0  0  0
  184.3570  179.4640  143.5170 O   0  0  0  0  0  0  0  0  0  0  0  0
  186.1220  178.1690  144.4930 C   0  0  1  0  0  3  0  0  0  0  0  0
  184.4370  178.2720  146.8670 C   0  0  0  0  0  3  0  0  0  0  0  0
  184.7810  178.8530  144.5330 C   0  0  0  0  0  0  0  0  0  0  0  0
  186.6280  177.7870  145.8690 C   0  0  0  0  0  0  0  0  0  0  0  0
  188.0460  177.3420  146.0320 C   0  0  0  0  0  2  0  0  0  0  0  0
  190.5820  175.9960  146.6950 N   0  0  0  0  0  2  0  0  0  0  0  0
  189.2940  174.3330  147.7100 O   0  0  0  0  0  0  0  0  0  0  0  0
  188.1020  176.0530  146.7080 N   0  0  0  0  0  2  0  0  0  0  0  0
  189.3280  175.4170  147.0690 C   0  0  0  0  0  0  0  0  0  0  0  0
  191.8610  175.3720  147.0060 C   0  0  0  0  0  2  0  0  0  0  0  0
  193.0030  176.3380  146.7400 C   0  0  0  0  0  2  0  0  0  0  0  0
  194.1770  175.6290  146.4850 O   0  0  0  0  0  1  0  0  0  0  0  0
  186.0080  176.6920  143.4360 S   0  0  0  0  0  0  0  0  0  0  0  0
  186.8890  177.5150  142.0750 C   0  0  0  0  0  2  0  0  0  0  0  0
  188.2590  176.8860  141.8900 C   0  0  0  0  0  2  0  0  0  0  0  0
  188.3050  175.5080  142.5350 C   0  0  1  0  0  3  0  0  0  0  0  0
  188.3220  174.7570  140.2850 O   0  0  0  0  0  0  0  0  0  0  0  0
  188.2360  174.4270  141.4960 C   0  0  0  0  0  0  0  0  0  0  0  0
  189.1840  172.1780  141.9520 C   0  0  0  0  0  1  0  0  0  0  0  0
  188.0880  173.0710  141.8150 O   0  0  0  0  0  0  0  0  0  0  0  0
  189.5340  175.3620  143.4250 C   0  0  0  0  0  2  0  0  0  0  0  0
  190.6880  176.2020  142.9020 C   0  0  0  0  0  1  0  0  0  0  0  0
  192.1210  175.4830  143.2100 C   0  0  0  0  0  1  0  0  0  0  0  0
  192.0630  176.0680  142.7820 O   0  0  0  0  0  0  0  0  0  0  0  0
  193.2900  176.2180  142.5410 C   0  0  0  0  0  2  0  0  0  0  0  0
  193.8690  175.7390  141.3730 O   0  0  0  0  0  1  0  0  0  0  0  0
  1  5  2  0  0  0  0
  3  6  2  0  0  0  0
  4 16  1  6  0  0  0
  4  6  1  0  0  0  0
  4  7  1  0  0  0  0
  5  2  1  0  0  0  0
  6  1  1  0  0  0  0
  7  8  1  0  0  0  0
  7  2  2  0  0  0  0
  8 11  1  0  0  0  0
  9 13  1  0  0  0  0
  9 12  1  0  0  0  0
 11 12  1  0  0  0  0
 12 10  2  0  0  0  0
 14 13  1  0  0  0  0
 15 14  1  0  0  0  0
 17 16  1  0  0  0  0
 18 17  1  0  0  0  0
 19 18  1  6  0  0  0
 19 24  1  0  0  0  0
 20 21  2  0  0  0  0
 21 23  1  0  0  0  0
 21 19  1  0  0  0  0
 23 22  1  0  0  0  0
 25 24  1  0  0  0  0
 27 26  1  0  0  0  0
 28 27  1  0  0  0  0
 29 28  1  0  0  0  0
M  END
>  <MODEL>
3

>  <REMARK>
 VINA RESULT:      -5.7      2.593      6.666
  Name = 
  14 active torsions:
  status: ('A' for Active; 'I' for Inactive)
    1  A    between atoms: C_2  and  C_13
    2  A    between atoms: C_2  and  C_17
    3  A    between atoms: C_6  and  C_11
    4  A    between atoms: C_7  and  N_24
    5  A    between atoms: C_7  and  C_26
    6  A    between atoms: N_9  and  C_11
    7  A    between atoms: C_10  and  C_19
    8  A    between atoms: C_10  and  C_25
    9  A    between atoms: C_10  and  C_29
   10  A    between atoms: C_15  and  S_28
   11  A    between atoms: C_17  and  C_25
   12  A    between atoms: C_18  and  S_28
   13  A    between atoms: C_18  and  C_29
   14  A    between atoms: C_19  and  O_23
                            x       y       z     vdW  Elec       q    Type
                         _______ _______ _______ _____ _____    ______ ____

>  <TORSDO>
F 14

$$$$
=
 OpenBabel11042417263D

 29 29  0  0  1  0  0  0  0  0999 V2000
  190.0080  175.0050  143.7640 C   0  0  0  0  0  3  0  0  0  0  0  0
  191.8340  176.5400  144.2870 C   0  0  0  0  0  3  0  0  0  0  0  0
  189.8030  173.1080  145.1550 O   0  0  0  0  0  0  0  0  0  0  0  0
  191.3480  174.7540  145.9580 C   0  0  1  0  0  3  0  0  0  0  0  0
  190.6970  176.1040  143.4600 C   0  0  0  0  0  3  0  0  0  0  0  0
  190.3590  174.2200  144.9560 C   0  0  0  0  0  0  0  0  0  0  0  0
  192.1690  175.9070  145.4170 C   0  0  0  0  0  0  0  0  0  0  0  0
  193.3650  176.3790  146.1800 C   0  0  0  0  0  2  0  0  0  0  0  0
  195.5300  176.5720  144.1910 N   0  0  0  0  0  2  0  0  0  0  0  0
  196.4510  174.6710  145.1870 O   0  0  0  0  0  0  0  0  0  0  0  0
  194.4440  175.4050  146.0920 N   0  0  0  0  0  2  0  0  0  0  0  0
  195.5190  175.5180  145.1590 C   0  0  0  0  0  0  0  0  0  0  0  0
  196.5820  176.7120  143.1940 C   0  0  0  0  0  2  0  0  0  0  0  0
  196.0170  176.5230  141.7950 C   0  0  0  0  0  2  0  0  0  0  0  0
  197.0200  176.0800  140.9330 O   0  0  0  0  0  1  0  0  0  0  0  0
  190.4570  175.2720  147.4580 S   0  0  0  0  0  0  0  0  0  0  0  0
  189.3670  176.3770  146.5120 C   0  0  0  0  0  2  0  0  0  0  0  0
  187.9140  176.0670  146.8300 C   0  0  0  0  0  2  0  0  0  0  0  0
  186.9900  176.8280  145.8910 C   0  0  1  0  0  3  0  0  0  0  0  0
  186.3740  178.3110  147.6360 O   0  0  0  0  0  0  0  0  0  0  0  0
  185.9760  177.6200  146.6630 C   0  0  0  0  0  0  0  0  0  0  0  0
  183.9510  178.7510  145.7750 C   0  0  0  0  0  1  0  0  0  0  0  0
  184.6110  177.6290  146.3440 O   0  0  0  0  0  0  0  0  0  0  0  0
  187.7860  177.7070  144.9330 C   0  0  0  0  0  2  0  0  0  0  0  0
  186.9760  178.0270  143.6870 C   0  0  0  0  0  2  0  0  0  0  0  0
  186.6990  176.6780  142.8090 C   0  0  0  0  0  2  0  0  0  0  0  0
  186.3700  176.5560  142.1710 O   0  0  0  0  0  0  0  0  0  0  0  0
  187.3730  176.7380  141.4320 C   0  0  0  0  0  2  0  0  0  0  0  0
  188.1300  175.6760  140.9530 O   0  0  0  0  0  1  0  0  0  0  0  0
  1  6  1  0  0  0  0
  2  7  2  0  0  0  0
  4 16  1  1  0  0  0
  5  1  2  0  0  0  0
  5  2  1  0  0  0  0
  6  3  2  0  0  0  0
  6  4  1  0  0  0  0
  7  4  1  0  0  0  0
  7  8  1  0  0  0  0
  9 12  1  0  0  0  0
 11  8  1  0  0  0  0
 12 10  2  0  0  0  0
 12 11  1  0  0  0  0
 13  9  1  0  0  0  0
 14 13  1  0  0  0  0
 15 14  1  0  0  0  0
 17 18  1  0  0  0  0
 17 16  1  0  0  0  0
 19 24  1  1  0  0  0
 19 21  1  0  0  0  0
 19 18  1  0  0  0  0
 21 20  2  0  0  0  0
 22 23  1  0  0  0  0
 23 21  1  0  0  0  0
 25 24  1  0  0  0  0
 26 25  1  0  0  0  0
 27 26  1  0  0  0  0
 28 27  1  0  0  0  0
 29 28  1  0  0  0  0
M  END
>  <MODEL>
4

>  <REMARK>
 VINA RESULT:      -5.7      3.149      5.338
  Name = 
  14 active torsions:
  status: ('A' for Active; 'I' for Inactive)
    1  A    between atoms: C_2  and  C_13
    2  A    between atoms: C_2  and  C_17
    3  A    between atoms: C_6  and  C_11
    4  A    between atoms: C_7  and  N_24
    5  A    between atoms: C_7  and  C_26
    6  A    between atoms: N_9  and  C_11
    7  A    between atoms: C_10  and  C_19
    8  A    between atoms: C_10  and  C_25
    9  A    between atoms: C_10  and  C_29
   10  A    between atoms: C_15  and  S_28
   11  A    between atoms: C_17  and  C_25
   12  A    between atoms: C_18  and  S_28
   13  A    between atoms: C_18  and  C_29
   14  A    between atoms: C_19  and  O_23
                            x       y       z     vdW  Elec       q    Type
                         _______ _______ _______ _____ _____    ______ ____

>  <TORSDO>
F 14

$$$$
=
 OpenBabel11042417263D

 29 28  0  0  1  0  0  0  0  0999 V2000
  189.4830  175.2030  147.3410 C   0  0  0  0  0  3  0  0  0  0  0  0
  191.4710  175.9520  146.1360 C   0  0  0  0  0  3  0  0  0  0  0  0
  187.4130  176.0330  146.5660 O   0  0  0  0  0  0  0  0  0  0  0  0
  189.2610  176.4870  145.1100 C   0  0  1  0  0  3  0  0  0  0  0  0
  190.8100  175.2100  147.2210 C   0  0  0  0  0  3  0  0  0  0  0  0
  188.6510  175.9220  146.3650 C   0  0  0  0  0  0  0  0  0  0  0  0
  190.7720  176.5770  145.1800 C   0  0  0  0  0  0  0  0  0  0  0  0
  191.5120  177.3500  144.1360 C   0  0  0  0  0  2  0  0  0  0  0  0
  194.3250  176.4770  144.1700 N   0  0  0  0  0  2  0  0  0  0  0  0
  193.8140  175.1640  142.3070 O   0  0  0  0  0  0  0  0  0  0  0  0
  192.0710  176.4520  143.1350 N   0  0  0  0  0  2  0  0  0  0  0  0
  193.4220  175.9920  143.1720 C   0  0  0  0  0  0  0  0  0  0  0  0
  195.7220  176.0690  144.2310 C   0  0  0  0  0  2  0  0  0  0  0  0
  195.9080  174.9570  145.2500 C   0  0  0  0  0  2  0  0  0  0  0  0
  197.1260  174.3120  145.0350 O   0  0  0  0  0  1  0  0  0  0  0  0
  188.7610  175.4650  143.6890 S   0  0  0  0  0  0  0  0  0  0  0  0
  187.2780  176.4750  143.3990 C   0  0  0  0  0  2  0  0  0  0  0  0
  187.6810  177.8910  143.0250 C   0  0  0  0  0  2  0  0  0  0  0  0
  186.4720  178.6800  142.5440 C   0  0  1  0  0  3  0  0  0  0  0  0
  184.8520  178.3620  140.8400 O   0  0  0  0  0  0  0  0  0  0  0  0
  186.0620  178.2450  141.1670 C   0  0  0  0  0  0  0  0  0  0  0  0
  186.5580  177.0520  139.0470 C   0  0  0  0  0  1  0  0  0  0  0  0
  186.9640  177.7220  140.2320 O   0  0  0  0  0  0  0  0  0  0  0  0
  185.3200  178.5750  143.5380 C   0  0  0  0  0  2  0  0  0  0  0  0
  185.5530  179.4790  144.7370 C   0  0  0  0  0  1  0  0  0  0  0  0
  184.9000  178.8350  146.0890 C   0  0  0  0  0  1  0  0  0  0  0  0
  185.6270  178.8340  146.1210 O   0  0  0  0  0  0  0  0  0  0  0  0
  185.7380  179.1450  147.3370 C   0  0  0  0  0  2  0  0  0  0  0  0
  185.9490  178.1870  148.3200 O   0  0  0  0  0  1  0  0  0  0  0  0
  2  5  1  0  0  0  0
  4 16  1  6  0  0  0
  4  7  1  0  0  0  0
  4  6  1  0  0  0  0
  5  1  2  0  0  0  0
  6  3  2  0  0  0  0
  6  1  1  0  0  0  0
  7  2  2  0  0  0  0
  8  7  1  0  0  0  0
  9 13  1  0  0  0  0
 10 12  2  0  0  0  0
 11 12  1  0  0  0  0
 11  8  1  0  0  0  0
 12  9  1  0  0  0  0
 13 14  1  0  0  0  0
 15 14  1  0  0  0  0
 17 16  1  0  0  0  0
 18 17  1  0  0  0  0
 19 18  1  1  0  0  0
 19 24  1  0  0  0  0
 20 21  2  0  0  0  0
 21 19  1  0  0  0  0
 22 23  1  0  0  0  0
 23 21  1  0  0  0  0
 24 25  1  0  0  0  0
 26 27  1  0  0  0  0
 27 28  1  0  0  0  0
 28 29  1  0  0  0  0
M  END
>  <MODEL>
5

>  <REMARK>
 VINA RESULT:      -5.7      2.874      4.340
  Name = 
  14 active torsions:
  status: ('A' for Active; 'I' for Inactive)
    1  A    between atoms: C_2  and  C_13
    2  A    between atoms: C_2  and  C_17
    3  A    between atoms: C_6  and  C_11
    4  A    between atoms: C_7  and  N_24
    5  A    between atoms: C_7  and  C_26
    6  A    between atoms: N_9  and  C_11
    7  A    between atoms: C_10  and  C_19
    8  A    between atoms: C_10  and  C_25
    9  A    between atoms: C_10  and  C_29
   10  A    between atoms: C_15  and  S_28
   11  A    between atoms: C_17  and  C_25
   12  A    between atoms: C_18  and  S_28
   13  A    between atoms: C_18  and  C_29
   14  A    between atoms: C_19  and  O_23
                            x       y       z     vdW  Elec       q    Type
                         _______ _______ _______ _____ _____    ______ ____

>  <TORSDO>
F 14

$$$$
=
 OpenBabel11042417263D

 29 29  0  0  1  0  0  0  0  0999 V2000
  185.0390  179.0420  146.1170 C   0  0  0  0  0  3  0  0  0  0  0  0
  186.8570  177.7080  147.0560 C   0  0  0  0  0  3  0  0  0  0  0  0
  185.2910  179.7230  143.8710 O   0  0  0  0  0  0  0  0  0  0  0  0
  186.9030  178.1040  144.5940 C   0  0  1  0  0  3  0  0  0  0  0  0
  185.5710  178.4160  147.1660 C   0  0  0  0  0  3  0  0  0  0  0  0
  185.7210  179.0110  144.8160 C   0  0  0  0  0  0  0  0  0  0  0  0
  187.4990  177.5890  145.8890 C   0  0  0  0  0  0  0  0  0  0  0  0
  188.8240  176.8960  145.8630 C   0  0  0  0  0  2  0  0  0  0  0  0
  191.6800  176.1970  145.6800 N   0  0  0  0  0  2  0  0  0  0  0  0
  191.8600  177.8670  144.0570 O   0  0  0  0  0  0  0  0  0  0  0  0
  189.7560  177.6070  144.9990 N   0  0  0  0  0  2  0  0  0  0  0  0
  191.1310  177.2450  144.8750 C   0  0  0  0  0  0  0  0  0  0  0  0
  193.0830  175.8120  145.6200 C   0  0  0  0  0  2  0  0  0  0  0  0
  193.9070  176.6520  146.5830 C   0  0  0  0  0  2  0  0  0  0  0  0
  194.7480  177.5060  145.8700 O   0  0  0  0  0  1  0  0  0  0  0  0
  186.3960  176.7080  143.5420 S   0  0  0  0  0  0  0  0  0  0  0  0
  187.6760  177.0860  142.3080 C   0  0  0  0  0  2  0  0  0  0  0  0
  187.5910  176.1000  141.1550 C   0  0  0  0  0  2  0  0  0  0  0  0
  188.2930  174.7990  141.5130 C   0  0  1  0  0  3  0  0  0  0  0  0
  188.7140  172.7120  140.4660 O   0  0  0  0  0  0  0  0  0  0  0  0
  188.4780  173.9370  140.2990 C   0  0  0  0  0  0  0  0  0  0  0  0
  188.4520  173.6060  137.8380 C   0  0  0  0  0  1  0  0  0  0  0  0
  188.3940  174.4330  138.9910 O   0  0  0  0  0  0  0  0  0  0  0  0
  189.6150  175.0690  142.2230 C   0  0  0  0  0  2  0  0  0  0  0  0
  189.7850  174.1540  143.4250 C   0  0  0  0  0  2  0  0  0  0  0  0
  191.1090  173.2130  143.2610 C   0  0  0  0  0  2  0  0  0  0  0  0
  191.1830  173.1970  143.9850 O   0  0  0  0  0  0  0  0  0  0  0  0
  191.0340  171.9550  144.1380 C   0  0  0  0  0  2  0  0  0  0  0  0
  192.1200  171.1000  144.2650 O   0  0  0  0  0  1  0  0  0  0  0  0
  1  5  2  0  0  0  0
  2  5  1  0  0  0  0
  3  6  2  0  0  0  0
  4 16  1  6  0  0  0
  4  6  1  0  0  0  0
  4  7  1  0  0  0  0
  6  1  1  0  0  0  0
  7  2  2  0  0  0  0
  8  7  1  0  0  0  0
 10 12  2  0  0  0  0
 11  8  1  0  0  0  0
 12 11  1  0  0  0  0
 12  9  1  0  0  0  0
 13  9  1  0  0  0  0
 13 14  1  0  0  0  0
 15 14  1  0  0  0  0
 17 16  1  0  0  0  0
 18 17  1  0  0  0  0
 19 18  1  6  0  0  0
 19 24  1  0  0  0  0
 21 20  2  0  0  0  0
 21 19  1  0  0  0  0
 22 23  1  0  0  0  0
 23 21  1  0  0  0  0
 24 25  1  0  0  0  0
 26 25  1  0  0  0  0
 26 27  1  0  0  0  0
 27 28  1  0  0  0  0
 28 29  1  0  0  0  0
M  END
>  <MODEL>
6

>  <REMARK>
 VINA RESULT:      -5.6      2.470      6.522
  Name = 
  14 active torsions:
  status: ('A' for Active; 'I' for Inactive)
    1  A    between atoms: C_2  and  C_13
    2  A    between atoms: C_2  and  C_17
    3  A    between atoms: C_6  and  C_11
    4  A    between atoms: C_7  and  N_24
    5  A    between atoms: C_7  and  C_26
    6  A    between atoms: N_9  and  C_11
    7  A    between atoms: C_10  and  C_19
    8  A    between atoms: C_10  and  C_25
    9  A    between atoms: C_10  and  C_29
   10  A    between atoms: C_15  and  S_28
   11  A    between atoms: C_17  and  C_25
   12  A    between atoms: C_18  and  S_28
   13  A    between atoms: C_18  and  C_29
   14  A    between atoms: C_19  and  O_23
                            x       y       z     vdW  Elec       q    Type
                         _______ _______ _______ _____ _____    ______ ____

>  <TORSDO>
F 14

$$$$
=
 OpenBabel11042417263D

 29 28  0  0  1  0  0  0  0  0999 V2000
  184.2970  178.6950  145.6600 C   0  0  0  0  0  3  0  0  0  0  0  0
  185.7860  179.1460  143.7770 C   0  0  0  0  0  3  0  0  0  0  0  0
  184.6680  176.6790  146.8300 O   0  0  0  0  0  0  0  0  0  0  0  0
  186.3950  177.2410  145.2670 C   0  0  1  0  0  3  0  0  0  0  0  0
  184.6390  179.4790  144.6380 C   0  0  0  0  0  3  0  0  0  0  0  0
  185.0820  177.4890  145.9610 C   0  0  0  0  0  0  0  0  0  0  0  0
  186.5790  178.0980  144.0310 C   0  0  0  0  0  0  0  0  0  0  0  0
  187.6970  177.7950  143.0860 C   0  0  0  0  0  2  0  0  0  0  0  0
  188.2130  175.6340  141.1520 N   0  0  0  0  0  2  0  0  0  0  0  0
  186.9450  176.8630  139.6230 O   0  0  0  0  0  0  0  0  0  0  0  0
  187.2280  177.8410  141.7080 N   0  0  0  0  0  2  0  0  0  0  0  0
  187.4380  176.7770  140.7800 C   0  0  0  0  0  0  0  0  0  0  0  0
  188.4890  174.5380  140.2330 C   0  0  0  0  0  2  0  0  0  0  0  0
  188.6180  173.2270  140.9910 C   0  0  0  0  0  2  0  0  0  0  0  0
  187.6980  173.1910  142.0400 O   0  0  0  0  0  1  0  0  0  0  0  0
  187.7560  177.5340  146.4390 S   0  0  0  0  0  0  0  0  0  0  0  0
  188.0490  175.7530  146.6500 C   0  0  0  0  0  2  0  0  0  0  0  0
  189.5420  175.4700  146.6420 C   0  0  0  0  0  2  0  0  0  0  0  0
  190.1800  176.0100  145.3700 C   0  0  1  0  0  3  0  0  0  0  0  0
  191.9750  176.5300  146.8310 O   0  0  0  0  0  0  0  0  0  0  0  0
  191.5630  176.5250  145.6420 C   0  0  0  0  0  0  0  0  0  0  0  0
  193.7190  176.4760  144.4110 C   0  0  0  0  0  1  0  0  0  0  0  0
  192.4150  176.9930  144.6320 O   0  0  0  0  0  0  0  0  0  0  0  0
  190.1730  174.9590  144.2660 C   0  0  0  0  0  2  0  0  0  0  0  0
  191.0500  173.7740  144.6370 C   0  0  0  0  0  1  0  0  0  0  0  0
  190.2720  172.3640  144.3640 C   0  0  0  0  0  1  0  0  0  0  0  0
  190.9990  172.3810  144.3360 O   0  0  0  0  0  0  0  0  0  0  0  0
  191.1610  171.3490  143.6330 C   0  0  0  0  0  2  0  0  0  0  0  0
  191.3620  171.4250  142.2610 O   0  0  0  0  0  1  0  0  0  0  0  0
  1  6  1  0  0  0  0
  2  7  2  0  0  0  0
  2  5  1  0  0  0  0
  4  6  1  0  0  0  0
  4 16  1  1  0  0  0
  5  1  2  0  0  0  0
  6  3  2  0  0  0  0
  7  4  1  0  0  0  0
  8  7  1  0  0  0  0
 10 12  2  0  0  0  0
 11  8  1  0  0  0  0
 12  9  1  0  0  0  0
 12 11  1  0  0  0  0
 13 14  1  0  0  0  0
 13  9  1  0  0  0  0
 14 15  1  0  0  0  0
 16 17  1  0  0  0  0
 18 17  1  0  0  0  0
 19 24  1  6  0  0  0
 19 21  1  0  0  0  0
 19 18  1  0  0  0  0
 21 20  2  0  0  0  0
 22 23  1  0  0  0  0
 23 21  1  0  0  0  0
 24 25  1  0  0  0  0
 27 26  1  0  0  0  0
 28 27  1  0  0  0  0
 29 28  1  0  0  0  0
M  END
>  <MODEL>
7

>  <REMARK>
 VINA RESULT:      -5.6      2.119      6.133
  Name = 
  14 active torsions:
  status: ('A' for Active; 'I' for Inactive)
    1  A    between atoms: C_2  and  C_13
    2  A    between atoms: C_2  and  C_17
    3  A    between atoms: C_6  and  C_11
    4  A    between atoms: C_7  and  N_24
    5  A    between atoms: C_7  and  C_26
    6  A    between atoms: N_9  and  C_11
    7  A    between atoms: C_10  and  C_19
    8  A    between atoms: C_10  and  C_25
    9  A    between atoms: C_10  and  C_29
   10  A    between atoms: C_15  and  S_28
   11  A    between atoms: C_17  and  C_25
   12  A    between atoms: C_18  and  S_28
   13  A    between atoms: C_18  and  C_29
   14  A    between atoms: C_19  and  O_23
                            x       y       z     vdW  Elec       q    Type
                         _______ _______ _______ _____ _____    ______ ____

>  <TORSDO>
F 14

$$$$
=
 OpenBabel11042417263D

 29 29  0  0  1  0  0  0  0  0999 V2000
  184.0580  178.7970  145.3760 C   0  0  0  0  0  3  0  0  0  0  0  0
  185.5530  177.8420  147.0540 C   0  0  0  0  0  3  0  0  0  0  0  0
  185.0630  179.5190  143.3660 O   0  0  0  0  0  0  0  0  0  0  0  0
  186.5120  178.2450  144.7870 C   0  0  1  0  0  3  0  0  0  0  0  0
  184.2270  178.2850  146.5940 C   0  0  0  0  0  3  0  0  0  0  0  0
  185.1990  178.9030  144.4550 C   0  0  0  0  0  0  0  0  0  0  0  0
  186.6200  177.8540  146.2470 C   0  0  0  0  0  0  0  0  0  0  0  0
  187.9450  177.4330  146.7980 C   0  0  0  0  0  2  0  0  0  0  0  0
  190.4950  175.9890  146.5030 N   0  0  0  0  0  2  0  0  0  0  0  0
  189.2860  174.0240  146.8680 O   0  0  0  0  0  0  0  0  0  0  0  0
  188.0390  175.9810  146.8490 N   0  0  0  0  0  2  0  0  0  0  0  0
  189.2780  175.2790  146.7500 C   0  0  0  0  0  0  0  0  0  0  0  0
  191.7800  175.3190  146.3570 C   0  0  0  0  0  2  0  0  0  0  0  0
  192.8390  176.0090  147.2010 C   0  0  0  0  0  2  0  0  0  0  0  0
  193.7240  176.7070  146.3790 O   0  0  0  0  0  1  0  0  0  0  0  0
  186.7310  176.7800  143.7300 S   0  0  0  0  0  0  0  0  0  0  0  0
  188.0290  177.5950  142.7530 C   0  0  0  0  0  2  0  0  0  0  0  0
  189.3620  177.4890  143.4730 C   0  0  0  0  0  2  0  0  0  0  0  0
  190.2850  176.5210  142.7470 C   0  0  1  0  0  3  0  0  0  0  0  0
  192.0010  177.8310  143.7300 O   0  0  0  0  0  0  0  0  0  0  0  0
  191.7190  176.7720  143.1110 C   0  0  0  0  0  0  0  0  0  0  0  0
  194.1260  176.1710  143.0140 C   0  0  0  0  0  1  0  0  0  0  0  0
  192.7530  175.8790  142.7990 O   0  0  0  0  0  0  0  0  0  0  0  0
  189.8780  175.0750  143.0110 C   0  0  0  0  0  2  0  0  0  0  0  0
  190.0760  174.2180  141.7710 C   0  0  0  0  0  2  0  0  0  0  0  0
  188.6750  174.0460  140.9500 C   0  0  0  0  0  2  0  0  0  0  0  0
  188.5950  174.4800  140.3720 O   0  0  0  0  0  0  0  0  0  0  0  0
  188.9100  173.6390  139.4890 C   0  0  0  0  0  2  0  0  0  0  0  0
  187.9490  172.9370  138.7730 O   0  0  0  0  0  1  0  0  0  0  0  0
  1  5  2  0  0  0  0
  3  6  2  0  0  0  0
  4 16  1  6  0  0  0
  4  7  1  0  0  0  0
  5  2  1  0  0  0  0
  6  4  1  0  0  0  0
  6  1  1  0  0  0  0
  7  8  1  0  0  0  0
  7  2  2  0  0  0  0
  8 11  1  0  0  0  0
  9 12  1  0  0  0  0
 12 11  1  0  0  0  0
 12 10  2  0  0  0  0
 13  9  1  0  0  0  0
 13 14  1  0  0  0  0
 15 14  1  0  0  0  0
 17 18  1  0  0  0  0
 17 16  1  0  0  0  0
 19 24  1  1  0  0  0
 19 21  1  0  0  0  0
 19 18  1  0  0  0  0
 21 20  2  0  0  0  0
 23 22  1  0  0  0  0
 23 21  1  0  0  0  0
 25 24  1  0  0  0  0
 26 25  1  0  0  0  0
 27 26  1  0  0  0  0
 28 27  1  0  0  0  0
 29 28  1  0  0  0  0
M  END
>  <MODEL>
8

>  <REMARK>
 VINA RESULT:      -5.6      2.398      6.645
  Name = 
  14 active torsions:
  status: ('A' for Active; 'I' for Inactive)
    1  A    between atoms: C_2  and  C_13
    2  A    between atoms: C_2  and  C_17
    3  A    between atoms: C_6  and  C_11
    4  A    between atoms: C_7  and  N_24
    5  A    between atoms: C_7  and  C_26
    6  A    between atoms: N_9  and  C_11
    7  A    between atoms: C_10  and  C_19
    8  A    between atoms: C_10  and  C_25
    9  A    between atoms: C_10  and  C_29
   10  A    between atoms: C_15  and  S_28
   11  A    between atoms: C_17  and  C_25
   12  A    between atoms: C_18  and  S_28
   13  A    between atoms: C_18  and  C_29
   14  A    between atoms: C_19  and  O_23
                            x       y       z     vdW  Elec       q    Type
                         _______ _______ _______ _____ _____    ______ ____

>  <TORSDO>
F 14

$$$$
=
 OpenBabel11042417263D

 29 28  0  0  1  0  0  0  0  0999 V2000
  189.7060  173.4470  143.7740 C   0  0  0  0  0  3  0  0  0  0  0  0
  189.4880  174.5350  145.9500 C   0  0  0  0  0  3  0  0  0  0  0  0
  188.7100  174.5550  141.9430 O   0  0  0  0  0  0  0  0  0  0  0  0
  188.8010  175.8600  143.9510 C   0  0  1  0  0  3  0  0  0  0  0  0
  189.9240  173.4240  145.0880 C   0  0  0  0  0  3  0  0  0  0  0  0
  189.0440  174.6050  143.1560 C   0  0  0  0  0  0  0  0  0  0  0  0
  188.9350  175.6450  145.4450 C   0  0  0  0  0  0  0  0  0  0  0  0
  188.4740  176.7110  146.3850 C   0  0  0  0  0  2  0  0  0  0  0  0
  186.2100  178.1810  145.2050 N   0  0  0  0  0  2  0  0  0  0  0  0
  184.8160  176.8590  146.5330 O   0  0  0  0  0  0  0  0  0  0  0  0
  187.0920  176.4810  146.7810 N   0  0  0  0  0  2  0  0  0  0  0  0
  185.9880  177.1600  146.1820 C   0  0  0  0  0  0  0  0  0  0  0  0
  185.1230  178.9300  144.5890 C   0  0  0  0  0  2  0  0  0  0  0  0
  184.9800  178.5510  143.1240 C   0  0  0  0  0  2  0  0  0  0  0  0
  186.0700  179.0320  142.3980 O   0  0  0  0  0  1  0  0  0  0  0  0
  189.9600  177.1500  143.4000 S   0  0  0  0  0  0  0  0  0  0  0  0
  191.3600  175.9920  143.4060 C   0  0  0  0  0  2  0  0  0  0  0  0
  192.4730  176.5290  144.2900 C   0  0  0  0  0  2  0  0  0  0  0  0
  193.3040  175.3860  144.8550 C   0  0  1  0  0  3  0  0  0  0  0  0
  195.5860  175.2760  145.4920 O   0  0  0  0  0  0  0  0  0  0  0  0
  194.7650  175.6080  144.5970 C   0  0  0  0  0  0  0  0  0  0  0  0
  196.6270  176.4630  143.1940 C   0  0  0  0  0  1  0  0  0  0  0  0
  195.2560  176.1610  143.4070 O   0  0  0  0  0  0  0  0  0  0  0  0
  193.0140  175.1810  146.3370 C   0  0  0  0  0  2  0  0  0  0  0  0
  192.6940  176.5020  147.0180 C   0  0  0  0  0  1  0  0  0  0  0  0
  191.6490  176.2850  148.2540 C   0  0  0  0  0  1  0  0  0  0  0  0
  191.8190  176.9440  147.9980 O   0  0  0  0  0  0  0  0  0  0  0  0
  191.0760  177.6140  148.7640 C   0  0  0  0  0  2  0  0  0  0  0  0
  191.5680  178.2150  149.9150 O   0  0  0  0  0  1  0  0  0  0  0  0
  1  5  2  0  0  0  0
  3  6  2  0  0  0  0
  4 16  1  6  0  0  0
  4  7  1  0  0  0  0
  5  2  1  0  0  0  0
  6  1  1  0  0  0  0
  6  4  1  0  0  0  0
  7  2  2  0  0  0  0
  7  8  1  0  0  0  0
  8 11  1  0  0  0  0
  9 12  1  0  0  0  0
 12 10  2  0  0  0  0
 12 11  1  0  0  0  0
 13  9  1  0  0  0  0
 14 13  1  0  0  0  0
 15 14  1  0  0  0  0
 16 17  1  0  0  0  0
 17 18  1  0  0  0  0
 19 18  1  1  0  0  0
 19 24  1  0  0  0  0
 21 19  1  0  0  0  0
 21 20  2  0  0  0  0
 22 23  1  0  0  0  0
 23 21  1  0  0  0  0
 24 25  1  0  0  0  0
 27 26  1  0  0  0  0
 27 28  1  0  0  0  0
 28 29  1  0  0  0  0
M  END
>  <MODEL>
9

>  <REMARK>
 VINA RESULT:      -5.6      2.602      6.494
  Name = 
  14 active torsions:
  status: ('A' for Active; 'I' for Inactive)
    1  A    between atoms: C_2  and  C_13
    2  A    between atoms: C_2  and  C_17
    3  A    between atoms: C_6  and  C_11
    4  A    between atoms: C_7  and  N_24
    5  A    between atoms: C_7  and  C_26
    6  A    between atoms: N_9  and  C_11
    7  A    between atoms: C_10  and  C_19
    8  A    between atoms: C_10  and  C_25
    9  A    between atoms: C_10  and  C_29
   10  A    between atoms: C_15  and  S_28
   11  A    between atoms: C_17  and  C_25
   12  A    between atoms: C_18  and  S_28
   13  A    between atoms: C_18  and  C_29
   14  A    between atoms: C_19  and  O_23
                            x       y       z     vdW  Elec       q    Type
                         _______ _______ _______ _____ _____    ______ ____

>  <TORSDO>
F 14

$$$$
