=
 OpenBabel11042414513D

 32 35  0  0  1  0  0  0  0  0999 V2000
  192.3430  175.8550  144.4600 C   0  0  0  0  0  0  0  0  0  0  0  0
  192.8110  174.8800  142.0570 S   0  0  0  0  0  0  0  0  0  0  0  0
  191.7320  175.4100  143.3690 C   0  0  0  0  0  0  0  0  0  0  0  0
  194.1930  175.7220  142.9020 C   0  0  1  0  0  3  0  0  0  0  0  0
  193.8280  175.9530  144.3640 C   0  0  1  0  0  3  0  0  0  0  0  0
  194.2500  177.2140  144.7440 F   0  0  0  0  0  0  0  0  0  0  0  0
  195.4920  174.9370  142.7650 C   0  0  0  0  0  2  0  0  0  0  0  0
  195.6010  173.9230  143.8040 N   0  0  0  0  0  2  0  0  0  0  0  0
  196.8420  172.5150  145.8580 S   0  0  0  0  0  1  0  0  0  0  0  0
  196.7760  173.7810  144.6000 C   0  0  0  0  0  0  0  0  0  0  0  0
  197.7670  174.5380  144.4260 O   0  0  0  0  0  0  0  0  0  0  0  0
  190.3120  175.2320  143.2650 N   0  0  0  0  0  2  0  0  0  0  0  0
  187.4870  176.4020  141.1050 C   0  0  0  0  0  3  0  0  0  0  0  0
  189.5720  177.4640  142.5940 C   0  0  0  0  0  3  0  0  0  0  0  0
  188.7150  178.2800  141.9230 N   0  0  0  0  0  0  0  0  0  0  0  0
  188.3560  175.5490  141.7850 C   0  0  0  0  0  3  0  0  0  0  0  0
  189.4200  176.0770  142.5270 C   0  0  0  0  0  0  0  0  0  0  0  0
  187.6870  177.7820  141.1850 C   0  0  0  0  0  3  0  0  0  0  0  0
  191.6310  176.0990  145.6780 N   0  0  0  0  0  2  0  0  0  0  0  0
  189.9970  175.0550  147.2360 C   0  0  1  0  0  3  0  0  0  0  0  0
  191.4340  175.0850  146.7050 C   0  0  2  0  0  3  0  0  0  0  0  0
  191.0870  175.7620  148.0150 C   0  0  0  0  0  2  0  0  0  0  0  0
  189.0680  176.0780  146.5850 C   0  0  0  0  0  2  0  0  0  0  0  0
  187.7570  175.9660  147.1260 O   0  0  0  0  0  0  0  0  0  0  0  0
  186.3160  176.8350  145.3530 C   0  0  0  0  0  3  0  0  0  0  0  0
  185.2360  177.6330  144.9750 C   0  0  0  0  0  0  0  0  0  0  0  0
  186.6860  176.7620  146.7040 C   0  0  0  0  0  0  0  0  0  0  0  0
  183.4810  179.1340  145.6060 F   0  0  0  0  0  0  0  0  0  0  0  0
  184.9290  178.2560  147.2830 C   0  0  0  0  0  3  0  0  0  0  0  0
  185.9840  177.4710  147.6290 N   0  0  0  0  0  0  0  0  0  0  0  0
  184.5340  178.3520  145.9460 C   0  0  0  0  0  0  0  0  0  0  0  0
  184.7780  177.7170  143.2850 Cl  0  0  0  0  0  0  0  0  0  0  0  0
  1 19  1  0  0  0  0
  2  4  1  0  0  0  0
  2  3  1  0  0  0  0
  3  1  2  0  0  0  0
  4  7  1  1  0  0  0
  4  5  1  0  0  0  0
  5  1  1  0  0  0  0
  5  6  1  6  0  0  0
  7  8  1  0  0  0  0
  8 10  1  0  0  0  0
 10  9  1  0  0  0  0
 11 10  2  0  0  0  0
 12  3  1  0  0  0  0
 13 18  2  0  0  0  0
 13 16  1  0  0  0  0
 15 14  2  0  0  0  0
 16 17  2  0  0  0  0
 17 14  1  0  0  0  0
 17 12  1  0  0  0  0
 18 15  1  0  0  0  0
 20 23  1  6  0  0  0
 20 22  1  0  0  0  0
 21 19  1  6  0  0  0
 21 20  1  0  0  0  0
 21 22  1  0  0  0  0
 23 24  1  0  0  0  0
 25 27  1  0  0  0  0
 26 25  2  0  0  0  0
 26 31  1  0  0  0  0
 27 24  1  0  0  0  0
 27 30  2  0  0  0  0
 28 31  1  0  0  0  0
 29 30  1  0  0  0  0
 31 29  2  0  0  0  0
 32 26  1  0  0  0  0
M  END
>  <MODEL>
1

>  <REMARK>
 VINA RESULT:      -7.2      0.000      0.000
  Name = 
  9 active torsions:
  status: ('A' for Active; 'I' for Inactive)
    1  A    between atoms: C_3  and  O_8
    2  A    between atoms: C_4  and  C_20
    3  A    between atoms: N_5  and  C_9
    4  A    between atoms: C_6  and  N_30
    5  A    between atoms: O_8  and  C_20
    6  A    between atoms: C_9  and  C_23
    7  A    between atoms: C_13  and  N_30
    8  A    between atoms: N_17  and  C_22
    9  A    between atoms: N_17  and  C_26
                            x       y       z     vdW  Elec       q    Type
                         _______ _______ _______ _____ _____    ______ ____

>  <TORSDO>
F 9

$$$$
=
 OpenBabel11042414513D

 32 35  0  0  1  0  0  0  0  0999 V2000
  193.0730  176.2380  144.9410 C   0  0  0  0  0  0  0  0  0  0  0  0
  194.1090  175.0890  142.8080 S   0  0  0  0  0  0  0  0  0  0  0  0
  192.7460  175.7090  143.7680 C   0  0  0  0  0  0  0  0  0  0  0  0
  195.2490  176.0010  143.9040 C   0  0  1  0  0  3  0  0  0  0  0  0
  194.5350  176.3380  145.2090 C   0  0  1  0  0  3  0  0  0  0  0  0
  194.8660  177.6260  145.5880 F   0  0  0  0  0  0  0  0  0  0  0  0
  196.5310  175.2170  144.1520 C   0  0  0  0  0  2  0  0  0  0  0  0
  196.2520  173.7970  144.3150 N   0  0  0  0  0  2  0  0  0  0  0  0
  196.1880  171.3590  145.6540 S   0  0  0  0  0  1  0  0  0  0  0  0
  196.5580  173.1010  145.5220 C   0  0  0  0  0  0  0  0  0  0  0  0
  197.0870  173.7010  146.4950 O   0  0  0  0  0  0  0  0  0  0  0  0
  191.3930  175.5140  143.3290 N   0  0  0  0  0  2  0  0  0  0  0  0
  189.8300  172.3210  144.5020 C   0  0  0  0  0  3  0  0  0  0  0  0
  190.0590  173.8190  142.1790 C   0  0  0  0  0  3  0  0  0  0  0  0
  189.3590  172.6520  142.1840 N   0  0  0  0  0  0  0  0  0  0  0  0
  190.5540  173.5130  144.5160 C   0  0  0  0  0  3  0  0  0  0  0  0
  190.6860  174.2680  143.3430 C   0  0  0  0  0  0  0  0  0  0  0  0
  189.2350  171.9010  143.3100 C   0  0  0  0  0  3  0  0  0  0  0  0
  192.0840  176.5670  145.9220 N   0  0  0  0  0  2  0  0  0  0  0  0
  190.4430  175.6680  147.5630 C   0  0  1  0  0  3  0  0  0  0  0  0
  191.9150  175.8270  147.1660 C   0  0  2  0  0  3  0  0  0  0  0  0
  191.3000  176.7370  148.2090 C   0  0  0  0  0  2  0  0  0  0  0  0
  189.4590  176.3050  146.5830 C   0  0  0  0  0  2  0  0  0  0  0  0
  188.1280  175.9160  146.8990 O   0  0  0  0  0  0  0  0  0  0  0  0
  186.5540  176.8170  145.2610 C   0  0  0  0  0  3  0  0  0  0  0  0
  185.4280  177.5940  144.9890 C   0  0  0  0  0  0  0  0  0  0  0  0
  187.0090  176.6930  146.5830 C   0  0  0  0  0  0  0  0  0  0  0  0
  183.6690  179.0020  145.7980 F   0  0  0  0  0  0  0  0  0  0  0  0
  185.2440  178.0970  147.3390 C   0  0  0  0  0  3  0  0  0  0  0  0
  186.3430  177.3330  147.5820 N   0  0  0  0  0  0  0  0  0  0  0  0
  184.7650  178.2420  146.0350 C   0  0  0  0  0  0  0  0  0  0  0  0
  184.8630  177.7410  143.3360 Cl  0  0  0  0  0  0  0  0  0  0  0  0
  1  5  1  0  0  0  0
  1 19  1  0  0  0  0
  2  3  1  0  0  0  0
  2  4  1  0  0  0  0
  3  1  2  0  0  0  0
  4  7  1  1  0  0  0
  4  5  1  0  0  0  0
  5  6  1  6  0  0  0
  7  8  1  0  0  0  0
  8 10  1  0  0  0  0
 10  9  1  0  0  0  0
 10 11  2  0  0  0  0
 12 17  1  0  0  0  0
 12  3  1  0  0  0  0
 13 16  1  0  0  0  0
 14 15  2  0  0  0  0
 14 17  1  0  0  0  0
 15 18  1  0  0  0  0
 17 16  2  0  0  0  0
 18 13  2  0  0  0  0
 20 23  1  6  0  0  0
 20 22  1  0  0  0  0
 21 19  1  6  0  0  0
 21 20  1  0  0  0  0
 21 22  1  0  0  0  0
 23 24  1  0  0  0  0
 25 27  1  0  0  0  0
 26 25  2  0  0  0  0
 26 31  1  0  0  0  0
 27 24  1  0  0  0  0
 27 30  2  0  0  0  0
 28 31  1  0  0  0  0
 29 30  1  0  0  0  0
 31 29  2  0  0  0  0
 32 26  1  0  0  0  0
M  END
>  <MODEL>
2

>  <REMARK>
 VINA RESULT:      -7.0      1.761      2.306
  Name = 
  9 active torsions:
  status: ('A' for Active; 'I' for Inactive)
    1  A    between atoms: C_3  and  O_8
    2  A    between atoms: C_4  and  C_20
    3  A    between atoms: N_5  and  C_9
    4  A    between atoms: C_6  and  N_30
    5  A    between atoms: O_8  and  C_20
    6  A    between atoms: C_9  and  C_23
    7  A    between atoms: C_13  and  N_30
    8  A    between atoms: N_17  and  C_22
    9  A    between atoms: N_17  and  C_26
                            x       y       z     vdW  Elec       q    Type
                         _______ _______ _______ _____ _____    ______ ____

>  <TORSDO>
F 9

$$$$
=
 OpenBabel11042414513D

 32 35  0  0  1  0  0  0  0  0999 V2000
  188.4960  175.7570  142.0880 C   0  0  0  0  0  0  0  0  0  0  0  0
  190.3440  173.9350  142.5370 S   0  0  0  0  0  0  0  0  0  0  0  0
  188.9850  174.6170  141.6150 C   0  0  0  0  0  0  0  0  0  0  0  0
  190.5300  175.5410  143.3850 C   0  0  1  0  0  3  0  0  0  0  0  0
  189.2410  176.3420  143.2390 C   0  0  1  0  0  3  0  0  0  0  0  0
  189.5550  177.6650  142.9830 F   0  0  0  0  0  0  0  0  0  0  0  0
  190.9150  175.3590  144.8470 C   0  0  0  0  0  2  0  0  0  0  0  0
  191.9790  176.2790  145.2250 N   0  0  0  0  0  2  0  0  0  0  0  0
  194.4100  177.0240  146.3560 S   0  0  0  0  0  1  0  0  0  0  0  0
  193.1430  175.8410  145.9250 C   0  0  0  0  0  0  0  0  0  0  0  0
  193.2860  174.6310  146.2410 O   0  0  0  0  0  0  0  0  0  0  0  0
  188.4040  173.8910  140.5230 N   0  0  0  0  0  2  0  0  0  0  0  0
  188.4330  174.6660  136.8600 C   0  0  0  0  0  3  0  0  0  0  0  0
  190.0850  173.5390  138.7820 C   0  0  0  0  0  3  0  0  0  0  0  0
  190.4990  173.6470  137.4900 N   0  0  0  0  0  0  0  0  0  0  0  0
  187.9900  174.5630  138.1780 C   0  0  0  0  0  3  0  0  0  0  0  0
  188.8130  173.9830  139.1520 C   0  0  0  0  0  0  0  0  0  0  0  0
  189.7050  174.1940  136.5310 C   0  0  0  0  0  3  0  0  0  0  0  0
  187.2670  176.3100  141.6030 N   0  0  0  0  0  2  0  0  0  0  0  0
  185.8620  178.3220  141.1950 C   0  0  1  0  0  3  0  0  0  0  0  0
  187.1830  177.5950  140.9210 C   0  0  2  0  0  3  0  0  0  0  0  0
  186.0590  177.5500  139.9070 C   0  0  0  0  0  2  0  0  0  0  0  0
  184.9120  177.5660  142.1220 C   0  0  0  0  0  2  0  0  0  0  0  0
  184.5220  178.3950  143.2110 O   0  0  0  0  0  0  0  0  0  0  0  0
  186.0280  177.3770  144.8440 C   0  0  0  0  0  3  0  0  0  0  0  0
  186.3710  177.1570  146.1780 C   0  0  0  0  0  0  0  0  0  0  0  0
  184.8940  178.1430  144.5350 C   0  0  0  0  0  0  0  0  0  0  0  0
  185.8910  177.5040  148.4980 F   0  0  0  0  0  0  0  0  0  0  0  0
  184.4580  178.4600  146.8520 C   0  0  0  0  0  3  0  0  0  0  0  0
  184.1430  178.6630  145.5440 N   0  0  0  0  0  0  0  0  0  0  0  0
  185.5800  177.7020  147.1940 C   0  0  0  0  0  0  0  0  0  0  0  0
  187.7910  176.2020  146.5560 Cl  0  0  0  0  0  0  0  0  0  0  0  0
  1  5  1  0  0  0  0
  2  4  1  0  0  0  0
  3  1  2  0  0  0  0
  3  2  1  0  0  0  0
  4  7  1  1  0  0  0
  5  6  1  6  0  0  0
  5  4  1  0  0  0  0
  7  8  1  0  0  0  0
  8 10  1  0  0  0  0
 10 11  2  0  0  0  0
 10  9  1  0  0  0  0
 12  3  1  0  0  0  0
 13 16  1  0  0  0  0
 14 17  1  0  0  0  0
 15 14  2  0  0  0  0
 16 17  2  0  0  0  0
 17 12  1  0  0  0  0
 18 13  2  0  0  0  0
 18 15  1  0  0  0  0
 19  1  1  0  0  0  0
 20 23  1  1  0  0  0
 21 20  1  0  0  0  0
 21 19  1  1  0  0  0
 22 21  1  0  0  0  0
 22 20  1  0  0  0  0
 23 24  1  0  0  0  0
 24 27  1  0  0  0  0
 25 26  2  0  0  0  0
 26 32  1  0  0  0  0
 26 31  1  0  0  0  0
 27 25  1  0  0  0  0
 27 30  2  0  0  0  0
 29 31  2  0  0  0  0
 30 29  1  0  0  0  0
 31 28  1  0  0  0  0
M  END
>  <MODEL>
3

>  <REMARK>
 VINA RESULT:      -6.8      3.237      4.943
  Name = 
  9 active torsions:
  status: ('A' for Active; 'I' for Inactive)
    1  A    between atoms: C_3  and  O_8
    2  A    between atoms: C_4  and  C_20
    3  A    between atoms: N_5  and  C_9
    4  A    between atoms: C_6  and  N_30
    5  A    between atoms: O_8  and  C_20
    6  A    between atoms: C_9  and  C_23
    7  A    between atoms: C_13  and  N_30
    8  A    between atoms: N_17  and  C_22
    9  A    between atoms: N_17  and  C_26
                            x       y       z     vdW  Elec       q    Type
                         _______ _______ _______ _____ _____    ______ ____

>  <TORSDO>
F 9

$$$$
=
 OpenBabel11042414513D

 32 35  0  0  1  0  0  0  0  0999 V2000
  189.3880  175.9770  143.9890 C   0  0  0  0  0  0  0  0  0  0  0  0
  187.1910  175.7190  142.5580 S   0  0  0  0  0  0  0  0  0  0  0  0
  188.2540  176.5960  143.6820 C   0  0  0  0  0  0  0  0  0  0  0  0
  188.5890  174.6180  142.1500 C   0  0  1  0  0  3  0  0  0  0  0  0
  189.6410  174.7070  143.2500 C   0  0  1  0  0  3  0  0  0  0  0  0
  190.8990  174.7310  142.6750 F   0  0  0  0  0  0  0  0  0  0  0  0
  188.1250  173.1830  141.9330 C   0  0  0  0  0  2  0  0  0  0  0  0
  189.1500  172.2350  142.3460 N   0  0  0  0  0  2  0  0  0  0  0  0
  191.2540  170.4510  141.9830 S   0  0  0  0  0  1  0  0  0  0  0  0
  190.0190  171.6040  141.4060 C   0  0  0  0  0  0  0  0  0  0  0  0
  189.9230  171.8520  140.1750 O   0  0  0  0  0  0  0  0  0  0  0  0
  187.8230  177.8210  144.2920 N   0  0  0  0  0  2  0  0  0  0  0  0
  184.8040  177.5080  146.4840 C   0  0  0  0  0  3  0  0  0  0  0  0
  185.7710  179.1400  144.4610 C   0  0  0  0  0  3  0  0  0  0  0  0
  184.5600  179.3870  145.0300 N   0  0  0  0  0  0  0  0  0  0  0  0
  186.0470  177.2370  145.9120 C   0  0  0  0  0  3  0  0  0  0  0  0
  186.5360  178.0490  144.8800 C   0  0  0  0  0  0  0  0  0  0  0  0
  184.0650  178.5990  146.0220 C   0  0  0  0  0  3  0  0  0  0  0  0
  190.2360  176.4360  145.0470 N   0  0  0  0  0  2  0  0  0  0  0  0
  190.8190  175.6370  147.3300 C   0  0  1  0  0  3  0  0  0  0  0  0
  189.8420  176.4250  146.4500 C   0  0  2  0  0  3  0  0  0  0  0  0
  189.5230  175.0040  146.8670 C   0  0  0  0  0  2  0  0  0  0  0  0
  191.9990  175.0350  146.5710 C   0  0  0  0  0  2  0  0  0  0  0  0
  193.1210  175.9080  146.6310 O   0  0  0  0  0  0  0  0  0  0  0  0
  195.1460  174.6640  146.0610 C   0  0  0  0  0  2  0  0  0  0  0  0
  196.2730  174.5230  145.2510 C   0  0  0  0  0  0  0  0  0  0  0  0
  194.2660  175.7360  145.8470 C   0  0  0  0  0  0  0  0  0  0  0  0
  197.6010  175.3360  143.4320 F   0  0  0  0  0  0  0  0  0  0  0  0
  195.6180  176.5050  144.0470 C   0  0  0  0  0  2  0  0  0  0  0  0
  194.5250  176.6230  144.8480 N   0  0  0  0  0  0  0  0  0  0  0  0
  196.5140  175.4510  144.2340 C   0  0  0  0  0  0  0  0  0  0  0  0
  197.3650  173.1800  145.5220 Cl  0  0  0  0  0  0  0  0  0  0  0  0
  1 19  1  0  0  0  0
  2  3  1  0  0  0  0
  3  1  2  0  0  0  0
  3 12  1  0  0  0  0
  4  7  1  1  0  0  0
  4  2  1  0  0  0  0
  4  5  1  0  0  0  0
  5  6  1  6  0  0  0
  5  1  1  0  0  0  0
  7  8  1  0  0  0  0
 10  9  1  0  0  0  0
 10  8  1  0  0  0  0
 11 10  2  0  0  0  0
 12 17  1  0  0  0  0
 14 17  2  0  0  0  0
 14 15  1  0  0  0  0
 15 18  2  0  0  0  0
 16 13  2  0  0  0  0
 17 16  1  0  0  0  0
 18 13  1  0  0  0  0
 20 23  1  6  0  0  0
 21 19  1  6  0  0  0
 21 22  1  0  0  0  0
 21 20  1  0  0  0  0
 22 20  1  0  0  0  0
 23 24  1  0  0  0  0
 26 32  1  0  0  0  0
 26 25  1  0  0  0  0
 27 25  1  0  0  0  0
 27 24  1  0  0  0  0
 28 31  1  0  0  0  0
 29 31  1  0  0  0  0
 29 30  1  0  0  0  0
 30 27  2  0  0  0  0
 31 26  2  0  0  0  0
M  END
>  <MODEL>
4

>  <REMARK>
 VINA RESULT:      -6.6      3.944      7.299
  Name = 
  9 active torsions:
  status: ('A' for Active; 'I' for Inactive)
    1  A    between atoms: C_3  and  O_8
    2  A    between atoms: C_4  and  C_20
    3  A    between atoms: N_5  and  C_9
    4  A    between atoms: C_6  and  N_30
    5  A    between atoms: O_8  and  C_20
    6  A    between atoms: C_9  and  C_23
    7  A    between atoms: C_13  and  N_30
    8  A    between atoms: N_17  and  C_22
    9  A    between atoms: N_17  and  C_26
                            x       y       z     vdW  Elec       q    Type
                         _______ _______ _______ _____ _____    ______ ____

>  <TORSDO>
F 9

$$$$
=
 OpenBabel11042414513D

 32 35  0  0  1  0  0  0  0  0999 V2000
  191.9060  174.6010  144.2600 C   0  0  0  0  0  0  0  0  0  0  0  0
  192.2700  174.5260  141.6510 S   0  0  0  0  0  0  0  0  0  0  0  0
  191.2540  174.6610  143.1050 C   0  0  0  0  0  0  0  0  0  0  0  0
  193.7380  174.8340  142.6920 C   0  0  1  0  0  3  0  0  0  0  0  0
  193.3920  174.5550  144.1500 C   0  0  1  0  0  3  0  0  0  0  0  0
  193.9620  175.5310  144.9470 F   0  0  0  0  0  0  0  0  0  0  0  0
  194.9320  174.0090  142.2300 C   0  0  0  0  0  2  0  0  0  0  0  0
  195.6560  174.6900  141.1650 N   0  0  0  0  0  2  0  0  0  0  0  0
  196.6390  175.0430  138.5860 S   0  0  0  0  0  1  0  0  0  0  0  0
  195.7350  174.1550  139.8440 C   0  0  0  0  0  0  0  0  0  0  0  0
  195.1740  173.0640  139.5570 O   0  0  0  0  0  0  0  0  0  0  0  0
  189.8240  174.6990  142.9970 N   0  0  0  0  0  2  0  0  0  0  0  0
  188.5040  178.1000  142.1570 C   0  0  0  0  0  3  0  0  0  0  0  0
  188.1650  175.4620  141.3710 C   0  0  0  0  0  3  0  0  0  0  0  0
  187.4570  176.4580  140.7740 N   0  0  0  0  0  0  0  0  0  0  0  0
  189.2380  177.0920  142.7820 C   0  0  0  0  0  3  0  0  0  0  0  0
  189.0630  175.7560  142.4000 C   0  0  0  0  0  0  0  0  0  0  0  0
  187.6050  177.7580  141.1440 C   0  0  0  0  0  3  0  0  0  0  0  0
  191.2200  174.4630  145.5080 N   0  0  0  0  0  2  0  0  0  0  0  0
  190.1510  176.0050  147.1420 C   0  0  1  0  0  3  0  0  0  0  0  0
  191.4430  175.3470  146.6450 C   0  0  2  0  0  3  0  0  0  0  0  0
  191.1040  176.7690  146.2460 C   0  0  0  0  0  2  0  0  0  0  0  0
  188.9020  175.6020  146.3600 C   0  0  0  0  0  2  0  0  0  0  0  0
  187.7350  175.8390  147.1380 O   0  0  0  0  0  0  0  0  0  0  0  0
  186.3200  176.7770  145.3790 C   0  0  0  0  0  3  0  0  0  0  0  0
  185.2780  177.6280  145.0120 C   0  0  0  0  0  0  0  0  0  0  0  0
  186.7020  176.6870  146.7270 C   0  0  0  0  0  0  0  0  0  0  0  0
  183.6090  179.2180  145.6590 F   0  0  0  0  0  0  0  0  0  0  0  0
  185.0290  178.2710  147.3210 C   0  0  0  0  0  3  0  0  0  0  0  0
  186.0470  177.4340  147.6580 N   0  0  0  0  0  0  0  0  0  0  0  0
  184.6250  178.3840  145.9890 C   0  0  0  0  0  0  0  0  0  0  0  0
  184.8040  177.7310  143.3280 Cl  0  0  0  0  0  0  0  0  0  0  0  0
  1 19  1  0  0  0  0
  2  4  1  0  0  0  0
  2  3  1  0  0  0  0
  3  1  2  0  0  0  0
  4  7  1  6  0  0  0
  4  5  1  0  0  0  0
  5  1  1  0  0  0  0
  5  6  1  1  0  0  0
  8  7  1  0  0  0  0
  9 10  1  0  0  0  0
 10  8  1  0  0  0  0
 11 10  2  0  0  0  0
 12  3  1  0  0  0  0
 13 16  1  0  0  0  0
 14 17  1  0  0  0  0
 15 18  1  0  0  0  0
 15 14  2  0  0  0  0
 17 16  2  0  0  0  0
 17 12  1  0  0  0  0
 18 13  2  0  0  0  0
 20 23  1  6  0  0  0
 21 19  1  6  0  0  0
 21 20  1  0  0  0  0
 22 21  1  0  0  0  0
 22 20  1  0  0  0  0
 23 24  1  0  0  0  0
 25 27  1  0  0  0  0
 26 25  2  0  0  0  0
 26 31  1  0  0  0  0
 27 24  1  0  0  0  0
 27 30  2  0  0  0  0
 28 31  1  0  0  0  0
 29 30  1  0  0  0  0
 31 29  2  0  0  0  0
 32 26  1  0  0  0  0
M  END
>  <MODEL>
5

>  <REMARK>
 VINA RESULT:      -6.5      1.918      2.280
  Name = 
  9 active torsions:
  status: ('A' for Active; 'I' for Inactive)
    1  A    between atoms: C_3  and  O_8
    2  A    between atoms: C_4  and  C_20
    3  A    between atoms: N_5  and  C_9
    4  A    between atoms: C_6  and  N_30
    5  A    between atoms: O_8  and  C_20
    6  A    between atoms: C_9  and  C_23
    7  A    between atoms: C_13  and  N_30
    8  A    between atoms: N_17  and  C_22
    9  A    between atoms: N_17  and  C_26
                            x       y       z     vdW  Elec       q    Type
                         _______ _______ _______ _____ _____    ______ ____

>  <TORSDO>
F 9

$$$$
=
 OpenBabel11042414513D

 32 35  0  0  1  0  0  0  0  0999 V2000
  191.2340  174.4330  142.3000 C   0  0  0  0  0  0  0  0  0  0  0  0
  193.1500  173.0230  143.4350 S   0  0  0  0  0  0  0  0  0  0  0  0
  191.5340  173.7670  143.4090 C   0  0  0  0  0  0  0  0  0  0  0  0
  193.2600  173.2860  141.6310 C   0  0  1  0  0  3  0  0  0  0  0  0
  192.2480  174.3470  141.2110 C   0  0  1  0  0  3  0  0  0  0  0  0
  191.6480  173.9580  140.0280 F   0  0  0  0  0  0  0  0  0  0  0  0
  194.6740  173.6600  141.2070 C   0  0  0  0  0  2  0  0  0  0  0  0
  195.3580  174.3950  142.2620 N   0  0  0  0  0  2  0  0  0  0  0  0
  196.4320  176.6400  143.5070 S   0  0  0  0  0  1  0  0  0  0  0  0
  195.5870  175.8010  142.1760 C   0  0  0  0  0  0  0  0  0  0  0  0
  195.1990  176.4560  141.1720 O   0  0  0  0  0  0  0  0  0  0  0  0
  190.6960  173.7370  144.5740 N   0  0  0  0  0  2  0  0  0  0  0  0
  189.2210  176.3520  146.8110 C   0  0  0  0  0  3  0  0  0  0  0  0
  191.6960  175.2530  146.2100 C   0  0  0  0  0  3  0  0  0  0  0  0
  191.5840  176.2370  147.1430 N   0  0  0  0  0  0  0  0  0  0  0  0
  189.3170  175.3450  145.8500 C   0  0  0  0  0  3  0  0  0  0  0  0
  190.5650  174.7950  145.5310 C   0  0  0  0  0  0  0  0  0  0  0  0
  190.3810  176.7920  147.4520 C   0  0  0  0  0  3  0  0  0  0  0  0
  190.0790  175.2740  142.2140 N   0  0  0  0  0  2  0  0  0  0  0  0
  187.8540  176.0460  141.4120 C   0  0  1  0  0  3  0  0  0  0  0  0
  188.8730  174.9040  141.4840 C   0  0  2  0  0  3  0  0  0  0  0  0
  187.6890  174.9350  142.4290 C   0  0  0  0  0  2  0  0  0  0  0  0
  188.3040  177.3310  142.1060 C   0  0  0  0  0  2  0  0  0  0  0  0
  187.2500  178.2870  142.1040 O   0  0  0  0  0  0  0  0  0  0  0  0
  186.7320  178.3040  144.4920 C   0  0  0  0  0  2  0  0  0  0  0  0
  185.7870  178.4480  145.5080 C   0  0  0  0  0  0  0  0  0  0  0  0
  186.3330  178.4160  143.1510 C   0  0  0  0  0  0  0  0  0  0  0  0
  183.5140  178.8460  146.1480 F   0  0  0  0  0  0  0  0  0  0  0  0
  184.0890  178.8070  143.8360 C   0  0  0  0  0  2  0  0  0  0  0  0
  185.0270  178.6640  142.8610 N   0  0  0  0  0  0  0  0  0  0  0  0
  184.4520  178.7010  145.1800 C   0  0  0  0  0  0  0  0  0  0  0  0
  186.2940  178.3120  147.1800 Cl  0  0  0  0  0  0  0  0  0  0  0  0
  1  3  2  0  0  0  0
  3  2  1  0  0  0  0
  3 12  1  0  0  0  0
  4  7  1  1  0  0  0
  4  2  1  0  0  0  0
  5  6  1  6  0  0  0
  5  4  1  0  0  0  0
  5  1  1  0  0  0  0
  7  8  1  0  0  0  0
 10  8  1  0  0  0  0
 10  9  1  0  0  0  0
 11 10  2  0  0  0  0
 12 17  1  0  0  0  0
 13 18  1  0  0  0  0
 14 15  1  0  0  0  0
 15 18  2  0  0  0  0
 16 13  2  0  0  0  0
 17 16  1  0  0  0  0
 17 14  2  0  0  0  0
 19  1  1  0  0  0  0
 20 21  1  0  0  0  0
 20 23  1  1  0  0  0
 20 22  1  0  0  0  0
 21 19  1  1  0  0  0
 21 22  1  0  0  0  0
 24 23  1  0  0  0  0
 24 27  1  0  0  0  0
 25 26  1  0  0  0  0
 26 32  1  0  0  0  0
 27 25  1  0  0  0  0
 29 31  1  0  0  0  0
 30 27  2  0  0  0  0
 30 29  1  0  0  0  0
 31 26  2  0  0  0  0
 31 28  1  0  0  0  0
M  END
>  <MODEL>
6

>  <REMARK>
 VINA RESULT:      -6.5      2.690      4.264
  Name = 
  9 active torsions:
  status: ('A' for Active; 'I' for Inactive)
    1  A    between atoms: C_3  and  O_8
    2  A    between atoms: C_4  and  C_20
    3  A    between atoms: N_5  and  C_9
    4  A    between atoms: C_6  and  N_30
    5  A    between atoms: O_8  and  C_20
    6  A    between atoms: C_9  and  C_23
    7  A    between atoms: C_13  and  N_30
    8  A    between atoms: N_17  and  C_22
    9  A    between atoms: N_17  and  C_26
                            x       y       z     vdW  Elec       q    Type
                         _______ _______ _______ _____ _____    ______ ____

>  <TORSDO>
F 9

$$$$
=
 OpenBabel11042414513D

 32 35  0  0  1  0  0  0  0  0999 V2000
  191.5860  174.1410  145.4310 C   0  0  0  0  0  0  0  0  0  0  0  0
  192.8050  172.8050  143.5150 S   0  0  0  0  0  0  0  0  0  0  0  0
  192.7910  173.8130  144.9800 C   0  0  0  0  0  0  0  0  0  0  0  0
  191.0330  172.4580  143.7790 C   0  0  1  0  0  3  0  0  0  0  0  0
  190.4430  173.5130  144.7080 C   0  0  1  0  0  3  0  0  0  0  0  0
  189.5880  172.9010  145.6060 F   0  0  0  0  0  0  0  0  0  0  0  0
  190.2750  172.3860  142.4590 C   0  0  0  0  0  2  0  0  0  0  0  0
  189.8040  173.7030  142.0550 N   0  0  0  0  0  2  0  0  0  0  0  0
  187.9160  175.6080  141.3110 S   0  0  0  0  0  1  0  0  0  0  0  0
  188.4250  173.9680  141.8040 C   0  0  0  0  0  0  0  0  0  0  0  0
  187.5620  173.0580  141.9250 O   0  0  0  0  0  0  0  0  0  0  0  0
  194.0150  174.3210  145.5310 N   0  0  0  0  0  2  0  0  0  0  0  0
  196.0650  176.7520  143.5550 C   0  0  0  0  0  3  0  0  0  0  0  0
  196.2760  174.1960  144.6100 C   0  0  0  0  0  3  0  0  0  0  0  0
  197.3120  174.7490  143.9230 N   0  0  0  0  0  0  0  0  0  0  0  0
  194.9910  176.2020  144.2540 C   0  0  0  0  0  3  0  0  0  0  0  0
  195.0850  174.9060  144.7780 C   0  0  0  0  0  0  0  0  0  0  0  0
  197.2300  176.0000  143.3950 C   0  0  0  0  0  3  0  0  0  0  0  0
  191.4050  175.1270  146.4530 N   0  0  0  0  0  2  0  0  0  0  0  0
  190.0310  177.2010  146.4240 C   0  0  1  0  0  3  0  0  0  0  0  0
  191.4030  176.5600  146.1900 C   0  0  2  0  0  3  0  0  0  0  0  0
  190.4850  176.8520  145.0210 C   0  0  0  0  0  2  0  0  0  0  0  0
  188.9540  176.2210  146.8870 C   0  0  0  0  0  2  0  0  0  0  0  0
  187.9730  176.0510  145.8700 O   0  0  0  0  0  0  0  0  0  0  0  0
  186.2100  177.1400  144.5750 C   0  0  0  0  0  3  0  0  0  0  0  0
  185.0350  177.8920  144.5530 C   0  0  0  0  0  0  0  0  0  0  0  0
  186.8010  176.8100  145.8040 C   0  0  0  0  0  0  0  0  0  0  0  0
  183.3160  179.0390  145.7630 F   0  0  0  0  0  0  0  0  0  0  0  0
  185.0710  177.9620  146.9620 C   0  0  0  0  0  3  0  0  0  0  0  0
  186.2160  177.2280  146.9600 N   0  0  0  0  0  0  0  0  0  0  0  0
  184.4580  178.3080  145.7560 C   0  0  0  0  0  0  0  0  0  0  0  0
  184.3010  178.2970  143.0140 Cl  0  0  0  0  0  0  0  0  0  0  0  0
  1 19  1  0  0  0  0
  2  4  1  0  0  0  0
  2  3  1  0  0  0  0
  3  1  2  0  0  0  0
  3 12  1  0  0  0  0
  4  7  1  6  0  0  0
  4  5  1  0  0  0  0
  5  1  1  0  0  0  0
  5  6  1  1  0  0  0
  8  7  1  0  0  0  0
  9 10  1  0  0  0  0
 10 11  2  0  0  0  0
 10  8  1  0  0  0  0
 13 16  1  0  0  0  0
 14 17  1  0  0  0  0
 15 14  2  0  0  0  0
 16 17  2  0  0  0  0
 17 12  1  0  0  0  0
 18 13  2  0  0  0  0
 18 15  1  0  0  0  0
 20 23  1  1  0  0  0
 21 20  1  0  0  0  0
 21 19  1  1  0  0  0
 22 21  1  0  0  0  0
 22 20  1  0  0  0  0
 24 23  1  0  0  0  0
 25 27  1  0  0  0  0
 26 25  2  0  0  0  0
 26 31  1  0  0  0  0
 27 24  1  0  0  0  0
 27 30  2  0  0  0  0
 30 29  1  0  0  0  0
 31 28  1  0  0  0  0
 31 29  2  0  0  0  0
 32 26  1  0  0  0  0
M  END
>  <MODEL>
7

>  <REMARK>
 VINA RESULT:      -6.5      2.909      5.392
  Name = 
  9 active torsions:
  status: ('A' for Active; 'I' for Inactive)
    1  A    between atoms: C_3  and  O_8
    2  A    between atoms: C_4  and  C_20
    3  A    between atoms: N_5  and  C_9
    4  A    between atoms: C_6  and  N_30
    5  A    between atoms: O_8  and  C_20
    6  A    between atoms: C_9  and  C_23
    7  A    between atoms: C_13  and  N_30
    8  A    between atoms: N_17  and  C_22
    9  A    between atoms: N_17  and  C_26
                            x       y       z     vdW  Elec       q    Type
                         _______ _______ _______ _____ _____    ______ ____

>  <TORSDO>
F 9

$$$$
=
 OpenBabel11042414513D

 32 35  0  0  1  0  0  0  0  0999 V2000
  189.9890  175.7340  144.1170 C   0  0  0  0  0  0  0  0  0  0  0  0
  190.9280  176.0310  146.5610 S   0  0  0  0  0  0  0  0  0  0  0  0
  189.8230  176.4400  145.2280 C   0  0  0  0  0  0  0  0  0  0  0  0
  191.3680  174.4960  145.6770 C   0  0  1  0  0  3  0  0  0  0  0  0
  190.9890  174.6320  144.2060 C   0  0  1  0  0  3  0  0  0  0  0  0
  190.4330  173.4440  143.7690 F   0  0  0  0  0  0  0  0  0  0  0  0
  192.8430  174.1570  145.8480 C   0  0  0  0  0  2  0  0  0  0  0  0
  193.6400  174.7390  144.7770 N   0  0  0  0  0  2  0  0  0  0  0  0
  195.7450  176.1890  143.6780 S   0  0  0  0  0  1  0  0  0  0  0  0
  194.8150  175.5050  145.0400 C   0  0  0  0  0  0  0  0  0  0  0  0
  195.2020  175.7030  146.2220 O   0  0  0  0  0  0  0  0  0  0  0  0
  188.9190  177.5490  145.3420 N   0  0  0  0  0  2  0  0  0  0  0  0
  186.2630  178.2740  147.8790 C   0  0  0  0  0  3  0  0  0  0  0  0
  186.5940  176.8200  145.5400 C   0  0  0  0  0  3  0  0  0  0  0  0
  185.3980  176.8240  146.1890 N   0  0  0  0  0  0  0  0  0  0  0  0
  187.4970  178.2810  147.2290 C   0  0  0  0  0  3  0  0  0  0  0  0
  187.6750  177.5380  146.0540 C   0  0  0  0  0  0  0  0  0  0  0  0
  185.2140  177.5270  147.3390 C   0  0  0  0  0  3  0  0  0  0  0  0
  189.3440  176.0930  142.8900 N   0  0  0  0  0  2  0  0  0  0  0  0
  187.6450  175.8340  141.0920 C   0  0  1  0  0  3  0  0  0  0  0  0
  188.6020  175.1440  142.0700 C   0  0  2  0  0  3  0  0  0  0  0  0
  187.1260  175.2550  142.3920 C   0  0  0  0  0  2  0  0  0  0  0  0
  187.6660  177.3600  141.1660 C   0  0  0  0  0  2  0  0  0  0  0  0
  186.5820  177.9040  140.4230 O   0  0  0  0  0  0  0  0  0  0  0  0
  185.1550  178.4410  142.3330 C   0  0  0  0  0  2  0  0  0  0  0  0
  183.8760  178.6720  142.8400 C   0  0  0  0  0  0  0  0  0  0  0  0
  185.3170  178.1330  140.9730 C   0  0  0  0  0  0  0  0  0  0  0  0
  181.5160  178.8130  142.4570 F   0  0  0  0  0  0  0  0  0  0  0  0
  182.9670  178.2850  140.6420 C   0  0  0  0  0  2  0  0  0  0  0  0
  184.2220  178.0650  140.1680 N   0  0  0  0  0  0  0  0  0  0  0  0
  182.7700  178.5930  141.9900 C   0  0  0  0  0  0  0  0  0  0  0  0
  183.6810  179.0600  144.5380 Cl  0  0  0  0  0  0  0  0  0  0  0  0
  1  5  1  0  0  0  0
  1  3  2  0  0  0  0
  3 12  1  0  0  0  0
  3  2  1  0  0  0  0
  4  7  1  6  0  0  0
  4  2  1  0  0  0  0
  5  6  1  1  0  0  0
  5  4  1  0  0  0  0
  8 10  1  0  0  0  0
  8  7  1  0  0  0  0
  9 10  1  0  0  0  0
 10 11  2  0  0  0  0
 12 17  1  0  0  0  0
 14 17  2  0  0  0  0
 14 15  1  0  0  0  0
 15 18  2  0  0  0  0
 16 13  2  0  0  0  0
 17 16  1  0  0  0  0
 18 13  1  0  0  0  0
 19  1  1  0  0  0  0
 20 23  1  1  0  0  0
 20 21  1  0  0  0  0
 20 22  1  0  0  0  0
 21 22  1  0  0  0  0
 21 19  1  1  0  0  0
 24 27  1  0  0  0  0
 24 23  1  0  0  0  0
 25 26  1  0  0  0  0
 26 32  1  0  0  0  0
 27 25  1  0  0  0  0
 29 31  1  0  0  0  0
 30 29  1  0  0  0  0
 30 27  2  0  0  0  0
 31 28  1  0  0  0  0
 31 26  2  0  0  0  0
M  END
>  <MODEL>
8

>  <REMARK>
 VINA RESULT:      -6.4      2.932      4.955
  Name = 
  9 active torsions:
  status: ('A' for Active; 'I' for Inactive)
    1  A    between atoms: C_3  and  O_8
    2  A    between atoms: C_4  and  C_20
    3  A    between atoms: N_5  and  C_9
    4  A    between atoms: C_6  and  N_30
    5  A    between atoms: O_8  and  C_20
    6  A    between atoms: C_9  and  C_23
    7  A    between atoms: C_13  and  N_30
    8  A    between atoms: N_17  and  C_22
    9  A    between atoms: N_17  and  C_26
                            x       y       z     vdW  Elec       q    Type
                         _______ _______ _______ _____ _____    ______ ____

>  <TORSDO>
F 9

$$$$
=
 OpenBabel11042414513D

 32 35  0  0  1  0  0  0  0  0999 V2000
  192.1480  174.1910  143.0580 C   0  0  0  0  0  0  0  0  0  0  0  0
  193.8740  174.6590  144.9920 S   0  0  0  0  0  0  0  0  0  0  0  0
  192.3610  174.9710  144.1110 C   0  0  0  0  0  0  0  0  0  0  0  0
  194.0200  173.0690  144.1070 C   0  0  1  0  0  3  0  0  0  0  0  0
  193.1470  173.1030  142.8580 C   0  0  1  0  0  3  0  0  0  0  0  0
  192.5070  171.8850  142.7180 F   0  0  0  0  0  0  0  0  0  0  0  0
  195.4710  172.7500  143.7690 C   0  0  0  0  0  2  0  0  0  0  0  0
  195.8630  171.4600  144.3180 N   0  0  0  0  0  2  0  0  0  0  0  0
  197.0150  169.7320  146.1710 S   0  0  0  0  0  1  0  0  0  0  0  0
  196.5650  171.3470  145.5550 C   0  0  0  0  0  0  0  0  0  0  0  0
  196.8710  172.3740  146.2170 O   0  0  0  0  0  0  0  0  0  0  0  0
  191.5230  176.0800  144.4660 N   0  0  0  0  0  2  0  0  0  0  0  0
  189.0000  174.8560  146.9460 C   0  0  0  0  0  3  0  0  0  0  0  0
  189.5710  177.1430  145.4840 C   0  0  0  0  0  3  0  0  0  0  0  0
  188.5030  177.1090  146.3270 N   0  0  0  0  0  0  0  0  0  0  0  0
  190.0980  174.8710  146.0860 C   0  0  0  0  0  3  0  0  0  0  0  0
  190.3850  176.0180  145.3340 C   0  0  0  0  0  0  0  0  0  0  0  0
  188.2030  175.9980  147.0520 C   0  0  0  0  0  3  0  0  0  0  0  0
  191.1040  174.4630  142.1170 N   0  0  0  0  0  2  0  0  0  0  0  0
  188.6830  174.0160  141.7600 C   0  0  1  0  0  3  0  0  0  0  0  0
  190.1150  173.4720  141.7120 C   0  0  2  0  0  3  0  0  0  0  0  0
  189.2140  173.1560  142.8880 C   0  0  0  0  0  2  0  0  0  0  0  0
  188.5810  175.4720  142.2110 C   0  0  0  0  0  2  0  0  0  0  0  0
  187.5160  176.1250  141.5290 O   0  0  0  0  0  0  0  0  0  0  0  0
  186.2840  176.6700  143.5670 C   0  0  0  0  0  2  0  0  0  0  0  0
  185.2640  177.3890  144.1900 C   0  0  0  0  0  0  0  0  0  0  0  0
  186.4980  176.8200  142.1890 C   0  0  0  0  0  0  0  0  0  0  0  0
  183.4660  178.9610  144.0140 F   0  0  0  0  0  0  0  0  0  0  0  0
  184.7040  178.3770  142.0640 C   0  0  0  0  0  2  0  0  0  0  0  0
  185.7060  177.6670  141.4770 N   0  0  0  0  0  0  0  0  0  0  0  0
  184.4640  178.2500  143.4340 C   0  0  0  0  0  0  0  0  0  0  0  0
  185.0040  177.2000  145.9130 Cl  0  0  0  0  0  0  0  0  0  0  0  0
  1  3  2  0  0  0  0
  3 12  1  0  0  0  0
  3  2  1  0  0  0  0
  4  7  1  6  0  0  0
  4  2  1  0  0  0  0
  5  6  1  1  0  0  0
  5  1  1  0  0  0  0
  5  4  1  0  0  0  0
  7  8  1  0  0  0  0
  8 10  1  0  0  0  0
 10  9  1  0  0  0  0
 10 11  2  0  0  0  0
 12 17  1  0  0  0  0
 13 18  1  0  0  0  0
 14 15  1  0  0  0  0
 15 18  2  0  0  0  0
 16 13  2  0  0  0  0
 17 14  2  0  0  0  0
 17 16  1  0  0  0  0
 19  1  1  0  0  0  0
 20 23  1  1  0  0  0
 20 22  1  0  0  0  0
 21 20  1  0  0  0  0
 21 19  1  1  0  0  0
 21 22  1  0  0  0  0
 24 27  1  0  0  0  0
 24 23  1  0  0  0  0
 25 26  1  0  0  0  0
 26 32  1  0  0  0  0
 27 25  1  0  0  0  0
 29 31  1  0  0  0  0
 30 29  1  0  0  0  0
 30 27  2  0  0  0  0
 31 28  1  0  0  0  0
 31 26  2  0  0  0  0
M  END
>  <MODEL>
9

>  <REMARK>
 VINA RESULT:      -6.4      2.533      4.022
  Name = 
  9 active torsions:
  status: ('A' for Active; 'I' for Inactive)
    1  A    between atoms: C_3  and  O_8
    2  A    between atoms: C_4  and  C_20
    3  A    between atoms: N_5  and  C_9
    4  A    between atoms: C_6  and  N_30
    5  A    between atoms: O_8  and  C_20
    6  A    between atoms: C_9  and  C_23
    7  A    between atoms: C_13  and  N_30
    8  A    between atoms: N_17  and  C_22
    9  A    between atoms: N_17  and  C_26
                            x       y       z     vdW  Elec       q    Type
                         _______ _______ _______ _____ _____    ______ ____

>  <TORSDO>
F 9

$$$$
