=
 OpenBabel11042414433D

 36 39  0  0  0  0  0  0  0  0999 V2000
  188.1110  174.8150  142.3620 C   0  0  0  0  0  3  0  0  0  0  0  0
  188.8250  173.6890  142.4240 C   0  0  0  0  0  0  0  0  0  0  0  0
  190.5290  171.3540  139.9600 C   0  0  0  0  0  3  0  0  0  0  0  0
  188.6100  172.3590  138.8870 C   0  0  0  0  0  3  0  0  0  0  0  0
  189.1390  172.9290  141.1910 C   0  0  0  0  0  0  0  0  0  0  0  0
  190.2450  172.0640  141.1300 C   0  0  0  0  0  3  0  0  0  0  0  0
  189.7150  171.4950  138.8330 C   0  0  0  0  0  0  0  0  0  0  0  0
  188.3270  173.0680  140.0570 C   0  0  0  0  0  3  0  0  0  0  0  0
  190.0220  170.7690  137.6800 O   0  0  0  0  0  0  0  0  0  0  0  0
  189.5680  171.4700  135.4330 C   0  0  0  0  0  1  0  0  0  0  0  0
  190.6060  171.3670  136.5310 C   0  0  0  0  0  2  0  0  0  0  0  0
  189.6450  174.9240  147.2990 C   0  0  0  0  0  3  0  0  0  0  0  0
  189.6010  173.4220  145.1740 C   0  0  0  0  0  0  0  0  0  0  0  0
  189.8190  172.2210  144.5160 C   0  0  0  0  0  2  0  0  0  0  0  0
  189.6240  174.1700  146.2380 C   0  0  0  0  0  0  0  0  0  0  0  0
  189.2980  173.2150  143.6890 N   0  0  0  0  0  0  0  0  0  0  0  0
  190.7370  175.9190  147.4830 C   0  0  0  0  0  2  0  0  0  0  0  0
  193.5110  176.8140  143.5580 O   0  0  0  0  0  0  0  0  0  0  0  0
  190.2290  177.9710  144.2350 C   0  0  0  0  0  3  0  0  0  0  0  0
  192.2170  176.3090  145.5060 C   0  0  0  0  0  0  0  0  0  0  0  0
  190.0710  177.5970  145.6820 C   0  0  0  0  0  2  0  0  0  0  0  0
  191.3340  177.6960  143.5510 C   0  0  0  0  0  3  0  0  0  0  0  0
  192.4210  176.9380  144.1750 C   0  0  0  0  0  0  0  0  0  0  0  0
  191.0700  176.5740  146.1790 C   0  0  0  0  0  0  0  0  0  0  0  0
  193.2470  175.3650  146.0190 C   0  0  0  0  0  0  0  0  0  0  0  0
  193.1470  173.9630  145.7840 N   0  0  0  0  0  1  0  0  0  0  0  0
  194.2060  175.7970  146.7110 O   0  0  0  0  0  0  0  0  0  0  0  0
  185.9310  176.5960  142.6030 O   0  0  0  0  0  0  0  0  0  0  0  0
  186.6890  176.4570  143.6030 C   0  0  0  0  0  0  0  0  0  0  0  0
  187.8050  175.5680  143.5350 N   0  0  0  0  0  2  0  0  0  0  0  0
  186.6330  176.6310  146.0920 C   0  0  0  0  0  3  0  0  0  0  0  0
  185.9840  178.5470  144.7660 C   0  0  0  0  0  3  0  0  0  0  0  0
  185.9390  178.6780  147.1840 C   0  0  0  0  0  3  0  0  0  0  0  0
  186.4330  177.2210  144.8360 C   0  0  0  0  0  0  0  0  0  0  0  0
  185.7370  179.2730  145.9360 C   0  0  0  0  0  3  0  0  0  0  0  0
  186.3860  177.3560  147.2620 C   0  0  0  0  0  3  0  0  0  0  0  0
  1  2  2  0  0  0  0
  1 30  1  0  0  0  0
  2 16  1  0  0  0  0
  3  6  1  0  0  0  0
  4  8  2  0  0  0  0
  5  2  1  0  0  0  0
  6  5  2  0  0  0  0
  7  4  1  0  0  0  0
  7  3  2  0  0  0  0
  8  5  1  0  0  0  0
  9  7  1  0  0  0  0
 10 11  1  0  0  0  0
 11  9  1  0  0  0  0
 12 17  1  0  0  0  0
 13 15  2  0  0  0  0
 14 13  1  0  0  0  0
 15 12  2  0  0  0  0
 16 14  1  0  0  0  0
 16 13  1  0  0  0  0
 18 23  2  0  0  0  0
 19 21  1  0  0  0  0
 20 25  1  0  0  0  0
 20 24  2  0  0  0  0
 21 24  1  0  0  0  0
 22 23  1  0  0  0  0
 22 19  2  0  0  0  0
 23 20  1  0  0  0  0
 24 17  1  0  0  0  0
 25 27  2  0  0  0  0
 26 25  1  0  0  0  0
 28 29  2  0  0  0  0
 29 34  1  0  0  0  0
 30 29  1  0  0  0  0
 31 36  1  0  0  0  0
 32 34  1  0  0  0  0
 32 35  2  0  0  0  0
 33 36  2  0  0  0  0
 34 31  2  0  0  0  0
 35 33  1  0  0  0  0
M  END
>  <MODEL>
1

>  <REMARK>
 VINA RESULT:      -8.0      0.000      0.000
  Name = 
  9 active torsions:
  status: ('A' for Active; 'I' for Inactive)
    1  A    between atoms: C_3  and  C_33
    2  A    between atoms: C_7  and  C_12
    3  A    between atoms: C_13  and  N_30
    4  A    between atoms: C_14  and  O_15
    5  A    between atoms: O_15  and  C_22
    6  A    between atoms: C_16  and  C_31
    7  A    between atoms: C_19  and  C_24
    8  A    between atoms: C_31  and  N_32
    9  A    between atoms: C_33  and  C_34
                            x       y       z     vdW  Elec       q    Type
                         _______ _______ _______ _____ _____    ______ ____

>  <TORSDO>
F 9

$$$$
=
 OpenBabel11042414433D

 36 39  0  0  0  0  0  0  0  0999 V2000
  190.7270  176.8920  146.3580 C   0  0  0  0  0  3  0  0  0  0  0  0
  191.3210  176.5250  145.2200 C   0  0  0  0  0  0  0  0  0  0  0  0
  194.8470  175.6440  146.3210 C   0  0  0  0  0  3  0  0  0  0  0  0
  194.4360  174.6590  144.1530 C   0  0  0  0  0  3  0  0  0  0  0  0
  192.6910  175.9620  145.2360 C   0  0  0  0  0  0  0  0  0  0  0  0
  193.5570  176.1820  146.3210 C   0  0  0  0  0  3  0  0  0  0  0  0
  195.2950  174.8800  145.2410 C   0  0  0  0  0  0  0  0  0  0  0  0
  193.1470  175.1960  144.1530 C   0  0  0  0  0  3  0  0  0  0  0  0
  196.5880  174.3530  145.2730 O   0  0  0  0  0  0  0  0  0  0  0  0
  196.6990  172.0470  145.9210 C   0  0  0  0  0  1  0  0  0  0  0  0
  197.0320  173.4760  146.2990 C   0  0  0  0  0  2  0  0  0  0  0  0
  187.9360  174.4020  142.0590 C   0  0  0  0  0  3  0  0  0  0  0  0
  189.6350  176.1730  142.9250 C   0  0  0  0  0  0  0  0  0  0  0  0
  190.3280  177.3680  142.8080 C   0  0  0  0  0  2  0  0  0  0  0  0
  188.7850  175.2900  142.4890 C   0  0  0  0  0  0  0  0  0  0  0  0
  190.6280  176.6710  143.9760 N   0  0  0  0  0  0  0  0  0  0  0  0
  188.4280  173.1530  141.4160 C   0  0  0  0  0  2  0  0  0  0  0  0
  193.0410  171.6650  142.0580 O   0  0  0  0  0  0  0  0  0  0  0  0
  190.4580  171.9120  144.4750 C   0  0  0  0  0  3  0  0  0  0  0  0
  190.8070  172.4240  141.6560 C   0  0  0  0  0  0  0  0  0  0  0  0
  189.2530  172.1390  143.6050 C   0  0  0  0  0  2  0  0  0  0  0  0
  191.6790  171.7820  143.9700 C   0  0  0  0  0  3  0  0  0  0  0  0
  191.9040  171.9340  142.5300 C   0  0  0  0  0  0  0  0  0  0  0  0
  189.5720  172.5820  142.1930 C   0  0  0  0  0  0  0  0  0  0  0  0
  191.1190  172.7810  140.2450 C   0  0  0  0  0  0  0  0  0  0  0  0
  190.9610  171.8340  139.1920 N   0  0  0  0  0  1  0  0  0  0  0  0
  191.5720  173.9230  139.9700 O   0  0  0  0  0  0  0  0  0  0  0  0
  188.3750  175.3560  146.6610 O   0  0  0  0  0  0  0  0  0  0  0  0
  188.2470  176.6040  146.5230 C   0  0  0  0  0  0  0  0  0  0  0  0
  189.4040  177.4280  146.3680 N   0  0  0  0  0  2  0  0  0  0  0  0
  186.4530  177.9600  147.6060 C   0  0  0  0  0  3  0  0  0  0  0  0
  186.0660  177.0480  145.3990 C   0  0  0  0  0  3  0  0  0  0  0  0
  184.3470  178.3660  146.4820 C   0  0  0  0  0  3  0  0  0  0  0  0
  186.9050  177.2120  146.5090 C   0  0  0  0  0  0  0  0  0  0  0  0
  184.7910  177.6230  145.3860 C   0  0  0  0  0  3  0  0  0  0  0  0
  185.1770  178.5330  147.5930 C   0  0  0  0  0  3  0  0  0  0  0  0
  1 30  1  0  0  0  0
  2  5  1  0  0  0  0
  2  1  2  0  0  0  0
  4  7  1  0  0  0  0
  5  6  2  0  0  0  0
  6  3  1  0  0  0  0
  7  9  1  0  0  0  0
  7  3  2  0  0  0  0
  8  4  2  0  0  0  0
  8  5  1  0  0  0  0
  9 11  1  0  0  0  0
 10 11  1  0  0  0  0
 12 15  2  0  0  0  0
 13 16  1  0  0  0  0
 14 13  1  0  0  0  0
 14 16  1  0  0  0  0
 15 13  2  0  0  0  0
 16  2  1  0  0  0  0
 17 12  1  0  0  0  0
 17 24  1  0  0  0  0
 18 23  2  0  0  0  0
 20 24  2  0  0  0  0
 20 23  1  0  0  0  0
 21 19  1  0  0  0  0
 22 19  2  0  0  0  0
 23 22  1  0  0  0  0
 24 21  1  0  0  0  0
 25 20  1  0  0  0  0
 26 25  1  0  0  0  0
 27 25  2  0  0  0  0
 29 28  2  0  0  0  0
 30 29  1  0  0  0  0
 32 34  1  0  0  0  0
 33 36  2  0  0  0  0
 34 29  1  0  0  0  0
 34 31  2  0  0  0  0
 35 32  2  0  0  0  0
 35 33  1  0  0  0  0
 36 31  1  0  0  0  0
M  END
>  <MODEL>
2

>  <REMARK>
 VINA RESULT:      -7.7      2.482      6.314
  Name = 
  9 active torsions:
  status: ('A' for Active; 'I' for Inactive)
    1  A    between atoms: C_3  and  C_33
    2  A    between atoms: C_7  and  C_12
    3  A    between atoms: C_13  and  N_30
    4  A    between atoms: C_14  and  O_15
    5  A    between atoms: O_15  and  C_22
    6  A    between atoms: C_16  and  C_31
    7  A    between atoms: C_19  and  C_24
    8  A    between atoms: C_31  and  N_32
    9  A    between atoms: C_33  and  C_34
                            x       y       z     vdW  Elec       q    Type
                         _______ _______ _______ _____ _____    ______ ____

>  <TORSDO>
F 9

$$$$
=
 OpenBabel11042414433D

 36 39  0  0  0  0  0  0  0  0999 V2000
  184.7170  178.0850  143.7050 C   0  0  0  0  0  3  0  0  0  0  0  0
  184.3930  178.0610  142.4110 C   0  0  0  0  0  0  0  0  0  0  0  0
  181.2270  178.2220  140.3190 C   0  0  0  0  0  3  0  0  0  0  0  0
  180.8130  179.2910  142.4470 C   0  0  0  0  0  3  0  0  0  0  0  0
  183.0040  178.3430  141.9800 C   0  0  0  0  0  0  0  0  0  0  0  0
  182.5400  177.9490  140.7130 C   0  0  0  0  0  3  0  0  0  0  0  0
  180.3560  178.8920  141.1810 C   0  0  0  0  0  0  0  0  0  0  0  0
  182.1260  179.0180  142.8400 C   0  0  0  0  0  3  0  0  0  0  0  0
  179.0490  179.1470  140.7610 O   0  0  0  0  0  0  0  0  0  0  0  0
  179.2780  181.3060  139.7440 C   0  0  0  0  0  1  0  0  0  0  0  0
  178.4970  180.4570  140.7250 C   0  0  0  0  0  2  0  0  0  0  0  0
  188.6440  175.4210  141.4550 C   0  0  0  0  0  3  0  0  0  0  0  0
  186.6660  177.0460  140.9840 C   0  0  0  0  0  0  0  0  0  0  0  0
  185.9530  177.9040  140.1620 C   0  0  0  0  0  2  0  0  0  0  0  0
  187.6560  176.2340  141.2160 C   0  0  0  0  0  0  0  0  0  0  0  0
  185.3940  177.7680  141.4310 N   0  0  0  0  0  0  0  0  0  0  0  0
  189.8220  175.8910  142.2340 C   0  0  0  0  0  2  0  0  0  0  0  0
  193.3200  173.4710  144.6450 O   0  0  0  0  0  0  0  0  0  0  0  0
  189.8420  172.7860  144.5520 C   0  0  0  0  0  3  0  0  0  0  0  0
  191.6720  174.7250  143.4470 C   0  0  0  0  0  0  0  0  0  0  0  0
  189.3890  173.6850  143.4370 C   0  0  0  0  0  2  0  0  0  0  0  0
  191.1080  172.7380  144.9510 C   0  0  0  0  0  3  0  0  0  0  0  0
  192.1040  173.6320  144.3560 C   0  0  0  0  0  0  0  0  0  0  0  0
  190.3690  174.7800  143.0740 C   0  0  0  0  0  0  0  0  0  0  0  0
  192.6670  175.7510  143.0330 C   0  0  0  0  0  0  0  0  0  0  0  0
  193.4040  175.6180  141.8210 N   0  0  0  0  0  1  0  0  0  0  0  0
  192.9020  176.7370  143.7800 O   0  0  0  0  0  0  0  0  0  0  0  0
  185.3900  176.5440  145.9760 O   0  0  0  0  0  0  0  0  0  0  0  0
  186.3360  177.0400  145.3020 C   0  0  0  0  0  0  0  0  0  0  0  0
  186.0510  177.8260  144.1430 N   0  0  0  0  0  2  0  0  0  0  0  0
  188.0580  175.7760  146.5920 C   0  0  0  0  0  3  0  0  0  0  0  0
  188.7510  177.6560  145.2370 C   0  0  0  0  0  3  0  0  0  0  0  0
  190.3940  176.4080  146.5050 C   0  0  0  0  0  3  0  0  0  0  0  0
  187.7320  176.8200  145.7150 C   0  0  0  0  0  0  0  0  0  0  0  0
  190.0770  177.4500  145.6310 C   0  0  0  0  0  3  0  0  0  0  0  0
  189.3840  175.5710  146.9870 C   0  0  0  0  0  3  0  0  0  0  0  0
  1 30  1  0  0  0  0
  2  1  2  0  0  0  0
  3  6  2  0  0  0  0
  3  7  1  0  0  0  0
  4  8  1  0  0  0  0
  5  2  1  0  0  0  0
  5  8  2  0  0  0  0
  6  5  1  0  0  0  0
  7  4  2  0  0  0  0
  9  7  1  0  0  0  0
 10 11  1  0  0  0  0
 11  9  1  0  0  0  0
 12 17  1  0  0  0  0
 13 15  2  0  0  0  0
 13 16  1  0  0  0  0
 14 13  1  0  0  0  0
 14 16  1  0  0  0  0
 15 12  2  0  0  0  0
 16  2  1  0  0  0  0
 17 24  1  0  0  0  0
 19 22  2  0  0  0  0
 20 23  1  0  0  0  0
 21 19  1  0  0  0  0
 23 18  2  0  0  0  0
 23 22  1  0  0  0  0
 24 21  1  0  0  0  0
 24 20  2  0  0  0  0
 25 20  1  0  0  0  0
 25 27  2  0  0  0  0
 26 25  1  0  0  0  0
 29 34  1  0  0  0  0
 29 28  2  0  0  0  0
 30 29  1  0  0  0  0
 31 36  1  0  0  0  0
 32 35  2  0  0  0  0
 32 34  1  0  0  0  0
 33 36  2  0  0  0  0
 34 31  2  0  0  0  0
 35 33  1  0  0  0  0
M  END
>  <MODEL>
3

>  <REMARK>
 VINA RESULT:      -7.6      3.845      7.220
  Name = 
  9 active torsions:
  status: ('A' for Active; 'I' for Inactive)
    1  A    between atoms: C_3  and  C_33
    2  A    between atoms: C_7  and  C_12
    3  A    between atoms: C_13  and  N_30
    4  A    between atoms: C_14  and  O_15
    5  A    between atoms: O_15  and  C_22
    6  A    between atoms: C_16  and  C_31
    7  A    between atoms: C_19  and  C_24
    8  A    between atoms: C_31  and  N_32
    9  A    between atoms: C_33  and  C_34
                            x       y       z     vdW  Elec       q    Type
                         _______ _______ _______ _____ _____    ______ ____

>  <TORSDO>
F 9

$$$$
=
 OpenBabel11042414433D

 36 39  0  0  0  0  0  0  0  0999 V2000
  188.5590  177.7160  143.0200 C   0  0  0  0  0  3  0  0  0  0  0  0
  187.6850  176.8680  142.4740 C   0  0  0  0  0  0  0  0  0  0  0  0
  184.8930  178.0790  140.2010 C   0  0  0  0  0  3  0  0  0  0  0  0
  184.0730  178.0000  142.4730 C   0  0  0  0  0  3  0  0  0  0  0  0
  186.3680  177.3510  141.9960 C   0  0  0  0  0  0  0  0  0  0  0  0
  186.1410  177.6240  140.6360 C   0  0  0  0  0  3  0  0  0  0  0  0
  183.8530  178.2690  141.1130 C   0  0  0  0  0  0  0  0  0  0  0  0
  185.3200  177.5450  142.9080 C   0  0  0  0  0  3  0  0  0  0  0  0
  182.6160  178.7210  140.6460 O   0  0  0  0  0  0  0  0  0  0  0  0
  180.6090  179.2610  141.8410 C   0  0  0  0  0  1  0  0  0  0  0  0
  181.3820  178.1860  141.1060 C   0  0  0  0  0  2  0  0  0  0  0  0
  191.1930  173.3170  143.4960 C   0  0  0  0  0  3  0  0  0  0  0  0
  188.9690  174.3030  142.5710 C   0  0  0  0  0  0  0  0  0  0  0  0
  187.7480  174.1830  141.9260 C   0  0  0  0  0  2  0  0  0  0  0  0
  190.0800  173.8070  143.0320 C   0  0  0  0  0  0  0  0  0  0  0  0
  188.0230  175.4840  142.3420 N   0  0  0  0  0  0  0  0  0  0  0  0
  192.4590  173.4980  142.7340 C   0  0  0  0  0  2  0  0  0  0  0  0
  197.2040  173.1460  143.8580 O   0  0  0  0  0  0  0  0  0  0  0  0
  194.4150  172.0220  145.7360 C   0  0  0  0  0  3  0  0  0  0  0  0
  194.9060  173.3780  143.2360 C   0  0  0  0  0  0  0  0  0  0  0  0
  193.3030  172.1620  144.7350 C   0  0  0  0  0  2  0  0  0  0  0  0
  195.6680  172.3620  145.4520 C   0  0  0  0  0  3  0  0  0  0  0  0
  195.9950  172.9650  144.1590 C   0  0  0  0  0  0  0  0  0  0  0  0
  193.6280  173.0520  143.5540 C   0  0  0  0  0  0  0  0  0  0  0  0
  195.2500  174.1850  142.0340 C   0  0  0  0  0  0  0  0  0  0  0  0
  195.5020  173.5660  140.7760 N   0  0  0  0  0  1  0  0  0  0  0  0
  195.3660  175.4350  142.1280 O   0  0  0  0  0  0  0  0  0  0  0  0
  189.1920  177.1530  145.7150 O   0  0  0  0  0  0  0  0  0  0  0  0
  190.1040  177.0060  144.8550 C   0  0  0  0  0  0  0  0  0  0  0  0
  189.8370  177.2750  143.4770 N   0  0  0  0  0  2  0  0  0  0  0  0
  191.6080  175.7040  146.3620 C   0  0  0  0  0  3  0  0  0  0  0  0
  192.5820  177.0170  144.5800 C   0  0  0  0  0  3  0  0  0  0  0  0
  194.0110  175.7430  146.0640 C   0  0  0  0  0  3  0  0  0  0  0  0
  191.4480  176.5690  145.2710 C   0  0  0  0  0  0  0  0  0  0  0  0
  193.8590  176.6050  144.9750 C   0  0  0  0  0  3  0  0  0  0  0  0
  192.8850  175.2930  146.7580 C   0  0  0  0  0  3  0  0  0  0  0  0
  1 30  1  0  0  0  0
  2  1  2  0  0  0  0
  3  6  2  0  0  0  0
  3  7  1  0  0  0  0
  4  8  1  0  0  0  0
  5  2  1  0  0  0  0
  5  8  2  0  0  0  0
  6  5  1  0  0  0  0
  7  4  2  0  0  0  0
  9 11  1  0  0  0  0
  9  7  1  0  0  0  0
 11 10  1  0  0  0  0
 13 15  2  0  0  0  0
 14 16  1  0  0  0  0
 14 13  1  0  0  0  0
 15 12  2  0  0  0  0
 16  2  1  0  0  0  0
 16 13  1  0  0  0  0
 17 12  1  0  0  0  0
 17 24  1  0  0  0  0
 18 23  2  0  0  0  0
 20 24  2  0  0  0  0
 20 23  1  0  0  0  0
 21 19  1  0  0  0  0
 22 19  2  0  0  0  0
 23 22  1  0  0  0  0
 24 21  1  0  0  0  0
 25 27  2  0  0  0  0
 25 20  1  0  0  0  0
 26 25  1  0  0  0  0
 29 34  1  0  0  0  0
 29 28  2  0  0  0  0
 30 29  1  0  0  0  0
 31 36  1  0  0  0  0
 32 35  2  0  0  0  0
 32 34  1  0  0  0  0
 33 36  2  0  0  0  0
 34 31  2  0  0  0  0
 35 33  1  0  0  0  0
M  END
>  <MODEL>
4

>  <REMARK>
 VINA RESULT:      -7.4      3.452      6.612
  Name = 
  9 active torsions:
  status: ('A' for Active; 'I' for Inactive)
    1  A    between atoms: C_3  and  C_33
    2  A    between atoms: C_7  and  C_12
    3  A    between atoms: C_13  and  N_30
    4  A    between atoms: C_14  and  O_15
    5  A    between atoms: O_15  and  C_22
    6  A    between atoms: C_16  and  C_31
    7  A    between atoms: C_19  and  C_24
    8  A    between atoms: C_31  and  N_32
    9  A    between atoms: C_33  and  C_34
                            x       y       z     vdW  Elec       q    Type
                         _______ _______ _______ _____ _____    ______ ____

>  <TORSDO>
F 9

$$$$
=
 OpenBabel11042414433D

 36 39  0  0  0  0  0  0  0  0999 V2000
  191.2060  175.2620  146.2190 C   0  0  0  0  0  3  0  0  0  0  0  0
  190.0800  174.7800  145.6900 C   0  0  0  0  0  0  0  0  0  0  0  0
  187.1490  176.8240  144.4020 C   0  0  0  0  0  3  0  0  0  0  0  0
  187.0650  176.7720  146.8170 C   0  0  0  0  0  3  0  0  0  0  0  0
  188.8540  175.6120  145.6480 C   0  0  0  0  0  0  0  0  0  0  0  0
  188.3060  176.0400  144.4260 C   0  0  0  0  0  3  0  0  0  0  0  0
  186.5210  177.1940  145.5940 C   0  0  0  0  0  0  0  0  0  0  0  0
  188.2210  175.9880  146.8400 C   0  0  0  0  0  3  0  0  0  0  0  0
  185.3640  177.9750  145.5360 O   0  0  0  0  0  0  0  0  0  0  0  0
  185.3860  179.9450  144.1700 C   0  0  0  0  0  1  0  0  0  0  0  0
  185.3960  179.3950  145.5810 C   0  0  0  0  0  2  0  0  0  0  0  0
  192.7810  171.2270  143.2330 C   0  0  0  0  0  3  0  0  0  0  0  0
  190.7250  172.2850  144.4280 C   0  0  0  0  0  0  0  0  0  0  0  0
  189.4220  172.2390  144.9000 C   0  0  0  0  0  2  0  0  0  0  0  0
  191.7510  171.7530  143.8300 C   0  0  0  0  0  0  0  0  0  0  0  0
  190.0550  173.4540  145.1530 N   0  0  0  0  0  0  0  0  0  0  0  0
  193.0830  171.5840  141.8200 C   0  0  0  0  0  2  0  0  0  0  0  0
  194.5560  176.2120  141.2650 O   0  0  0  0  0  0  0  0  0  0  0  0
  196.4820  173.3980  142.2380 C   0  0  0  0  0  3  0  0  0  0  0  0
  193.7450  173.9770  141.5290 C   0  0  0  0  0  0  0  0  0  0  0  0
  195.5360  172.2690  141.9370 C   0  0  0  0  0  2  0  0  0  0  0  0
  196.1500  174.6690  142.0380 C   0  0  0  0  0  3  0  0  0  0  0  0
  194.8030  175.0190  141.5840 C   0  0  0  0  0  0  0  0  0  0  0  0
  194.0910  172.6880  141.7660 C   0  0  0  0  0  0  0  0  0  0  0  0
  192.3380  174.3950  141.2790 C   0  0  0  0  0  0  0  0  0  0  0  0
  191.5600  175.0140  142.3000 N   0  0  0  0  0  1  0  0  0  0  0  0
  191.8010  174.1630  140.1640 O   0  0  0  0  0  0  0  0  0  0  0  0
  193.5950  175.9110  144.8570 O   0  0  0  0  0  0  0  0  0  0  0  0
  193.5830  174.8570  145.5510 C   0  0  0  0  0  0  0  0  0  0  0  0
  192.4010  174.4830  146.2620 N   0  0  0  0  0  2  0  0  0  0  0  0
  196.0540  174.5760  145.7620 C   0  0  0  0  0  3  0  0  0  0  0  0
  194.6630  172.6090  145.5410 C   0  0  0  0  0  3  0  0  0  0  0  0
  197.0650  172.3760  145.7450 C   0  0  0  0  0  3  0  0  0  0  0  0
  194.7820  174.0040  145.6200 C   0  0  0  0  0  0  0  0  0  0  0  0
  195.8010  171.7980  145.6030 C   0  0  0  0  0  3  0  0  0  0  0  0
  197.1920  173.7650  145.8230 C   0  0  0  0  0  3  0  0  0  0  0  0
  1 30  1  0  0  0  0
  2  1  2  0  0  0  0
  3  6  2  0  0  0  0
  3  7  1  0  0  0  0
  4  8  1  0  0  0  0
  5  2  1  0  0  0  0
  5  8  2  0  0  0  0
  6  5  1  0  0  0  0
  7  4  2  0  0  0  0
  9 11  1  0  0  0  0
  9  7  1  0  0  0  0
 10 11  1  0  0  0  0
 12 15  2  0  0  0  0
 13 14  1  0  0  0  0
 13 16  1  0  0  0  0
 14 16  1  0  0  0  0
 15 13  2  0  0  0  0
 16  2  1  0  0  0  0
 17 12  1  0  0  0  0
 18 23  2  0  0  0  0
 20 23  1  0  0  0  0
 20 24  2  0  0  0  0
 21 19  1  0  0  0  0
 22 19  2  0  0  0  0
 23 22  1  0  0  0  0
 24 17  1  0  0  0  0
 24 21  1  0  0  0  0
 25 20  1  0  0  0  0
 25 26  1  0  0  0  0
 27 25  2  0  0  0  0
 28 29  2  0  0  0  0
 29 34  1  0  0  0  0
 29 30  1  0  0  0  0
 31 36  1  0  0  0  0
 32 35  2  0  0  0  0
 32 34  1  0  0  0  0
 33 36  2  0  0  0  0
 34 31  2  0  0  0  0
 35 33  1  0  0  0  0
M  END
>  <MODEL>
5

>  <REMARK>
 VINA RESULT:      -7.3      2.988      7.848
  Name = 
  9 active torsions:
  status: ('A' for Active; 'I' for Inactive)
    1  A    between atoms: C_3  and  C_33
    2  A    between atoms: C_7  and  C_12
    3  A    between atoms: C_13  and  N_30
    4  A    between atoms: C_14  and  O_15
    5  A    between atoms: O_15  and  C_22
    6  A    between atoms: C_16  and  C_31
    7  A    between atoms: C_19  and  C_24
    8  A    between atoms: C_31  and  N_32
    9  A    between atoms: C_33  and  C_34
                            x       y       z     vdW  Elec       q    Type
                         _______ _______ _______ _____ _____    ______ ____

>  <TORSDO>
F 9

$$$$
=
 OpenBabel11042414433D

 36 39  0  0  0  0  0  0  0  0999 V2000
  187.7850  174.6620  141.7390 C   0  0  0  0  0  3  0  0  0  0  0  0
  188.7230  173.7330  141.9320 C   0  0  0  0  0  0  0  0  0  0  0  0
  188.9250  171.9350  138.5930 C   0  0  0  0  0  3  0  0  0  0  0  0
  191.0020  171.6070  139.7850 C   0  0  0  0  0  3  0  0  0  0  0  0
  189.2270  172.9260  140.7970 C   0  0  0  0  0  0  0  0  0  0  0  0
  188.4360  172.6990  139.6570 C   0  0  0  0  0  3  0  0  0  0  0  0
  190.2080  171.3860  138.6490 C   0  0  0  0  0  0  0  0  0  0  0  0
  190.5130  172.3700  140.8480 C   0  0  0  0  0  3  0  0  0  0  0  0
  190.6700  170.6300  137.5680 O   0  0  0  0  0  0  0  0  0  0  0  0
  191.1080  170.2060  135.2490 C   0  0  0  0  0  1  0  0  0  0  0  0
  190.1200  170.7460  136.2620 C   0  0  0  0  0  2  0  0  0  0  0  0
  189.4890  175.8260  146.5140 C   0  0  0  0  0  3  0  0  0  0  0  0
  189.5530  173.9930  144.6670 C   0  0  0  0  0  0  0  0  0  0  0  0
  189.8680  172.7230  144.2100 C   0  0  0  0  0  2  0  0  0  0  0  0
  189.5230  174.9070  145.5930 C   0  0  0  0  0  0  0  0  0  0  0  0
  189.2520  173.5180  143.2450 N   0  0  0  0  0  0  0  0  0  0  0  0
  190.4920  176.9270  146.5030 C   0  0  0  0  0  2  0  0  0  0  0  0
  193.8690  176.4500  143.0000 O   0  0  0  0  0  0  0  0  0  0  0  0
  194.0470  175.3900  146.3790 C   0  0  0  0  0  3  0  0  0  0  0  0
  192.1670  176.7420  144.6560 C   0  0  0  0  0  0  0  0  0  0  0  0
  192.6210  175.5620  146.8230 C   0  0  0  0  0  2  0  0  0  0  0  0
  194.4460  175.6990  145.1500 C   0  0  0  0  0  3  0  0  0  0  0  0
  193.5090  176.2990  144.1980 C   0  0  0  0  0  0  0  0  0  0  0  0
  191.7850  176.4480  145.9240 C   0  0  0  0  0  0  0  0  0  0  0  0
  191.3210  177.5450  143.7320 C   0  0  0  0  0  0  0  0  0  0  0  0
  190.4850  176.9170  142.7630 N   0  0  0  0  0  1  0  0  0  0  0  0
  191.3700  178.8030  143.7670 O   0  0  0  0  0  0  0  0  0  0  0  0
  186.4860  177.1530  141.4310 O   0  0  0  0  0  0  0  0  0  0  0  0
  186.6430  176.7130  142.6040 C   0  0  0  0  0  0  0  0  0  0  0  0
  187.2920  175.4580  142.8160 N   0  0  0  0  0  2  0  0  0  0  0  0
  186.0260  176.8970  145.0150 C   0  0  0  0  0  3  0  0  0  0  0  0
  185.8540  178.8560  143.6070 C   0  0  0  0  0  3  0  0  0  0  0  0
  185.2610  178.9960  145.9500 C   0  0  0  0  0  3  0  0  0  0  0  0
  186.1690  177.4990  143.7570 C   0  0  0  0  0  0  0  0  0  0  0  0
  185.4010  179.6020  144.7000 C   0  0  0  0  0  3  0  0  0  0  0  0
  185.5720  177.6430  146.1080 C   0  0  0  0  0  3  0  0  0  0  0  0
  1  2  2  0  0  0  0
  1 30  1  0  0  0  0
  2 16  1  0  0  0  0
  3  7  2  0  0  0  0
  3  6  1  0  0  0  0
  4  8  2  0  0  0  0
  5  8  1  0  0  0  0
  5  2  1  0  0  0  0
  6  5  2  0  0  0  0
  7  4  1  0  0  0  0
  9  7  1  0  0  0  0
 10 11  1  0  0  0  0
 11  9  1  0  0  0  0
 13 15  2  0  0  0  0
 14 13  1  0  0  0  0
 15 12  2  0  0  0  0
 16 14  1  0  0  0  0
 16 13  1  0  0  0  0
 17 12  1  0  0  0  0
 18 23  2  0  0  0  0
 19 21  1  0  0  0  0
 20 24  2  0  0  0  0
 22 19  2  0  0  0  0
 23 20  1  0  0  0  0
 23 22  1  0  0  0  0
 24 17  1  0  0  0  0
 24 21  1  0  0  0  0
 25 27  2  0  0  0  0
 25 20  1  0  0  0  0
 26 25  1  0  0  0  0
 28 29  2  0  0  0  0
 29 30  1  0  0  0  0
 29 34  1  0  0  0  0
 31 36  1  0  0  0  0
 32 34  1  0  0  0  0
 32 35  2  0  0  0  0
 33 36  2  0  0  0  0
 34 31  2  0  0  0  0
 35 33  1  0  0  0  0
M  END
>  <MODEL>
6

>  <REMARK>
 VINA RESULT:      -7.0      1.335      2.185
  Name = 
  9 active torsions:
  status: ('A' for Active; 'I' for Inactive)
    1  A    between atoms: C_3  and  C_33
    2  A    between atoms: C_7  and  C_12
    3  A    between atoms: C_13  and  N_30
    4  A    between atoms: C_14  and  O_15
    5  A    between atoms: O_15  and  C_22
    6  A    between atoms: C_16  and  C_31
    7  A    between atoms: C_19  and  C_24
    8  A    between atoms: C_31  and  N_32
    9  A    between atoms: C_33  and  C_34
                            x       y       z     vdW  Elec       q    Type
                         _______ _______ _______ _____ _____    ______ ____

>  <TORSDO>
F 9

$$$$
=
 OpenBabel11042414433D

 36 39  0  0  0  0  0  0  0  0999 V2000
  188.6200  173.9850  140.7420 C   0  0  0  0  0  3  0  0  0  0  0  0
  188.5710  174.4690  141.9850 C   0  0  0  0  0  0  0  0  0  0  0  0
  187.0360  177.9130  141.5290 C   0  0  0  0  0  3  0  0  0  0  0  0
  186.7920  177.2480  143.8390 C   0  0  0  0  0  3  0  0  0  0  0  0
  187.8880  175.7540  142.2640 C   0  0  0  0  0  0  0  0  0  0  0  0
  187.6820  176.7050  141.2500 C   0  0  0  0  0  3  0  0  0  0  0  0
  186.5870  178.1920  142.8220 C   0  0  0  0  0  0  0  0  0  0  0  0
  187.4370  176.0400  143.5600 C   0  0  0  0  0  3  0  0  0  0  0  0
  185.9410  179.4060  143.0680 O   0  0  0  0  0  0  0  0  0  0  0  0
  183.9020  179.0410  144.2750 C   0  0  0  0  0  1  0  0  0  0  0  0
  185.2730  179.6850  144.2920 C   0  0  0  0  0  2  0  0  0  0  0  0
  189.7750  174.5660  146.9350 C   0  0  0  0  0  3  0  0  0  0  0  0
  189.6040  173.6090  144.5200 C   0  0  0  0  0  0  0  0  0  0  0  0
  189.8140  172.6150  143.5770 C   0  0  0  0  0  2  0  0  0  0  0  0
  189.6910  174.0850  145.7280 C   0  0  0  0  0  0  0  0  0  0  0  0
  189.1770  173.7410  143.0570 N   0  0  0  0  0  0  0  0  0  0  0  0
  190.8360  175.5570  147.2680 C   0  0  0  0  0  2  0  0  0  0  0  0
  193.7120  176.7900  143.5110 O   0  0  0  0  0  0  0  0  0  0  0  0
  190.4570  177.9780  144.2650 C   0  0  0  0  0  3  0  0  0  0  0  0
  192.3650  176.1150  145.3700 C   0  0  0  0  0  0  0  0  0  0  0  0
  190.2600  177.4490  145.6580 C   0  0  0  0  0  2  0  0  0  0  0  0
  191.5650  177.7430  143.5710 C   0  0  0  0  0  3  0  0  0  0  0  0
  192.6150  176.8820  144.1220 C   0  0  0  0  0  0  0  0  0  0  0  0
  191.2150  176.3420  146.0520 C   0  0  0  0  0  0  0  0  0  0  0  0
  193.3540  175.0840  145.7890 C   0  0  0  0  0  0  0  0  0  0  0  0
  193.1920  173.7160  145.4260 N   0  0  0  0  0  1  0  0  0  0  0  0
  194.3320  175.4080  146.5130 O   0  0  0  0  0  0  0  0  0  0  0  0
  188.7890  172.8290  138.1690 O   0  0  0  0  0  0  0  0  0  0  0  0
  189.3190  172.2040  139.1300 C   0  0  0  0  0  0  0  0  0  0  0  0
  189.2630  172.7450  140.4510 N   0  0  0  0  0  2  0  0  0  0  0  0
  190.9160  170.4120  139.8140 C   0  0  0  0  0  3  0  0  0  0  0  0
  189.6920  170.1670  137.7420 C   0  0  0  0  0  3  0  0  0  0  0  0
  191.2520  168.4500  138.4360 C   0  0  0  0  0  3  0  0  0  0  0  0
  189.9830  170.9110  138.8930 C   0  0  0  0  0  0  0  0  0  0  0  0
  190.3250  168.9400  137.5140 C   0  0  0  0  0  3  0  0  0  0  0  0
  191.5490  169.1860  139.5850 C   0  0  0  0  0  3  0  0  0  0  0  0
  1  2  2  0  0  0  0
  2  5  1  0  0  0  0
  2 16  1  0  0  0  0
  3  7  1  0  0  0  0
  5  8  2  0  0  0  0
  6  3  2  0  0  0  0
  6  5  1  0  0  0  0
  7  9  1  0  0  0  0
  7  4  2  0  0  0  0
  8  4  1  0  0  0  0
  9 11  1  0  0  0  0
 10 11  1  0  0  0  0
 12 17  1  0  0  0  0
 13 15  2  0  0  0  0
 14 13  1  0  0  0  0
 15 12  2  0  0  0  0
 16 14  1  0  0  0  0
 16 13  1  0  0  0  0
 18 23  2  0  0  0  0
 19 21  1  0  0  0  0
 20 25  1  0  0  0  0
 20 24  2  0  0  0  0
 21 24  1  0  0  0  0
 22 23  1  0  0  0  0
 22 19  2  0  0  0  0
 23 20  1  0  0  0  0
 24 17  1  0  0  0  0
 25 27  2  0  0  0  0
 26 25  1  0  0  0  0
 28 29  2  0  0  0  0
 29 30  1  0  0  0  0
 30  1  1  0  0  0  0
 32 34  1  0  0  0  0
 33 36  2  0  0  0  0
 34 29  1  0  0  0  0
 34 31  2  0  0  0  0
 35 32  2  0  0  0  0
 35 33  1  0  0  0  0
 36 31  1  0  0  0  0
M  END
>  <MODEL>
7

>  <REMARK>
 VINA RESULT:      -7.0      1.528      6.830
  Name = 
  9 active torsions:
  status: ('A' for Active; 'I' for Inactive)
    1  A    between atoms: C_3  and  C_33
    2  A    between atoms: C_7  and  C_12
    3  A    between atoms: C_13  and  N_30
    4  A    between atoms: C_14  and  O_15
    5  A    between atoms: O_15  and  C_22
    6  A    between atoms: C_16  and  C_31
    7  A    between atoms: C_19  and  C_24
    8  A    between atoms: C_31  and  N_32
    9  A    between atoms: C_33  and  C_34
                            x       y       z     vdW  Elec       q    Type
                         _______ _______ _______ _____ _____    ______ ____

>  <TORSDO>
F 9

$$$$
=
 OpenBabel11042414433D

 36 39  0  0  0  0  0  0  0  0999 V2000
  189.0380  176.9710  143.7480 C   0  0  0  0  0  3  0  0  0  0  0  0
  188.2780  176.2690  142.9050 C   0  0  0  0  0  0  0  0  0  0  0  0
  184.8130  177.7560  142.4540 C   0  0  0  0  0  3  0  0  0  0  0  0
  185.9430  177.7460  140.3180 C   0  0  0  0  0  3  0  0  0  0  0  0
  187.0790  176.8810  142.2870 C   0  0  0  0  0  0  0  0  0  0  0  0
  185.9380  177.1790  143.0510 C   0  0  0  0  0  3  0  0  0  0  0  0
  184.8080  178.0440  141.0870 C   0  0  0  0  0  0  0  0  0  0  0  0
  187.0670  177.1690  140.9150 C   0  0  0  0  0  3  0  0  0  0  0  0
  183.6700  178.6240  140.5210 O   0  0  0  0  0  0  0  0  0  0  0  0
  181.3030  178.7570  140.8740 C   0  0  0  0  0  1  0  0  0  0  0  0
  182.4500  177.9150  140.3560 C   0  0  0  0  0  2  0  0  0  0  0  0
  192.1100  172.9320  142.5230 C   0  0  0  0  0  3  0  0  0  0  0  0
  189.6570  173.7970  142.4290 C   0  0  0  0  0  0  0  0  0  0  0  0
  188.3000  173.6170  142.2090 C   0  0  0  0  0  2  0  0  0  0  0  0
  190.8820  173.3620  142.4750 C   0  0  0  0  0  0  0  0  0  0  0  0
  188.6270  174.9170  142.5890 N   0  0  0  0  0  0  0  0  0  0  0  0
  193.0460  173.2300  141.4030 C   0  0  0  0  0  2  0  0  0  0  0  0
  197.2480  174.6820  143.4370 O   0  0  0  0  0  0  0  0  0  0  0  0
  194.8720  176.6370  141.6760 C   0  0  0  0  0  3  0  0  0  0  0  0
  195.2190  173.8800  142.4560 C   0  0  0  0  0  0  0  0  0  0  0  0
  193.7130  175.6850  141.5770 C   0  0  0  0  0  2  0  0  0  0  0  0
  196.0170  176.2990  142.2580 C   0  0  0  0  0  3  0  0  0  0  0  0
  196.2150  174.9380  142.7630 C   0  0  0  0  0  0  0  0  0  0  0  0
  194.0680  174.2350  141.8320 C   0  0  0  0  0  0  0  0  0  0  0  0
  195.5470  172.4660  142.7850 C   0  0  0  0  0  0  0  0  0  0  0  0
  196.1870  171.6160  141.8370 N   0  0  0  0  0  1  0  0  0  0  0  0
  195.2210  171.9890  143.9040 O   0  0  0  0  0  0  0  0  0  0  0  0
  191.5910  178.1810  143.7480 O   0  0  0  0  0  0  0  0  0  0  0  0
  191.4730  177.0600  144.3170 C   0  0  0  0  0  0  0  0  0  0  0  0
  190.2030  176.4050  144.3480 N   0  0  0  0  0  2  0  0  0  0  0  0
  192.6110  175.0610  145.2860 C   0  0  0  0  0  3  0  0  0  0  0  0
  193.8050  177.1630  145.1940 C   0  0  0  0  0  3  0  0  0  0  0  0
  194.8760  175.2030  146.1290 C   0  0  0  0  0  3  0  0  0  0  0  0
  192.6440  176.4190  144.9390 C   0  0  0  0  0  0  0  0  0  0  0  0
  194.9170  176.5560  145.7870 C   0  0  0  0  0  3  0  0  0  0  0  0
  193.7230  174.4550  145.8800 C   0  0  0  0  0  3  0  0  0  0  0  0
  1 30  1  0  0  0  0
  2  1  2  0  0  0  0
  3  6  1  0  0  0  0
  4  8  2  0  0  0  0
  4  7  1  0  0  0  0
  5  2  1  0  0  0  0
  5  6  2  0  0  0  0
  7  3  2  0  0  0  0
  8  5  1  0  0  0  0
  9  7  1  0  0  0  0
 11  9  1  0  0  0  0
 11 10  1  0  0  0  0
 13 15  2  0  0  0  0
 13 16  1  0  0  0  0
 14 13  1  0  0  0  0
 14 16  1  0  0  0  0
 15 12  2  0  0  0  0
 16  2  1  0  0  0  0
 17 24  1  0  0  0  0
 17 12  1  0  0  0  0
 19 22  2  0  0  0  0
 20 23  1  0  0  0  0
 20 25  1  0  0  0  0
 21 19  1  0  0  0  0
 21 24  1  0  0  0  0
 22 23  1  0  0  0  0
 23 18  2  0  0  0  0
 24 20  2  0  0  0  0
 25 27  2  0  0  0  0
 26 25  1  0  0  0  0
 28 29  2  0  0  0  0
 29 30  1  0  0  0  0
 29 34  1  0  0  0  0
 31 36  1  0  0  0  0
 32 35  2  0  0  0  0
 34 32  1  0  0  0  0
 34 31  2  0  0  0  0
 35 33  1  0  0  0  0
 36 33  2  0  0  0  0
M  END
>  <MODEL>
8

>  <REMARK>
 VINA RESULT:      -7.0      3.330      6.497
  Name = 
  9 active torsions:
  status: ('A' for Active; 'I' for Inactive)
    1  A    between atoms: C_3  and  C_33
    2  A    between atoms: C_7  and  C_12
    3  A    between atoms: C_13  and  N_30
    4  A    between atoms: C_14  and  O_15
    5  A    between atoms: O_15  and  C_22
    6  A    between atoms: C_16  and  C_31
    7  A    between atoms: C_19  and  C_24
    8  A    between atoms: C_31  and  N_32
    9  A    between atoms: C_33  and  C_34
                            x       y       z     vdW  Elec       q    Type
                         _______ _______ _______ _____ _____    ______ ____

>  <TORSDO>
F 9

$$$$
=
 OpenBabel11042414433D

 36 39  0  0  0  0  0  0  0  0999 V2000
  191.7090  173.7490  141.6050 C   0  0  0  0  0  3  0  0  0  0  0  0
  190.6180  173.7570  140.8360 C   0  0  0  0  0  0  0  0  0  0  0  0
  189.7580  173.5260  137.1440 C   0  0  0  0  0  3  0  0  0  0  0  0
  192.0280  172.7620  137.4670 C   0  0  0  0  0  3  0  0  0  0  0  0
  190.7230  173.5080  139.3790 C   0  0  0  0  0  0  0  0  0  0  0  0
  189.6440  173.7670  138.5160 C   0  0  0  0  0  3  0  0  0  0  0  0
  190.9480  173.0250  136.6110 C   0  0  0  0  0  0  0  0  0  0  0  0
  191.9140  173.0020  138.8390 C   0  0  0  0  0  3  0  0  0  0  0  0
  191.0320  172.7990  135.2350 O   0  0  0  0  0  0  0  0  0  0  0  0
  190.8300  170.4300  134.9290 C   0  0  0  0  0  1  0  0  0  0  0  0
  190.2730  171.7930  134.5760 C   0  0  0  0  0  2  0  0  0  0  0  0
  187.1210  177.3130  141.8790 C   0  0  0  0  0  3  0  0  0  0  0  0
  188.1900  174.9410  141.8060 C   0  0  0  0  0  0  0  0  0  0  0  0
  188.1740  173.5800  142.0660 C   0  0  0  0  0  2  0  0  0  0  0  0
  187.6530  176.1250  141.8440 C   0  0  0  0  0  0  0  0  0  0  0  0
  189.3360  174.0020  141.4230 N   0  0  0  0  0  0  0  0  0  0  0  0
  187.5630  178.2950  142.9070 C   0  0  0  0  0  2  0  0  0  0  0  0
  184.2920  178.0750  146.5340 O   0  0  0  0  0  0  0  0  0  0  0  0
  187.4300  176.4410  146.3070 C   0  0  0  0  0  3  0  0  0  0  0  0
  185.8270  178.2280  144.7050 C   0  0  0  0  0  0  0  0  0  0  0  0
  188.0460  177.1370  145.1260 C   0  0  0  0  0  2  0  0  0  0  0  0
  186.2090  176.7340  146.7410 C   0  0  0  0  0  3  0  0  0  0  0  0
  185.3830  177.7080  146.0240 C   0  0  0  0  0  0  0  0  0  0  0  0
  187.0630  177.8940  144.2590 C   0  0  0  0  0  0  0  0  0  0  0  0
  184.8760  179.0390  143.8960 C   0  0  0  0  0  0  0  0  0  0  0  0
  183.9260  178.4200  143.0330 N   0  0  0  0  0  1  0  0  0  0  0  0
  184.9320  180.2960  143.9350 O   0  0  0  0  0  0  0  0  0  0  0  0
  191.9810  176.2760  142.8390 O   0  0  0  0  0  0  0  0  0  0  0  0
  191.7770  175.2770  143.5840 C   0  0  0  0  0  0  0  0  0  0  0  0
  191.6310  173.9760  143.0110 N   0  0  0  0  0  2  0  0  0  0  0  0
  190.7340  174.7640  145.7920 C   0  0  0  0  0  3  0  0  0  0  0  0
  192.6010  176.3000  145.7040 C   0  0  0  0  0  3  0  0  0  0  0  0
  191.5610  175.7810  147.8290 C   0  0  0  0  0  3  0  0  0  0  0  0
  191.7030  175.4480  145.0450 C   0  0  0  0  0  0  0  0  0  0  0  0
  192.5290  176.4650  147.0910 C   0  0  0  0  0  3  0  0  0  0  0  0
  190.6620  174.9310  147.1790 C   0  0  0  0  0  3  0  0  0  0  0  0
  1 30  1  0  0  0  0
  2 16  1  0  0  0  0
  2  1  2  0  0  0  0
  3  6  1  0  0  0  0
  4  8  2  0  0  0  0
  5  2  1  0  0  0  0
  6  5  2  0  0  0  0
  7  3  2  0  0  0  0
  7  4  1  0  0  0  0
  8  5  1  0  0  0  0
  9  7  1  0  0  0  0
 11 10  1  0  0  0  0
 11  9  1  0  0  0  0
 12 17  1  0  0  0  0
 13 15  2  0  0  0  0
 13 14  1  0  0  0  0
 15 12  2  0  0  0  0
 16 13  1  0  0  0  0
 16 14  1  0  0  0  0
 17 24  1  0  0  0  0
 19 22  2  0  0  0  0
 20 23  1  0  0  0  0
 21 19  1  0  0  0  0
 23 18  2  0  0  0  0
 23 22  1  0  0  0  0
 24 20  2  0  0  0  0
 24 21  1  0  0  0  0
 25 27  2  0  0  0  0
 25 20  1  0  0  0  0
 26 25  1  0  0  0  0
 28 29  2  0  0  0  0
 29 34  1  0  0  0  0
 30 29  1  0  0  0  0
 31 36  1  0  0  0  0
 32 35  2  0  0  0  0
 34 32  1  0  0  0  0
 34 31  2  0  0  0  0
 35 33  1  0  0  0  0
 36 33  2  0  0  0  0
M  END
>  <MODEL>
9

>  <REMARK>
 VINA RESULT:      -6.9      2.106      5.606
  Name = 
  9 active torsions:
  status: ('A' for Active; 'I' for Inactive)
    1  A    between atoms: C_3  and  C_33
    2  A    between atoms: C_7  and  C_12
    3  A    between atoms: C_13  and  N_30
    4  A    between atoms: C_14  and  O_15
    5  A    between atoms: O_15  and  C_22
    6  A    between atoms: C_16  and  C_31
    7  A    between atoms: C_19  and  C_24
    8  A    between atoms: C_31  and  N_32
    9  A    between atoms: C_33  and  C_34
                            x       y       z     vdW  Elec       q    Type
                         _______ _______ _______ _____ _____    ______ ____

>  <TORSDO>
F 9

$$$$
