=
 OpenBabel11042413363D

 42 48  0  0  1  0  0  0  0  0999 V2000
  190.1280  175.2610  146.2090 N   0  0  0  0  0  0  0  0  0  0  0  0
  189.7880  172.4480  143.0190 C   0  0  0  0  0  0  0  0  0  0  0  0
  189.7160  172.0250  144.3490 C   0  0  0  0  0  3  0  0  0  0  0  0
  190.0460  174.7420  143.7930 C   0  0  0  0  0  3  0  0  0  0  0  0
  190.1760  171.6460  140.6800 C   0  0  0  0  0  2  0  0  0  0  0  0
  188.1780  173.2370  139.7300 O   0  0  0  0  0  1  0  0  0  0  0  0
  189.8200  172.9460  145.3920 C   0  0  0  0  0  3  0  0  0  0  0  0
  190.5570  173.7140  138.7060 O   0  0  0  0  0  0  0  0  0  0  0  0
  189.6870  171.4740  142.0090 O   0  0  0  0  0  0  0  0  0  0  0  0
  189.9970  174.3120  145.1280 C   0  0  0  0  0  0  0  0  0  0  0  0
  189.9380  173.8310  142.7380 C   0  0  0  0  0  0  0  0  0  0  0  0
  189.6530  173.2570  140.0600 P   0  0  2  0  0  0  0  0  0  0  0  0
  189.9520  174.3360  141.3990 N   0  0  0  0  0  2  0  0  0  0  0  0
  189.0040  176.0940  146.6210 C   0  0  0  0  0  2  0  0  0  0  0  0
  188.8220  177.1560  145.6990 O   0  0  0  0  0  0  0  0  0  0  0  0
  188.0290  177.8500  141.6790 N   0  0  0  0  0  0  0  0  0  0  0  0
  186.2360  177.8440  143.1490 C   0  0  0  0  0  0  0  0  0  0  0  0
  188.5330  177.6320  142.8600 C   0  0  0  0  0  3  0  0  0  0  0  0
  184.3220  178.2910  141.2090 C   0  0  0  0  0  0  0  0  0  0  0  0
  187.5860  177.3850  145.1350 N   0  0  0  0  0  0  0  0  0  0  0  0
  183.3530  178.5070  140.2380 O   0  0  0  0  0  1  0  0  0  0  0  0
  183.9390  178.1450  142.5600 C   0  0  0  0  0  3  0  0  0  0  0  0
  184.9050  177.9170  143.5560 C   0  0  0  0  0  3  0  0  0  0  0  0
  186.6170  177.9790  141.8380 C   0  0  0  0  0  0  0  0  0  0  0  0
  185.6770  178.2080  140.8360 C   0  0  0  0  0  3  0  0  0  0  0  0
  187.4630  177.6090  143.8680 C   0  0  0  0  0  0  0  0  0  0  0  0
  191.3820  175.4360  146.9330 C   0  0  0  0  0  2  0  0  0  0  0  0
  194.6570  177.2320  146.1850 C   0  0  0  0  0  2  0  0  0  0  0  0
  192.4090  176.1290  146.0460 C   0  0  1  0  0  3  0  0  0  0  0  0
  194.3570  175.6040  144.3920 C   0  0  1  0  0  3  0  0  0  0  0  0
  193.5360  173.7180  146.0030 C   0  0  0  0  0  1  0  0  0  0  0  0
  193.7750  176.1160  146.7270 C   0  0  1  0  0  3  0  0  0  0  0  0
  194.8880  176.9920  144.7030 C   0  0  0  0  0  2  0  0  0  0  0  0
  193.5090  175.1790  145.5740 C   0  0  2  0  0  0  0  0  0  0  0  0
  193.5410  175.6330  143.1820 N   0  0  0  0  0  2  0  0  0  0  0  0
  193.4140  173.6970  141.7610 C   0  0  0  0  0  3  0  0  0  0  0  0
  193.8520  173.7540  139.4190 O   0  0  0  0  0  0  0  0  0  0  0  0
  194.8180  175.8440  140.7250 S   0  0  0  0  0  0  0  0  0  0  0  0
  193.7750  172.9150  140.5350 C   0  0  0  0  0  2  0  0  0  0  0  0
  195.0570  174.4470  139.5740 C   0  0  2  0  0  3  0  0  0  0  0  0
  195.5900  175.0660  137.9940 Cl  0  0  0  0  0  0  0  0  0  0  0  0
  193.8680  174.9400  141.9730 C   0  0  0  0  0  0  0  0  0  0  0  0
  1 14  1  0  0  0  0
  1 27  1  0  0  0  0
  2  3  1  0  0  0  0
  3  7  2  0  0  0  0
  4 10  2  0  0  0  0
  5  9  1  0  0  0  0
  6 12  1  0  0  0  0
  9  2  1  0  0  0  0
 10  7  1  0  0  0  0
 10  1  1  0  0  0  0
 11  2  2  0  0  0  0
 11  4  1  0  0  0  0
 12  8  2  6  0  0  0
 12  5  1  0  0  0  0
 12 13  1  0  0  0  0
 13 11  1  0  0  0  0
 15 14  1  0  0  0  0
 16 24  1  0  0  0  0
 16 18  2  0  0  0  0
 17 23  1  0  0  0  0
 17 26  1  0  0  0  0
 18 26  1  0  0  0  0
 19 22  1  0  0  0  0
 20 15  1  0  0  0  0
 21 19  1  0  0  0  0
 22 23  2  0  0  0  0
 24 17  2  0  0  0  0
 25 19  2  0  0  0  0
 25 24  1  0  0  0  0
 26 20  2  0  0  0  0
 29 32  1  0  0  0  0
 29 27  1  1  0  0  0
 30 35  1  6  0  0  0
 30 33  1  0  0  0  0
 30 34  1  0  0  0  0
 32 28  1  6  0  0  0
 33 28  1  0  0  0  0
 34 31  1  1  0  0  0
 34 29  1  0  0  0  0
 34 32  1  0  0  0  0
 36 42  2  0  0  0  0
 37 40  1  0  0  0  0
 37 39  1  0  0  0  0
 38 42  1  0  0  0  0
 39 36  1  0  0  0  0
 40 41  1  6  0  0  0
 40 38  1  0  0  0  0
 42 35  1  0  0  0  0
M  END
>  <MODEL>
1

>  <REMARK>
 VINA RESULT:      -8.1      0.000      0.000
  Name = 
  8 active torsions:
  status: ('A' for Active; 'I' for Inactive)
    1  A    between atoms: C_10  and  C_29
    2  A    between atoms: N_13  and  C_14
    3  A    between atoms: N_13  and  C_38
    4  A    between atoms: N_18  and  O_30
    5  A    between atoms: C_23  and  O_30
    6  A    between atoms: C_23  and  N_35
    7  A    between atoms: C_27  and  N_35
    8  A    between atoms: C_29  and  N_35
                            x       y       z     vdW  Elec       q    Type
                         _______ _______ _______ _____ _____    ______ ____

>  <TORSDO>
F 8

$$$$
=
 OpenBabel11042413363D

 42 48  0  0  1  0  0  0  0  0999 V2000
  193.7880  175.7560  145.7470 N   0  0  0  0  0  0  0  0  0  0  0  0
  196.2530  172.2730  145.7290 C   0  0  0  0  0  0  0  0  0  0  0  0
  196.8230  173.5450  145.8290 C   0  0  0  0  0  3  0  0  0  0  0  0
  194.0450  173.2980  145.6800 C   0  0  0  0  0  3  0  0  0  0  0  0
  196.7660  169.8870  145.1760 C   0  0  0  0  0  2  0  0  0  0  0  0
  195.2250  169.0050  147.2440 O   0  0  0  0  0  1  0  0  0  0  0  0
  196.0160  174.6840  145.8430 C   0  0  0  0  0  3  0  0  0  0  0  0
  194.4740  168.1660  144.8640 O   0  0  0  0  0  0  0  0  0  0  0  0
  197.1160  171.1630  145.7100 O   0  0  0  0  0  0  0  0  0  0  0  0
  194.6200  174.5760  145.7570 C   0  0  0  0  0  0  0  0  0  0  0  0
  194.8410  172.1480  145.6710 C   0  0  0  0  0  0  0  0  0  0  0  0
  195.1380  169.4130  145.7900 P   0  0  2  0  0  0  0  0  0  0  0  0
  194.1940  170.8730  145.6350 N   0  0  0  0  0  2  0  0  0  0  0  0
  193.8150  176.6880  144.6260 C   0  0  0  0  0  2  0  0  0  0  0  0
  193.6010  175.9910  143.4090 O   0  0  0  0  0  0  0  0  0  0  0  0
  192.5600  173.8590  139.9970 N   0  0  0  0  0  0  0  0  0  0  0  0
  190.8840  174.3380  141.5270 C   0  0  0  0  0  0  0  0  0  0  0  0
  193.1280  174.5390  140.9530 C   0  0  0  0  0  3  0  0  0  0  0  0
  188.8910  173.0340  140.1270 C   0  0  0  0  0  0  0  0  0  0  0  0
  192.3450  175.5280  143.0840 N   0  0  0  0  0  0  0  0  0  0  0  0
  187.8850  172.3740  139.4340 O   0  0  0  0  0  1  0  0  0  0  0  0
  188.5970  173.6650  141.3560 C   0  0  0  0  0  3  0  0  0  0  0  0
  189.6040  174.3310  142.0770 C   0  0  0  0  0  3  0  0  0  0  0  0
  191.1800  173.7240  140.3360 C   0  0  0  0  0  0  0  0  0  0  0  0
  190.1980  173.0600  139.6050 C   0  0  0  0  0  3  0  0  0  0  0  0
  192.1360  174.8890  141.9800 C   0  0  0  0  0  0  0  0  0  0  0  0
  192.8910  176.0740  146.8520 C   0  0  0  0  0  2  0  0  0  0  0  0
  189.3790  174.6040  146.9660 C   0  0  0  0  0  2  0  0  0  0  0  0
  191.4400  175.9200  146.4130 C   0  0  1  0  0  3  0  0  0  0  0  0
  189.0920  177.0150  146.7200 C   0  0  1  0  0  3  0  0  0  0  0  0
  190.9790  177.5910  148.4320 C   0  0  0  0  0  1  0  0  0  0  0  0
  190.6270  175.2700  147.5280 C   0  0  1  0  0  3  0  0  0  0  0  0
  188.5030  175.6700  146.3310 C   0  0  0  0  0  2  0  0  0  0  0  0
  190.4800  176.7490  147.2660 C   0  0  2  0  0  0  0  0  0  0  0  0
  189.1780  177.8880  145.5530 N   0  0  0  0  0  2  0  0  0  0  0  0
  188.6000  177.5290  143.2460 C   0  0  0  0  0  3  0  0  0  0  0  0
  186.3650  177.2110  142.4850 O   0  0  0  0  0  0  0  0  0  0  0  0
  186.5150  178.3110  144.8870 S   0  0  0  0  0  0  0  0  0  0  0  0
  187.6550  177.5720  142.0840 C   0  0  0  0  0  2  0  0  0  0  0  0
  185.8790  178.3260  143.1750 C   0  0  2  0  0  3  0  0  0  0  0  0
  184.1010  178.2760  143.2040 Cl  0  0  0  0  0  0  0  0  0  0  0  0
  188.2290  177.8940  144.4810 C   0  0  0  0  0  0  0  0  0  0  0  0
  1 10  1  0  0  0  0
  1 27  1  0  0  0  0
  2  3  1  0  0  0  0
  3  7  2  0  0  0  0
  4 10  2  0  0  0  0
  5  9  1  0  0  0  0
  5 12  1  0  0  0  0
  9  2  1  0  0  0  0
 10  7  1  0  0  0  0
 11  4  1  0  0  0  0
 11  2  2  0  0  0  0
 12  8  2  6  0  0  0
 12  6  1  0  0  0  0
 13 11  1  0  0  0  0
 13 12  1  0  0  0  0
 14  1  1  0  0  0  0
 15 14  1  0  0  0  0
 16 24  1  0  0  0  0
 16 18  2  0  0  0  0
 17 26  1  0  0  0  0
 17 23  1  0  0  0  0
 18 26  1  0  0  0  0
 19 22  1  0  0  0  0
 20 15  1  0  0  0  0
 21 19  1  0  0  0  0
 22 23  2  0  0  0  0
 24 17  2  0  0  0  0
 25 19  2  0  0  0  0
 25 24  1  0  0  0  0
 26 20  2  0  0  0  0
 29 27  1  1  0  0  0
 29 34  1  0  0  0  0
 29 32  1  0  0  0  0
 30 35  1  6  0  0  0
 30 34  1  0  0  0  0
 32 28  1  6  0  0  0
 33 30  1  0  0  0  0
 33 28  1  0  0  0  0
 34 32  1  0  0  0  0
 34 31  1  1  0  0  0
 36 42  2  0  0  0  0
 37 40  1  0  0  0  0
 39 37  1  0  0  0  0
 39 36  1  0  0  0  0
 40 41  1  1  0  0  0
 40 38  1  0  0  0  0
 42 38  1  0  0  0  0
 42 35  1  0  0  0  0
M  END
>  <MODEL>
2

>  <REMARK>
 VINA RESULT:      -7.8      4.059      6.933
  Name = 
  8 active torsions:
  status: ('A' for Active; 'I' for Inactive)
    1  A    between atoms: C_10  and  C_29
    2  A    between atoms: N_13  and  C_14
    3  A    between atoms: N_13  and  C_38
    4  A    between atoms: N_18  and  O_30
    5  A    between atoms: C_23  and  O_30
    6  A    between atoms: C_23  and  N_35
    7  A    between atoms: C_27  and  N_35
    8  A    between atoms: C_29  and  N_35
                            x       y       z     vdW  Elec       q    Type
                         _______ _______ _______ _____ _____    ______ ____

>  <TORSDO>
F 8

$$$$
=
 OpenBabel11042413363D

 42 48  0  0  1  0  0  0  0  0999 V2000
  189.4420  175.8880  146.3210 N   0  0  0  0  0  0  0  0  0  0  0  0
  189.7250  174.3880  142.3370 C   0  0  0  0  0  0  0  0  0  0  0  0
  189.3350  175.7090  142.5720 C   0  0  0  0  0  3  0  0  0  0  0  0
  189.9680  174.0640  144.7380 C   0  0  0  0  0  3  0  0  0  0  0  0
  189.7150  172.5730  140.6140 C   0  0  0  0  0  2  0  0  0  0  0  0
  192.2640  171.8530  141.2580 O   0  0  0  0  0  0  0  0  0  0  0  0
  189.2500  176.2020  143.8750 C   0  0  0  0  0  3  0  0  0  0  0  0
  190.4640  169.9550  141.5650 O   0  0  0  0  0  1  0  0  0  0  0  0
  189.7840  173.9430  141.0040 O   0  0  0  0  0  0  0  0  0  0  0  0
  189.5530  175.3840  144.9730 C   0  0  0  0  0  0  0  0  0  0  0  0
  190.0630  173.5580  143.4380 C   0  0  0  0  0  0  0  0  0  0  0  0
  190.8260  171.6040  141.6540 P   0  0  2  0  0  0  0  0  0  0  0  0
  190.5330  172.2180  143.2610 N   0  0  0  0  0  2  0  0  0  0  0  0
  189.8900  175.0970  147.4610 C   0  0  0  0  0  2  0  0  0  0  0  0
  191.2200  175.4520  147.8070 O   0  0  0  0  0  0  0  0  0  0  0  0
  193.9470  177.1140  145.1470 N   0  0  0  0  0  0  0  0  0  0  0  0
  194.2170  174.8830  145.7210 C   0  0  0  0  0  0  0  0  0  0  0  0
  192.9730  176.8310  145.9650 C   0  0  0  0  0  3  0  0  0  0  0  0
  196.4960  174.5110  144.2040 C   0  0  0  0  0  0  0  0  0  0  0  0
  192.2870  174.8090  147.2200 N   0  0  0  0  0  0  0  0  0  0  0  0
  197.6450  174.3180  143.4510 O   0  0  0  0  0  1  0  0  0  0  0  0
  195.9690  173.4440  144.9650 C   0  0  0  0  0  3  0  0  0  0  0  0
  194.8100  173.6230  145.7410 C   0  0  0  0  0  3  0  0  0  0  0  0
  194.7240  175.9270  144.9890 C   0  0  0  0  0  0  0  0  0  0  0  0
  195.8690  175.7720  144.2120 C   0  0  0  0  0  3  0  0  0  0  0  0
  193.0610  175.4270  146.3880 C   0  0  0  0  0  0  0  0  0  0  0  0
  188.8760  177.2010  146.6070 C   0  0  0  0  0  2  0  0  0  0  0  0
  185.1650  176.3740  146.8490 C   0  0  0  0  0  2  0  0  0  0  0  0
  187.4160  177.2510  146.1750 C   0  0  1  0  0  3  0  0  0  0  0  0
  185.2920  178.7580  146.3420 C   0  0  1  0  0  3  0  0  0  0  0  0
  187.2680  179.1840  147.9980 C   0  0  0  0  0  1  0  0  0  0  0  0
  186.5140  176.8740  147.3470 C   0  0  1  0  0  3  0  0  0  0  0  0
  184.4790  177.5000  146.0950 C   0  0  0  0  0  2  0  0  0  0  0  0
  186.6200  178.3190  146.9250 C   0  0  2  0  0  0  0  0  0  0  0  0
  185.5150  179.4720  145.0880 N   0  0  0  0  0  2  0  0  0  0  0  0
  183.9540  178.8350  143.3730 C   0  0  0  0  0  3  0  0  0  0  0  0
  184.5550  178.5610  141.0840 O   0  0  0  0  0  0  0  0  0  0  0  0
  186.6250  178.5070  142.7320 S   0  0  0  0  0  0  0  0  0  0  0  0
  183.5980  178.2310  142.0490 C   0  0  0  0  0  2  0  0  0  0  0  0
  185.6570  177.7530  141.3800 C   0  0  2  0  0  3  0  0  0  0  0  0
  186.6820  177.5960  139.9350 Cl  0  0  0  0  0  0  0  0  0  0  0  0
  185.2220  178.9360  143.7930 C   0  0  0  0  0  0  0  0  0  0  0  0
  1 27  1  0  0  0  0
  1 14  1  0  0  0  0
  2  3  2  0  0  0  0
  2 11  1  0  0  0  0
  3  7  1  0  0  0  0
  4 10  1  0  0  0  0
  5  9  1  0  0  0  0
  5 12  1  0  0  0  0
  7 10  2  0  0  0  0
  8 12  1  0  0  0  0
  9  2  1  0  0  0  0
 10  1  1  0  0  0  0
 11  4  2  0  0  0  0
 12  6  2  6  0  0  0
 12 13  1  0  0  0  0
 13 11  1  0  0  0  0
 14 15  1  0  0  0  0
 16 18  2  0  0  0  0
 17 23  1  0  0  0  0
 17 26  1  0  0  0  0
 18 26  1  0  0  0  0
 19 25  2  0  0  0  0
 19 22  1  0  0  0  0
 20 15  1  0  0  0  0
 21 19  1  0  0  0  0
 22 23  2  0  0  0  0
 24 16  1  0  0  0  0
 24 17  2  0  0  0  0
 25 24  1  0  0  0  0
 26 20  2  0  0  0  0
 29 27  1  1  0  0  0
 29 34  1  0  0  0  0
 29 32  1  0  0  0  0
 30 35  1  6  0  0  0
 30 34  1  0  0  0  0
 32 28  1  6  0  0  0
 33 30  1  0  0  0  0
 33 28  1  0  0  0  0
 34 32  1  0  0  0  0
 34 31  1  1  0  0  0
 36 42  2  0  0  0  0
 37 40  1  0  0  0  0
 37 39  1  0  0  0  0
 38 42  1  0  0  0  0
 39 36  1  0  0  0  0
 40 41  1  6  0  0  0
 40 38  1  0  0  0  0
 42 35  1  0  0  0  0
M  END
>  <MODEL>
3

>  <REMARK>
 VINA RESULT:      -7.8      2.957      7.842
  Name = 
  8 active torsions:
  status: ('A' for Active; 'I' for Inactive)
    1  A    between atoms: C_10  and  C_29
    2  A    between atoms: N_13  and  C_14
    3  A    between atoms: N_13  and  C_38
    4  A    between atoms: N_18  and  O_30
    5  A    between atoms: C_23  and  O_30
    6  A    between atoms: C_23  and  N_35
    7  A    between atoms: C_27  and  N_35
    8  A    between atoms: C_29  and  N_35
                            x       y       z     vdW  Elec       q    Type
                         _______ _______ _______ _____ _____    ______ ____

>  <TORSDO>
F 8

$$$$
=
 OpenBabel11042413363D

 42 48  0  0  1  0  0  0  0  0999 V2000
  190.4410  175.7130  145.8360 N   0  0  0  0  0  0  0  0  0  0  0  0
  189.9060  172.4740  143.1090 C   0  0  0  0  0  0  0  0  0  0  0  0
  189.8560  172.2570  144.4880 C   0  0  0  0  0  3  0  0  0  0  0  0
  190.2700  174.8460  143.5270 C   0  0  0  0  0  3  0  0  0  0  0  0
  190.1960  171.3200  140.9080 C   0  0  0  0  0  2  0  0  0  0  0  0
  188.2310  172.8330  139.7770 O   0  0  0  0  0  1  0  0  0  0  0  0
  190.0240  173.3170  145.3800 C   0  0  0  0  0  3  0  0  0  0  0  0
  190.5960  173.0560  138.6400 O   0  0  0  0  0  0  0  0  0  0  0  0
  189.7400  171.3670  142.2580 O   0  0  0  0  0  0  0  0  0  0  0  0
  190.2440  174.6210  144.9120 C   0  0  0  0  0  0  0  0  0  0  0  0
  190.0980  173.7930  142.6220 C   0  0  0  0  0  0  0  0  0  0  0  0
  189.7160  172.8410  140.0660 P   0  0  2  0  0  0  0  0  0  0  0  0
  190.0920  174.0930  141.2220 N   0  0  0  0  0  2  0  0  0  0  0  0
  189.3470  176.2030  146.6660 C   0  0  0  0  0  2  0  0  0  0  0  0
  188.9140  177.4720  146.2010 O   0  0  0  0  0  0  0  0  0  0  0  0
  188.4060  178.0260  142.1130 N   0  0  0  0  0  0  0  0  0  0  0  0
  186.5040  177.9150  143.4350 C   0  0  0  0  0  0  0  0  0  0  0  0
  188.8260  177.8690  143.3370 C   0  0  0  0  0  3  0  0  0  0  0  0
  184.7270  178.1810  141.3360 C   0  0  0  0  0  0  0  0  0  0  0  0
  187.7160  177.5980  145.5340 N   0  0  0  0  0  0  0  0  0  0  0  0
  183.8290  178.3050  140.2850 O   0  0  0  0  0  1  0  0  0  0  0  0
  184.2470  178.0340  142.6560 C   0  0  0  0  0  3  0  0  0  0  0  0
  185.1420  177.8970  143.7310 C   0  0  0  0  0  3  0  0  0  0  0  0
  186.9800  178.0530  142.1560 C   0  0  0  0  0  0  0  0  0  0  0  0
  186.1120  178.1910  141.0750 C   0  0  0  0  0  3  0  0  0  0  0  0
  187.6810  177.7860  144.2550 C   0  0  0  0  0  0  0  0  0  0  0  0
  191.7310  176.3770  145.9790 C   0  0  0  0  0  2  0  0  0  0  0  0
  194.1300  175.7030  143.0980 C   0  0  0  0  0  2  0  0  0  0  0  0
  192.8070  175.6050  145.2260 C   0  0  1  0  0  3  0  0  0  0  0  0
  195.3940  175.2740  145.1410 C   0  0  1  0  0  3  0  0  0  0  0  0
  194.4360  177.3640  146.3810 C   0  0  0  0  0  1  0  0  0  0  0  0
  193.4870  176.5190  144.2100 C   0  0  1  0  0  3  0  0  0  0  0  0
  195.2080  174.8200  143.7040 C   0  0  0  0  0  2  0  0  0  0  0  0
  194.2090  176.1550  145.4840 C   0  0  2  0  0  0  0  0  0  0  0  0
  195.4280  174.1210  146.0360 N   0  0  0  0  0  2  0  0  0  0  0  0
  197.0820  172.4630  145.4880 C   0  0  0  0  0  3  0  0  0  0  0  0
  196.6550  170.1190  145.5180 O   0  0  0  0  0  0  0  0  0  0  0  0
  194.4580  171.5910  145.4260 S   0  0  0  0  0  0  0  0  0  0  0  0
  197.5070  171.1080  145.0130 C   0  0  0  0  0  2  0  0  0  0  0  0
  195.4850  170.2350  144.7620 C   0  0  2  0  0  3  0  0  0  0  0  0
  194.5740  168.7090  144.8430 Cl  0  0  0  0  0  0  0  0  0  0  0  0
  195.7920  172.7970  145.6310 C   0  0  0  0  0  0  0  0  0  0  0  0
  1 27  1  0  0  0  0
  1 14  1  0  0  0  0
  2  3  1  0  0  0  0
  3  7  2  0  0  0  0
  4 10  2  0  0  0  0
  5  9  1  0  0  0  0
  6 12  1  0  0  0  0
  9  2  1  0  0  0  0
 10  7  1  0  0  0  0
 10  1  1  0  0  0  0
 11  2  2  0  0  0  0
 11  4  1  0  0  0  0
 12  8  2  6  0  0  0
 12  5  1  0  0  0  0
 12 13  1  0  0  0  0
 13 11  1  0  0  0  0
 15 14  1  0  0  0  0
 16 24  1  0  0  0  0
 16 18  2  0  0  0  0
 17 23  1  0  0  0  0
 17 26  1  0  0  0  0
 18 26  1  0  0  0  0
 19 22  1  0  0  0  0
 20 15  1  0  0  0  0
 21 19  1  0  0  0  0
 22 23  2  0  0  0  0
 24 17  2  0  0  0  0
 25 19  2  0  0  0  0
 25 24  1  0  0  0  0
 26 20  2  0  0  0  0
 28 33  1  0  0  0  0
 29 34  1  0  0  0  0
 29 27  1  1  0  0  0
 30 34  1  0  0  0  0
 30 35  1  1  0  0  0
 32 28  1  6  0  0  0
 32 29  1  0  0  0  0
 32 34  1  0  0  0  0
 33 30  1  0  0  0  0
 34 31  1  1  0  0  0
 36 42  2  0  0  0  0
 38 42  1  0  0  0  0
 39 36  1  0  0  0  0
 39 37  1  0  0  0  0
 40 41  1  1  0  0  0
 40 38  1  0  0  0  0
 40 37  1  0  0  0  0
 42 35  1  0  0  0  0
M  END
>  <MODEL>
4

>  <REMARK>
 VINA RESULT:      -7.7      2.570      3.023
  Name = 
  8 active torsions:
  status: ('A' for Active; 'I' for Inactive)
    1  A    between atoms: C_10  and  C_29
    2  A    between atoms: N_13  and  C_14
    3  A    between atoms: N_13  and  C_38
    4  A    between atoms: N_18  and  O_30
    5  A    between atoms: C_23  and  O_30
    6  A    between atoms: C_23  and  N_35
    7  A    between atoms: C_27  and  N_35
    8  A    between atoms: C_29  and  N_35
                            x       y       z     vdW  Elec       q    Type
                         _______ _______ _______ _____ _____    ______ ____

>  <TORSDO>
F 8

$$$$
=
 OpenBabel11042413363D

 42 48  0  0  1  0  0  0  0  0999 V2000
  190.0240  174.4990  144.7800 N   0  0  0  0  0  0  0  0  0  0  0  0
  186.8130  177.0540  145.9520 C   0  0  0  0  0  0  0  0  0  0  0  0
  187.6640  176.4970  146.9110 C   0  0  0  0  0  3  0  0  0  0  0  0
  188.1080  175.9540  144.2080 C   0  0  0  0  0  3  0  0  0  0  0  0
  184.5800  178.1410  145.6450 C   0  0  0  0  0  2  0  0  0  0  0  0
  185.6260  179.9560  143.9020 O   0  0  0  0  0  1  0  0  0  0  0  0
  188.7180  175.6670  146.5270 C   0  0  0  0  0  3  0  0  0  0  0  0
  183.7130  178.4430  142.9110 O   0  0  0  0  0  0  0  0  0  0  0  0
  185.7610  177.8740  146.3980 O   0  0  0  0  0  0  0  0  0  0  0  0
  188.9470  175.3770  145.1740 C   0  0  0  0  0  0  0  0  0  0  0  0
  187.0510  176.7920  144.5780 C   0  0  0  0  0  0  0  0  0  0  0  0
  185.0380  178.5640  143.9520 P   0  0  2  0  0  0  0  0  0  0  0  0
  186.2580  177.3850  143.5450 N   0  0  0  0  0  2  0  0  0  0  0  0
  190.0450  173.1000  145.1900 C   0  0  0  0  0  2  0  0  0  0  0  0
  189.2730  172.3190  144.2920 O   0  0  0  0  0  0  0  0  0  0  0  0
  188.2040  173.4940  140.4520 N   0  0  0  0  0  0  0  0  0  0  0  0
  189.8890  171.9160  140.6700 C   0  0  0  0  0  0  0  0  0  0  0  0
  188.3380  173.2850  141.7310 C   0  0  0  0  0  3  0  0  0  0  0  0
  190.3700  171.6890  137.9600 C   0  0  0  0  0  0  0  0  0  0  0  0
  189.8230  171.8650  143.1130 N   0  0  0  0  0  0  0  0  0  0  0  0
  190.6240  171.5760  136.6000 O   0  0  0  0  0  1  0  0  0  0  0  0
  191.1260  170.9290  138.8790 C   0  0  0  0  0  3  0  0  0  0  0  0
  190.8900  171.0370  140.2610 C   0  0  0  0  0  3  0  0  0  0  0  0
  189.1530  172.6620  139.7850 C   0  0  0  0  0  0  0  0  0  0  0  0
  189.3690  172.5700  138.4120 C   0  0  0  0  0  3  0  0  0  0  0  0
  189.3940  172.2910  141.9710 C   0  0  0  0  0  0  0  0  0  0  0  0
  191.1370  174.9670  143.9620 C   0  0  0  0  0  2  0  0  0  0  0  0
  192.7670  176.1900  147.1800 C   0  0  0  0  0  2  0  0  0  0  0  0
  192.0790  175.8260  144.7970 C   0  0  1  0  0  3  0  0  0  0  0  0
  194.5720  175.9690  145.5530 C   0  0  1  0  0  3  0  0  0  0  0  0
  193.6760  173.7050  144.6050 C   0  0  0  0  0  1  0  0  0  0  0  0
  192.3250  175.1620  146.1490 C   0  0  1  0  0  3  0  0  0  0  0  0
  194.0840  176.7970  146.7280 C   0  0  0  0  0  2  0  0  0  0  0  0
  193.4030  175.1220  145.0930 C   0  0  2  0  0  0  0  0  0  0  0  0
  195.0100  176.8390  144.4660 N   0  0  0  0  0  2  0  0  0  0  0  0
  197.0730  176.0520  143.5130 C   0  0  0  0  0  3  0  0  0  0  0  0
  197.2050  174.9040  141.4290 O   0  0  0  0  0  0  0  0  0  0  0  0
  194.9470  176.2460  141.7540 S   0  0  0  0  0  0  0  0  0  0  0  0
  197.9410  175.6400  142.3640 C   0  0  0  0  0  2  0  0  0  0  0  0
  196.4270  175.8530  140.7590 C   0  0  2  0  0  3  0  0  0  0  0  0
  195.9230  175.1990  139.1830 Cl  0  0  0  0  0  0  0  0  0  0  0  0
  195.7900  176.4010  143.3480 C   0  0  0  0  0  0  0  0  0  0  0  0
  1 10  1  0  0  0  0
  1 14  1  0  0  0  0
  2  9  1  0  0  0  0
  2  3  1  0  0  0  0
  4 11  1  0  0  0  0
  4 10  2  0  0  0  0
  5  9  1  0  0  0  0
  6 12  1  0  0  0  0
  7  3  2  0  0  0  0
 10  7  1  0  0  0  0
 11  2  2  0  0  0  0
 12  8  2  6  0  0  0
 12  5  1  0  0  0  0
 13 12  1  0  0  0  0
 13 11  1  0  0  0  0
 15 14  1  0  0  0  0
 16 18  2  0  0  0  0
 17 26  1  0  0  0  0
 18 26  1  0  0  0  0
 19 25  2  0  0  0  0
 19 22  1  0  0  0  0
 20 15  1  0  0  0  0
 21 19  1  0  0  0  0
 22 23  2  0  0  0  0
 23 17  1  0  0  0  0
 24 16  1  0  0  0  0
 24 17  2  0  0  0  0
 25 24  1  0  0  0  0
 26 20  2  0  0  0  0
 27  1  1  0  0  0  0
 29 27  1  6  0  0  0
 29 34  1  0  0  0  0
 29 32  1  0  0  0  0
 30 35  1  6  0  0  0
 30 33  1  0  0  0  0
 32 28  1  1  0  0  0
 33 28  1  0  0  0  0
 34 31  1  6  0  0  0
 34 30  1  0  0  0  0
 34 32  1  0  0  0  0
 37 39  1  0  0  0  0
 38 42  1  0  0  0  0
 39 36  1  0  0  0  0
 40 41  1  6  0  0  0
 40 37  1  0  0  0  0
 40 38  1  0  0  0  0
 42 36  2  0  0  0  0
 42 35  1  0  0  0  0
M  END
>  <MODEL>
5

>  <REMARK>
 VINA RESULT:      -7.6      2.594      5.696
  Name = 
  8 active torsions:
  status: ('A' for Active; 'I' for Inactive)
    1  A    between atoms: C_10  and  C_29
    2  A    between atoms: N_13  and  C_14
    3  A    between atoms: N_13  and  C_38
    4  A    between atoms: N_18  and  O_30
    5  A    between atoms: C_23  and  O_30
    6  A    between atoms: C_23  and  N_35
    7  A    between atoms: C_27  and  N_35
    8  A    between atoms: C_29  and  N_35
                            x       y       z     vdW  Elec       q    Type
                         _______ _______ _______ _____ _____    ______ ____

>  <TORSDO>
F 8

$$$$
=
 OpenBabel11042413363D

 42 48  0  0  1  0  0  0  0  0999 V2000
  191.3140  173.6330  144.9860 N   0  0  0  0  0  0  0  0  0  0  0  0
  191.2280  173.1640  140.7460 C   0  0  0  0  0  0  0  0  0  0  0  0
  192.3550  172.7840  141.4790 C   0  0  0  0  0  3  0  0  0  0  0  0
  190.1360  173.8210  142.8210 C   0  0  0  0  0  3  0  0  0  0  0  0
  190.4340  173.7230  138.4390 C   0  0  0  0  0  2  0  0  0  0  0  0
  188.1240  172.3280  138.8220 O   0  0  0  0  0  1  0  0  0  0  0  0
  192.3810  172.9310  142.8670 C   0  0  0  0  0  3  0  0  0  0  0  0
  187.7980  174.8840  138.2820 O   0  0  0  0  0  0  0  0  0  0  0  0
  191.2620  173.0020  139.3490 O   0  0  0  0  0  0  0  0  0  0  0  0
  191.2780  173.4600  143.5530 C   0  0  0  0  0  0  0  0  0  0  0  0
  190.0940  173.6740  141.4310 C   0  0  0  0  0  0  0  0  0  0  0  0
  188.7320  173.6960  139.0380 P   0  0  2  0  0  0  0  0  0  0  0  0
  188.8860  174.0190  140.7460 N   0  0  0  0  0  2  0  0  0  0  0  0
  190.0890  173.6360  145.7760 C   0  0  0  0  0  2  0  0  0  0  0  0
  189.9310  174.8870  146.4250 O   0  0  0  0  0  0  0  0  0  0  0  0
  188.1940  177.9190  144.1750 N   0  0  0  0  0  0  0  0  0  0  0  0
  186.9570  177.0220  145.9200 C   0  0  0  0  0  0  0  0  0  0  0  0
  188.9520  177.0140  144.7270 C   0  0  0  0  0  3  0  0  0  0  0  0
  184.7240  178.5860  145.4720 C   0  0  0  0  0  0  0  0  0  0  0  0
  188.6760  175.4260  146.6060 N   0  0  0  0  0  0  0  0  0  0  0  0
  183.5960  179.3620  145.2480 O   0  0  0  0  0  1  0  0  0  0  0  0
  184.7280  177.6410  146.5210 C   0  0  0  0  0  3  0  0  0  0  0  0
  185.8580  176.8390  146.7580 C   0  0  0  0  0  3  0  0  0  0  0  0
  186.9610  177.9340  144.8950 C   0  0  0  0  0  0  0  0  0  0  0  0
  185.8530  178.7390  144.6430 C   0  0  0  0  0  3  0  0  0  0  0  0
  188.2470  176.3840  145.8520 C   0  0  0  0  0  0  0  0  0  0  0  0
  192.5680  173.8180  145.7070 C   0  0  0  0  0  2  0  0  0  0  0  0
  194.2650  177.1280  146.5260 C   0  0  0  0  0  2  0  0  0  0  0  0
  193.1620  175.1840  145.3890 C   0  0  1  0  0  3  0  0  0  0  0  0
  195.3500  176.2980  144.5030 C   0  0  1  0  0  3  0  0  0  0  0  0
  195.4550  173.8320  145.3620 C   0  0  0  0  0  1  0  0  0  0  0  0
  194.1020  175.6150  146.5110 C   0  0  1  0  0  3  0  0  0  0  0  0
  194.8980  177.5610  145.2140 C   0  0  0  0  0  2  0  0  0  0  0  0
  194.6790  175.1330  145.2030 C   0  0  2  0  0  0  0  0  0  0  0  0
  194.9450  176.3330  143.1010 N   0  0  0  0  0  2  0  0  0  0  0  0
  197.0340  175.5250  142.2260 C   0  0  0  0  0  3  0  0  0  0  0  0
  197.2250  174.3240  140.1780 O   0  0  0  0  0  0  0  0  0  0  0  0
  194.9570  175.6690  140.4040 S   0  0  0  0  0  0  0  0  0  0  0  0
  197.9340  175.0860  141.1120 C   0  0  0  0  0  2  0  0  0  0  0  0
  196.4640  175.2530  139.4610 C   0  0  2  0  0  3  0  0  0  0  0  0
  196.0060  174.5570  137.8900 Cl  0  0  0  0  0  0  0  0  0  0  0  0
  195.7560  175.8680  142.0170 C   0  0  0  0  0  0  0  0  0  0  0  0
  1 27  1  0  0  0  0
  1 14  1  0  0  0  0
  2 11  2  0  0  0  0
  2  3  1  0  0  0  0
  3  7  2  0  0  0  0
  4 10  2  0  0  0  0
  5 12  1  0  0  0  0
  5  9  1  0  0  0  0
  6 12  1  0  0  0  0
  7 10  1  0  0  0  0
  9  2  1  0  0  0  0
 10  1  1  0  0  0  0
 11  4  1  0  0  0  0
 12  8  2  6  0  0  0
 12 13  1  0  0  0  0
 13 11  1  0  0  0  0
 14 15  1  0  0  0  0
 15 20  1  0  0  0  0
 16 18  2  0  0  0  0
 16 24  1  0  0  0  0
 17 23  1  0  0  0  0
 18 26  1  0  0  0  0
 19 22  1  0  0  0  0
 21 19  1  0  0  0  0
 22 23  2  0  0  0  0
 24 17  2  0  0  0  0
 25 24  1  0  0  0  0
 25 19  2  0  0  0  0
 26 17  1  0  0  0  0
 26 20  2  0  0  0  0
 29 27  1  1  0  0  0
 29 32  1  0  0  0  0
 30 35  1  6  0  0  0
 30 34  1  0  0  0  0
 30 33  1  0  0  0  0
 32 28  1  6  0  0  0
 33 28  1  0  0  0  0
 34 31  1  6  0  0  0
 34 29  1  0  0  0  0
 34 32  1  0  0  0  0
 37 39  1  0  0  0  0
 38 42  1  0  0  0  0
 39 36  1  0  0  0  0
 40 41  1  6  0  0  0
 40 37  1  0  0  0  0
 40 38  1  0  0  0  0
 42 36  2  0  0  0  0
 42 35  1  0  0  0  0
M  END
>  <MODEL>
6

>  <REMARK>
 VINA RESULT:      -7.5      1.998      2.709
  Name = 
  8 active torsions:
  status: ('A' for Active; 'I' for Inactive)
    1  A    between atoms: C_10  and  C_29
    2  A    between atoms: N_13  and  C_14
    3  A    between atoms: N_13  and  C_38
    4  A    between atoms: N_18  and  O_30
    5  A    between atoms: C_23  and  O_30
    6  A    between atoms: C_23  and  N_35
    7  A    between atoms: C_27  and  N_35
    8  A    between atoms: C_29  and  N_35
                            x       y       z     vdW  Elec       q    Type
                         _______ _______ _______ _____ _____    ______ ____

>  <TORSDO>
F 8

$$$$
=
 OpenBabel11042413363D

 42 48  0  0  1  0  0  0  0  0999 V2000
  190.4220  174.5000  144.0790 N   0  0  0  0  0  0  0  0  0  0  0  0
  188.8580  173.0500  140.3830 C   0  0  0  0  0  0  0  0  0  0  0  0
  188.0470  173.1170  141.5190 C   0  0  0  0  0  3  0  0  0  0  0  0
  190.6990  173.9790  141.6780 C   0  0  0  0  0  3  0  0  0  0  0  0
  189.0510  172.0000  138.1190 C   0  0  0  0  0  2  0  0  0  0  0  0
  189.9360  174.3390  137.0350 O   0  0  0  0  0  1  0  0  0  0  0  0
  188.5560  173.5980  142.7260 C   0  0  0  0  0  3  0  0  0  0  0  0
  191.6070  172.3140  136.8210 O   0  0  0  0  0  0  0  0  0  0  0  0
  188.2940  172.5470  139.1970 O   0  0  0  0  0  0  0  0  0  0  0  0
  189.8890  174.0240  142.8240 C   0  0  0  0  0  0  0  0  0  0  0  0
  190.2000  173.5050  140.4610 C   0  0  0  0  0  0  0  0  0  0  0  0
  190.4320  173.1000  137.7470 P   0  0  2  0  0  0  0  0  0  0  0  0
  191.0610  173.5250  139.3180 N   0  0  0  0  0  2  0  0  0  0  0  0
  189.6520  175.3980  144.9320 C   0  0  0  0  0  2  0  0  0  0  0  0
  189.3350  176.5860  144.2240 O   0  0  0  0  0  0  0  0  0  0  0  0
  187.3940  177.3940  140.6390 N   0  0  0  0  0  0  0  0  0  0  0  0
  186.1790  177.6180  142.6020 C   0  0  0  0  0  0  0  0  0  0  0  0
  188.2170  177.1070  141.6080 C   0  0  0  0  0  3  0  0  0  0  0  0
  183.8170  178.3200  141.3530 C   0  0  0  0  0  0  0  0  0  0  0  0
  188.0230  176.9780  144.0730 N   0  0  0  0  0  0  0  0  0  0  0  0
  182.6250  178.6660  140.7320 O   0  0  0  0  0  1  0  0  0  0  0  0
  183.8710  178.2210  142.7600 C   0  0  0  0  0  3  0  0  0  0  0  0
  185.0680  177.8640  143.4060 C   0  0  0  0  0  3  0  0  0  0  0  0
  186.1350  177.7080  141.2340 C   0  0  0  0  0  0  0  0  0  0  0  0
  184.9610  178.0610  140.5730 C   0  0  0  0  0  3  0  0  0  0  0  0
  187.5310  177.2210  142.9030 C   0  0  0  0  0  0  0  0  0  0  0  0
  191.7460  174.1110  144.5500 C   0  0  0  0  0  2  0  0  0  0  0  0
  193.1260  176.4410  147.2290 C   0  0  0  0  0  2  0  0  0  0  0  0
  192.4980  175.3290  145.0710 C   0  0  1  0  0  3  0  0  0  0  0  0
  194.9160  176.1610  145.5930 C   0  0  1  0  0  3  0  0  0  0  0  0
  194.5020  173.5950  145.3190 C   0  0  0  0  0  1  0  0  0  0  0  0
  192.8960  175.1100  146.5270 C   0  0  1  0  0  3  0  0  0  0  0  0
  194.2800  177.1560  146.5470 C   0  0  0  0  0  2  0  0  0  0  0  0
  193.9440  175.0070  145.4460 C   0  0  2  0  0  0  0  0  0  0  0  0
  195.1470  176.7820  144.2920 N   0  0  0  0  0  2  0  0  0  0  0  0
  197.0120  175.4590  143.5490 C   0  0  0  0  0  3  0  0  0  0  0  0
  197.1410  174.4640  141.3880 O   0  0  0  0  0  0  0  0  0  0  0  0
  195.3590  176.4140  141.5470 S   0  0  0  0  0  0  0  0  0  0  0  0
  197.8970  174.8750  142.4910 C   0  0  0  0  0  2  0  0  0  0  0  0
  196.8000  175.6480  140.7270 C   0  0  2  0  0  3  0  0  0  0  0  0
  196.3930  175.2860  139.0340 Cl  0  0  0  0  0  0  0  0  0  0  0  0
  195.9360  176.1980  143.2500 C   0  0  0  0  0  0  0  0  0  0  0  0
  1 27  1  0  0  0  0
  1 14  1  0  0  0  0
  2 11  2  0  0  0  0
  2  3  1  0  0  0  0
  3  7  2  0  0  0  0
  4 10  2  0  0  0  0
  5  9  1  0  0  0  0
  6 12  1  0  0  0  0
  7 10  1  0  0  0  0
  9  2  1  0  0  0  0
 10  1  1  0  0  0  0
 11  4  1  0  0  0  0
 12  8  2  6  0  0  0
 12  5  1  0  0  0  0
 12 13  1  0  0  0  0
 13 11  1  0  0  0  0
 15 14  1  0  0  0  0
 16 24  1  0  0  0  0
 16 18  2  0  0  0  0
 17 26  1  0  0  0  0
 17 23  1  0  0  0  0
 18 26  1  0  0  0  0
 19 22  1  0  0  0  0
 20 15  1  0  0  0  0
 21 19  1  0  0  0  0
 22 23  2  0  0  0  0
 24 17  2  0  0  0  0
 25 24  1  0  0  0  0
 25 19  2  0  0  0  0
 26 20  2  0  0  0  0
 29 27  1  6  0  0  0
 29 34  1  0  0  0  0
 29 32  1  0  0  0  0
 30 35  1  6  0  0  0
 30 33  1  0  0  0  0
 32 28  1  1  0  0  0
 33 28  1  0  0  0  0
 34 31  1  6  0  0  0
 34 30  1  0  0  0  0
 34 32  1  0  0  0  0
 37 39  1  0  0  0  0
 38 42  1  0  0  0  0
 39 36  1  0  0  0  0
 40 41  1  6  0  0  0
 40 37  1  0  0  0  0
 40 38  1  0  0  0  0
 42 36  2  0  0  0  0
 42 35  1  0  0  0  0
M  END
>  <MODEL>
7

>  <REMARK>
 VINA RESULT:      -7.5      1.783      2.282
  Name = 
  8 active torsions:
  status: ('A' for Active; 'I' for Inactive)
    1  A    between atoms: C_10  and  C_29
    2  A    between atoms: N_13  and  C_14
    3  A    between atoms: N_13  and  C_38
    4  A    between atoms: N_18  and  O_30
    5  A    between atoms: C_23  and  O_30
    6  A    between atoms: C_23  and  N_35
    7  A    between atoms: C_27  and  N_35
    8  A    between atoms: C_29  and  N_35
                            x       y       z     vdW  Elec       q    Type
                         _______ _______ _______ _____ _____    ______ ____

>  <TORSDO>
F 8

$$$$
=
 OpenBabel11042413363D

 42 48  0  0  1  0  0  0  0  0999 V2000
  189.8790  177.1740  146.8730 N   0  0  0  0  0  0  0  0  0  0  0  0
  189.5780  175.9870  142.7850 C   0  0  0  0  0  0  0  0  0  0  0  0
  190.1700  177.2050  143.1290 C   0  0  0  0  0  3  0  0  0  0  0  0
  189.2170  175.5290  145.1490 C   0  0  0  0  0  3  0  0  0  0  0  0
  188.5570  174.7230  140.8820 C   0  0  0  0  0  2  0  0  0  0  0  0
  189.8120  172.4260  141.6440 O   0  0  0  0  0  1  0  0  0  0  0  0
  190.2750  177.5900  144.4660 C   0  0  0  0  0  3  0  0  0  0  0  0
  187.1830  172.2920  141.6030 O   0  0  0  0  0  0  0  0  0  0  0  0
  189.4910  175.6560  141.4210 O   0  0  0  0  0  0  0  0  0  0  0  0
  189.7910  176.7640  145.4910 C   0  0  0  0  0  0  0  0  0  0  0  0
  189.1110  175.1290  143.8130 C   0  0  0  0  0  0  0  0  0  0  0  0
  188.5570  173.2310  141.8960 P   0  0  2  0  0  0  0  0  0  0  0  0
  188.5560  173.8400  143.5320 N   0  0  0  0  0  2  0  0  0  0  0  0
  191.0560  176.8670  147.6760 C   0  0  0  0  0  2  0  0  0  0  0  0
  191.8370  175.8720  147.0340 O   0  0  0  0  0  0  0  0  0  0  0  0
  193.2820  174.0320  143.5990 N   0  0  0  0  0  0  0  0  0  0  0  0
  194.4800  175.8250  144.4510 C   0  0  0  0  0  0  0  0  0  0  0  0
  192.6450  174.4160  144.6690 C   0  0  0  0  0  3  0  0  0  0  0  0
  196.4020  175.8060  142.4670 C   0  0  0  0  0  0  0  0  0  0  0  0
  192.9710  176.2200  146.3330 N   0  0  0  0  0  0  0  0  0  0  0  0
  197.3670  175.8080  141.4690 O   0  0  0  0  0  1  0  0  0  0  0  0
  196.4610  176.7670  143.5000 C   0  0  0  0  0  3  0  0  0  0  0  0
  195.4880  176.7860  144.5140 C   0  0  0  0  0  3  0  0  0  0  0  0
  194.4120  174.8910  143.4490 C   0  0  0  0  0  0  0  0  0  0  0  0
  195.3660  174.8520  142.4350 C   0  0  0  0  0  3  0  0  0  0  0  0
  193.3340  175.5590  145.2830 C   0  0  0  0  0  0  0  0  0  0  0  0
  188.8010  177.9050  147.5280 C   0  0  0  0  0  2  0  0  0  0  0  0
  185.3230  176.4900  146.8910 C   0  0  0  0  0  2  0  0  0  0  0  0
  187.4990  177.7280  146.7570 C   0  0  1  0  0  3  0  0  0  0  0  0
  185.1850  178.8720  146.3780 C   0  0  1  0  0  3  0  0  0  0  0  0
  186.6100  179.5790  148.4500 C   0  0  0  0  0  1  0  0  0  0  0  0
  186.4150  177.1900  147.6870 C   0  0  1  0  0  3  0  0  0  0  0  0
  184.6660  177.5040  145.9700 C   0  0  0  0  0  2  0  0  0  0  0  0
  186.3870  178.6410  147.2720 C   0  0  2  0  0  0  0  0  0  0  0  0
  185.5840  179.6350  145.1990 N   0  0  0  0  0  2  0  0  0  0  0  0
  186.6920  178.6580  143.3010 C   0  0  0  0  0  3  0  0  0  0  0  0
  185.5470  177.4880  141.5690 O   0  0  0  0  0  0  0  0  0  0  0  0
  183.9650  179.0300  143.0260 S   0  0  0  0  0  0  0  0  0  0  0  0
  186.7310  178.1610  141.8880 C   0  0  0  0  0  2  0  0  0  0  0  0
  184.5960  178.4980  141.3970 C   0  0  2  0  0  3  0  0  0  0  0  0
  183.2490  177.8810  140.4130 Cl  0  0  0  0  0  0  0  0  0  0  0  0
  185.5670  179.1200  143.8630 C   0  0  0  0  0  0  0  0  0  0  0  0
  1 27  1  0  0  0  0
  1 14  1  0  0  0  0
  2  3  2  0  0  0  0
  2 11  1  0  0  0  0
  3  7  1  0  0  0  0
  4 10  1  0  0  0  0
  5  9  1  0  0  0  0
  5 12  1  0  0  0  0
  6 12  1  0  0  0  0
  7 10  2  0  0  0  0
  9  2  1  0  0  0  0
 10  1  1  0  0  0  0
 11  4  2  0  0  0  0
 12  8  2  6  0  0  0
 12 13  1  0  0  0  0
 13 11  1  0  0  0  0
 15 14  1  0  0  0  0
 16 18  2  0  0  0  0
 17 23  1  0  0  0  0
 17 26  1  0  0  0  0
 18 26  1  0  0  0  0
 19 22  1  0  0  0  0
 20 15  1  0  0  0  0
 21 19  1  0  0  0  0
 22 23  2  0  0  0  0
 24 16  1  0  0  0  0
 24 17  2  0  0  0  0
 25 19  2  0  0  0  0
 25 24  1  0  0  0  0
 26 20  2  0  0  0  0
 29 34  1  0  0  0  0
 29 27  1  1  0  0  0
 29 32  1  0  0  0  0
 30 35  1  6  0  0  0
 30 34  1  0  0  0  0
 32 28  1  6  0  0  0
 33 30  1  0  0  0  0
 33 28  1  0  0  0  0
 34 32  1  0  0  0  0
 34 31  1  1  0  0  0
 36 42  2  0  0  0  0
 37 39  1  0  0  0  0
 38 42  1  0  0  0  0
 39 36  1  0  0  0  0
 40 41  1  6  0  0  0
 40 37  1  0  0  0  0
 40 38  1  0  0  0  0
 42 35  1  0  0  0  0
M  END
>  <MODEL>
8

>  <REMARK>
 VINA RESULT:      -7.5      3.525      7.852
  Name = 
  8 active torsions:
  status: ('A' for Active; 'I' for Inactive)
    1  A    between atoms: C_10  and  C_29
    2  A    between atoms: N_13  and  C_14
    3  A    between atoms: N_13  and  C_38
    4  A    between atoms: N_18  and  O_30
    5  A    between atoms: C_23  and  O_30
    6  A    between atoms: C_23  and  N_35
    7  A    between atoms: C_27  and  N_35
    8  A    between atoms: C_29  and  N_35
                            x       y       z     vdW  Elec       q    Type
                         _______ _______ _______ _____ _____    ______ ____

>  <TORSDO>
F 8

$$$$
=
 OpenBabel11042413363D

 42 48  0  0  1  0  0  0  0  0999 V2000
  190.9090  175.2210  143.0170 N   0  0  0  0  0  0  0  0  0  0  0  0
  189.2320  172.7400  139.9770 C   0  0  0  0  0  0  0  0  0  0  0  0
  188.4180  173.3020  140.9640 C   0  0  0  0  0  3  0  0  0  0  0  0
  191.1560  173.8500  140.9740 C   0  0  0  0  0  3  0  0  0  0  0  0
  189.3240  170.9380  138.2430 C   0  0  0  0  0  2  0  0  0  0  0  0
  190.5250  172.6160  136.4630 O   0  0  0  0  0  0  0  0  0  0  0  0
  188.9650  174.1190  141.9540 C   0  0  0  0  0  3  0  0  0  0  0  0
  191.9210  170.4700  137.0780 O   0  0  0  0  0  1  0  0  0  0  0  0
  188.6270  171.9170  139.0100 O   0  0  0  0  0  0  0  0  0  0  0  0
  190.3410  174.3940  141.9780 C   0  0  0  0  0  0  0  0  0  0  0  0
  190.6200  173.0340  139.9720 C   0  0  0  0  0  0  0  0  0  0  0  0
  190.8430  171.6640  137.5940 P   0  0  2  0  0  0  0  0  0  0  0  0
  191.4960  172.5450  138.9510 N   0  0  0  0  0  2  0  0  0  0  0  0
  191.3510  176.5820  142.7390 C   0  0  0  0  0  2  0  0  0  0  0  0
  190.2280  177.4350  142.5810 O   0  0  0  0  0  0  0  0  0  0  0  0
  186.2380  178.5140  142.1420 N   0  0  0  0  0  0  0  0  0  0  0  0
  187.0080  178.0620  144.2830 C   0  0  0  0  0  0  0  0  0  0  0  0
  187.5020  178.2220  142.0170 C   0  0  0  0  0  3  0  0  0  0  0  0
  184.5700  178.4720  145.5150 C   0  0  0  0  0  0  0  0  0  0  0  0
  189.2950  177.5540  143.5880 N   0  0  0  0  0  0  0  0  0  0  0  0
  183.3460  178.6690  146.1400 O   0  0  0  0  0  1  0  0  0  0  0  0
  185.6970  178.1020  146.2810 C   0  0  0  0  0  3  0  0  0  0  0  0
  186.9420  177.8900  145.6640 C   0  0  0  0  0  3  0  0  0  0  0  0
  185.9170  178.4170  143.5300 C   0  0  0  0  0  0  0  0  0  0  0  0
  184.6740  178.6340  144.1200 C   0  0  0  0  0  3  0  0  0  0  0  0
  188.0810  177.9170  143.3330 C   0  0  0  0  0  0  0  0  0  0  0  0
  191.0730  174.7370  144.3820 C   0  0  0  0  0  2  0  0  0  0  0  0
  192.4790  176.3760  147.5190 C   0  0  0  0  0  2  0  0  0  0  0  0
  191.9910  175.6680  145.1640 C   0  0  1  0  0  3  0  0  0  0  0  0
  194.4080  175.7980  146.1400 C   0  0  1  0  0  3  0  0  0  0  0  0
  193.4490  173.4620  145.4700 C   0  0  0  0  0  1  0  0  0  0  0  0
  192.0650  175.2190  146.6210 C   0  0  1  0  0  3  0  0  0  0  0  0
  193.8710  176.8310  147.1150 C   0  0  0  0  0  2  0  0  0  0  0  0
  193.2300  174.9510  145.7010 C   0  0  2  0  0  0  0  0  0  0  0  0
  195.0030  176.4570  144.9810 N   0  0  0  0  0  2  0  0  0  0  0  0
  196.8080  174.9050  144.6390 C   0  0  0  0  0  3  0  0  0  0  0  0
  197.5460  174.1990  142.4860 O   0  0  0  0  0  0  0  0  0  0  0  0
  196.1100  176.4220  142.4340 S   0  0  0  0  0  0  0  0  0  0  0  0
  197.9170  174.3040  143.8310 C   0  0  0  0  0  2  0  0  0  0  0  0
  197.6250  175.5040  141.9900 C   0  0  2  0  0  3  0  0  0  0  0  0
  197.7900  175.4550  140.2200 Cl  0  0  0  0  0  0  0  0  0  0  0  0
  196.0180  175.8730  144.1560 C   0  0  0  0  0  0  0  0  0  0  0  0
  1 27  1  0  0  0  0
  2  3  1  0  0  0  0
  3  7  2  0  0  0  0
  4 10  2  0  0  0  0
  5  9  1  0  0  0  0
  7 10  1  0  0  0  0
  8 12  1  0  0  0  0
  9  2  1  0  0  0  0
 10  1  1  0  0  0  0
 11  2  2  0  0  0  0
 11  4  1  0  0  0  0
 12  6  2  6  0  0  0
 12  5  1  0  0  0  0
 12 13  1  0  0  0  0
 13 11  1  0  0  0  0
 14  1  1  0  0  0  0
 15 14  1  0  0  0  0
 15 20  1  0  0  0  0
 16 24  1  0  0  0  0
 17 23  1  0  0  0  0
 18 16  2  0  0  0  0
 18 26  1  0  0  0  0
 19 21  1  0  0  0  0
 19 22  1  0  0  0  0
 23 22  2  0  0  0  0
 24 25  1  0  0  0  0
 24 17  2  0  0  0  0
 25 19  2  0  0  0  0
 26 20  2  0  0  0  0
 26 17  1  0  0  0  0
 29 27  1  6  0  0  0
 29 34  1  0  0  0  0
 29 32  1  0  0  0  0
 30 35  1  6  0  0  0
 30 33  1  0  0  0  0
 32 28  1  1  0  0  0
 33 28  1  0  0  0  0
 34 31  1  6  0  0  0
 34 30  1  0  0  0  0
 34 32  1  0  0  0  0
 37 39  1  0  0  0  0
 38 42  1  0  0  0  0
 39 36  1  0  0  0  0
 40 41  1  6  0  0  0
 40 38  1  0  0  0  0
 40 37  1  0  0  0  0
 42 36  2  0  0  0  0
 42 35  1  0  0  0  0
M  END
>  <MODEL>
9

>  <REMARK>
 VINA RESULT:      -7.4      2.407      3.232
  Name = 
  8 active torsions:
  status: ('A' for Active; 'I' for Inactive)
    1  A    between atoms: C_10  and  C_29
    2  A    between atoms: N_13  and  C_14
    3  A    between atoms: N_13  and  C_38
    4  A    between atoms: N_18  and  O_30
    5  A    between atoms: C_23  and  O_30
    6  A    between atoms: C_23  and  N_35
    7  A    between atoms: C_27  and  N_35
    8  A    between atoms: C_29  and  N_35
                            x       y       z     vdW  Elec       q    Type
                         _______ _______ _______ _____ _____    ______ ____

>  <TORSDO>
F 8

$$$$
