=
 OpenBabel11042415103D

 27 31  0  0  0  0  0  0  0  0999 V2000
  188.7960  177.3920  145.9640 C   0  0  0  0  0  3  0  0  0  0  0  0
  188.1020  176.3030  143.8060 C   0  0  0  0  0  0  0  0  0  0  0  0
  190.5610  175.8120  144.0950 C   0  0  0  0  0  3  0  0  0  0  0  0
  188.5120  174.1190  140.2980 N   0  0  0  0  0  0  0  0  0  0  0  0
  190.5240  173.0900  139.3840 N   0  0  0  0  0  1  0  0  0  0  0  0
  186.9720  176.0700  142.9720 C   0  0  0  0  0  3  0  0  0  0  0  0
  190.4130  174.3760  141.5110 C   0  0  0  0  0  0  0  0  0  0  0  0
  193.1090  176.1770  146.6900 C   0  0  0  0  0  3  0  0  0  0  0  0
  191.8500  174.2570  141.8970 C   0  0  0  0  0  1  0  0  0  0  0  0
  192.6180  176.4540  147.9710 O   0  0  0  0  0  0  0  0  0  0  0  0
  189.3860  175.0250  142.1850 C   0  0  0  0  0  0  0  0  0  0  0  0
  187.8710  177.0720  144.9760 C   0  0  0  0  0  0  0  0  0  0  0  0
  189.8320  173.8440  140.3740 C   0  0  0  0  0  0  0  0  0  0  0  0
  188.2660  174.8370  141.4100 C   0  0  0  0  0  0  0  0  0  0  0  0
  190.1370  177.1130  146.1550 C   0  0  0  0  0  0  0  0  0  0  0  0
  189.3570  175.7430  143.4020 C   0  0  0  0  0  0  0  0  0  0  0  0
  192.4020  176.1270  145.5530 C   0  0  0  0  0  3  0  0  0  0  0  0
  187.0370  175.3460  141.7810 C   0  0  0  0  0  3  0  0  0  0  0  0
  191.2490  176.6440  148.2830 C   0  0  0  0  0  2  0  0  0  0  0  0
  190.6830  177.7270  147.3970 C   0  0  0  0  0  2  0  0  0  0  0  0
  190.9610  176.3700  145.2960 C   0  0  0  0  0  0  0  0  0  0  0  0
  184.0110  178.7540  145.7990 C   0  0  0  0  0  3  0  0  0  0  0  0
  186.5290  177.6460  145.2450 C   0  0  0  0  0  0  0  0  0  0  0  0
  186.1180  178.8260  144.6070 C   0  0  0  0  0  3  0  0  0  0  0  0
  184.8630  179.3760  144.8800 C   0  0  0  0  0  3  0  0  0  0  0  0
  184.4170  177.5840  146.4460 C   0  0  0  0  0  3  0  0  0  0  0  0
  185.6730  177.0330  146.1730 C   0  0  0  0  0  3  0  0  0  0  0  0
  1 15  1  0  0  0  0
  2 12  1  0  0  0  0
  3 21  1  0  0  0  0
  4 13  2  0  0  0  0
  4 14  1  0  0  0  0
  5 13  1  0  0  0  0
  6  2  2  0  0  0  0
  7  9  1  0  0  0  0
  7 11  2  0  0  0  0
  8 10  1  0  0  0  0
 10 19  1  0  0  0  0
 11 16  1  0  0  0  0
 12 23  1  0  0  0  0
 12  1  2  0  0  0  0
 13  7  1  0  0  0  0
 14 18  2  0  0  0  0
 14 11  1  0  0  0  0
 15 20  1  0  0  0  0
 16  2  1  0  0  0  0
 16  3  2  0  0  0  0
 17  8  2  0  0  0  0
 18  6  1  0  0  0  0
 20 19  1  0  0  0  0
 21 17  1  0  0  0  0
 21 15  2  0  0  0  0
 22 26  1  0  0  0  0
 23 27  1  0  0  0  0
 24 25  1  0  0  0  0
 24 23  2  0  0  0  0
 25 22  2  0  0  0  0
 27 26  2  0  0  0  0
M  END
>  <MODEL>
1

>  <REMARK>
 VINA RESULT:      -8.2      0.000      0.000
  Name = 
  1 active torsions:
  status: ('A' for Active; 'I' for Inactive)
    1  A    between atoms: C_9  and  C_15
                            x       y       z     vdW  Elec       q    Type
                         _______ _______ _______ _____ _____    ______ ____

>  <TORSDO>
F 1

$$$$
=
 OpenBabel11042415103D

 27 31  0  0  0  0  0  0  0  0999 V2000
  191.3190  174.9550  142.9320 C   0  0  0  0  0  3  0  0  0  0  0  0
  189.9880  176.1940  144.6690 C   0  0  0  0  0  0  0  0  0  0  0  0
  188.4120  175.7400  142.7500 C   0  0  0  0  0  3  0  0  0  0  0  0
  186.6830  178.0210  146.3950 N   0  0  0  0  0  0  0  0  0  0  0  0
  184.4470  178.2930  145.4630 N   0  0  0  0  0  1  0  0  0  0  0  0
  190.0810  176.7540  145.9730 C   0  0  0  0  0  3  0  0  0  0  0  0
  186.3480  177.1680  144.3190 C   0  0  0  0  0  0  0  0  0  0  0  0
  188.3970  173.7850  139.6610 C   0  0  0  0  0  3  0  0  0  0  0  0
  185.6410  176.8070  143.0550 C   0  0  0  0  0  1  0  0  0  0  0  0
  189.4190  172.8350  139.5540 O   0  0  0  0  0  0  0  0  0  0  0  0
  187.6670  176.9190  144.6750 C   0  0  0  0  0  0  0  0  0  0  0  0
  191.1700  175.6040  144.1530 C   0  0  0  0  0  0  0  0  0  0  0  0
  185.7940  177.8390  145.3950 C   0  0  0  0  0  0  0  0  0  0  0  0
  187.8130  177.4530  145.9330 C   0  0  0  0  0  0  0  0  0  0  0  0
  190.4660  174.6730  141.8800 C   0  0  0  0  0  0  0  0  0  0  0  0
  188.7240  176.2660  143.9990 C   0  0  0  0  0  0  0  0  0  0  0  0
  188.2570  174.7080  140.6220 C   0  0  0  0  0  3  0  0  0  0  0  0
  189.0120  177.3820  146.6140 C   0  0  0  0  0  3  0  0  0  0  0  0
  190.4420  172.6430  140.5150 C   0  0  0  0  0  2  0  0  0  0  0  0
  191.1430  173.9560  140.7640 C   0  0  0  0  0  2  0  0  0  0  0  0
  189.1110  175.0250  141.7940 C   0  0  0  0  0  0  0  0  0  0  0  0
  194.8500  175.7210  146.3560 C   0  0  0  0  0  3  0  0  0  0  0  0
  192.4340  175.6510  144.9290 C   0  0  0  0  0  0  0  0  0  0  0  0
  193.1770  176.8400  145.0090 C   0  0  0  0  0  3  0  0  0  0  0  0
  194.3780  176.8750  145.7230 C   0  0  0  0  0  3  0  0  0  0  0  0
  194.1210  174.5310  146.2730 C   0  0  0  0  0  3  0  0  0  0  0  0
  192.9190  174.4950  145.5600 C   0  0  0  0  0  3  0  0  0  0  0  0
  1 12  1  0  0  0  0
  2  6  1  0  0  0  0
  3 16  1  0  0  0  0
  6 18  2  0  0  0  0
  7 11  1  0  0  0  0
  7 13  2  0  0  0  0
  8 17  2  0  0  0  0
  9  7  1  0  0  0  0
 10  8  1  0  0  0  0
 10 19  1  0  0  0  0
 11 14  1  0  0  0  0
 12  2  2  0  0  0  0
 12 23  1  0  0  0  0
 13  5  1  0  0  0  0
 13  4  1  0  0  0  0
 14  4  2  0  0  0  0
 14 18  1  0  0  0  0
 15  1  2  0  0  0  0
 16  2  1  0  0  0  0
 16 11  2  0  0  0  0
 17 21  1  0  0  0  0
 19 20  1  0  0  0  0
 20 15  1  0  0  0  0
 21 15  1  0  0  0  0
 21  3  2  0  0  0  0
 23 24  2  0  0  0  0
 23 27  1  0  0  0  0
 24 25  1  0  0  0  0
 25 22  2  0  0  0  0
 26 22  1  0  0  0  0
 27 26  2  0  0  0  0
M  END
>  <MODEL>
2

>  <REMARK>
 VINA RESULT:      -7.9      3.221      6.947
  Name = 
  1 active torsions:
  status: ('A' for Active; 'I' for Inactive)
    1  A    between atoms: C_9  and  C_15
                            x       y       z     vdW  Elec       q    Type
                         _______ _______ _______ _____ _____    ______ ____

>  <TORSDO>
F 1

$$$$
=
 OpenBabel11042415103D

 27 31  0  0  0  0  0  0  0  0999 V2000
  187.6320  175.7320  143.1730 C   0  0  0  0  0  3  0  0  0  0  0  0
  189.2580  176.3490  144.9890 C   0  0  0  0  0  0  0  0  0  0  0  0
  190.5110  174.8580  143.3840 C   0  0  0  0  0  3  0  0  0  0  0  0
  192.8580  176.4340  147.0570 N   0  0  0  0  0  0  0  0  0  0  0  0
  194.9410  175.2910  146.5130 N   0  0  0  0  0  1  0  0  0  0  0  0
  189.3830  177.1260  146.1750 C   0  0  0  0  0  3  0  0  0  0  0  0
  192.8450  175.1580  145.1810 C   0  0  0  0  0  0  0  0  0  0  0  0
  189.9840  173.3870  140.0790 C   0  0  0  0  0  3  0  0  0  0  0  0
  193.3410  174.2430  144.1100 C   0  0  0  0  0  1  0  0  0  0  0  0
  188.9170  173.9270  139.3520 O   0  0  0  0  0  0  0  0  0  0  0  0
  191.5830  175.7210  145.3220 C   0  0  0  0  0  0  0  0  0  0  0  0
  187.9880  176.3670  144.3580 C   0  0  0  0  0  0  0  0  0  0  0  0
  193.5800  175.6200  146.2570 C   0  0  0  0  0  0  0  0  0  0  0  0
  191.6480  176.4790  146.4670 C   0  0  0  0  0  0  0  0  0  0  0  0
  188.3070  174.9350  142.2670 C   0  0  0  0  0  0  0  0  0  0  0  0
  190.4110  175.6300  144.5370 C   0  0  0  0  0  0  0  0  0  0  0  0
  190.3050  173.6560  141.3520 C   0  0  0  0  0  3  0  0  0  0  0  0
  190.5620  177.2010  146.9190 C   0  0  0  0  0  3  0  0  0  0  0  0
  188.0400  174.9300  139.8350 C   0  0  0  0  0  2  0  0  0  0  0  0
  187.4410  174.4770  141.1440 C   0  0  0  0  0  2  0  0  0  0  0  0
  189.6480  174.5330  142.3530 C   0  0  0  0  0  0  0  0  0  0  0  0
  184.6860  178.4960  146.0820 C   0  0  0  0  0  3  0  0  0  0  0  0
  186.8560  177.1080  144.9690 C   0  0  0  0  0  0  0  0  0  0  0  0
  186.0600  176.5070  145.9560 C   0  0  0  0  0  3  0  0  0  0  0  0
  184.9820  177.1990  146.5130 C   0  0  0  0  0  3  0  0  0  0  0  0
  185.4670  179.0990  145.0920 C   0  0  0  0  0  3  0  0  0  0  0  0
  186.5460  178.4060  144.5350 C   0  0  0  0  0  3  0  0  0  0  0  0
  1 12  1  0  0  0  0
  2  6  1  0  0  0  0
  3 16  1  0  0  0  0
  6 18  2  0  0  0  0
  7 11  1  0  0  0  0
  7 13  2  0  0  0  0
  8 17  2  0  0  0  0
  9  7  1  0  0  0  0
 10 19  1  0  0  0  0
 10  8  1  0  0  0  0
 11 14  1  0  0  0  0
 12 23  1  0  0  0  0
 12  2  2  0  0  0  0
 13  5  1  0  0  0  0
 13  4  1  0  0  0  0
 14 18  1  0  0  0  0
 14  4  2  0  0  0  0
 15 21  1  0  0  0  0
 15  1  2  0  0  0  0
 16  2  1  0  0  0  0
 16 11  2  0  0  0  0
 17 21  1  0  0  0  0
 19 20  1  0  0  0  0
 20 15  1  0  0  0  0
 21  3  2  0  0  0  0
 22 25  1  0  0  0  0
 23 24  1  0  0  0  0
 24 25  2  0  0  0  0
 26 22  2  0  0  0  0
 27 23  2  0  0  0  0
 27 26  1  0  0  0  0
M  END
>  <MODEL>
3

>  <REMARK>
 VINA RESULT:      -7.8      3.129      5.269
  Name = 
  1 active torsions:
  status: ('A' for Active; 'I' for Inactive)
    1  A    between atoms: C_9  and  C_15
                            x       y       z     vdW  Elec       q    Type
                         _______ _______ _______ _____ _____    ______ ____

>  <TORSDO>
F 1

$$$$
=
 OpenBabel11042415103D

 27 31  0  0  0  0  0  0  0  0999 V2000
  190.7460  174.8950  144.6210 C   0  0  0  0  0  3  0  0  0  0  0  0
  188.4690  175.6340  143.8490 C   0  0  0  0  0  0  0  0  0  0  0  0
  188.8560  176.7310  146.0900 C   0  0  0  0  0  3  0  0  0  0  0  0
  184.8210  177.6120  143.9870 N   0  0  0  0  0  0  0  0  0  0  0  0
  183.9410  179.0400  145.7550 N   0  0  0  0  0  1  0  0  0  0  0  0
  187.5560  175.5260  142.7640 C   0  0  0  0  0  3  0  0  0  0  0  0
  186.1570  177.9110  145.7960 C   0  0  0  0  0  0  0  0  0  0  0  0
  191.6140  177.1770  148.4480 C   0  0  0  0  0  3  0  0  0  0  0  0
  186.6130  178.4050  147.1290 C   0  0  0  0  0  1  0  0  0  0  0  0
  192.8830  176.8730  147.9420 O   0  0  0  0  0  0  0  0  0  0  0  0
  186.8230  177.0760  144.9080 C   0  0  0  0  0  0  0  0  0  0  0  0
  189.6840  174.9120  143.7230 C   0  0  0  0  0  0  0  0  0  0  0  0
  184.9490  178.2070  145.1920 C   0  0  0  0  0  0  0  0  0  0  0  0
  185.9730  176.9310  143.8370 C   0  0  0  0  0  0  0  0  0  0  0  0
  190.9890  175.5070  145.8370 C   0  0  0  0  0  0  0  0  0  0  0  0
  188.0930  176.4560  144.9600 C   0  0  0  0  0  0  0  0  0  0  0  0
  190.4380  176.9760  147.8370 C   0  0  0  0  0  3  0  0  0  0  0  0
  186.3150  176.1630  142.7420 C   0  0  0  0  0  3  0  0  0  0  0  0
  193.1310  176.3740  146.6390 C   0  0  0  0  0  2  0  0  0  0  0  0
  192.3070  175.1290  146.4190 C   0  0  0  0  0  2  0  0  0  0  0  0
  190.1200  176.3690  146.5210 C   0  0  0  0  0  0  0  0  0  0  0  0
  190.4240  172.3950  140.3280 C   0  0  0  0  0  3  0  0  0  0  0  0
  189.9230  174.0450  142.5420 C   0  0  0  0  0  0  0  0  0  0  0  0
  189.4410  172.7270  142.5160 C   0  0  0  0  0  3  0  0  0  0  0  0
  189.6880  171.9070  141.4120 C   0  0  0  0  0  3  0  0  0  0  0  0
  190.9170  173.7030  140.3500 C   0  0  0  0  0  3  0  0  0  0  0  0
  190.6700  174.5240  141.4550 C   0  0  0  0  0  3  0  0  0  0  0  0
  1 15  1  0  0  0  0
  2 16  1  0  0  0  0
  3 21  1  0  0  0  0
  4 13  2  0  0  0  0
  6  2  2  0  0  0  0
  7  9  1  0  0  0  0
 10  8  1  0  0  0  0
 11 16  1  0  0  0  0
 11  7  2  0  0  0  0
 12  2  1  0  0  0  0
 12  1  2  0  0  0  0
 13  5  1  0  0  0  0
 13  7  1  0  0  0  0
 14  4  1  0  0  0  0
 14 11  1  0  0  0  0
 15 20  1  0  0  0  0
 15 21  2  0  0  0  0
 16  3  2  0  0  0  0
 17  8  2  0  0  0  0
 18  6  1  0  0  0  0
 18 14  2  0  0  0  0
 19 10  1  0  0  0  0
 20 19  1  0  0  0  0
 21 17  1  0  0  0  0
 22 26  2  0  0  0  0
 22 25  1  0  0  0  0
 23 12  1  0  0  0  0
 24 23  1  0  0  0  0
 25 24  2  0  0  0  0
 26 27  1  0  0  0  0
 27 23  2  0  0  0  0
M  END
>  <MODEL>
4

>  <REMARK>
 VINA RESULT:      -7.8      2.336      5.742
  Name = 
  1 active torsions:
  status: ('A' for Active; 'I' for Inactive)
    1  A    between atoms: C_9  and  C_15
                            x       y       z     vdW  Elec       q    Type
                         _______ _______ _______ _____ _____    ______ ____

>  <TORSDO>
F 1

$$$$
=
 OpenBabel11042415103D

 27 31  0  0  0  0  0  0  0  0999 V2000
  188.7260  174.9000  143.4730 C   0  0  0  0  0  3  0  0  0  0  0  0
  190.6130  175.5730  144.9930 C   0  0  0  0  0  0  0  0  0  0  0  0
  191.5830  173.9440  143.3270 C   0  0  0  0  0  3  0  0  0  0  0  0
  194.4760  175.6660  146.5130 N   0  0  0  0  0  0  0  0  0  0  0  0
  196.4300  174.4210  145.7530 N   0  0  0  0  0  1  0  0  0  0  0  0
  190.9280  176.4180  146.0940 C   0  0  0  0  0  3  0  0  0  0  0  0
  194.1590  174.2760  144.7470 C   0  0  0  0  0  0  0  0  0  0  0  0
  190.5460  172.2890  140.2370 C   0  0  0  0  0  3  0  0  0  0  0  0
  194.4720  173.2800  143.6800 C   0  0  0  0  0  1  0  0  0  0  0  0
  189.3980  172.8180  139.6360 O   0  0  0  0  0  0  0  0  0  0  0  0
  192.9460  174.8890  145.0300 C   0  0  0  0  0  0  0  0  0  0  0  0
  189.2650  175.5950  144.5500 C   0  0  0  0  0  0  0  0  0  0  0  0
  195.0540  174.7800  145.6740 C   0  0  0  0  0  0  0  0  0  0  0  0
  193.1950  175.7150  146.1010 C   0  0  0  0  0  0  0  0  0  0  0  0
  189.2430  174.0250  142.5350 C   0  0  0  0  0  0  0  0  0  0  0  0
  191.6700  174.7890  144.4280 C   0  0  0  0  0  0  0  0  0  0  0  0
  191.0550  172.6250  141.4300 C   0  0  0  0  0  3  0  0  0  0  0  0
  192.2030  176.5000  146.6550 C   0  0  0  0  0  3  0  0  0  0  0  0
  188.6260  173.8770  140.1720 C   0  0  0  0  0  2  0  0  0  0  0  0
  188.2120  173.5280  141.5810 C   0  0  0  0  0  2  0  0  0  0  0  0
  190.5720  173.5850  142.4540 C   0  0  0  0  0  0  0  0  0  0  0  0
  186.2990  177.9270  146.5920 C   0  0  0  0  0  3  0  0  0  0  0  0
  188.2520  176.4100  145.2660 C   0  0  0  0  0  0  0  0  0  0  0  0
  187.8160  176.0410  146.5480 C   0  0  0  0  0  3  0  0  0  0  0  0
  186.8460  176.7990  147.2090 C   0  0  0  0  0  3  0  0  0  0  0  0
  186.7200  178.2960  145.3120 C   0  0  0  0  0  3  0  0  0  0  0  0
  187.6910  177.5390  144.6490 C   0  0  0  0  0  3  0  0  0  0  0  0
  1 12  1  0  0  0  0
  2  6  1  0  0  0  0
  3 16  1  0  0  0  0
  6 18  2  0  0  0  0
  7 11  1  0  0  0  0
  7 13  2  0  0  0  0
  8 17  2  0  0  0  0
  9  7  1  0  0  0  0
 10 19  1  0  0  0  0
 10  8  1  0  0  0  0
 11 14  1  0  0  0  0
 12  2  2  0  0  0  0
 12 23  1  0  0  0  0
 13  5  1  0  0  0  0
 13  4  1  0  0  0  0
 14  4  2  0  0  0  0
 14 18  1  0  0  0  0
 15  1  2  0  0  0  0
 16  2  1  0  0  0  0
 16 11  2  0  0  0  0
 17 21  1  0  0  0  0
 19 20  1  0  0  0  0
 20 15  1  0  0  0  0
 21 15  1  0  0  0  0
 21  3  2  0  0  0  0
 22 25  1  0  0  0  0
 23 24  1  0  0  0  0
 24 25  2  0  0  0  0
 26 22  2  0  0  0  0
 27 23  2  0  0  0  0
 27 26  1  0  0  0  0
M  END
>  <MODEL>
5

>  <REMARK>
 VINA RESULT:      -7.6      3.340      5.605
  Name = 
  1 active torsions:
  status: ('A' for Active; 'I' for Inactive)
    1  A    between atoms: C_9  and  C_15
                            x       y       z     vdW  Elec       q    Type
                         _______ _______ _______ _____ _____    ______ ____

>  <TORSDO>
F 1

$$$$
=
 OpenBabel11042415103D

 27 31  0  0  0  0  0  0  0  0999 V2000
  189.7030  175.1710  143.3870 C   0  0  0  0  0  3  0  0  0  0  0  0
  187.9200  176.5540  144.4960 C   0  0  0  0  0  0  0  0  0  0  0  0
  187.2070  176.2640  142.0910 C   0  0  0  0  0  3  0  0  0  0  0  0
  184.4020  178.7360  144.8300 N   0  0  0  0  0  0  0  0  0  0  0  0
  182.7670  179.2420  143.0950 N   0  0  0  0  0  1  0  0  0  0  0  0
  187.5380  177.1070  145.7500 C   0  0  0  0  0  3  0  0  0  0  0  0
  184.8430  177.9140  142.7620 C   0  0  0  0  0  0  0  0  0  0  0  0
  188.2340  174.3070  139.1790 C   0  0  0  0  0  3  0  0  0  0  0  0
  184.6690  177.6250  141.3080 C   0  0  0  0  0  1  0  0  0  0  0  0
  189.1130  173.2520  139.4520 O   0  0  0  0  0  0  0  0  0  0  0  0
  185.8770  177.5250  143.6040 C   0  0  0  0  0  0  0  0  0  0  0  0
  189.1440  175.8380  144.4710 C   0  0  0  0  0  0  0  0  0  0  0  0
  183.9750  178.6450  143.5530 C   0  0  0  0  0  0  0  0  0  0  0  0
  185.5590  178.0470  144.8360 C   0  0  0  0  0  0  0  0  0  0  0  0
  189.3190  174.9770  142.0720 C   0  0  0  0  0  0  0  0  0  0  0  0
  187.0440  176.7590  143.3810 C   0  0  0  0  0  0  0  0  0  0  0  0
  187.8150  175.2440  140.0400 C   0  0  0  0  0  3  0  0  0  0  0  0
  186.3710  177.8500  145.9350 C   0  0  0  0  0  3  0  0  0  0  0  0
  189.6390  172.9550  140.7330 C   0  0  0  0  0  2  0  0  0  0  0  0
  190.3110  174.1860  141.2920 C   0  0  0  0  0  2  0  0  0  0  0  0
  188.1550  175.4730  141.4660 C   0  0  0  0  0  0  0  0  0  0  0  0
  191.5650  175.6360  148.0070 C   0  0  0  0  0  3  0  0  0  0  0  0
  189.9890  175.7520  145.6890 C   0  0  0  0  0  0  0  0  0  0  0  0
  189.5820  174.9760  146.7850 C   0  0  0  0  0  3  0  0  0  0  0  0
  190.3690  174.9160  147.9380 C   0  0  0  0  0  3  0  0  0  0  0  0
  191.9730  176.4190  146.9240 C   0  0  0  0  0  3  0  0  0  0  0  0
  191.1860  176.4800  145.7700 C   0  0  0  0  0  3  0  0  0  0  0  0
  1 12  1  0  0  0  0
  2  6  1  0  0  0  0
  3 16  1  0  0  0  0
  4 14  2  0  0  0  0
  5 13  1  0  0  0  0
  6 18  2  0  0  0  0
  7 13  2  0  0  0  0
  7 11  1  0  0  0  0
  8 10  1  0  0  0  0
  8 17  2  0  0  0  0
  9  7  1  0  0  0  0
 10 19  1  0  0  0  0
 11 14  1  0  0  0  0
 12  2  2  0  0  0  0
 12 23  1  0  0  0  0
 13  4  1  0  0  0  0
 14 18  1  0  0  0  0
 15  1  2  0  0  0  0
 16 11  2  0  0  0  0
 16  2  1  0  0  0  0
 17 21  1  0  0  0  0
 19 20  1  0  0  0  0
 20 15  1  0  0  0  0
 21 15  1  0  0  0  0
 21  3  2  0  0  0  0
 23 27  2  0  0  0  0
 23 24  1  0  0  0  0
 24 25  2  0  0  0  0
 25 22  1  0  0  0  0
 26 22  2  0  0  0  0
 27 26  1  0  0  0  0
M  END
>  <MODEL>
6

>  <REMARK>
 VINA RESULT:      -7.6      3.256      6.484
  Name = 
  1 active torsions:
  status: ('A' for Active; 'I' for Inactive)
    1  A    between atoms: C_9  and  C_15
                            x       y       z     vdW  Elec       q    Type
                         _______ _______ _______ _____ _____    ______ ____

>  <TORSDO>
F 1

$$$$
=
 OpenBabel11042415103D

 27 31  0  0  0  0  0  0  0  0999 V2000
  190.2680  174.2460  143.1400 C   0  0  0  0  0  3  0  0  0  0  0  0
  188.5530  176.0650  143.4120 C   0  0  0  0  0  0  0  0  0  0  0  0
  188.3850  175.2750  141.0200 C   0  0  0  0  0  3  0  0  0  0  0  0
  185.5060  178.6660  142.3210 N   0  0  0  0  0  0  0  0  0  0  0  0
  184.4410  178.9190  140.1420 N   0  0  0  0  0  1  0  0  0  0  0  0
  187.9940  176.9540  144.3720 C   0  0  0  0  0  3  0  0  0  0  0  0
  186.2650  177.3110  140.6670 C   0  0  0  0  0  0  0  0  0  0  0  0
  189.6970  172.5480  138.9690 C   0  0  0  0  0  3  0  0  0  0  0  0
  186.3880  176.6930  139.3130 C   0  0  0  0  0  1  0  0  0  0  0  0
  190.2830  171.4960  139.6830 O   0  0  0  0  0  0  0  0  0  0  0  0
  186.9850  177.0220  141.8190 C   0  0  0  0  0  0  0  0  0  0  0  0
  189.5990  175.2240  143.8690 C   0  0  0  0  0  0  0  0  0  0  0  0
  185.3820  178.3140  141.0230 C   0  0  0  0  0  0  0  0  0  0  0  0
  186.4860  177.8670  142.7820 C   0  0  0  0  0  0  0  0  0  0  0  0
  190.1750  173.7800  141.8410 C   0  0  0  0  0  0  0  0  0  0  0  0
  188.0150  176.0900  142.0850 C   0  0  0  0  0  0  0  0  0  0  0  0
  189.2630  173.7130  139.4690 C   0  0  0  0  0  3  0  0  0  0  0  0
  186.9690  177.8530  144.0760 C   0  0  0  0  0  3  0  0  0  0  0  0
  190.4320  171.4660  141.0910 C   0  0  0  0  0  2  0  0  0  0  0  0
  191.1640  172.7070  141.5400 C   0  0  0  0  0  2  0  0  0  0  0  0
  189.2950  174.2460  140.8540 C   0  0  0  0  0  0  0  0  0  0  0  0
  191.0800  175.5170  147.8850 C   0  0  0  0  0  3  0  0  0  0  0  0
  190.1060  175.3420  145.2600 C   0  0  0  0  0  0  0  0  0  0  0  0
  191.3520  175.9340  145.5160 C   0  0  0  0  0  3  0  0  0  0  0  0
  191.8350  176.0240  146.8240 C   0  0  0  0  0  3  0  0  0  0  0  0
  189.8420  174.9170  147.6380 C   0  0  0  0  0  3  0  0  0  0  0  0
  189.3570  174.8270  146.3290 C   0  0  0  0  0  3  0  0  0  0  0  0
  1 12  1  0  0  0  0
  2 12  2  0  0  0  0
  2  6  1  0  0  0  0
  3 16  1  0  0  0  0
  4 14  2  0  0  0  0
  5 13  1  0  0  0  0
  7 13  2  0  0  0  0
  7 11  1  0  0  0  0
  8 17  2  0  0  0  0
  8 10  1  0  0  0  0
  9  7  1  0  0  0  0
 10 19  1  0  0  0  0
 11 16  2  0  0  0  0
 11 14  1  0  0  0  0
 12 23  1  0  0  0  0
 13  4  1  0  0  0  0
 14 18  1  0  0  0  0
 15  1  2  0  0  0  0
 16  2  1  0  0  0  0
 17 21  1  0  0  0  0
 18  6  2  0  0  0  0
 19 20  1  0  0  0  0
 20 15  1  0  0  0  0
 21  3  2  0  0  0  0
 21 15  1  0  0  0  0
 23 24  2  0  0  0  0
 23 27  1  0  0  0  0
 24 25  1  0  0  0  0
 25 22  2  0  0  0  0
 26 22  1  0  0  0  0
 27 26  2  0  0  0  0
M  END
>  <MODEL>
7

>  <REMARK>
 VINA RESULT:      -7.5      3.155      5.998
  Name = 
  1 active torsions:
  status: ('A' for Active; 'I' for Inactive)
    1  A    between atoms: C_9  and  C_15
                            x       y       z     vdW  Elec       q    Type
                         _______ _______ _______ _____ _____    ______ ____

>  <TORSDO>
F 1

$$$$
=
 OpenBabel11042415103D

 27 31  0  0  0  0  0  0  0  0999 V2000
  190.9220  176.6840  144.8500 C   0  0  0  0  0  3  0  0  0  0  0  0
  189.5190  175.4330  143.1800 C   0  0  0  0  0  0  0  0  0  0  0  0
  191.9260  175.0280  142.5370 C   0  0  0  0  0  3  0  0  0  0  0  0
  188.6810  173.0270  139.9010 N   0  0  0  0  0  0  0  0  0  0  0  0
  190.2470  171.9910  138.3470 N   0  0  0  0  0  1  0  0  0  0  0  0
  188.1710  175.1160  142.8530 C   0  0  0  0  0  3  0  0  0  0  0  0
  190.8830  173.4160  140.2840 C   0  0  0  0  0  0  0  0  0  0  0  0
  195.2440  175.6340  143.9450 C   0  0  0  0  0  3  0  0  0  0  0  0
  192.3640  173.3600  140.1010 C   0  0  0  0  0  1  0  0  0  0  0  0
  195.2600  175.9850  145.3000 O   0  0  0  0  0  0  0  0  0  0  0  0
  190.1570  174.0820  141.2620 C   0  0  0  0  0  0  0  0  0  0  0  0
  189.7090  176.2740  144.3070 C   0  0  0  0  0  0  0  0  0  0  0  0
  189.9430  172.7930  139.4830 C   0  0  0  0  0  0  0  0  0  0  0  0
  188.8380  173.8130  140.9840 C   0  0  0  0  0  0  0  0  0  0  0  0
  192.2480  176.4540  144.5310 C   0  0  0  0  0  0  0  0  0  0  0  0
  190.5540  174.8800  142.3600 C   0  0  0  0  0  0  0  0  0  0  0  0
  194.1630  175.4890  143.1670 C   0  0  0  0  0  3  0  0  0  0  0  0
  187.8160  174.3140  141.7670 C   0  0  0  0  0  3  0  0  0  0  0  0
  194.1030  176.1610  146.0980 C   0  0  0  0  0  2  0  0  0  0  0  0
  193.1920  177.1660  145.4380 C   0  0  0  0  0  2  0  0  0  0  0  0
  192.7220  175.6760  143.4650 C   0  0  0  0  0  0  0  0  0  0  0  0
  186.3030  177.8530  146.3840 C   0  0  0  0  0  3  0  0  0  0  0  0
  188.5420  176.8300  145.0360 C   0  0  0  0  0  0  0  0  0  0  0  0
  188.1400  176.2790  146.2620 C   0  0  0  0  0  3  0  0  0  0  0  0
  187.0270  176.7910  146.9350 C   0  0  0  0  0  3  0  0  0  0  0  0
  186.6910  178.4010  145.1580 C   0  0  0  0  0  3  0  0  0  0  0  0
  187.8050  177.8900  144.4850 C   0  0  0  0  0  3  0  0  0  0  0  0
  2 12  1  0  0  0  0
  3 21  1  0  0  0  0
  4 14  1  0  0  0  0
  5 13  1  0  0  0  0
  6  2  2  0  0  0  0
  7 11  2  0  0  0  0
  8 10  1  0  0  0  0
  9  7  1  0  0  0  0
 10 19  1  0  0  0  0
 11 16  1  0  0  0  0
 12  1  2  0  0  0  0
 12 23  1  0  0  0  0
 13  4  2  0  0  0  0
 13  7  1  0  0  0  0
 14 11  1  0  0  0  0
 14 18  2  0  0  0  0
 15  1  1  0  0  0  0
 15 20  1  0  0  0  0
 16  3  2  0  0  0  0
 16  2  1  0  0  0  0
 17 21  1  0  0  0  0
 17  8  2  0  0  0  0
 18  6  1  0  0  0  0
 20 19  1  0  0  0  0
 21 15  2  0  0  0  0
 22 25  1  0  0  0  0
 23 24  1  0  0  0  0
 24 25  2  0  0  0  0
 26 22  2  0  0  0  0
 27 23  2  0  0  0  0
 27 26  1  0  0  0  0
M  END
>  <MODEL>
8

>  <REMARK>
 VINA RESULT:      -7.4      1.641      2.526
  Name = 
  1 active torsions:
  status: ('A' for Active; 'I' for Inactive)
    1  A    between atoms: C_9  and  C_15
                            x       y       z     vdW  Elec       q    Type
                         _______ _______ _______ _____ _____    ______ ____

>  <TORSDO>
F 1

$$$$
=
 OpenBabel11042415103D

 27 31  0  0  0  0  0  0  0  0999 V2000
  186.8560  176.4060  142.3250 C   0  0  0  0  0  3  0  0  0  0  0  0
  188.7520  175.5310  143.7250 C   0  0  0  0  0  0  0  0  0  0  0  0
  187.8220  177.5320  144.9510 C   0  0  0  0  0  3  0  0  0  0  0  0
  191.3970  175.3360  146.9210 N   0  0  0  0  0  0  0  0  0  0  0  0
  191.5540  176.8240  148.8460 N   0  0  0  0  0  1  0  0  0  0  0  0
  189.7200  174.4900  143.7890 C   0  0  0  0  0  3  0  0  0  0  0  0
  189.9120  177.0510  146.9910 C   0  0  0  0  0  0  0  0  0  0  0  0
  184.9240  179.7480  144.7130 C   0  0  0  0  0  3  0  0  0  0  0  0
  189.2070  178.2680  147.4910 C   0  0  0  0  0  1  0  0  0  0  0  0
  183.8970  179.2950  143.8770 O   0  0  0  0  0  0  0  0  0  0  0  0
  189.6690  176.3240  145.8340 C   0  0  0  0  0  0  0  0  0  0  0  0
  187.9020  175.5290  142.5900 C   0  0  0  0  0  0  0  0  0  0  0  0
  190.9690  176.4130  147.6150 C   0  0  0  0  0  0  0  0  0  0  0  0
  190.5900  175.3030  145.8430 C   0  0  0  0  0  0  0  0  0  0  0  0
  186.3140  177.4890  142.9930 C   0  0  0  0  0  0  0  0  0  0  0  0
  188.7160  176.4770  144.8000 C   0  0  0  0  0  0  0  0  0  0  0  0
  186.1340  179.1930  144.8700 C   0  0  0  0  0  3  0  0  0  0  0  0
  190.6390  174.3630  144.8330 C   0  0  0  0  0  3  0  0  0  0  0  0
  183.9490  178.1030  143.1130 C   0  0  0  0  0  2  0  0  0  0  0  0
  185.1870  178.1190  142.2500 C   0  0  0  0  0  2  0  0  0  0  0  0
  186.7500  178.0110  144.2190 C   0  0  0  0  0  0  0  0  0  0  0  0
  188.4890  172.6210  139.4900 C   0  0  0  0  0  3  0  0  0  0  0  0
  188.0870  174.5220  141.5140 C   0  0  0  0  0  0  0  0  0  0  0  0
  187.8900  173.1570  141.7740 C   0  0  0  0  0  3  0  0  0  0  0  0
  188.0870  172.2110  140.7650 C   0  0  0  0  0  3  0  0  0  0  0  0
  188.6970  173.9770  139.2260 C   0  0  0  0  0  3  0  0  0  0  0  0
  188.5000  174.9250  140.2350 C   0  0  0  0  0  3  0  0  0  0  0  0
  1 12  2  0  0  0  0
  1 15  1  0  0  0  0
  2  6  2  0  0  0  0
  2 16  1  0  0  0  0
  4 13  2  0  0  0  0
  6 18  1  0  0  0  0
  7  9  1  0  0  0  0
  7 13  1  0  0  0  0
  8 17  2  0  0  0  0
 10  8  1  0  0  0  0
 11 14  1  0  0  0  0
 11  7  2  0  0  0  0
 12  2  1  0  0  0  0
 13  5  1  0  0  0  0
 14  4  1  0  0  0  0
 15 21  2  0  0  0  0
 16  3  2  0  0  0  0
 16 11  1  0  0  0  0
 18 14  2  0  0  0  0
 19 10  1  0  0  0  0
 20 15  1  0  0  0  0
 20 19  1  0  0  0  0
 21 17  1  0  0  0  0
 21  3  1  0  0  0  0
 22 25  1  0  0  0  0
 23 24  1  0  0  0  0
 23 12  1  0  0  0  0
 25 24  2  0  0  0  0
 26 22  2  0  0  0  0
 26 27  1  0  0  0  0
 27 23  2  0  0  0  0
M  END
>  <MODEL>
9

>  <REMARK>
 VINA RESULT:      -7.3      3.291      6.726
  Name = 
  1 active torsions:
  status: ('A' for Active; 'I' for Inactive)
    1  A    between atoms: C_9  and  C_15
                            x       y       z     vdW  Elec       q    Type
                         _______ _______ _______ _____ _____    ______ ____

>  <TORSDO>
F 1

$$$$
