=
 OpenBabel11042419543D

 56 60  0  0  1  0  0  0  0  0999 V2000
  192.3000  174.4880  143.1150 C   0  0  0  0  0  3  0  0  0  0  0  0
  192.9470  175.7870  143.4390 C   0  0  0  0  0  2  0  0  0  0  0  0
  192.5760  175.7520  145.8790 C   0  0  0  0  0  3  0  0  0  0  0  0
  191.2150  174.0320  143.7490 C   0  0  0  0  0  0  0  0  0  0  0  0
  193.4370  175.7950  144.8580 C   0  0  0  0  0  0  0  0  0  0  0  0
  190.5320  174.7970  144.8160 C   0  0  0  0  0  3  0  0  0  0  0  0
  191.1100  175.5980  145.7370 C   0  0  0  0  0  0  0  0  0  0  0  0
  197.1220  175.5690  142.2300 C   0  0  0  0  0  0  0  0  0  0  0  0
  195.6380  173.4020  144.9890 C   0  0  0  0  0  2  0  0  0  0  0  0
  197.2950  176.7960  142.6080 N   0  0  0  0  0  0  0  0  0  0  0  0
  196.4530  177.0690  143.6880 N   0  0  0  0  0  0  0  0  0  0  0  0
  195.3750  174.6030  145.9150 C   0  0  0  0  0  2  0  0  0  0  0  0
  196.6270  173.7630  143.8790 C   0  0  0  0  0  2  0  0  0  0  0  0
  194.9010  175.8520  145.1600 C   0  0  1  0  0  3  0  0  0  0  0  0
  195.7280  176.0280  143.9250 C   0  0  0  0  0  0  0  0  0  0  0  0
  196.0620  174.8900  143.0270 C   0  0  1  0  0  3  0  0  0  0  0  0
  197.8280  174.9780  141.0660 C   0  0  0  0  0  2  0  0  0  0  0  0
  197.4870  175.6660  139.9020 O   0  0  0  0  0  0  0  0  0  0  0  0
  197.3980  174.6870  138.9080 C   0  0  0  0  0  2  0  0  0  0  0  0
  196.0970  174.8480  138.1400 C   0  0  0  0  0  2  0  0  0  0  0  0
  195.2780  173.6580  138.2870 N   0  0  0  0  0  2  0  0  0  0  0  0
  194.6870  173.7070  139.6190 C   0  0  1  0  0  3  0  0  0  0  0  0
  193.4230  174.5470  139.5940 C   0  0  0  0  0  1  0  0  0  0  0  0
  193.8520  170.6000  143.4430 C   0  0  0  0  0  1  0  0  0  0  0  0
  193.9090  169.7380  141.0960 C   0  0  0  0  0  3  0  0  0  0  0  0
  194.3150  171.2320  139.2310 C   0  0  0  0  0  3  0  0  0  0  0  0
  194.0610  169.9440  139.7200 C   0  0  0  0  0  3  0  0  0  0  0  0
  194.2690  172.1060  141.4900 C   0  0  0  0  0  3  0  0  0  0  0  0
  194.0140  170.8200  141.9800 C   0  0  0  0  0  0  0  0  0  0  0  0
  194.4150  172.3180  140.1170 C   0  0  0  0  0  0  0  0  0  0  0  0
  190.2490  176.3700  146.7040 C   0  0  2  0  0  3  0  0  0  0  0  0
  190.9600  176.6760  147.9380 N   0  0  0  0  0  1  0  0  0  0  0  0
  188.4280  177.8150  145.0650 O   0  0  0  0  0  0  0  0  0  0  0  0
  187.6810  176.2250  146.6230 N   0  0  0  0  0  2  0  0  0  0  0  0
  188.9430  175.6600  147.0090 C   0  0  0  0  0  0  0  0  0  0  0  0
  188.9390  174.5410  147.6110 O   0  0  0  0  0  0  0  0  0  0  0  0
  187.4720  177.3350  145.7360 C   0  0  0  0  0  0  0  0  0  0  0  0
  186.1940  177.8740  145.5640 O   0  0  0  0  0  0  0  0  0  0  0  0
  185.9720  179.0390  144.7770 C   0  0  0  0  0  2  0  0  0  0  0  0
  183.6880  178.7590  145.4200 O   0  0  0  0  0  1  0  0  0  0  0  0
  184.5100  179.1470  144.3620 C   0  0  2  0  0  3  0  0  0  0  0  0
  185.2970  178.3100  142.2730 O   0  0  0  0  0  1  0  0  0  0  0  0
  184.2100  178.2920  143.1440 C   0  0  0  0  0  2  0  0  0  0  0  0
  190.5360  172.7950  143.2390 C   0  0  0  0  0  2  0  0  0  0  0  0
  190.8290  171.9890  140.8100 C   0  0  0  0  0  3  0  0  0  0  0  0
  190.1890  172.9030  141.7920 C   0  0  0  0  0  0  0  0  0  0  0  0
  189.3050  173.8300  141.3950 C   0  0  0  0  0  3  0  0  0  0  0  0
  188.1970  174.9010  139.5960 O   0  0  0  0  0  0  0  0  0  0  0  0
  188.9820  173.9880  139.9620 C   0  0  0  0  0  0  0  0  0  0  0  0
  189.6250  173.0920  138.9770 C   0  0  0  0  0  0  0  0  0  0  0  0
  190.5660  172.0750  139.4880 C   0  0  0  0  0  3  0  0  0  0  0  0
  189.3340  173.2090  137.7100 N   0  0  0  0  0  0  0  0  0  0  0  0
  189.3150  172.7000  135.1220 O   0  0  0  0  0  0  0  0  0  0  0  0
  191.7440  172.5080  136.2810 C   0  0  0  0  0  1  0  0  0  0  0  0
  189.6930  170.7860  136.6000 O   0  0  0  0  0  0  0  0  0  0  0  0
  189.9710  172.2520  136.4030 S   0  0  0  0  0  0  0  0  0  0  0  0
  1  2  1  0  0  0  0
  1  4  2  0  0  0  0
  2  5  1  0  0  0  0
  4  6  1  0  0  0  0
  5  3  2  0  0  0  0
  6  7  2  0  0  0  0
  7  3  1  0  0  0  0
  7 31  1  0  0  0  0
  8 10  2  0  0  0  0
  8 16  1  0  0  0  0
  9 12  1  0  0  0  0
 10 11  1  0  0  0  0
 11 15  2  0  0  0  0
 13  9  1  0  0  0  0
 14  5  1  6  0  0  0
 14 12  1  0  0  0  0
 15 14  1  0  0  0  0
 16 13  1  1  0  0  0
 16 15  1  0  0  0  0
 17  8  1  0  0  0  0
 18 17  1  0  0  0  0
 19 18  1  0  0  0  0
 20 21  1  0  0  0  0
 20 19  1  0  0  0  0
 21 22  1  0  0  0  0
 22 23  1  6  0  0  0
 22 30  1  0  0  0  0
 25 29  1  0  0  0  0
 26 27  1  0  0  0  0
 26 30  2  0  0  0  0
 27 25  2  0  0  0  0
 28 29  2  0  0  0  0
 29 24  1  0  0  0  0
 30 28  1  0  0  0  0
 31 35  1  0  0  0  0
 31 32  1  1  0  0  0
 33 37  2  0  0  0  0
 34 35  1  0  0  0  0
 35 36  2  0  0  0  0
 37 34  1  0  0  0  0
 38 37  1  0  0  0  0
 39 38  1  0  0  0  0
 41 39  1  0  0  0  0
 41 40  1  1  0  0  0
 42 43  1  0  0  0  0
 43 41  1  0  0  0  0
 44  4  1  0  0  0  0
 45 46  1  0  0  0  0
 46 44  1  0  0  0  0
 47 46  2  0  0  0  0
 48 49  2  0  0  0  0
 49 47  1  0  0  0  0
 50 51  1  0  0  0  0
 50 49  1  0  0  0  0
 51 45  2  0  0  0  0
 52 50  2  0  0  0  0
 53 56  2  0  0  0  0
 54 56  1  0  0  0  0
 56 55  2  0  0  0  0
 56 52  1  0  0  0  0
M  END
>  <MODEL>
1

>  <REMARK>
 VINA RESULT:      -6.6      0.000      0.000
  Name = 
  17 active torsions:
  status: ('A' for Active; 'I' for Inactive)
    1  A    between atoms: C_5  and  C_43
    2  A    between atoms: C_7  and  N_32
    3  A    between atoms: C_7  and  C_52
    4  A    between atoms: C_9  and  C_34
    5  A    between atoms: C_9  and  C_48
    6  A    between atoms: C_17  and  C_33
    7  A    between atoms: C_17  and  C_46
    8  A    between atoms: C_18  and  C_55
    9  A    between atoms: C_25  and  C_44
   10  A    between atoms: C_25  and  O_47
   11  A    between atoms: C_27  and  C_55
   12  A    between atoms: N_32  and  C_44
   13  A    between atoms: C_34  and  O_51
   14  A    between atoms: S_35  and  N_56
   15  A    between atoms: C_38  and  C_39
   16  A    between atoms: C_43  and  O_47
   17  A    between atoms: O_51  and  C_53
                            x       y       z     vdW  Elec       q    Type
                         _______ _______ _______ _____ _____    ______ ____

>  <TORSDO>
F 17

$$$$
=
 OpenBabel11042419543D

 56 60  0  0  1  0  0  0  0  0999 V2000
  192.5250  174.5500  143.1410 C   0  0  0  0  0  3  0  0  0  0  0  0
  193.1160  175.8520  143.5480 C   0  0  0  0  0  2  0  0  0  0  0  0
  192.8950  175.5770  145.9910 C   0  0  0  0  0  3  0  0  0  0  0  0
  191.5090  173.9720  143.7880 C   0  0  0  0  0  0  0  0  0  0  0  0
  193.6890  175.7640  144.9330 C   0  0  0  0  0  0  0  0  0  0  0  0
  190.8480  174.5950  144.9580 C   0  0  0  0  0  3  0  0  0  0  0  0
  191.4350  175.3450  145.9150 C   0  0  0  0  0  0  0  0  0  0  0  0
  197.2640  175.2290  142.1990 C   0  0  0  0  0  0  0  0  0  0  0  0
  195.9450  173.4480  145.2970 C   0  0  0  0  0  2  0  0  0  0  0  0
  197.4260  176.4990  142.3940 N   0  0  0  0  0  0  0  0  0  0  0  0
  196.6240  176.9090  143.4620 N   0  0  0  0  0  0  0  0  0  0  0  0
  195.6950  174.7630  146.0570 C   0  0  0  0  0  2  0  0  0  0  0  0
  196.8780  173.6640  144.1040 C   0  0  0  0  0  2  0  0  0  0  0  0
  195.1630  175.8860  145.1570 C   0  0  1  0  0  3  0  0  0  0  0  0
  195.9330  175.9000  143.8740 C   0  0  0  0  0  0  0  0  0  0  0  0
  196.2530  174.6520  143.1290 C   0  0  1  0  0  3  0  0  0  0  0  0
  197.9330  174.4910  141.0980 C   0  0  0  0  0  2  0  0  0  0  0  0
  196.9780  173.8800  140.2840 O   0  0  0  0  0  0  0  0  0  0  0  0
  197.5760  172.6970  139.8400 C   0  0  0  0  0  2  0  0  0  0  0  0
  197.4410  171.6210  140.9030 C   0  0  0  0  0  2  0  0  0  0  0  0
  196.0430  171.4360  141.2550 N   0  0  0  0  0  2  0  0  0  0  0  0
  195.9230  170.1100  141.8480 C   0  0  1  0  0  3  0  0  0  0  0  0
  197.2690  169.4100  141.8290 C   0  0  0  0  0  1  0  0  0  0  0  0
  196.5290  169.4420  146.7640 C   0  0  0  0  0  1  0  0  0  0  0  0
  194.3950  170.3880  145.8640 C   0  0  0  0  0  3  0  0  0  0  0  0
  194.0850  170.7150  143.4830 C   0  0  0  0  0  3  0  0  0  0  0  0
  193.5970  170.8020  144.7930 C   0  0  0  0  0  3  0  0  0  0  0  0
  196.1670  169.7950  144.3140 C   0  0  0  0  0  3  0  0  0  0  0  0
  195.6790  169.8830  145.6240 C   0  0  0  0  0  0  0  0  0  0  0  0
  195.3770  170.2140  143.2420 C   0  0  0  0  0  0  0  0  0  0  0  0
  190.5910  175.9730  146.9960 C   0  0  2  0  0  3  0  0  0  0  0  0
  191.2280  175.8840  148.3020 N   0  0  0  0  0  1  0  0  0  0  0  0
  189.1550  177.7970  145.3520 O   0  0  0  0  0  0  0  0  0  0  0  0
  188.0540  176.1350  146.5920 N   0  0  0  0  0  2  0  0  0  0  0  0
  189.1920  175.3870  147.0500 C   0  0  0  0  0  0  0  0  0  0  0  0
  188.9960  174.2150  147.4990 O   0  0  0  0  0  0  0  0  0  0  0  0
  188.0760  177.3560  145.8380 C   0  0  0  0  0  0  0  0  0  0  0  0
  186.8930  178.0550  145.5860 O   0  0  0  0  0  0  0  0  0  0  0  0
  185.9870  177.6510  144.5650 C   0  0  0  0  0  2  0  0  0  0  0  0
  185.3970  178.5830  142.4450 O   0  0  0  0  0  1  0  0  0  0  0  0
  186.4720  178.1060  143.1940 C   0  0  2  0  0  3  0  0  0  0  0  0
  186.4770  175.7830  142.6550 O   0  0  0  0  0  1  0  0  0  0  0  0
  187.1580  176.9800  142.4420 C   0  0  0  0  0  2  0  0  0  0  0  0
  190.8720  172.7460  143.2050 C   0  0  0  0  0  2  0  0  0  0  0  0
  191.1420  172.2200  140.6970 C   0  0  0  0  0  3  0  0  0  0  0  0
  190.4500  172.9540  141.7890 C   0  0  0  0  0  0  0  0  0  0  0  0
  189.4520  173.8080  141.5200 C   0  0  0  0  0  3  0  0  0  0  0  0
  188.1500  174.9160  139.8790 O   0  0  0  0  0  0  0  0  0  0  0  0
  189.0480  174.0670  140.1220 C   0  0  0  0  0  0  0  0  0  0  0  0
  189.7400  173.3510  139.0290 C   0  0  0  0  0  0  0  0  0  0  0  0
  190.8110  172.4040  139.4010 C   0  0  0  0  0  3  0  0  0  0  0  0
  189.3810  173.5570  137.7910 N   0  0  0  0  0  0  0  0  0  0  0  0
  189.5620  171.3920  136.2960 O   0  0  0  0  0  0  0  0  0  0  0  0
  189.5220  173.7070  134.9110 C   0  0  0  0  0  1  0  0  0  0  0  0
  191.5640  172.7940  136.4190 O   0  0  0  0  0  0  0  0  0  0  0  0
  190.0600  172.8120  136.3720 S   0  0  0  0  0  0  0  0  0  0  0  0
  1  2  1  0  0  0  0
  1  4  2  0  0  0  0
  2  5  1  0  0  0  0
  4  6  1  0  0  0  0
  5  3  2  0  0  0  0
  6  7  2  0  0  0  0
  7  3  1  0  0  0  0
  7 31  1  0  0  0  0
  8 10  2  0  0  0  0
  8 16  1  0  0  0  0
  9 12  1  0  0  0  0
 10 11  1  0  0  0  0
 11 15  2  0  0  0  0
 13  9  1  0  0  0  0
 14  5  1  6  0  0  0
 14 12  1  0  0  0  0
 15 14  1  0  0  0  0
 16 15  1  0  0  0  0
 16 13  1  1  0  0  0
 17  8  1  0  0  0  0
 18 17  1  0  0  0  0
 19 18  1  0  0  0  0
 19 20  1  0  0  0  0
 20 21  1  0  0  0  0
 21 22  1  0  0  0  0
 22 23  1  1  0  0  0
 22 30  1  0  0  0  0
 26 27  1  0  0  0  0
 27 25  2  0  0  0  0
 28 29  2  0  0  0  0
 29 25  1  0  0  0  0
 29 24  1  0  0  0  0
 30 26  2  0  0  0  0
 30 28  1  0  0  0  0
 31 35  1  0  0  0  0
 31 32  1  1  0  0  0
 33 37  2  0  0  0  0
 34 35  1  0  0  0  0
 35 36  2  0  0  0  0
 37 34  1  0  0  0  0
 38 37  1  0  0  0  0
 39 38  1  0  0  0  0
 41 40  1  6  0  0  0
 41 39  1  0  0  0  0
 43 42  1  0  0  0  0
 43 41  1  0  0  0  0
 44  4  1  0  0  0  0
 45 46  1  0  0  0  0
 46 44  1  0  0  0  0
 47 46  2  0  0  0  0
 48 49  2  0  0  0  0
 49 47  1  0  0  0  0
 50 51  1  0  0  0  0
 50 49  1  0  0  0  0
 51 45  2  0  0  0  0
 52 50  2  0  0  0  0
 53 56  2  0  0  0  0
 54 56  1  0  0  0  0
 56 55  2  0  0  0  0
 56 52  1  0  0  0  0
M  END
>  <MODEL>
2

>  <REMARK>
 VINA RESULT:      -6.2      1.588      2.351
  Name = 
  17 active torsions:
  status: ('A' for Active; 'I' for Inactive)
    1  A    between atoms: C_5  and  C_43
    2  A    between atoms: C_7  and  N_32
    3  A    between atoms: C_7  and  C_52
    4  A    between atoms: C_9  and  C_34
    5  A    between atoms: C_9  and  C_48
    6  A    between atoms: C_17  and  C_33
    7  A    between atoms: C_17  and  C_46
    8  A    between atoms: C_18  and  C_55
    9  A    between atoms: C_25  and  C_44
   10  A    between atoms: C_25  and  O_47
   11  A    between atoms: C_27  and  C_55
   12  A    between atoms: N_32  and  C_44
   13  A    between atoms: C_34  and  O_51
   14  A    between atoms: S_35  and  N_56
   15  A    between atoms: C_38  and  C_39
   16  A    between atoms: C_43  and  O_47
   17  A    between atoms: O_51  and  C_53
                            x       y       z     vdW  Elec       q    Type
                         _______ _______ _______ _____ _____    ______ ____

>  <TORSDO>
F 17

$$$$
=
 OpenBabel11042419543D

 56 60  0  0  1  0  0  0  0  0999 V2000
  192.2550  174.8100  142.8790 C   0  0  0  0  0  3  0  0  0  0  0  0
  192.8870  176.1000  143.2630 C   0  0  0  0  0  2  0  0  0  0  0  0
  192.6260  175.8910  145.7090 C   0  0  0  0  0  3  0  0  0  0  0  0
  191.2110  174.2840  143.5260 C   0  0  0  0  0  0  0  0  0  0  0  0
  193.4390  176.0240  144.6570 C   0  0  0  0  0  0  0  0  0  0  0  0
  190.5590  174.9580  144.6720 C   0  0  0  0  0  3  0  0  0  0  0  0
  191.1600  175.7090  145.6190 C   0  0  0  0  0  0  0  0  0  0  0  0
  197.0210  174.7480  142.1900 C   0  0  0  0  0  0  0  0  0  0  0  0
  195.5330  173.6930  145.5340 C   0  0  0  0  0  2  0  0  0  0  0  0
  197.2620  176.0200  142.1390 N   0  0  0  0  0  0  0  0  0  0  0  0
  196.4700  176.6790  143.0820 N   0  0  0  0  0  0  0  0  0  0  0  0
  195.3560  175.1430  146.0160 C   0  0  0  0  0  2  0  0  0  0  0  0
  196.5000  173.6140  144.3510 C   0  0  0  0  0  2  0  0  0  0  0  0
  194.9150  176.0990  144.8990 C   0  0  1  0  0  3  0  0  0  0  0  0
  195.7060  175.8140  143.6610 C   0  0  0  0  0  0  0  0  0  0  0  0
  195.9590  174.4280  143.1840 C   0  0  1  0  0  3  0  0  0  0  0  0
  197.6600  173.7700  141.2750 C   0  0  0  0  0  2  0  0  0  0  0  0
  196.7820  172.7190  141.0110 O   0  0  0  0  0  0  0  0  0  0  0  0
  197.4920  171.5570  141.3290 C   0  0  0  0  0  2  0  0  0  0  0  0
  196.5540  170.3620  141.3250 C   0  0  0  0  0  2  0  0  0  0  0  0
  195.2310  170.7650  140.8830 N   0  0  0  0  0  2  0  0  0  0  0  0
  194.2850  170.3150  141.8970 C   0  0  1  0  0  3  0  0  0  0  0  0
  193.9350  171.4630  142.8250 C   0  0  0  0  0  1  0  0  0  0  0  0
  191.8480  168.9940  137.7390 C   0  0  0  0  0  1  0  0  0  0  0  0
  190.7930  168.6750  139.9840 C   0  0  0  0  0  3  0  0  0  0  0  0
  191.9610  169.3130  142.0100 C   0  0  0  0  0  3  0  0  0  0  0  0
  190.8300  168.7800  141.3790 C   0  0  0  0  0  3  0  0  0  0  0  0
  193.0170  169.6400  139.8530 C   0  0  0  0  0  3  0  0  0  0  0  0
  191.8870  169.1060  139.2230 C   0  0  0  0  0  0  0  0  0  0  0  0
  193.0620  169.7410  141.2460 C   0  0  0  0  0  0  0  0  0  0  0  0
  190.3250  176.3930  146.6740 C   0  0  2  0  0  3  0  0  0  0  0  0
  191.1170  176.7550  147.8410 N   0  0  0  0  0  1  0  0  0  0  0  0
  188.2390  177.6560  145.2100 O   0  0  0  0  0  0  0  0  0  0  0  0
  187.7860  176.0050  146.8170 N   0  0  0  0  0  2  0  0  0  0  0  0
  189.1240  175.5620  147.0870 C   0  0  0  0  0  0  0  0  0  0  0  0
  189.2790  174.4500  147.6810 O   0  0  0  0  0  0  0  0  0  0  0  0
  187.3950  177.0880  145.9600 C   0  0  0  0  0  0  0  0  0  0  0  0
  186.0620  177.5040  145.9040 O   0  0  0  0  0  0  0  0  0  0  0  0
  185.7100  178.8610  145.6650 C   0  0  0  0  0  2  0  0  0  0  0  0
  184.6820  180.2720  144.0320 O   0  0  0  0  0  1  0  0  0  0  0  0
  185.4170  179.0970  144.1880 C   0  0  2  0  0  3  0  0  0  0  0  0
  183.6520  178.4140  142.7370 O   0  0  0  0  0  1  0  0  0  0  0  0
  184.6560  177.9350  143.5760 C   0  0  0  0  0  2  0  0  0  0  0  0
  190.5370  173.0680  142.9630 C   0  0  0  0  0  2  0  0  0  0  0  0
  190.9230  172.5380  140.4710 C   0  0  0  0  0  3  0  0  0  0  0  0
  190.1600  173.2490  141.5310 C   0  0  0  0  0  0  0  0  0  0  0  0
  189.1390  174.0600  141.2180 C   0  0  0  0  0  3  0  0  0  0  0  0
  187.8550  175.1020  139.5210 O   0  0  0  0  0  0  0  0  0  0  0  0
  188.7780  174.2930  139.8040 C   0  0  0  0  0  0  0  0  0  0  0  0
  189.5390  173.6000  138.7430 C   0  0  0  0  0  0  0  0  0  0  0  0
  190.6340  172.7000  139.1620 C   0  0  0  0  0  3  0  0  0  0  0  0
  189.2190  173.7830  137.4910 N   0  0  0  0  0  0  0  0  0  0  0  0
  189.6620  171.5850  136.1020 O   0  0  0  0  0  0  0  0  0  0  0  0
  189.3320  173.8050  134.6060 C   0  0  0  0  0  1  0  0  0  0  0  0
  191.4750  173.2280  136.1390 O   0  0  0  0  0  0  0  0  0  0  0  0
  189.9800  173.0580  136.1040 S   0  0  0  0  0  0  0  0  0  0  0  0
  1  2  1  0  0  0  0
  1  4  2  0  0  0  0
  2  5  1  0  0  0  0
  4  6  1  0  0  0  0
  5  3  2  0  0  0  0
  6  7  2  0  0  0  0
  7  3  1  0  0  0  0
  7 31  1  0  0  0  0
  8 16  1  0  0  0  0
  9 12  1  0  0  0  0
 10  8  2  0  0  0  0
 10 11  1  0  0  0  0
 11 15  2  0  0  0  0
 13  9  1  0  0  0  0
 14  5  1  6  0  0  0
 14 12  1  0  0  0  0
 15 14  1  0  0  0  0
 16 15  1  0  0  0  0
 16 13  1  1  0  0  0
 17  8  1  0  0  0  0
 18 17  1  0  0  0  0
 18 19  1  0  0  0  0
 20 19  1  0  0  0  0
 21 20  1  0  0  0  0
 21 22  1  0  0  0  0
 22 23  1  1  0  0  0
 24 29  1  0  0  0  0
 25 27  1  0  0  0  0
 27 26  2  0  0  0  0
 28 30  2  0  0  0  0
 29 28  1  0  0  0  0
 29 25  2  0  0  0  0
 30 22  1  0  0  0  0
 30 26  1  0  0  0  0
 31 35  1  0  0  0  0
 31 32  1  1  0  0  0
 33 37  2  0  0  0  0
 34 35  1  0  0  0  0
 35 36  2  0  0  0  0
 37 34  1  0  0  0  0
 38 37  1  0  0  0  0
 39 38  1  0  0  0  0
 41 40  1  1  0  0  0
 41 39  1  0  0  0  0
 42 43  1  0  0  0  0
 43 41  1  0  0  0  0
 44  4  1  0  0  0  0
 45 46  1  0  0  0  0
 46 44  1  0  0  0  0
 47 46  2  0  0  0  0
 48 49  2  0  0  0  0
 49 47  1  0  0  0  0
 50 51  1  0  0  0  0
 50 49  1  0  0  0  0
 51 45  2  0  0  0  0
 52 50  2  0  0  0  0
 53 56  2  0  0  0  0
 54 56  1  0  0  0  0
 56 55  2  0  0  0  0
 56 52  1  0  0  0  0
M  END
>  <MODEL>
3

>  <REMARK>
 VINA RESULT:      -6.0      1.500      2.190
  Name = 
  17 active torsions:
  status: ('A' for Active; 'I' for Inactive)
    1  A    between atoms: C_5  and  C_43
    2  A    between atoms: C_7  and  N_32
    3  A    between atoms: C_7  and  C_52
    4  A    between atoms: C_9  and  C_34
    5  A    between atoms: C_9  and  C_48
    6  A    between atoms: C_17  and  C_33
    7  A    between atoms: C_17  and  C_46
    8  A    between atoms: C_18  and  C_55
    9  A    between atoms: C_25  and  C_44
   10  A    between atoms: C_25  and  O_47
   11  A    between atoms: C_27  and  C_55
   12  A    between atoms: N_32  and  C_44
   13  A    between atoms: C_34  and  O_51
   14  A    between atoms: S_35  and  N_56
   15  A    between atoms: C_38  and  C_39
   16  A    between atoms: C_43  and  O_47
   17  A    between atoms: O_51  and  C_53
                            x       y       z     vdW  Elec       q    Type
                         _______ _______ _______ _____ _____    ______ ____

>  <TORSDO>
F 17

$$$$
=
 OpenBabel11042419543D

 56 60  0  0  1  0  0  0  0  0999 V2000
  191.5620  175.1240  142.6620 C   0  0  0  0  0  3  0  0  0  0  0  0
  192.2910  176.3410  143.1040 C   0  0  0  0  0  2  0  0  0  0  0  0
  192.2660  175.8910  145.5300 C   0  0  0  0  0  3  0  0  0  0  0  0
  190.5630  174.5750  143.3590 C   0  0  0  0  0  0  0  0  0  0  0  0
  192.9760  176.1010  144.4180 C   0  0  0  0  0  0  0  0  0  0  0  0
  190.0620  175.1510  144.6280 C   0  0  0  0  0  3  0  0  0  0  0  0
  190.7910  175.7760  145.5770 C   0  0  0  0  0  0  0  0  0  0  0  0
  196.2040  174.3270  141.7770 C   0  0  0  0  0  0  0  0  0  0  0  0
  194.9990  173.7250  145.3400 C   0  0  0  0  0  2  0  0  0  0  0  0
  196.5170  175.5670  141.5670 N   0  0  0  0  0  0  0  0  0  0  0  0
  195.8660  176.3720  142.5040 N   0  0  0  0  0  0  0  0  0  0  0  0
  194.9610  175.2260  145.6770 C   0  0  0  0  0  2  0  0  0  0  0  0
  195.8350  173.4580  144.0870 C   0  0  0  0  0  2  0  0  0  0  0  0
  194.4690  176.0930  144.5100 C   0  0  1  0  0  3  0  0  0  0  0  0
  195.1130  175.6270  143.2420 C   0  0  0  0  0  0  0  0  0  0  0  0
  195.2300  174.1860  142.8950 C   0  0  1  0  0  3  0  0  0  0  0  0
  196.6860  173.2170  140.9160 C   0  0  0  0  0  2  0  0  0  0  0  0
  196.4760  173.5300  139.5740 O   0  0  0  0  0  0  0  0  0  0  0  0
  195.1640  173.1280  139.3030 C   0  0  0  0  0  2  0  0  0  0  0  0
  195.1700  171.7610  138.6400 C   0  0  0  0  0  2  0  0  0  0  0  0
  194.6910  170.7520  139.5680 N   0  0  0  0  0  2  0  0  0  0  0  0
  193.5060  171.2980  140.2180 C   0  0  1  0  0  3  0  0  0  0  0  0
  192.2540  170.7300  139.5750 C   0  0  0  0  0  1  0  0  0  0  0  0
  195.7910  169.1820  144.1270 C   0  0  0  0  0  1  0  0  0  0  0  0
  193.6600  170.4550  144.4380 C   0  0  0  0  0  3  0  0  0  0  0  0
  192.5380  171.4840  142.5520 C   0  0  0  0  0  3  0  0  0  0  0  0
  192.5980  171.2060  143.9240 C   0  0  0  0  0  3  0  0  0  0  0  0
  194.6000  170.2580  142.2090 C   0  0  0  0  0  3  0  0  0  0  0  0
  194.6600  169.9810  143.5790 C   0  0  0  0  0  0  0  0  0  0  0  0
  193.5450  171.0130  141.6910 C   0  0  0  0  0  0  0  0  0  0  0  0
  190.1010  176.3780  146.7750 C   0  0  2  0  0  3  0  0  0  0  0  0
  190.9900  176.4680  147.9250 N   0  0  0  0  0  1  0  0  0  0  0  0
  188.1270  177.9240  145.4330 O   0  0  0  0  0  0  0  0  0  0  0  0
  187.5370  176.2110  146.9260 N   0  0  0  0  0  2  0  0  0  0  0  0
  188.8320  175.6320  147.1460 C   0  0  0  0  0  0  0  0  0  0  0  0
  188.8890  174.4700  147.6580 O   0  0  0  0  0  0  0  0  0  0  0  0
  187.2410  177.3830  146.1520 C   0  0  0  0  0  0  0  0  0  0  0  0
  185.9510  177.9200  146.1430 O   0  0  0  0  0  0  0  0  0  0  0  0
  184.9560  177.4640  145.2340 C   0  0  0  0  0  2  0  0  0  0  0  0
  183.8560  178.7860  143.5740 O   0  0  0  0  0  1  0  0  0  0  0  0
  185.0710  178.1810  143.8940 C   0  0  2  0  0  3  0  0  0  0  0  0
  185.3230  177.8490  141.5460 O   0  0  0  0  0  1  0  0  0  0  0  0
  185.4740  177.2270  142.7830 C   0  0  0  0  0  2  0  0  0  0  0  0
  189.7770  173.4500  142.7510 C   0  0  0  0  0  2  0  0  0  0  0  0
  188.4670  175.0740  141.2410 C   0  0  0  0  0  3  0  0  0  0  0  0
  189.2300  173.8100  141.4110 C   0  0  0  0  0  0  0  0  0  0  0  0
  189.4300  172.9820  140.3750 C   0  0  0  0  0  3  0  0  0  0  0  0
  189.0010  172.4790  138.1000 O   0  0  0  0  0  0  0  0  0  0  0  0
  188.8570  173.2930  139.0500 C   0  0  0  0  0  0  0  0  0  0  0  0
  188.0850  174.5420  138.8740 C   0  0  0  0  0  0  0  0  0  0  0  0
  187.9290  175.4210  140.0520 C   0  0  0  0  0  3  0  0  0  0  0  0
  187.5890  174.8380  137.7040 N   0  0  0  0  0  0  0  0  0  0  0  0
  187.4140  177.0190  136.2320 O   0  0  0  0  0  0  0  0  0  0  0  0
  185.0650  175.7580  136.6450 C   0  0  0  0  0  1  0  0  0  0  0  0
  186.4630  177.1520  138.4830 O   0  0  0  0  0  0  0  0  0  0  0  0
  186.6650  176.2540  137.2920 S   0  0  0  0  0  0  0  0  0  0  0  0
  1  2  1  0  0  0  0
  1  4  2  0  0  0  0
  2  5  1  0  0  0  0
  3  7  1  0  0  0  0
  4  6  1  0  0  0  0
  5  3  2  0  0  0  0
  6  7  2  0  0  0  0
  7 31  1  0  0  0  0
  8 16  1  0  0  0  0
  9 12  1  0  0  0  0
 10  8  2  0  0  0  0
 10 11  1  0  0  0  0
 11 15  2  0  0  0  0
 13  9  1  0  0  0  0
 14  5  1  6  0  0  0
 14 12  1  0  0  0  0
 15 14  1  0  0  0  0
 16 15  1  0  0  0  0
 16 13  1  1  0  0  0
 17  8  1  0  0  0  0
 18 17  1  0  0  0  0
 19 18  1  0  0  0  0
 20 19  1  0  0  0  0
 20 21  1  0  0  0  0
 21 22  1  0  0  0  0
 22 23  1  6  0  0  0
 22 30  1  0  0  0  0
 26 27  2  0  0  0  0
 27 25  1  0  0  0  0
 28 29  1  0  0  0  0
 29 24  1  0  0  0  0
 29 25  2  0  0  0  0
 30 28  2  0  0  0  0
 30 26  1  0  0  0  0
 31 35  1  0  0  0  0
 31 32  1  1  0  0  0
 33 37  2  0  0  0  0
 34 35  1  0  0  0  0
 35 36  2  0  0  0  0
 37 34  1  0  0  0  0
 38 37  1  0  0  0  0
 39 38  1  0  0  0  0
 41 40  1  6  0  0  0
 41 39  1  0  0  0  0
 42 43  1  0  0  0  0
 43 41  1  0  0  0  0
 44  4  1  0  0  0  0
 45 46  1  0  0  0  0
 46 44  1  0  0  0  0
 47 46  2  0  0  0  0
 48 49  2  0  0  0  0
 49 47  1  0  0  0  0
 50 49  1  0  0  0  0
 50 51  1  0  0  0  0
 51 45  2  0  0  0  0
 52 50  2  0  0  0  0
 53 56  2  0  0  0  0
 54 56  1  0  0  0  0
 56 52  1  0  0  0  0
 56 55  2  0  0  0  0
M  END
>  <MODEL>
4

>  <REMARK>
 VINA RESULT:      -5.9      1.780      2.601
  Name = 
  17 active torsions:
  status: ('A' for Active; 'I' for Inactive)
    1  A    between atoms: C_5  and  C_43
    2  A    between atoms: C_7  and  N_32
    3  A    between atoms: C_7  and  C_52
    4  A    between atoms: C_9  and  C_34
    5  A    between atoms: C_9  and  C_48
    6  A    between atoms: C_17  and  C_33
    7  A    between atoms: C_17  and  C_46
    8  A    between atoms: C_18  and  C_55
    9  A    between atoms: C_25  and  C_44
   10  A    between atoms: C_25  and  O_47
   11  A    between atoms: C_27  and  C_55
   12  A    between atoms: N_32  and  C_44
   13  A    between atoms: C_34  and  O_51
   14  A    between atoms: S_35  and  N_56
   15  A    between atoms: C_38  and  C_39
   16  A    between atoms: C_43  and  O_47
   17  A    between atoms: O_51  and  C_53
                            x       y       z     vdW  Elec       q    Type
                         _______ _______ _______ _____ _____    ______ ____

>  <TORSDO>
F 17

$$$$
=
 OpenBabel11042419543D

 56 60  0  0  1  0  0  0  0  0999 V2000
  191.1370  174.1160  143.2660 C   0  0  0  0  0  3  0  0  0  0  0  0
  189.9710  173.2070  143.1140 C   0  0  0  0  0  2  0  0  0  0  0  0
  189.0090  174.2260  141.0820 C   0  0  0  0  0  3  0  0  0  0  0  0
  191.0940  175.4200  142.9730 C   0  0  0  0  0  0  0  0  0  0  0  0
  189.5270  173.1500  141.6810 C   0  0  0  0  0  0  0  0  0  0  0  0
  189.8630  176.0920  142.4990 C   0  0  0  0  0  3  0  0  0  0  0  0
  188.9080  175.5670  141.7020 C   0  0  0  0  0  0  0  0  0  0  0  0
  192.6810  169.8960  141.5910 C   0  0  0  0  0  0  0  0  0  0  0  0
  191.3930  172.4750  139.1020 C   0  0  0  0  0  2  0  0  0  0  0  0
  191.7300  169.1560  142.0690 N   0  0  0  0  0  0  0  0  0  0  0  0
  190.5110  169.8250  141.9300 N   0  0  0  0  0  0  0  0  0  0  0  0
  189.9170  172.1650  139.4070 C   0  0  0  0  0  2  0  0  0  0  0  0
  192.3100  171.3590  139.6040 C   0  0  0  0  0  2  0  0  0  0  0  0
  189.6550  171.8840  140.8930 C   0  0  1  0  0  3  0  0  0  0  0  0
  190.7320  170.9920  141.4250 C   0  0  0  0  0  0  0  0  0  0  0  0
  192.1690  171.2100  141.1120 C   0  0  1  0  0  3  0  0  0  0  0  0
  194.1100  169.4990  141.6380 C   0  0  0  0  0  2  0  0  0  0  0  0
  194.9100  170.6200  141.8590 O   0  0  0  0  0  0  0  0  0  0  0  0
  196.0760  170.1300  142.4550 C   0  0  0  0  0  2  0  0  0  0  0  0
  196.8650  171.2760  143.0630 C   0  0  0  0  0  2  0  0  0  0  0  0
  196.5190  171.4350  144.4650 N   0  0  0  0  0  2  0  0  0  0  0  0
  196.8130  172.8170  144.8240 C   0  0  1  0  0  3  0  0  0  0  0  0
  197.4220  173.5410  143.6380 C   0  0  0  0  0  1  0  0  0  0  0  0
  194.5660  176.9370  146.5430 C   0  0  0  0  0  1  0  0  0  0  0  0
  193.2680  174.8230  146.2220 C   0  0  0  0  0  3  0  0  0  0  0  0
  194.3440  172.8160  145.3920 C   0  0  0  0  0  3  0  0  0  0  0  0
  193.1960  173.4770  145.8470 C   0  0  0  0  0  3  0  0  0  0  0  0
  195.6370  174.8430  145.6900 C   0  0  0  0  0  3  0  0  0  0  0  0
  194.4890  175.5040  146.1440 C   0  0  0  0  0  0  0  0  0  0  0  0
  195.5680  173.5010  145.3080 C   0  0  0  0  0  0  0  0  0  0  0  0
  187.6720  176.3700  141.3840 C   0  0  2  0  0  3  0  0  0  0  0  0
  187.3810  176.3760  139.9570 N   0  0  0  0  0  1  0  0  0  0  0  0
  185.5720  176.3820  143.3020 O   0  0  0  0  0  0  0  0  0  0  0  0
  186.7010  178.3530  142.7070 N   0  0  0  0  0  2  0  0  0  0  0  0
  187.7560  177.7910  141.9120 C   0  0  0  0  0  0  0  0  0  0  0  0
  188.7700  178.5160  141.6630 O   0  0  0  0  0  0  0  0  0  0  0  0
  185.6010  177.6450  143.2990 C   0  0  0  0  0  0  0  0  0  0  0  0
  184.5650  178.3410  143.9260 O   0  0  0  0  0  0  0  0  0  0  0  0
  184.5960  178.6380  145.3170 C   0  0  0  0  0  2  0  0  0  0  0  0
  184.6050  176.7580  146.7930 O   0  0  0  0  0  1  0  0  0  0  0  0
  185.4360  177.6170  146.0750 C   0  0  2  0  0  3  0  0  0  0  0  0
  185.8990  179.5140  147.4440 O   0  0  0  0  0  1  0  0  0  0  0  0
  186.4140  178.2910  147.0210 C   0  0  0  0  0  2  0  0  0  0  0  0
  192.2680  176.2870  143.3180 C   0  0  0  0  0  2  0  0  0  0  0  0
  193.2340  175.2560  141.1640 C   0  0  0  0  0  3  0  0  0  0  0  0
  193.4220  176.0600  142.4000 C   0  0  0  0  0  0  0  0  0  0  0  0
  194.6190  176.5800  142.7070 C   0  0  0  0  0  3  0  0  0  0  0  0
  196.9180  176.7720  142.1690 O   0  0  0  0  0  0  0  0  0  0  0  0
  195.7870  176.3280  141.8380 C   0  0  0  0  0  0  0  0  0  0  0  0
  195.6120  175.5180  140.6130 C   0  0  0  0  0  0  0  0  0  0  0  0
  194.2590  175.0010  140.3230 C   0  0  0  0  0  3  0  0  0  0  0  0
  196.6320  175.3030  139.8280 N   0  0  0  0  0  0  0  0  0  0  0  0
  196.4420  172.9350  138.6840 O   0  0  0  0  0  0  0  0  0  0  0  0
  195.2730  174.9390  137.3060 C   0  0  0  0  0  1  0  0  0  0  0  0
  197.9260  174.5480  137.5960 O   0  0  0  0  0  0  0  0  0  0  0  0
  196.6310  174.3910  138.3460 S   0  0  0  0  0  0  0  0  0  0  0  0
  2  1  1  0  0  0  0
  3  5  2  0  0  0  0
  3  7  1  0  0  0  0
  4  1  2  0  0  0  0
  4 44  1  0  0  0  0
  5  2  1  0  0  0  0
  6  4  1  0  0  0  0
  7  6  2  0  0  0  0
  8 17  1  0  0  0  0
  8 10  2  0  0  0  0
  9 12  1  0  0  0  0
  9 13  1  0  0  0  0
 11 10  1  0  0  0  0
 12 14  1  0  0  0  0
 14 15  1  0  0  0  0
 14  5  1  1  0  0  0
 15 11  2  0  0  0  0
 16 13  1  6  0  0  0
 16 15  1  0  0  0  0
 16  8  1  0  0  0  0
 17 18  1  0  0  0  0
 18 19  1  0  0  0  0
 19 20  1  0  0  0  0
 20 21  1  0  0  0  0
 21 22  1  0  0  0  0
 22 23  1  6  0  0  0
 22 30  1  0  0  0  0
 26 27  1  0  0  0  0
 27 25  2  0  0  0  0
 28 29  2  0  0  0  0
 29 25  1  0  0  0  0
 29 24  1  0  0  0  0
 30 26  2  0  0  0  0
 30 28  1  0  0  0  0
 31 32  1  6  0  0  0
 31  7  1  0  0  0  0
 31 35  1  0  0  0  0
 34 37  1  0  0  0  0
 35 34  1  0  0  0  0
 36 35  2  0  0  0  0
 37 33  2  0  0  0  0
 37 38  1  0  0  0  0
 38 39  1  0  0  0  0
 39 41  1  0  0  0  0
 41 40  1  1  0  0  0
 41 43  1  0  0  0  0
 43 42  1  0  0  0  0
 45 46  1  0  0  0  0
 46 47  2  0  0  0  0
 46 44  1  0  0  0  0
 49 48  2  0  0  0  0
 49 47  1  0  0  0  0
 50 49  1  0  0  0  0
 51 50  1  0  0  0  0
 51 45  2  0  0  0  0
 52 50  2  0  0  0  0
 54 56  1  0  0  0  0
 55 56  2  0  0  0  0
 56 53  2  0  0  0  0
 56 52  1  0  0  0  0
M  END
>  <MODEL>
5

>  <REMARK>
 VINA RESULT:      -5.9      2.944      6.148
  Name = 
  17 active torsions:
  status: ('A' for Active; 'I' for Inactive)
    1  A    between atoms: C_5  and  C_43
    2  A    between atoms: C_7  and  N_32
    3  A    between atoms: C_7  and  C_52
    4  A    between atoms: C_9  and  C_34
    5  A    between atoms: C_9  and  C_48
    6  A    between atoms: C_17  and  C_33
    7  A    between atoms: C_17  and  C_46
    8  A    between atoms: C_18  and  C_55
    9  A    between atoms: C_25  and  C_44
   10  A    between atoms: C_25  and  O_47
   11  A    between atoms: C_27  and  C_55
   12  A    between atoms: N_32  and  C_44
   13  A    between atoms: C_34  and  O_51
   14  A    between atoms: S_35  and  N_56
   15  A    between atoms: C_38  and  C_39
   16  A    between atoms: C_43  and  O_47
   17  A    between atoms: O_51  and  C_53
                            x       y       z     vdW  Elec       q    Type
                         _______ _______ _______ _____ _____    ______ ____

>  <TORSDO>
F 17

$$$$
=
 OpenBabel11042419543D

 56 60  0  0  1  0  0  0  0  0999 V2000
  192.6490  175.6680  146.6350 C   0  0  0  0  0  3  0  0  0  0  0  0
  193.5770  174.7220  145.9600 C   0  0  0  0  0  2  0  0  0  0  0  0
  192.7490  175.0240  143.6540 C   0  0  0  0  0  3  0  0  0  0  0  0
  191.3780  175.8400  146.2620 C   0  0  0  0  0  0  0  0  0  0  0  0
  193.7640  175.1020  144.5200 C   0  0  0  0  0  0  0  0  0  0  0  0
  190.7590  175.0740  145.1560 C   0  0  0  0  0  3  0  0  0  0  0  0
  191.3600  174.6660  144.0180 C   0  0  0  0  0  0  0  0  0  0  0  0
  195.9390  174.5580  140.5810 C   0  0  0  0  0  0  0  0  0  0  0  0
  196.5650  173.4810  144.1800 C   0  0  0  0  0  2  0  0  0  0  0  0
  195.7720  175.8390  140.4720 N   0  0  0  0  0  0  0  0  0  0  0  0
  195.3770  176.3590  141.7070 N   0  0  0  0  0  0  0  0  0  0  0  0
  196.2520  174.8770  144.7470 C   0  0  0  0  0  2  0  0  0  0  0  0
  196.8340  173.5410  142.6750 C   0  0  0  0  0  2  0  0  0  0  0  0
  195.0940  175.5760  144.0220 C   0  0  1  0  0  3  0  0  0  0  0  0
  195.2470  175.3860  142.5460 C   0  0  0  0  0  0  0  0  0  0  0  0
  195.6070  174.0730  141.9490 C   0  0  1  0  0  3  0  0  0  0  0  0
  196.3050  173.6940  139.4300 C   0  0  0  0  0  2  0  0  0  0  0  0
  195.4790  172.5710  139.3960 O   0  0  0  0  0  0  0  0  0  0  0  0
  196.2550  171.5600  138.8220 C   0  0  0  0  0  2  0  0  0  0  0  0
  196.2660  170.3410  139.7270 C   0  0  0  0  0  2  0  0  0  0  0  0
  195.4390  170.5780  140.8980 N   0  0  0  0  0  2  0  0  0  0  0  0
  195.8360  169.6040  141.9070 C   0  0  1  0  0  3  0  0  0  0  0  0
  197.3350  169.3760  141.8450 C   0  0  0  0  0  1  0  0  0  0  0  0
  196.6030  169.7280  146.8440 C   0  0  0  0  0  1  0  0  0  0  0  0
  194.6370  170.8990  145.8350 C   0  0  0  0  0  3  0  0  0  0  0  0
  194.2500  170.8460  143.4430 C   0  0  0  0  0  3  0  0  0  0  0  0
  193.8680  171.2630  144.7240 C   0  0  0  0  0  3  0  0  0  0  0  0
  196.1660  169.6970  144.3820 C   0  0  0  0  0  3  0  0  0  0  0  0
  195.7850  170.1150  145.6620 C   0  0  0  0  0  0  0  0  0  0  0  0
  195.4050  170.0640  143.2690 C   0  0  0  0  0  0  0  0  0  0  0  0
  190.5960  173.8200  143.0300 C   0  0  2  0  0  3  0  0  0  0  0  0
  189.2020  174.2300  142.9290 N   0  0  0  0  0  1  0  0  0  0  0  0
  191.9100  172.8330  140.7080 O   0  0  0  0  0  0  0  0  0  0  0  0
  191.0300  171.3810  142.3310 N   0  0  0  0  0  2  0  0  0  0  0  0
  190.6890  172.3380  143.3460 C   0  0  0  0  0  0  0  0  0  0  0  0
  190.4720  171.9110  144.5220 O   0  0  0  0  0  0  0  0  0  0  0  0
  191.5430  171.6650  141.0200 C   0  0  0  0  0  0  0  0  0  0  0  0
  191.6930  170.6420  140.0800 O   0  0  0  0  0  0  0  0  0  0  0  0
  192.4300  170.8310  138.8780 C   0  0  0  0  0  2  0  0  0  0  0  0
  193.5300  169.3380  137.3710 O   0  0  0  0  0  1  0  0  0  0  0  0
  192.2990  169.6200  137.9620 C   0  0  2  0  0  3  0  0  0  0  0  0
  191.3980  171.1210  136.3420 O   0  0  0  0  0  1  0  0  0  0  0  0
  191.2550  169.8450  136.8830 C   0  0  0  0  0  2  0  0  0  0  0  0
  190.4740  176.6880  147.1080 C   0  0  0  0  0  2  0  0  0  0  0  0
  189.0520  177.5590  145.1440 C   0  0  0  0  0  3  0  0  0  0  0  0
  189.1420  176.8940  146.4710 C   0  0  0  0  0  0  0  0  0  0  0  0
  188.0370  176.4800  147.1090 C   0  0  0  0  0  3  0  0  0  0  0  0
  185.6700  176.3760  147.1570 O   0  0  0  0  0  0  0  0  0  0  0  0
  186.7030  176.7160  146.5200 C   0  0  0  0  0  0  0  0  0  0  0  0
  186.6040  177.3880  145.2070 C   0  0  0  0  0  0  0  0  0  0  0  0
  187.8630  177.7920  144.5480 C   0  0  0  0  0  3  0  0  0  0  0  0
  185.4320  177.5870  144.6680 N   0  0  0  0  0  0  0  0  0  0  0  0
  185.7200  179.7220  143.1480 O   0  0  0  0  0  0  0  0  0  0  0  0
  185.8460  177.3790  141.8170 C   0  0  0  0  0  1  0  0  0  0  0  0
  183.6280  178.4800  142.8860 O   0  0  0  0  0  0  0  0  0  0  0  0
  185.1060  178.3470  143.1360 S   0  0  0  0  0  0  0  0  0  0  0  0
  2  1  1  0  0  0  0
  3  7  1  0  0  0  0
  3  5  2  0  0  0  0
  4  1  2  0  0  0  0
  4 44  1  0  0  0  0
  5  2  1  0  0  0  0
  6  4  1  0  0  0  0
  7  6  2  0  0  0  0
  8 16  1  0  0  0  0
  9 12  1  0  0  0  0
 10  8  2  0  0  0  0
 10 11  1  0  0  0  0
 11 15  2  0  0  0  0
 13  9  1  0  0  0  0
 14  5  1  1  0  0  0
 14 12  1  0  0  0  0
 15 14  1  0  0  0  0
 16 15  1  0  0  0  0
 16 13  1  1  0  0  0
 17  8  1  0  0  0  0
 18 17  1  0  0  0  0
 19 18  1  0  0  0  0
 19 20  1  0  0  0  0
 20 21  1  0  0  0  0
 21 22  1  0  0  0  0
 22 23  1  1  0  0  0
 22 30  1  0  0  0  0
 26 27  1  0  0  0  0
 27 25  2  0  0  0  0
 28 29  2  0  0  0  0
 29 25  1  0  0  0  0
 29 24  1  0  0  0  0
 30 26  2  0  0  0  0
 30 28  1  0  0  0  0
 31 32  1  1  0  0  0
 31 35  1  0  0  0  0
 31  7  1  0  0  0  0
 33 37  2  0  0  0  0
 34 35  1  0  0  0  0
 35 36  2  0  0  0  0
 37 34  1  0  0  0  0
 38 37  1  0  0  0  0
 39 38  1  0  0  0  0
 41 40  1  6  0  0  0
 41 39  1  0  0  0  0
 42 43  1  0  0  0  0
 43 41  1  0  0  0  0
 45 46  1  0  0  0  0
 46 44  1  0  0  0  0
 46 47  2  0  0  0  0
 49 47  1  0  0  0  0
 49 48  2  0  0  0  0
 50 49  1  0  0  0  0
 51 45  2  0  0  0  0
 51 50  1  0  0  0  0
 52 50  2  0  0  0  0
 54 56  1  0  0  0  0
 55 56  2  0  0  0  0
 56 53  2  0  0  0  0
 56 52  1  0  0  0  0
M  END
>  <MODEL>
6

>  <REMARK>
 VINA RESULT:      -5.8      2.732      6.779
  Name = 
  17 active torsions:
  status: ('A' for Active; 'I' for Inactive)
    1  A    between atoms: C_5  and  C_43
    2  A    between atoms: C_7  and  N_32
    3  A    between atoms: C_7  and  C_52
    4  A    between atoms: C_9  and  C_34
    5  A    between atoms: C_9  and  C_48
    6  A    between atoms: C_17  and  C_33
    7  A    between atoms: C_17  and  C_46
    8  A    between atoms: C_18  and  C_55
    9  A    between atoms: C_25  and  C_44
   10  A    between atoms: C_25  and  O_47
   11  A    between atoms: C_27  and  C_55
   12  A    between atoms: N_32  and  C_44
   13  A    between atoms: C_34  and  O_51
   14  A    between atoms: S_35  and  N_56
   15  A    between atoms: C_38  and  C_39
   16  A    between atoms: C_43  and  O_47
   17  A    between atoms: O_51  and  C_53
                            x       y       z     vdW  Elec       q    Type
                         _______ _______ _______ _____ _____    ______ ____

>  <TORSDO>
F 17

$$$$
=
 OpenBabel11042419543D

 56 60  0  0  1  0  0  0  0  0999 V2000
  189.9030  172.3440  144.2010 C   0  0  0  0  0  3  0  0  0  0  0  0
  190.0780  171.6970  142.8740 C   0  0  0  0  0  2  0  0  0  0  0  0
  192.4890  172.1460  142.5930 C   0  0  0  0  0  3  0  0  0  0  0  0
  190.5550  173.4510  144.5690 C   0  0  0  0  0  0  0  0  0  0  0  0
  191.4990  171.2530  142.6850 C   0  0  0  0  0  0  0  0  0  0  0  0
  191.4930  174.1620  143.6710 C   0  0  0  0  0  3  0  0  0  0  0  0
  192.3210  173.6070  142.7600 C   0  0  0  0  0  0  0  0  0  0  0  0
  195.1140  168.8540  143.9960 C   0  0  0  0  0  0  0  0  0  0  0  0
  193.5060  169.6990  140.6490 C   0  0  0  0  0  2  0  0  0  0  0  0
  194.2770  168.3060  144.8200 N   0  0  0  0  0  0  0  0  0  0  0  0
  192.9740  168.6400  144.4430 N   0  0  0  0  0  0  0  0  0  0  0  0
  192.0880  169.3640  141.1430 C   0  0  0  0  0  2  0  0  0  0  0  0
  194.5710  169.1080  141.5750 C   0  0  0  0  0  2  0  0  0  0  0  0
  191.8380  169.7980  142.5940 C   0  0  1  0  0  3  0  0  0  0  0  0
  193.0250  169.4380  143.4300 C   0  0  0  0  0  0  0  0  0  0  0  0
  194.4190  169.6850  142.9750 C   0  0  1  0  0  3  0  0  0  0  0  0
  196.5860  168.7400  144.1510 C   0  0  0  0  0  2  0  0  0  0  0  0
  197.1870  169.9770  143.9180 O   0  0  0  0  0  0  0  0  0  0  0  0
  197.7230  170.3640  145.1500 C   0  0  0  0  0  2  0  0  0  0  0  0
  196.7890  171.3500  145.8320 C   0  0  0  0  0  2  0  0  0  0  0  0
  196.7040  172.5760  145.0580 N   0  0  0  0  0  2  0  0  0  0  0  0
  195.2880  172.8540  144.8510 C   0  0  1  0  0  3  0  0  0  0  0  0
  194.4490  171.9770  145.7630 C   0  0  0  0  0  1  0  0  0  0  0  0
  192.6280  176.4140  147.1360 C   0  0  0  0  0  1  0  0  0  0  0  0
  194.4450  177.0220  145.5280 C   0  0  0  0  0  3  0  0  0  0  0  0
  195.7420  175.3060  144.4100 C   0  0  0  0  0  3  0  0  0  0  0  0
  195.4610  176.6600  144.6370 C   0  0  0  0  0  3  0  0  0  0  0  0
  193.9880  174.6770  145.9600 C   0  0  0  0  0  3  0  0  0  0  0  0
  193.7090  176.0290  146.1870 C   0  0  0  0  0  0  0  0  0  0  0  0
  195.0070  174.3100  145.0770 C   0  0  0  0  0  0  0  0  0  0  0  0
  193.1530  174.4920  141.8670 C   0  0  2  0  0  3  0  0  0  0  0  0
  192.8980  175.9050  142.1140 N   0  0  0  0  0  1  0  0  0  0  0  0
  195.8290  173.9710  141.0560 O   0  0  0  0  0  0  0  0  0  0  0  0
  194.0800  174.1170  139.4960 N   0  0  0  0  0  2  0  0  0  0  0  0
  192.9630  174.1710  140.3960 C   0  0  0  0  0  0  0  0  0  0  0  0
  191.8050  173.9370  139.9280 O   0  0  0  0  0  0  0  0  0  0  0  0
  195.4710  174.1080  139.8520 C   0  0  0  0  0  0  0  0  0  0  0  0
  196.4560  174.2020  138.8660 O   0  0  0  0  0  0  0  0  0  0  0  0
  196.2930  175.0300  137.7210 C   0  0  0  0  0  2  0  0  0  0  0  0
  197.1140  175.4430  135.5140 O   0  0  0  0  0  1  0  0  0  0  0  0
  197.1110  174.5060  136.5470 C   0  0  2  0  0  3  0  0  0  0  0  0
  195.5120  173.4130  135.1550 O   0  0  0  0  0  1  0  0  0  0  0  0
  196.5690  173.1840  136.0340 C   0  0  0  0  0  2  0  0  0  0  0  0
  190.1870  174.1230  145.8590 C   0  0  0  0  0  2  0  0  0  0  0  0
  188.6470  175.4910  144.3120 C   0  0  0  0  0  3  0  0  0  0  0  0
  189.0820  175.1090  145.6810 C   0  0  0  0  0  0  0  0  0  0  0  0
  188.4970  175.6430  146.7630 C   0  0  0  0  0  3  0  0  0  0  0  0
  186.9330  177.1950  147.6360 O   0  0  0  0  0  0  0  0  0  0  0  0
  187.4330  176.6570  146.6120 C   0  0  0  0  0  0  0  0  0  0  0  0
  187.0030  177.0520  145.2540 C   0  0  0  0  0  0  0  0  0  0  0  0
  187.6710  176.4020  144.1080 C   0  0  0  0  0  3  0  0  0  0  0  0
  186.0520  177.9330  145.1070 N   0  0  0  0  0  0  0  0  0  0  0  0
  184.6740  179.8140  143.8740 O   0  0  0  0  0  0  0  0  0  0  0  0
  186.7420  178.8280  142.4490 C   0  0  0  0  0  1  0  0  0  0  0  0
  184.4340  177.5430  142.9950 O   0  0  0  0  0  0  0  0  0  0  0  0
  185.4010  178.5220  143.6040 S   0  0  0  0  0  0  0  0  0  0  0  0
  1  4  2  0  0  0  0
  2  1  1  0  0  0  0
  3  5  2  0  0  0  0
  3  7  1  0  0  0  0
  4 44  1  0  0  0  0
  5  2  1  0  0  0  0
  6  4  1  0  0  0  0
  7  6  2  0  0  0  0
  8 17  1  0  0  0  0
  8 10  2  0  0  0  0
  9 12  1  0  0  0  0
  9 13  1  0  0  0  0
 11 10  1  0  0  0  0
 12 14  1  0  0  0  0
 14  5  1  6  0  0  0
 14 15  1  0  0  0  0
 15 11  2  0  0  0  0
 16 13  1  6  0  0  0
 16 15  1  0  0  0  0
 16  8  1  0  0  0  0
 18 17  1  0  0  0  0
 18 19  1  0  0  0  0
 19 20  1  0  0  0  0
 21 20  1  0  0  0  0
 22 21  1  0  0  0  0
 22 30  1  0  0  0  0
 22 23  1  1  0  0  0
 25 29  1  0  0  0  0
 26 27  1  0  0  0  0
 26 30  2  0  0  0  0
 27 25  2  0  0  0  0
 28 29  2  0  0  0  0
 29 24  1  0  0  0  0
 30 28  1  0  0  0  0
 31 32  1  6  0  0  0
 31  7  1  0  0  0  0
 34 37  1  0  0  0  0
 34 35  1  0  0  0  0
 35 31  1  0  0  0  0
 36 35  2  0  0  0  0
 37 33  2  0  0  0  0
 38 37  1  0  0  0  0
 39 38  1  0  0  0  0
 41 40  1  6  0  0  0
 41 39  1  0  0  0  0
 42 43  1  0  0  0  0
 43 41  1  0  0  0  0
 45 46  1  0  0  0  0
 46 44  1  0  0  0  0
 46 47  2  0  0  0  0
 49 47  1  0  0  0  0
 49 48  2  0  0  0  0
 50 49  1  0  0  0  0
 51 45  2  0  0  0  0
 51 50  1  0  0  0  0
 52 50  2  0  0  0  0
 54 56  1  0  0  0  0
 55 56  2  0  0  0  0
 56 53  2  0  0  0  0
 56 52  1  0  0  0  0
M  END
>  <MODEL>
7

>  <REMARK>
 VINA RESULT:      -5.7      3.139      8.395
  Name = 
  17 active torsions:
  status: ('A' for Active; 'I' for Inactive)
    1  A    between atoms: C_5  and  C_43
    2  A    between atoms: C_7  and  N_32
    3  A    between atoms: C_7  and  C_52
    4  A    between atoms: C_9  and  C_34
    5  A    between atoms: C_9  and  C_48
    6  A    between atoms: C_17  and  C_33
    7  A    between atoms: C_17  and  C_46
    8  A    between atoms: C_18  and  C_55
    9  A    between atoms: C_25  and  C_44
   10  A    between atoms: C_25  and  O_47
   11  A    between atoms: C_27  and  C_55
   12  A    between atoms: N_32  and  C_44
   13  A    between atoms: C_34  and  O_51
   14  A    between atoms: S_35  and  N_56
   15  A    between atoms: C_38  and  C_39
   16  A    between atoms: C_43  and  O_47
   17  A    between atoms: O_51  and  C_53
                            x       y       z     vdW  Elec       q    Type
                         _______ _______ _______ _____ _____    ______ ____

>  <TORSDO>
F 17

$$$$
=
 OpenBabel11042419543D

 56 60  0  0  1  0  0  0  0  0999 V2000
  190.0990  173.1640  143.4760 C   0  0  0  0  0  3  0  0  0  0  0  0
  189.6090  171.8390  143.0150 C   0  0  0  0  0  2  0  0  0  0  0  0
  190.7340  171.8050  140.8190 C   0  0  0  0  0  3  0  0  0  0  0  0
  190.2780  174.2050  142.6570 C   0  0  0  0  0  0  0  0  0  0  0  0
  190.5570  171.2410  142.0170 C   0  0  0  0  0  0  0  0  0  0  0  0
  189.9690  174.1450  141.2100 C   0  0  0  0  0  3  0  0  0  0  0  0
  190.1200  173.0820  140.3920 C   0  0  0  0  0  0  0  0  0  0  0  0
  194.7960  170.5400  143.4600 C   0  0  0  0  0  0  0  0  0  0  0  0
  192.8450  169.6870  140.3030 C   0  0  0  0  0  2  0  0  0  0  0  0
  194.2100  170.1070  144.5320 N   0  0  0  0  0  0  0  0  0  0  0  0
  192.8510  169.9190  144.2710 N   0  0  0  0  0  0  0  0  0  0  0  0
  191.6250  169.1710  141.0870 C   0  0  0  0  0  2  0  0  0  0  0  0
  194.0840  169.7730  141.1950 C   0  0  0  0  0  2  0  0  0  0  0  0
  191.3240  169.9980  142.3440 C   0  0  1  0  0  3  0  0  0  0  0  0
  192.6040  170.2930  143.0610 C   0  0  0  0  0  0  0  0  0  0  0  0
  193.8290  170.7380  142.3440 C   0  0  1  0  0  3  0  0  0  0  0  0
  196.2370  170.8950  143.4170 C   0  0  0  0  0  2  0  0  0  0  0  0
  196.4380  171.9680  142.5480 O   0  0  0  0  0  0  0  0  0  0  0  0
  197.2280  172.8760  143.2600 C   0  0  0  0  0  2  0  0  0  0  0  0
  196.9550  174.2880  142.7740 C   0  0  0  0  0  2  0  0  0  0  0  0
  195.5860  174.4000  142.3000 N   0  0  0  0  0  2  0  0  0  0  0  0
  195.0070  175.5740  142.9420 C   0  0  1  0  0  3  0  0  0  0  0  0
  194.2110  176.3770  141.9300 C   0  0  0  0  0  1  0  0  0  0  0  0
  192.5800  176.7930  147.1370 C   0  0  0  0  0  1  0  0  0  0  0  0
  192.5710  174.4340  146.3050 C   0  0  0  0  0  3  0  0  0  0  0  0
  193.7460  173.8270  144.2740 C   0  0  0  0  0  3  0  0  0  0  0  0
  192.9530  173.4660  145.3710 C   0  0  0  0  0  3  0  0  0  0  0  0
  193.7790  176.1230  145.0470 C   0  0  0  0  0  3  0  0  0  0  0  0
  192.9860  175.7620  146.1430 C   0  0  0  0  0  0  0  0  0  0  0  0
  194.1570  175.1610  144.1080 C   0  0  0  0  0  0  0  0  0  0  0  0
  189.6750  173.1740  138.9540 C   0  0  2  0  0  3  0  0  0  0  0  0
  188.2240  173.1870  138.8360 N   0  0  0  0  0  1  0  0  0  0  0  0
  192.2810  174.1930  138.4440 O   0  0  0  0  0  0  0  0  0  0  0  0
  191.4800  172.2720  137.3570 N   0  0  0  0  0  2  0  0  0  0  0  0
  190.2650  172.0710  138.0950 C   0  0  0  0  0  0  0  0  0  0  0  0
  189.6960  170.9380  138.0140 O   0  0  0  0  0  0  0  0  0  0  0  0
  192.3980  173.3680  137.4960 C   0  0  0  0  0  0  0  0  0  0  0  0
  193.4670  173.5130  136.6080 O   0  0  0  0  0  0  0  0  0  0  0  0
  194.3470  174.6300  136.6710 C   0  0  0  0  0  2  0  0  0  0  0  0
  196.0930  175.2840  138.1650 O   0  0  0  0  0  1  0  0  0  0  0  0
  195.6660  174.2500  137.3330 C   0  0  2  0  0  3  0  0  0  0  0  0
  196.3600  174.4450  135.0600 O   0  0  0  0  0  1  0  0  0  0  0  0
  196.7400  173.9460  136.3040 C   0  0  0  0  0  2  0  0  0  0  0  0
  190.6130  175.5470  143.2390 C   0  0  0  0  0  2  0  0  0  0  0  0
  188.7740  176.1170  144.9510 C   0  0  0  0  0  3  0  0  0  0  0  0
  189.3900  176.3150  143.6130 C   0  0  0  0  0  0  0  0  0  0  0  0
  188.8580  177.1740  142.7310 C   0  0  0  0  0  3  0  0  0  0  0  0
  187.0980  178.6690  142.2010 O   0  0  0  0  0  0  0  0  0  0  0  0
  187.6210  177.9110  143.0600 C   0  0  0  0  0  0  0  0  0  0  0  0
  186.9940  177.7100  144.3840 C   0  0  0  0  0  0  0  0  0  0  0  0
  187.6510  176.7700  145.3170 C   0  0  0  0  0  3  0  0  0  0  0  0
  185.9110  178.3680  144.6950 N   0  0  0  0  0  0  0  0  0  0  0  0
  184.8040  176.8280  146.5270 O   0  0  0  0  0  0  0  0  0  0  0  0
  185.9990  179.0430  147.5010 C   0  0  0  0  0  1  0  0  0  0  0  0
  183.6970  178.9680  146.0970 O   0  0  0  0  0  0  0  0  0  0  0  0
  185.0320  178.2800  146.1940 S   0  0  0  0  0  0  0  0  0  0  0  0
  2  1  1  0  0  0  0
  3  5  2  0  0  0  0
  4 44  1  0  0  0  0
  4  1  2  0  0  0  0
  5  2  1  0  0  0  0
  6  4  1  0  0  0  0
  7  3  1  0  0  0  0
  7  6  2  0  0  0  0
  8 10  2  0  0  0  0
  9 12  1  0  0  0  0
  9 13  1  0  0  0  0
 11 10  1  0  0  0  0
 12 14  1  0  0  0  0
 14  5  1  6  0  0  0
 14 15  1  0  0  0  0
 15 11  2  0  0  0  0
 16 13  1  6  0  0  0
 16 15  1  0  0  0  0
 16  8  1  0  0  0  0
 17  8  1  0  0  0  0
 18 19  1  0  0  0  0
 18 17  1  0  0  0  0
 20 19  1  0  0  0  0
 21 20  1  0  0  0  0
 21 22  1  0  0  0  0
 22 23  1  6  0  0  0
 22 30  1  0  0  0  0
 26 27  1  0  0  0  0
 27 25  2  0  0  0  0
 28 29  2  0  0  0  0
 29 25  1  0  0  0  0
 29 24  1  0  0  0  0
 30 26  2  0  0  0  0
 30 28  1  0  0  0  0
 31 32  1  1  0  0  0
 31  7  1  0  0  0  0
 34 37  1  0  0  0  0
 34 35  1  0  0  0  0
 35 31  1  0  0  0  0
 36 35  2  0  0  0  0
 37 33  2  0  0  0  0
 38 39  1  0  0  0  0
 38 37  1  0  0  0  0
 39 41  1  0  0  0  0
 41 40  1  1  0  0  0
 42 43  1  0  0  0  0
 43 41  1  0  0  0  0
 44 46  1  0  0  0  0
 45 51  2  0  0  0  0
 46 45  1  0  0  0  0
 47 49  1  0  0  0  0
 47 46  2  0  0  0  0
 48 49  2  0  0  0  0
 49 50  1  0  0  0  0
 50 52  2  0  0  0  0
 50 51  1  0  0  0  0
 52 56  1  0  0  0  0
 55 56  2  0  0  0  0
 56 53  2  0  0  0  0
 56 54  1  0  0  0  0
M  END
>  <MODEL>
8

>  <REMARK>
 VINA RESULT:      -5.6      3.008      8.291
  Name = 
  17 active torsions:
  status: ('A' for Active; 'I' for Inactive)
    1  A    between atoms: C_5  and  C_43
    2  A    between atoms: C_7  and  N_32
    3  A    between atoms: C_7  and  C_52
    4  A    between atoms: C_9  and  C_34
    5  A    between atoms: C_9  and  C_48
    6  A    between atoms: C_17  and  C_33
    7  A    between atoms: C_17  and  C_46
    8  A    between atoms: C_18  and  C_55
    9  A    between atoms: C_25  and  C_44
   10  A    between atoms: C_25  and  O_47
   11  A    between atoms: C_27  and  C_55
   12  A    between atoms: N_32  and  C_44
   13  A    between atoms: C_34  and  O_51
   14  A    between atoms: S_35  and  N_56
   15  A    between atoms: C_38  and  C_39
   16  A    between atoms: C_43  and  O_47
   17  A    between atoms: O_51  and  C_53
                            x       y       z     vdW  Elec       q    Type
                         _______ _______ _______ _____ _____    ______ ____

>  <TORSDO>
F 17

$$$$
=
 OpenBabel11042419543D

 56 60  0  0  1  0  0  0  0  0999 V2000
  187.3450  177.4700  143.3460 C   0  0  0  0  0  3  0  0  0  0  0  0
  187.8520  176.7460  144.5410 C   0  0  0  0  0  2  0  0  0  0  0  0
  189.7200  175.5560  143.4520 C   0  0  0  0  0  3  0  0  0  0  0  0
  187.3460  176.9450  142.1160 C   0  0  0  0  0  0  0  0  0  0  0  0
  189.3090  176.4200  144.3850 C   0  0  0  0  0  0  0  0  0  0  0  0
  187.8230  175.5720  141.8340 C   0  0  0  0  0  3  0  0  0  0  0  0
  188.8380  174.9250  142.4440 C   0  0  0  0  0  0  0  0  0  0  0  0
  193.5740  175.3050  145.4370 C   0  0  0  0  0  0  0  0  0  0  0  0
  190.3010  175.5730  147.3660 C   0  0  0  0  0  2  0  0  0  0  0  0
  193.8660  176.4010  144.8110 N   0  0  0  0  0  0  0  0  0  0  0  0
  192.7010  177.1460  144.6160 N   0  0  0  0  0  0  0  0  0  0  0  0
  189.9470  176.9400  146.7550 C   0  0  0  0  0  2  0  0  0  0  0  0
  191.7820  175.2430  147.1720 C   0  0  0  0  0  2  0  0  0  0  0  0
  190.3320  177.0540  145.2730 C   0  0  1  0  0  3  0  0  0  0  0  0
  191.6970  176.4750  145.0700 C   0  0  0  0  0  0  0  0  0  0  0  0
  192.1100  175.1860  145.6870 C   0  0  1  0  0  3  0  0  0  0  0  0
  194.5830  174.2620  145.7500 C   0  0  0  0  0  2  0  0  0  0  0  0
  195.8290  174.6380  145.2480 O   0  0  0  0  0  0  0  0  0  0  0  0
  196.7470  173.7820  145.8630 C   0  0  0  0  0  2  0  0  0  0  0  0
  197.6590  173.1660  144.8150 C   0  0  0  0  0  2  0  0  0  0  0  0
  197.6980  171.7230  144.9710 N   0  0  0  0  0  2  0  0  0  0  0  0
  196.4160  171.2080  144.5070 C   0  0  1  0  0  3  0  0  0  0  0  0
  196.5590  170.6480  143.1040 C   0  0  0  0  0  1  0  0  0  0  0  0
  197.2040  168.1660  148.3930 C   0  0  0  0  0  1  0  0  0  0  0  0
  194.9700  168.2370  147.2690 C   0  0  0  0  0  3  0  0  0  0  0  0
  194.5740  169.7050  145.3820 C   0  0  0  0  0  3  0  0  0  0  0  0
  194.1120  168.7390  146.2850 C   0  0  0  0  0  3  0  0  0  0  0  0
  196.7520  169.6640  146.4420 C   0  0  0  0  0  3  0  0  0  0  0  0
  196.2900  168.7000  147.3460 C   0  0  0  0  0  0  0  0  0  0  0  0
  195.8970  170.1740  145.4620 C   0  0  0  0  0  0  0  0  0  0  0  0
  189.1360  173.4910  142.0850 C   0  0  2  0  0  3  0  0  0  0  0  0
  187.9230  172.6880  142.0090 N   0  0  0  0  0  1  0  0  0  0  0  0
  191.5970  174.0560  140.7760 O   0  0  0  0  0  0  0  0  0  0  0  0
  191.4980  172.6380  142.6450 N   0  0  0  0  0  2  0  0  0  0  0  0
  190.1330  172.8530  143.0340 C   0  0  0  0  0  0  0  0  0  0  0  0
  189.7810  172.4980  144.2020 O   0  0  0  0  0  0  0  0  0  0  0  0
  192.1560  173.1740  141.4860 C   0  0  0  0  0  0  0  0  0  0  0  0
  193.4480  172.7630  141.1500 O   0  0  0  0  0  0  0  0  0  0  0  0
  193.7970  172.3980  139.8200 C   0  0  0  0  0  2  0  0  0  0  0  0
  196.0150  171.5130  139.8890 O   0  0  0  0  0  1  0  0  0  0  0  0
  195.2760  172.6480  139.5560 C   0  0  2  0  0  3  0  0  0  0  0  0
  195.1530  175.0020  139.9110 O   0  0  0  0  0  1  0  0  0  0  0  0
  195.7910  173.8410  140.3410 C   0  0  0  0  0  2  0  0  0  0  0  0
  186.6610  177.6840  141.0050 C   0  0  0  0  0  2  0  0  0  0  0  0
  184.2120  177.9780  140.2630 C   0  0  0  0  0  3  0  0  0  0  0  0
  185.2410  178.0010  141.3350 C   0  0  0  0  0  0  0  0  0  0  0  0
  184.9130  178.3090  142.5980 C   0  0  0  0  0  3  0  0  0  0  0  0
  183.2390  179.0180  144.1170 O   0  0  0  0  0  0  0  0  0  0  0  0
  183.5230  178.6730  142.9400 C   0  0  0  0  0  0  0  0  0  0  0  0
  182.4950  178.6650  141.8770 C   0  0  0  0  0  0  0  0  0  0  0  0
  182.9220  178.2880  140.5140 C   0  0  0  0  0  3  0  0  0  0  0  0
  181.2590  178.9670  142.1690 N   0  0  0  0  0  0  0  0  0  0  0  0
  178.6390  178.8950  141.8750 O   0  0  0  0  0  0  0  0  0  0  0  0
  179.9090  180.5660  140.1800 C   0  0  0  0  0  1  0  0  0  0  0  0
  179.9590  177.8710  140.0870 O   0  0  0  0  0  0  0  0  0  0  0  0
  179.9090  179.0080  141.0720 S   0  0  0  0  0  0  0  0  0  0  0  0
  1  2  1  0  0  0  0
  3  5  2  0  0  0  0
  4  1  2  0  0  0  0
  5  2  1  0  0  0  0
  6  4  1  0  0  0  0
  6  7  2  0  0  0  0
  7  3  1  0  0  0  0
  8 16  1  0  0  0  0
  8 17  1  0  0  0  0
 10  8  2  0  0  0  0
 11 10  1  0  0  0  0
 11 15  2  0  0  0  0
 12  9  1  0  0  0  0
 13  9  1  0  0  0  0
 14  5  1  6  0  0  0
 14 12  1  0  0  0  0
 15 14  1  0  0  0  0
 15 16  1  0  0  0  0
 16 13  1  1  0  0  0
 18 17  1  0  0  0  0
 18 19  1  0  0  0  0
 20 21  1  0  0  0  0
 20 19  1  0  0  0  0
 22 23  1  6  0  0  0
 22 21  1  0  0  0  0
 22 30  1  0  0  0  0
 25 29  1  0  0  0  0
 26 30  2  0  0  0  0
 26 27  1  0  0  0  0
 27 25  2  0  0  0  0
 28 29  2  0  0  0  0
 29 24  1  0  0  0  0
 30 28  1  0  0  0  0
 31 32  1  1  0  0  0
 31  7  1  0  0  0  0
 31 35  1  0  0  0  0
 33 37  2  0  0  0  0
 34 35  1  0  0  0  0
 35 36  2  0  0  0  0
 37 34  1  0  0  0  0
 38 37  1  0  0  0  0
 39 38  1  0  0  0  0
 41 39  1  0  0  0  0
 41 40  1  1  0  0  0
 41 43  1  0  0  0  0
 42 43  1  0  0  0  0
 44 46  1  0  0  0  0
 44  4  1  0  0  0  0
 45 51  2  0  0  0  0
 45 46  1  0  0  0  0
 46 47  2  0  0  0  0
 47 49  1  0  0  0  0
 49 48  2  0  0  0  0
 50 52  2  0  0  0  0
 50 49  1  0  0  0  0
 51 50  1  0  0  0  0
 54 56  1  0  0  0  0
 55 56  2  0  0  0  0
 56 53  2  0  0  0  0
 56 52  1  0  0  0  0
M  END
>  <MODEL>
9

>  <REMARK>
 VINA RESULT:      -5.5      3.783      7.943
  Name = 
  17 active torsions:
  status: ('A' for Active; 'I' for Inactive)
    1  A    between atoms: C_5  and  C_43
    2  A    between atoms: C_7  and  N_32
    3  A    between atoms: C_7  and  C_52
    4  A    between atoms: C_9  and  C_34
    5  A    between atoms: C_9  and  C_48
    6  A    between atoms: C_17  and  C_33
    7  A    between atoms: C_17  and  C_46
    8  A    between atoms: C_18  and  C_55
    9  A    between atoms: C_25  and  C_44
   10  A    between atoms: C_25  and  O_47
   11  A    between atoms: C_27  and  C_55
   12  A    between atoms: N_32  and  C_44
   13  A    between atoms: C_34  and  O_51
   14  A    between atoms: S_35  and  N_56
   15  A    between atoms: C_38  and  C_39
   16  A    between atoms: C_43  and  O_47
   17  A    between atoms: O_51  and  C_53
                            x       y       z     vdW  Elec       q    Type
                         _______ _______ _______ _____ _____    ______ ____

>  <TORSDO>
F 17

$$$$
