=
 OpenBabel11042415113D

 27 29  0  0  1  0  0  0  0  0999 V2000
  185.9430  177.1020  147.3470 C   0  0  0  0  0  3  0  0  0  0  0  0
  183.5860  178.8870  145.4000 O   0  0  0  0  0  0  0  0  0  0  0  0
  187.0330  178.0470  145.2830 C   0  0  0  0  0  0  0  0  0  0  0  0
  188.9980  177.2590  145.4630 C   0  0  0  0  0  0  0  0  0  0  0  0
  184.7020  178.4100  145.7320 C   0  0  0  0  0  0  0  0  0  0  0  0
  188.3000  178.0090  144.6530 N   0  0  0  0  0  0  0  0  0  0  0  0
  188.2870  176.7790  146.6240 N   0  0  0  0  0  0  0  0  0  0  0  0
  185.9010  178.6210  144.8690 C   0  0  0  0  0  0  0  0  0  0  0  0
  187.1100  177.2770  146.4800 C   0  0  0  0  0  0  0  0  0  0  0  0
  184.8190  177.6500  146.9680 N   0  0  0  0  0  0  0  0  0  0  0  0
  191.1710  177.3900  144.1740 C   0  0  0  0  0  3  0  0  0  0  0  0
  192.3970  176.8410  144.2340 N   0  0  0  0  0  0  0  0  0  0  0  0
  191.1340  175.9630  145.9050 C   0  0  0  0  0  3  0  0  0  0  0  0
  190.3860  176.8670  145.1820 C   0  0  1  0  0  3  0  0  0  0  0  0
  192.3670  175.9840  145.2730 C   0  0  0  0  0  0  0  0  0  0  0  0
  193.5580  175.2050  145.7200 C   0  0  0  0  0  2  0  0  0  0  0  0
  194.5750  176.1190  146.3920 C   0  0  0  0  0  2  0  0  0  0  0  0
  193.9260  177.1140  147.1100 F   0  0  0  0  0  0  0  0  0  0  0  0
  185.8250  179.4010  143.5850 C   0  0  0  0  0  2  0  0  0  0  0  0
  185.4680  178.5190  142.4790 N   0  0  0  0  0  2  0  0  0  0  0  0
  186.4970  178.5470  141.5960 O   0  0  0  0  0  0  0  0  0  0  0  0
  186.4650  177.2850  140.9930 C   0  0  0  0  0  2  0  0  0  0  0  0
  187.7930  176.5800  141.2430 C   0  0  0  0  0  2  0  0  0  0  0  0
  187.5280  175.1870  142.3760 S   0  0  0  0  0  0  0  0  0  0  0  0
  189.2920  174.7410  142.3890 C   0  0  0  0  0  2  0  0  0  0  0  0
  189.5510  173.6380  143.4080 C   0  0  0  0  0  2  0  0  0  0  0  0
  190.9930  173.1630  143.2960 C   0  0  0  0  0  1  0  0  0  0  0  0
  2  5  2  0  0  0  0
  3  9  1  0  0  0  0
  4  7  1  0  0  0  0
  5 10  1  0  0  0  0
  6  3  1  0  0  0  0
  6  4  2  0  0  0  0
  8  3  2  0  0  0  0
  8  5  1  0  0  0  0
  9  7  2  0  0  0  0
  9  1  1  0  0  0  0
 10  1  2  0  0  0  0
 11 12  2  0  0  0  0
 11 14  1  0  0  0  0
 12 15  1  0  0  0  0
 14  4  1  1  0  0  0
 14 13  1  0  0  0  0
 15 16  1  0  0  0  0
 15 13  2  0  0  0  0
 16 17  1  0  0  0  0
 17 18  1  0  0  0  0
 19  8  1  0  0  0  0
 20 19  1  0  0  0  0
 21 20  1  0  0  0  0
 22 23  1  0  0  0  0
 22 21  1  0  0  0  0
 23 24  1  0  0  0  0
 24 25  1  0  0  0  0
 25 26  1  0  0  0  0
 27 26  1  0  0  0  0
M  END
>  <MODEL>
1

>  <REMARK>
 VINA RESULT:      -5.8      0.000      0.000
  Name = 
  11 active torsions:
  status: ('A' for Active; 'I' for Inactive)
    1  A    between atoms: C_2  and  C_3
    2  A    between atoms: C_3  and  S_8
    3  A    between atoms: S_8  and  C_27
    4  A    between atoms: C_10  and  C_23
    5  A    between atoms: O_12  and  N_17
    6  A    between atoms: O_12  and  C_18
    7  A    between atoms: C_13  and  C_16
    8  A    between atoms: C_13  and  C_24
    9  A    between atoms: C_14  and  N_17
   10  A    between atoms: C_14  and  C_21
   11  A    between atoms: C_18  and  C_27
                            x       y       z     vdW  Elec       q    Type
                         _______ _______ _______ _____ _____    ______ ____

>  <TORSDO>
F 11

$$$$
=
 OpenBabel11042415113D

 27 29  0  0  0  0  0  0  0  0999 V2000
  185.0690  178.3480  146.9040 C   0  0  0  0  0  3  0  0  0  0  0  0
  183.4710  179.1130  143.8400 O   0  0  0  0  0  0  0  0  0  0  0  0
  186.6820  178.1210  144.9840 C   0  0  0  0  0  0  0  0  0  0  0  0
  188.4110  177.4030  145.9880 C   0  0  0  0  0  0  0  0  0  0  0  0
  184.4040  178.7890  144.6200 C   0  0  0  0  0  0  0  0  0  0  0  0
  188.0210  177.7110  144.7800 N   0  0  0  0  0  0  0  0  0  0  0  0
  187.4190  177.5820  147.0200 N   0  0  0  0  0  0  0  0  0  0  0  0
  185.7650  178.4910  144.0870 C   0  0  0  0  0  0  0  0  0  0  0  0
  186.3940  178.0170  146.3760 C   0  0  0  0  0  0  0  0  0  0  0  0
  184.1490  178.7110  146.0510 N   0  0  0  0  0  0  0  0  0  0  0  0
  190.0500  176.0340  147.3470 C   0  0  0  0  0  3  0  0  0  0  0  0
  191.3420  175.6690  147.2710 N   0  0  0  0  0  2  0  0  0  0  0  0
  190.8660  176.9950  145.4900 C   0  0  0  0  0  3  0  0  0  0  0  0
  189.7400  176.8440  146.2720 C   0  0  0  0  0  0  0  0  0  0  0  0
  191.8250  176.2510  146.1570 C   0  0  0  0  0  0  0  0  0  0  0  0
  193.2220  176.0490  145.6740 C   0  0  0  0  0  2  0  0  0  0  0  0
  194.2120  176.7620  146.5880 C   0  0  0  0  0  2  0  0  0  0  0  0
  194.7510  177.8670  145.9430 F   0  0  0  0  0  0  0  0  0  0  0  0
  186.0730  178.5610  142.6150 C   0  0  0  0  0  2  0  0  0  0  0  0
  185.8410  177.2640  141.9890 N   0  0  0  0  0  2  0  0  0  0  0  0
  186.6560  177.1910  140.9080 O   0  0  0  0  0  0  0  0  0  0  0  0
  187.8750  176.7450  141.4270 C   0  0  0  0  0  2  0  0  0  0  0  0
  187.7110  175.3140  141.9270 C   0  0  0  0  0  2  0  0  0  0  0  0
  188.8030  174.2180  140.9780 S   0  0  0  0  0  0  0  0  0  0  0  0
  189.1980  173.1990  142.4320 C   0  0  0  0  0  2  0  0  0  0  0  0
  189.8680  174.0460  143.5070 C   0  0  0  0  0  2  0  0  0  0  0  0
  189.8740  173.2900  144.8280 C   0  0  0  0  0  1  0  0  0  0  0  0
  2  5  2  0  0  0  0
  3  9  1  0  0  0  0
  4 14  1  0  0  0  0
  4  7  1  0  0  0  0
  5 10  1  0  0  0  0
  6  3  1  0  0  0  0
  6  4  2  0  0  0  0
  8  5  1  0  0  0  0
  8  3  2  0  0  0  0
  9  1  1  0  0  0  0
  9  7  2  0  0  0  0
 10  1  2  0  0  0  0
 12 11  1  0  0  0  0
 13 15  2  0  0  0  0
 13 14  1  0  0  0  0
 14 11  2  0  0  0  0
 15 12  1  0  0  0  0
 16 15  1  0  0  0  0
 16 17  1  0  0  0  0
 18 17  1  0  0  0  0
 19  8  1  0  0  0  0
 20 19  1  0  0  0  0
 21 22  1  0  0  0  0
 21 20  1  0  0  0  0
 22 23  1  0  0  0  0
 24 23  1  0  0  0  0
 24 25  1  0  0  0  0
 25 26  1  0  0  0  0
 26 27  1  0  0  0  0
M  END
>  <MODEL>
2

>  <REMARK>
 VINA RESULT:      -5.8      1.351      1.581
  Name = 
  11 active torsions:
  status: ('A' for Active; 'I' for Inactive)
    1  A    between atoms: C_2  and  C_3
    2  A    between atoms: C_3  and  S_8
    3  A    between atoms: S_8  and  C_27
    4  A    between atoms: C_10  and  C_23
    5  A    between atoms: O_12  and  N_17
    6  A    between atoms: O_12  and  C_18
    7  A    between atoms: C_13  and  C_16
    8  A    between atoms: C_13  and  C_24
    9  A    between atoms: C_14  and  N_17
   10  A    between atoms: C_14  and  C_21
   11  A    between atoms: C_18  and  C_27
                            x       y       z     vdW  Elec       q    Type
                         _______ _______ _______ _____ _____    ______ ____

>  <TORSDO>
F 11

$$$$
=
 OpenBabel11042415113D

 27 29  0  0  0  0  0  0  0  0999 V2000
  192.0620  176.3280  147.1150 C   0  0  0  0  0  3  0  0  0  0  0  0
  192.9240  173.4770  145.2020 O   0  0  0  0  0  0  0  0  0  0  0  0
  190.0170  175.3400  146.0260 C   0  0  0  0  0  0  0  0  0  0  0  0
  188.5300  176.7430  146.6050 C   0  0  0  0  0  0  0  0  0  0  0  0
  192.1850  174.3540  145.7210 C   0  0  0  0  0  0  0  0  0  0  0  0
  188.6390  175.6420  145.9110 N   0  0  0  0  0  0  0  0  0  0  0  0
  189.7550  177.2190  147.2010 N   0  0  0  0  0  0  0  0  0  0  0  0
  190.7150  174.3510  145.4640 C   0  0  0  0  0  0  0  0  0  0  0  0
  190.6250  176.3470  146.8320 C   0  0  0  0  0  0  0  0  0  0  0  0
  192.7730  175.3730  146.5770 N   0  0  0  0  0  0  0  0  0  0  0  0
  186.9280  178.3280  147.7570 C   0  0  0  0  0  3  0  0  0  0  0  0
  185.7260  178.8790  147.5100 N   0  0  0  0  0  2  0  0  0  0  0  0
  186.2570  177.5100  145.7770 C   0  0  0  0  0  3  0  0  0  0  0  0
  187.2690  177.4890  146.7140 C   0  0  0  0  0  0  0  0  0  0  0  0
  185.3290  178.3820  146.3230 C   0  0  0  0  0  0  0  0  0  0  0  0
  184.0590  178.7890  145.6540 C   0  0  0  0  0  2  0  0  0  0  0  0
  184.3190  179.1770  144.2040 C   0  0  0  0  0  2  0  0  0  0  0  0
  185.0740  180.3400  144.1460 F   0  0  0  0  0  0  0  0  0  0  0  0
  190.0660  173.3160  144.5860 C   0  0  0  0  0  2  0  0  0  0  0  0
  189.9380  173.8190  143.2230 N   0  0  0  0  0  2  0  0  0  0  0  0
  188.7000  173.4790  142.7860 O   0  0  0  0  0  0  0  0  0  0  0  0
  188.4120  174.4270  141.7990 C   0  0  0  0  0  2  0  0  0  0  0  0
  187.4070  175.4310  142.3500 C   0  0  0  0  0  2  0  0  0  0  0  0
  187.6420  177.0300  141.5270 S   0  0  0  0  0  0  0  0  0  0  0  0
  188.5640  177.7250  142.9330 C   0  0  0  0  0  2  0  0  0  0  0  0
  190.0620  177.5330  142.7310 C   0  0  0  0  0  2  0  0  0  0  0  0
  190.8260  178.2850  143.8110 C   0  0  0  0  0  1  0  0  0  0  0  0
  2  5  2  0  0  0  0
  3  9  1  0  0  0  0
  4 14  1  0  0  0  0
  4  7  1  0  0  0  0
  5 10  1  0  0  0  0
  6  3  1  0  0  0  0
  6  4  2  0  0  0  0
  8  5  1  0  0  0  0
  8  3  2  0  0  0  0
  9  1  1  0  0  0  0
  9  7  2  0  0  0  0
 10  1  2  0  0  0  0
 12 11  1  0  0  0  0
 13 15  2  0  0  0  0
 13 14  1  0  0  0  0
 14 11  2  0  0  0  0
 15 12  1  0  0  0  0
 16 15  1  0  0  0  0
 17 16  1  0  0  0  0
 18 17  1  0  0  0  0
 19  8  1  0  0  0  0
 20 19  1  0  0  0  0
 21 20  1  0  0  0  0
 22 23  1  0  0  0  0
 22 21  1  0  0  0  0
 24 23  1  0  0  0  0
 24 25  1  0  0  0  0
 26 25  1  0  0  0  0
 26 27  1  0  0  0  0
M  END
>  <MODEL>
3

>  <REMARK>
 VINA RESULT:      -5.7      3.243      6.347
  Name = 
  11 active torsions:
  status: ('A' for Active; 'I' for Inactive)
    1  A    between atoms: C_2  and  C_3
    2  A    between atoms: C_3  and  S_8
    3  A    between atoms: S_8  and  C_27
    4  A    between atoms: C_10  and  C_23
    5  A    between atoms: O_12  and  N_17
    6  A    between atoms: O_12  and  C_18
    7  A    between atoms: C_13  and  C_16
    8  A    between atoms: C_13  and  C_24
    9  A    between atoms: C_14  and  N_17
   10  A    between atoms: C_14  and  C_21
   11  A    between atoms: C_18  and  C_27
                            x       y       z     vdW  Elec       q    Type
                         _______ _______ _______ _____ _____    ______ ____

>  <TORSDO>
F 11

$$$$
=
 OpenBabel11042415113D

 27 29  0  0  0  0  0  0  0  0999 V2000
  187.0550  176.7800  139.6640 C   0  0  0  0  0  3  0  0  0  0  0  0
  184.2010  178.7230  140.4450 O   0  0  0  0  0  0  0  0  0  0  0  0
  186.6640  176.8190  142.1510 C   0  0  0  0  0  0  0  0  0  0  0  0
  188.3500  175.7270  142.8450 C   0  0  0  0  0  0  0  0  0  0  0  0
  185.1990  177.9830  140.6450 C   0  0  0  0  0  0  0  0  0  0  0  0
  187.2990  176.3400  143.3220 N   0  0  0  0  0  0  0  0  0  0  0  0
  188.4750  175.7480  141.4080 N   0  0  0  0  0  0  0  0  0  0  0  0
  185.5700  177.5750  142.0320 C   0  0  0  0  0  0  0  0  0  0  0  0
  187.4410  176.4120  141.0270 C   0  0  0  0  0  0  0  0  0  0  0  0
  185.9900  177.5220  139.5140 N   0  0  0  0  0  0  0  0  0  0  0  0
  189.5060  173.7680  143.9540 C   0  0  0  0  0  3  0  0  0  0  0  0
  190.5710  173.5640  144.7490 N   0  0  0  0  0  2  0  0  0  0  0  0
  190.3830  175.7940  144.3620 C   0  0  0  0  0  3  0  0  0  0  0  0
  189.3720  175.1210  143.7080 C   0  0  0  0  0  0  0  0  0  0  0  0
  191.0900  174.7820  144.9910 C   0  0  0  0  0  0  0  0  0  0  0  0
  192.3300  174.9940  145.7940 C   0  0  0  0  0  2  0  0  0  0  0  0
  191.9810  175.3350  147.2370 C   0  0  0  0  0  2  0  0  0  0  0  0
  192.1320  176.6970  147.4590 F   0  0  0  0  0  0  0  0  0  0  0  0
  184.7800  178.0270  143.2290 C   0  0  0  0  0  2  0  0  0  0  0  0
  185.2580  179.3270  143.6880 N   0  0  0  0  0  2  0  0  0  0  0  0
  185.6400  179.1790  144.9810 O   0  0  0  0  0  0  0  0  0  0  0  0
  184.6670  178.3390  145.5320 C   0  0  0  0  0  2  0  0  0  0  0  0
  184.5890  178.5850  147.0340 C   0  0  0  0  0  2  0  0  0  0  0  0
  186.2470  178.4360  147.7540 S   0  0  0  0  0  0  0  0  0  0  0  0
  186.3330  176.6480  147.4250 C   0  0  0  0  0  2  0  0  0  0  0  0
  187.6920  176.2820  146.8420 C   0  0  0  0  0  2  0  0  0  0  0  0
  188.6200  177.4860  146.9050 C   0  0  0  0  0  1  0  0  0  0  0  0
  1  9  1  0  0  0  0
  2  5  2  0  0  0  0
  3  6  1  0  0  0  0
  4  6  2  0  0  0  0
  4 14  1  0  0  0  0
  5  8  1  0  0  0  0
  7  4  1  0  0  0  0
  8  3  2  0  0  0  0
  8 19  1  0  0  0  0
  9  7  2  0  0  0  0
  9  3  1  0  0  0  0
 10  1  2  0  0  0  0
 10  5  1  0  0  0  0
 11 12  1  0  0  0  0
 12 15  1  0  0  0  0
 13 15  2  0  0  0  0
 14 11  2  0  0  0  0
 14 13  1  0  0  0  0
 15 16  1  0  0  0  0
 16 17  1  0  0  0  0
 17 18  1  0  0  0  0
 19 20  1  0  0  0  0
 20 21  1  0  0  0  0
 21 22  1  0  0  0  0
 22 23  1  0  0  0  0
 23 24  1  0  0  0  0
 25 24  1  0  0  0  0
 26 27  1  0  0  0  0
 26 25  1  0  0  0  0
M  END
>  <MODEL>
4

>  <REMARK>
 VINA RESULT:      -5.5      2.294      4.506
  Name = 
  11 active torsions:
  status: ('A' for Active; 'I' for Inactive)
    1  A    between atoms: C_2  and  C_3
    2  A    between atoms: C_3  and  S_8
    3  A    between atoms: S_8  and  C_27
    4  A    between atoms: C_10  and  C_23
    5  A    between atoms: O_12  and  N_17
    6  A    between atoms: O_12  and  C_18
    7  A    between atoms: C_13  and  C_16
    8  A    between atoms: C_13  and  C_24
    9  A    between atoms: C_14  and  N_17
   10  A    between atoms: C_14  and  C_21
   11  A    between atoms: C_18  and  C_27
                            x       y       z     vdW  Elec       q    Type
                         _______ _______ _______ _____ _____    ______ ____

>  <TORSDO>
F 11

$$$$
=
 OpenBabel11042415113D

 27 29  0  0  1  0  0  0  0  0999 V2000
  189.4490  172.7570  139.6580 C   0  0  0  0  0  3  0  0  0  0  0  0
  190.7920  170.3160  141.8420 O   0  0  0  0  0  0  0  0  0  0  0  0
  189.1270  173.4440  142.0590 C   0  0  0  0  0  0  0  0  0  0  0  0
  188.0120  175.2370  141.8230 C   0  0  0  0  0  0  0  0  0  0  0  0
  190.2290  171.3860  141.4940 C   0  0  0  0  0  0  0  0  0  0  0  0
  188.5050  174.4930  142.7770 N   0  0  0  0  0  0  0  0  0  0  0  0
  188.2640  174.7660  140.4830 N   0  0  0  0  0  0  0  0  0  0  0  0
  189.7440  172.3530  142.5210 C   0  0  0  0  0  0  0  0  0  0  0  0
  188.9390  173.6870  140.6670 C   0  0  0  0  0  0  0  0  0  0  0  0
  190.0550  171.6790  140.0790 N   0  0  0  0  0  0  0  0  0  0  0  0
  187.3500  177.6540  141.4690 C   0  0  0  0  0  3  0  0  0  0  0  0
  186.4090  178.5020  141.9200 N   0  0  0  0  0  0  0  0  0  0  0  0
  186.1280  176.5020  142.9580 C   0  0  0  0  0  3  0  0  0  0  0  0
  187.1970  176.4300  142.0910 C   0  0  1  0  0  3  0  0  0  0  0  0
  185.6820  177.8060  142.8140 C   0  0  0  0  0  0  0  0  0  0  0  0
  184.4900  178.3710  143.5110 C   0  0  0  0  0  2  0  0  0  0  0  0
  184.8520  179.6660  144.2270 C   0  0  0  0  0  2  0  0  0  0  0  0
  186.0300  179.5050  144.9430 F   0  0  0  0  0  0  0  0  0  0  0  0
  189.9030  172.0910  143.9940 C   0  0  0  0  0  2  0  0  0  0  0  0
  190.9540  172.9390  144.5460 N   0  0  0  0  0  2  0  0  0  0  0  0
  190.3700  173.7590  145.4560 O   0  0  0  0  0  0  0  0  0  0  0  0
  191.3330  174.7430  145.6970 C   0  0  0  0  0  2  0  0  0  0  0  0
  190.6390  176.0120  146.1780 C   0  0  0  0  0  2  0  0  0  0  0  0
  190.3190  177.0970  144.7600 S   0  0  0  0  0  0  0  0  0  0  0  0
  188.6590  177.5430  145.3540 C   0  0  0  0  0  2  0  0  0  0  0  0
  188.1530  176.5000  146.3430 C   0  0  0  0  0  2  0  0  0  0  0  0
  186.6710  176.7230  146.6110 C   0  0  0  0  0  1  0  0  0  0  0  0
  1 10  2  0  0  0  0
  1  9  1  0  0  0  0
  3  8  2  0  0  0  0
  3  6  1  0  0  0  0
  4  6  2  0  0  0  0
  5  2  2  0  0  0  0
  5  8  1  0  0  0  0
  7  9  2  0  0  0  0
  7  4  1  0  0  0  0
  8 19  1  0  0  0  0
  9  3  1  0  0  0  0
 10  5  1  0  0  0  0
 11 12  2  0  0  0  0
 11 14  1  0  0  0  0
 12 15  1  0  0  0  0
 14  4  1  6  0  0  0
 14 13  1  0  0  0  0
 15 13  2  0  0  0  0
 15 16  1  0  0  0  0
 16 17  1  0  0  0  0
 17 18  1  0  0  0  0
 19 20  1  0  0  0  0
 20 21  1  0  0  0  0
 21 22  1  0  0  0  0
 22 23  1  0  0  0  0
 24 25  1  0  0  0  0
 24 23  1  0  0  0  0
 25 26  1  0  0  0  0
 26 27  1  0  0  0  0
M  END
>  <MODEL>
5

>  <REMARK>
 VINA RESULT:      -5.3      3.797      7.411
  Name = 
  11 active torsions:
  status: ('A' for Active; 'I' for Inactive)
    1  A    between atoms: C_2  and  C_3
    2  A    between atoms: C_3  and  S_8
    3  A    between atoms: S_8  and  C_27
    4  A    between atoms: C_10  and  C_23
    5  A    between atoms: O_12  and  N_17
    6  A    between atoms: O_12  and  C_18
    7  A    between atoms: C_13  and  C_16
    8  A    between atoms: C_13  and  C_24
    9  A    between atoms: C_14  and  N_17
   10  A    between atoms: C_14  and  C_21
   11  A    between atoms: C_18  and  C_27
                            x       y       z     vdW  Elec       q    Type
                         _______ _______ _______ _____ _____    ______ ____

>  <TORSDO>
F 11

$$$$
=
 OpenBabel11042415113D

 27 29  0  0  0  0  0  0  0  0999 V2000
  188.6190  174.2400  139.4850 C   0  0  0  0  0  3  0  0  0  0  0  0
  190.0580  171.2110  140.6180 O   0  0  0  0  0  0  0  0  0  0  0  0
  188.5840  174.1290  142.0010 C   0  0  0  0  0  0  0  0  0  0  0  0
  187.5430  175.9200  142.4730 C   0  0  0  0  0  0  0  0  0  0  0  0
  189.5160  172.3440  140.6920 C   0  0  0  0  0  0  0  0  0  0  0  0
  188.0940  174.9030  143.0800 N   0  0  0  0  0  0  0  0  0  0  0  0
  187.6290  175.8980  141.0330 N   0  0  0  0  0  0  0  0  0  0  0  0
  189.1900  172.9400  142.0210 C   0  0  0  0  0  0  0  0  0  0  0  0
  188.2650  174.8060  140.7880 C   0  0  0  0  0  0  0  0  0  0  0  0
  189.2110  173.0760  139.4720 N   0  0  0  0  0  0  0  0  0  0  0  0
  186.9310  178.3300  142.9430 C   0  0  0  0  0  3  0  0  0  0  0  0
  186.0980  179.0030  143.7560 N   0  0  0  0  0  2  0  0  0  0  0  0
  185.8900  176.7840  144.1940 C   0  0  0  0  0  3  0  0  0  0  0  0
  186.8220  176.9770  143.1950 C   0  0  0  0  0  0  0  0  0  0  0  0
  185.4790  178.0700  144.5050 C   0  0  0  0  0  0  0  0  0  0  0  0
  184.4220  178.3990  145.5050 C   0  0  0  0  0  2  0  0  0  0  0  0
  185.0310  178.5680  146.8910 C   0  0  0  0  0  2  0  0  0  0  0  0
  185.9510  179.6070  146.8880 F   0  0  0  0  0  0  0  0  0  0  0  0
  189.4900  172.2190  143.3070 C   0  0  0  0  0  2  0  0  0  0  0  0
  190.7850  172.6370  143.8300 N   0  0  0  0  0  2  0  0  0  0  0  0
  190.5470  173.4150  144.9150 O   0  0  0  0  0  0  0  0  0  0  0  0
  191.7750  174.0340  145.1700 C   0  0  0  0  0  2  0  0  0  0  0  0
  191.6850  175.5030  144.7740 C   0  0  0  0  0  2  0  0  0  0  0  0
  191.3190  176.5000  146.2450 S   0  0  0  0  0  0  0  0  0  0  0  0
  189.8340  177.2340  145.4940 C   0  0  0  0  0  2  0  0  0  0  0  0
  188.6520  177.1320  146.4500 C   0  0  0  0  0  2  0  0  0  0  0  0
  188.4640  175.6850  146.8820 C   0  0  0  0  0  1  0  0  0  0  0  0
  1  9  1  0  0  0  0
  2  5  2  0  0  0  0
  3  8  2  0  0  0  0
  3  6  1  0  0  0  0
  4  6  2  0  0  0  0
  4 14  1  0  0  0  0
  5  8  1  0  0  0  0
  7  4  1  0  0  0  0
  8 19  1  0  0  0  0
  9  7  2  0  0  0  0
  9  3  1  0  0  0  0
 10  1  2  0  0  0  0
 10  5  1  0  0  0  0
 11 14  2  0  0  0  0
 11 12  1  0  0  0  0
 12 15  1  0  0  0  0
 13 15  2  0  0  0  0
 14 13  1  0  0  0  0
 15 16  1  0  0  0  0
 16 17  1  0  0  0  0
 18 17  1  0  0  0  0
 19 20  1  0  0  0  0
 20 21  1  0  0  0  0
 21 22  1  0  0  0  0
 23 22  1  0  0  0  0
 23 24  1  0  0  0  0
 25 24  1  0  0  0  0
 25 26  1  0  0  0  0
 26 27  1  0  0  0  0
M  END
>  <MODEL>
6

>  <REMARK>
 VINA RESULT:      -5.2      3.710      7.069
  Name = 
  11 active torsions:
  status: ('A' for Active; 'I' for Inactive)
    1  A    between atoms: C_2  and  C_3
    2  A    between atoms: C_3  and  S_8
    3  A    between atoms: S_8  and  C_27
    4  A    between atoms: C_10  and  C_23
    5  A    between atoms: O_12  and  N_17
    6  A    between atoms: O_12  and  C_18
    7  A    between atoms: C_13  and  C_16
    8  A    between atoms: C_13  and  C_24
    9  A    between atoms: C_14  and  N_17
   10  A    between atoms: C_14  and  C_21
   11  A    between atoms: C_18  and  C_27
                            x       y       z     vdW  Elec       q    Type
                         _______ _______ _______ _____ _____    ______ ____

>  <TORSDO>
F 11

$$$$
=
 OpenBabel11042415113D

 27 29  0  0  1  0  0  0  0  0999 V2000
  186.0000  177.5400  139.8350 C   0  0  0  0  0  3  0  0  0  0  0  0
  188.3510  177.9130  142.4550 O   0  0  0  0  0  0  0  0  0  0  0  0
  184.8680  178.3540  141.9320 C   0  0  0  0  0  0  0  0  0  0  0  0
  182.8350  178.3760  141.3150 C   0  0  0  0  0  0  0  0  0  0  0  0
  187.2340  177.9470  141.8770 C   0  0  0  0  0  0  0  0  0  0  0  0
  183.5540  178.6390  142.3740 N   0  0  0  0  0  0  0  0  0  0  0  0
  183.5780  177.9310  140.1610 N   0  0  0  0  0  0  0  0  0  0  0  0
  186.0140  178.3850  142.6160 C   0  0  0  0  0  0  0  0  0  0  0  0
  184.7970  177.9340  140.5720 C   0  0  0  0  0  0  0  0  0  0  0  0
  187.1370  177.5580  140.4780 N   0  0  0  0  0  0  0  0  0  0  0  0
  180.5500  178.0670  140.2720 C   0  0  0  0  0  3  0  0  0  0  0  0
  179.2640  178.2340  140.6290 N   0  0  0  0  0  0  0  0  0  0  0  0
  180.5790  178.8780  142.3640 C   0  0  0  0  0  3  0  0  0  0  0  0
  181.3680  178.4560  141.3140 C   0  0  1  0  0  3  0  0  0  0  0  0
  179.2900  178.7220  141.8830 C   0  0  0  0  0  0  0  0  0  0  0  0
  178.0550  178.9960  142.6750 C   0  0  0  0  0  2  0  0  0  0  0  0
  178.2360  178.5450  144.1200 C   0  0  0  0  0  2  0  0  0  0  0  0
  178.5140  179.6350  144.9320 F   0  0  0  0  0  0  0  0  0  0  0  0
  186.0690  178.7970  144.0620 C   0  0  0  0  0  2  0  0  0  0  0  0
  185.2220  177.9240  144.8680 N   0  0  0  0  0  2  0  0  0  0  0  0
  185.9670  176.8420  145.2040 O   0  0  0  0  0  0  0  0  0  0  0  0
  185.9040  176.8030  146.6000 C   0  0  0  0  0  2  0  0  0  0  0  0
  187.2560  176.3600  147.1480 C   0  0  0  0  0  2  0  0  0  0  0  0
  188.5800  177.1580  146.1980 S   0  0  0  0  0  0  0  0  0  0  0  0
  189.8680  176.0980  146.9230 C   0  0  0  0  0  2  0  0  0  0  0  0
  189.3760  174.6590  147.0230 C   0  0  0  0  0  2  0  0  0  0  0  0
  189.6930  173.9170  145.7320 C   0  0  0  0  0  1  0  0  0  0  0  0
  1 10  2  0  0  0  0
  1  9  1  0  0  0  0
  3  6  1  0  0  0  0
  3  8  2  0  0  0  0
  4  6  2  0  0  0  0
  5  2  2  0  0  0  0
  5  8  1  0  0  0  0
  7  9  2  0  0  0  0
  7  4  1  0  0  0  0
  8 19  1  0  0  0  0
  9  3  1  0  0  0  0
 10  5  1  0  0  0  0
 11 12  2  0  0  0  0
 11 14  1  0  0  0  0
 12 15  1  0  0  0  0
 14  4  1  1  0  0  0
 14 13  1  0  0  0  0
 15 13  2  0  0  0  0
 15 16  1  0  0  0  0
 16 17  1  0  0  0  0
 17 18  1  0  0  0  0
 19 20  1  0  0  0  0
 20 21  1  0  0  0  0
 21 22  1  0  0  0  0
 22 23  1  0  0  0  0
 24 25  1  0  0  0  0
 24 23  1  0  0  0  0
 25 26  1  0  0  0  0
 27 26  1  0  0  0  0
M  END
>  <MODEL>
7

>  <REMARK>
 VINA RESULT:      -5.2      4.822      8.718
  Name = 
  11 active torsions:
  status: ('A' for Active; 'I' for Inactive)
    1  A    between atoms: C_2  and  C_3
    2  A    between atoms: C_3  and  S_8
    3  A    between atoms: S_8  and  C_27
    4  A    between atoms: C_10  and  C_23
    5  A    between atoms: O_12  and  N_17
    6  A    between atoms: O_12  and  C_18
    7  A    between atoms: C_13  and  C_16
    8  A    between atoms: C_13  and  C_24
    9  A    between atoms: C_14  and  N_17
   10  A    between atoms: C_14  and  C_21
   11  A    between atoms: C_18  and  C_27
                            x       y       z     vdW  Elec       q    Type
                         _______ _______ _______ _____ _____    ______ ____

>  <TORSDO>
F 11

$$$$
=
 OpenBabel11042415113D

 27 29  0  0  0  0  0  0  0  0999 V2000
  193.7920  176.4550  146.7240 C   0  0  0  0  0  3  0  0  0  0  0  0
  195.6810  176.1500  143.7460 O   0  0  0  0  0  0  0  0  0  0  0  0
  192.2710  176.2770  144.7240 C   0  0  0  0  0  0  0  0  0  0  0  0
  190.3680  176.5190  145.6370 C   0  0  0  0  0  0  0  0  0  0  0  0
  194.6590  176.2170  144.4770 C   0  0  0  0  0  0  0  0  0  0  0  0
  190.8840  176.3310  144.4510 N   0  0  0  0  0  0  0  0  0  0  0  0
  191.3210  176.5920  146.7180 N   0  0  0  0  0  0  0  0  0  0  0  0
  193.2950  176.1610  143.8750 C   0  0  0  0  0  0  0  0  0  0  0  0
  192.4540  176.4390  146.1280 C   0  0  0  0  0  0  0  0  0  0  0  0
  194.8140  176.3470  145.9180 N   0  0  0  0  0  0  0  0  0  0  0  0
  188.1650  176.0490  146.7900 C   0  0  0  0  0  3  0  0  0  0  0  0
  186.9020  176.5080  146.7440 N   0  0  0  0  0  2  0  0  0  0  0  0
  188.1280  177.6260  145.1930 C   0  0  0  0  0  3  0  0  0  0  0  0
  188.9280  176.7150  145.8520 C   0  0  0  0  0  0  0  0  0  0  0  0
  186.8870  177.4510  145.7830 C   0  0  0  0  0  0  0  0  0  0  0  0
  185.6750  178.2560  145.4510 C   0  0  0  0  0  2  0  0  0  0  0  0
  185.0920  178.8900  146.7080 C   0  0  0  0  0  2  0  0  0  0  0  0
  186.1010  179.4710  147.4640 F   0  0  0  0  0  0  0  0  0  0  0  0
  193.0890  176.0270  142.3910 C   0  0  0  0  0  2  0  0  0  0  0  0
  192.7940  174.6400  142.0460 N   0  0  0  0  0  2  0  0  0  0  0  0
  191.5240  174.6070  141.5710 O   0  0  0  0  0  0  0  0  0  0  0  0
  190.9780  173.4490  142.1340 C   0  0  0  0  0  2  0  0  0  0  0  0
  189.5090  173.6960  142.4550 C   0  0  0  0  0  2  0  0  0  0  0  0
  188.9340  175.1600  141.5510 S   0  0  0  0  0  0  0  0  0  0  0  0
  187.3500  175.2070  142.4440 C   0  0  0  0  0  2  0  0  0  0  0  0
  186.6240  176.5170  142.1660 C   0  0  0  0  0  2  0  0  0  0  0  0
  187.4520  177.3720  141.2170 C   0  0  0  0  0  1  0  0  0  0  0  0
  2  5  2  0  0  0  0
  3  9  1  0  0  0  0
  4 14  1  0  0  0  0
  4  7  1  0  0  0  0
  5 10  1  0  0  0  0
  6  3  1  0  0  0  0
  6  4  2  0  0  0  0
  8  5  1  0  0  0  0
  8  3  2  0  0  0  0
  9  7  2  0  0  0  0
  9  1  1  0  0  0  0
 10  1  2  0  0  0  0
 12 11  1  0  0  0  0
 13 15  2  0  0  0  0
 13 14  1  0  0  0  0
 14 11  2  0  0  0  0
 15 12  1  0  0  0  0
 16 15  1  0  0  0  0
 16 17  1  0  0  0  0
 17 18  1  0  0  0  0
 19  8  1  0  0  0  0
 20 19  1  0  0  0  0
 21 20  1  0  0  0  0
 21 22  1  0  0  0  0
 22 23  1  0  0  0  0
 24 25  1  0  0  0  0
 24 23  1  0  0  0  0
 26 25  1  0  0  0  0
 27 26  1  0  0  0  0
M  END
>  <MODEL>
8

>  <REMARK>
 VINA RESULT:      -5.1      3.187      6.645
  Name = 
  11 active torsions:
  status: ('A' for Active; 'I' for Inactive)
    1  A    between atoms: C_2  and  C_3
    2  A    between atoms: C_3  and  S_8
    3  A    between atoms: S_8  and  C_27
    4  A    between atoms: C_10  and  C_23
    5  A    between atoms: O_12  and  N_17
    6  A    between atoms: O_12  and  C_18
    7  A    between atoms: C_13  and  C_16
    8  A    between atoms: C_13  and  C_24
    9  A    between atoms: C_14  and  N_17
   10  A    between atoms: C_14  and  C_21
   11  A    between atoms: C_18  and  C_27
                            x       y       z     vdW  Elec       q    Type
                         _______ _______ _______ _____ _____    ______ ____

>  <TORSDO>
F 11

$$$$
=
 OpenBabel11042415113D

 27 29  0  0  0  0  0  0  0  0999 V2000
  188.4380  174.7830  140.5600 C   0  0  0  0  0  3  0  0  0  0  0  0
  186.2610  177.4340  139.6860 O   0  0  0  0  0  0  0  0  0  0  0  0
  188.5110  176.6010  142.3020 C   0  0  0  0  0  0  0  0  0  0  0  0
  190.0140  175.8540  143.6060 C   0  0  0  0  0  0  0  0  0  0  0  0
  187.0930  176.7860  140.3730 C   0  0  0  0  0  0  0  0  0  0  0  0
  189.2230  176.8880  143.4900 N   0  0  0  0  0  0  0  0  0  0  0  0
  189.8850  174.8620  142.5660 N   0  0  0  0  0  0  0  0  0  0  0  0
  187.6050  177.3410  141.6590 C   0  0  0  0  0  0  0  0  0  0  0  0
  188.9700  175.3470  141.8020 C   0  0  0  0  0  0  0  0  0  0  0  0
  187.5520  175.4860  139.9070 N   0  0  0  0  0  0  0  0  0  0  0  0
  191.0400  174.7490  145.6380 C   0  0  0  0  0  3  0  0  0  0  0  0
  192.1170  174.9220  146.4240 N   0  0  0  0  0  2  0  0  0  0  0  0
  192.1090  176.5600  144.8510 C   0  0  0  0  0  3  0  0  0  0  0  0
  191.0150  175.7380  144.6740 C   0  0  0  0  0  0  0  0  0  0  0  0
  192.7510  176.0100  145.9490 C   0  0  0  0  0  0  0  0  0  0  0  0
  194.0390  176.5130  146.5110 C   0  0  0  0  0  2  0  0  0  0  0  0
  194.8620  177.2020  145.4300 C   0  0  0  0  0  2  0  0  0  0  0  0
  195.6810  176.2810  144.7900 F   0  0  0  0  0  0  0  0  0  0  0  0
  187.1570  178.6800  142.1790 C   0  0  0  0  0  2  0  0  0  0  0  0
  185.8640  178.5570  142.8440 N   0  0  0  0  0  2  0  0  0  0  0  0
  185.6960  179.6680  143.6020 O   0  0  0  0  0  0  0  0  0  0  0  0
  184.5440  179.4030  144.3480 C   0  0  0  0  0  2  0  0  0  0  0  0
  184.7590  178.1330  145.1630 C   0  0  0  0  0  2  0  0  0  0  0  0
  184.4440  178.4830  146.9150 S   0  0  0  0  0  0  0  0  0  0  0  0
  186.0880  177.8940  147.4260 C   0  0  0  0  0  2  0  0  0  0  0  0
  186.5670  176.7870  146.4950 C   0  0  0  0  0  2  0  0  0  0  0  0
  187.9790  176.3680  146.8780 C   0  0  0  0  0  1  0  0  0  0  0  0
  1  9  1  0  0  0  0
  2  5  2  0  0  0  0
  3  6  1  0  0  0  0
  4 14  1  0  0  0  0
  5  8  1  0  0  0  0
  6  4  2  0  0  0  0
  7  4  1  0  0  0  0
  8 19  1  0  0  0  0
  8  3  2  0  0  0  0
  9  3  1  0  0  0  0
  9  7  2  0  0  0  0
 10  5  1  0  0  0  0
 10  1  2  0  0  0  0
 11 12  1  0  0  0  0
 13 15  2  0  0  0  0
 14 13  1  0  0  0  0
 14 11  2  0  0  0  0
 15 12  1  0  0  0  0
 15 16  1  0  0  0  0
 17 16  1  0  0  0  0
 18 17  1  0  0  0  0
 19 20  1  0  0  0  0
 20 21  1  0  0  0  0
 21 22  1  0  0  0  0
 22 23  1  0  0  0  0
 23 24  1  0  0  0  0
 24 25  1  0  0  0  0
 26 27  1  0  0  0  0
 26 25  1  0  0  0  0
M  END
>  <MODEL>
9

>  <REMARK>
 VINA RESULT:      -5.1      2.290      4.426
  Name = 
  11 active torsions:
  status: ('A' for Active; 'I' for Inactive)
    1  A    between atoms: C_2  and  C_3
    2  A    between atoms: C_3  and  S_8
    3  A    between atoms: S_8  and  C_27
    4  A    between atoms: C_10  and  C_23
    5  A    between atoms: O_12  and  N_17
    6  A    between atoms: O_12  and  C_18
    7  A    between atoms: C_13  and  C_16
    8  A    between atoms: C_13  and  C_24
    9  A    between atoms: C_14  and  N_17
   10  A    between atoms: C_14  and  C_21
   11  A    between atoms: C_18  and  C_27
                            x       y       z     vdW  Elec       q    Type
                         _______ _______ _______ _____ _____    ______ ____

>  <TORSDO>
F 11

$$$$
