=
 OpenBabel11042419483D

 50 56  0  0  1  0  0  0  0  0999 V2000
  192.4270  175.9960  146.4510 C   0  0  0  0  0  0  0  0  0  0  0  0
  193.5120  176.2550  143.8820 C   0  0  0  0  0  0  0  0  0  0  0  0
  195.4810  176.0400  142.4080 C   0  0  2  0  0  3  0  0  0  0  0  0
  192.3690  175.2440  143.9920 C   0  0  1  0  0  3  0  0  0  0  0  0
  193.9340  176.9970  144.9290 C   0  0  0  0  0  3  0  0  0  0  0  0
  195.9610  176.7200  141.1300 C   0  0  0  0  0  1  0  0  0  0  0  0
  193.3550  176.8730  146.2410 N   0  0  0  0  0  0  0  0  0  0  0  0
  191.7070  175.8290  147.6550 N   0  0  0  0  0  0  0  0  0  0  0  0
  192.8150  173.8760  143.4300 C   0  0  2  0  0  3  0  0  0  0  0  0
  193.0870  173.9980  141.9300 C   0  0  0  0  0  2  0  0  0  0  0  0
  190.8400  174.5450  145.9390 C   0  0  0  0  0  3  0  0  0  0  0  0
  195.6680  174.4780  142.3820 C   0  0  1  0  0  0  0  0  0  0  0  0
  194.6460  174.2060  140.1620 O   0  0  0  0  0  1  0  0  0  0  0  0
  190.7770  174.9690  147.3560 C   0  0  0  0  0  3  0  0  0  0  0  0
  191.8870  175.1700  145.4220 C   0  0  0  0  0  0  0  0  0  0  0  0
  194.1300  176.4270  142.6440 O   0  0  0  0  0  0  0  0  0  0  0  0
  194.5510  173.8070  141.4980 C   0  0  2  0  0  3  0  0  0  0  0  0
  197.3850  172.6520  141.8920 C   0  0  0  0  0  2  0  0  0  0  0  0
  197.1220  174.1500  141.8770 C   0  0  0  0  0  3  0  0  0  0  0  0
  197.2600  173.3770  140.5720 C   0  0  0  0  0  2  0  0  0  0  0  0
  191.7770  172.7850  143.6360 C   0  0  0  0  0  2  0  0  0  0  0  0
  189.4380  173.2150  142.8490 C   0  0  1  0  0  3  0  0  0  0  0  0
  189.7790  171.7500  142.7320 C   0  0  1  0  0  3  0  0  0  0  0  0
  190.8210  171.5300  141.8120 O   0  0  0  0  0  0  0  0  0  0  0  0
  190.8280  172.7780  142.4590 C   0  0  2  0  0  0  0  0  0  0  0  0
  188.7210  173.7140  141.6060 C   0  0  1  0  0  3  0  0  0  0  0  0
  187.6240  172.8950  141.3250 O   0  0  0  0  0  1  0  0  0  0  0  0
  188.2730  175.1210  141.8230 C   0  0  0  0  0  0  0  0  0  0  0  0
  187.9410  175.8230  140.8290 O   0  0  0  0  0  0  0  0  0  0  0  0
  188.2820  175.6830  143.1380 N   0  0  0  0  0  2  0  0  0  0  0  0
  186.2840  176.9890  147.3980 C   0  0  0  0  0  1  0  0  0  0  0  0
  186.4900  177.2970  143.5900 C   0  0  0  0  0  2  0  0  0  0  0  0
  188.1260  177.5610  145.9080 N   0  0  0  0  0  2  0  0  0  0  0  0
  186.0160  176.7570  144.9340 C   0  0  0  0  0  2  0  0  0  0  0  0
  186.6710  177.5620  146.0480 C   0  0  1  0  0  3  0  0  0  0  0  0
  189.9920  177.7640  144.5330 O   0  0  0  0  0  0  0  0  0  0  0  0
  187.9970  177.0850  143.4080 C   0  0  1  0  0  3  0  0  0  0  0  0
  188.7610  177.5200  144.6260 C   0  0  0  0  0  0  0  0  0  0  0  0
  195.5320  173.9250  143.6900 O   0  0  0  0  0  0  0  0  0  0  0  0
  196.2670  174.6430  144.6560 C   0  0  2  0  0  3  0  0  0  0  0  0
  197.6060  174.6540  144.3200 F   0  0  0  0  0  0  0  0  0  0  0  0
  196.1000  173.9600  146.0000 C   0  0  0  0  0  2  0  0  0  0  0  0
  196.1110  172.4730  145.8640 C   0  0  0  0  0  0  0  0  0  0  0  0
  197.1780  171.8810  145.8080 O   0  0  0  0  0  0  0  0  0  0  0  0
  194.8310  171.7040  145.8130 C   0  0  0  0  0  2  0  0  0  0  0  0
  195.0440  170.3930  145.2150 N   0  0  0  0  0  2  0  0  0  0  0  0
  194.4670  169.1980  145.7420 C   0  0  0  0  0  0  0  0  0  0  0  0
  194.6910  168.8840  147.0120 C   0  0  0  0  0  2  0  0  0  0  0  0
  193.6560  168.3620  144.9080 N   0  0  0  0  0  2  0  0  0  0  0  0
  192.8550  168.8640  143.8030 C   0  0  0  0  0  1  0  0  0  0  0  0
  1  8  1  0  0  0  0
  2  5  2  0  0  0  0
  3  6  1  6  0  0  0
  3 16  1  0  0  0  0
  4  2  1  1  0  0  0
  4 15  1  0  0  0  0
  5  7  1  0  0  0  0
  7  1  2  0  0  0  0
  9 21  1  6  0  0  0
  9  4  1  0  0  0  0
 10  9  1  0  0  0  0
 11 14  1  0  0  0  0
 12  3  1  0  0  0  0
 12 39  1  1  0  0  0
 14  8  2  0  0  0  0
 15 11  2  0  0  0  0
 15  1  1  0  0  0  0
 16  2  1  0  0  0  0
 17 13  1  6  0  0  0
 17 10  1  0  0  0  0
 17 12  1  0  0  0  0
 19 18  1  0  0  0  0
 19 12  1  0  0  0  0
 20 19  1  0  0  0  0
 20 18  1  0  0  0  0
 22 26  1  6  0  0  0
 23 24  1  6  0  0  0
 23 22  1  0  0  0  0
 24 25  1  0  0  0  0
 25 23  1  0  0  0  0
 25 22  1  0  0  0  0
 25 21  1  1  0  0  0
 26 27  1  1  0  0  0
 26 28  1  0  0  0  0
 28 30  1  0  0  0  0
 29 28  2  0  0  0  0
 32 34  1  0  0  0  0
 33 35  1  0  0  0  0
 34 35  1  0  0  0  0
 35 31  1  1  0  0  0
 36 38  2  0  0  0  0
 37 30  1  1  0  0  0
 37 32  1  0  0  0  0
 37 38  1  0  0  0  0
 38 33  1  0  0  0  0
 39 40  1  0  0  0  0
 40 41  1  6  0  0  0
 40 42  1  0  0  0  0
 43 42  1  0  0  0  0
 44 43  2  0  0  0  0
 45 43  1  0  0  0  0
 46 47  1  0  0  0  0
 46 45  1  0  0  0  0
 47 48  2  0  0  0  0
 49 47  1  0  0  0  0
 50 49  1  0  0  0  0
M  END
>  <MODEL>
1

>  <REMARK>
 VINA RESULT:      -6.9      0.000      0.000
  Name = 
  14 active torsions:
  status: ('A' for Active; 'I' for Inactive)
    1  A    between atoms: C_3  and  N_8
    2  A    between atoms: C_3  and  N_13
    3  A    between atoms: C_4  and  C_11
    4  A    between atoms: C_4  and  C_36
    5  A    between atoms: C_5  and  C_17
    6  A    between atoms: C_5  and  C_35
    7  A    between atoms: N_8  and  C_17
    8  A    between atoms: C_14  and  C_39
    9  A    between atoms: C_15  and  C_35
   10  A    between atoms: C_15  and  O_37
   11  A    between atoms: C_28  and  C_30
   12  A    between atoms: C_29  and  N_48
   13  A    between atoms: C_30  and  C_49
   14  A    between atoms: O_37  and  C_39
                            x       y       z     vdW  Elec       q    Type
                         _______ _______ _______ _____ _____    ______ ____

>  <TORSDO>
F 14

$$$$
=
 OpenBabel11042419483D

 50 56  0  0  1  0  0  0  0  0999 V2000
  188.3990  177.3040  141.9090 C   0  0  0  0  0  0  0  0  0  0  0  0
  190.9240  176.8860  143.0460 C   0  0  0  0  0  0  0  0  0  0  0  0
  192.3150  176.7910  145.0840 C   0  0  2  0  0  3  0  0  0  0  0  0
  190.3520  175.6770  142.3030 C   0  0  1  0  0  3  0  0  0  0  0  0
  190.2840  178.0740  143.1100 C   0  0  0  0  0  3  0  0  0  0  0  0
  193.7850  177.0360  145.4080 C   0  0  0  0  0  1  0  0  0  0  0  0
  188.9960  178.2860  142.5040 N   0  0  0  0  0  0  0  0  0  0  0  0
  187.1840  177.3880  141.1930 N   0  0  0  0  0  0  0  0  0  0  0  0
  190.3560  174.4380  143.2240 C   0  0  2  0  0  3  0  0  0  0  0  0
  191.7960  174.0470  143.5590 C   0  0  0  0  0  2  0  0  0  0  0  0
  188.1960  175.3250  140.9460 C   0  0  0  0  0  3  0  0  0  0  0  0
  191.7340  175.5090  145.7850 C   0  0  1  0  0  0  0  0  0  0  0  0
  193.5970  174.0610  145.0930 O   0  0  0  0  0  1  0  0  0  0  0  0
  187.0600  176.2210  140.6320 C   0  0  0  0  0  3  0  0  0  0  0  0
  188.9820  176.0110  141.7610 C   0  0  0  0  0  0  0  0  0  0  0  0
  192.1660  176.7580  143.6670 O   0  0  0  0  0  0  0  0  0  0  0  0
  192.2090  174.2110  145.0320 C   0  0  2  0  0  3  0  0  0  0  0  0
  192.9410  176.7840  147.6390 C   0  0  0  0  0  2  0  0  0  0  0  0
  192.1600  175.5230  147.3000 C   0  0  0  0  0  3  0  0  0  0  0  0
  191.5480  176.5910  148.1960 C   0  0  0  0  0  2  0  0  0  0  0  0
  189.6710  173.2340  142.5990 C   0  0  0  0  0  2  0  0  0  0  0  0
  190.6220  172.6070  140.3680 C   0  0  1  0  0  3  0  0  0  0  0  0
  189.9650  171.4160  141.0220 C   0  0  1  0  0  3  0  0  0  0  0  0
  190.6190  171.0500  142.2130 O   0  0  0  0  0  0  0  0  0  0  0  0
  190.7000  172.4080  141.8620 C   0  0  2  0  0  0  0  0  0  0  0  0
  191.9620  172.2300  139.7590 C   0  0  1  0  0  3  0  0  0  0  0  0
  191.7650  171.5010  138.5830 O   0  0  0  0  0  1  0  0  0  0  0  0
  192.7420  173.4690  139.4740 C   0  0  0  0  0  0  0  0  0  0  0  0
  192.4460  174.1660  138.4640 O   0  0  0  0  0  0  0  0  0  0  0  0
  193.8540  173.8250  140.3000 N   0  0  0  0  0  2  0  0  0  0  0  0
  197.3260  175.0920  143.4920 C   0  0  0  0  0  1  0  0  0  0  0  0
  194.5640  176.0590  141.0280 C   0  0  0  0  0  2  0  0  0  0  0  0
  197.0080  174.5980  141.1260 N   0  0  0  0  0  2  0  0  0  0  0  0
  195.1860  175.6860  142.3680 C   0  0  0  0  0  2  0  0  0  0  0  0
  196.6910  175.5470  142.1920 C   0  0  1  0  0  3  0  0  0  0  0  0
  196.5860  173.8020  138.9810 O   0  0  0  0  0  0  0  0  0  0  0  0
  194.7470  174.9360  140.0010 C   0  0  1  0  0  3  0  0  0  0  0  0
  196.1650  174.4400  139.9810 C   0  0  0  0  0  0  0  0  0  0  0  0
  190.3080  175.5020  145.7380 O   0  0  0  0  0  0  0  0  0  0  0  0
  189.7440  174.6180  146.6800 C   0  0  2  0  0  3  0  0  0  0  0  0
  189.3880  173.4340  146.0640 F   0  0  0  0  0  0  0  0  0  0  0  0
  188.5020  175.2610  147.2670 C   0  0  0  0  0  2  0  0  0  0  0  0
  187.9430  176.3060  146.3580 C   0  0  0  0  0  0  0  0  0  0  0  0
  187.7650  176.0440  145.1790 O   0  0  0  0  0  0  0  0  0  0  0  0
  187.5870  177.6590  146.8820 C   0  0  0  0  0  2  0  0  0  0  0  0
  186.1400  177.8150  146.9520 N   0  0  0  0  0  2  0  0  0  0  0  0
  185.3910  178.5380  145.9750 C   0  0  0  0  0  0  0  0  0  0  0  0
  184.0780  178.6550  146.1320 C   0  0  0  0  0  2  0  0  0  0  0  0
  186.0540  179.1310  144.8520 N   0  0  0  0  0  2  0  0  0  0  0  0
  185.3970  179.4060  143.5840 C   0  0  0  0  0  1  0  0  0  0  0  0
  1  7  2  0  0  0  0
  2  5  2  0  0  0  0
  2 16  1  0  0  0  0
  3  6  1  6  0  0  0
  3 12  1  0  0  0  0
  4 15  1  1  0  0  0
  4  2  1  0  0  0  0
  4  9  1  0  0  0  0
  7  5  1  0  0  0  0
  8  1  1  0  0  0  0
  9 21  1  6  0  0  0
  9 10  1  0  0  0  0
 10 17  1  0  0  0  0
 11 15  2  0  0  0  0
 12 39  1  6  0  0  0
 12 19  1  0  0  0  0
 14 11  1  0  0  0  0
 14  8  2  0  0  0  0
 15  1  1  0  0  0  0
 16  3  1  0  0  0  0
 17 13  1  6  0  0  0
 17 12  1  0  0  0  0
 18 20  1  0  0  0  0
 19 18  1  0  0  0  0
 19 20  1  0  0  0  0
 22 26  1  6  0  0  0
 22 23  1  0  0  0  0
 22 25  1  0  0  0  0
 23 25  1  0  0  0  0
 23 24  1  6  0  0  0
 25 24  1  0  0  0  0
 25 21  1  1  0  0  0
 26 27  1  6  0  0  0
 28 26  1  0  0  0  0
 28 30  1  0  0  0  0
 29 28  2  0  0  0  0
 32 34  1  0  0  0  0
 33 35  1  0  0  0  0
 35 34  1  0  0  0  0
 35 31  1  1  0  0  0
 36 38  2  0  0  0  0
 37 30  1  1  0  0  0
 37 32  1  0  0  0  0
 38 37  1  0  0  0  0
 38 33  1  0  0  0  0
 39 40  1  0  0  0  0
 40 41  1  6  0  0  0
 40 42  1  0  0  0  0
 43 45  1  0  0  0  0
 43 42  1  0  0  0  0
 44 43  2  0  0  0  0
 45 46  1  0  0  0  0
 47 48  2  0  0  0  0
 47 46  1  0  0  0  0
 49 47  1  0  0  0  0
 50 49  1  0  0  0  0
M  END
>  <MODEL>
2

>  <REMARK>
 VINA RESULT:      -6.7      3.199      7.645
  Name = 
  14 active torsions:
  status: ('A' for Active; 'I' for Inactive)
    1  A    between atoms: C_3  and  N_8
    2  A    between atoms: C_3  and  N_13
    3  A    between atoms: C_4  and  C_11
    4  A    between atoms: C_4  and  C_36
    5  A    between atoms: C_5  and  C_17
    6  A    between atoms: C_5  and  C_35
    7  A    between atoms: N_8  and  C_17
    8  A    between atoms: C_14  and  C_39
    9  A    between atoms: C_15  and  C_35
   10  A    between atoms: C_15  and  O_37
   11  A    between atoms: C_28  and  C_30
   12  A    between atoms: C_29  and  N_48
   13  A    between atoms: C_30  and  C_49
   14  A    between atoms: O_37  and  C_39
                            x       y       z     vdW  Elec       q    Type
                         _______ _______ _______ _____ _____    ______ ____

>  <TORSDO>
F 14

$$$$
=
 OpenBabel11042419483D

 50 56  0  0  1  0  0  0  0  0999 V2000
  190.7960  171.9340  142.8380 C   0  0  0  0  0  0  0  0  0  0  0  0
  193.5620  171.9440  143.2810 C   0  0  0  0  0  0  0  0  0  0  0  0
  195.7800  172.8320  142.6610 C   0  0  2  0  0  3  0  0  0  0  0  0
  192.7230  172.4020  144.4770 C   0  0  1  0  0  3  0  0  0  0  0  0
  193.0120  171.5250  142.1210 C   0  0  0  0  0  3  0  0  0  0  0  0
  197.2120  172.3110  142.7130 C   0  0  0  0  0  1  0  0  0  0  0  0
  191.5880  171.5020  141.9100 N   0  0  0  0  0  0  0  0  0  0  0  0
  189.3850  171.8850  142.8080 N   0  0  0  0  0  0  0  0  0  0  0  0
  193.2090  173.7840  144.9670 C   0  0  2  0  0  3  0  0  0  0  0  0
  194.6340  173.6680  145.5090 C   0  0  0  0  0  2  0  0  0  0  0  0
  190.1860  172.5610  144.8680 C   0  0  0  0  0  3  0  0  0  0  0  0
  195.6500  174.3260  143.1360 C   0  0  1  0  0  0  0  0  0  0  0  0
  196.9580  173.9800  145.1890 O   0  0  0  0  0  1  0  0  0  0  0  0
  189.0250  172.2600  144.0000 C   0  0  0  0  0  3  0  0  0  0  0  0
  191.2580  172.3830  144.1110 C   0  0  0  0  0  0  0  0  0  0  0  0
  194.9500  171.9450  143.4050 O   0  0  0  0  0  0  0  0  0  0  0  0
  195.7180  174.4080  144.7070 C   0  0  2  0  0  3  0  0  0  0  0  0
  196.8030  176.5990  142.9830 C   0  0  0  0  0  2  0  0  0  0  0  0
  196.7690  175.1810  142.4330 C   0  0  0  0  0  3  0  0  0  0  0  0
  197.9400  175.6500  143.2860 C   0  0  0  0  0  2  0  0  0  0  0  0
  192.3300  174.3650  146.0620 C   0  0  0  0  0  2  0  0  0  0  0  0
  192.4230  176.1520  144.3090 C   0  0  1  0  0  3  0  0  0  0  0  0
  192.9300  176.6750  145.6300 C   0  0  1  0  0  3  0  0  0  0  0  0
  191.9210  176.6780  146.6100 O   0  0  0  0  0  0  0  0  0  0  0  0
  191.7950  175.7040  145.6050 C   0  0  2  0  0  0  0  0  0  0  0  0
  191.4930  177.1520  143.6420 C   0  0  1  0  0  3  0  0  0  0  0  0
  192.0490  177.5920  142.4370 O   0  0  0  0  0  1  0  0  0  0  0  0
  190.1690  176.5110  143.3960 C   0  0  0  0  0  0  0  0  0  0  0  0
  190.0990  175.5180  142.6210 O   0  0  0  0  0  0  0  0  0  0  0  0
  188.9850  177.0590  143.9820 N   0  0  0  0  0  2  0  0  0  0  0  0
  185.1760  180.1030  144.2370 C   0  0  0  0  0  1  0  0  0  0  0  0
  186.7440  176.6790  144.9090 C   0  0  0  0  0  2  0  0  0  0  0  0
  186.2020  178.4630  142.7550 N   0  0  0  0  0  2  0  0  0  0  0  0
  186.3530  178.1260  145.1860 C   0  0  0  0  0  2  0  0  0  0  0  0
  185.5070  178.6380  144.0290 C   0  0  1  0  0  3  0  0  0  0  0  0
  187.4740  177.1110  141.3520 O   0  0  0  0  0  0  0  0  0  0  0  0
  187.6460  176.5760  143.6740 C   0  0  1  0  0  3  0  0  0  0  0  0
  187.0890  177.3640  142.5230 C   0  0  0  0  0  0  0  0  0  0  0  0
  194.3880  174.8740  142.7590 O   0  0  0  0  0  0  0  0  0  0  0  0
  194.3100  175.1410  141.3770 C   0  0  2  0  0  3  0  0  0  0  0  0
  194.3770  176.5020  141.1520 F   0  0  0  0  0  0  0  0  0  0  0  0
  192.9830  174.6200  140.8550 C   0  0  0  0  0  2  0  0  0  0  0  0
  193.1220  174.0420  139.4850 C   0  0  0  0  0  0  0  0  0  0  0  0
  194.2210  174.0100  138.9540 O   0  0  0  0  0  0  0  0  0  0  0  0
  191.9330  173.4890  138.7690 C   0  0  0  0  0  2  0  0  0  0  0  0
  190.7310  173.6440  139.5780 N   0  0  0  0  0  2  0  0  0  0  0  0
  189.4270  173.3190  139.0980 C   0  0  0  0  0  0  0  0  0  0  0  0
  189.1910  172.0850  138.6690 C   0  0  0  0  0  2  0  0  0  0  0  0
  188.3940  174.3110  139.0900 N   0  0  0  0  0  2  0  0  0  0  0  0
  187.7240  174.7650  137.8810 C   0  0  0  0  0  1  0  0  0  0  0  0
  1 15  1  0  0  0  0
  2 16  1  0  0  0  0
  3  6  1  1  0  0  0
  3 12  1  0  0  0  0
  3 16  1  0  0  0  0
  4  2  1  6  0  0  0
  4  9  1  0  0  0  0
  5  2  2  0  0  0  0
  7  5  1  0  0  0  0
  7  1  2  0  0  0  0
  8  1  1  0  0  0  0
  8 14  2  0  0  0  0
  9 10  1  0  0  0  0
  9 21  1  1  0  0  0
 12 39  1  6  0  0  0
 12 17  1  0  0  0  0
 14 11  1  0  0  0  0
 15  4  1  0  0  0  0
 15 11  2  0  0  0  0
 17 13  1  1  0  0  0
 17 10  1  0  0  0  0
 18 20  1  0  0  0  0
 19 18  1  0  0  0  0
 19 12  1  0  0  0  0
 19 20  1  0  0  0  0
 22 26  1  6  0  0  0
 22 25  1  0  0  0  0
 22 23  1  0  0  0  0
 23 24  1  6  0  0  0
 25 23  1  0  0  0  0
 25 21  1  1  0  0  0
 25 24  1  0  0  0  0
 26 27  1  6  0  0  0
 28 26  1  0  0  0  0
 28 30  1  0  0  0  0
 29 28  2  0  0  0  0
 32 34  1  0  0  0  0
 33 35  1  0  0  0  0
 35 31  1  1  0  0  0
 35 34  1  0  0  0  0
 36 38  2  0  0  0  0
 37 30  1  1  0  0  0
 37 32  1  0  0  0  0
 38 33  1  0  0  0  0
 38 37  1  0  0  0  0
 40 41  1  1  0  0  0
 40 39  1  0  0  0  0
 42 40  1  0  0  0  0
 43 42  1  0  0  0  0
 44 43  2  0  0  0  0
 45 43  1  0  0  0  0
 45 46  1  0  0  0  0
 47 46  1  0  0  0  0
 48 47  2  0  0  0  0
 49 47  1  0  0  0  0
 50 49  1  0  0  0  0
M  END
>  <MODEL>
3

>  <REMARK>
 VINA RESULT:      -6.5      2.455      5.251
  Name = 
  14 active torsions:
  status: ('A' for Active; 'I' for Inactive)
    1  A    between atoms: C_3  and  N_8
    2  A    between atoms: C_3  and  N_13
    3  A    between atoms: C_4  and  C_11
    4  A    between atoms: C_4  and  C_36
    5  A    between atoms: C_5  and  C_17
    6  A    between atoms: C_5  and  C_35
    7  A    between atoms: N_8  and  C_17
    8  A    between atoms: C_14  and  C_39
    9  A    between atoms: C_15  and  C_35
   10  A    between atoms: C_15  and  O_37
   11  A    between atoms: C_28  and  C_30
   12  A    between atoms: C_29  and  N_48
   13  A    between atoms: C_30  and  C_49
   14  A    between atoms: O_37  and  C_39
                            x       y       z     vdW  Elec       q    Type
                         _______ _______ _______ _____ _____    ______ ____

>  <TORSDO>
F 14

$$$$
=
 OpenBabel11042419483D

 50 56  0  0  1  0  0  0  0  0999 V2000
  192.7830  175.9280  146.4870 C   0  0  0  0  0  0  0  0  0  0  0  0
  191.8560  173.9190  144.7700 C   0  0  0  0  0  0  0  0  0  0  0  0
  189.9850  172.9810  143.4610 C   0  0  2  0  0  3  0  0  0  0  0  0
  193.0020  174.7600  144.2050 C   0  0  1  0  0  3  0  0  0  0  0  0
  191.3610  174.0990  146.0140 C   0  0  0  0  0  3  0  0  0  0  0  0
  189.5760  171.5870  142.9940 C   0  0  0  0  0  1  0  0  0  0  0  0
  191.8590  175.1210  146.8980 N   0  0  0  0  0  0  0  0  0  0  0  0
  193.4300  176.9100  147.2700 N   0  0  0  0  0  0  0  0  0  0  0  0
  192.6090  175.3350  142.8270 C   0  0  2  0  0  3  0  0  0  0  0  0
  192.4280  174.1960  141.8240 C   0  0  0  0  0  2  0  0  0  0  0  0
  194.4170  176.6670  145.1940 C   0  0  0  0  0  3  0  0  0  0  0  0
  189.8180  174.0770  142.3450 C   0  0  1  0  0  0  0  0  0  0  0  0
  190.9780  172.7640  140.6210 O   0  0  0  0  0  1  0  0  0  0  0  0
  194.3860  177.3500  146.5070 C   0  0  0  0  0  3  0  0  0  0  0  0
  193.3960  175.8240  145.2030 C   0  0  0  0  0  0  0  0  0  0  0  0
  191.3140  172.9130  143.9710 O   0  0  0  0  0  0  0  0  0  0  0  0
  190.9950  173.9820  141.3040 C   0  0  2  0  0  3  0  0  0  0  0  0
  188.1880  174.9420  140.5800 C   0  0  0  0  0  2  0  0  0  0  0  0
  188.4020  173.9110  141.6790 C   0  0  0  0  0  3  0  0  0  0  0  0
  188.3540  173.4840  140.2180 C   0  0  0  0  0  2  0  0  0  0  0  0
  193.6450  176.2980  142.2710 C   0  0  0  0  0  2  0  0  0  0  0  0
  195.9210  175.2520  142.2350 C   0  0  1  0  0  3  0  0  0  0  0  0
  195.8450  176.3980  141.2570 C   0  0  1  0  0  3  0  0  0  0  0  0
  194.9200  176.1440  140.2290 O   0  0  0  0  0  0  0  0  0  0  0  0
  194.6550  175.5190  141.4590 C   0  0  2  0  0  0  0  0  0  0  0  0
  196.6210  174.0500  141.6220 C   0  0  1  0  0  3  0  0  0  0  0  0
  197.9340  173.9700  142.0940 O   0  0  0  0  0  1  0  0  0  0  0  0
  195.8700  172.8090  141.9700 C   0  0  0  0  0  0  0  0  0  0  0  0
  195.1340  172.2690  141.0990 O   0  0  0  0  0  0  0  0  0  0  0  0
  195.9350  172.2780  143.2970 N   0  0  0  0  0  2  0  0  0  0  0  0
  197.8810  168.8540  146.1830 C   0  0  0  0  0  1  0  0  0  0  0  0
  195.6840  169.8370  143.2100 C   0  0  0  0  0  2  0  0  0  0  0  0
  195.9350  170.3100  146.0080 N   0  0  0  0  0  2  0  0  0  0  0  0
  196.9580  169.4410  143.9470 C   0  0  0  0  0  2  0  0  0  0  0  0
  196.6170  169.1670  145.4060 C   0  0  1  0  0  3  0  0  0  0  0  0
  194.3160  171.9730  145.8430 O   0  0  0  0  0  0  0  0  0  0  0  0
  195.1200  171.1570  143.7470 C   0  0  1  0  0  3  0  0  0  0  0  0
  195.0670  171.1570  145.2480 C   0  0  0  0  0  0  0  0  0  0  0  0
  189.8800  175.3890  142.9050 O   0  0  0  0  0  0  0  0  0  0  0  0
  188.9860  175.5560  143.9820 C   0  0  2  0  0  3  0  0  0  0  0  0
  187.6930  175.6740  143.5100 F   0  0  0  0  0  0  0  0  0  0  0  0
  189.3570  176.8240  144.7290 C   0  0  0  0  0  2  0  0  0  0  0  0
  188.5720  176.9650  145.9910 C   0  0  0  0  0  0  0  0  0  0  0  0
  188.7320  176.1570  146.8930 O   0  0  0  0  0  0  0  0  0  0  0  0
  187.6090  178.0940  146.1660 C   0  0  0  0  0  2  0  0  0  0  0  0
  186.6860  178.1580  145.0400 N   0  0  0  0  0  2  0  0  0  0  0  0
  185.6340  179.1190  144.9550 C   0  0  0  0  0  0  0  0  0  0  0  0
  185.6370  179.9840  143.9480 C   0  0  0  0  0  2  0  0  0  0  0  0
  184.5930  179.1370  145.9380 N   0  0  0  0  0  2  0  0  0  0  0  0
  184.1440  177.9550  146.6570 C   0  0  0  0  0  1  0  0  0  0  0  0
  1  7  2  0  0  0  0
  1  8  1  0  0  0  0
  2  5  2  0  0  0  0
  3  6  1  6  0  0  0
  3 16  1  0  0  0  0
  4  2  1  1  0  0  0
  4 15  1  0  0  0  0
  5  7  1  0  0  0  0
  9 21  1  6  0  0  0
  9  4  1  0  0  0  0
 10  9  1  0  0  0  0
 11 15  2  0  0  0  0
 11 14  1  0  0  0  0
 12 39  1  1  0  0  0
 12  3  1  0  0  0  0
 14  8  2  0  0  0  0
 15  1  1  0  0  0  0
 16  2  1  0  0  0  0
 17 13  1  1  0  0  0
 17 10  1  0  0  0  0
 17 12  1  0  0  0  0
 18 19  1  0  0  0  0
 19 12  1  0  0  0  0
 20 18  1  0  0  0  0
 20 19  1  0  0  0  0
 22 26  1  6  0  0  0
 23 24  1  6  0  0  0
 23 25  1  0  0  0  0
 23 22  1  0  0  0  0
 24 25  1  0  0  0  0
 25 22  1  0  0  0  0
 25 21  1  1  0  0  0
 26 28  1  0  0  0  0
 26 27  1  1  0  0  0
 28 30  1  0  0  0  0
 29 28  2  0  0  0  0
 32 37  1  0  0  0  0
 32 34  1  0  0  0  0
 34 35  1  0  0  0  0
 35 33  1  0  0  0  0
 35 31  1  1  0  0  0
 37 30  1  1  0  0  0
 37 38  1  0  0  0  0
 38 36  2  0  0  0  0
 38 33  1  0  0  0  0
 39 40  1  0  0  0  0
 40 41  1  6  0  0  0
 40 42  1  0  0  0  0
 42 43  1  0  0  0  0
 43 45  1  0  0  0  0
 43 44  2  0  0  0  0
 46 45  1  0  0  0  0
 47 46  1  0  0  0  0
 47 49  1  0  0  0  0
 48 47  2  0  0  0  0
 49 50  1  0  0  0  0
M  END
>  <MODEL>
4

>  <REMARK>
 VINA RESULT:      -6.5      2.347      8.358
  Name = 
  14 active torsions:
  status: ('A' for Active; 'I' for Inactive)
    1  A    between atoms: C_3  and  N_8
    2  A    between atoms: C_3  and  N_13
    3  A    between atoms: C_4  and  C_11
    4  A    between atoms: C_4  and  C_36
    5  A    between atoms: C_5  and  C_17
    6  A    between atoms: C_5  and  C_35
    7  A    between atoms: N_8  and  C_17
    8  A    between atoms: C_14  and  C_39
    9  A    between atoms: C_15  and  C_35
   10  A    between atoms: C_15  and  O_37
   11  A    between atoms: C_28  and  C_30
   12  A    between atoms: C_29  and  N_48
   13  A    between atoms: C_30  and  C_49
   14  A    between atoms: O_37  and  C_39
                            x       y       z     vdW  Elec       q    Type
                         _______ _______ _______ _____ _____    ______ ____

>  <TORSDO>
F 14

$$$$
=
 OpenBabel11042419483D

 50 56  0  0  1  0  0  0  0  0999 V2000
  190.7400  173.3280  140.6910 C   0  0  0  0  0  0  0  0  0  0  0  0
  192.9340  172.1300  141.9550 C   0  0  0  0  0  0  0  0  0  0  0  0
  195.1800  172.3910  142.9460 C   0  0  2  0  0  3  0  0  0  0  0  0
  191.6220  172.0430  142.7370 C   0  0  1  0  0  3  0  0  0  0  0  0
  193.0190  172.6980  140.7330 C   0  0  0  0  0  3  0  0  0  0  0  0
  196.3980  171.4920  143.1280 C   0  0  0  0  0  1  0  0  0  0  0  0
  191.8810  173.2920  140.0810 N   0  0  0  0  0  0  0  0  0  0  0  0
  189.5240  173.7900  140.1400 N   0  0  0  0  0  0  0  0  0  0  0  0
  191.8180  172.5960  144.1660 C   0  0  2  0  0  3  0  0  0  0  0  0
  192.7930  171.7060  144.9360 C   0  0  0  0  0  2  0  0  0  0  0  0
  189.2200  172.7910  142.2030 C   0  0  0  0  0  3  0  0  0  0  0  0
  194.8480  173.2450  144.2250 C   0  0  1  0  0  0  0  0  0  0  0  0
  194.9790  171.3320  145.7630 O   0  0  0  0  0  1  0  0  0  0  0  0
  188.6300  173.4810  141.0330 C   0  0  0  0  0  3  0  0  0  0  0  0
  190.5230  172.7440  141.9740 C   0  0  0  0  0  0  0  0  0  0  0  0
  194.0840  171.5850  142.5240 O   0  0  0  0  0  0  0  0  0  0  0  0
  194.1390  172.3520  145.3100 C   0  0  2  0  0  3  0  0  0  0  0  0
  195.9670  174.5410  146.1200 C   0  0  0  0  0  2  0  0  0  0  0  0
  196.1750  173.9050  144.7530 C   0  0  0  0  0  3  0  0  0  0  0  0
  196.8210  173.3000  145.9920 C   0  0  0  0  0  2  0  0  0  0  0  0
  190.5210  172.6720  144.9540 C   0  0  0  0  0  2  0  0  0  0  0  0
  191.3460  175.0310  145.1280 C   0  0  1  0  0  3  0  0  0  0  0  0
  190.7310  174.5840  146.4310 C   0  0  1  0  0  3  0  0  0  0  0  0
  189.3590  174.3090  146.2910 O   0  0  0  0  0  0  0  0  0  0  0  0
  190.1410  174.1240  145.1390 C   0  0  2  0  0  0  0  0  0  0  0  0
  190.8930  176.4340  144.7590 C   0  0  1  0  0  3  0  0  0  0  0  0
  192.0040  177.2520  144.5350 O   0  0  0  0  0  1  0  0  0  0  0  0
  190.0420  176.3730  143.5350 C   0  0  0  0  0  0  0  0  0  0  0  0
  190.5890  176.2080  142.4100 O   0  0  0  0  0  0  0  0  0  0  0  0
  188.6280  176.5660  143.6330 N   0  0  0  0  0  2  0  0  0  0  0  0
  184.5150  179.1870  143.8870 C   0  0  0  0  0  1  0  0  0  0  0  0
  186.3880  176.0410  142.7780 C   0  0  0  0  0  2  0  0  0  0  0  0
  186.4850  178.8730  142.4870 N   0  0  0  0  0  2  0  0  0  0  0  0
  185.5660  176.9390  143.6960 C   0  0  0  0  0  2  0  0  0  0  0  0
  185.2590  178.2390  142.9660 C   0  0  1  0  0  3  0  0  0  0  0  0
  188.5560  178.6660  141.4450 O   0  0  0  0  0  0  0  0  0  0  0  0
  187.7540  176.6640  142.4720 C   0  0  1  0  0  3  0  0  0  0  0  0
  187.6200  178.1050  142.0730 C   0  0  0  0  0  0  0  0  0  0  0  0
  193.9370  174.2990  143.9130 O   0  0  0  0  0  0  0  0  0  0  0  0
  194.5930  175.4490  143.4290 C   0  0  2  0  0  3  0  0  0  0  0  0
  194.2990  176.5350  144.2300 F   0  0  0  0  0  0  0  0  0  0  0  0
  194.1050  175.7290  142.0190 C   0  0  0  0  0  2  0  0  0  0  0  0
  195.2330  176.0970  141.1120 C   0  0  0  0  0  0  0  0  0  0  0  0
  195.8030  177.1660  141.2630 O   0  0  0  0  0  0  0  0  0  0  0  0
  195.6790  175.1610  140.0350 C   0  0  0  0  0  2  0  0  0  0  0  0
  194.7400  175.1790  138.9210 N   0  0  0  0  0  2  0  0  0  0  0  0
  195.1590  175.2040  137.5570 C   0  0  0  0  0  0  0  0  0  0  0  0
  196.4550  175.2900  137.2850 C   0  0  0  0  0  2  0  0  0  0  0  0
  194.1890  175.1280  136.5050 N   0  0  0  0  0  2  0  0  0  0  0  0
  193.0650  176.0420  136.3800 C   0  0  0  0  0  1  0  0  0  0  0  0
  1 15  1  0  0  0  0
  2 16  1  0  0  0  0
  3  6  1  1  0  0  0
  3 12  1  0  0  0  0
  4  2  1  6  0  0  0
  4  9  1  0  0  0  0
  5  2  2  0  0  0  0
  7  1  2  0  0  0  0
  7  5  1  0  0  0  0
  8  1  1  0  0  0  0
  8 14  2  0  0  0  0
  9 10  1  0  0  0  0
  9 21  1  1  0  0  0
 10 17  1  0  0  0  0
 12 39  1  6  0  0  0
 12 19  1  0  0  0  0
 12 17  1  0  0  0  0
 14 11  1  0  0  0  0
 15 11  2  0  0  0  0
 15  4  1  0  0  0  0
 16  3  1  0  0  0  0
 17 13  1  6  0  0  0
 19 20  1  0  0  0  0
 19 18  1  0  0  0  0
 20 18  1  0  0  0  0
 22 26  1  6  0  0  0
 22 25  1  0  0  0  0
 22 23  1  0  0  0  0
 23 24  1  6  0  0  0
 25 21  1  6  0  0  0
 25 24  1  0  0  0  0
 25 23  1  0  0  0  0
 26 27  1  6  0  0  0
 28 30  1  0  0  0  0
 28 26  1  0  0  0  0
 29 28  2  0  0  0  0
 32 34  1  0  0  0  0
 33 35  1  0  0  0  0
 35 34  1  0  0  0  0
 35 31  1  1  0  0  0
 36 38  2  0  0  0  0
 37 32  1  0  0  0  0
 37 30  1  1  0  0  0
 38 37  1  0  0  0  0
 38 33  1  0  0  0  0
 40 39  1  0  0  0  0
 40 41  1  1  0  0  0
 42 40  1  0  0  0  0
 43 44  2  0  0  0  0
 43 42  1  0  0  0  0
 45 43  1  0  0  0  0
 46 45  1  0  0  0  0
 47 46  1  0  0  0  0
 48 47  2  0  0  0  0
 49 47  1  0  0  0  0
 50 49  1  0  0  0  0
M  END
>  <MODEL>
5

>  <REMARK>
 VINA RESULT:      -6.2      2.831      5.432
  Name = 
  14 active torsions:
  status: ('A' for Active; 'I' for Inactive)
    1  A    between atoms: C_3  and  N_8
    2  A    between atoms: C_3  and  N_13
    3  A    between atoms: C_4  and  C_11
    4  A    between atoms: C_4  and  C_36
    5  A    between atoms: C_5  and  C_17
    6  A    between atoms: C_5  and  C_35
    7  A    between atoms: N_8  and  C_17
    8  A    between atoms: C_14  and  C_39
    9  A    between atoms: C_15  and  C_35
   10  A    between atoms: C_15  and  O_37
   11  A    between atoms: C_28  and  C_30
   12  A    between atoms: C_29  and  N_48
   13  A    between atoms: C_30  and  C_49
   14  A    between atoms: O_37  and  C_39
                            x       y       z     vdW  Elec       q    Type
                         _______ _______ _______ _____ _____    ______ ____

>  <TORSDO>
F 14

$$$$
=
 OpenBabel11042419483D

 50 56  0  0  1  0  0  0  0  0999 V2000
  192.3320  171.1660  140.5320 C   0  0  0  0  0  0  0  0  0  0  0  0
  193.2660  171.8790  143.0750 C   0  0  0  0  0  0  0  0  0  0  0  0
  194.5810  173.4420  144.4620 C   0  0  2  0  0  3  0  0  0  0  0  0
  191.7430  171.8830  142.9310 C   0  0  1  0  0  3  0  0  0  0  0  0
  194.0930  171.5160  142.0700 C   0  0  0  0  0  3  0  0  0  0  0  0
  195.3620  173.3410  145.7680 C   0  0  0  0  0  1  0  0  0  0  0  0
  193.6030  171.1300  140.7730 N   0  0  0  0  0  0  0  0  0  0  0  0
  191.7040  170.7290  139.3450 N   0  0  0  0  0  0  0  0  0  0  0  0
  191.1720  173.2480  143.3770 C   0  0  2  0  0  3  0  0  0  0  0  0
  191.4250  173.4500  144.8720 C   0  0  0  0  0  2  0  0  0  0  0  0
  190.1720  171.2590  140.9920 C   0  0  0  0  0  3  0  0  0  0  0  0
  193.7000  174.7410  144.3680 C   0  0  1  0  0  0  0  0  0  0  0  0
  192.7020  174.4480  146.5960 O   0  0  0  0  0  1  0  0  0  0  0  0
  190.4330  170.7900  139.6120 C   0  0  0  0  0  3  0  0  0  0  0  0
  191.3610  171.5140  141.5170 C   0  0  0  0  0  0  0  0  0  0  0  0
  193.8180  172.2480  144.3000 O   0  0  0  0  0  0  0  0  0  0  0  0
  192.3980  174.5840  145.2390 C   0  0  2  0  0  3  0  0  0  0  0  0
  193.7010  177.1850  145.1090 C   0  0  0  0  0  2  0  0  0  0  0  0
  194.5730  175.9770  144.7990 C   0  0  0  0  0  3  0  0  0  0  0  0
  194.4310  176.4790  146.2290 C   0  0  0  0  0  2  0  0  0  0  0  0
  189.6780  173.3740  143.1280 C   0  0  0  0  0  2  0  0  0  0  0  0
  187.9220  174.9490  142.2860 C   0  0  1  0  0  3  0  0  0  0  0  0
  188.7700  174.4380  141.1470 C   0  0  1  0  0  3  0  0  0  0  0  0
  190.1090  174.8510  141.2700 O   0  0  0  0  0  0  0  0  0  0  0  0
  189.3990  174.7090  142.4740 C   0  0  2  0  0  0  0  0  0  0  0  0
  187.6860  176.4450  142.1670 C   0  0  1  0  0  3  0  0  0  0  0  0
  187.6040  176.8120  140.8210 O   0  0  0  0  0  1  0  0  0  0  0  0
  186.4240  176.8050  142.8780 C   0  0  0  0  0  0  0  0  0  0  0  0
  185.3850  177.0480  142.2050 O   0  0  0  0  0  0  0  0  0  0  0  0
  186.4140  176.9370  144.3020 N   0  0  0  0  0  2  0  0  0  0  0  0
  187.0640  179.2340  148.5630 C   0  0  0  0  0  1  0  0  0  0  0  0
  185.1650  176.7100  146.4030 C   0  0  0  0  0  2  0  0  0  0  0  0
  185.8910  179.4650  146.4380 N   0  0  0  0  0  2  0  0  0  0  0  0
  186.2310  177.2140  147.3690 C   0  0  0  0  0  2  0  0  0  0  0  0
  185.9680  178.6830  147.6710 C   0  0  1  0  0  3  0  0  0  0  0  0
  185.1020  179.6720  144.2590 O   0  0  0  0  0  0  0  0  0  0  0  0
  185.2620  177.4230  145.0500 C   0  0  1  0  0  3  0  0  0  0  0  0
  185.3770  178.9110  145.2230 C   0  0  0  0  0  0  0  0  0  0  0  0
  193.2630  174.9680  143.0280 O   0  0  0  0  0  0  0  0  0  0  0  0
  194.2370  175.6270  142.2510 C   0  0  2  0  0  3  0  0  0  0  0  0
  193.7430  176.8350  141.7990 F   0  0  0  0  0  0  0  0  0  0  0  0
  194.5770  174.7550  141.0560 C   0  0  0  0  0  2  0  0  0  0  0  0
  196.0530  174.5870  140.9030 C   0  0  0  0  0  0  0  0  0  0  0  0
  196.8080  175.2040  141.6370 O   0  0  0  0  0  0  0  0  0  0  0  0
  196.6100  173.6580  139.8730 C   0  0  0  0  0  2  0  0  0  0  0  0
  197.3740  174.3980  138.8780 N   0  0  0  0  0  2  0  0  0  0  0  0
  196.8160  174.8300  137.6370 C   0  0  0  0  0  0  0  0  0  0  0  0
  195.6380  174.3470  137.2610 C   0  0  0  0  0  2  0  0  0  0  0  0
  197.5180  175.7750  136.8210 N   0  0  0  0  0  2  0  0  0  0  0  0
  197.3040  175.9170  135.3900 C   0  0  0  0  0  1  0  0  0  0  0  0
  1  7  2  0  0  0  0
  1 15  1  0  0  0  0
  2 16  1  0  0  0  0
  3  6  1  1  0  0  0
  4 15  1  6  0  0  0
  4  2  1  0  0  0  0
  4  9  1  0  0  0  0
  5  2  2  0  0  0  0
  7  5  1  0  0  0  0
  8 14  2  0  0  0  0
  8  1  1  0  0  0  0
  9 21  1  1  0  0  0
  9 10  1  0  0  0  0
 10 17  1  0  0  0  0
 11 15  2  0  0  0  0
 12 39  1  6  0  0  0
 12  3  1  0  0  0  0
 12 19  1  0  0  0  0
 12 17  1  0  0  0  0
 14 11  1  0  0  0  0
 16  3  1  0  0  0  0
 17 13  1  1  0  0  0
 18 20  1  0  0  0  0
 19 18  1  0  0  0  0
 19 20  1  0  0  0  0
 22 26  1  6  0  0  0
 22 25  1  0  0  0  0
 23 24  1  6  0  0  0
 23 22  1  0  0  0  0
 23 25  1  0  0  0  0
 24 25  1  0  0  0  0
 25 21  1  1  0  0  0
 26 27  1  6  0  0  0
 26 28  1  0  0  0  0
 28 30  1  0  0  0  0
 29 28  2  0  0  0  0
 32 34  1  0  0  0  0
 33 35  1  0  0  0  0
 34 35  1  0  0  0  0
 35 31  1  1  0  0  0
 36 38  2  0  0  0  0
 37 30  1  1  0  0  0
 37 38  1  0  0  0  0
 37 32  1  0  0  0  0
 38 33  1  0  0  0  0
 40 41  1  6  0  0  0
 40 39  1  0  0  0  0
 42 40  1  0  0  0  0
 43 42  1  0  0  0  0
 43 44  2  0  0  0  0
 45 43  1  0  0  0  0
 46 45  1  0  0  0  0
 47 46  1  0  0  0  0
 48 47  2  0  0  0  0
 49 47  1  0  0  0  0
 50 49  1  0  0  0  0
M  END
>  <MODEL>
6

>  <REMARK>
 VINA RESULT:      -6.1      3.124      5.668
  Name = 
  14 active torsions:
  status: ('A' for Active; 'I' for Inactive)
    1  A    between atoms: C_3  and  N_8
    2  A    between atoms: C_3  and  N_13
    3  A    between atoms: C_4  and  C_11
    4  A    between atoms: C_4  and  C_36
    5  A    between atoms: C_5  and  C_17
    6  A    between atoms: C_5  and  C_35
    7  A    between atoms: N_8  and  C_17
    8  A    between atoms: C_14  and  C_39
    9  A    between atoms: C_15  and  C_35
   10  A    between atoms: C_15  and  O_37
   11  A    between atoms: C_28  and  C_30
   12  A    between atoms: C_29  and  N_48
   13  A    between atoms: C_30  and  C_49
   14  A    between atoms: O_37  and  C_39
                            x       y       z     vdW  Elec       q    Type
                         _______ _______ _______ _____ _____    ______ ____

>  <TORSDO>
F 14

$$$$
=
 OpenBabel11042419483D

 50 56  0  0  1  0  0  0  0  0999 V2000
  195.2870  174.9530  144.3120 C   0  0  0  0  0  0  0  0  0  0  0  0
  193.1010  173.2040  144.2500 C   0  0  0  0  0  0  0  0  0  0  0  0
  190.6500  172.9160  144.1740 C   0  0  2  0  0  3  0  0  0  0  0  0
  194.0470  173.0830  143.0540 C   0  0  1  0  0  3  0  0  0  0  0  0
  193.3250  174.0530  145.2760 C   0  0  0  0  0  3  0  0  0  0  0  0
  189.6650  171.8550  144.6540 C   0  0  0  0  0  1  0  0  0  0  0  0
  194.4640  174.9330  145.3100 N   0  0  0  0  0  0  0  0  0  0  0  0
  196.4910  175.6900  144.2500 N   0  0  0  0  0  0  0  0  0  0  0  0
  193.2550  173.2200  141.7350 C   0  0  2  0  0  3  0  0  0  0  0  0
  192.2880  172.0460  141.5880 C   0  0  0  0  0  2  0  0  0  0  0  0
  196.2680  174.2400  142.4640 C   0  0  0  0  0  3  0  0  0  0  0  0
  190.3290  173.4460  142.7280 C   0  0  1  0  0  0  0  0  0  0  0  0
  190.0840  171.1990  141.7590 O   0  0  0  0  0  1  0  0  0  0  0  0
  197.0640  175.2760  143.1580 C   0  0  0  0  0  3  0  0  0  0  0  0
  195.1660  174.0900  143.1830 C   0  0  0  0  0  0  0  0  0  0  0  0
  191.9690  172.3900  144.2860 O   0  0  0  0  0  0  0  0  0  0  0  0
  190.7920  172.4000  141.6460 C   0  0  2  0  0  3  0  0  0  0  0  0
  188.3970  174.1700  141.2230 C   0  0  0  0  0  2  0  0  0  0  0  0
  188.7930  173.7740  142.6380 C   0  0  0  0  0  3  0  0  0  0  0  0
  187.9210  172.8540  141.7940 C   0  0  0  0  0  2  0  0  0  0  0  0
  194.1520  173.2520  140.5080 C   0  0  0  0  0  2  0  0  0  0  0  0
  193.9710  174.1760  138.1860 C   0  0  1  0  0  3  0  0  0  0  0  0
  195.0230  174.9170  138.9740 C   0  0  1  0  0  3  0  0  0  0  0  0
  194.4660  175.6030  140.0680 O   0  0  0  0  0  0  0  0  0  0  0  0
  193.7810  174.4470  139.6580 C   0  0  2  0  0  0  0  0  0  0  0  0
  193.0950  175.1360  137.3990 C   0  0  1  0  0  3  0  0  0  0  0  0
  193.8690  175.8400  136.4720 O   0  0  0  0  0  1  0  0  0  0  0  0
  192.0220  174.3690  136.7010 C   0  0  0  0  0  0  0  0  0  0  0  0
  191.4560  174.8780  135.6950 O   0  0  0  0  0  0  0  0  0  0  0  0
  191.5990  173.1010  137.2080 N   0  0  0  0  0  2  0  0  0  0  0  0
  190.4470  168.7180  139.0290 C   0  0  0  0  0  1  0  0  0  0  0  0
  190.9370  171.0490  136.0350 C   0  0  0  0  0  2  0  0  0  0  0  0
  189.4400  170.8610  138.4510 N   0  0  0  0  0  2  0  0  0  0  0  0
  191.3200  170.0300  137.1020 C   0  0  0  0  0  2  0  0  0  0  0  0
  190.0780  169.6660  137.9030 C   0  0  1  0  0  3  0  0  0  0  0  0
  188.7120  173.0490  138.1370 O   0  0  0  0  0  0  0  0  0  0  0  0
  190.4660  172.3630  136.6670 C   0  0  1  0  0  3  0  0  0  0  0  0
  189.4690  172.1150  137.7630 C   0  0  0  0  0  0  0  0  0  0  0  0
  191.0440  174.6500  142.4540 O   0  0  0  0  0  0  0  0  0  0  0  0
  190.4490  175.7770  143.0580 C   0  0  2  0  0  3  0  0  0  0  0  0
  190.0200  176.6620  142.0890 F   0  0  0  0  0  0  0  0  0  0  0  0
  191.4830  176.4630  143.9310 C   0  0  0  0  0  2  0  0  0  0  0  0
  190.9110  177.6570  144.6220 C   0  0  0  0  0  0  0  0  0  0  0  0
  190.9140  178.7390  144.0550 O   0  0  0  0  0  0  0  0  0  0  0  0
  190.3220  177.5350  145.9890 C   0  0  0  0  0  2  0  0  0  0  0  0
  188.8940  177.2590  145.9080 N   0  0  0  0  0  2  0  0  0  0  0  0
  188.2610  176.2250  146.6610 C   0  0  0  0  0  0  0  0  0  0  0  0
  188.9220  175.0940  146.8790 C   0  0  0  0  0  2  0  0  0  0  0  0
  186.9370  176.4140  147.1750 N   0  0  0  0  0  2  0  0  0  0  0  0
  186.2810  177.7100  147.2480 C   0  0  0  0  0  1  0  0  0  0  0  0
  1  7  2  0  0  0  0
  2 16  1  0  0  0  0
  2  5  2  0  0  0  0
  3 16  1  0  0  0  0
  3  6  1  6  0  0  0
  4 15  1  1  0  0  0
  4  2  1  0  0  0  0
  5  7  1  0  0  0  0
  8  1  1  0  0  0  0
  9 21  1  6  0  0  0
  9  4  1  0  0  0  0
 10 17  1  0  0  0  0
 10  9  1  0  0  0  0
 11 14  1  0  0  0  0
 11 15  2  0  0  0  0
 12 39  1  6  0  0  0
 12  3  1  0  0  0  0
 14  8  2  0  0  0  0
 15  1  1  0  0  0  0
 17 13  1  1  0  0  0
 17 12  1  0  0  0  0
 18 20  1  0  0  0  0
 18 19  1  0  0  0  0
 19 12  1  0  0  0  0
 20 19  1  0  0  0  0
 22 26  1  6  0  0  0
 22 23  1  0  0  0  0
 22 25  1  0  0  0  0
 23 25  1  0  0  0  0
 23 24  1  6  0  0  0
 25 24  1  0  0  0  0
 25 21  1  1  0  0  0
 26 27  1  6  0  0  0
 28 30  1  0  0  0  0
 28 26  1  0  0  0  0
 29 28  2  0  0  0  0
 32 37  1  0  0  0  0
 32 34  1  0  0  0  0
 34 35  1  0  0  0  0
 35 33  1  0  0  0  0
 35 31  1  1  0  0  0
 37 30  1  1  0  0  0
 37 38  1  0  0  0  0
 38 36  2  0  0  0  0
 38 33  1  0  0  0  0
 39 40  1  0  0  0  0
 40 41  1  6  0  0  0
 40 42  1  0  0  0  0
 42 43  1  0  0  0  0
 43 45  1  0  0  0  0
 44 43  2  0  0  0  0
 46 45  1  0  0  0  0
 46 47  1  0  0  0  0
 47 48  2  0  0  0  0
 47 49  1  0  0  0  0
 49 50  1  0  0  0  0
M  END
>  <MODEL>
7

>  <REMARK>
 VINA RESULT:      -6.0      3.397      7.462
  Name = 
  14 active torsions:
  status: ('A' for Active; 'I' for Inactive)
    1  A    between atoms: C_3  and  N_8
    2  A    between atoms: C_3  and  N_13
    3  A    between atoms: C_4  and  C_11
    4  A    between atoms: C_4  and  C_36
    5  A    between atoms: C_5  and  C_17
    6  A    between atoms: C_5  and  C_35
    7  A    between atoms: N_8  and  C_17
    8  A    between atoms: C_14  and  C_39
    9  A    between atoms: C_15  and  C_35
   10  A    between atoms: C_15  and  O_37
   11  A    between atoms: C_28  and  C_30
   12  A    between atoms: C_29  and  N_48
   13  A    between atoms: C_30  and  C_49
   14  A    between atoms: O_37  and  C_39
                            x       y       z     vdW  Elec       q    Type
                         _______ _______ _______ _____ _____    ______ ____

>  <TORSDO>
F 14

$$$$
=
 OpenBabel11042419483D

 50 56  0  0  1  0  0  0  0  0999 V2000
  192.6940  175.8240  146.2410 C   0  0  0  0  0  0  0  0  0  0  0  0
  193.7610  176.0630  143.6630 C   0  0  0  0  0  0  0  0  0  0  0  0
  195.7020  175.7780  142.1640 C   0  0  2  0  0  3  0  0  0  0  0  0
  192.5760  175.1030  143.7750 C   0  0  1  0  0  3  0  0  0  0  0  0
  194.2270  176.7740  144.7120 C   0  0  0  0  0  3  0  0  0  0  0  0
  196.1980  176.4510  140.8880 C   0  0  0  0  0  1  0  0  0  0  0  0
  193.6570  176.6620  146.0300 N   0  0  0  0  0  0  0  0  0  0  0  0
  191.9800  175.6760  147.4510 N   0  0  0  0  0  0  0  0  0  0  0  0
  192.9550  173.7230  143.1930 C   0  0  2  0  0  3  0  0  0  0  0  0
  193.2160  173.8490  141.6920 C   0  0  0  0  0  2  0  0  0  0  0  0
  191.0380  174.4510  145.7310 C   0  0  0  0  0  3  0  0  0  0  0  0
  195.8200  174.2100  142.1190 C   0  0  1  0  0  0  0  0  0  0  0  0
  194.7640  174.0080  139.9090 O   0  0  0  0  0  1  0  0  0  0  0  0
  191.0100  174.8610  147.1530 C   0  0  0  0  0  3  0  0  0  0  0  0
  192.1060  175.0340  145.2090 C   0  0  0  0  0  0  0  0  0  0  0  0
  194.3720  176.2220  142.4200 O   0  0  0  0  0  0  0  0  0  0  0  0
  194.6660  173.5990  141.2410 C   0  0  2  0  0  3  0  0  0  0  0  0
  197.4160  172.3150  141.5010 C   0  0  0  0  0  2  0  0  0  0  0  0
  197.2530  173.8250  141.5940 C   0  0  0  0  0  3  0  0  0  0  0  0
  197.3480  173.1420  140.2370 C   0  0  0  0  0  2  0  0  0  0  0  0
  191.8720  172.6760  143.4000 C   0  0  0  0  0  2  0  0  0  0  0  0
  189.4190  172.7780  142.9020 C   0  0  1  0  0  3  0  0  0  0  0  0
  190.0450  171.5660  142.2560 C   0  0  1  0  0  3  0  0  0  0  0  0
  190.9930  171.9280  141.2820 O   0  0  0  0  0  0  0  0  0  0  0  0
  190.8140  172.8440  142.3330 C   0  0  2  0  0  0  0  0  0  0  0  0
  188.4720  173.4830  141.9470 C   0  0  1  0  0  3  0  0  0  0  0  0
  187.2040  172.8990  142.0120 O   0  0  0  0  0  1  0  0  0  0  0  0
  188.3930  174.9300  142.3050 C   0  0  0  0  0  0  0  0  0  0  0  0
  189.2340  175.4120  143.1130 O   0  0  0  0  0  0  0  0  0  0  0  0
  187.3350  175.7420  141.7880 N   0  0  0  0  0  2  0  0  0  0  0  0
  183.2140  178.0330  140.5190 C   0  0  0  0  0  1  0  0  0  0  0  0
  187.0110  178.0370  140.9810 C   0  0  0  0  0  2  0  0  0  0  0  0
  184.6190  177.5840  142.4590 N   0  0  0  0  0  2  0  0  0  0  0  0
  185.6830  177.8500  140.2580 C   0  0  0  0  0  2  0  0  0  0  0  0
  184.5540  178.2890  141.1810 C   0  0  1  0  0  3  0  0  0  0  0  0
  185.8990  176.8050  144.2390 O   0  0  0  0  0  0  0  0  0  0  0  0
  187.1110  177.1190  142.2040 C   0  0  1  0  0  3  0  0  0  0  0  0
  185.8650  177.1860  143.0400 C   0  0  0  0  0  0  0  0  0  0  0  0
  195.6740  173.6490  143.4240 O   0  0  0  0  0  0  0  0  0  0  0  0
  196.5110  174.2710  144.3720 C   0  0  2  0  0  3  0  0  0  0  0  0
  197.8260  173.9090  144.1530 F   0  0  0  0  0  0  0  0  0  0  0  0
  196.0980  173.8130  145.7590 C   0  0  0  0  0  2  0  0  0  0  0  0
  196.0850  172.3230  145.8620 C   0  0  0  0  0  0  0  0  0  0  0  0
  197.1330  171.7230  146.0430 O   0  0  0  0  0  0  0  0  0  0  0  0
  194.8010  171.5660  145.7650 C   0  0  0  0  0  2  0  0  0  0  0  0
  194.7940  170.7220  144.5770 N   0  0  0  0  0  2  0  0  0  0  0  0
  194.7040  169.2980  144.6390 C   0  0  0  0  0  0  0  0  0  0  0  0
  193.6240  168.7480  145.1800 C   0  0  0  0  0  2  0  0  0  0  0  0
  195.7620  168.4860  144.1180 N   0  0  0  0  0  2  0  0  0  0  0  0
  197.1640  168.6790  144.4540 C   0  0  0  0  0  1  0  0  0  0  0  0
  1  8  1  0  0  0  0
  2  5  2  0  0  0  0
  3  6  1  6  0  0  0
  3 16  1  0  0  0  0
  4  2  1  1  0  0  0
  4 15  1  0  0  0  0
  5  7  1  0  0  0  0
  7  1  2  0  0  0  0
  9 21  1  6  0  0  0
  9  4  1  0  0  0  0
 10  9  1  0  0  0  0
 11 14  1  0  0  0  0
 12  3  1  0  0  0  0
 12 39  1  1  0  0  0
 14  8  2  0  0  0  0
 15 11  2  0  0  0  0
 15  1  1  0  0  0  0
 16  2  1  0  0  0  0
 17 13  1  6  0  0  0
 17 10  1  0  0  0  0
 17 12  1  0  0  0  0
 18 19  1  0  0  0  0
 19 12  1  0  0  0  0
 20 18  1  0  0  0  0
 20 19  1  0  0  0  0
 22 26  1  6  0  0  0
 23 24  1  6  0  0  0
 23 25  1  0  0  0  0
 23 22  1  0  0  0  0
 24 25  1  0  0  0  0
 25 22  1  0  0  0  0
 25 21  1  1  0  0  0
 26 27  1  1  0  0  0
 26 28  1  0  0  0  0
 28 29  2  0  0  0  0
 30 28  1  0  0  0  0
 32 37  1  0  0  0  0
 33 38  1  0  0  0  0
 34 32  1  0  0  0  0
 34 35  1  0  0  0  0
 35 31  1  6  0  0  0
 35 33  1  0  0  0  0
 37 30  1  6  0  0  0
 37 38  1  0  0  0  0
 38 36  2  0  0  0  0
 39 40  1  0  0  0  0
 40 41  1  6  0  0  0
 40 42  1  0  0  0  0
 42 43  1  0  0  0  0
 43 44  2  0  0  0  0
 45 43  1  0  0  0  0
 46 47  1  0  0  0  0
 46 45  1  0  0  0  0
 47 48  2  0  0  0  0
 49 50  1  0  0  0  0
 49 47  1  0  0  0  0
M  END
>  <MODEL>
8

>  <REMARK>
 VINA RESULT:      -6.0      1.561      2.094
  Name = 
  14 active torsions:
  status: ('A' for Active; 'I' for Inactive)
    1  A    between atoms: C_3  and  N_8
    2  A    between atoms: C_3  and  N_13
    3  A    between atoms: C_4  and  C_11
    4  A    between atoms: C_4  and  C_36
    5  A    between atoms: C_5  and  C_17
    6  A    between atoms: C_5  and  C_35
    7  A    between atoms: N_8  and  C_17
    8  A    between atoms: C_14  and  C_39
    9  A    between atoms: C_15  and  C_35
   10  A    between atoms: C_15  and  O_37
   11  A    between atoms: C_28  and  C_30
   12  A    between atoms: C_29  and  N_48
   13  A    between atoms: C_30  and  C_49
   14  A    between atoms: O_37  and  C_39
                            x       y       z     vdW  Elec       q    Type
                         _______ _______ _______ _____ _____    ______ ____

>  <TORSDO>
F 14

$$$$
=
 OpenBabel11042419483D

 50 56  0  0  1  0  0  0  0  0999 V2000
  189.4090  173.4890  142.3950 C   0  0  0  0  0  0  0  0  0  0  0  0
  191.2030  171.7380  143.6450 C   0  0  0  0  0  0  0  0  0  0  0  0
  192.5460  169.6700  143.5160 C   0  0  2  0  0  3  0  0  0  0  0  0
  191.7360  173.1580  143.4410 C   0  0  1  0  0  3  0  0  0  0  0  0
  189.9520  171.3700  143.2920 C   0  0  0  0  0  3  0  0  0  0  0  0
  193.0660  168.6490  144.5220 C   0  0  0  0  0  1  0  0  0  0  0  0
  189.0290  172.2830  142.6710 N   0  0  0  0  0  0  0  0  0  0  0  0
  188.5880  174.5150  141.8760 N   0  0  0  0  0  0  0  0  0  0  0  0
  193.0890  173.1150  142.6980 C   0  0  2  0  0  3  0  0  0  0  0  0
  194.1370  172.4250  143.5710 C   0  0  0  0  0  2  0  0  0  0  0  0
  190.6740  175.2990  142.4890 C   0  0  0  0  0  3  0  0  0  0  0  0
  193.6160  170.0730  142.4360 C   0  0  1  0  0  0  0  0  0  0  0  0
  195.3940  170.4860  144.0830 O   0  0  0  0  0  1  0  0  0  0  0  0
  189.3350  175.5790  141.9240 C   0  0  0  0  0  3  0  0  0  0  0  0
  190.6970  173.9980  142.7360 C   0  0  0  0  0  0  0  0  0  0  0  0
  192.0410  170.7930  144.2340 O   0  0  0  0  0  0  0  0  0  0  0  0
  194.6620  171.0770  143.0490 C   0  0  2  0  0  3  0  0  0  0  0  0
  195.4870  169.0940  141.0010 C   0  0  0  0  0  2  0  0  0  0  0  0
  194.2860  168.7640  141.8740 C   0  0  0  0  0  3  0  0  0  0  0  0
  195.6950  168.4340  142.3450 C   0  0  0  0  0  2  0  0  0  0  0  0
  193.6090  174.4970  142.3350 C   0  0  0  0  0  2  0  0  0  0  0  0
  193.7100  176.2870  144.0840 C   0  0  1  0  0  3  0  0  0  0  0  0
  194.8650  176.4160  143.1220 C   0  0  1  0  0  3  0  0  0  0  0  0
  195.7190  175.3000  143.1830 O   0  0  0  0  0  0  0  0  0  0  0  0
  194.3740  175.0600  143.5110 C   0  0  2  0  0  0  0  0  0  0  0  0
  194.1690  176.4600  145.5220 C   0  0  1  0  0  3  0  0  0  0  0  0
  194.8990  177.6450  145.6520 O   0  0  0  0  0  1  0  0  0  0  0  0
  192.9800  176.4840  146.4230 C   0  0  0  0  0  0  0  0  0  0  0  0
  193.1320  176.7910  147.6370 O   0  0  0  0  0  0  0  0  0  0  0  0
  191.6950  176.1010  145.9270 N   0  0  0  0  0  2  0  0  0  0  0  0
  187.3190  177.5300  144.2950 C   0  0  0  0  0  1  0  0  0  0  0  0
  189.9240  177.3390  147.0910 C   0  0  0  0  0  2  0  0  0  0  0  0
  188.4240  175.6390  145.3660 N   0  0  0  0  0  2  0  0  0  0  0  0
  189.2000  177.9150  145.8800 C   0  0  0  0  0  2  0  0  0  0  0  0
  188.0080  177.0280  145.5500 C   0  0  1  0  0  3  0  0  0  0  0  0
  189.6910  173.8290  146.0930 O   0  0  0  0  0  0  0  0  0  0  0  0
  190.5200  175.9630  146.7770 C   0  0  1  0  0  3  0  0  0  0  0  0
  189.5180  175.0760  146.0960 C   0  0  0  0  0  0  0  0  0  0  0  0
  193.0050  170.7500  141.3380 O   0  0  0  0  0  0  0  0  0  0  0  0
  192.5260  169.8570  140.3570 C   0  0  2  0  0  3  0  0  0  0  0  0
  192.9680  170.2460  139.1070 F   0  0  0  0  0  0  0  0  0  0  0  0
  191.0090  169.8840  140.3740 C   0  0  0  0  0  2  0  0  0  0  0  0
  190.4400  169.5870  139.0260 C   0  0  0  0  0  0  0  0  0  0  0  0
  190.4980  168.4500  138.5860 O   0  0  0  0  0  0  0  0  0  0  0  0
  189.7870  170.6640  138.2220 C   0  0  0  0  0  2  0  0  0  0  0  0
  189.4720  171.8110  139.0640 N   0  0  0  0  0  2  0  0  0  0  0  0
  189.9620  173.1250  138.7970 C   0  0  0  0  0  0  0  0  0  0  0  0
  191.2200  173.4150  139.1070 C   0  0  0  0  0  2  0  0  0  0  0  0
  189.1070  174.1050  138.1980 N   0  0  0  0  0  2  0  0  0  0  0  0
  188.9410  174.2570  136.7610 C   0  0  0  0  0  1  0  0  0  0  0  0
  1  7  2  0  0  0  0
  1 15  1  0  0  0  0
  2 16  1  0  0  0  0
  3 16  1  0  0  0  0
  3  6  1  1  0  0  0
  4 15  1  6  0  0  0
  4  2  1  0  0  0  0
  5  2  2  0  0  0  0
  7  5  1  0  0  0  0
  8 14  2  0  0  0  0
  8  1  1  0  0  0  0
  9 21  1  1  0  0  0
  9  4  1  0  0  0  0
  9 10  1  0  0  0  0
 11 15  2  0  0  0  0
 12 39  1  6  0  0  0
 12 17  1  0  0  0  0
 12  3  1  0  0  0  0
 14 11  1  0  0  0  0
 17 10  1  0  0  0  0
 17 13  1  1  0  0  0
 18 19  1  0  0  0  0
 18 20  1  0  0  0  0
 19 20  1  0  0  0  0
 19 12  1  0  0  0  0
 22 26  1  1  0  0  0
 23 24  1  1  0  0  0
 23 25  1  0  0  0  0
 23 22  1  0  0  0  0
 24 25  1  0  0  0  0
 25 21  1  6  0  0  0
 25 22  1  0  0  0  0
 26 27  1  6  0  0  0
 26 28  1  0  0  0  0
 28 29  2  0  0  0  0
 30 28  1  0  0  0  0
 33 35  1  0  0  0  0
 33 38  1  0  0  0  0
 34 32  1  0  0  0  0
 35 31  1  6  0  0  0
 35 34  1  0  0  0  0
 36 38  2  0  0  0  0
 37 30  1  6  0  0  0
 37 32  1  0  0  0  0
 38 37  1  0  0  0  0
 40 41  1  6  0  0  0
 40 42  1  0  0  0  0
 40 39  1  0  0  0  0
 43 42  1  0  0  0  0
 44 43  2  0  0  0  0
 45 43  1  0  0  0  0
 45 46  1  0  0  0  0
 47 46  1  0  0  0  0
 47 48  2  0  0  0  0
 49 47  1  0  0  0  0
 50 49  1  0  0  0  0
M  END
>  <MODEL>
9

>  <REMARK>
 VINA RESULT:      -6.0      2.946      6.427
  Name = 
  14 active torsions:
  status: ('A' for Active; 'I' for Inactive)
    1  A    between atoms: C_3  and  N_8
    2  A    between atoms: C_3  and  N_13
    3  A    between atoms: C_4  and  C_11
    4  A    between atoms: C_4  and  C_36
    5  A    between atoms: C_5  and  C_17
    6  A    between atoms: C_5  and  C_35
    7  A    between atoms: N_8  and  C_17
    8  A    between atoms: C_14  and  C_39
    9  A    between atoms: C_15  and  C_35
   10  A    between atoms: C_15  and  O_37
   11  A    between atoms: C_28  and  C_30
   12  A    between atoms: C_29  and  N_48
   13  A    between atoms: C_30  and  C_49
   14  A    between atoms: O_37  and  C_39
                            x       y       z     vdW  Elec       q    Type
                         _______ _______ _______ _____ _____    ______ ____

>  <TORSDO>
F 14

$$$$
