=
 OpenBabel11042414153D

 45 49  0  0  1  0  0  0  0  0999 V2000
  192.4310  175.5500  145.8140 C   0  0  0  0  0  0  0  0  0  0  0  0
  193.5070  174.5320  146.2090 C   0  0  0  0  0  2  0  0  0  0  0  0
  195.1770  175.8660  140.7930 O   0  0  0  0  0  0  0  0  0  0  0  0
  195.2300  174.8720  142.8290 O   0  0  0  0  0  0  0  0  0  0  0  0
  194.5680  174.2720  145.1650 C   0  0  0  0  0  0  0  0  0  0  0  0
  194.4580  174.9550  143.8810 C   0  0  0  0  0  0  0  0  0  0  0  0
  195.5380  173.4330  145.4020 C   0  0  0  0  0  0  0  0  0  0  0  0
  192.4180  176.1400  144.6040 C   0  0  0  0  0  3  0  0  0  0  0  0
  193.4530  175.8250  143.6210 C   0  0  0  0  0  0  0  0  0  0  0  0
  194.6940  175.6880  141.9420 C   0  0  0  0  0  0  0  0  0  0  0  0
  196.5090  172.5950  145.6300 C   0  0  0  0  0  3  0  0  0  0  0  0
  193.5750  176.3190  142.3750 N   0  0  0  0  0  2  0  0  0  0  0  0
  196.3830  171.1770  145.1980 C   0  0  0  0  0  2  0  0  0  0  0  0
  195.2680  170.4880  145.9700 C   0  0  2  0  0  3  0  0  0  0  0  0
  194.7740  168.7750  147.2840 C   0  0  0  0  0  1  0  0  0  0  0  0
  195.8160  169.6350  146.9310 O   0  0  0  0  0  0  0  0  0  0  0  0
  194.4480  169.7160  145.0510 N   0  0  0  0  0  2  0  0  0  0  0  0
  194.7360  170.2020  143.7120 C   0  0  0  0  0  2  0  0  0  0  0  0
  192.9230  173.2190  140.5530 O   0  0  0  0  0  0  0  0  0  0  0  0
  192.6820  172.5600  141.5980 C   0  0  0  0  0  0  0  0  0  0  0  0
  191.3130  172.6600  142.2340 C   0  0  2  0  0  3  0  0  0  0  0  0
  191.3350  172.2840  144.0220 S   0  0  0  0  0  0  0  0  0  0  0  0
  192.2250  170.7140  143.8020 C   0  0  0  0  0  2  0  0  0  0  0  0
  193.7210  171.7530  142.1700 N   0  0  0  0  0  0  0  0  0  0  0  0
  193.5650  170.9540  143.1830 C   0  0  0  0  0  0  0  0  0  0  0  0
  190.7570  170.9530  140.5920 C   0  0  0  0  0  1  0  0  0  0  0  0
  190.2370  171.9350  141.5380 N   0  0  0  0  0  0  0  0  0  0  0  0
  189.4460  172.9010  140.7870 C   0  0  0  0  0  2  0  0  0  0  0  0
  187.9140  174.3620  142.1040 C   0  0  0  0  0  1  0  0  0  0  0  0
  189.3230  174.2020  141.5630 C   0  0  0  0  0  2  0  0  0  0  0  0
  191.3840  175.9100  146.7280 N   0  0  0  0  0  2  0  0  0  0  0  0
  189.4320  174.5520  145.8950 C   0  0  0  0  0  2  0  0  0  0  0  0
  189.9290  175.8100  146.5690 C   0  0  0  0  0  0  0  0  0  0  0  0
  189.2070  174.7700  147.3940 C   0  0  0  0  0  2  0  0  0  0  0  0
  189.1570  177.0810  146.2260 C   0  0  2  0  0  3  0  0  0  0  0  0
  188.8360  177.7530  147.4090 O   0  0  0  0  0  1  0  0  0  0  0  0
  185.6270  178.5260  144.4030 C   0  0  0  0  0  2  0  0  0  0  0  0
  186.6240  177.1220  146.2480 C   0  0  0  0  0  2  0  0  0  0  0  0
  186.5060  177.6560  143.4910 C   0  0  2  0  0  3  0  0  0  0  0  0
  187.8830  176.7810  145.4270 C   0  0  1  0  0  3  0  0  0  0  0  0
  187.9120  177.4840  144.0590 C   0  0  0  0  0  2  0  0  0  0  0  0
  186.0540  178.4890  145.8750 C   0  0  0  0  0  2  0  0  0  0  0  0
  186.5910  178.3540  141.8290 S   0  0  0  0  0  3  0  0  0  0  0  0
  185.6730  177.4650  141.0010 O   0  0  0  0  0  1  0  0  0  0  0  0
  188.1480  177.9270  141.2880 O   0  0  0  0  0  1  0  0  0  0  0  0
  1  2  1  0  0  0  0
  1 31  1  0  0  0  0
  3 10  2  0  0  0  0
  4  6  1  0  0  0  0
  5  7  2  0  0  0  0
  5  2  1  0  0  0  0
  6  5  1  0  0  0  0
  7 11  2  0  0  0  0
  8  1  2  0  0  0  0
  9  6  2  0  0  0  0
  9  8  1  0  0  0  0
 10 12  1  0  0  0  0
 10  4  1  0  0  0  0
 12  9  1  0  0  0  0
 13 11  1  0  0  0  0
 14 13  1  6  0  0  0
 14 16  1  0  0  0  0
 16 15  1  0  0  0  0
 17 14  1  0  0  0  0
 18 17  1  0  0  0  0
 19 20  2  0  0  0  0
 20 24  1  0  0  0  0
 20 21  1  0  0  0  0
 21 27  1  6  0  0  0
 21 22  1  0  0  0  0
 23 22  1  0  0  0  0
 24 25  2  0  0  0  0
 25 18  1  0  0  0  0
 25 23  1  0  0  0  0
 26 27  1  0  0  0  0
 28 27  1  0  0  0  0
 28 30  1  0  0  0  0
 30 29  1  0  0  0  0
 32 33  1  0  0  0  0
 32 34  1  0  0  0  0
 33 31  1  0  0  0  0
 33 34  1  0  0  0  0
 35 33  1  0  0  0  0
 35 36  1  1  0  0  0
 37 42  1  0  0  0  0
 39 43  1  6  0  0  0
 39 41  1  0  0  0  0
 39 37  1  0  0  0  0
 40 35  1  1  0  0  0
 40 38  1  0  0  0  0
 41 40  1  0  0  0  0
 42 38  1  0  0  0  0
 44 43  1  0  0  0  0
 45 43  1  0  0  0  0
M  END
>  <MODEL>
1

>  <REMARK>
 VINA RESULT:      -6.9      0.000      0.000
  Name = 
  14 active torsions:
  status: ('A' for Active; 'I' for Inactive)
    1  A    between atoms: C_3  and  N_32
    2  A    between atoms: C_5  and  N_31
    3  A    between atoms: C_6  and  C_24
    4  A    between atoms: C_6  and  N_31
    5  A    between atoms: S_12  and  C_14
    6  A    between atoms: C_15  and  C_25
    7  A    between atoms: C_15  and  C_28
    8  A    between atoms: N_18  and  C_29
    9  A    between atoms: N_18  and  C_39
   10  A    between atoms: C_23  and  C_29
   11  A    between atoms: C_23  and  C_38
   12  A    between atoms: C_25  and  N_32
   13  A    between atoms: C_29  and  O_36
   14  A    between atoms: C_39  and  C_43
                            x       y       z     vdW  Elec       q    Type
                         _______ _______ _______ _____ _____    ______ ____

>  <TORSDO>
F 14

$$$$
=
 OpenBabel11042414153D

 45 49  0  0  1  0  0  0  0  0999 V2000
  192.8310  175.2110  144.8340 C   0  0  0  0  0  0  0  0  0  0  0  0
  193.7380  174.1990  145.5430 C   0  0  0  0  0  2  0  0  0  0  0  0
  197.2120  175.9580  141.2160 O   0  0  0  0  0  0  0  0  0  0  0  0
  196.5640  174.8260  143.0680 O   0  0  0  0  0  0  0  0  0  0  0  0
  195.1210  174.0440  144.9550 C   0  0  0  0  0  0  0  0  0  0  0  0
  195.4560  174.8120  143.7610 C   0  0  0  0  0  0  0  0  0  0  0  0
  195.9780  173.2190  145.4890 C   0  0  0  0  0  0  0  0  0  0  0  0
  193.2320  175.8830  143.7400 C   0  0  0  0  0  3  0  0  0  0  0  0
  194.5720  175.6690  143.1950 C   0  0  0  0  0  0  0  0  0  0  0  0
  196.3500  175.6860  142.0910 C   0  0  0  0  0  0  0  0  0  0  0  0
  196.8400  172.3950  146.0140 C   0  0  0  0  0  3  0  0  0  0  0  0
  195.1180  176.2530  142.1130 N   0  0  0  0  0  2  0  0  0  0  0  0
  196.9570  171.0080  145.4900 C   0  0  0  0  0  2  0  0  0  0  0  0
  196.2090  170.0380  146.3920 C   0  0  2  0  0  3  0  0  0  0  0  0
  197.1550  168.5520  147.7350 C   0  0  0  0  0  1  0  0  0  0  0  0
  196.8570  168.8000  146.3940 O   0  0  0  0  0  0  0  0  0  0  0  0
  194.8510  169.8700  145.9030 N   0  0  0  0  0  2  0  0  0  0  0  0
  194.9410  169.5920  144.4800 C   0  0  0  0  0  2  0  0  0  0  0  0
  190.9970  172.2010  144.5510 O   0  0  0  0  0  0  0  0  0  0  0  0
  191.6660  171.3710  143.8820 C   0  0  0  0  0  0  0  0  0  0  0  0
  191.1410  170.9100  142.5390 C   0  0  2  0  0  3  0  0  0  0  0  0
  191.7740  169.2650  142.0590 S   0  0  0  0  0  0  0  0  0  0  0  0
  193.5100  169.7150  142.3550 C   0  0  0  0  0  2  0  0  0  0  0  0
  192.8940  170.8650  144.4240 N   0  0  0  0  0  0  0  0  0  0  0  0
  193.7180  170.0860  143.7890 C   0  0  0  0  0  0  0  0  0  0  0  0
  192.2130  172.9520  141.7600 C   0  0  0  0  0  1  0  0  0  0  0  0
  191.2680  171.8850  141.4430 N   0  0  0  0  0  0  0  0  0  0  0  0
  189.9650  172.4960  141.2210 C   0  0  0  0  0  2  0  0  0  0  0  0
  188.9840  174.2810  142.6590 C   0  0  0  0  0  1  0  0  0  0  0  0
  190.0050  173.9730  141.5800 C   0  0  0  0  0  2  0  0  0  0  0  0
  191.5030  175.4750  145.3130 N   0  0  0  0  0  2  0  0  0  0  0  0
  191.0720  175.6270  147.7900 C   0  0  0  0  0  2  0  0  0  0  0  0
  191.0630  176.3050  146.4400 C   0  0  0  0  0  0  0  0  0  0  0  0
  192.1050  176.7070  147.4590 C   0  0  0  0  0  2  0  0  0  0  0  0
  189.9100  177.2780  146.2070 C   0  0  2  0  0  3  0  0  0  0  0  0
  189.5370  177.8440  147.4280 O   0  0  0  0  0  1  0  0  0  0  0  0
  185.7490  177.2490  145.4660 C   0  0  0  0  0  2  0  0  0  0  0  0
  187.6940  176.1220  146.6130 C   0  0  0  0  0  2  0  0  0  0  0  0
  186.6220  177.1080  144.2090 C   0  0  2  0  0  3  0  0  0  0  0  0
  188.7060  176.5930  145.5510 C   0  0  1  0  0  3  0  0  0  0  0  0
  188.0720  177.4990  144.4810 C   0  0  0  0  0  2  0  0  0  0  0  0
  186.5370  177.1060  146.7730 C   0  0  0  0  0  2  0  0  0  0  0  0
  185.9580  178.0980  142.8530 S   0  0  0  0  0  3  0  0  0  0  0  0
  186.0550  179.5320  143.3550 O   0  0  0  0  0  1  0  0  0  0  0  0
  184.2870  177.7760  142.8950 O   0  0  0  0  0  1  0  0  0  0  0  0
  1 31  1  0  0  0  0
  1  2  1  0  0  0  0
  3 10  2  0  0  0  0
  4  6  1  0  0  0  0
  5  7  2  0  0  0  0
  5  2  1  0  0  0  0
  6  5  1  0  0  0  0
  7 11  2  0  0  0  0
  8  1  2  0  0  0  0
  9  8  1  0  0  0  0
  9  6  2  0  0  0  0
 10 12  1  0  0  0  0
 10  4  1  0  0  0  0
 12  9  1  0  0  0  0
 13 11  1  0  0  0  0
 14 13  1  6  0  0  0
 14 16  1  0  0  0  0
 16 15  1  0  0  0  0
 17 14  1  0  0  0  0
 18 17  1  0  0  0  0
 20 24  1  0  0  0  0
 20 19  2  0  0  0  0
 21 27  1  6  0  0  0
 21 20  1  0  0  0  0
 22 23  1  0  0  0  0
 22 21  1  0  0  0  0
 23 25  1  0  0  0  0
 25 24  2  0  0  0  0
 25 18  1  0  0  0  0
 27 26  1  0  0  0  0
 28 27  1  0  0  0  0
 28 30  1  0  0  0  0
 30 29  1  0  0  0  0
 31 33  1  0  0  0  0
 33 34  1  0  0  0  0
 33 32  1  0  0  0  0
 34 32  1  0  0  0  0
 35 33  1  0  0  0  0
 35 36  1  1  0  0  0
 37 42  1  0  0  0  0
 38 42  1  0  0  0  0
 39 43  1  6  0  0  0
 39 41  1  0  0  0  0
 39 37  1  0  0  0  0
 40 35  1  1  0  0  0
 40 38  1  0  0  0  0
 41 40  1  0  0  0  0
 43 45  1  0  0  0  0
 43 44  1  0  0  0  0
M  END
>  <MODEL>
2

>  <REMARK>
 VINA RESULT:      -6.8      1.600      1.893
  Name = 
  14 active torsions:
  status: ('A' for Active; 'I' for Inactive)
    1  A    between atoms: C_3  and  N_32
    2  A    between atoms: C_5  and  N_31
    3  A    between atoms: C_6  and  C_24
    4  A    between atoms: C_6  and  N_31
    5  A    between atoms: S_12  and  C_14
    6  A    between atoms: C_15  and  C_25
    7  A    between atoms: C_15  and  C_28
    8  A    between atoms: N_18  and  C_29
    9  A    between atoms: N_18  and  C_39
   10  A    between atoms: C_23  and  C_29
   11  A    between atoms: C_23  and  C_38
   12  A    between atoms: C_25  and  N_32
   13  A    between atoms: C_29  and  O_36
   14  A    between atoms: C_39  and  C_43
                            x       y       z     vdW  Elec       q    Type
                         _______ _______ _______ _____ _____    ______ ____

>  <TORSDO>
F 14

$$$$
=
 OpenBabel11042414153D

 45 49  0  0  1  0  0  0  0  0999 V2000
  192.1250  176.0930  145.9330 C   0  0  0  0  0  0  0  0  0  0  0  0
  193.3570  175.3420  146.4510 C   0  0  0  0  0  2  0  0  0  0  0  0
  194.8790  176.2810  140.9100 O   0  0  0  0  0  0  0  0  0  0  0  0
  195.0650  175.5710  143.0540 O   0  0  0  0  0  0  0  0  0  0  0  0
  194.4710  175.1520  145.4470 C   0  0  0  0  0  0  0  0  0  0  0  0
  194.2680  175.6420  144.0870 C   0  0  0  0  0  0  0  0  0  0  0  0
  195.5700  174.5390  145.7860 C   0  0  0  0  0  0  0  0  0  0  0  0
  192.0320  176.5160  144.6590 C   0  0  0  0  0  3  0  0  0  0  0  0
  193.1280  176.2770  143.7220 C   0  0  0  0  0  0  0  0  0  0  0  0
  194.4100  176.1610  142.0720 C   0  0  0  0  0  0  0  0  0  0  0  0
  196.6710  173.9250  146.1150 C   0  0  0  0  0  3  0  0  0  0  0  0
  193.1870  176.6280  142.4240 N   0  0  0  0  0  2  0  0  0  0  0  0
  196.8110  172.4660  145.8640 C   0  0  0  0  0  2  0  0  0  0  0  0
  197.3130  172.2200  144.4490 C   0  0  2  0  0  3  0  0  0  0  0  0
  197.7620  173.3200  142.5800 C   0  0  0  0  0  1  0  0  0  0  0  0
  197.9410  173.3690  143.9640 O   0  0  0  0  0  0  0  0  0  0  0  0
  196.1900  171.8840  143.5890 N   0  0  0  0  0  2  0  0  0  0  0  0
  195.1620  171.3050  144.4370 C   0  0  0  0  0  2  0  0  0  0  0  0
  190.4530  171.7260  144.5630 O   0  0  0  0  0  0  0  0  0  0  0  0
  191.4390  171.4530  143.8310 C   0  0  0  0  0  0  0  0  0  0  0  0
  191.2030  171.0860  142.3810 C   0  0  2  0  0  3  0  0  0  0  0  0
  192.5410  170.0550  141.6860 S   0  0  0  0  0  0  0  0  0  0  0  0
  193.8570  171.1830  142.2320 C   0  0  0  0  0  2  0  0  0  0  0  0
  192.7560  171.4720  144.3970 N   0  0  0  0  0  0  0  0  0  0  0  0
  193.8550  171.3080  143.7220 C   0  0  0  0  0  0  0  0  0  0  0  0
  191.5390  172.1160  140.2020 C   0  0  0  0  0  1  0  0  0  0  0  0
  190.8630  172.2090  141.4920 N   0  0  0  0  0  0  0  0  0  0  0  0
  191.2940  173.4450  142.1310 C   0  0  0  0  0  2  0  0  0  0  0  0
  188.8950  174.0720  142.3940 C   0  0  0  0  0  1  0  0  0  0  0  0
  190.2590  174.5390  141.9200 C   0  0  0  0  0  2  0  0  0  0  0  0
  191.0100  176.3660  146.7960 N   0  0  0  0  0  2  0  0  0  0  0  0
  189.3560  174.6200  146.0450 C   0  0  0  0  0  2  0  0  0  0  0  0
  189.6010  175.9810  146.6540 C   0  0  0  0  0  0  0  0  0  0  0  0
  189.0920  174.8630  147.5330 C   0  0  0  0  0  2  0  0  0  0  0  0
  188.6000  177.0630  146.2570 C   0  0  2  0  0  3  0  0  0  0  0  0
  187.9070  177.4810  147.3950 O   0  0  0  0  0  1  0  0  0  0  0  0
  185.5310  177.9720  143.4950 C   0  0  0  0  0  2  0  0  0  0  0  0
  186.1580  176.7950  145.6380 C   0  0  0  0  0  2  0  0  0  0  0  0
  186.7030  177.1700  142.9060 C   0  0  2  0  0  3  0  0  0  0  0  0
  187.6150  176.5690  145.1900 C   0  0  1  0  0  3  0  0  0  0  0  0
  187.9250  177.2000  143.8210 C   0  0  0  0  0  2  0  0  0  0  0  0
  185.5640  178.0620  145.0250 C   0  0  0  0  0  2  0  0  0  0  0  0
  187.1430  177.7880  141.2680 S   0  0  0  0  0  3  0  0  0  0  0  0
  187.2990  176.5310  140.4230 O   0  0  0  0  0  1  0  0  0  0  0  0
  188.7430  178.3380  141.4570 O   0  0  0  0  0  1  0  0  0  0  0  0
  1  2  1  0  0  0  0
  1 31  1  0  0  0  0
  3 10  2  0  0  0  0
  4  6  1  0  0  0  0
  5  7  2  0  0  0  0
  5  2  1  0  0  0  0
  6  5  1  0  0  0  0
  7 11  2  0  0  0  0
  8  1  2  0  0  0  0
  9  6  2  0  0  0  0
  9  8  1  0  0  0  0
 10 12  1  0  0  0  0
 10  4  1  0  0  0  0
 12  9  1  0  0  0  0
 13 11  1  0  0  0  0
 14 13  1  1  0  0  0
 15 16  1  0  0  0  0
 16 14  1  0  0  0  0
 17 18  1  0  0  0  0
 17 14  1  0  0  0  0
 20 24  1  0  0  0  0
 20 19  2  0  0  0  0
 21 27  1  6  0  0  0
 21 20  1  0  0  0  0
 22 23  1  0  0  0  0
 22 21  1  0  0  0  0
 23 25  1  0  0  0  0
 25 24  2  0  0  0  0
 25 18  1  0  0  0  0
 26 27  1  0  0  0  0
 27 28  1  0  0  0  0
 30 28  1  0  0  0  0
 30 29  1  0  0  0  0
 32 33  1  0  0  0  0
 32 34  1  0  0  0  0
 33 31  1  0  0  0  0
 33 34  1  0  0  0  0
 35 33  1  0  0  0  0
 35 36  1  1  0  0  0
 37 42  1  0  0  0  0
 39 43  1  6  0  0  0
 39 37  1  0  0  0  0
 39 41  1  0  0  0  0
 40 38  1  0  0  0  0
 40 35  1  1  0  0  0
 41 40  1  0  0  0  0
 42 38  1  0  0  0  0
 43 45  1  0  0  0  0
 44 43  1  0  0  0  0
M  END
>  <MODEL>
3

>  <REMARK>
 VINA RESULT:      -6.7      1.615      2.057
  Name = 
  14 active torsions:
  status: ('A' for Active; 'I' for Inactive)
    1  A    between atoms: C_3  and  N_32
    2  A    between atoms: C_5  and  N_31
    3  A    between atoms: C_6  and  C_24
    4  A    between atoms: C_6  and  N_31
    5  A    between atoms: S_12  and  C_14
    6  A    between atoms: C_15  and  C_25
    7  A    between atoms: C_15  and  C_28
    8  A    between atoms: N_18  and  C_29
    9  A    between atoms: N_18  and  C_39
   10  A    between atoms: C_23  and  C_29
   11  A    between atoms: C_23  and  C_38
   12  A    between atoms: C_25  and  N_32
   13  A    between atoms: C_29  and  O_36
   14  A    between atoms: C_39  and  C_43
                            x       y       z     vdW  Elec       q    Type
                         _______ _______ _______ _____ _____    ______ ____

>  <TORSDO>
F 14

$$$$
=
 OpenBabel11042414153D

 45 49  0  0  1  0  0  0  0  0999 V2000
  193.0220  175.7300  145.1420 C   0  0  0  0  0  0  0  0  0  0  0  0
  193.6470  174.4460  145.7000 C   0  0  0  0  0  2  0  0  0  0  0  0
  197.2970  175.6470  141.3260 O   0  0  0  0  0  0  0  0  0  0  0  0
  196.4380  174.5460  143.1100 O   0  0  0  0  0  0  0  0  0  0  0  0
  194.9120  173.9890  145.0120 C   0  0  0  0  0  0  0  0  0  0  0  0
  195.3960  174.7580  143.8700 C   0  0  0  0  0  0  0  0  0  0  0  0
  195.5340  172.9160  145.4140 C   0  0  0  0  0  0  0  0  0  0  0  0
  193.5480  176.3790  144.0870 C   0  0  0  0  0  3  0  0  0  0  0  0
  194.7570  175.8720  143.4390 C   0  0  0  0  0  0  0  0  0  0  0  0
  196.4270  175.5270  142.2280 C   0  0  0  0  0  0  0  0  0  0  0  0
  196.1590  171.8440  145.8090 C   0  0  0  0  0  3  0  0  0  0  0  0
  195.3980  176.3960  142.3790 N   0  0  0  0  0  2  0  0  0  0  0  0
  195.8750  170.5360  145.1590 C   0  0  0  0  0  2  0  0  0  0  0  0
  194.3990  170.1920  145.2900 C   0  0  2  0  0  3  0  0  0  0  0  0
  194.6410  168.7870  146.9850 C   0  0  0  0  0  1  0  0  0  0  0  0
  194.2580  168.8470  145.6450 O   0  0  0  0  0  0  0  0  0  0  0  0
  193.7310  170.4280  144.0210 N   0  0  0  0  0  2  0  0  0  0  0  0
  192.4750  171.0950  144.3190 C   0  0  0  0  0  2  0  0  0  0  0  0
  192.7090  174.5050  141.0500 O   0  0  0  0  0  0  0  0  0  0  0  0
  192.0320  173.5310  141.4690 C   0  0  0  0  0  0  0  0  0  0  0  0
  190.7450  173.1670  140.7600 C   0  0  2  0  0  3  0  0  0  0  0  0
  189.5670  172.2840  141.8430 S   0  0  0  0  0  0  0  0  0  0  0  0
  190.7960  171.0570  142.3800 C   0  0  0  0  0  2  0  0  0  0  0  0
  192.4870  172.8080  142.6210 N   0  0  0  0  0  0  0  0  0  0  0  0
  191.9320  171.7270  143.0850 C   0  0  0  0  0  0  0  0  0  0  0  0
  191.2610  173.4180  138.3950 C   0  0  0  0  0  1  0  0  0  0  0  0
  190.9070  172.4880  139.4640 N   0  0  0  0  0  0  0  0  0  0  0  0
  189.6380  171.8670  139.1110 C   0  0  0  0  0  2  0  0  0  0  0  0
  189.9010  169.6420  138.0190 C   0  0  0  0  0  1  0  0  0  0  0  0
  189.7570  171.1340  137.7850 C   0  0  0  0  0  2  0  0  0  0  0  0
  191.8350  176.2890  145.7270 N   0  0  0  0  0  2  0  0  0  0  0  0
  190.1610  175.3160  144.1150 C   0  0  0  0  0  2  0  0  0  0  0  0
  190.4260  176.0080  145.4310 C   0  0  0  0  0  0  0  0  0  0  0  0
  189.9870  174.5620  145.4360 C   0  0  0  0  0  2  0  0  0  0  0  0
  189.3870  177.0490  145.8410 C   0  0  2  0  0  3  0  0  0  0  0  0
  189.6150  177.4230  147.1670 O   0  0  0  0  0  1  0  0  0  0  0  0
  185.2400  177.6960  146.3400 C   0  0  0  0  0  2  0  0  0  0  0  0
  187.2660  176.3700  147.0480 C   0  0  0  0  0  2  0  0  0  0  0  0
  185.6520  177.2580  144.9260 C   0  0  2  0  0  3  0  0  0  0  0  0
  187.9550  176.5250  145.6780 C   0  0  1  0  0  3  0  0  0  0  0  0
  187.1540  177.4060  144.7030 C   0  0  0  0  0  2  0  0  0  0  0  0
  186.3660  177.5600  147.3710 C   0  0  0  0  0  2  0  0  0  0  0  0
  184.7460  178.1940  143.6750 S   0  0  0  0  0  3  0  0  0  0  0  0
  185.0530  177.4710  142.3710 O   0  0  0  0  0  1  0  0  0  0  0  0
  185.6240  179.6450  143.5390 O   0  0  0  0  0  1  0  0  0  0  0  0
  1  2  1  0  0  0  0
  1 31  1  0  0  0  0
  3 10  2  0  0  0  0
  4  6  1  0  0  0  0
  5  7  2  0  0  0  0
  5  2  1  0  0  0  0
  6  5  1  0  0  0  0
  7 11  2  0  0  0  0
  8  1  2  0  0  0  0
  9  6  2  0  0  0  0
  9  8  1  0  0  0  0
 10 12  1  0  0  0  0
 10  4  1  0  0  0  0
 12  9  1  0  0  0  0
 13 11  1  0  0  0  0
 14 13  1  6  0  0  0
 14 16  1  0  0  0  0
 16 15  1  0  0  0  0
 17 18  1  0  0  0  0
 17 14  1  0  0  0  0
 19 20  2  0  0  0  0
 20 24  1  0  0  0  0
 21 27  1  6  0  0  0
 21 20  1  0  0  0  0
 21 22  1  0  0  0  0
 22 23  1  0  0  0  0
 23 25  1  0  0  0  0
 24 25  2  0  0  0  0
 25 18  1  0  0  0  0
 26 27  1  0  0  0  0
 28 27  1  0  0  0  0
 30 29  1  0  0  0  0
 30 28  1  0  0  0  0
 32 33  1  0  0  0  0
 32 34  1  0  0  0  0
 33 34  1  0  0  0  0
 33 31  1  0  0  0  0
 33 35  1  0  0  0  0
 35 36  1  1  0  0  0
 37 42  1  0  0  0  0
 38 42  1  0  0  0  0
 39 43  1  6  0  0  0
 39 37  1  0  0  0  0
 40 35  1  1  0  0  0
 40 38  1  0  0  0  0
 41 39  1  0  0  0  0
 41 40  1  0  0  0  0
 44 43  1  0  0  0  0
 45 43  1  0  0  0  0
M  END
>  <MODEL>
4

>  <REMARK>
 VINA RESULT:      -6.5      1.635      2.084
  Name = 
  14 active torsions:
  status: ('A' for Active; 'I' for Inactive)
    1  A    between atoms: C_3  and  N_32
    2  A    between atoms: C_5  and  N_31
    3  A    between atoms: C_6  and  C_24
    4  A    between atoms: C_6  and  N_31
    5  A    between atoms: S_12  and  C_14
    6  A    between atoms: C_15  and  C_25
    7  A    between atoms: C_15  and  C_28
    8  A    between atoms: N_18  and  C_29
    9  A    between atoms: N_18  and  C_39
   10  A    between atoms: C_23  and  C_29
   11  A    between atoms: C_23  and  C_38
   12  A    between atoms: C_25  and  N_32
   13  A    between atoms: C_29  and  O_36
   14  A    between atoms: C_39  and  C_43
                            x       y       z     vdW  Elec       q    Type
                         _______ _______ _______ _____ _____    ______ ____

>  <TORSDO>
F 14

$$$$
=
 OpenBabel11042414153D

 45 49  0  0  1  0  0  0  0  0999 V2000
  192.1850  175.6970  145.6600 C   0  0  0  0  0  0  0  0  0  0  0  0
  192.7140  174.3220  146.0820 C   0  0  0  0  0  2  0  0  0  0  0  0
  195.8450  175.2820  141.2690 O   0  0  0  0  0  0  0  0  0  0  0  0
  195.1100  174.2080  143.1230 O   0  0  0  0  0  0  0  0  0  0  0  0
  193.8030  173.7480  145.2060 C   0  0  0  0  0  0  0  0  0  0  0  0
  194.2180  174.5070  144.0310 C   0  0  0  0  0  0  0  0  0  0  0  0
  194.3340  172.5900  145.4820 C   0  0  0  0  0  0  0  0  0  0  0  0
  192.6380  176.3280  144.5600 C   0  0  0  0  0  3  0  0  0  0  0  0
  193.6720  175.7100  143.7310 C   0  0  0  0  0  0  0  0  0  0  0  0
  195.1010  175.2240  142.2820 C   0  0  0  0  0  0  0  0  0  0  0  0
  194.8670  171.4320  145.7500 C   0  0  0  0  0  3  0  0  0  0  0  0
  194.2210  176.2030  142.6060 N   0  0  0  0  0  2  0  0  0  0  0  0
  194.3320  170.2010  145.1080 C   0  0  0  0  0  2  0  0  0  0  0  0
  195.1720  169.8310  143.8940 C   0  0  2  0  0  3  0  0  0  0  0  0
  196.9740  170.3760  142.7280 C   0  0  0  0  0  1  0  0  0  0  0  0
  196.4520  170.3750  144.0230 O   0  0  0  0  0  0  0  0  0  0  0  0
  194.5440  170.3540  142.6920 N   0  0  0  0  0  2  0  0  0  0  0  0
  193.2490  169.7060  142.5710 C   0  0  0  0  0  2  0  0  0  0  0  0
  190.2510  170.4830  138.9980 O   0  0  0  0  0  0  0  0  0  0  0  0
  190.8220  171.0060  139.9890 C   0  0  0  0  0  0  0  0  0  0  0  0
  190.5600  172.4610  140.3090 C   0  0  2  0  0  3  0  0  0  0  0  0
  191.9270  173.2380  141.2410 S   0  0  0  0  0  0  0  0  0  0  0  0
  191.9710  171.9280  142.5000 C   0  0  0  0  0  2  0  0  0  0  0  0
  191.7260  170.2130  140.7730 N   0  0  0  0  0  0  0  0  0  0  0  0
  192.2940  170.6090  141.8730 C   0  0  0  0  0  0  0  0  0  0  0  0
  188.1960  172.8940  139.9220 C   0  0  0  0  0  1  0  0  0  0  0  0
  189.2520  172.7490  140.9200 N   0  0  0  0  0  0  0  0  0  0  0  0
  189.3530  174.0080  141.6460 C   0  0  0  0  0  2  0  0  0  0  0  0
  187.8180  175.9710  141.7150 C   0  0  0  0  0  1  0  0  0  0  0  0
  187.9720  174.4990  142.0490 C   0  0  0  0  0  2  0  0  0  0  0  0
  191.1720  176.3660  146.4250 N   0  0  0  0  0  2  0  0  0  0  0  0
  189.2340  174.9400  145.6780 C   0  0  0  0  0  2  0  0  0  0  0  0
  189.7230  176.1310  146.4680 C   0  0  0  0  0  0  0  0  0  0  0  0
  189.2370  174.9070  147.2080 C   0  0  0  0  0  2  0  0  0  0  0  0
  188.8000  177.3460  146.4550 C   0  0  2  0  0  3  0  0  0  0  0  0
  188.8080  177.9380  147.7210 O   0  0  0  0  0  1  0  0  0  0  0  0
  184.7660  178.5270  146.0090 C   0  0  0  0  0  2  0  0  0  0  0  0
  186.4130  177.0800  147.2590 C   0  0  0  0  0  2  0  0  0  0  0  0
  185.3770  177.8610  144.7660 C   0  0  2  0  0  3  0  0  0  0  0  0
  187.3680  176.9740  146.0550 C   0  0  1  0  0  3  0  0  0  0  0  0
  186.9000  177.8050  144.8460 C   0  0  0  0  0  2  0  0  0  0  0  0
  185.6420  178.3990  147.2600 C   0  0  0  0  0  2  0  0  0  0  0  0
  184.8690  178.7220  143.2620 S   0  0  0  0  0  3  0  0  0  0  0  0
  184.3010  177.6230  142.3750 O   0  0  0  0  0  1  0  0  0  0  0  0
  186.3410  179.1210  142.5050 O   0  0  0  0  0  1  0  0  0  0  0  0
  1  2  1  0  0  0  0
  1 31  1  0  0  0  0
  3 10  2  0  0  0  0
  4  6  1  0  0  0  0
  5  7  2  0  0  0  0
  5  2  1  0  0  0  0
  6  5  1  0  0  0  0
  7 11  2  0  0  0  0
  8  1  2  0  0  0  0
  9  6  2  0  0  0  0
  9  8  1  0  0  0  0
 10 12  1  0  0  0  0
 10  4  1  0  0  0  0
 12  9  1  0  0  0  0
 13 11  1  0  0  0  0
 14 16  1  0  0  0  0
 14 13  1  1  0  0  0
 15 16  1  0  0  0  0
 17 14  1  0  0  0  0
 18 17  1  0  0  0  0
 19 20  2  0  0  0  0
 20 21  1  0  0  0  0
 20 24  1  0  0  0  0
 21 27  1  1  0  0  0
 21 22  1  0  0  0  0
 22 23  1  0  0  0  0
 24 25  2  0  0  0  0
 25 23  1  0  0  0  0
 25 18  1  0  0  0  0
 26 27  1  0  0  0  0
 27 28  1  0  0  0  0
 28 30  1  0  0  0  0
 29 30  1  0  0  0  0
 31 33  1  0  0  0  0
 32 33  1  0  0  0  0
 32 34  1  0  0  0  0
 33 34  1  0  0  0  0
 35 33  1  0  0  0  0
 35 36  1  1  0  0  0
 37 42  1  0  0  0  0
 38 42  1  0  0  0  0
 39 43  1  6  0  0  0
 39 41  1  0  0  0  0
 39 37  1  0  0  0  0
 40 35  1  1  0  0  0
 40 38  1  0  0  0  0
 41 40  1  0  0  0  0
 44 43  1  0  0  0  0
 45 43  1  0  0  0  0
M  END
>  <MODEL>
5

>  <REMARK>
 VINA RESULT:      -6.5      1.485      1.942
  Name = 
  14 active torsions:
  status: ('A' for Active; 'I' for Inactive)
    1  A    between atoms: C_3  and  N_32
    2  A    between atoms: C_5  and  N_31
    3  A    between atoms: C_6  and  C_24
    4  A    between atoms: C_6  and  N_31
    5  A    between atoms: S_12  and  C_14
    6  A    between atoms: C_15  and  C_25
    7  A    between atoms: C_15  and  C_28
    8  A    between atoms: N_18  and  C_29
    9  A    between atoms: N_18  and  C_39
   10  A    between atoms: C_23  and  C_29
   11  A    between atoms: C_23  and  C_38
   12  A    between atoms: C_25  and  N_32
   13  A    between atoms: C_29  and  O_36
   14  A    between atoms: C_39  and  C_43
                            x       y       z     vdW  Elec       q    Type
                         _______ _______ _______ _____ _____    ______ ____

>  <TORSDO>
F 14

$$$$
=
 OpenBabel11042414153D

 45 49  0  0  1  0  0  0  0  0999 V2000
  185.2780  178.9580  143.9320 C   0  0  0  0  0  0  0  0  0  0  0  0
  186.2020  178.4820  142.8050 C   0  0  0  0  0  2  0  0  0  0  0  0
  181.0050  178.1210  140.2050 O   0  0  0  0  0  0  0  0  0  0  0  0
  183.2550  178.0000  140.4400 O   0  0  0  0  0  0  0  0  0  0  0  0
  185.5150  178.1490  141.5000 C   0  0  0  0  0  0  0  0  0  0  0  0
  184.0620  178.2560  141.4360 C   0  0  0  0  0  0  0  0  0  0  0  0
  186.2080  177.7480  140.4710 C   0  0  0  0  0  0  0  0  0  0  0  0
  183.9430  179.0330  143.7760 C   0  0  0  0  0  3  0  0  0  0  0  0
  183.3300  178.6670  142.5000 C   0  0  0  0  0  0  0  0  0  0  0  0
  182.0460  178.2560  140.9000 C   0  0  0  0  0  0  0  0  0  0  0  0
  186.8930  177.3440  139.4390 C   0  0  0  0  0  3  0  0  0  0  0  0
  182.0210  178.6800  142.1870 N   0  0  0  0  0  2  0  0  0  0  0  0
  187.0730  175.8890  139.1910 C   0  0  0  0  0  2  0  0  0  0  0  0
  187.4500  175.6440  137.7370 C   0  0  2  0  0  3  0  0  0  0  0  0
  186.9990  176.6120  135.7970 C   0  0  0  0  0  1  0  0  0  0  0  0
  186.3920  176.0180  136.9050 O   0  0  0  0  0  0  0  0  0  0  0  0
  187.7410  174.2330  137.5430 N   0  0  0  0  0  2  0  0  0  0  0  0
  189.0680  174.1480  136.9570 C   0  0  0  0  0  2  0  0  0  0  0  0
  193.4450  174.2450  138.7460 O   0  0  0  0  0  0  0  0  0  0  0  0
  192.3150  173.6970  138.8280 C   0  0  0  0  0  0  0  0  0  0  0  0
  192.0960  172.6090  139.8580 C   0  0  2  0  0  3  0  0  0  0  0  0
  190.7510  171.4620  139.3970 S   0  0  0  0  0  0  0  0  0  0  0  0
  189.5580  172.7970  139.0820 C   0  0  0  0  0  2  0  0  0  0  0  0
  191.2750  174.1030  137.9270 N   0  0  0  0  0  0  0  0  0  0  0  0
  190.0450  173.6860  137.9810 C   0  0  0  0  0  0  0  0  0  0  0  0
  193.2480  173.0910  141.9470 C   0  0  0  0  0  1  0  0  0  0  0  0
  191.9650  173.0720  141.2490 N   0  0  0  0  0  0  0  0  0  0  0  0
  191.0880  172.1500  141.9570 C   0  0  0  0  0  2  0  0  0  0  0  0
  189.3310  171.9420  143.7140 C   0  0  0  0  0  1  0  0  0  0  0  0
  190.1740  172.9100  142.9040 C   0  0  0  0  0  2  0  0  0  0  0  0
  185.8080  179.3360  145.2110 N   0  0  0  0  0  2  0  0  0  0  0  0
  186.2960  179.3150  147.6830 C   0  0  0  0  0  2  0  0  0  0  0  0
  185.9660  178.5360  146.4320 C   0  0  0  0  0  0  0  0  0  0  0  0
  184.9120  178.6850  147.5050 C   0  0  0  0  0  2  0  0  0  0  0  0
  186.6470  177.1750  146.3120 C   0  0  2  0  0  3  0  0  0  0  0  0
  186.1680  176.3360  147.3220 O   0  0  0  0  0  1  0  0  0  0  0  0
  190.4360  175.7530  145.0930 C   0  0  0  0  0  2  0  0  0  0  0  0
  188.7880  176.0030  146.9880 C   0  0  0  0  0  2  0  0  0  0  0  0
  190.2470  177.2710  144.9470 C   0  0  2  0  0  3  0  0  0  0  0  0
  188.1730  177.2870  146.4000 C   0  0  1  0  0  3  0  0  0  0  0  0
  188.7760  177.6680  145.0360 C   0  0  0  0  0  2  0  0  0  0  0  0
  189.3210  175.0760  145.8980 C   0  0  0  0  0  2  0  0  0  0  0  0
  190.9530  177.8590  143.3930 S   0  0  0  0  0  3  0  0  0  0  0  0
  189.8060  177.7570  142.3980 O   0  0  0  0  0  1  0  0  0  0  0  0
  191.9990  176.6020  142.9210 O   0  0  0  0  0  1  0  0  0  0  0  0
  1 31  1  0  0  0  0
  2  1  1  0  0  0  0
  3 10  2  0  0  0  0
  4 10  1  0  0  0  0
  4  6  1  0  0  0  0
  5  2  1  0  0  0  0
  6  5  1  0  0  0  0
  6  9  2  0  0  0  0
  7  5  2  0  0  0  0
  8  1  2  0  0  0  0
  9  8  1  0  0  0  0
 10 12  1  0  0  0  0
 11  7  2  0  0  0  0
 12  9  1  0  0  0  0
 13 11  1  0  0  0  0
 14 13  1  1  0  0  0
 15 16  1  0  0  0  0
 16 14  1  0  0  0  0
 17 14  1  0  0  0  0
 18 17  1  0  0  0  0
 18 25  1  0  0  0  0
 19 20  2  0  0  0  0
 20 21  1  0  0  0  0
 21 27  1  1  0  0  0
 22 21  1  0  0  0  0
 23 22  1  0  0  0  0
 24 25  2  0  0  0  0
 24 20  1  0  0  0  0
 25 23  1  0  0  0  0
 27 26  1  0  0  0  0
 27 28  1  0  0  0  0
 28 30  1  0  0  0  0
 30 29  1  0  0  0  0
 31 33  1  0  0  0  0
 33 34  1  0  0  0  0
 33 32  1  0  0  0  0
 34 32  1  0  0  0  0
 35 33  1  0  0  0  0
 35 36  1  1  0  0  0
 37 42  1  0  0  0  0
 39 43  1  6  0  0  0
 39 41  1  0  0  0  0
 39 37  1  0  0  0  0
 40 35  1  6  0  0  0
 40 38  1  0  0  0  0
 41 40  1  0  0  0  0
 42 38  1  0  0  0  0
 44 43  1  0  0  0  0
 45 43  1  0  0  0  0
M  END
>  <MODEL>
6

>  <REMARK>
 VINA RESULT:      -6.4      3.524      8.180
  Name = 
  14 active torsions:
  status: ('A' for Active; 'I' for Inactive)
    1  A    between atoms: C_3  and  N_32
    2  A    between atoms: C_5  and  N_31
    3  A    between atoms: C_6  and  C_24
    4  A    between atoms: C_6  and  N_31
    5  A    between atoms: S_12  and  C_14
    6  A    between atoms: C_15  and  C_25
    7  A    between atoms: C_15  and  C_28
    8  A    between atoms: N_18  and  C_29
    9  A    between atoms: N_18  and  C_39
   10  A    between atoms: C_23  and  C_29
   11  A    between atoms: C_23  and  C_38
   12  A    between atoms: C_25  and  N_32
   13  A    between atoms: C_29  and  O_36
   14  A    between atoms: C_39  and  C_43
                            x       y       z     vdW  Elec       q    Type
                         _______ _______ _______ _____ _____    ______ ____

>  <TORSDO>
F 14

$$$$
=
 OpenBabel11042414153D

 45 49  0  0  1  0  0  0  0  0999 V2000
  192.4000  175.8290  145.0070 C   0  0  0  0  0  0  0  0  0  0  0  0
  193.4580  174.9690  145.7070 C   0  0  0  0  0  2  0  0  0  0  0  0
  196.3230  176.5510  140.8910 O   0  0  0  0  0  0  0  0  0  0  0  0
  195.9630  175.5640  142.8990 O   0  0  0  0  0  0  0  0  0  0  0  0
  194.7860  174.8650  144.9920 C   0  0  0  0  0  0  0  0  0  0  0  0
  194.9330  175.5330  143.7040 C   0  0  0  0  0  0  0  0  0  0  0  0
  195.7620  174.1700  145.5070 C   0  0  0  0  0  0  0  0  0  0  0  0
  192.6310  176.4170  143.8180 C   0  0  0  0  0  3  0  0  0  0  0  0
  193.9250  176.2550  143.1570 C   0  0  0  0  0  0  0  0  0  0  0  0
  195.5780  176.3010  141.8740 C   0  0  0  0  0  0  0  0  0  0  0  0
  196.7400  173.4740  146.0120 C   0  0  0  0  0  3  0  0  0  0  0  0
  194.3090  176.7670  141.9730 N   0  0  0  0  0  2  0  0  0  0  0  0
  196.9290  172.0550  145.6090 C   0  0  0  0  0  2  0  0  0  0  0  0
  195.6250  171.2860  145.7610 C   0  0  2  0  0  3  0  0  0  0  0  0
  197.1140  169.6470  145.7070 C   0  0  0  0  0  1  0  0  0  0  0  0
  195.8870  170.0080  146.2640 O   0  0  0  0  0  0  0  0  0  0  0  0
  194.9770  171.1700  144.4660 N   0  0  0  0  0  2  0  0  0  0  0  0
  193.5430  171.1590  144.7060 C   0  0  0  0  0  2  0  0  0  0  0  0
  193.1640  173.8490  140.8360 O   0  0  0  0  0  0  0  0  0  0  0  0
  192.6070  172.9540  141.5200 C   0  0  0  0  0  0  0  0  0  0  0  0
  191.2700  172.4050  141.0700 C   0  0  2  0  0  3  0  0  0  0  0  0
  190.2890  171.7130  142.4480 S   0  0  0  0  0  0  0  0  0  0  0  0
  191.6490  170.6680  143.0480 C   0  0  0  0  0  2  0  0  0  0  0  0
  193.2420  172.4950  142.7220 N   0  0  0  0  0  0  0  0  0  0  0  0
  192.8170  171.5090  143.4550 C   0  0  0  0  0  0  0  0  0  0  0  0
  192.6120  171.5150  139.2450 C   0  0  0  0  0  1  0  0  0  0  0  0
  191.3180  171.4870  139.9200 N   0  0  0  0  0  0  0  0  0  0  0  0
  190.3060  171.9040  138.9590 C   0  0  0  0  0  2  0  0  0  0  0  0
  188.6600  173.7760  139.0310 C   0  0  0  0  0  1  0  0  0  0  0  0
  190.1340  173.4140  138.9940 C   0  0  0  0  0  2  0  0  0  0  0  0
  191.1070  176.0340  145.5960 N   0  0  0  0  0  2  0  0  0  0  0  0
  190.0550  173.7450  145.5920 C   0  0  0  0  0  2  0  0  0  0  0  0
  189.8800  175.2400  145.4600 C   0  0  0  0  0  0  0  0  0  0  0  0
  189.3590  174.5450  146.6970 C   0  0  0  0  0  2  0  0  0  0  0  0
  188.8480  175.6870  144.4290 C   0  0  2  0  0  3  0  0  0  0  0  0
  189.3820  175.5230  143.1480 O   0  0  0  0  0  1  0  0  0  0  0  0
  186.0640  178.7710  143.6480 C   0  0  0  0  0  2  0  0  0  0  0  0
  188.4140  177.9160  143.3060 C   0  0  0  0  0  2  0  0  0  0  0  0
  186.3810  178.5580  145.1370 C   0  0  2  0  0  3  0  0  0  0  0  0
  188.4210  177.1450  144.6400 C   0  0  1  0  0  3  0  0  0  0  0  0
  187.0750  177.2220  145.3820 C   0  0  0  0  0  2  0  0  0  0  0  0
  187.0100  178.0120  142.7110 C   0  0  0  0  0  2  0  0  0  0  0  0
  184.8790  178.6670  146.1330 S   0  0  0  0  0  3  0  0  0  0  0  0
  184.5750  177.2230  146.5120 O   0  0  0  0  0  1  0  0  0  0  0  0
  183.6650  179.0410  145.0000 O   0  0  0  0  0  1  0  0  0  0  0  0
  1 31  1  0  0  0  0
  1  2  1  0  0  0  0
  3 10  2  0  0  0  0
  4  6  1  0  0  0  0
  5  7  2  0  0  0  0
  5  2  1  0  0  0  0
  6  5  1  0  0  0  0
  7 11  2  0  0  0  0
  8  1  2  0  0  0  0
  9  6  2  0  0  0  0
  9  8  1  0  0  0  0
 10 12  1  0  0  0  0
 10  4  1  0  0  0  0
 12  9  1  0  0  0  0
 13 11  1  0  0  0  0
 14 13  1  6  0  0  0
 14 16  1  0  0  0  0
 15 16  1  0  0  0  0
 17 18  1  0  0  0  0
 17 14  1  0  0  0  0
 19 20  2  0  0  0  0
 20 24  1  0  0  0  0
 21 27  1  6  0  0  0
 21 20  1  0  0  0  0
 21 22  1  0  0  0  0
 22 23  1  0  0  0  0
 23 25  1  0  0  0  0
 24 25  2  0  0  0  0
 25 18  1  0  0  0  0
 26 27  1  0  0  0  0
 28 30  1  0  0  0  0
 28 27  1  0  0  0  0
 30 29  1  0  0  0  0
 32 34  1  0  0  0  0
 33 32  1  0  0  0  0
 33 31  1  0  0  0  0
 33 34  1  0  0  0  0
 35 36  1  6  0  0  0
 35 33  1  0  0  0  0
 37 39  1  0  0  0  0
 38 40  1  0  0  0  0
 39 41  1  0  0  0  0
 39 43  1  1  0  0  0
 40 35  1  6  0  0  0
 40 41  1  0  0  0  0
 42 38  1  0  0  0  0
 42 37  1  0  0  0  0
 43 44  1  0  0  0  0
 45 43  1  0  0  0  0
M  END
>  <MODEL>
7

>  <REMARK>
 VINA RESULT:      -6.3      1.803      2.223
  Name = 
  14 active torsions:
  status: ('A' for Active; 'I' for Inactive)
    1  A    between atoms: C_3  and  N_32
    2  A    between atoms: C_5  and  N_31
    3  A    between atoms: C_6  and  C_24
    4  A    between atoms: C_6  and  N_31
    5  A    between atoms: S_12  and  C_14
    6  A    between atoms: C_15  and  C_25
    7  A    between atoms: C_15  and  C_28
    8  A    between atoms: N_18  and  C_29
    9  A    between atoms: N_18  and  C_39
   10  A    between atoms: C_23  and  C_29
   11  A    between atoms: C_23  and  C_38
   12  A    between atoms: C_25  and  N_32
   13  A    between atoms: C_29  and  O_36
   14  A    between atoms: C_39  and  C_43
                            x       y       z     vdW  Elec       q    Type
                         _______ _______ _______ _____ _____    ______ ____

>  <TORSDO>
F 14

$$$$
=
 OpenBabel11042414153D

 45 49  0  0  1  0  0  0  0  0999 V2000
  189.0910  175.0170  143.3930 C   0  0  0  0  0  0  0  0  0  0  0  0
  190.4190  174.2540  143.4540 C   0  0  0  0  0  2  0  0  0  0  0  0
  188.8680  173.3370  137.9170 O   0  0  0  0  0  0  0  0  0  0  0  0
  190.1340  173.2380  139.7940 O   0  0  0  0  0  0  0  0  0  0  0  0
  190.8580  173.6120  142.1580 C   0  0  0  0  0  0  0  0  0  0  0  0
  189.9820  173.7250  140.9970 C   0  0  0  0  0  0  0  0  0  0  0  0
  191.9800  172.9490  142.0950 C   0  0  0  0  0  0  0  0  0  0  0  0
  188.3530  175.0750  142.2680 C   0  0  0  0  0  3  0  0  0  0  0  0
  188.8130  174.4070  141.0510 C   0  0  0  0  0  0  0  0  0  0  0  0
  189.0640  173.6260  139.1270 C   0  0  0  0  0  0  0  0  0  0  0  0
  193.0970  172.2840  142.0240 C   0  0  0  0  0  3  0  0  0  0  0  0
  188.1930  174.3640  139.8580 N   0  0  0  0  0  2  0  0  0  0  0  0
  193.0980  170.8100  142.2260 C   0  0  0  0  0  2  0  0  0  0  0  0
  194.0070  170.4360  143.3870 C   0  0  2  0  0  3  0  0  0  0  0  0
  193.1660  168.5360  142.6200 C   0  0  0  0  0  1  0  0  0  0  0  0
  194.1900  169.0510  143.4160 O   0  0  0  0  0  0  0  0  0  0  0  0
  193.4020  170.8690  144.6350 N   0  0  0  0  0  2  0  0  0  0  0  0
  194.4780  171.3420  145.4890 C   0  0  0  0  0  2  0  0  0  0  0  0
  197.4350  174.8220  144.2620 O   0  0  0  0  0  0  0  0  0  0  0  0
  196.2800  174.5600  144.6840 C   0  0  0  0  0  0  0  0  0  0  0  0
  195.3220  175.6960  144.9690 C   0  0  2  0  0  3  0  0  0  0  0  0
  194.0460  175.2540  146.2000 S   0  0  0  0  0  0  0  0  0  0  0  0
  193.5640  173.7330  145.3300 C   0  0  0  0  0  2  0  0  0  0  0  0
  195.9120  173.1910  144.9070 N   0  0  0  0  0  0  0  0  0  0  0  0
  194.7210  172.7900  145.2420 C   0  0  0  0  0  0  0  0  0  0  0  0
  193.2960  176.5460  143.9220 C   0  0  0  0  0  1  0  0  0  0  0  0
  194.7340  176.3410  143.7820 N   0  0  0  0  0  0  0  0  0  0  0  0
  194.9490  175.4690  142.6350 C   0  0  0  0  0  2  0  0  0  0  0  0
  194.3090  175.2920  140.2320 C   0  0  0  0  0  1  0  0  0  0  0  0
  194.7360  176.2360  141.3410 C   0  0  0  0  0  2  0  0  0  0  0  0
  188.5770  175.6990  144.5470 N   0  0  0  0  0  2  0  0  0  0  0  0
  189.9930  177.4360  145.6970 C   0  0  0  0  0  2  0  0  0  0  0  0
  188.7260  177.1040  144.9460 C   0  0  0  0  0  0  0  0  0  0  0  0
  189.7970  177.9150  144.2570 C   0  0  0  0  0  2  0  0  0  0  0  0
  187.4780  177.8520  145.4090 C   0  0  2  0  0  3  0  0  0  0  0  0
  187.3260  177.6750  146.7870 O   0  0  0  0  0  1  0  0  0  0  0  0
  183.8280  178.8400  143.5200 C   0  0  0  0  0  2  0  0  0  0  0  0
  184.9500  177.7140  145.4810 C   0  0  0  0  0  2  0  0  0  0  0  0
  184.7570  177.9430  142.6860 C   0  0  2  0  0  3  0  0  0  0  0  0
  186.2190  177.3790  144.6740 C   0  0  1  0  0  3  0  0  0  0  0  0
  186.1790  177.9330  143.2380 C   0  0  0  0  0  2  0  0  0  0  0  0
  184.2760  178.9900  144.9780 C   0  0  0  0  0  2  0  0  0  0  0  0
  184.7690  178.4650  140.9580 S   0  0  0  0  0  3  0  0  0  0  0  0
  183.4660  177.9160  140.3910 O   0  0  0  0  0  1  0  0  0  0  0  0
  185.9570  177.4780  140.2430 O   0  0  0  0  0  1  0  0  0  0  0  0
  1  2  1  0  0  0  0
  1 31  1  0  0  0  0
  3 10  2  0  0  0  0
  4  6  1  0  0  0  0
  5  2  1  0  0  0  0
  6  9  2  0  0  0  0
  6  5  1  0  0  0  0
  7  5  2  0  0  0  0
  8  1  2  0  0  0  0
  9  8  1  0  0  0  0
 10  4  1  0  0  0  0
 10 12  1  0  0  0  0
 11  7  2  0  0  0  0
 11 13  1  0  0  0  0
 12  9  1  0  0  0  0
 14 13  1  6  0  0  0
 14 16  1  0  0  0  0
 14 17  1  0  0  0  0
 15 16  1  0  0  0  0
 17 18  1  0  0  0  0
 19 20  2  0  0  0  0
 20 24  1  0  0  0  0
 20 21  1  0  0  0  0
 21 27  1  6  0  0  0
 21 22  1  0  0  0  0
 23 22  1  0  0  0  0
 24 25  2  0  0  0  0
 25 23  1  0  0  0  0
 25 18  1  0  0  0  0
 27 26  1  0  0  0  0
 28 27  1  0  0  0  0
 29 30  1  0  0  0  0
 30 28  1  0  0  0  0
 31 33  1  0  0  0  0
 33 35  1  0  0  0  0
 33 32  1  0  0  0  0
 34 33  1  0  0  0  0
 34 32  1  0  0  0  0
 35 36  1  1  0  0  0
 37 42  1  0  0  0  0
 39 43  1  6  0  0  0
 39 41  1  0  0  0  0
 39 37  1  0  0  0  0
 40 35  1  1  0  0  0
 40 38  1  0  0  0  0
 41 40  1  0  0  0  0
 42 38  1  0  0  0  0
 44 43  1  0  0  0  0
 45 43  1  0  0  0  0
M  END
>  <MODEL>
8

>  <REMARK>
 VINA RESULT:      -6.3      2.105      4.469
  Name = 
  14 active torsions:
  status: ('A' for Active; 'I' for Inactive)
    1  A    between atoms: C_3  and  N_32
    2  A    between atoms: C_5  and  N_31
    3  A    between atoms: C_6  and  C_24
    4  A    between atoms: C_6  and  N_31
    5  A    between atoms: S_12  and  C_14
    6  A    between atoms: C_15  and  C_25
    7  A    between atoms: C_15  and  C_28
    8  A    between atoms: N_18  and  C_29
    9  A    between atoms: N_18  and  C_39
   10  A    between atoms: C_23  and  C_29
   11  A    between atoms: C_23  and  C_38
   12  A    between atoms: C_25  and  N_32
   13  A    between atoms: C_29  and  O_36
   14  A    between atoms: C_39  and  C_43
                            x       y       z     vdW  Elec       q    Type
                         _______ _______ _______ _____ _____    ______ ____

>  <TORSDO>
F 14

$$$$
=
 OpenBabel11042414153D

 45 49  0  0  1  0  0  0  0  0999 V2000
  188.3400  175.5990  141.9220 C   0  0  0  0  0  0  0  0  0  0  0  0
  187.7820  175.6930  143.3470 C   0  0  0  0  0  2  0  0  0  0  0  0
  183.9960  179.0390  140.4530 O   0  0  0  0  0  0  0  0  0  0  0  0
  184.9370  177.9550  142.2070 O   0  0  0  0  0  0  0  0  0  0  0  0
  186.5240  176.5160  143.4980 C   0  0  0  0  0  0  0  0  0  0  0  0
  185.9850  177.1800  142.3160 C   0  0  0  0  0  0  0  0  0  0  0  0
  185.9580  176.6510  144.6650 C   0  0  0  0  0  0  0  0  0  0  0  0
  187.7650  176.2420  140.8880 C   0  0  0  0  0  3  0  0  0  0  0  0
  186.5660  177.0520  141.1000 C   0  0  0  0  0  0  0  0  0  0  0  0
  184.8880  178.2900  140.9320 C   0  0  0  0  0  0  0  0  0  0  0  0
  185.3870  176.7920  145.8270 C   0  0  0  0  0  3  0  0  0  0  0  0
  185.8820  177.7560  140.1800 N   0  0  0  0  0  2  0  0  0  0  0  0
  185.7150  177.9680  146.6770 C   0  0  0  0  0  2  0  0  0  0  0  0
  186.9790  177.7030  147.4820 C   0  0  2  0  0  3  0  0  0  0  0  0
  186.3160  179.7540  147.9890 C   0  0  0  0  0  1  0  0  0  0  0  0
  187.1820  178.7380  148.3980 O   0  0  0  0  0  0  0  0  0  0  0  0
  188.1180  177.6240  146.5830 N   0  0  0  0  0  2  0  0  0  0  0  0
  189.3120  177.5880  147.4100 C   0  0  0  0  0  2  0  0  0  0  0  0
  191.4500  176.9570  143.2400 O   0  0  0  0  0  0  0  0  0  0  0  0
  191.4890  176.6750  144.4650 C   0  0  0  0  0  0  0  0  0  0  0  0
  192.5980  175.7830  144.9820 C   0  0  2  0  0  3  0  0  0  0  0  0
  192.1380  174.9030  146.5160 S   0  0  0  0  0  0  0  0  0  0  0  0
  191.5930  176.4160  147.3630 C   0  0  0  0  0  2  0  0  0  0  0  0
  190.4670  177.1860  145.3320 N   0  0  0  0  0  0  0  0  0  0  0  0
  190.4560  177.0490  146.6250 C   0  0  0  0  0  0  0  0  0  0  0  0
  194.6430  176.4170  143.8250 C   0  0  0  0  0  1  0  0  0  0  0  0
  193.9210  176.4190  145.0940 N   0  0  0  0  0  0  0  0  0  0  0  0
  194.7110  175.6630  146.0570 C   0  0  0  0  0  2  0  0  0  0  0  0
  195.9740  173.5300  145.7930 C   0  0  0  0  0  1  0  0  0  0  0  0
  195.8800  174.9830  145.3630 C   0  0  0  0  0  2  0  0  0  0  0  0
  189.5120  174.8220  141.6370 N   0  0  0  0  0  2  0  0  0  0  0  0
  188.5660  173.0030  140.1720 C   0  0  0  0  0  2  0  0  0  0  0  0
  189.6240  173.4380  141.1590 C   0  0  0  0  0  0  0  0  0  0  0  0
  190.0080  173.2290  139.7120 C   0  0  0  0  0  2  0  0  0  0  0  0
  190.0650  172.3700  142.1550 C   0  0  2  0  0  3  0  0  0  0  0  0
  188.9990  172.0760  143.0100 O   0  0  0  0  0  1  0  0  0  0  0  0
  193.8950  171.4500  143.6880 C   0  0  0  0  0  2  0  0  0  0  0  0
  191.4730  171.9250  144.2130 C   0  0  0  0  0  2  0  0  0  0  0  0
  193.8180  172.7780  142.9190 C   0  0  2  0  0  3  0  0  0  0  0  0
  191.2870  172.8130  142.9680 C   0  0  1  0  0  3  0  0  0  0  0  0
  192.5440  172.8740  142.0830 C   0  0  0  0  0  2  0  0  0  0  0  0
  192.5210  170.8380  143.9860 C   0  0  0  0  0  2  0  0  0  0  0  0
  195.2670  172.9940  141.8650 S   0  0  0  0  0  3  0  0  0  0  0  0
  195.0460  174.3430  141.1950 O   0  0  0  0  0  1  0  0  0  0  0  0
  195.0200  171.8800  140.6020 O   0  0  0  0  0  1  0  0  0  0  0  0
  1  2  1  0  0  0  0
  2  5  1  0  0  0  0
  3 10  2  0  0  0  0
  4  6  1  0  0  0  0
  5  7  2  0  0  0  0
  6  5  1  0  0  0  0
  7 11  2  0  0  0  0
  8  9  1  0  0  0  0
  8  1  2  0  0  0  0
  9  6  2  0  0  0  0
 10  4  1  0  0  0  0
 11 13  1  0  0  0  0
 12 10  1  0  0  0  0
 12  9  1  0  0  0  0
 14 13  1  6  0  0  0
 14 16  1  0  0  0  0
 15 16  1  0  0  0  0
 17 18  1  0  0  0  0
 17 14  1  0  0  0  0
 19 20  2  0  0  0  0
 20 21  1  0  0  0  0
 20 24  1  0  0  0  0
 21 27  1  1  0  0  0
 21 22  1  0  0  0  0
 22 23  1  0  0  0  0
 24 25  2  0  0  0  0
 25 23  1  0  0  0  0
 25 18  1  0  0  0  0
 26 27  1  0  0  0  0
 27 28  1  0  0  0  0
 30 29  1  0  0  0  0
 30 28  1  0  0  0  0
 31  1  1  0  0  0  0
 32 33  1  0  0  0  0
 33 31  1  0  0  0  0
 33 35  1  0  0  0  0
 34 32  1  0  0  0  0
 34 33  1  0  0  0  0
 35 36  1  1  0  0  0
 37 42  1  0  0  0  0
 39 43  1  6  0  0  0
 39 37  1  0  0  0  0
 40 35  1  6  0  0  0
 40 38  1  0  0  0  0
 41 39  1  0  0  0  0
 41 40  1  0  0  0  0
 42 38  1  0  0  0  0
 44 43  1  0  0  0  0
 45 43  1  0  0  0  0
M  END
>  <MODEL>
9

>  <REMARK>
 VINA RESULT:      -6.3      2.761      8.611
  Name = 
  14 active torsions:
  status: ('A' for Active; 'I' for Inactive)
    1  A    between atoms: C_3  and  N_32
    2  A    between atoms: C_5  and  N_31
    3  A    between atoms: C_6  and  C_24
    4  A    between atoms: C_6  and  N_31
    5  A    between atoms: S_12  and  C_14
    6  A    between atoms: C_15  and  C_25
    7  A    between atoms: C_15  and  C_28
    8  A    between atoms: N_18  and  C_29
    9  A    between atoms: N_18  and  C_39
   10  A    between atoms: C_23  and  C_29
   11  A    between atoms: C_23  and  C_38
   12  A    between atoms: C_25  and  N_32
   13  A    between atoms: C_29  and  O_36
   14  A    between atoms: C_39  and  C_43
                            x       y       z     vdW  Elec       q    Type
                         _______ _______ _______ _____ _____    ______ ____

>  <TORSDO>
F 14

$$$$
