=
 OpenBabel11042418433D

 34 39  0  0  1  0  0  0  0  0999 V2000
  185.5930  176.3590  146.0100 O   0  0  0  0  0  0  0  0  0  0  0  0
  193.7440  173.8690  142.6500 O   0  0  0  0  0  0  0  0  0  0  0  0
  192.0460  174.9630  143.8030 N   0  0  0  0  0  0  0  0  0  0  0  0
  190.8260  174.2370  143.6800 C   0  0  2  0  0  0  0  0  0  0  0  0
  190.2510  174.3810  142.2670 C   0  0  2  0  0  3  0  0  0  0  0  0
  196.5320  176.9290  143.7540 O   0  0  0  0  0  1  0  0  0  0  0  0
  191.3830  176.9730  145.4940 C   0  0  0  0  0  2  0  0  0  0  0  0
  194.3390  175.8750  143.7060 N   0  0  0  0  0  2  0  0  0  0  0  0
  195.7180  175.8900  143.3260 C   0  0  0  0  0  0  0  0  0  0  0  0
  187.2710  176.7640  142.7700 C   0  0  0  0  0  2  0  0  0  0  0  0
  187.7540  176.8990  146.7570 C   0  0  0  0  0  2  0  0  0  0  0  0
  186.7590  175.9870  141.7310 O   0  0  0  0  0  0  0  0  0  0  0  0
  186.1440  177.5420  143.4220 C   0  0  0  0  0  2  0  0  0  0  0  0
  191.3030  175.8440  144.7050 C   0  0  2  0  0  0  0  0  0  0  0  0
  190.1270  175.1010  144.5900 C   0  0  0  0  0  0  0  0  0  0  0  0
  190.2130  173.0010  140.1850 N   0  0  1  0  0  0  0  0  0  0  0  0
  188.8430  173.9750  142.2320 N   0  0  0  0  0  2  0  0  0  0  0  0
  186.5780  177.0630  145.8440 C   0  0  0  0  0  0  0  0  0  0  0  0
  196.2060  174.9740  142.6120 O   0  0  0  0  0  0  0  0  0  0  0  0
  193.3940  174.8590  143.3480 C   0  0  0  0  0  0  0  0  0  0  0  0
  190.1690  177.2970  146.1600 C   0  0  0  0  0  3  0  0  0  0  0  0
  186.5920  178.1110  144.7640 C   0  0  2  0  0  3  0  0  0  0  0  0
  188.9830  176.5010  146.0080 C   0  0  0  0  0  0  0  0  0  0  0  0
  188.9670  175.3770  145.2110 N   0  0  0  0  0  0  0  0  0  0  0  0
  191.0610  173.5670  141.2440 C   0  0  0  0  0  2  0  0  0  0  0  0
  187.8410  175.7680  140.8750 C   0  0  0  0  0  2  0  0  0  0  0  0
  188.2620  174.3050  140.9210 C   0  0  1  0  0  3  0  0  0  0  0  0
  189.2290  174.0020  139.7680 C   0  0  0  0  0  2  0  0  0  0  0  0
  185.5430  179.5480  146.3720 O   0  0  0  0  0  1  0  0  0  0  0  0
  185.2240  180.1070  144.1720 O   0  0  0  0  0  0  0  0  0  0  0  0
  185.7520  179.2830  145.1570 C   0  0  0  0  0  0  0  0  0  0  0  0
  192.2530  171.8820  139.4680 C   0  0  0  0  0  2  0  0  0  0  0  0
  191.0870  171.2470  138.7450 C   0  0  0  0  0  2  0  0  0  0  0  0
  191.0730  172.7370  139.0390 C   0  0  0  0  0  3  0  0  0  0  0  0
  2 20  2  0  0  0  0
  3 14  1  0  0  0  0
  4  3  1  0  0  0  0
  4 15  1  1  0  0  0
  4 14  1  0  0  0  0
  5 25  1  6  0  0  0
  5  4  1  0  0  0  0
  7 21  1  0  0  0  0
  9  8  1  0  0  0  0
  9  6  1  0  0  0  0
 10 13  1  0  0  0  0
 12 10  1  0  0  0  0
 13 22  1  0  0  0  0
 14  7  1  6  0  0  0
 15 14  1  0  0  0  0
 15 24  2  0  0  0  0
 16 34  1  6  0  0  0
 16 25  1  0  0  0  0
 17  5  1  0  0  0  0
 18  1  2  0  0  0  0
 18 11  1  0  0  0  0
 19  9  2  0  0  0  0
 20  8  1  0  0  0  0
 20  3  1  0  0  0  0
 22 31  1  1  0  0  0
 22 18  1  0  0  0  0
 23 21  2  0  0  0  0
 23 11  1  0  0  0  0
 24 23  1  0  0  0  0
 26 27  1  0  0  0  0
 26 12  1  0  0  0  0
 27 28  1  6  0  0  0
 27 17  1  0  0  0  0
 28 16  1  0  0  0  0
 30 31  2  0  0  0  0
 31 29  1  0  0  0  0
 33 34  1  0  0  0  0
 33 32  1  0  0  0  0
 34 32  1  0  0  0  0
M  END
>  <MODEL>
1

>  <REMARK>
 VINA RESULT:      -8.3      0.000      0.000
  Name = 
  2 active torsions:
  status: ('A' for Active; 'I' for Inactive)
    1  A    between atoms: N_19  and  C_27
    2  A    between atoms: C_21  and  C_28
                            x       y       z     vdW  Elec       q    Type
                         _______ _______ _______ _____ _____    ______ ____

>  <TORSDO>
F 2

$$$$
=
 OpenBabel11042418433D

 34 39  0  0  1  0  0  0  0  0999 V2000
  186.0000  176.7140  145.0090 O   0  0  0  0  0  0  0  0  0  0  0  0
  194.6060  173.6390  144.3710 O   0  0  0  0  0  0  0  0  0  0  0  0
  192.7250  175.0040  144.4510 N   0  0  0  0  0  0  0  0  0  0  0  0
  191.5820  174.2400  144.8240 C   0  0  2  0  0  0  0  0  0  0  0  0
  191.1380  173.3320  143.6720 C   0  0  2  0  0  3  0  0  0  0  0  0
  197.0310  176.9640  143.1810 O   0  0  0  0  0  0  0  0  0  0  0  0
  191.7480  177.5290  144.3310 C   0  0  0  0  0  2  0  0  0  0  0  0
  194.9400  175.8890  143.8110 N   0  0  0  0  0  2  0  0  0  0  0  0
  196.3440  175.8160  143.5490 C   0  0  0  0  0  0  0  0  0  0  0  0
  187.9490  175.0550  142.3770 C   0  0  0  0  0  2  0  0  0  0  0  0
  188.0300  177.8730  145.2400 C   0  0  0  0  0  2  0  0  0  0  0  0
  187.6020  173.7290  142.1220 O   0  0  0  0  0  0  0  0  0  0  0  0
  186.7080  175.9240  142.3110 C   0  0  0  0  0  2  0  0  0  0  0  0
  191.8330  176.1620  144.5080 C   0  0  2  0  0  0  0  0  0  0  0  0
  190.7340  175.3960  144.8990 C   0  0  0  0  0  0  0  0  0  0  0  0
  191.4090  170.9250  143.0630 N   0  0  1  0  0  0  0  0  0  0  0  0
  189.7750  172.8390  143.8910 N   0  0  0  0  0  2  0  0  0  0  0  0
  186.9390  177.2410  144.4320 C   0  0  0  0  0  0  0  0  0  0  0  0
  196.9680  174.7260  143.6490 O   0  0  0  0  0  1  0  0  0  0  0  0
  194.1150  174.7890  144.2120 C   0  0  0  0  0  0  0  0  0  0  0  0
  190.4550  178.0620  144.5800 C   0  0  0  0  0  3  0  0  0  0  0  0
  186.9780  177.2920  142.9280 C   0  0  2  0  0  3  0  0  0  0  0  0
  189.3530  177.2320  144.9810 C   0  0  0  0  0  0  0  0  0  0  0  0
  189.5010  175.8720  145.1490 N   0  0  0  0  0  0  0  0  0  0  0  0
  192.1030  172.1510  143.4810 C   0  0  0  0  0  2  0  0  0  0  0  0
  188.7750  173.1290  141.6590 C   0  0  0  0  0  2  0  0  0  0  0  0
  189.3010  172.1360  142.6880 C   0  0  1  0  0  3  0  0  0  0  0  0
  190.3960  171.2630  142.0600 C   0  0  0  0  0  2  0  0  0  0  0  0
  185.4400  178.1520  141.3010 O   0  0  0  0  0  0  0  0  0  0  0  0
  185.7300  179.4340  143.1790 O   0  0  0  0  0  1  0  0  0  0  0  0
  186.0160  178.3130  142.4110 C   0  0  0  0  0  0  0  0  0  0  0  0
  193.6460  169.9870  143.2670 C   0  0  0  0  0  2  0  0  0  0  0  0
  192.6530  168.8460  143.2710 C   0  0  0  0  0  2  0  0  0  0  0  0
  192.3940  170.0710  142.4110 C   0  0  0  0  0  3  0  0  0  0  0  0
  3 14  1  0  0  0  0
  3  4  1  0  0  0  0
  4 15  1  1  0  0  0
  5 25  1  1  0  0  0
  5 17  1  0  0  0  0
  5  4  1  0  0  0  0
  6  9  2  0  0  0  0
  7 21  1  0  0  0  0
  8 20  1  0  0  0  0
  9 19  1  0  0  0  0
  9  8  1  0  0  0  0
 12 10  1  0  0  0  0
 13 10  1  0  0  0  0
 13 22  1  0  0  0  0
 14  7  1  6  0  0  0
 14  4  1  0  0  0  0
 14 15  1  0  0  0  0
 15 24  2  0  0  0  0
 16 34  1  6  0  0  0
 16 25  1  0  0  0  0
 18  1  2  0  0  0  0
 18 11  1  0  0  0  0
 20  2  2  0  0  0  0
 20  3  1  0  0  0  0
 21 23  2  0  0  0  0
 22 31  1  6  0  0  0
 22 18  1  0  0  0  0
 23 24  1  0  0  0  0
 23 11  1  0  0  0  0
 26 12  1  0  0  0  0
 27 26  1  6  0  0  0
 27 17  1  0  0  0  0
 28 27  1  0  0  0  0
 28 16  1  0  0  0  0
 29 31  2  0  0  0  0
 31 30  1  0  0  0  0
 32 33  1  0  0  0  0
 34 32  1  0  0  0  0
 34 33  1  0  0  0  0
M  END
>  <MODEL>
2

>  <REMARK>
 VINA RESULT:      -8.2      2.030      2.502
  Name = 
  2 active torsions:
  status: ('A' for Active; 'I' for Inactive)
    1  A    between atoms: N_19  and  C_27
    2  A    between atoms: C_21  and  C_28
                            x       y       z     vdW  Elec       q    Type
                         _______ _______ _______ _____ _____    ______ ____

>  <TORSDO>
F 2

$$$$
=
 OpenBabel11042418433D

 34 39  0  0  1  0  0  0  0  0999 V2000
  185.9860  180.5650  144.0450 O   0  0  0  0  0  0  0  0  0  0  0  0
  192.0780  174.0700  141.8930 O   0  0  0  0  0  0  0  0  0  0  0  0
  190.1490  175.3620  142.0290 N   0  0  0  0  0  0  0  0  0  0  0  0
  190.4150  176.5610  142.7520 C   0  0  2  0  0  0  0  0  0  0  0  0
  190.5810  176.2670  144.2470 C   0  0  2  0  0  3  0  0  0  0  0  0
  189.9600  171.0520  139.7100 O   0  0  0  0  0  0  0  0  0  0  0  0
  187.5820  175.6980  141.2290 C   0  0  0  0  0  2  0  0  0  0  0  0
  190.1590  173.1700  140.8940 N   0  0  0  0  0  2  0  0  0  0  0  0
  190.7420  171.9530  140.4190 C   0  0  0  0  0  0  0  0  0  0  0  0
  187.3120  177.6100  145.7720 C   0  0  0  0  0  2  0  0  0  0  0  0
  185.9870  179.0390  142.2590 C   0  0  0  0  0  2  0  0  0  0  0  0
  188.1770  177.8760  146.8340 O   0  0  0  0  0  0  0  0  0  0  0  0
  186.0260  178.3900  145.9610 C   0  0  0  0  0  2  0  0  0  0  0  0
  188.8170  175.9230  141.8050 C   0  0  2  0  0  0  0  0  0  0  0  0
  189.1090  177.1010  142.4950 C   0  0  0  0  0  0  0  0  0  0  0  0
  192.4920  175.9770  145.8290 N   0  0  1  0  0  0  0  0  0  0  0  0
  190.4720  177.4970  145.0360 N   0  0  0  0  0  2  0  0  0  0  0  0
  185.7600  179.4190  143.6890 C   0  0  0  0  0  0  0  0  0  0  0  0
  191.9550  171.6870  140.6320 O   0  0  0  0  0  1  0  0  0  0  0  0
  190.8530  174.1900  141.6220 C   0  0  0  0  0  0  0  0  0  0  0  0
  186.6600  176.7640  141.4100 C   0  0  0  0  0  3  0  0  0  0  0  0
  185.2170  178.4110  144.6680 C   0  0  2  0  0  3  0  0  0  0  0  0
  187.0080  177.9580  142.1290 C   0  0  0  0  0  0  0  0  0  0  0  0
  188.2620  178.1290  142.6760 N   0  0  0  0  0  0  0  0  0  0  0  0
  191.9190  175.5680  144.5380 C   0  0  0  0  0  2  0  0  0  0  0  0
  189.0280  176.7700  146.8940 C   0  0  0  0  0  2  0  0  0  0  0  0
  190.4370  177.1660  146.4700 C   0  0  1  0  0  3  0  0  0  0  0  0
  191.4250  176.0480  146.8290 C   0  0  0  0  0  2  0  0  0  0  0  0
  183.3310  178.6750  146.1250 O   0  0  0  0  0  1  0  0  0  0  0  0
  182.9120  178.9440  143.8880 O   0  0  0  0  0  0  0  0  0  0  0  0
  183.7710  178.6710  144.9430 C   0  0  0  0  0  0  0  0  0  0  0  0
  194.2790  174.5050  145.0760 C   0  0  0  0  0  2  0  0  0  0  0  0
  194.8390  175.4220  146.1400 C   0  0  0  0  0  2  0  0  0  0  0  0
  193.4080  174.9240  146.2470 C   0  0  0  0  0  3  0  0  0  0  0  0
  3  4  1  0  0  0  0
  4 15  1  6  0  0  0
  4  5  1  0  0  0  0
  5 25  1  6  0  0  0
  5 17  1  0  0  0  0
  6  9  2  0  0  0  0
  7 21  1  0  0  0  0
  8 20  1  0  0  0  0
  9 19  1  0  0  0  0
  9  8  1  0  0  0  0
 10 13  1  0  0  0  0
 10 12  1  0  0  0  0
 11 18  1  0  0  0  0
 12 26  1  0  0  0  0
 14  7  1  1  0  0  0
 14  3  1  0  0  0  0
 14 15  1  0  0  0  0
 14  4  1  0  0  0  0
 15 24  2  0  0  0  0
 16 34  1  1  0  0  0
 16 28  1  0  0  0  0
 17 27  1  0  0  0  0
 18  1  2  0  0  0  0
 18 22  1  0  0  0  0
 20  2  2  0  0  0  0
 20  3  1  0  0  0  0
 21 23  2  0  0  0  0
 22 31  1  1  0  0  0
 22 13  1  0  0  0  0
 23 11  1  0  0  0  0
 23 24  1  0  0  0  0
 25 16  1  0  0  0  0
 27 28  1  6  0  0  0
 27 26  1  0  0  0  0
 30 31  2  0  0  0  0
 31 29  1  0  0  0  0
 32 33  1  0  0  0  0
 32 34  1  0  0  0  0
 33 34  1  0  0  0  0
M  END
>  <MODEL>
3

>  <REMARK>
 VINA RESULT:      -7.9      2.235      5.190
  Name = 
  2 active torsions:
  status: ('A' for Active; 'I' for Inactive)
    1  A    between atoms: N_19  and  C_27
    2  A    between atoms: C_21  and  C_28
                            x       y       z     vdW  Elec       q    Type
                         _______ _______ _______ _____ _____    ______ ____

>  <TORSDO>
F 2

$$$$
=
 OpenBabel11042418433D

 34 39  0  0  1  0  0  0  0  0999 V2000
  187.0870  178.7820  143.3230 O   0  0  0  0  0  0  0  0  0  0  0  0
  193.0030  171.8790  142.1890 O   0  0  0  0  0  0  0  0  0  0  0  0
  191.0660  173.1610  142.3020 N   0  0  0  0  0  0  0  0  0  0  0  0
  191.3980  174.5310  142.5080 C   0  0  2  0  0  0  0  0  0  0  0  0
  191.8890  174.7590  143.9420 C   0  0  2  0  0  3  0  0  0  0  0  0
  190.6760  168.3220  141.6500 O   0  0  0  0  0  0  0  0  0  0  0  0
  188.3730  173.2330  142.0130 C   0  0  0  0  0  2  0  0  0  0  0  0
  190.9800  170.7140  141.9880 N   0  0  0  0  0  2  0  0  0  0  0  0
  191.5290  169.4020  141.8310 C   0  0  0  0  0  0  0  0  0  0  0  0
  188.9290  176.5730  145.6050 C   0  0  0  0  0  2  0  0  0  0  0  0
  186.8150  176.7410  142.1920 C   0  0  0  0  0  2  0  0  0  0  0  0
  189.9760  177.1740  146.3030 O   0  0  0  0  0  0  0  0  0  0  0  0
  187.6620  177.3840  145.7970 C   0  0  0  0  0  2  0  0  0  0  0  0
  189.6820  173.6270  142.1990 C   0  0  2  0  0  0  0  0  0  0  0  0
  190.0360  174.9650  142.3760 C   0  0  0  0  0  0  0  0  0  0  0  0
  194.1020  175.0020  145.0760 N   0  0  1  0  0  0  0  0  0  0  0  0
  191.8680  176.1850  144.2820 N   0  0  0  0  0  2  0  0  0  0  0  0
  186.8660  177.5850  143.4280 C   0  0  0  0  0  0  0  0  0  0  0  0
  192.7740  169.2120  141.8510 O   0  0  0  0  0  1  0  0  0  0  0  0
  191.7430  171.9130  142.1660 C   0  0  0  0  0  0  0  0  0  0  0  0
  187.4410  174.3060  142.0240 C   0  0  0  0  0  3  0  0  0  0  0  0
  186.6040  176.9740  144.7790 C   0  0  2  0  0  3  0  0  0  0  0  0
  187.8540  175.6700  142.2120 C   0  0  0  0  0  0  0  0  0  0  0  0
  189.1800  176.0030  142.3840 N   0  0  0  0  0  0  0  0  0  0  0  0
  193.3010  174.1860  144.1530 C   0  0  0  0  0  2  0  0  0  0  0  0
  190.8910  176.1460  146.5410 C   0  0  0  0  0  2  0  0  0  0  0  0
  192.1520  176.3600  145.7150 C   0  0  1  0  0  3  0  0  0  0  0  0
  193.2630  175.4190  146.2020 C   0  0  0  0  0  2  0  0  0  0  0  0
  184.4410  177.9800  144.5250 O   0  0  0  0  0  0  0  0  0  0  0  0
  184.8170  176.9010  146.5130 O   0  0  0  0  0  1  0  0  0  0  0  0
  185.2330  177.3270  145.2590 C   0  0  0  0  0  0  0  0  0  0  0  0
  195.7620  173.3210  144.4930 C   0  0  0  0  0  2  0  0  0  0  0  0
  196.4880  174.5410  145.0130 C   0  0  0  0  0  2  0  0  0  0  0  0
  195.1500  174.1440  145.6120 C   0  0  0  0  0  3  0  0  0  0  0  0
  1 18  2  0  0  0  0
  3  4  1  0  0  0  0
  4 15  1  6  0  0  0
  4  5  1  0  0  0  0
  5 25  1  6  0  0  0
  5 17  1  0  0  0  0
  6  9  2  0  0  0  0
  7 21  1  0  0  0  0
  8 20  1  0  0  0  0
  9 19  1  0  0  0  0
  9  8  1  0  0  0  0
 10 13  1  0  0  0  0
 10 12  1  0  0  0  0
 11 23  1  0  0  0  0
 11 18  1  0  0  0  0
 12 26  1  0  0  0  0
 14  7  1  1  0  0  0
 14  3  1  0  0  0  0
 14 15  1  0  0  0  0
 14  4  1  0  0  0  0
 15 24  2  0  0  0  0
 16 34  1  1  0  0  0
 16 28  1  0  0  0  0
 17 27  1  0  0  0  0
 18 22  1  0  0  0  0
 20  2  2  0  0  0  0
 20  3  1  0  0  0  0
 21 23  2  0  0  0  0
 22 31  1  1  0  0  0
 22 13  1  0  0  0  0
 23 24  1  0  0  0  0
 25 16  1  0  0  0  0
 27 28  1  1  0  0  0
 27 26  1  0  0  0  0
 29 31  2  0  0  0  0
 31 30  1  0  0  0  0
 32 33  1  0  0  0  0
 32 34  1  0  0  0  0
 33 34  1  0  0  0  0
M  END
>  <MODEL>
4

>  <REMARK>
 VINA RESULT:      -7.7      2.358      5.222
  Name = 
  2 active torsions:
  status: ('A' for Active; 'I' for Inactive)
    1  A    between atoms: N_19  and  C_27
    2  A    between atoms: C_21  and  C_28
                            x       y       z     vdW  Elec       q    Type
                         _______ _______ _______ _____ _____    ______ ____

>  <TORSDO>
F 2

$$$$
=
 OpenBabel11042418433D

 34 39  0  0  1  0  0  0  0  0999 V2000
  194.1130  171.9110  145.3300 O   0  0  0  0  0  0  0  0  0  0  0  0
  186.4660  176.3180  142.8760 O   0  0  0  0  0  0  0  0  0  0  0  0
  188.5270  175.2420  142.8470 N   0  0  0  0  0  0  0  0  0  0  0  0
  188.8010  174.6790  144.1260 C   0  0  2  0  0  0  0  0  0  0  0  0
  189.1480  175.7760  145.1380 C   0  0  2  0  0  3  0  0  0  0  0  0
  186.9500  177.4630  138.7760 O   0  0  0  0  0  0  0  0  0  0  0  0
  190.6210  174.3920  141.3530 C   0  0  0  0  0  2  0  0  0  0  0  0
  187.6460  176.4020  140.8530 N   0  0  0  0  0  2  0  0  0  0  0  0
  186.6910  177.1610  140.1050 C   0  0  0  0  0  0  0  0  0  0  0  0
  192.9500  175.3840  145.5910 C   0  0  0  0  0  2  0  0  0  0  0  0
  193.1340  172.1530  143.2080 C   0  0  0  0  0  2  0  0  0  0  0  0
  192.6170  175.8080  146.8770 O   0  0  0  0  0  0  0  0  0  0  0  0
  194.3450  174.7880  145.6000 C   0  0  0  0  0  2  0  0  0  0  0  0
  189.7650  174.5910  142.4170 C   0  0  2  0  0  0  0  0  0  0  0  0
  189.9980  174.0280  143.6720 C   0  0  0  0  0  0  0  0  0  0  0  0
  187.9480  177.0020  146.9550 N   0  0  1  0  0  0  0  0  0  0  0  0
  189.7930  175.2080  146.3250 N   0  0  0  0  0  2  0  0  0  0  0  0
  193.9500  172.6420  144.3650 C   0  0  0  0  0  0  0  0  0  0  0  0
  185.6180  177.5570  140.6330 O   0  0  0  0  0  1  0  0  0  0  0  0
  187.4980  176.0090  142.2230 C   0  0  0  0  0  0  0  0  0  0  0  0
  191.7420  173.5740  141.6620 C   0  0  0  0  0  3  0  0  0  0  0  0
  194.5990  174.0000  144.3190 C   0  0  2  0  0  3  0  0  0  0  0  0
  191.9400  173.0170  142.9710 C   0  0  0  0  0  0  0  0  0  0  0  0
  191.0440  173.2450  143.9930 N   0  0  0  0  0  0  0  0  0  0  0  0
  187.9020  176.5790  145.5470 C   0  0  0  0  0  2  0  0  0  0  0  0
  191.6430  176.7910  146.6950 C   0  0  0  0  0  2  0  0  0  0  0  0
  190.2910  176.2910  147.1880 C   0  0  1  0  0  3  0  0  0  0  0  0
  189.3010  177.4610  147.2760 C   0  0  0  0  0  2  0  0  0  0  0  0
  196.4790  173.4480  142.9370 O   0  0  0  0  0  0  0  0  0  0  0  0
  196.9750  174.2630  145.0210 O   0  0  0  0  0  1  0  0  0  0  0  0
  196.0640  173.8740  144.0490 C   0  0  0  0  0  0  0  0  0  0  0  0
  185.6940  177.8110  146.5160 C   0  0  0  0  0  2  0  0  0  0  0  0
  185.9060  177.7920  148.0130 C   0  0  0  0  0  2  0  0  0  0  0  0
  187.0590  178.1480  147.0900 C   0  0  0  0  0  3  0  0  0  0  0  0
  3  4  1  0  0  0  0
  4 15  1  1  0  0  0
  4  5  1  0  0  0  0
  5 25  1  1  0  0  0
  5 17  1  0  0  0  0
  6  9  2  0  0  0  0
  7 21  1  0  0  0  0
  8 20  1  0  0  0  0
  9 19  1  0  0  0  0
  9  8  1  0  0  0  0
 10 13  1  0  0  0  0
 10 12  1  0  0  0  0
 11 18  1  0  0  0  0
 14  7  1  1  0  0  0
 14  3  1  0  0  0  0
 14 15  1  0  0  0  0
 14  4  1  0  0  0  0
 15 24  2  0  0  0  0
 16 34  1  6  0  0  0
 16 28  1  0  0  0  0
 17 27  1  0  0  0  0
 18  1  2  0  0  0  0
 20  3  1  0  0  0  0
 20  2  2  0  0  0  0
 21 23  2  0  0  0  0
 22 31  1  1  0  0  0
 22 18  1  0  0  0  0
 22 13  1  0  0  0  0
 23 11  1  0  0  0  0
 23 24  1  0  0  0  0
 25 16  1  0  0  0  0
 26 12  1  0  0  0  0
 27 26  1  6  0  0  0
 27 28  1  0  0  0  0
 29 31  2  0  0  0  0
 31 30  1  0  0  0  0
 32 34  1  0  0  0  0
 32 33  1  0  0  0  0
 34 33  1  0  0  0  0
M  END
>  <MODEL>
5

>  <REMARK>
 VINA RESULT:      -7.5      2.379      8.193
  Name = 
  2 active torsions:
  status: ('A' for Active; 'I' for Inactive)
    1  A    between atoms: N_19  and  C_27
    2  A    between atoms: C_21  and  C_28
                            x       y       z     vdW  Elec       q    Type
                         _______ _______ _______ _____ _____    ______ ____

>  <TORSDO>
F 2

$$$$
=
 OpenBabel11042418433D

 34 39  0  0  1  0  0  0  0  0999 V2000
  196.8940  175.0840  143.9250 O   0  0  0  0  0  0  0  0  0  0  0  0
  187.8980  176.4940  142.9150 O   0  0  0  0  0  0  0  0  0  0  0  0
  190.0320  176.2560  143.8080 N   0  0  0  0  0  0  0  0  0  0  0  0
  190.9880  176.1260  142.7590 C   0  0  2  0  0  0  0  0  0  0  0  0
  190.8800  174.7500  142.0950 C   0  0  2  0  0  3  0  0  0  0  0  0
  186.2220  176.7060  146.8530 O   0  0  0  0  0  1  0  0  0  0  0  0
  191.5810  176.3110  146.0300 C   0  0  0  0  0  2  0  0  0  0  0  0
  188.0430  176.4770  145.2540 N   0  0  0  0  0  2  0  0  0  0  0  0
  186.6500  176.6370  145.5340 C   0  0  0  0  0  0  0  0  0  0  0  0
  193.9910  172.8980  143.4010 C   0  0  0  0  0  2  0  0  0  0  0  0
  195.3630  176.1170  145.3770 C   0  0  0  0  0  2  0  0  0  0  0  0
  193.9020  172.3150  142.1370 O   0  0  0  0  0  0  0  0  0  0  0  0
  195.3620  172.6240  143.9890 C   0  0  0  0  0  2  0  0  0  0  0  0
  191.1850  176.2540  144.7090 C   0  0  2  0  0  0  0  0  0  0  0  0
  192.1030  176.1540  143.6640 C   0  0  0  0  0  0  0  0  0  0  0  0
  189.8420  173.8220  140.0200 N   0  0  1  0  0  0  0  0  0  0  0  0
  192.0750  174.4590  141.2970 N   0  0  0  0  0  2  0  0  0  0  0  0
  196.0150  174.9200  144.7570 C   0  0  0  0  0  0  0  0  0  0  0  0
  185.8050  176.7180  144.6030 O   0  0  0  0  0  0  0  0  0  0  0  0
  188.6200  176.4080  143.9450 C   0  0  0  0  0  0  0  0  0  0  0  0
  192.9900  176.2560  146.2120 C   0  0  0  0  0  3  0  0  0  0  0  0
  195.6230  173.5310  145.1870 C   0  0  2  0  0  3  0  0  0  0  0  0
  193.8960  176.1510  145.1020 C   0  0  0  0  0  0  0  0  0  0  0  0
  193.4400  176.1070  143.8020 N   0  0  0  0  0  0  0  0  0  0  0  0
  189.6210  174.6440  141.2190 C   0  0  0  0  0  2  0  0  0  0  0  0
  192.5360  172.1220  141.9220 C   0  0  0  0  0  2  0  0  0  0  0  0
  192.0360  173.0630  140.8330 C   0  0  1  0  0  3  0  0  0  0  0  0
  190.6300  172.6420  140.3840 C   0  0  0  0  0  2  0  0  0  0  0  0
  197.3190  173.6790  146.8760 O   0  0  0  0  0  1  0  0  0  0  0  0
  196.8840  171.5750  146.0760 O   0  0  0  0  0  0  0  0  0  0  0  0
  196.6630  172.9460  146.0870 C   0  0  0  0  0  0  0  0  0  0  0  0
  187.9070  174.3820  138.6540 C   0  0  0  0  0  2  0  0  0  0  0  0
  188.5590  173.1500  138.0680 C   0  0  0  0  0  2  0  0  0  0  0  0
  188.5380  173.3510  139.5730 C   0  0  0  0  0  3  0  0  0  0  0  0
  1 18  2  0  0  0  0
  2 20  2  0  0  0  0
  3 20  1  0  0  0  0
  3 14  1  0  0  0  0
  4 15  1  6  0  0  0
  4  3  1  0  0  0  0
  4 14  1  0  0  0  0
  5 25  1  6  0  0  0
  5  4  1  0  0  0  0
  7 21  1  0  0  0  0
  8  9  1  0  0  0  0
  9  6  1  0  0  0  0
 10 13  1  0  0  0  0
 12 10  1  0  0  0  0
 13 22  1  0  0  0  0
 14  7  1  1  0  0  0
 15 24  2  0  0  0  0
 15 14  1  0  0  0  0
 16 34  1  1  0  0  0
 16 28  1  0  0  0  0
 16 25  1  0  0  0  0
 17  5  1  0  0  0  0
 18 22  1  0  0  0  0
 18 11  1  0  0  0  0
 19  9  2  0  0  0  0
 20  8  1  0  0  0  0
 22 31  1  6  0  0  0
 23 11  1  0  0  0  0
 23 21  2  0  0  0  0
 24 23  1  0  0  0  0
 26 12  1  0  0  0  0
 27 28  1  1  0  0  0
 27 17  1  0  0  0  0
 27 26  1  0  0  0  0
 30 31  2  0  0  0  0
 31 29  1  0  0  0  0
 32 34  1  0  0  0  0
 33 32  1  0  0  0  0
 33 34  1  0  0  0  0
M  END
>  <MODEL>
6

>  <REMARK>
 VINA RESULT:      -7.3      2.132      7.255
  Name = 
  2 active torsions:
  status: ('A' for Active; 'I' for Inactive)
    1  A    between atoms: N_19  and  C_27
    2  A    between atoms: C_21  and  C_28
                            x       y       z     vdW  Elec       q    Type
                         _______ _______ _______ _____ _____    ______ ____

>  <TORSDO>
F 2

$$$$
=
 OpenBabel11042418433D

 34 39  0  0  1  0  0  0  0  0999 V2000
  195.4100  173.9940  144.1530 O   0  0  0  0  0  0  0  0  0  0  0  0
  187.3290  178.2780  144.6780 O   0  0  0  0  0  0  0  0  0  0  0  0
  189.2990  177.1600  145.2030 N   0  0  0  0  0  0  0  0  0  0  0  0
  190.1260  177.0580  144.0470 C   0  0  2  0  0  0  0  0  0  0  0  0
  189.5550  176.0320  143.0620 C   0  0  2  0  0  3  0  0  0  0  0  0
  185.9450  177.8340  148.7080 O   0  0  0  0  0  1  0  0  0  0  0  0
  190.8560  176.1000  147.1510 C   0  0  0  0  0  2  0  0  0  0  0  0
  187.5390  177.5410  146.8920 N   0  0  0  0  0  2  0  0  0  0  0  0
  186.2830  178.0250  147.3760 C   0  0  0  0  0  0  0  0  0  0  0  0
  191.9400  173.0340  143.4370 C   0  0  0  0  0  2  0  0  0  0  0  0
  194.3460  174.9730  146.0050 C   0  0  0  0  0  2  0  0  0  0  0  0
  191.6240  172.8980  142.0850 O   0  0  0  0  0  0  0  0  0  0  0  0
  193.1670  172.2020  143.7560 C   0  0  0  0  0  2  0  0  0  0  0  0
  190.4180  176.5500  145.9220 C   0  0  2  0  0  0  0  0  0  0  0  0
  191.2190  176.4850  144.7810 C   0  0  0  0  0  0  0  0  0  0  0  0
  188.2040  176.1030  140.9620 N   0  0  1  0  0  0  0  0  0  0  0  0
  190.5630  175.6390  142.0740 N   0  0  0  0  0  2  0  0  0  0  0  0
  194.5540  173.8690  145.0150 C   0  0  0  0  0  0  0  0  0  0  0  0
  185.4790  178.6230  146.6120 O   0  0  0  0  0  0  0  0  0  0  0  0
  188.0180  177.6830  145.5500 C   0  0  0  0  0  0  0  0  0  0  0  0
  192.1760  175.5720  147.1350 C   0  0  0  0  0  3  0  0  0  0  0  0
  193.7480  172.6000  145.1090 C   0  0  2  0  0  3  0  0  0  0  0  0
  192.9620  175.5260  145.9330 C   0  0  0  0  0  0  0  0  0  0  0  0
  192.4730  175.9990  144.7350 N   0  0  0  0  0  0  0  0  0  0  0  0
  188.3010  176.5690  142.3530 C   0  0  0  0  0  2  0  0  0  0  0  0
  190.2630  173.1960  141.9980 C   0  0  0  0  0  2  0  0  0  0  0  0
  190.0590  174.5170  141.2670 C   0  0  1  0  0  3  0  0  0  0  0  0
  188.5780  174.6890  140.9010 C   0  0  0  0  0  2  0  0  0  0  0  0
  194.1210  170.3180  145.7420 O   0  0  0  0  0  0  0  0  0  0  0  0
  195.8580  171.7620  146.1340 O   0  0  0  0  0  1  0  0  0  0  0  0
  194.5710  171.4950  145.6860 C   0  0  0  0  0  0  0  0  0  0  0  0
  186.2830  177.5950  140.8590 C   0  0  0  0  0  2  0  0  0  0  0  0
  186.6550  177.2060  139.4460 C   0  0  0  0  0  2  0  0  0  0  0  0
  186.8030  176.1970  140.5730 C   0  0  0  0  0  3  0  0  0  0  0  0
  1 18  2  0  0  0  0
  2 20  2  0  0  0  0
  3 20  1  0  0  0  0
  3 14  1  0  0  0  0
  4 15  1  6  0  0  0
  4  3  1  0  0  0  0
  4 14  1  0  0  0  0
  5 25  1  6  0  0  0
  5  4  1  0  0  0  0
  8  9  1  0  0  0  0
  9  6  1  0  0  0  0
 10 13  1  0  0  0  0
 12 10  1  0  0  0  0
 13 22  1  0  0  0  0
 14  7  1  6  0  0  0
 15 14  1  0  0  0  0
 16 34  1  1  0  0  0
 16 25  1  0  0  0  0
 17  5  1  0  0  0  0
 18 22  1  0  0  0  0
 18 11  1  0  0  0  0
 19  9  2  0  0  0  0
 20  8  1  0  0  0  0
 21  7  1  0  0  0  0
 22 31  1  6  0  0  0
 23 11  1  0  0  0  0
 23 21  2  0  0  0  0
 24 15  2  0  0  0  0
 24 23  1  0  0  0  0
 26 12  1  0  0  0  0
 27 28  1  1  0  0  0
 27 26  1  0  0  0  0
 27 17  1  0  0  0  0
 28 16  1  0  0  0  0
 31 29  2  0  0  0  0
 31 30  1  0  0  0  0
 33 34  1  0  0  0  0
 33 32  1  0  0  0  0
 34 32  1  0  0  0  0
M  END
>  <MODEL>
7

>  <REMARK>
 VINA RESULT:      -7.2      2.358      7.252
  Name = 
  2 active torsions:
  status: ('A' for Active; 'I' for Inactive)
    1  A    between atoms: N_19  and  C_27
    2  A    between atoms: C_21  and  C_28
                            x       y       z     vdW  Elec       q    Type
                         _______ _______ _______ _____ _____    ______ ____

>  <TORSDO>
F 2

$$$$
=
 OpenBabel11042418433D

 34 39  0  0  1  0  0  0  0  0999 V2000
  188.7930  174.6460  147.3370 O   0  0  0  0  0  0  0  0  0  0  0  0
  194.1110  173.2270  140.0130 O   0  0  0  0  0  0  0  0  0  0  0  0
  193.2680  173.9800  142.0460 N   0  0  0  0  0  0  0  0  0  0  0  0
  192.0810  173.2650  142.3770 C   0  0  2  0  0  0  0  0  0  0  0  0
  190.9150  173.7080  141.4860 C   0  0  2  0  0  3  0  0  0  0  0  0
  197.3350  176.0390  140.2530 O   0  0  0  0  0  1  0  0  0  0  0  0
  193.6630  175.5340  144.2300 C   0  0  0  0  0  2  0  0  0  0  0  0
  195.3040  174.9580  141.0480 N   0  0  0  0  0  2  0  0  0  0  0  0
  196.3300  175.1000  140.0630 C   0  0  0  0  0  0  0  0  0  0  0  0
  188.7490  175.8250  143.8610 C   0  0  0  0  0  2  0  0  0  0  0  0
  191.0850  175.0670  147.0410 C   0  0  0  0  0  2  0  0  0  0  0  0
  187.7400  175.2890  143.0600 O   0  0  0  0  0  0  0  0  0  0  0  0
  188.1400  176.4000  145.1240 C   0  0  0  0  0  2  0  0  0  0  0  0
  193.1220  174.6110  143.3580 C   0  0  2  0  0  0  0  0  0  0  0  0
  191.9760  173.8790  143.6710 C   0  0  0  0  0  0  0  0  0  0  0  0
  189.7720  172.8360  139.4420 N   0  0  1  0  0  0  0  0  0  0  0  0
  189.6330  173.2790  142.0510 N   0  0  0  0  0  2  0  0  0  0  0  0
  189.6350  175.3970  146.8700 C   0  0  0  0  0  0  0  0  0  0  0  0
  196.3390  174.3850  139.0260 O   0  0  0  0  0  0  0  0  0  0  0  0
  194.2210  174.0220  140.9850 C   0  0  0  0  0  0  0  0  0  0  0  0
  192.9470  175.6610  145.4510 C   0  0  0  0  0  3  0  0  0  0  0  0
  189.2200  176.6630  146.1690 C   0  0  2  0  0  3  0  0  0  0  0  0
  191.7690  174.8850  145.7270 C   0  0  0  0  0  0  0  0  0  0  0  0
  191.2810  173.9720  144.8190 N   0  0  0  0  0  0  0  0  0  0  0  0
  191.0670  173.1720  140.0520 C   0  0  0  0  0  2  0  0  0  0  0  0
  188.2600  175.3030  141.7640 C   0  0  0  0  0  2  0  0  0  0  0  0
  188.5270  173.8800  141.2890 C   0  0  1  0  0  3  0  0  0  0  0  0
  188.7970  173.8760  139.7770 C   0  0  0  0  0  2  0  0  0  0  0  0
  187.5510  177.9910  147.2660 O   0  0  0  0  0  0  0  0  0  0  0  0
  189.7050  178.2930  147.9890 O   0  0  0  0  0  1  0  0  0  0  0  0
  188.7710  177.6900  147.1580 C   0  0  0  0  0  0  0  0  0  0  0  0
  191.1260  171.9790  137.6100 C   0  0  0  0  0  2  0  0  0  0  0  0
  189.7110  171.4790  137.4260 C   0  0  0  0  0  2  0  0  0  0  0  0
  189.9560  172.8650  137.9970 C   0  0  0  0  0  3  0  0  0  0  0  0
  2 20  2  0  0  0  0
  3  4  1  0  0  0  0
  3 14  1  0  0  0  0
  4 14  1  0  0  0  0
  4 15  1  1  0  0  0
  5 25  1  6  0  0  0
  5 17  1  0  0  0  0
  5  4  1  0  0  0  0
  7 21  1  0  0  0  0
  9  6  1  0  0  0  0
  9  8  1  0  0  0  0
 10 13  1  0  0  0  0
 12 10  1  0  0  0  0
 13 22  1  0  0  0  0
 14 15  1  0  0  0  0
 14  7  1  6  0  0  0
 15 24  2  0  0  0  0
 16 34  1  6  0  0  0
 16 28  1  0  0  0  0
 16 25  1  0  0  0  0
 18 11  1  0  0  0  0
 18  1  2  0  0  0  0
 19  9  2  0  0  0  0
 20  8  1  0  0  0  0
 20  3  1  0  0  0  0
 21 23  2  0  0  0  0
 22 18  1  0  0  0  0
 22 31  1  1  0  0  0
 23 11  1  0  0  0  0
 24 23  1  0  0  0  0
 26 12  1  0  0  0  0
 27 28  1  6  0  0  0
 27 26  1  0  0  0  0
 27 17  1  0  0  0  0
 31 29  2  0  0  0  0
 31 30  1  0  0  0  0
 32 34  1  0  0  0  0
 33 32  1  0  0  0  0
 33 34  1  0  0  0  0
M  END
>  <MODEL>
8

>  <REMARK>
 VINA RESULT:      -6.9      2.107      2.815
  Name = 
  2 active torsions:
  status: ('A' for Active; 'I' for Inactive)
    1  A    between atoms: N_19  and  C_27
    2  A    between atoms: C_21  and  C_28
                            x       y       z     vdW  Elec       q    Type
                         _______ _______ _______ _____ _____    ______ ____

>  <TORSDO>
F 2

$$$$
=
 OpenBabel11042418433D

 34 39  0  0  1  0  0  0  0  0999 V2000
  195.3410  173.2260  145.6600 O   0  0  0  0  0  0  0  0  0  0  0  0
  188.0790  174.2190  140.1640 O   0  0  0  0  0  0  0  0  0  0  0  0
  190.2070  173.7770  140.9900 N   0  0  0  0  0  0  0  0  0  0  0  0
  190.2050  173.8550  142.4120 C   0  0  2  0  0  0  0  0  0  0  0  0
  190.0950  175.3120  142.8750 C   0  0  2  0  0  3  0  0  0  0  0  0
  189.4840  173.7290  136.1460 O   0  0  0  0  0  0  0  0  0  0  0  0
  192.7320  172.9620  140.4370 C   0  0  0  0  0  2  0  0  0  0  0  0
  189.7380  173.7890  138.5660 N   0  0  0  0  0  2  0  0  0  0  0  0
  188.9210  173.9230  137.3990 C   0  0  0  0  0  0  0  0  0  0  0  0
  193.6450  176.1030  144.1340 C   0  0  0  0  0  2  0  0  0  0  0  0
  194.9510  172.3540  143.5140 C   0  0  0  0  0  2  0  0  0  0  0  0
  192.9160  176.9030  145.0140 O   0  0  0  0  0  0  0  0  0  0  0  0
  195.0570  175.9320  144.6590 C   0  0  0  0  0  2  0  0  0  0  0  0
  191.5980  173.3440  141.1260 C   0  0  2  0  0  0  0  0  0  0  0  0
  191.5640  173.4020  142.5200 C   0  0  0  0  0  0  0  0  0  0  0  0
  188.2770  176.8100  143.7050 N   0  0  1  0  0  0  0  0  0  0  0  0
  190.4700  175.4420  144.2850 N   0  0  0  0  0  2  0  0  0  0  0  0
  195.3390  173.4490  144.4590 C   0  0  0  0  0  0  0  0  0  0  0  0
  187.6980  174.2110  137.4920 O   0  0  0  0  0  1  0  0  0  0  0  0
  189.2850  173.9470  139.9150 C   0  0  0  0  0  0  0  0  0  0  0  0
  193.8360  172.6450  141.2740 C   0  0  0  0  0  3  0  0  0  0  0  0
  195.7650  174.7930  143.9330 C   0  0  2  0  0  3  0  0  0  0  0  0
  193.7510  172.7210  142.7060 C   0  0  0  0  0  0  0  0  0  0  0  0
  192.5870  173.1010  143.3390 N   0  0  0  0  0  0  0  0  0  0  0  0
  188.6790  175.8690  142.6510 C   0  0  0  0  0  2  0  0  0  0  0  0
  191.8920  177.4530  144.2400 C   0  0  0  0  0  2  0  0  0  0  0  0
  190.5470  176.8660  144.6500 C   0  0  1  0  0  3  0  0  0  0  0  0
  189.4070  177.6840  144.0280 C   0  0  0  0  0  2  0  0  0  0  0  0
  197.9210  174.2720  144.8460 O   0  0  0  0  0  1  0  0  0  0  0  0
  197.8990  175.8110  143.1470 O   0  0  0  0  0  0  0  0  0  0  0  0
  197.2500  174.9450  144.0160 C   0  0  0  0  0  0  0  0  0  0  0  0
  186.0920  176.7840  142.6330 C   0  0  0  0  0  2  0  0  0  0  0  0
  185.9540  177.4790  143.9690 C   0  0  0  0  0  2  0  0  0  0  0  0
  187.2240  177.6520  143.1530 C   0  0  0  0  0  3  0  0  0  0  0  0
  3 14  1  0  0  0  0
  3  4  1  0  0  0  0
  4 15  1  1  0  0  0
  4  5  1  0  0  0  0
  5 25  1  1  0  0  0
  5 17  1  0  0  0  0
  6  9  2  0  0  0  0
  7 21  1  0  0  0  0
  8 20  1  0  0  0  0
  9 19  1  0  0  0  0
  9  8  1  0  0  0  0
 10 13  1  0  0  0  0
 10 12  1  0  0  0  0
 11 18  1  0  0  0  0
 14  7  1  6  0  0  0
 14  4  1  0  0  0  0
 14 15  1  0  0  0  0
 15 24  2  0  0  0  0
 16 34  1  6  0  0  0
 16 28  1  0  0  0  0
 17 27  1  0  0  0  0
 18  1  2  0  0  0  0
 20  2  2  0  0  0  0
 20  3  1  0  0  0  0
 21 23  2  0  0  0  0
 22 31  1  1  0  0  0
 22 18  1  0  0  0  0
 22 13  1  0  0  0  0
 23 24  1  0  0  0  0
 23 11  1  0  0  0  0
 25 16  1  0  0  0  0
 26 27  1  0  0  0  0
 26 12  1  0  0  0  0
 27 28  1  6  0  0  0
 30 31  2  0  0  0  0
 31 29  1  0  0  0  0
 32 34  1  0  0  0  0
 32 33  1  0  0  0  0
 34 33  1  0  0  0  0
M  END
>  <MODEL>
9

>  <REMARK>
 VINA RESULT:      -6.8      2.865      7.797
  Name = 
  2 active torsions:
  status: ('A' for Active; 'I' for Inactive)
    1  A    between atoms: N_19  and  C_27
    2  A    between atoms: C_21  and  C_28
                            x       y       z     vdW  Elec       q    Type
                         _______ _______ _______ _____ _____    ______ ____

>  <TORSDO>
F 2

$$$$
