=
 OpenBabel11042419433D

 40 43  0  0  1  0  0  0  0  0999 V2000
  193.5260  173.7890  145.3520 C   0  0  0  0  0  3  0  0  0  0  0  0
  191.8780  175.4010  146.1140 C   0  0  0  0  0  0  0  0  0  0  0  0
  192.9160  176.1960  146.6260 C   0  0  0  0  0  3  0  0  0  0  0  0
  192.1860  174.1910  145.4720 C   0  0  0  0  0  0  0  0  0  0  0  0
  194.5520  174.5810  145.8720 C   0  0  0  0  0  0  0  0  0  0  0  0
  194.2460  175.7890  146.5050 C   0  0  0  0  0  3  0  0  0  0  0  0
  190.4020  177.3450  144.4630 O   0  0  0  0  0  0  0  0  0  0  0  0
  190.5030  175.8000  146.2240 N   0  0  0  0  0  2  0  0  0  0  0  0
  189.8060  176.7470  145.4010 C   0  0  0  0  0  0  0  0  0  0  0  0
  188.3820  177.0250  145.6560 C   0  0  0  0  0  0  0  0  0  0  0  0
  187.7310  176.4720  146.7660 C   0  0  0  0  0  3  0  0  0  0  0  0
  186.4150  176.7350  146.9920 N   0  0  0  0  0  0  0  0  0  0  0  0
  185.6960  177.5350  146.1600 C   0  0  0  0  0  0  0  0  0  0  0  0
  187.6520  177.8500  144.7920 C   0  0  0  0  0  3  0  0  0  0  0  0
  186.3040  178.1080  145.0410 C   0  0  0  0  0  3  0  0  0  0  0  0
  184.3220  177.7870  146.4290 N   0  0  0  0  0  1  0  0  0  0  0  0
  191.1470  173.4070  144.9610 O   0  0  0  0  0  0  0  0  0  0  0  0
  191.3620  172.1380  144.3460 C   0  0  0  0  0  2  0  0  0  0  0  0
  191.0430  172.1750  142.9180 N   0  0  0  0  0  0  0  0  0  0  0  0
  190.5950  170.8600  142.4660 C   0  0  0  0  0  1  0  0  0  0  0  0
  190.0660  173.2400  142.6300 C   0  0  2  0  0  3  0  0  0  0  0  0
  188.6600  172.7240  142.3260 C   0  0  0  0  0  1  0  0  0  0  0  0
  190.5490  174.1190  141.4870 C   0  0  0  0  0  2  0  0  0  0  0  0
  191.3680  175.2010  142.0060 N   0  0  0  0  0  2  0  0  0  0  0  0
  193.7240  174.0250  141.1140 S   0  0  0  0  0  0  0  0  0  0  0  0
  197.3530  176.0440  142.6330 C   0  0  0  0  0  3  0  0  0  0  0  0
  193.6260  176.0470  142.6390 C   0  0  0  0  0  0  0  0  0  0  0  0
  192.7940  175.1580  141.9680 C   0  0  0  0  0  0  0  0  0  0  0  0
  196.0580  176.4770  142.9610 C   0  0  0  0  0  3  0  0  0  0  0  0
  194.9790  175.7710  142.4290 C   0  0  0  0  0  0  0  0  0  0  0  0
  197.5410  174.9630  141.8170 N   0  0  0  0  0  0  0  0  0  0  0  0
  196.4910  174.2670  141.2920 C   0  0  0  0  0  0  0  0  0  0  0  0
  193.1720  177.0670  143.4100 F   0  0  0  0  0  0  0  0  0  0  0  0
  195.1980  174.6790  141.6040 C   0  0  0  0  0  0  0  0  0  0  0  0
  196.7240  173.1470  140.4470 N   0  0  0  0  0  1  0  0  0  0  0  0
  195.9700  174.1590  145.7210 C   0  0  0  0  0  2  0  0  0  0  0  0
  196.0350  172.9090  144.9830 N   0  0  0  0  0  2  0  0  0  0  0  0
  196.7750  171.9730  145.8120 C   0  0  0  0  0  2  0  0  0  0  0  0
  197.7300  171.1620  144.9550 C   0  0  0  0  0  2  0  0  0  0  0  0
  197.3710  169.6900  145.0150 C   0  0  0  0  0  1  0  0  0  0  0  0
  1  4  2  0  0  0  0
  1  5  1  0  0  0  0
  2  8  1  0  0  0  0
  2  3  2  0  0  0  0
  4  2  1  0  0  0  0
  5  6  2  0  0  0  0
  6  3  1  0  0  0  0
  7  9  2  0  0  0  0
  9 10  1  0  0  0  0
  9  8  1  0  0  0  0
 10 11  1  0  0  0  0
 11 12  2  0  0  0  0
 13 16  1  0  0  0  0
 13 12  1  0  0  0  0
 14 15  1  0  0  0  0
 14 10  2  0  0  0  0
 15 13  2  0  0  0  0
 17  4  1  0  0  0  0
 18 17  1  0  0  0  0
 19 18  1  0  0  0  0
 20 19  1  0  0  0  0
 21 22  1  6  0  0  0
 21 19  1  0  0  0  0
 23 24  1  0  0  0  0
 23 21  1  0  0  0  0
 25 34  1  0  0  0  0
 25 28  1  0  0  0  0
 26 29  1  0  0  0  0
 27 33  1  0  0  0  0
 28 24  1  0  0  0  0
 28 27  2  0  0  0  0
 30 27  1  0  0  0  0
 30 29  2  0  0  0  0
 31 26  2  0  0  0  0
 32 34  2  0  0  0  0
 32 31  1  0  0  0  0
 34 30  1  0  0  0  0
 35 32  1  0  0  0  0
 36  5  1  0  0  0  0
 37 36  1  0  0  0  0
 37 38  1  0  0  0  0
 39 40  1  0  0  0  0
 39 38  1  0  0  0  0
M  END
>  <MODEL>
1

>  <REMARK>
 VINA RESULT:      -6.3      0.000      0.000
  Name = 
  13 active torsions:
  status: ('A' for Active; 'I' for Inactive)
    1  A    between atoms: C_2  and  N_7
    2  A    between atoms: C_8  and  C_29
    3  A    between atoms: C_9  and  N_17
    4  A    between atoms: C_11  and  O_24
    5  A    between atoms: N_12  and  C_20
    6  A    between atoms: N_12  and  C_26
    7  A    between atoms: C_15  and  C_38
    8  A    between atoms: N_17  and  C_25
    9  A    between atoms: C_20  and  C_25
   10  A    between atoms: O_24  and  C_26
   11  A    between atoms: N_32  and  C_34
   12  A    between atoms: N_32  and  C_38
   13  A    between atoms: C_34  and  C_35
                            x       y       z     vdW  Elec       q    Type
                         _______ _______ _______ _____ _____    ______ ____

>  <TORSDO>
F 13

$$$$
=
 OpenBabel11042419433D

 40 43  0  0  1  0  0  0  0  0999 V2000
  187.6720  176.1190  145.4020 C   0  0  0  0  0  3  0  0  0  0  0  0
  190.0190  176.3330  145.9900 C   0  0  0  0  0  0  0  0  0  0  0  0
  189.6750  177.3130  146.9350 C   0  0  0  0  0  3  0  0  0  0  0  0
  189.0100  175.7320  145.2200 C   0  0  0  0  0  0  0  0  0  0  0  0
  187.3400  177.1010  146.3380 C   0  0  0  0  0  0  0  0  0  0  0  0
  188.3430  177.6950  147.1090 C   0  0  0  0  0  3  0  0  0  0  0  0
  192.0760  177.5760  144.2860 O   0  0  0  0  0  0  0  0  0  0  0  0
  191.3800  175.9220  145.7950 N   0  0  0  0  0  2  0  0  0  0  0  0
  192.3640  176.5500  144.9610 C   0  0  0  0  0  0  0  0  0  0  0  0
  193.7250  175.9900  144.8920 C   0  0  0  0  0  0  0  0  0  0  0  0
  194.4910  176.1070  143.7250 C   0  0  0  0  0  3  0  0  0  0  0  0
  195.7460  175.5850  143.6720 N   0  0  0  0  0  0  0  0  0  0  0  0
  196.2960  174.9410  144.7360 C   0  0  0  0  0  0  0  0  0  0  0  0
  194.2800  175.3290  145.9950 C   0  0  0  0  0  3  0  0  0  0  0  0
  195.5690  174.8010  145.9210 C   0  0  0  0  0  3  0  0  0  0  0  0
  197.6110  174.4100  144.6430 N   0  0  0  0  0  1  0  0  0  0  0  0
  189.3590  174.7530  144.2850 O   0  0  0  0  0  0  0  0  0  0  0  0
  189.2210  174.9410  142.8770 C   0  0  0  0  0  2  0  0  0  0  0  0
  189.3780  173.6790  142.1520 N   0  0  0  0  0  0  0  0  0  0  0  0
  188.1100  172.9520  142.1230 C   0  0  0  0  0  1  0  0  0  0  0  0
  189.9300  173.9160  140.8070 C   0  0  2  0  0  3  0  0  0  0  0  0
  188.9830  173.5280  139.6720 C   0  0  0  0  0  1  0  0  0  0  0  0
  191.2590  173.1950  140.6360 C   0  0  0  0  0  2  0  0  0  0  0  0
  192.2830  173.8510  141.4320 N   0  0  0  0  0  2  0  0  0  0  0  0
  194.7550  172.6120  141.7150 S   0  0  0  0  0  0  0  0  0  0  0  0
  195.3260  170.7680  145.6930 C   0  0  0  0  0  3  0  0  0  0  0  0
  192.9860  172.6980  143.5280 C   0  0  0  0  0  0  0  0  0  0  0  0
  193.2160  173.1140  142.2210 C   0  0  0  0  0  0  0  0  0  0  0  0
  194.1480  171.4460  145.3400 C   0  0  0  0  0  3  0  0  0  0  0  0
  194.0680  171.9930  144.0600 C   0  0  0  0  0  0  0  0  0  0  0  0
  196.3570  170.6520  144.8020 N   0  0  0  0  0  0  0  0  0  0  0  0
  196.2870  171.1840  143.5480 C   0  0  0  0  0  0  0  0  0  0  0  0
  191.8390  172.9510  144.2070 F   0  0  0  0  0  0  0  0  0  0  0  0
  195.1280  171.8610  143.1760 C   0  0  0  0  0  0  0  0  0  0  0  0
  197.3800  171.0440  142.6470 N   0  0  0  0  0  1  0  0  0  0  0  0
  185.9190  177.4890  146.5400 C   0  0  0  0  0  2  0  0  0  0  0  0
  185.7660  178.9200  146.3350 N   0  0  0  0  0  2  0  0  0  0  0  0
  184.7080  179.0900  145.3540 C   0  0  0  0  0  2  0  0  0  0  0  0
  185.2370  179.8350  144.1420 C   0  0  0  0  0  2  0  0  0  0  0  0
  186.0840  178.9120  143.2870 C   0  0  0  0  0  1  0  0  0  0  0  0
  1  5  1  0  0  0  0
  2  3  2  0  0  0  0
  3  6  1  0  0  0  0
  4  1  2  0  0  0  0
  4  2  1  0  0  0  0
  5 36  1  0  0  0  0
  5  6  2  0  0  0  0
  7  9  2  0  0  0  0
  8  2  1  0  0  0  0
  9  8  1  0  0  0  0
 10  9  1  0  0  0  0
 10 14  1  0  0  0  0
 11 10  2  0  0  0  0
 12 11  1  0  0  0  0
 12 13  2  0  0  0  0
 13 15  1  0  0  0  0
 15 14  2  0  0  0  0
 16 13  1  0  0  0  0
 17  4  1  0  0  0  0
 18 17  1  0  0  0  0
 19 18  1  0  0  0  0
 20 19  1  0  0  0  0
 21 22  1  6  0  0  0
 21 19  1  0  0  0  0
 23 21  1  0  0  0  0
 23 24  1  0  0  0  0
 24 28  1  0  0  0  0
 25 28  1  0  0  0  0
 25 34  1  0  0  0  0
 27 30  1  0  0  0  0
 27 33  1  0  0  0  0
 28 27  2  0  0  0  0
 29 26  1  0  0  0  0
 30 29  2  0  0  0  0
 31 26  2  0  0  0  0
 32 31  1  0  0  0  0
 34 32  2  0  0  0  0
 34 30  1  0  0  0  0
 35 32  1  0  0  0  0
 37 36  1  0  0  0  0
 38 37  1  0  0  0  0
 39 38  1  0  0  0  0
 40 39  1  0  0  0  0
M  END
>  <MODEL>
2

>  <REMARK>
 VINA RESULT:      -6.2      2.026      7.023
  Name = 
  13 active torsions:
  status: ('A' for Active; 'I' for Inactive)
    1  A    between atoms: C_2  and  N_7
    2  A    between atoms: C_8  and  C_29
    3  A    between atoms: C_9  and  N_17
    4  A    between atoms: C_11  and  O_24
    5  A    between atoms: N_12  and  C_20
    6  A    between atoms: N_12  and  C_26
    7  A    between atoms: C_15  and  C_38
    8  A    between atoms: N_17  and  C_25
    9  A    between atoms: C_20  and  C_25
   10  A    between atoms: O_24  and  C_26
   11  A    between atoms: N_32  and  C_34
   12  A    between atoms: N_32  and  C_38
   13  A    between atoms: C_34  and  C_35
                            x       y       z     vdW  Elec       q    Type
                         _______ _______ _______ _____ _____    ______ ____

>  <TORSDO>
F 13

$$$$
=
 OpenBabel11042419433D

 40 43  0  0  1  0  0  0  0  0999 V2000
  188.3030  176.4330  145.0080 C   0  0  0  0  0  3  0  0  0  0  0  0
  190.3960  175.7500  146.0320 C   0  0  0  0  0  0  0  0  0  0  0  0
  190.1140  176.5840  147.1250 C   0  0  0  0  0  3  0  0  0  0  0  0
  189.4830  175.6740  144.9670 C   0  0  0  0  0  0  0  0  0  0  0  0
  188.0340  177.2670  146.0960 C   0  0  0  0  0  0  0  0  0  0  0  0
  188.9390  177.3380  147.1580 C   0  0  0  0  0  3  0  0  0  0  0  0
  193.1170  176.6170  145.3050 O   0  0  0  0  0  0  0  0  0  0  0  0
  191.5960  174.9630  145.9770 N   0  0  0  0  0  2  0  0  0  0  0  0
  192.9120  175.4130  145.6230 C   0  0  0  0  0  0  0  0  0  0  0  0
  194.0340  174.4590  145.6310 C   0  0  0  0  0  0  0  0  0  0  0  0
  193.8220  173.0990  145.3710 C   0  0  0  0  0  3  0  0  0  0  0  0
  194.8650  172.2260  145.3810 N   0  0  0  0  0  0  0  0  0  0  0  0
  196.1360  172.6380  145.6390 C   0  0  0  0  0  0  0  0  0  0  0  0
  195.3380  174.8950  145.8980 C   0  0  0  0  0  3  0  0  0  0  0  0
  196.3950  173.9840  145.9020 C   0  0  0  0  0  3  0  0  0  0  0  0
  197.2010  171.6960  145.6400 N   0  0  0  0  0  1  0  0  0  0  0  0
  189.7690  174.8370  143.8840 O   0  0  0  0  0  0  0  0  0  0  0  0
  189.0070  174.8430  142.6770 C   0  0  0  0  0  2  0  0  0  0  0  0
  189.2220  173.6180  141.9050 N   0  0  0  0  0  0  0  0  0  0  0  0
  188.0280  172.7750  141.9520 C   0  0  0  0  0  1  0  0  0  0  0  0
  189.6410  173.9370  140.5290 C   0  0  2  0  0  3  0  0  0  0  0  0
  188.5610  173.6830  139.4790 C   0  0  0  0  0  1  0  0  0  0  0  0
  190.9040  173.1730  140.1610 C   0  0  0  0  0  2  0  0  0  0  0  0
  191.6530  172.8470  141.3630 N   0  0  0  0  0  2  0  0  0  0  0  0
  194.4030  172.5430  141.6350 S   0  0  0  0  0  0  0  0  0  0  0  0
  196.4740  176.3170  142.6420 C   0  0  0  0  0  3  0  0  0  0  0  0
  193.1740  174.7400  141.9250 C   0  0  0  0  0  0  0  0  0  0  0  0
  192.9410  173.4020  141.6280 C   0  0  0  0  0  0  0  0  0  0  0  0
  195.0840  176.2470  142.4590 C   0  0  0  0  0  3  0  0  0  0  0  0
  194.5280  175.0090  142.1430 C   0  0  0  0  0  0  0  0  0  0  0  0
  197.2510  175.1990  142.5130 N   0  0  0  0  0  0  0  0  0  0  0  0
  196.7150  173.9830  142.2040 C   0  0  0  0  0  0  0  0  0  0  0  0
  192.1960  175.6780  141.9940 F   0  0  0  0  0  0  0  0  0  0  0  0
  195.3380  173.8910  142.0180 C   0  0  0  0  0  0  0  0  0  0  0  0
  197.5540  172.8400  142.0770 N   0  0  0  0  0  1  0  0  0  0  0  0
  186.7710  178.0500  146.1420 C   0  0  0  0  0  2  0  0  0  0  0  0
  186.0310  177.8620  144.9060 N   0  0  0  0  0  2  0  0  0  0  0  0
  185.6670  179.1860  144.4300 C   0  0  0  0  0  2  0  0  0  0  0  0
  184.2130  179.2020  143.9960 C   0  0  0  0  0  2  0  0  0  0  0  0
  184.0030  178.2600  142.8270 C   0  0  0  0  0  1  0  0  0  0  0  0
  1  5  1  0  0  0  0
  2  3  2  0  0  0  0
  3  6  1  0  0  0  0
  4  1  2  0  0  0  0
  4  2  1  0  0  0  0
  5 36  1  0  0  0  0
  5  6  2  0  0  0  0
  7  9  2  0  0  0  0
  8  2  1  0  0  0  0
  9 10  1  0  0  0  0
  9  8  1  0  0  0  0
 10 14  1  0  0  0  0
 11 12  1  0  0  0  0
 11 10  2  0  0  0  0
 12 13  2  0  0  0  0
 13 16  1  0  0  0  0
 13 15  1  0  0  0  0
 14 15  2  0  0  0  0
 17  4  1  0  0  0  0
 18 17  1  0  0  0  0
 19 20  1  0  0  0  0
 19 18  1  0  0  0  0
 21 22  1  6  0  0  0
 21 19  1  0  0  0  0
 23 21  1  0  0  0  0
 23 24  1  0  0  0  0
 24 28  1  0  0  0  0
 25 34  1  0  0  0  0
 27 33  1  0  0  0  0
 27 30  1  0  0  0  0
 28 25  1  0  0  0  0
 28 27  2  0  0  0  0
 29 26  2  0  0  0  0
 30 29  1  0  0  0  0
 31 26  1  0  0  0  0
 32 31  2  0  0  0  0
 34 30  2  0  0  0  0
 34 32  1  0  0  0  0
 35 32  1  0  0  0  0
 37 36  1  0  0  0  0
 38 37  1  0  0  0  0
 39 38  1  0  0  0  0
 40 39  1  0  0  0  0
M  END
>  <MODEL>
3

>  <REMARK>
 VINA RESULT:      -6.1      1.670      6.812
  Name = 
  13 active torsions:
  status: ('A' for Active; 'I' for Inactive)
    1  A    between atoms: C_2  and  N_7
    2  A    between atoms: C_8  and  C_29
    3  A    between atoms: C_9  and  N_17
    4  A    between atoms: C_11  and  O_24
    5  A    between atoms: N_12  and  C_20
    6  A    between atoms: N_12  and  C_26
    7  A    between atoms: C_15  and  C_38
    8  A    between atoms: N_17  and  C_25
    9  A    between atoms: C_20  and  C_25
   10  A    between atoms: O_24  and  C_26
   11  A    between atoms: N_32  and  C_34
   12  A    between atoms: N_32  and  C_38
   13  A    between atoms: C_34  and  C_35
                            x       y       z     vdW  Elec       q    Type
                         _______ _______ _______ _____ _____    ______ ____

>  <TORSDO>
F 13

$$$$
=
 OpenBabel11042419433D

 40 43  0  0  1  0  0  0  0  0999 V2000
  185.9720  177.4940  141.0360 C   0  0  0  0  0  3  0  0  0  0  0  0
  187.4320  177.8710  142.9400 C   0  0  0  0  0  0  0  0  0  0  0  0
  186.4130  178.6150  143.5540 C   0  0  0  0  0  3  0  0  0  0  0  0
  187.2090  177.3060  141.6740 C   0  0  0  0  0  0  0  0  0  0  0  0
  184.9660  178.2440  141.6510 C   0  0  0  0  0  0  0  0  0  0  0  0
  185.1850  178.8000  142.9140 C   0  0  0  0  0  3  0  0  0  0  0  0
  188.0610  176.1310  145.2330 O   0  0  0  0  0  0  0  0  0  0  0  0
  188.7010  177.6650  143.5790 N   0  0  0  0  0  2  0  0  0  0  0  0
  188.9810  176.8060  144.6940 C   0  0  0  0  0  0  0  0  0  0  0  0
  190.3560  176.7120  145.2150 C   0  0  0  0  0  0  0  0  0  0  0  0
  190.6420  175.9470  146.3520 C   0  0  0  0  0  3  0  0  0  0  0  0
  191.9150  175.8680  146.8240 N   0  0  0  0  0  0  0  0  0  0  0  0
  192.9430  176.5180  146.2150 C   0  0  0  0  0  0  0  0  0  0  0  0
  191.4050  177.3870  144.5780 C   0  0  0  0  0  3  0  0  0  0  0  0
  192.7040  177.2920  145.0780 C   0  0  0  0  0  3  0  0  0  0  0  0
  194.2610  176.4110  146.7380 N   0  0  0  0  0  1  0  0  0  0  0  0
  188.2280  176.5620  141.0710 O   0  0  0  0  0  0  0  0  0  0  0  0
  188.0820  175.1870  140.7210 C   0  0  0  0  0  2  0  0  0  0  0  0
  188.7190  174.3140  141.7090 N   0  0  0  0  0  0  0  0  0  0  0  0
  187.8440  173.1880  142.0290 C   0  0  0  0  0  1  0  0  0  0  0  0
  190.0510  173.8870  141.2440 C   0  0  2  0  0  3  0  0  0  0  0  0
  190.0470  173.2540  139.8530 C   0  0  0  0  0  1  0  0  0  0  0  0
  190.6870  172.9310  142.2420 C   0  0  0  0  0  2  0  0  0  0  0  0
  191.1820  173.6720  143.3900 N   0  0  0  0  0  2  0  0  0  0  0  0
  193.4790  173.0040  144.8060 S   0  0  0  0  0  0  0  0  0  0  0  0
  197.0410  175.2760  143.5020 C   0  0  0  0  0  3  0  0  0  0  0  0
  193.3960  174.7300  142.9510 C   0  0  0  0  0  0  0  0  0  0  0  0
  192.5770  173.8410  143.6380 C   0  0  0  0  0  0  0  0  0  0  0  0
  195.7780  175.4580  142.9180 C   0  0  0  0  0  3  0  0  0  0  0  0
  194.7180  174.6910  143.4010 C   0  0  0  0  0  0  0  0  0  0  0  0
  197.2180  174.3730  144.5130 N   0  0  0  0  0  0  0  0  0  0  0  0
  196.1880  173.6190  144.9920 C   0  0  0  0  0  0  0  0  0  0  0  0
  192.9580  175.5410  141.9560 F   0  0  0  0  0  0  0  0  0  0  0  0
  194.9250  173.7830  144.4270 C   0  0  0  0  0  0  0  0  0  0  0  0
  196.4080  172.6890  146.0460 N   0  0  0  0  0  1  0  0  0  0  0  0
  183.6500  178.4190  140.9790 C   0  0  0  0  0  2  0  0  0  0  0  0
  182.5800  178.2900  141.9540 N   0  0  0  0  0  2  0  0  0  0  0  0
  181.3350  178.2590  141.2050 C   0  0  0  0  0  2  0  0  0  0  0  0
  180.4020  179.3470  141.7020 C   0  0  0  0  0  2  0  0  0  0  0  0
  179.9700  180.2360  140.5510 C   0  0  0  0  0  1  0  0  0  0  0  0
  1  5  2  0  0  0  0
  1  4  1  0  0  0  0
  2  3  1  0  0  0  0
  2  8  1  0  0  0  0
  4  2  2  0  0  0  0
  5  6  1  0  0  0  0
  6  3  2  0  0  0  0
  8  9  1  0  0  0  0
  9 10  1  0  0  0  0
  9  7  2  0  0  0  0
 10 11  1  0  0  0  0
 11 12  2  0  0  0  0
 13 16  1  0  0  0  0
 13 12  1  0  0  0  0
 14 15  1  0  0  0  0
 14 10  2  0  0  0  0
 15 13  2  0  0  0  0
 17  4  1  0  0  0  0
 18 17  1  0  0  0  0
 18 19  1  0  0  0  0
 19 20  1  0  0  0  0
 21 22  1  6  0  0  0
 21 19  1  0  0  0  0
 21 23  1  0  0  0  0
 23 24  1  0  0  0  0
 24 28  1  0  0  0  0
 26 31  1  0  0  0  0
 27 30  1  0  0  0  0
 27 28  2  0  0  0  0
 28 25  1  0  0  0  0
 29 30  1  0  0  0  0
 29 26  2  0  0  0  0
 30 34  2  0  0  0  0
 31 32  2  0  0  0  0
 32 35  1  0  0  0  0
 33 27  1  0  0  0  0
 34 25  1  0  0  0  0
 34 32  1  0  0  0  0
 36  5  1  0  0  0  0
 36 37  1  0  0  0  0
 38 39  1  0  0  0  0
 38 37  1  0  0  0  0
 40 39  1  0  0  0  0
M  END
>  <MODEL>
4

>  <REMARK>
 VINA RESULT:      -5.9      3.077      7.842
  Name = 
  13 active torsions:
  status: ('A' for Active; 'I' for Inactive)
    1  A    between atoms: C_2  and  N_7
    2  A    between atoms: C_8  and  C_29
    3  A    between atoms: C_9  and  N_17
    4  A    between atoms: C_11  and  O_24
    5  A    between atoms: N_12  and  C_20
    6  A    between atoms: N_12  and  C_26
    7  A    between atoms: C_15  and  C_38
    8  A    between atoms: N_17  and  C_25
    9  A    between atoms: C_20  and  C_25
   10  A    between atoms: O_24  and  C_26
   11  A    between atoms: N_32  and  C_34
   12  A    between atoms: N_32  and  C_38
   13  A    between atoms: C_34  and  C_35
                            x       y       z     vdW  Elec       q    Type
                         _______ _______ _______ _____ _____    ______ ____

>  <TORSDO>
F 13

$$$$
=
 OpenBabel11042419433D

 40 43  0  0  1  0  0  0  0  0999 V2000
  187.6790  177.4480  144.2320 C   0  0  0  0  0  3  0  0  0  0  0  0
  188.4390  175.3600  143.2520 C   0  0  0  0  0  0  0  0  0  0  0  0
  187.4190  175.4580  142.2930 C   0  0  0  0  0  3  0  0  0  0  0  0
  188.5700  176.3630  144.2270 C   0  0  0  0  0  0  0  0  0  0  0  0
  186.6610  177.5330  143.2780 C   0  0  0  0  0  0  0  0  0  0  0  0
  186.5350  176.5390  142.3040 C   0  0  0  0  0  3  0  0  0  0  0  0
  191.1570  175.2490  142.1210 O   0  0  0  0  0  0  0  0  0  0  0  0
  189.3610  174.2600  143.2590 N   0  0  0  0  0  2  0  0  0  0  0  0
  190.6840  174.2340  142.7030 C   0  0  0  0  0  0  0  0  0  0  0  0
  191.4970  173.0100  142.8140 C   0  0  0  0  0  0  0  0  0  0  0  0
  192.1810  172.7080  143.9980 C   0  0  0  0  0  3  0  0  0  0  0  0
  192.9300  171.5760  144.0890 N   0  0  0  0  0  0  0  0  0  0  0  0
  193.0360  170.7070  143.0490 C   0  0  0  0  0  0  0  0  0  0  0  0
  191.5990  172.1240  141.7350 C   0  0  0  0  0  3  0  0  0  0  0  0
  192.3710  170.9670  141.8490 C   0  0  0  0  0  3  0  0  0  0  0  0
  193.8280  169.5330  143.1820 N   0  0  0  0  0  1  0  0  0  0  0  0
  189.5910  176.2610  145.1760 O   0  0  0  0  0  0  0  0  0  0  0  0
  190.7130  177.1410  145.2070 C   0  0  0  0  0  2  0  0  0  0  0  0
  191.4880  176.9760  146.4370 N   0  0  0  0  0  0  0  0  0  0  0  0
  190.6210  176.5260  147.5250 C   0  0  0  0  0  1  0  0  0  0  0  0
  192.6350  176.0790  146.2150 C   0  0  2  0  0  3  0  0  0  0  0  0
  192.5170  174.7340  146.9310 C   0  0  0  0  0  1  0  0  0  0  0  0
  193.9360  176.7600  146.6110 C   0  0  0  0  0  2  0  0  0  0  0  0
  194.8090  176.8710  145.4540 N   0  0  0  0  0  2  0  0  0  0  0  0
  194.7100  175.5900  142.9890 S   0  0  0  0  0  0  0  0  0  0  0  0
  196.6600  171.6220  143.0170 C   0  0  0  0  0  3  0  0  0  0  0  0
  195.7980  174.6160  145.0600 C   0  0  0  0  0  0  0  0  0  0  0  0
  195.1170  175.7490  144.6270 C   0  0  0  0  0  0  0  0  0  0  0  0
  196.5980  172.4370  144.1580 C   0  0  0  0  0  3  0  0  0  0  0  0
  195.9610  173.6720  144.0440 C   0  0  0  0  0  0  0  0  0  0  0  0
  196.1090  172.0340  141.8350 N   0  0  0  0  0  0  0  0  0  0  0  0
  195.4850  173.2400  141.7140 C   0  0  0  0  0  0  0  0  0  0  0  0
  196.2530  174.4510  146.3280 F   0  0  0  0  0  0  0  0  0  0  0  0
  195.4110  174.0660  142.8330 C   0  0  0  0  0  0  0  0  0  0  0  0
  194.9230  173.6360  140.4680 N   0  0  0  0  0  1  0  0  0  0  0  0
  185.7360  178.6980  143.2760 C   0  0  0  0  0  2  0  0  0  0  0  0
  184.4700  178.3200  143.8800 N   0  0  0  0  0  2  0  0  0  0  0  0
  184.3000  179.1590  145.0540 C   0  0  0  0  0  2  0  0  0  0  0  0
  184.1580  178.2960  146.2940 C   0  0  0  0  0  2  0  0  0  0  0  0
  185.4420  178.3180  147.1000 C   0  0  0  0  0  1  0  0  0  0  0  0
  2  8  1  0  0  0  0
  2  4  2  0  0  0  0
  3  6  2  0  0  0  0
  3  2  1  0  0  0  0
  4  1  1  0  0  0  0
  4 17  1  0  0  0  0
  5  1  2  0  0  0  0
  6  5  1  0  0  0  0
  7  9  2  0  0  0  0
  9 10  1  0  0  0  0
  9  8  1  0  0  0  0
 10 11  1  0  0  0  0
 11 12  2  0  0  0  0
 13 16  1  0  0  0  0
 13 12  1  0  0  0  0
 14 15  1  0  0  0  0
 14 10  2  0  0  0  0
 15 13  2  0  0  0  0
 17 18  1  0  0  0  0
 18 19  1  0  0  0  0
 19 20  1  0  0  0  0
 21 19  1  0  0  0  0
 21 23  1  0  0  0  0
 21 22  1  1  0  0  0
 24 23  1  0  0  0  0
 25 28  1  0  0  0  0
 26 29  1  0  0  0  0
 27 33  1  0  0  0  0
 28 27  2  0  0  0  0
 28 24  1  0  0  0  0
 30 29  2  0  0  0  0
 30 27  1  0  0  0  0
 31 26  2  0  0  0  0
 32 31  1  0  0  0  0
 32 34  2  0  0  0  0
 34 25  1  0  0  0  0
 34 30  1  0  0  0  0
 35 32  1  0  0  0  0
 36  5  1  0  0  0  0
 36 37  1  0  0  0  0
 37 38  1  0  0  0  0
 38 39  1  0  0  0  0
 39 40  1  0  0  0  0
M  END
>  <MODEL>
5

>  <REMARK>
 VINA RESULT:      -5.9      2.212      7.534
  Name = 
  13 active torsions:
  status: ('A' for Active; 'I' for Inactive)
    1  A    between atoms: C_2  and  N_7
    2  A    between atoms: C_8  and  C_29
    3  A    between atoms: C_9  and  N_17
    4  A    between atoms: C_11  and  O_24
    5  A    between atoms: N_12  and  C_20
    6  A    between atoms: N_12  and  C_26
    7  A    between atoms: C_15  and  C_38
    8  A    between atoms: N_17  and  C_25
    9  A    between atoms: C_20  and  C_25
   10  A    between atoms: O_24  and  C_26
   11  A    between atoms: N_32  and  C_34
   12  A    between atoms: N_32  and  C_38
   13  A    between atoms: C_34  and  C_35
                            x       y       z     vdW  Elec       q    Type
                         _______ _______ _______ _____ _____    ______ ____

>  <TORSDO>
F 13

$$$$
=
 OpenBabel11042419433D

 40 43  0  0  1  0  0  0  0  0999 V2000
  193.2560  174.1350  145.3770 C   0  0  0  0  0  3  0  0  0  0  0  0
  191.6090  175.7420  146.1530 C   0  0  0  0  0  0  0  0  0  0  0  0
  192.6460  176.5220  146.6880 C   0  0  0  0  0  3  0  0  0  0  0  0
  191.9170  174.5420  145.4920 C   0  0  0  0  0  0  0  0  0  0  0  0
  194.2810  174.9130  145.9200 C   0  0  0  0  0  0  0  0  0  0  0  0
  193.9750  176.1120  146.5710 C   0  0  0  0  0  3  0  0  0  0  0  0
  190.1520  177.7070  144.5100 O   0  0  0  0  0  0  0  0  0  0  0  0
  190.2350  176.1450  146.2570 N   0  0  0  0  0  2  0  0  0  0  0  0
  189.5480  177.1030  145.4390 C   0  0  0  0  0  0  0  0  0  0  0  0
  188.1230  177.3840  145.6870 C   0  0  0  0  0  0  0  0  0  0  0  0
  187.5060  176.9690  146.8730 C   0  0  0  0  0  3  0  0  0  0  0  0
  186.1890  177.2340  147.0920 N   0  0  0  0  0  0  0  0  0  0  0  0
  185.4360  177.9040  146.1790 C   0  0  0  0  0  0  0  0  0  0  0  0
  187.3580  178.0750  144.7390 C   0  0  0  0  0  3  0  0  0  0  0  0
  186.0100  178.3380  144.9820 C   0  0  0  0  0  3  0  0  0  0  0  0
  184.0630  178.1620  146.4440 N   0  0  0  0  0  1  0  0  0  0  0  0
  190.8790  173.7720  144.9580 O   0  0  0  0  0  0  0  0  0  0  0  0
  190.8120  173.4090  143.5800 C   0  0  0  0  0  2  0  0  0  0  0  0
  190.7180  174.5890  142.7200 N   0  0  0  0  0  0  0  0  0  0  0  0
  191.9390  174.7370  141.9290 C   0  0  0  0  0  1  0  0  0  0  0  0
  189.5030  174.5330  141.8880 C   0  0  2  0  0  3  0  0  0  0  0  0
  188.4110  175.5100  142.3220 C   0  0  0  0  0  1  0  0  0  0  0  0
  188.9420  173.1200  141.8490 C   0  0  0  0  0  2  0  0  0  0  0  0
  188.0200  172.9840  140.7340 N   0  0  0  0  0  2  0  0  0  0  0  0
  189.3320  171.9210  138.5250 S   0  0  0  0  0  0  0  0  0  0  0  0
  189.2730  174.6100  135.0160 C   0  0  0  0  0  3  0  0  0  0  0  0
  188.2060  174.1910  138.5610 C   0  0  0  0  0  0  0  0  0  0  0  0
  188.4500  173.0930  139.3780 C   0  0  0  0  0  0  0  0  0  0  0  0
  188.6680  174.9520  136.2350 C   0  0  0  0  0  3  0  0  0  0  0  0
  188.7420  174.0330  137.2820 C   0  0  0  0  0  0  0  0  0  0  0  0
  189.9140  173.4110  134.8680 N   0  0  0  0  0  0  0  0  0  0  0  0
  189.9910  172.5060  135.8860 C   0  0  0  0  0  0  0  0  0  0  0  0
  187.5220  175.2920  138.9650 F   0  0  0  0  0  0  0  0  0  0  0  0
  189.3980  172.8240  137.1050 C   0  0  0  0  0  0  0  0  0  0  0  0
  190.6660  171.2680  135.6960 N   0  0  0  0  0  1  0  0  0  0  0  0
  195.6990  174.4870  145.7740 C   0  0  0  0  0  2  0  0  0  0  0  0
  195.7540  173.0930  145.3690 N   0  0  0  0  0  2  0  0  0  0  0  0
  197.0720  172.6030  145.7360 C   0  0  0  0  0  2  0  0  0  0  0  0
  197.1950  171.1310  145.3890 C   0  0  0  0  0  2  0  0  0  0  0  0
  196.2960  170.3020  146.2860 C   0  0  0  0  0  1  0  0  0  0  0  0
  1  4  2  0  0  0  0
  1  5  1  0  0  0  0
  2  8  1  0  0  0  0
  2  3  2  0  0  0  0
  4  2  1  0  0  0  0
  5  6  2  0  0  0  0
  6  3  1  0  0  0  0
  7  9  2  0  0  0  0
  9 10  1  0  0  0  0
  9  8  1  0  0  0  0
 10 11  1  0  0  0  0
 11 12  2  0  0  0  0
 13 16  1  0  0  0  0
 13 12  1  0  0  0  0
 14 15  1  0  0  0  0
 14 10  2  0  0  0  0
 15 13  2  0  0  0  0
 17  4  1  0  0  0  0
 18 17  1  0  0  0  0
 19 18  1  0  0  0  0
 20 19  1  0  0  0  0
 21 22  1  1  0  0  0
 21 19  1  0  0  0  0
 23 21  1  0  0  0  0
 24 23  1  0  0  0  0
 25 28  1  0  0  0  0
 26 29  1  0  0  0  0
 27 33  1  0  0  0  0
 27 28  2  0  0  0  0
 28 24  1  0  0  0  0
 29 30  2  0  0  0  0
 30 27  1  0  0  0  0
 31 26  2  0  0  0  0
 31 32  1  0  0  0  0
 32 34  2  0  0  0  0
 34 30  1  0  0  0  0
 34 25  1  0  0  0  0
 35 32  1  0  0  0  0
 36  5  1  0  0  0  0
 37 38  1  0  0  0  0
 37 36  1  0  0  0  0
 39 38  1  0  0  0  0
 39 40  1  0  0  0  0
M  END
>  <MODEL>
6

>  <REMARK>
 VINA RESULT:      -5.8      3.186      4.554
  Name = 
  13 active torsions:
  status: ('A' for Active; 'I' for Inactive)
    1  A    between atoms: C_2  and  N_7
    2  A    between atoms: C_8  and  C_29
    3  A    between atoms: C_9  and  N_17
    4  A    between atoms: C_11  and  O_24
    5  A    between atoms: N_12  and  C_20
    6  A    between atoms: N_12  and  C_26
    7  A    between atoms: C_15  and  C_38
    8  A    between atoms: N_17  and  C_25
    9  A    between atoms: C_20  and  C_25
   10  A    between atoms: O_24  and  C_26
   11  A    between atoms: N_32  and  C_34
   12  A    between atoms: N_32  and  C_38
   13  A    between atoms: C_34  and  C_35
                            x       y       z     vdW  Elec       q    Type
                         _______ _______ _______ _____ _____    ______ ____

>  <TORSDO>
F 13

$$$$
=
 OpenBabel11042419433D

 40 43  0  0  1  0  0  0  0  0999 V2000
  193.3890  175.8140  144.1590 C   0  0  0  0  0  3  0  0  0  0  0  0
  191.5040  176.5160  145.5200 C   0  0  0  0  0  0  0  0  0  0  0  0
  192.3020  176.3810  146.6660 C   0  0  0  0  0  3  0  0  0  0  0  0
  192.0510  176.2320  144.2580 C   0  0  0  0  0  0  0  0  0  0  0  0
  194.1730  175.6730  145.3060 C   0  0  0  0  0  0  0  0  0  0  0  0
  193.6300  175.9630  146.5610 C   0  0  0  0  0  3  0  0  0  0  0  0
  189.1350  174.9420  146.2900 O   0  0  0  0  0  0  0  0  0  0  0  0
  190.1370  176.9470  145.6030 N   0  0  0  0  0  2  0  0  0  0  0  0
  189.0010  176.1590  145.9860 C   0  0  0  0  0  0  0  0  0  0  0  0
  187.6640  176.7770  146.0240 C   0  0  0  0  0  0  0  0  0  0  0  0
  186.8910  176.8880  144.8620 C   0  0  0  0  0  3  0  0  0  0  0  0
  185.6580  177.4610  144.9080 N   0  0  0  0  0  0  0  0  0  0  0  0
  185.1390  177.9400  146.0700 C   0  0  0  0  0  0  0  0  0  0  0  0
  187.1400  177.2660  147.2280 C   0  0  0  0  0  3  0  0  0  0  0  0
  185.8740  177.8500  147.2540 C   0  0  0  0  0  3  0  0  0  0  0  0
  183.8460  178.5320  146.0790 N   0  0  0  0  0  1  0  0  0  0  0  0
  191.2510  176.3730  143.1210 O   0  0  0  0  0  0  0  0  0  0  0  0
  190.7850  175.2620  142.3570 C   0  0  0  0  0  2  0  0  0  0  0  0
  189.5270  174.7380  142.8890 N   0  0  0  0  0  0  0  0  0  0  0  0
  188.4180  175.0860  142.0020 C   0  0  0  0  0  1  0  0  0  0  0  0
  189.6280  173.2880  143.1330 C   0  0  2  0  0  3  0  0  0  0  0  0
  191.0630  172.7820  143.2660 C   0  0  0  0  0  1  0  0  0  0  0  0
  188.9060  172.5080  142.0460 C   0  0  0  0  0  2  0  0  0  0  0  0
  189.8670  171.9900  141.0870 N   0  0  0  0  0  2  0  0  0  0  0  0
  191.6800  173.1320  139.3160 S   0  0  0  0  0  0  0  0  0  0  0  0
  189.7620  174.7630  135.6820 C   0  0  0  0  0  3  0  0  0  0  0  0
  189.1790  173.0170  138.9220 C   0  0  0  0  0  0  0  0  0  0  0  0
  190.1440  172.6570  139.8570 C   0  0  0  0  0  0  0  0  0  0  0  0
  189.0280  174.1420  136.7050 C   0  0  0  0  0  3  0  0  0  0  0  0
  189.7290  173.6600  137.8110 C   0  0  0  0  0  0  0  0  0  0  0  0
  191.1200  174.8880  135.7750 N   0  0  0  0  0  0  0  0  0  0  0  0
  191.8130  174.4190  136.8520 C   0  0  0  0  0  0  0  0  0  0  0  0
  187.8540  172.7700  139.0760 F   0  0  0  0  0  0  0  0  0  0  0  0
  191.1060  173.7990  137.8800 C   0  0  0  0  0  0  0  0  0  0  0  0
  193.2270  174.5660  136.9160 N   0  0  0  0  0  1  0  0  0  0  0  0
  195.5950  175.2520  145.1900 C   0  0  0  0  0  2  0  0  0  0  0  0
  195.7540  173.9090  145.7200 N   0  0  0  0  0  2  0  0  0  0  0  0
  196.0670  173.0480  144.5910 C   0  0  0  0  0  2  0  0  0  0  0  0
  194.8890  172.1430  144.2840 C   0  0  0  0  0  2  0  0  0  0  0  0
  194.0800  171.8880  145.5420 C   0  0  0  0  0  1  0  0  0  0  0  0
  1  4  2  0  0  0  0
  1  5  1  0  0  0  0
  2  8  1  0  0  0  0
  2  3  2  0  0  0  0
  4  2  1  0  0  0  0
  5  6  2  0  0  0  0
  6  3  1  0  0  0  0
  8  9  1  0  0  0  0
  9 10  1  0  0  0  0
  9  7  2  0  0  0  0
 10 14  1  0  0  0  0
 11 12  1  0  0  0  0
 11 10  2  0  0  0  0
 12 13  2  0  0  0  0
 13 16  1  0  0  0  0
 13 15  1  0  0  0  0
 14 15  2  0  0  0  0
 17  4  1  0  0  0  0
 18 19  1  0  0  0  0
 18 17  1  0  0  0  0
 19 21  1  0  0  0  0
 20 19  1  0  0  0  0
 21 22  1  6  0  0  0
 23 21  1  0  0  0  0
 24 23  1  0  0  0  0
 25 28  1  0  0  0  0
 26 31  2  0  0  0  0
 26 29  1  0  0  0  0
 27 33  1  0  0  0  0
 27 28  2  0  0  0  0
 28 24  1  0  0  0  0
 29 30  2  0  0  0  0
 30 34  1  0  0  0  0
 30 27  1  0  0  0  0
 31 32  1  0  0  0  0
 32 35  1  0  0  0  0
 32 34  2  0  0  0  0
 34 25  1  0  0  0  0
 36  5  1  0  0  0  0
 36 37  1  0  0  0  0
 38 37  1  0  0  0  0
 39 38  1  0  0  0  0
 39 40  1  0  0  0  0
M  END
>  <MODEL>
7

>  <REMARK>
 VINA RESULT:      -5.8      2.895      4.288
  Name = 
  13 active torsions:
  status: ('A' for Active; 'I' for Inactive)
    1  A    between atoms: C_2  and  N_7
    2  A    between atoms: C_8  and  C_29
    3  A    between atoms: C_9  and  N_17
    4  A    between atoms: C_11  and  O_24
    5  A    between atoms: N_12  and  C_20
    6  A    between atoms: N_12  and  C_26
    7  A    between atoms: C_15  and  C_38
    8  A    between atoms: N_17  and  C_25
    9  A    between atoms: C_20  and  C_25
   10  A    between atoms: O_24  and  C_26
   11  A    between atoms: N_32  and  C_34
   12  A    between atoms: N_32  and  C_38
   13  A    between atoms: C_34  and  C_35
                            x       y       z     vdW  Elec       q    Type
                         _______ _______ _______ _____ _____    ______ ____

>  <TORSDO>
F 13

$$$$
=
 OpenBabel11042419433D

 40 43  0  0  1  0  0  0  0  0999 V2000
  191.7870  175.0560  141.9560 C   0  0  0  0  0  3  0  0  0  0  0  0
  189.9550  176.4570  142.7170 C   0  0  0  0  0  0  0  0  0  0  0  0
  190.8680  177.2160  143.4660 C   0  0  0  0  0  3  0  0  0  0  0  0
  190.4180  175.3720  141.9560 C   0  0  0  0  0  0  0  0  0  0  0  0
  192.6870  175.8110  142.7120 C   0  0  0  0  0  0  0  0  0  0  0  0
  192.2270  176.8960  143.4630 C   0  0  0  0  0  3  0  0  0  0  0  0
  188.5800  178.6230  141.2660 O   0  0  0  0  0  0  0  0  0  0  0  0
  188.5530  176.7690  142.7010 N   0  0  0  0  0  2  0  0  0  0  0  0
  187.9080  177.8290  141.9800 C   0  0  0  0  0  0  0  0  0  0  0  0
  186.4470  177.9920  142.0770 C   0  0  0  0  0  0  0  0  0  0  0  0
  185.6510  178.0190  140.9250 C   0  0  0  0  0  3  0  0  0  0  0  0
  184.3030  178.1700  141.0250 N   0  0  0  0  0  0  0  0  0  0  0  0
  183.6880  178.2960  142.2320 C   0  0  0  0  0  0  0  0  0  0  0  0
  185.8260  178.1200  143.3250 C   0  0  0  0  0  3  0  0  0  0  0  0
  184.4420  178.2740  143.4070 C   0  0  0  0  0  3  0  0  0  0  0  0
  182.2760  178.4520  142.2960 N   0  0  0  0  0  1  0  0  0  0  0  0
  189.5040  174.6240  141.2080 O   0  0  0  0  0  0  0  0  0  0  0  0
  189.0230  173.3460  141.6230 C   0  0  0  0  0  2  0  0  0  0  0  0
  189.5700  172.2740  140.7900 N   0  0  0  0  0  0  0  0  0  0  0  0
  189.8490  172.7720  139.4440 C   0  0  0  0  0  1  0  0  0  0  0  0
  190.7500  171.6660  141.4300 C   0  0  2  0  0  3  0  0  0  0  0  0
  191.3710  170.5260  140.6240 C   0  0  0  0  0  1  0  0  0  0  0  0
  190.4120  171.1810  142.8310 C   0  0  0  0  0  2  0  0  0  0  0  0
  191.4260  171.6310  143.7680 N   0  0  0  0  0  2  0  0  0  0  0  0
  189.7090  173.3850  145.0740 S   0  0  0  0  0  0  0  0  0  0  0  0
  191.8340  176.4120  147.4960 C   0  0  0  0  0  3  0  0  0  0  0  0
  192.2360  173.4790  145.2330 C   0  0  0  0  0  0  0  0  0  0  0  0
  191.2170  172.7480  144.6320 C   0  0  0  0  0  0  0  0  0  0  0  0
  192.5120  175.4300  146.7560 C   0  0  0  0  0  3  0  0  0  0  0  0
  191.7480  174.5200  146.0250 C   0  0  0  0  0  0  0  0  0  0  0  0
  190.4680  176.4680  147.4930 N   0  0  0  0  0  0  0  0  0  0  0  0
  189.7130  175.5830  146.7810 C   0  0  0  0  0  0  0  0  0  0  0  0
  193.5550  173.2080  145.0660 F   0  0  0  0  0  0  0  0  0  0  0  0
  190.3640  174.5990  146.0400 C   0  0  0  0  0  0  0  0  0  0  0  0
  188.2930  175.6710  146.8010 N   0  0  0  0  0  1  0  0  0  0  0  0
  194.1380  175.4850  142.6880 C   0  0  0  0  0  2  0  0  0  0  0  0
  194.6250  175.5090  141.3200 N   0  0  0  0  0  2  0  0  0  0  0  0
  195.6960  176.4900  141.2740 C   0  0  0  0  0  2  0  0  0  0  0  0
  196.9360  175.9380  141.9550 C   0  0  0  0  0  2  0  0  0  0  0  0
  197.3180  176.8080  143.1370 C   0  0  0  0  0  1  0  0  0  0  0  0
  1  5  1  0  0  0  0
  2  3  2  0  0  0  0
  4  1  2  0  0  0  0
  4  2  1  0  0  0  0
  5  6  2  0  0  0  0
  6  3  1  0  0  0  0
  7  9  2  0  0  0  0
  8  2  1  0  0  0  0
  9 10  1  0  0  0  0
  9  8  1  0  0  0  0
 10 14  1  0  0  0  0
 11 12  1  0  0  0  0
 11 10  2  0  0  0  0
 12 13  2  0  0  0  0
 13 16  1  0  0  0  0
 13 15  1  0  0  0  0
 14 15  2  0  0  0  0
 17 18  1  0  0  0  0
 17  4  1  0  0  0  0
 19 21  1  0  0  0  0
 19 18  1  0  0  0  0
 20 19  1  0  0  0  0
 21 22  1  6  0  0  0
 21 23  1  0  0  0  0
 23 24  1  0  0  0  0
 24 28  1  0  0  0  0
 25 34  1  0  0  0  0
 27 30  1  0  0  0  0
 28 25  1  0  0  0  0
 28 27  2  0  0  0  0
 29 26  2  0  0  0  0
 30 34  2  0  0  0  0
 30 29  1  0  0  0  0
 31 26  1  0  0  0  0
 32 35  1  0  0  0  0
 32 31  2  0  0  0  0
 33 27  1  0  0  0  0
 34 32  1  0  0  0  0
 36  5  1  0  0  0  0
 37 36  1  0  0  0  0
 38 37  1  0  0  0  0
 38 39  1  0  0  0  0
 39 40  1  0  0  0  0
M  END
>  <MODEL>
8

>  <REMARK>
 VINA RESULT:      -5.8      2.895      5.176
  Name = 
  13 active torsions:
  status: ('A' for Active; 'I' for Inactive)
    1  A    between atoms: C_2  and  N_7
    2  A    between atoms: C_8  and  C_29
    3  A    between atoms: C_9  and  N_17
    4  A    between atoms: C_11  and  O_24
    5  A    between atoms: N_12  and  C_20
    6  A    between atoms: N_12  and  C_26
    7  A    between atoms: C_15  and  C_38
    8  A    between atoms: N_17  and  C_25
    9  A    between atoms: C_20  and  C_25
   10  A    between atoms: O_24  and  C_26
   11  A    between atoms: N_32  and  C_34
   12  A    between atoms: N_32  and  C_38
   13  A    between atoms: C_34  and  C_35
                            x       y       z     vdW  Elec       q    Type
                         _______ _______ _______ _____ _____    ______ ____

>  <TORSDO>
F 13

$$$$
=
 OpenBabel11042419433D

 40 43  0  0  1  0  0  0  0  0999 V2000
  189.2480  175.7780  144.6450 C   0  0  0  0  0  3  0  0  0  0  0  0
  187.0730  176.8550  144.5380 C   0  0  0  0  0  0  0  0  0  0  0  0
  187.3210  177.4420  145.7890 C   0  0  0  0  0  3  0  0  0  0  0  0
  188.0440  176.0190  143.9620 C   0  0  0  0  0  0  0  0  0  0  0  0
  189.4820  176.3590  145.8930 C   0  0  0  0  0  0  0  0  0  0  0  0
  188.5180  177.1970  146.4630 C   0  0  0  0  0  3  0  0  0  0  0  0
  186.4480  179.0460  142.6690 O   0  0  0  0  0  0  0  0  0  0  0  0
  185.8510  177.0950  143.8240 N   0  0  0  0  0  2  0  0  0  0  0  0
  185.5740  178.1700  142.9140 C   0  0  0  0  0  0  0  0  0  0  0  0
  184.2560  178.2500  142.2610 C   0  0  0  0  0  0  0  0  0  0  0  0
  183.1250  178.6640  142.9750 C   0  0  0  0  0  3  0  0  0  0  0  0
  181.9130  178.7340  142.3620 N   0  0  0  0  0  0  0  0  0  0  0  0
  181.7580  178.4110  141.0500 C   0  0  0  0  0  0  0  0  0  0  0  0
  184.1100  177.9140  140.9090 C   0  0  0  0  0  3  0  0  0  0  0  0
  182.8580  177.9930  140.2990 C   0  0  0  0  0  3  0  0  0  0  0  0
  180.4750  178.4970  140.4440 N   0  0  0  0  0  1  0  0  0  0  0  0
  187.7930  175.4420  142.7140 O   0  0  0  0  0  0  0  0  0  0  0  0
  188.8200  175.1780  141.7600 C   0  0  0  0  0  2  0  0  0  0  0  0
  188.7840  173.7870  141.3070 N   0  0  0  0  0  0  0  0  0  0  0  0
  188.8450  173.7270  139.8480 C   0  0  0  0  0  1  0  0  0  0  0  0
  189.8480  173.0000  141.9550 C   0  0  2  0  0  3  0  0  0  0  0  0
  189.3540  172.1120  143.0960 C   0  0  0  0  0  1  0  0  0  0  0  0
  190.9600  173.9090  142.4570 C   0  0  0  0  0  2  0  0  0  0  0  0
  192.2470  173.4170  141.9950 N   0  0  0  0  0  2  0  0  0  0  0  0
  193.5910  171.8520  143.8580 S   0  0  0  0  0  0  0  0  0  0  0  0
  197.2890  173.7470  145.3690 C   0  0  0  0  0  3  0  0  0  0  0  0
  194.3740  174.1330  143.0800 C   0  0  0  0  0  0  0  0  0  0  0  0
  193.3450  173.2180  142.8840 C   0  0  0  0  0  0  0  0  0  0  0  0
  196.4600  174.3660  144.4210 C   0  0  0  0  0  3  0  0  0  0  0  0
  195.3160  173.6840  144.0080 C   0  0  0  0  0  0  0  0  0  0  0  0
  196.9760  172.5120  145.8680 N   0  0  0  0  0  0  0  0  0  0  0  0
  195.8600  171.8380  145.4700 C   0  0  0  0  0  0  0  0  0  0  0  0
  194.4520  175.3260  142.4390 F   0  0  0  0  0  0  0  0  0  0  0  0
  195.0220  172.4330  144.5300 C   0  0  0  0  0  0  0  0  0  0  0  0
  195.5650  170.5550  146.0110 N   0  0  0  0  0  1  0  0  0  0  0  0
  190.7680  176.1180  146.5990 C   0  0  0  0  0  2  0  0  0  0  0  0
  191.8430  175.9880  145.6310 N   0  0  0  0  0  2  0  0  0  0  0  0
  192.9260  175.2850  146.2990 C   0  0  0  0  0  2  0  0  0  0  0  0
  194.0780  176.2360  146.5630 C   0  0  0  0  0  2  0  0  0  0  0  0
  194.2770  177.1640  145.3800 C   0  0  0  0  0  1  0  0  0  0  0  0
  1  5  1  0  0  0  0
  2  3  2  0  0  0  0
  3  6  1  0  0  0  0
  4  2  1  0  0  0  0
  4  1  2  0  0  0  0
  5  6  2  0  0  0  0
  5 36  1  0  0  0  0
  7  9  2  0  0  0  0
  8  2  1  0  0  0  0
  9  8  1  0  0  0  0
 10  9  1  0  0  0  0
 10 11  1  0  0  0  0
 12 11  2  0  0  0  0
 13 12  1  0  0  0  0
 14 10  2  0  0  0  0
 15 14  1  0  0  0  0
 15 13  2  0  0  0  0
 16 13  1  0  0  0  0
 17  4  1  0  0  0  0
 18 17  1  0  0  0  0
 19 18  1  0  0  0  0
 19 21  1  0  0  0  0
 20 19  1  0  0  0  0
 21 23  1  0  0  0  0
 21 22  1  1  0  0  0
 24 23  1  0  0  0  0
 24 28  1  0  0  0  0
 25 34  1  0  0  0  0
 26 31  1  0  0  0  0
 27 30  1  0  0  0  0
 28 27  2  0  0  0  0
 28 25  1  0  0  0  0
 29 26  2  0  0  0  0
 30 29  1  0  0  0  0
 30 34  2  0  0  0  0
 32 31  2  0  0  0  0
 32 35  1  0  0  0  0
 33 27  1  0  0  0  0
 34 32  1  0  0  0  0
 37 38  1  0  0  0  0
 37 36  1  0  0  0  0
 38 39  1  0  0  0  0
 40 39  1  0  0  0  0
M  END
>  <MODEL>
9

>  <REMARK>
 VINA RESULT:      -5.8      2.898      4.854
  Name = 
  13 active torsions:
  status: ('A' for Active; 'I' for Inactive)
    1  A    between atoms: C_2  and  N_7
    2  A    between atoms: C_8  and  C_29
    3  A    between atoms: C_9  and  N_17
    4  A    between atoms: C_11  and  O_24
    5  A    between atoms: N_12  and  C_20
    6  A    between atoms: N_12  and  C_26
    7  A    between atoms: C_15  and  C_38
    8  A    between atoms: N_17  and  C_25
    9  A    between atoms: C_20  and  C_25
   10  A    between atoms: O_24  and  C_26
   11  A    between atoms: N_32  and  C_34
   12  A    between atoms: N_32  and  C_38
   13  A    between atoms: C_34  and  C_35
                            x       y       z     vdW  Elec       q    Type
                         _______ _______ _______ _____ _____    ______ ____

>  <TORSDO>
F 13

$$$$
