=
 OpenBabel11042418203D

 35 39  0  0  1  0  0  0  0  0999 V2000
  188.0930  175.5880  141.2070 C   0  0  0  0  0  0  0  0  0  0  0  0
  187.4170  176.4060  140.5270 O   0  0  0  0  0  0  0  0  0  0  0  0
  189.2440  172.6850  139.7660 C   0  0  0  0  0  3  0  0  0  0  0  0
  189.6670  174.6580  142.6430 N   0  0  0  0  0  0  0  0  0  0  0  0
  188.9180  175.9140  142.4210 C   0  0  2  0  0  3  0  0  0  0  0  0
  188.2670  174.2310  140.8670 N   0  0  0  0  0  0  0  0  0  0  0  0
  189.8730  172.7250  141.0170 C   0  0  0  0  0  3  0  0  0  0  0  0
  189.1860  173.7340  141.6640 C   0  0  0  0  0  0  0  0  0  0  0  0
  188.3080  173.6610  139.6830 N   0  0  0  0  0  0  0  0  0  0  0  0
  195.2420  176.2850  143.4240 C   0  0  0  0  0  1  0  0  0  0  0  0
  190.1260  173.6140  145.0660 O   0  0  0  0  0  1  0  0  0  0  0  0
  192.5110  173.9450  145.1440 C   0  0  1  0  0  0  0  0  0  0  0  0
  192.5790  172.6200  144.6900 O   0  0  0  0  0  1  0  0  0  0  0  0
  194.7950  173.7450  144.2720 O   0  0  0  0  0  1  0  0  0  0  0  0
  190.8990  175.6630  146.6510 C   0  0  0  0  0  2  0  0  0  0  0  0
  193.8300  174.6730  144.6870 C   0  0  1  0  0  3  0  0  0  0  0  0
  191.0520  174.6300  143.1230 C   0  0  2  0  0  3  0  0  0  0  0  0
  191.1260  174.5170  144.6620 C   0  0  1  0  0  0  0  0  0  0  0  0
  192.2750  175.1760  147.0950 C   0  0  0  0  0  2  0  0  0  0  0  0
  193.8080  175.9100  143.7590 C   0  0  0  0  0  0  0  0  0  0  0  0
  190.8730  175.7820  145.2470 O   0  0  0  0  0  0  0  0  0  0  0  0
  193.1710  175.6120  142.5290 O   0  0  0  0  0  0  0  0  0  0  0  0
  193.2660  177.1400  144.4960 C   0  0  0  0  0  1  0  0  0  0  0  0
  191.7910  175.8540  142.5980 C   0  0  0  0  0  2  0  0  0  0  0  0
  192.5160  173.8910  146.5630 O   0  0  0  0  0  0  0  0  0  0  0  0
  188.0130  176.1950  143.6110 C   0  0  0  0  0  2  0  0  0  0  0  0
  188.4450  177.7940  144.3590 S   0  0  0  0  0  0  0  0  0  0  0  0
  187.2930  177.1310  147.0910 O   0  0  0  0  0  1  0  0  0  0  0  0
  186.1750  179.0450  142.7720 O   0  0  0  0  0  1  0  0  0  0  0  0
  185.8210  178.6750  144.0630 C   0  0  0  0  0  0  0  0  0  0  0  0
  186.3810  177.7190  146.2230 C   0  0  0  0  0  0  0  0  0  0  0  0
  184.5140  178.8960  144.5070 C   0  0  0  0  0  3  0  0  0  0  0  0
  184.1390  178.5350  145.8020 C   0  0  0  0  0  3  0  0  0  0  0  0
  186.7620  178.0800  144.9200 C   0  0  0  0  0  0  0  0  0  0  0  0
  185.0730  177.9480  146.6590 C   0  0  0  0  0  3  0  0  0  0  0  0
  1  5  1  0  0  0  0
  2  1  2  0  0  0  0
  3  7  1  0  0  0  0
  4 17  1  0  0  0  0
  5  4  1  0  0  0  0
  5 26  1  1  0  0  0
  6  1  1  0  0  0  0
  6  8  1  0  0  0  0
  7  8  2  0  0  0  0
  8  4  1  0  0  0  0
  9  3  2  0  0  0  0
  9  6  1  0  0  0  0
 10 20  1  0  0  0  0
 12 13  1  6  0  0  0
 12 25  1  0  0  0  0
 15 19  1  0  0  0  0
 16 14  1  6  0  0  0
 16 12  1  0  0  0  0
 17 24  1  1  0  0  0
 17 18  1  0  0  0  0
 18 11  1  1  0  0  0
 18 12  1  0  0  0  0
 18 21  1  0  0  0  0
 20 23  1  0  0  0  0
 20 16  1  0  0  0  0
 21 15  1  0  0  0  0
 22 24  1  0  0  0  0
 22 20  1  0  0  0  0
 25 19  1  0  0  0  0
 26 27  1  0  0  0  0
 27 34  1  0  0  0  0
 29 30  1  0  0  0  0
 30 32  2  0  0  0  0
 30 34  1  0  0  0  0
 31 35  1  0  0  0  0
 31 28  1  0  0  0  0
 32 33  1  0  0  0  0
 33 35  2  0  0  0  0
 34 31  2  0  0  0  0
M  END
>  <MODEL>
1

>  <REMARK>
 VINA RESULT:      -7.9      0.000      0.000
  Name = 
  4 active torsions:
  status: ('A' for Active; 'I' for Inactive)
    1  A    between atoms: C_4  and  C_16
    2  A    between atoms: C_4  and  S_21
    3  A    between atoms: N_15  and  C_17
    4  A    between atoms: S_21  and  C_30
                            x       y       z     vdW  Elec       q    Type
                         _______ _______ _______ _____ _____    ______ ____

>  <TORSDO>
F 4

$$$$
=
 OpenBabel11042418203D

 35 39  0  0  1  0  0  0  0  0999 V2000
  191.3390  175.6570  147.1370 C   0  0  0  0  0  0  0  0  0  0  0  0
  191.2030  175.5650  148.3860 O   0  0  0  0  0  0  0  0  0  0  0  0
  194.3290  176.7040  145.8010 C   0  0  0  0  0  3  0  0  0  0  0  0
  191.2960  175.2020  144.8570 N   0  0  0  0  0  0  0  0  0  0  0  0
  190.5610  174.8900  146.1020 C   0  0  2  0  0  3  0  0  0  0  0  0
  192.3330  176.4300  146.5040 N   0  0  0  0  0  0  0  0  0  0  0  0
  193.5850  176.2770  144.6930 C   0  0  0  0  0  3  0  0  0  0  0  0
  192.3180  176.1320  145.2250 C   0  0  0  0  0  0  0  0  0  0  0  0
  193.5490  176.7270  146.9080 N   0  0  0  0  0  0  0  0  0  0  0  0
  191.6620  170.0280  142.1320 C   0  0  0  0  0  1  0  0  0  0  0  0
  190.5460  175.9170  142.3880 O   0  0  0  0  0  1  0  0  0  0  0  0
  191.1130  173.8750  141.2440 C   0  0  1  0  0  0  0  0  0  0  0  0
  192.3150  174.5310  140.9420 O   0  0  0  0  0  1  0  0  0  0  0  0
  192.6260  172.0520  140.6030 O   0  0  0  0  0  1  0  0  0  0  0  0
  188.4120  174.3820  141.7590 C   0  0  0  0  0  2  0  0  0  0  0  0
  191.3970  172.3270  141.2210 C   0  0  1  0  0  3  0  0  0  0  0  0
  191.4840  174.2270  143.7780 C   0  0  2  0  0  3  0  0  0  0  0  0
  190.5670  174.5230  142.5700 C   0  0  1  0  0  0  0  0  0  0  0  0
  188.9240  173.6830  140.5030 C   0  0  0  0  0  2  0  0  0  0  0  0
  191.1840  171.4310  142.4630 C   0  0  0  0  0  0  0  0  0  0  0  0
  189.2530  174.0720  142.8460 O   0  0  0  0  0  0  0  0  0  0  0  0
  191.9710  171.8790  143.5530 O   0  0  0  0  0  0  0  0  0  0  0  0
  189.6910  171.2540  142.7630 C   0  0  0  0  0  1  0  0  0  0  0  0
  191.2800  172.8230  144.3280 C   0  0  0  0  0  2  0  0  0  0  0  0
  190.2120  174.1660  140.1860 O   0  0  0  0  0  0  0  0  0  0  0  0
  189.1400  175.4250  146.0130 C   0  0  0  0  0  2  0  0  0  0  0  0
  189.0950  177.1650  146.5330 S   0  0  0  0  0  0  0  0  0  0  0  0
  186.3250  176.8790  147.7490 O   0  0  0  0  0  1  0  0  0  0  0  0
  188.6610  178.0470  143.6560 O   0  0  0  0  0  1  0  0  0  0  0  0
  187.4840  177.8650  144.3720 C   0  0  0  0  0  0  0  0  0  0  0  0
  186.3170  177.2820  146.4190 C   0  0  0  0  0  0  0  0  0  0  0  0
  186.2560  178.0890  143.7430 C   0  0  0  0  0  3  0  0  0  0  0  0
  185.0630  177.9160  144.4460 C   0  0  0  0  0  3  0  0  0  0  0  0
  187.5200  177.4550  145.7160 C   0  0  0  0  0  0  0  0  0  0  0  0
  185.0940  177.5130  145.7830 C   0  0  0  0  0  3  0  0  0  0  0  0
  1  2  2  0  0  0  0
  3  9  2  0  0  0  0
  4  8  1  0  0  0  0
  4  5  1  0  0  0  0
  5 26  1  6  0  0  0
  5  1  1  0  0  0  0
  6  9  1  0  0  0  0
  6  1  1  0  0  0  0
  7  8  2  0  0  0  0
  7  3  1  0  0  0  0
  8  6  1  0  0  0  0
 10 20  1  0  0  0  0
 12 13  1  6  0  0  0
 12 18  1  0  0  0  0
 15 21  1  0  0  0  0
 16 14  1  1  0  0  0
 16 12  1  0  0  0  0
 16 20  1  0  0  0  0
 17 24  1  1  0  0  0
 17  4  1  0  0  0  0
 18 11  1  6  0  0  0
 18 21  1  0  0  0  0
 18 17  1  0  0  0  0
 19 15  1  0  0  0  0
 20 23  1  0  0  0  0
 20 22  1  0  0  0  0
 22 24  1  0  0  0  0
 25 19  1  0  0  0  0
 25 12  1  0  0  0  0
 26 27  1  0  0  0  0
 29 30  1  0  0  0  0
 30 34  1  0  0  0  0
 31 28  1  0  0  0  0
 32 30  2  0  0  0  0
 32 33  1  0  0  0  0
 33 35  2  0  0  0  0
 34 31  2  0  0  0  0
 34 27  1  0  0  0  0
 35 31  1  0  0  0  0
M  END
>  <MODEL>
2

>  <REMARK>
 VINA RESULT:      -7.2      2.355      5.008
  Name = 
  4 active torsions:
  status: ('A' for Active; 'I' for Inactive)
    1  A    between atoms: C_4  and  C_16
    2  A    between atoms: C_4  and  S_21
    3  A    between atoms: N_15  and  C_17
    4  A    between atoms: S_21  and  C_30
                            x       y       z     vdW  Elec       q    Type
                         _______ _______ _______ _____ _____    ______ ____

>  <TORSDO>
F 4

$$$$
=
 OpenBabel11042418203D

 35 39  0  0  1  0  0  0  0  0999 V2000
  188.5750  174.8890  141.5190 C   0  0  0  0  0  0  0  0  0  0  0  0
  187.6420  175.6850  141.2260 O   0  0  0  0  0  0  0  0  0  0  0  0
  189.4430  172.3760  139.3380 C   0  0  0  0  0  3  0  0  0  0  0  0
  190.6100  174.0120  142.2210 N   0  0  0  0  0  0  0  0  0  0  0  0
  189.7210  175.1710  142.4510 C   0  0  2  0  0  3  0  0  0  0  0  0
  188.7480  173.6230  140.9250 N   0  0  0  0  0  0  0  0  0  0  0  0
  190.4430  172.3450  140.3180 C   0  0  0  0  0  3  0  0  0  0  0  0
  189.9190  173.1600  141.3030 C   0  0  0  0  0  0  0  0  0  0  0  0
  188.4480  173.2170  139.7100 N   0  0  0  0  0  0  0  0  0  0  0  0
  195.9490  176.4150  141.9650 C   0  0  0  0  0  1  0  0  0  0  0  0
  191.9670  172.3110  143.7820 O   0  0  0  0  0  1  0  0  0  0  0  0
  194.1930  173.0960  143.3030 C   0  0  1  0  0  0  0  0  0  0  0  0
  194.2150  172.0600  142.3580 O   0  0  0  0  0  1  0  0  0  0  0  0
  196.0440  173.7060  141.8140 O   0  0  0  0  0  1  0  0  0  0  0  0
  193.0580  173.7910  145.7630 C   0  0  0  0  0  2  0  0  0  0  0  0
  195.2050  174.2010  142.8220 C   0  0  1  0  0  3  0  0  0  0  0  0
  192.0730  174.1150  142.2330 C   0  0  2  0  0  3  0  0  0  0  0  0
  192.6830  173.4890  143.5070 C   0  0  1  0  0  0  0  0  0  0  0  0
  194.5390  173.4850  145.5630 C   0  0  0  0  0  2  0  0  0  0  0  0
  194.7570  175.6490  142.5150 C   0  0  0  0  0  0  0  0  0  0  0  0
  192.5380  174.3840  144.5950 O   0  0  0  0  0  0  0  0  0  0  0  0
  193.7630  175.6710  141.5060 O   0  0  0  0  0  0  0  0  0  0  0  0
  194.3990  176.3980  143.8040 C   0  0  0  0  0  1  0  0  0  0  0  0
  192.4750  175.5730  142.0560 C   0  0  0  0  0  2  0  0  0  0  0  0
  194.6930  172.5510  144.5170 O   0  0  0  0  0  0  0  0  0  0  0  0
  189.2360  175.1730  143.8920 C   0  0  0  0  0  2  0  0  0  0  0  0
  189.6360  176.7600  144.6820 S   0  0  0  0  0  0  0  0  0  0  0  0
  187.5540  178.2910  143.0840 O   0  0  0  0  0  1  0  0  0  0  0  0
  188.2340  175.8300  147.2130 O   0  0  0  0  0  1  0  0  0  0  0  0
  187.4190  176.5560  146.3540 C   0  0  0  0  0  0  0  0  0  0  0  0
  187.0790  177.7860  144.2890 C   0  0  0  0  0  0  0  0  0  0  0  0
  186.0870  176.7910  146.7060 C   0  0  0  0  0  3  0  0  0  0  0  0
  185.2510  177.5150  145.8550 C   0  0  0  0  0  3  0  0  0  0  0  0
  187.9250  177.0580  145.1430 C   0  0  0  0  0  0  0  0  0  0  0  0
  185.7470  178.0110  144.6470 C   0  0  0  0  0  3  0  0  0  0  0  0
  1  5  1  0  0  0  0
  2  1  2  0  0  0  0
  3  9  2  0  0  0  0
  3  7  1  0  0  0  0
  4 17  1  0  0  0  0
  4  5  1  0  0  0  0
  5 26  1  1  0  0  0
  6  8  1  0  0  0  0
  6  1  1  0  0  0  0
  7  8  2  0  0  0  0
  8  4  1  0  0  0  0
  9  6  1  0  0  0  0
 10 20  1  0  0  0  0
 12 13  1  6  0  0  0
 12 18  1  0  0  0  0
 12 25  1  0  0  0  0
 16 14  1  6  0  0  0
 16 12  1  0  0  0  0
 17 24  1  1  0  0  0
 17 18  1  0  0  0  0
 18 11  1  1  0  0  0
 18 21  1  0  0  0  0
 19 15  1  0  0  0  0
 20 16  1  0  0  0  0
 20 23  1  0  0  0  0
 21 15  1  0  0  0  0
 22 24  1  0  0  0  0
 22 20  1  0  0  0  0
 25 19  1  0  0  0  0
 26 27  1  0  0  0  0
 27 34  1  0  0  0  0
 28 31  1  0  0  0  0
 30 32  1  0  0  0  0
 30 29  1  0  0  0  0
 31 35  2  0  0  0  0
 31 34  1  0  0  0  0
 33 32  2  0  0  0  0
 34 30  2  0  0  0  0
 35 33  1  0  0  0  0
M  END
>  <MODEL>
3

>  <REMARK>
 VINA RESULT:      -7.1      1.447      2.325
  Name = 
  4 active torsions:
  status: ('A' for Active; 'I' for Inactive)
    1  A    between atoms: C_4  and  C_16
    2  A    between atoms: C_4  and  S_21
    3  A    between atoms: N_15  and  C_17
    4  A    between atoms: S_21  and  C_30
                            x       y       z     vdW  Elec       q    Type
                         _______ _______ _______ _____ _____    ______ ____

>  <TORSDO>
F 4

$$$$
=
 OpenBabel11042418203D

 35 39  0  0  1  0  0  0  0  0999 V2000
  190.0250  172.8730  141.8280 C   0  0  0  0  0  0  0  0  0  0  0  0
  189.1800  173.0630  140.9120 O   0  0  0  0  0  0  0  0  0  0  0  0
  191.5350  169.8020  142.1650 C   0  0  0  0  0  3  0  0  0  0  0  0
  191.8230  173.1220  143.2800 N   0  0  0  0  0  0  0  0  0  0  0  0
  190.8660  173.9280  142.4910 C   0  0  2  0  0  3  0  0  0  0  0  0
  190.3950  171.6000  142.3090 N   0  0  0  0  0  0  0  0  0  0  0  0
  192.2330  170.6310  143.0530 C   0  0  0  0  0  3  0  0  0  0  0  0
  191.4350  171.7580  143.0970 C   0  0  0  0  0  0  0  0  0  0  0  0
  190.4490  170.4480  141.6780 N   0  0  0  0  0  0  0  0  0  0  0  0
  197.1670  175.1870  142.0520 C   0  0  0  0  0  1  0  0  0  0  0  0
  192.5450  174.0240  145.6960 O   0  0  0  0  0  1  0  0  0  0  0  0
  194.8650  174.4660  145.2250 C   0  0  1  0  0  0  0  0  0  0  0  0
  195.0840  173.1910  145.7660 O   0  0  0  0  0  1  0  0  0  0  0  0
  197.1060  173.8710  144.4240 O   0  0  0  0  0  1  0  0  0  0  0  0
  193.1230  176.6470  145.3950 C   0  0  0  0  0  2  0  0  0  0  0  0
  196.0500  174.7730  144.2350 C   0  0  1  0  0  3  0  0  0  0  0  0
  193.2240  173.5120  143.4720 C   0  0  2  0  0  3  0  0  0  0  0  0
  193.3940  174.4750  144.6690 C   0  0  1  0  0  0  0  0  0  0  0  0
  194.5730  176.6760  145.8690 C   0  0  0  0  0  2  0  0  0  0  0  0
  195.8160  175.0510  142.7320 C   0  0  0  0  0  0  0  0  0  0  0  0
  193.0060  175.7830  144.2880 O   0  0  0  0  0  0  0  0  0  0  0  0
  195.1590  173.9610  142.1100 O   0  0  0  0  0  0  0  0  0  0  0  0
  195.1560  176.4190  142.5230 C   0  0  0  0  0  1  0  0  0  0  0  0
  193.7640  174.1000  142.1760 C   0  0  0  0  0  2  0  0  0  0  0  0
  194.9540  175.3880  146.3030 O   0  0  0  0  0  0  0  0  0  0  0  0
  190.0090  174.7720  143.4230 C   0  0  0  0  0  2  0  0  0  0  0  0
  189.8660  176.4640  142.7750 S   0  0  0  0  0  0  0  0  0  0  0  0
  186.9960  176.0390  141.8700 O   0  0  0  0  0  1  0  0  0  0  0  0
  189.7000  177.5440  145.6110 O   0  0  0  0  0  1  0  0  0  0  0  0
  188.4630  177.2900  145.0340 C   0  0  0  0  0  0  0  0  0  0  0  0
  187.1110  176.5360  143.1630 C   0  0  0  0  0  0  0  0  0  0  0  0
  187.2980  177.5400  145.7660 C   0  0  0  0  0  3  0  0  0  0  0  0
  186.0460  177.2870  145.2050 C   0  0  0  0  0  3  0  0  0  0  0  0
  188.3740  176.7890  143.7240 C   0  0  0  0  0  0  0  0  0  0  0  0
  185.9530  176.7850  143.9050 C   0  0  0  0  0  3  0  0  0  0  0  0
  1  6  1  0  0  0  0
  1  5  1  0  0  0  0
  2  1  2  0  0  0  0
  3  7  1  0  0  0  0
  4 17  1  0  0  0  0
  5  4  1  0  0  0  0
  5 26  1  1  0  0  0
  6  8  1  0  0  0  0
  7  8  2  0  0  0  0
  8  4  1  0  0  0  0
  9  3  2  0  0  0  0
  9  6  1  0  0  0  0
 10 20  1  0  0  0  0
 12 13  1  1  0  0  0
 12 25  1  0  0  0  0
 15 19  1  0  0  0  0
 16 14  1  6  0  0  0
 16 12  1  0  0  0  0
 17 24  1  6  0  0  0
 17 18  1  0  0  0  0
 18 12  1  0  0  0  0
 18 11  1  1  0  0  0
 19 25  1  0  0  0  0
 20 16  1  0  0  0  0
 21 18  1  0  0  0  0
 21 15  1  0  0  0  0
 22 24  1  0  0  0  0
 22 20  1  0  0  0  0
 23 20  1  0  0  0  0
 27 26  1  0  0  0  0
 27 34  1  0  0  0  0
 28 31  1  0  0  0  0
 30 29  1  0  0  0  0
 30 32  1  0  0  0  0
 31 34  1  0  0  0  0
 31 35  2  0  0  0  0
 33 32  2  0  0  0  0
 34 30  2  0  0  0  0
 35 33  1  0  0  0  0
M  END
>  <MODEL>
4

>  <REMARK>
 VINA RESULT:      -6.9      2.167      3.123
  Name = 
  4 active torsions:
  status: ('A' for Active; 'I' for Inactive)
    1  A    between atoms: C_4  and  C_16
    2  A    between atoms: C_4  and  S_21
    3  A    between atoms: N_15  and  C_17
    4  A    between atoms: S_21  and  C_30
                            x       y       z     vdW  Elec       q    Type
                         _______ _______ _______ _____ _____    ______ ____

>  <TORSDO>
F 4

$$$$
=
 OpenBabel11042418203D

 35 39  0  0  1  0  0  0  0  0999 V2000
  189.1220  175.8100  146.4180 C   0  0  0  0  0  0  0  0  0  0  0  0
  188.1710  175.8000  147.2450 O   0  0  0  0  0  0  0  0  0  0  0  0
  192.3300  176.4330  147.4880 C   0  0  0  0  0  3  0  0  0  0  0  0
  190.5690  175.2460  144.6880 N   0  0  0  0  0  0  0  0  0  0  0  0
  189.1580  175.0870  145.1000 C   0  0  2  0  0  3  0  0  0  0  0  0
  190.3670  176.4300  146.6520 N   0  0  0  0  0  0  0  0  0  0  0  0
  192.4810  176.0390  146.1520 C   0  0  0  0  0  3  0  0  0  0  0  0
  191.1810  176.0690  145.6860 C   0  0  0  0  0  0  0  0  0  0  0  0
  191.0190  176.6030  147.7810 N   0  0  0  0  0  0  0  0  0  0  0  0
  192.3440  169.9010  143.0720 C   0  0  0  0  0  1  0  0  0  0  0  0
  191.3110  175.7410  142.1630 O   0  0  0  0  0  1  0  0  0  0  0  0
  192.4020  173.6440  141.7010 C   0  0  1  0  0  0  0  0  0  0  0  0
  193.5750  174.3250  142.0540 O   0  0  0  0  0  1  0  0  0  0  0  0
  194.0050  171.8440  142.1570 O   0  0  0  0  0  1  0  0  0  0  0  0
  189.8680  174.0740  140.5990 C   0  0  0  0  0  2  0  0  0  0  0  0
  192.6410  172.1120  141.9710 C   0  0  1  0  0  3  0  0  0  0  0  0
  191.3150  174.2020  143.9790 C   0  0  2  0  0  3  0  0  0  0  0  0
  191.2190  174.3670  142.4460 C   0  0  1  0  0  0  0  0  0  0  0  0
  190.9830  173.3050  139.8980 C   0  0  0  0  0  2  0  0  0  0  0  0
  191.7720  171.3040  142.9630 C   0  0  0  0  0  0  0  0  0  0  0  0
  189.9670  173.8830  141.9910 O   0  0  0  0  0  0  0  0  0  0  0  0
  191.8310  171.8660  144.2630 O   0  0  0  0  0  0  0  0  0  0  0  0
  190.3610  171.0880  142.4060 C   0  0  0  0  0  1  0  0  0  0  0  0
  190.8330  172.8360  144.4450 C   0  0  0  0  0  2  0  0  0  0  0  0
  192.2350  173.8160  140.3010 O   0  0  0  0  0  0  0  0  0  0  0  0
  188.2450  175.7770  144.0980 C   0  0  0  0  0  2  0  0  0  0  0  0
  188.4710  177.5780  144.1870 S   0  0  0  0  0  0  0  0  0  0  0  0
  185.9950  177.9040  145.9170 O   0  0  0  0  0  1  0  0  0  0  0  0
  187.5380  177.9140  141.3140 O   0  0  0  0  0  1  0  0  0  0  0  0
  186.5210  178.0340  142.2530 C   0  0  0  0  0  0  0  0  0  0  0  0
  185.7500  178.0300  144.5550 C   0  0  0  0  0  0  0  0  0  0  0  0
  185.2150  178.2850  141.8230 C   0  0  0  0  0  3  0  0  0  0  0  0
  184.1800  178.4120  142.7500 C   0  0  0  0  0  3  0  0  0  0  0  0
  186.7950  177.9000  143.6250 C   0  0  0  0  0  0  0  0  0  0  0  0
  184.4480  178.2860  144.1150 C   0  0  0  0  0  3  0  0  0  0  0  0
  1  6  1  0  0  0  0
  1  2  2  0  0  0  0
  3  9  2  0  0  0  0
  4  5  1  0  0  0  0
  4  8  1  0  0  0  0
  5 26  1  6  0  0  0
  5  1  1  0  0  0  0
  6  9  1  0  0  0  0
  7  3  1  0  0  0  0
  8  7  2  0  0  0  0
  8  6  1  0  0  0  0
 12 16  1  0  0  0  0
 12 13  1  1  0  0  0
 12 18  1  0  0  0  0
 15 21  1  0  0  0  0
 16 14  1  1  0  0  0
 16 20  1  0  0  0  0
 17 24  1  6  0  0  0
 17  4  1  0  0  0  0
 18 11  1  6  0  0  0
 18 17  1  0  0  0  0
 19 25  1  0  0  0  0
 19 15  1  0  0  0  0
 20 10  1  0  0  0  0
 20 22  1  0  0  0  0
 21 18  1  0  0  0  0
 22 24  1  0  0  0  0
 23 20  1  0  0  0  0
 25 12  1  0  0  0  0
 26 27  1  0  0  0  0
 29 30  1  0  0  0  0
 30 34  1  0  0  0  0
 31 28  1  0  0  0  0
 32 30  2  0  0  0  0
 32 33  1  0  0  0  0
 33 35  2  0  0  0  0
 34 27  1  0  0  0  0
 34 31  2  0  0  0  0
 35 31  1  0  0  0  0
M  END
>  <MODEL>
5

>  <REMARK>
 VINA RESULT:      -6.8      2.294      4.731
  Name = 
  4 active torsions:
  status: ('A' for Active; 'I' for Inactive)
    1  A    between atoms: C_4  and  C_16
    2  A    between atoms: C_4  and  S_21
    3  A    between atoms: N_15  and  C_17
    4  A    between atoms: S_21  and  C_30
                            x       y       z     vdW  Elec       q    Type
                         _______ _______ _______ _____ _____    ______ ____

>  <TORSDO>
F 4

$$$$
=
 OpenBabel11042418203D

 35 39  0  0  1  0  0  0  0  0999 V2000
  191.3770  172.1150  140.9070 C   0  0  0  0  0  0  0  0  0  0  0  0
  191.9700  171.0350  140.6450 O   0  0  0  0  0  0  0  0  0  0  0  0
  188.1930  172.6620  139.7270 C   0  0  0  0  0  3  0  0  0  0  0  0
  190.5140  173.9630  142.0230 N   0  0  0  0  0  0  0  0  0  0  0  0
  191.6400  173.0080  142.0880 C   0  0  2  0  0  3  0  0  0  0  0  0
  190.2790  172.6120  140.1750 N   0  0  0  0  0  0  0  0  0  0  0  0
  188.4250  173.7270  140.6070 C   0  0  0  0  0  3  0  0  0  0  0  0
  189.7830  173.6310  140.8390 C   0  0  0  0  0  0  0  0  0  0  0  0
  189.3350  171.9600  139.5320 N   0  0  0  0  0  0  0  0  0  0  0  0
  188.9410  174.5410  147.6380 C   0  0  0  0  0  1  0  0  0  0  0  0
  190.0630  176.6020  142.1160 O   0  0  0  0  0  1  0  0  0  0  0  0
  189.0350  176.7050  144.2910 C   0  0  1  0  0  0  0  0  0  0  0  0
  187.8280  176.6430  143.5800 O   0  0  0  0  0  1  0  0  0  0  0  0
  187.3930  176.0410  145.9890 O   0  0  0  0  0  1  0  0  0  0  0  0
  191.6770  177.5880  144.0470 C   0  0  0  0  0  2  0  0  0  0  0  0
  188.7680  176.1300  145.7320 C   0  0  1  0  0  3  0  0  0  0  0  0
  189.8550  174.5010  143.2170 C   0  0  2  0  0  3  0  0  0  0  0  0
  190.1240  176.0130  143.3910 C   0  0  1  0  0  0  0  0  0  0  0  0
  190.6490  178.2200  144.9810 C   0  0  0  0  0  2  0  0  0  0  0  0
  189.5200  174.8940  146.2780 C   0  0  0  0  0  0  0  0  0  0  0  0
  191.4200  176.2080  143.9300 O   0  0  0  0  0  0  0  0  0  0  0  0
  189.3140  173.7660  145.4470 O   0  0  0  0  0  0  0  0  0  0  0  0
  190.9860  175.2300  146.5750 C   0  0  0  0  0  1  0  0  0  0  0  0
  190.2830  173.6940  144.4340 C   0  0  0  0  0  2  0  0  0  0  0  0
  189.3580  178.0810  144.4270 O   0  0  0  0  0  0  0  0  0  0  0  0
  192.9570  173.7460  141.9040 C   0  0  0  0  0  2  0  0  0  0  0  0
  194.2840  172.8870  142.8000 S   0  0  0  0  0  0  0  0  0  0  0  0
  195.4800  175.5910  142.1010 O   0  0  0  0  0  1  0  0  0  0  0  0
  193.6130  173.0070  145.7620 O   0  0  0  0  0  1  0  0  0  0  0  0
  194.1760  174.1750  145.2660 C   0  0  0  0  0  0  0  0  0  0  0  0
  195.1090  175.4680  143.4340 C   0  0  0  0  0  0  0  0  0  0  0  0
  194.3810  175.2580  146.1260 C   0  0  0  0  0  3  0  0  0  0  0  0
  194.9420  176.4420  145.6460 C   0  0  0  0  0  3  0  0  0  0  0  0
  194.5440  174.2740  143.9130 C   0  0  0  0  0  0  0  0  0  0  0  0
  195.3050  176.5470  144.3010 C   0  0  0  0  0  3  0  0  0  0  0  0
  1  5  1  0  0  0  0
  2  1  2  0  0  0  0
  3  7  1  0  0  0  0
  4  5  1  0  0  0  0
  5 26  1  6  0  0  0
  6  8  1  0  0  0  0
  6  1  1  0  0  0  0
  7  8  2  0  0  0  0
  8  4  1  0  0  0  0
  9  3  2  0  0  0  0
  9  6  1  0  0  0  0
 12 13  1  6  0  0  0
 12 25  1  0  0  0  0
 12 16  1  0  0  0  0
 15 19  1  0  0  0  0
 16 14  1  6  0  0  0
 16 20  1  0  0  0  0
 17  4  1  6  0  0  0
 17 18  1  0  0  0  0
 17 24  1  0  0  0  0
 18 11  1  6  0  0  0
 18 21  1  0  0  0  0
 18 12  1  0  0  0  0
 20 23  1  0  0  0  0
 20 10  1  0  0  0  0
 21 15  1  0  0  0  0
 22 20  1  0  0  0  0
 24 22  1  0  0  0  0
 25 19  1  0  0  0  0
 26 27  1  0  0  0  0
 27 34  1  0  0  0  0
 28 31  1  0  0  0  0
 30 29  1  0  0  0  0
 30 32  1  0  0  0  0
 31 34  1  0  0  0  0
 31 35  2  0  0  0  0
 33 32  2  0  0  0  0
 34 30  2  0  0  0  0
 35 33  1  0  0  0  0
M  END
>  <MODEL>
6

>  <REMARK>
 VINA RESULT:      -6.8      2.622      6.264
  Name = 
  4 active torsions:
  status: ('A' for Active; 'I' for Inactive)
    1  A    between atoms: C_4  and  C_16
    2  A    between atoms: C_4  and  S_21
    3  A    between atoms: N_15  and  C_17
    4  A    between atoms: S_21  and  C_30
                            x       y       z     vdW  Elec       q    Type
                         _______ _______ _______ _____ _____    ______ ____

>  <TORSDO>
F 4

$$$$
=
 OpenBabel11042418203D

 35 39  0  0  1  0  0  0  0  0999 V2000
  190.3230  174.3260  141.9820 C   0  0  0  0  0  0  0  0  0  0  0  0
  189.3040  175.0140  141.7040 O   0  0  0  0  0  0  0  0  0  0  0  0
  190.7970  171.2660  140.4870 C   0  0  0  0  0  3  0  0  0  0  0  0
  192.5130  173.6650  142.3970 N   0  0  0  0  0  0  0  0  0  0  0  0
  191.6380  174.8530  142.4870 C   0  0  2  0  0  3  0  0  0  0  0  0
  190.4240  172.9370  141.7600 N   0  0  0  0  0  0  0  0  0  0  0  0
  191.9990  171.5110  141.1630 C   0  0  0  0  0  3  0  0  0  0  0  0
  191.6750  172.5900  141.9630 C   0  0  0  0  0  0  0  0  0  0  0  0
  189.8710  172.1950  140.8260 N   0  0  0  0  0  0  0  0  0  0  0  0
  197.4430  175.6630  139.9400 C   0  0  0  0  0  1  0  0  0  0  0  0
  194.3160  172.7650  144.1610 O   0  0  0  0  0  1  0  0  0  0  0  0
  196.3100  173.2440  142.8990 C   0  0  1  0  0  0  0  0  0  0  0  0
  196.2170  171.9060  142.4900 O   0  0  0  0  0  1  0  0  0  0  0  0
  197.7370  173.1440  140.9060 O   0  0  0  0  0  1  0  0  0  0  0  0
  195.6770  174.9290  145.0400 C   0  0  0  0  0  2  0  0  0  0  0  0
  197.0950  174.0290  141.7830 C   0  0  1  0  0  3  0  0  0  0  0  0
  193.9290  173.7440  142.0260 C   0  0  2  0  0  3  0  0  0  0  0  0
  194.8520  173.7070  143.2660 C   0  0  1  0  0  0  0  0  0  0  0  0
  197.1010  174.5480  144.6470 C   0  0  0  0  0  2  0  0  0  0  0  0
  196.4690  175.2180  141.0180 C   0  0  0  0  0  0  0  0  0  0  0  0
  194.8680  174.9800  143.8870 O   0  0  0  0  0  0  0  0  0  0  0  0
  195.2820  174.8240  140.3510 O   0  0  0  0  0  0  0  0  0  0  0  0
  196.3330  176.4450  141.9260 C   0  0  0  0  0  1  0  0  0  0  0  0
  194.1570  174.9840  141.1740 C   0  0  0  0  0  2  0  0  0  0  0  0
  197.1050  173.2570  144.0770 O   0  0  0  0  0  0  0  0  0  0  0  0
  191.5050  175.2910  143.9380 C   0  0  0  0  0  2  0  0  0  0  0  0
  191.7030  177.0930  144.0660 S   0  0  0  0  0  0  0  0  0  0  0  0
  189.2720  177.9810  142.4730 O   0  0  0  0  0  1  0  0  0  0  0  0
  190.7270  176.6530  146.9110 O   0  0  0  0  0  1  0  0  0  0  0  0
  189.7330  177.0670  146.0330 C   0  0  0  0  0  0  0  0  0  0  0  0
  189.0060  177.7310  143.8140 C   0  0  0  0  0  0  0  0  0  0  0  0
  188.4290  177.2430  146.5060 C   0  0  0  0  0  3  0  0  0  0  0  0
  187.4160  177.6550  145.6400 C   0  0  0  0  0  3  0  0  0  0  0  0
  190.0290  177.3160  144.6820 C   0  0  0  0  0  0  0  0  0  0  0  0
  187.7040  177.8980  144.2950 C   0  0  0  0  0  3  0  0  0  0  0  0
  1  5  1  0  0  0  0
  2  1  2  0  0  0  0
  3  9  2  0  0  0  0
  3  7  1  0  0  0  0
  4  5  1  0  0  0  0
  5 26  1  1  0  0  0
  6  8  1  0  0  0  0
  6  1  1  0  0  0  0
  7  8  2  0  0  0  0
  8  4  1  0  0  0  0
  9  6  1  0  0  0  0
 10 20  1  0  0  0  0
 12 13  1  6  0  0  0
 12 18  1  0  0  0  0
 12 25  1  0  0  0  0
 16 14  1  6  0  0  0
 16 12  1  0  0  0  0
 17 24  1  1  0  0  0
 17  4  1  0  0  0  0
 17 18  1  0  0  0  0
 18 21  1  0  0  0  0
 18 11  1  1  0  0  0
 19 15  1  0  0  0  0
 20 16  1  0  0  0  0
 20 23  1  0  0  0  0
 21 15  1  0  0  0  0
 22 20  1  0  0  0  0
 22 24  1  0  0  0  0
 25 19  1  0  0  0  0
 26 27  1  0  0  0  0
 27 34  1  0  0  0  0
 28 31  1  0  0  0  0
 30 32  1  0  0  0  0
 30 29  1  0  0  0  0
 31 35  2  0  0  0  0
 31 34  1  0  0  0  0
 33 32  2  0  0  0  0
 34 30  2  0  0  0  0
 35 33  1  0  0  0  0
M  END
>  <MODEL>
7

>  <REMARK>
 VINA RESULT:      -6.7      2.494      3.936
  Name = 
  4 active torsions:
  status: ('A' for Active; 'I' for Inactive)
    1  A    between atoms: C_4  and  C_16
    2  A    between atoms: C_4  and  S_21
    3  A    between atoms: N_15  and  C_17
    4  A    between atoms: S_21  and  C_30
                            x       y       z     vdW  Elec       q    Type
                         _______ _______ _______ _____ _____    ______ ____

>  <TORSDO>
F 4

$$$$
=
 OpenBabel11042418203D

 35 39  0  0  1  0  0  0  0  0999 V2000
  189.1140  173.8580  141.5090 C   0  0  0  0  0  0  0  0  0  0  0  0
  188.0860  174.5590  141.3090 O   0  0  0  0  0  0  0  0  0  0  0  0
  190.1970  171.6590  139.0960 C   0  0  0  0  0  3  0  0  0  0  0  0
  191.2600  173.1730  142.0840 N   0  0  0  0  0  0  0  0  0  0  0  0
  190.2500  174.1940  142.4360 C   0  0  2  0  0  3  0  0  0  0  0  0
  189.4140  172.6750  140.8020 N   0  0  0  0  0  0  0  0  0  0  0  0
  191.2250  171.6640  140.0480 C   0  0  0  0  0  3  0  0  0  0  0  0
  190.6430  172.3250  141.1120 C   0  0  0  0  0  0  0  0  0  0  0  0
  189.1240  172.3410  139.5640 N   0  0  0  0  0  0  0  0  0  0  0  0
  196.2740  176.1770  141.6730 C   0  0  0  0  0  1  0  0  0  0  0  0
  192.8240  171.6980  143.6820 O   0  0  0  0  0  1  0  0  0  0  0  0
  194.9370  172.7220  143.1460 C   0  0  1  0  0  0  0  0  0  0  0  0
  195.0710  171.6650  142.2350 O   0  0  0  0  0  1  0  0  0  0  0  0
  196.6870  173.4950  141.6100 O   0  0  0  0  0  1  0  0  0  0  0  0
  193.7530  173.3640  145.5970 C   0  0  0  0  0  2  0  0  0  0  0  0
  195.8060  173.9220  142.6130 C   0  0  1  0  0  3  0  0  0  0  0  0
  192.7000  173.4480  142.0720 C   0  0  2  0  0  3  0  0  0  0  0  0
  193.3930  172.9420  143.3580 C   0  0  1  0  0  0  0  0  0  0  0  0
  195.2580  173.2280  145.3860 C   0  0  0  0  0  2  0  0  0  0  0  0
  195.1870  175.2960  142.2650 C   0  0  0  0  0  0  0  0  0  0  0  0
  193.1550  173.8510  144.4180 O   0  0  0  0  0  0  0  0  0  0  0  0
  194.1870  175.1660  141.2700 O   0  0  0  0  0  0  0  0  0  0  0  0
  194.7560  176.0410  143.5330 C   0  0  0  0  0  1  0  0  0  0  0  0
  192.9260  174.9360  141.8410 C   0  0  0  0  0  2  0  0  0  0  0  0
  195.5100  172.2830  144.3690 O   0  0  0  0  0  0  0  0  0  0  0  0
  189.8160  174.0170  143.8820 C   0  0  0  0  0  2  0  0  0  0  0  0
  189.0200  175.5360  144.4850 S   0  0  0  0  0  0  0  0  0  0  0  0
  189.0690  174.5230  147.3490 O   0  0  0  0  0  1  0  0  0  0  0  0
  191.5850  177.1230  144.1120 O   0  0  0  0  0  1  0  0  0  0  0  0
  191.4400  176.5800  145.3820 C   0  0  0  0  0  0  0  0  0  0  0  0
  190.1820  175.2790  147.0000 C   0  0  0  0  0  0  0  0  0  0  0  0
  192.4350  176.7980  146.3400 C   0  0  0  0  0  3  0  0  0  0  0  0
  192.3100  176.2570  147.6200 C   0  0  0  0  0  3  0  0  0  0  0  0
  190.3040  175.8210  145.7100 C   0  0  0  0  0  0  0  0  0  0  0  0
  191.1850  175.4980  147.9500 C   0  0  0  0  0  3  0  0  0  0  0  0
  1  5  1  0  0  0  0
  2  1  2  0  0  0  0
  3  9  2  0  0  0  0
  3  7  1  0  0  0  0
  4  5  1  0  0  0  0
  5 26  1  1  0  0  0
  6  8  1  0  0  0  0
  6  1  1  0  0  0  0
  7  8  2  0  0  0  0
  8  4  1  0  0  0  0
  9  6  1  0  0  0  0
 10 20  1  0  0  0  0
 12 13  1  6  0  0  0
 12 18  1  0  0  0  0
 12 25  1  0  0  0  0
 16 14  1  6  0  0  0
 16 12  1  0  0  0  0
 17 24  1  1  0  0  0
 17  4  1  0  0  0  0
 17 18  1  0  0  0  0
 18 11  1  1  0  0  0
 18 21  1  0  0  0  0
 19 15  1  0  0  0  0
 20 16  1  0  0  0  0
 20 23  1  0  0  0  0
 21 15  1  0  0  0  0
 22 24  1  0  0  0  0
 22 20  1  0  0  0  0
 25 19  1  0  0  0  0
 26 27  1  0  0  0  0
 27 34  1  0  0  0  0
 29 30  1  0  0  0  0
 30 34  2  0  0  0  0
 30 32  1  0  0  0  0
 31 28  1  0  0  0  0
 31 35  2  0  0  0  0
 32 33  2  0  0  0  0
 33 35  1  0  0  0  0
 34 31  1  0  0  0  0
M  END
>  <MODEL>
8

>  <REMARK>
 VINA RESULT:      -6.6      2.978      3.808
  Name = 
  4 active torsions:
  status: ('A' for Active; 'I' for Inactive)
    1  A    between atoms: C_4  and  C_16
    2  A    between atoms: C_4  and  S_21
    3  A    between atoms: N_15  and  C_17
    4  A    between atoms: S_21  and  C_30
                            x       y       z     vdW  Elec       q    Type
                         _______ _______ _______ _____ _____    ______ ____

>  <TORSDO>
F 4

$$$$
=
 OpenBabel11042418203D

 35 39  0  0  1  0  0  0  0  0999 V2000
  191.1920  176.3170  145.8480 C   0  0  0  0  0  0  0  0  0  0  0  0
  190.3790  176.6700  146.7450 O   0  0  0  0  0  0  0  0  0  0  0  0
  194.5650  176.2450  146.5130 C   0  0  0  0  0  3  0  0  0  0  0  0
  192.2310  175.1580  144.1210 N   0  0  0  0  0  0  0  0  0  0  0  0
  190.8860  175.4260  144.6760 C   0  0  2  0  0  3  0  0  0  0  0  0
  192.5680  176.6240  145.8640 N   0  0  0  0  0  0  0  0  0  0  0  0
  194.4460  175.6370  145.2560 C   0  0  0  0  0  3  0  0  0  0  0  0
  193.1430  175.9320  144.9060 C   0  0  0  0  0  0  0  0  0  0  0  0
  193.3800  176.7860  146.8850 N   0  0  0  0  0  0  0  0  0  0  0  0
  192.3160  169.3770  143.1700 C   0  0  0  0  0  1  0  0  0  0  0  0
  192.9540  175.1170  141.5430 O   0  0  0  0  0  1  0  0  0  0  0  0
  193.3740  172.7540  141.3350 C   0  0  1  0  0  0  0  0  0  0  0  0
  194.7100  173.1020  141.5820 O   0  0  0  0  0  1  0  0  0  0  0  0
  194.4150  170.6320  141.9920 O   0  0  0  0  0  1  0  0  0  0  0  0
  191.0170  173.7700  140.2240 C   0  0  0  0  0  2  0  0  0  0  0  0
  193.1780  171.2610  141.7930 C   0  0  1  0  0  3  0  0  0  0  0  0
  192.6100  173.8660  143.5400 C   0  0  2  0  0  3  0  0  0  0  0  0
  192.4870  173.8710  141.9990 C   0  0  1  0  0  0  0  0  0  0  0  0
  191.8280  172.6330  139.6100 C   0  0  0  0  0  2  0  0  0  0  0  0
  192.1650  170.8630  142.8920 C   0  0  0  0  0  0  0  0  0  0  0  0
  191.1280  173.7220  141.6280 O   0  0  0  0  0  0  0  0  0  0  0  0
  192.4480  171.5310  144.1090 O   0  0  0  0  0  0  0  0  0  0  0  0
  190.7250  171.0020  142.3880 C   0  0  0  0  0  1  0  0  0  0  0  0
  191.7800  172.7630  144.1820 C   0  0  0  0  0  2  0  0  0  0  0  0
  193.1930  172.8020  139.9270 O   0  0  0  0  0  0  0  0  0  0  0  0
  190.0450  176.1760  143.6540 C   0  0  0  0  0  2  0  0  0  0  0  0
  188.5080  175.2640  143.3230 S   0  0  0  0  0  0  0  0  0  0  0  0
  187.2720  176.4160  145.8480 O   0  0  0  0  0  1  0  0  0  0  0  0
  187.7020  177.1330  141.0660 O   0  0  0  0  0  1  0  0  0  0  0  0
  187.2170  177.5130  142.3100 C   0  0  0  0  0  0  0  0  0  0  0  0
  187.0030  177.1550  144.7020 C   0  0  0  0  0  0  0  0  0  0  0  0
  186.4340  178.6660  142.4200 C   0  0  0  0  0  3  0  0  0  0  0  0
  185.9400  179.0670  143.6610 C   0  0  0  0  0  3  0  0  0  0  0  0
  187.5020  176.7470  143.4540 C   0  0  0  0  0  0  0  0  0  0  0  0
  186.2250  178.3120  144.8020 C   0  0  0  0  0  3  0  0  0  0  0  0
  1  6  1  0  0  0  0
  1  2  2  0  0  0  0
  3  9  2  0  0  0  0
  4  5  1  0  0  0  0
  4  8  1  0  0  0  0
  5 26  1  6  0  0  0
  5  1  1  0  0  0  0
  6  9  1  0  0  0  0
  7  3  1  0  0  0  0
  8  7  2  0  0  0  0
  8  6  1  0  0  0  0
 12 13  1  1  0  0  0
 12 16  1  0  0  0  0
 12 18  1  0  0  0  0
 15 21  1  0  0  0  0
 16 14  1  1  0  0  0
 16 20  1  0  0  0  0
 17  4  1  1  0  0  0
 17 24  1  0  0  0  0
 18 11  1  6  0  0  0
 18 17  1  0  0  0  0
 19 25  1  0  0  0  0
 19 15  1  0  0  0  0
 20 10  1  0  0  0  0
 20 22  1  0  0  0  0
 21 18  1  0  0  0  0
 22 24  1  0  0  0  0
 23 20  1  0  0  0  0
 25 12  1  0  0  0  0
 27 34  1  0  0  0  0
 27 26  1  0  0  0  0
 29 30  1  0  0  0  0
 30 32  2  0  0  0  0
 30 34  1  0  0  0  0
 31 35  1  0  0  0  0
 31 28  1  0  0  0  0
 32 33  1  0  0  0  0
 33 35  2  0  0  0  0
 34 31  2  0  0  0  0
M  END
>  <MODEL>
9

>  <REMARK>
 VINA RESULT:      -6.6      2.605      5.055
  Name = 
  4 active torsions:
  status: ('A' for Active; 'I' for Inactive)
    1  A    between atoms: C_4  and  C_16
    2  A    between atoms: C_4  and  S_21
    3  A    between atoms: N_15  and  C_17
    4  A    between atoms: S_21  and  C_30
                            x       y       z     vdW  Elec       q    Type
                         _______ _______ _______ _____ _____    ______ ____

>  <TORSDO>
F 4

$$$$
