=
 OpenBabel11042418413D

 34 37  0  0  1  0  0  0  0  0999 V2000
  189.0640  175.9720  145.6790 C   0  0  0  0  0  0  0  0  0  0  0  0
  190.2890  175.3660  145.9660 C   0  0  0  0  0  3  0  0  0  0  0  0
  186.9620  177.0400  146.2350 C   0  0  0  0  0  0  0  0  0  0  0  0
  190.9590  174.9690  144.8050 C   0  0  0  0  0  0  0  0  0  0  0  0
  184.5190  178.1930  145.5100 C   0  0  0  0  0  3  0  0  0  0  0  0
  188.1740  176.4580  146.6330 O   0  0  0  0  0  0  0  0  0  0  0  0
  187.5610  176.6590  143.8440 N   0  0  0  0  0  0  0  0  0  0  0  0
  190.0370  175.3990  143.4500 S   0  0  0  0  0  0  0  0  0  0  0  0
  186.0840  177.5060  147.2180 C   0  0  0  0  0  3  0  0  0  0  0  0
  184.8660  178.0810  146.8570 C   0  0  0  0  0  0  0  0  0  0  0  0
  188.7740  176.0660  144.3360 C   0  0  0  0  0  0  0  0  0  0  0  0
  185.3910  177.7320  144.5220 C   0  0  0  0  0  3  0  0  0  0  0  0
  184.0190  178.5320  147.8120 F   0  0  0  0  0  0  0  0  0  0  0  0
  186.6260  177.1510  144.8560 C   0  0  0  0  0  0  0  0  0  0  0  0
  193.5060  175.1150  144.9260 N   0  0  0  0  0  0  0  0  0  0  0  0
  192.2970  174.3440  144.7930 C   0  0  0  0  0  0  0  0  0  0  0  0
  192.3750  173.0910  144.6720 O   0  0  0  0  0  0  0  0  0  0  0  0
  193.5970  176.4820  144.4400 C   0  0  0  0  0  1  0  0  0  0  0  0
  196.9490  173.3090  146.1340 C   0  0  0  0  0  1  0  0  0  0  0  0
  194.6930  174.4930  145.3420 C   0  0  0  0  0  0  0  0  0  0  0  0
  195.7130  173.9590  145.7000 C   0  0  0  0  0  0  0  0  0  0  0  0
  187.4100  176.6950  142.3740 C   0  0  2  0  0  3  0  0  0  0  0  0
  188.1810  177.8070  141.6930 C   0  0  0  0  0  2  0  0  0  0  0  0
  186.6820  177.9410  141.9120 C   0  0  1  0  0  3  0  0  0  0  0  0
  185.9560  177.6380  140.6180 C   0  0  0  0  0  2  0  0  0  0  0  0
  184.7860  178.5910  140.4520 C   0  0  0  0  0  2  0  0  0  0  0  0
  183.5050  177.8140  140.2050 C   0  0  0  0  0  2  0  0  0  0  0  0
  182.5310  178.5230  142.3130 O   0  0  0  0  0  1  0  0  0  0  0  0
  182.3250  178.4520  140.9310 C   0  0  2  0  0  3  0  0  0  0  0  0
  181.0880  177.8590  140.5880 O   0  0  0  0  0  0  0  0  0  0  0  0
  180.3610  180.5770  140.4960 O   0  0  0  0  0  1  0  0  0  0  0  0
  179.1020  178.8570  142.2320 O   0  0  0  0  0  1  0  0  0  0  0  0
  179.8070  178.9910  140.7010 P   0  0  0  0  0  0  0  0  0  0  0  0
  178.7610  178.6850  139.6540 O   0  0  0  0  0  0  0  0  0  0  0  0
  1  2  1  0  0  0  0
  1  6  1  0  0  0  0
  3  6  1  0  0  0  0
  3  9  1  0  0  0  0
  4  2  2  0  0  0  0
  5 10  1  0  0  0  0
  7 11  1  0  0  0  0
  7 14  1  0  0  0  0
  8 11  1  0  0  0  0
  8  4  1  0  0  0  0
 10  9  2  0  0  0  0
 10 13  1  0  0  0  0
 11  1  2  0  0  0  0
 12 14  1  0  0  0  0
 12  5  2  0  0  0  0
 14  3  2  0  0  0  0
 15 20  1  0  0  0  0
 16  4  1  0  0  0  0
 16 15  1  0  0  0  0
 17 16  2  0  0  0  0
 18 15  1  0  0  0  0
 20 21  3  0  0  0  0
 21 19  1  0  0  0  0
 22 23  1  6  0  0  0
 22  7  1  0  0  0  0
 23 24  1  0  0  0  0
 24 25  1  6  0  0  0
 24 22  1  0  0  0  0
 26 25  1  0  0  0  0
 27 26  1  0  0  0  0
 27 29  1  0  0  0  0
 29 28  1  1  0  0  0
 30 33  1  0  0  0  0
 30 29  1  0  0  0  0
 31 33  1  0  0  0  0
 33 32  1  0  0  0  0
 34 33  2  0  0  0  0
M  END
>  <MODEL>
1

>  <REMARK>
 VINA RESULT:      -7.6      0.000      0.000
  Name = 
  9 active torsions:
  status: ('A' for Active; 'I' for Inactive)
    1  A    between atoms: C_4  and  N_14
    2  A    between atoms: N_5  and  C_16
    3  A    between atoms: C_10  and  C_26
    4  A    between atoms: C_10  and  C_34
    5  A    between atoms: C_11  and  C_20
    6  A    between atoms: O_17  and  P_22
    7  A    between atoms: O_17  and  C_26
    8  A    between atoms: C_18  and  C_28
    9  A    between atoms: C_28  and  C_34
                            x       y       z     vdW  Elec       q    Type
                         _______ _______ _______ _____ _____    ______ ____

>  <TORSDO>
F 9

$$$$
=
 OpenBabel11042418413D

 34 37  0  0  1  0  0  0  0  0999 V2000
  187.7900  175.5300  142.3610 C   0  0  0  0  0  0  0  0  0  0  0  0
  188.3940  174.7670  141.3580 C   0  0  0  0  0  3  0  0  0  0  0  0
  186.0860  176.9820  143.2850 C   0  0  0  0  0  0  0  0  0  0  0  0
  189.5870  174.1830  141.7950 C   0  0  0  0  0  0  0  0  0  0  0  0
  185.0180  178.5060  145.3740 C   0  0  0  0  0  3  0  0  0  0  0  0
  186.6000  176.2360  142.2140 O   0  0  0  0  0  0  0  0  0  0  0  0
  188.0090  176.2710  144.7060 N   0  0  0  0  0  0  0  0  0  0  0  0
  189.8560  174.6000  143.4150 S   0  0  0  0  0  0  0  0  0  0  0  0
  184.8950  177.6910  143.1020 C   0  0  0  0  0  3  0  0  0  0  0  0
  184.3620  178.4510  144.1430 C   0  0  0  0  0  0  0  0  0  0  0  0
  188.4720  175.5440  143.5570 C   0  0  0  0  0  0  0  0  0  0  0  0
  186.2070  177.7990  145.5650 C   0  0  0  0  0  3  0  0  0  0  0  0
  183.2080  179.1350  143.9610 F   0  0  0  0  0  0  0  0  0  0  0  0
  186.7650  177.0230  144.5350 C   0  0  0  0  0  0  0  0  0  0  0  0
  190.3630  171.8520  141.0980 N   0  0  0  0  0  0  0  0  0  0  0  0
  190.4200  173.2850  140.9700 C   0  0  0  0  0  0  0  0  0  0  0  0
  191.1980  173.7980  140.1210 O   0  0  0  0  0  0  0  0  0  0  0  0
  190.0530  171.2110  142.3650 C   0  0  0  0  0  1  0  0  0  0  0  0
  191.6600  169.4830  138.0510 C   0  0  0  0  0  1  0  0  0  0  0  0
  190.8100  171.0360  140.0480 C   0  0  0  0  0  0  0  0  0  0  0  0
  191.1940  170.3350  139.1450 C   0  0  0  0  0  0  0  0  0  0  0  0
  188.8500  176.1700  145.9170 C   0  0  2  0  0  3  0  0  0  0  0  0
  188.8360  177.4050  146.7940 C   0  0  0  0  0  2  0  0  0  0  0  0
  190.0170  177.1350  145.8760 C   0  0  1  0  0  3  0  0  0  0  0  0
  191.1620  176.5600  146.6860 C   0  0  0  0  0  2  0  0  0  0  0  0
  192.2700  176.1050  145.7540 C   0  0  0  0  0  2  0  0  0  0  0  0
  193.5960  176.0650  146.4920 C   0  0  0  0  0  2  0  0  0  0  0  0
  194.8850  178.0030  145.8010 O   0  0  0  0  0  1  0  0  0  0  0  0
  194.7230  176.6240  145.6300 C   0  0  2  0  0  3  0  0  0  0  0  0
  194.6090  176.2470  144.2710 O   0  0  0  0  0  0  0  0  0  0  0  0
  197.1170  177.0910  143.3120 O   0  0  0  0  0  1  0  0  0  0  0  0
  195.8570  174.9190  142.1920 O   0  0  0  0  0  0  0  0  0  0  0  0
  196.1230  175.7600  143.6350 P   0  0  0  0  0  0  0  0  0  0  0  0
  196.8170  174.8410  144.6140 O   0  0  0  0  0  1  0  0  0  0  0  0
  1 11  2  0  0  0  0
  2  4  2  0  0  0  0
  2  1  1  0  0  0  0
  3 14  1  0  0  0  0
  4  8  1  0  0  0  0
  5 12  1  0  0  0  0
  6  1  1  0  0  0  0
  6  3  1  0  0  0  0
  8 11  1  0  0  0  0
  9  3  2  0  0  0  0
  9 10  1  0  0  0  0
 10  5  2  0  0  0  0
 11  7  1  0  0  0  0
 13 10  1  0  0  0  0
 14  7  1  0  0  0  0
 14 12  2  0  0  0  0
 15 18  1  0  0  0  0
 16 15  1  0  0  0  0
 16  4  1  0  0  0  0
 17 16  2  0  0  0  0
 19 21  1  0  0  0  0
 20 15  1  0  0  0  0
 21 20  3  0  0  0  0
 22  7  1  6  0  0  0
 22 23  1  0  0  0  0
 24 22  1  0  0  0  0
 24 25  1  1  0  0  0
 24 23  1  0  0  0  0
 26 27  1  0  0  0  0
 26 25  1  0  0  0  0
 29 28  1  6  0  0  0
 29 27  1  0  0  0  0
 30 29  1  0  0  0  0
 31 33  1  0  0  0  0
 32 33  2  0  0  0  0
 33 30  1  0  0  0  0
 33 34  1  0  0  0  0
M  END
>  <MODEL>
2

>  <REMARK>
 VINA RESULT:      -7.1      4.707      8.827
  Name = 
  9 active torsions:
  status: ('A' for Active; 'I' for Inactive)
    1  A    between atoms: C_4  and  N_14
    2  A    between atoms: N_5  and  C_16
    3  A    between atoms: C_10  and  C_26
    4  A    between atoms: C_10  and  C_34
    5  A    between atoms: C_11  and  C_20
    6  A    between atoms: O_17  and  P_22
    7  A    between atoms: O_17  and  C_26
    8  A    between atoms: C_18  and  C_28
    9  A    between atoms: C_28  and  C_34
                            x       y       z     vdW  Elec       q    Type
                         _______ _______ _______ _____ _____    ______ ____

>  <TORSDO>
F 9

$$$$
=
 OpenBabel11042418413D

 34 37  0  0  1  0  0  0  0  0999 V2000
  187.9820  175.5370  143.1590 C   0  0  0  0  0  0  0  0  0  0  0  0
  188.4090  174.8860  141.9980 C   0  0  0  0  0  3  0  0  0  0  0  0
  186.4860  176.9120  144.4760 C   0  0  0  0  0  0  0  0  0  0  0  0
  189.6220  174.2200  142.1910 C   0  0  0  0  0  0  0  0  0  0  0  0
  185.7820  178.1990  146.8590 C   0  0  0  0  0  3  0  0  0  0  0  0
  186.8150  176.2890  143.2640 O   0  0  0  0  0  0  0  0  0  0  0  0
  188.5510  175.9790  145.5200 N   0  0  0  0  0  0  0  0  0  0  0  0
  190.1290  174.4280  143.7950 S   0  0  0  0  0  0  0  0  0  0  0  0
  185.3150  177.6710  144.5480 C   0  0  0  0  0  3  0  0  0  0  0  0
  184.9630  178.3130  145.7350 C   0  0  0  0  0  0  0  0  0  0  0  0
  188.8200  175.3850  144.2400 C   0  0  0  0  0  0  0  0  0  0  0  0
  186.9530  177.4410  146.7970 C   0  0  0  0  0  3  0  0  0  0  0  0
  183.8270  179.0470  145.7990 F   0  0  0  0  0  0  0  0  0  0  0  0
  187.3300  176.7810  145.6150 C   0  0  0  0  0  0  0  0  0  0  0  0
  190.1930  171.9700  141.1250 N   0  0  0  0  0  0  0  0  0  0  0  0
  190.2950  173.4060  141.1580 C   0  0  0  0  0  0  0  0  0  0  0  0
  190.9700  173.9970  140.2720 O   0  0  0  0  0  0  0  0  0  0  0  0
  190.0320  171.1890  142.3400 C   0  0  0  0  0  1  0  0  0  0  0  0
  190.9540  169.9530  137.6710 C   0  0  0  0  0  1  0  0  0  0  0  0
  190.4560  171.2750  139.9350 C   0  0  0  0  0  0  0  0  0  0  0  0
  190.6810  170.6780  138.9120 C   0  0  0  0  0  0  0  0  0  0  0  0
  189.5440  175.7070  146.5800 C   0  0  2  0  0  3  0  0  0  0  0  0
  190.1220  176.9480  147.2300 C   0  0  0  0  0  2  0  0  0  0  0  0
  190.9290  176.1840  146.1930 C   0  0  1  0  0  3  0  0  0  0  0  0
  191.9610  175.3230  146.8930 C   0  0  0  0  0  2  0  0  0  0  0  0
  193.1260  175.0590  145.9560 C   0  0  0  0  0  2  0  0  0  0  0  0
  194.3650  175.7950  146.4370 C   0  0  0  0  0  2  0  0  0  0  0  0
  194.9000  178.0470  145.7020 O   0  0  0  0  0  1  0  0  0  0  0  0
  194.9300  176.6950  145.3420 C   0  0  2  0  0  3  0  0  0  0  0  0
  194.3450  176.4480  144.0770 O   0  0  0  0  0  0  0  0  0  0  0  0
  195.9530  174.3950  143.0170 O   0  0  0  0  0  1  0  0  0  0  0  0
  196.9160  176.9640  143.2030 O   0  0  0  0  0  1  0  0  0  0  0  0
  195.5340  176.0320  142.9170 P   0  0  0  0  0  0  0  0  0  0  0  0
  195.0210  176.3340  141.5280 O   0  0  0  0  0  0  0  0  0  0  0  0
  1  6  1  0  0  0  0
  1 11  2  0  0  0  0
  2  4  2  0  0  0  0
  2  1  1  0  0  0  0
  3  9  2  0  0  0  0
  3 14  1  0  0  0  0
  4  8  1  0  0  0  0
  6  3  1  0  0  0  0
  7 14  1  0  0  0  0
  8 11  1  0  0  0  0
  9 10  1  0  0  0  0
 10 13  1  0  0  0  0
 10  5  2  0  0  0  0
 11  7  1  0  0  0  0
 12  5  1  0  0  0  0
 14 12  2  0  0  0  0
 15 16  1  0  0  0  0
 15 18  1  0  0  0  0
 16  4  1  0  0  0  0
 17 16  2  0  0  0  0
 19 21  1  0  0  0  0
 20 15  1  0  0  0  0
 21 20  3  0  0  0  0
 22  7  1  6  0  0  0
 22 23  1  0  0  0  0
 24 22  1  0  0  0  0
 24 25  1  1  0  0  0
 24 23  1  0  0  0  0
 26 27  1  0  0  0  0
 26 25  1  0  0  0  0
 29 28  1  1  0  0  0
 29 27  1  0  0  0  0
 30 29  1  0  0  0  0
 33 31  1  0  0  0  0
 33 32  1  0  0  0  0
 33 30  1  0  0  0  0
 34 33  2  0  0  0  0
M  END
>  <MODEL>
3

>  <REMARK>
 VINA RESULT:      -7.0      4.667      8.737
  Name = 
  9 active torsions:
  status: ('A' for Active; 'I' for Inactive)
    1  A    between atoms: C_4  and  N_14
    2  A    between atoms: N_5  and  C_16
    3  A    between atoms: C_10  and  C_26
    4  A    between atoms: C_10  and  C_34
    5  A    between atoms: C_11  and  C_20
    6  A    between atoms: O_17  and  P_22
    7  A    between atoms: O_17  and  C_26
    8  A    between atoms: C_18  and  C_28
    9  A    between atoms: C_28  and  C_34
                            x       y       z     vdW  Elec       q    Type
                         _______ _______ _______ _____ _____    ______ ____

>  <TORSDO>
F 9

$$$$
=
 OpenBabel11042418413D

 34 37  0  0  1  0  0  0  0  0999 V2000
  189.7480  176.7760  146.2770 C   0  0  0  0  0  0  0  0  0  0  0  0
  191.0420  176.5210  146.7390 C   0  0  0  0  0  3  0  0  0  0  0  0
  187.4310  177.4420  146.5060 C   0  0  0  0  0  0  0  0  0  0  0  0
  191.8790  176.0660  145.7160 C   0  0  0  0  0  0  0  0  0  0  0  0
  184.8760  177.8680  145.4490 C   0  0  0  0  0  3  0  0  0  0  0  0
  188.6970  177.2290  147.0700 O   0  0  0  0  0  0  0  0  0  0  0  0
  188.3040  176.7480  144.2750 N   0  0  0  0  0  0  0  0  0  0  0  0
  191.0110  176.0120  144.2610 S   0  0  0  0  0  0  0  0  0  0  0  0
  186.3920  177.8850  147.3300 C   0  0  0  0  0  3  0  0  0  0  0  0
  185.1180  178.0970  146.8040 C   0  0  0  0  0  0  0  0  0  0  0  0
  189.5640  176.5430  144.9330 C   0  0  0  0  0  0  0  0  0  0  0  0
  185.9080  177.4270  144.6180 C   0  0  0  0  0  3  0  0  0  0  0  0
  184.1160  178.5260  147.6070 F   0  0  0  0  0  0  0  0  0  0  0  0
  187.2020  177.2090  145.1210 C   0  0  0  0  0  0  0  0  0  0  0  0
  193.8830  174.4970  145.5010 N   0  0  0  0  0  0  0  0  0  0  0  0
  193.3130  175.7600  145.8930 C   0  0  0  0  0  0  0  0  0  0  0  0
  194.0590  176.6430  146.3960 O   0  0  0  0  0  0  0  0  0  0  0  0
  193.1090  173.2670  145.5360 C   0  0  0  0  0  1  0  0  0  0  0  0
  197.8880  174.1880  144.8400 C   0  0  0  0  0  1  0  0  0  0  0  0
  195.2630  174.3900  145.2740 C   0  0  0  0  0  0  0  0  0  0  0  0
  196.4500  174.2990  145.0780 C   0  0  0  0  0  0  0  0  0  0  0  0
  188.2780  176.4660  142.8250 C   0  0  2  0  0  3  0  0  0  0  0  0
  186.9160  176.0800  142.2850 C   0  0  0  0  0  2  0  0  0  0  0  0
  187.9670  175.0100  142.5380 C   0  0  1  0  0  3  0  0  0  0  0  0
  188.6100  174.6170  141.2240 C   0  0  0  0  0  2  0  0  0  0  0  0
  189.0190  173.1560  141.2720 C   0  0  0  0  0  2  0  0  0  0  0  0
  188.6150  172.5400  142.6000 C   0  0  0  0  0  2  0  0  0  0  0  0
  189.7550  172.2120  144.7190 O   0  0  0  0  0  1  0  0  0  0  0  0
  189.8280  171.9830  143.3400 C   0  0  2  0  0  3  0  0  0  0  0  0
  191.0540  172.4070  142.7750 O   0  0  0  0  0  0  0  0  0  0  0  0
  191.3660  170.0370  141.2880 O   0  0  0  0  0  0  0  0  0  0  0  0
  192.3270  170.2050  143.8580 O   0  0  0  0  0  1  0  0  0  0  0  0
  192.0680  171.0710  142.4290 P   0  0  0  0  0  0  0  0  0  0  0  0
  193.4000  171.5620  141.9090 O   0  0  0  0  0  1  0  0  0  0  0  0
  1  2  1  0  0  0  0
  1  6  1  0  0  0  0
  3  6  1  0  0  0  0
  3  9  1  0  0  0  0
  4 16  1  0  0  0  0
  4  2  2  0  0  0  0
  5 10  1  0  0  0  0
  7 11  1  0  0  0  0
  7 14  1  0  0  0  0
  8 11  1  0  0  0  0
  8  4  1  0  0  0  0
 10  9  2  0  0  0  0
 10 13  1  0  0  0  0
 11  1  2  0  0  0  0
 12 14  1  0  0  0  0
 12  5  2  0  0  0  0
 14  3  2  0  0  0  0
 15 18  1  0  0  0  0
 15 16  1  0  0  0  0
 16 17  2  0  0  0  0
 19 21  1  0  0  0  0
 20 15  1  0  0  0  0
 21 20  3  0  0  0  0
 22 23  1  6  0  0  0
 22  7  1  0  0  0  0
 23 24  1  0  0  0  0
 24 25  1  6  0  0  0
 24 22  1  0  0  0  0
 25 26  1  0  0  0  0
 26 27  1  0  0  0  0
 27 29  1  0  0  0  0
 29 28  1  1  0  0  0
 30 29  1  0  0  0  0
 31 33  2  0  0  0  0
 33 30  1  0  0  0  0
 33 32  1  0  0  0  0
 34 33  1  0  0  0  0
M  END
>  <MODEL>
4

>  <REMARK>
 VINA RESULT:      -7.0      5.084      6.646
  Name = 
  9 active torsions:
  status: ('A' for Active; 'I' for Inactive)
    1  A    between atoms: C_4  and  N_14
    2  A    between atoms: N_5  and  C_16
    3  A    between atoms: C_10  and  C_26
    4  A    between atoms: C_10  and  C_34
    5  A    between atoms: C_11  and  C_20
    6  A    between atoms: O_17  and  P_22
    7  A    between atoms: O_17  and  C_26
    8  A    between atoms: C_18  and  C_28
    9  A    between atoms: C_28  and  C_34
                            x       y       z     vdW  Elec       q    Type
                         _______ _______ _______ _____ _____    ______ ____

>  <TORSDO>
F 9

$$$$
=
 OpenBabel11042418413D

 34 37  0  0  1  0  0  0  0  0999 V2000
  189.6980  176.8250  146.3270 C   0  0  0  0  0  0  0  0  0  0  0  0
  190.9770  176.5210  146.7980 C   0  0  0  0  0  3  0  0  0  0  0  0
  187.3940  177.5400  146.5470 C   0  0  0  0  0  0  0  0  0  0  0  0
  191.8190  176.0820  145.7720 C   0  0  0  0  0  0  0  0  0  0  0  0
  184.8670  178.0680  145.4690 C   0  0  0  0  0  3  0  0  0  0  0  0
  188.6450  177.2750  147.1210 O   0  0  0  0  0  0  0  0  0  0  0  0
  188.2850  176.9070  144.3050 N   0  0  0  0  0  0  0  0  0  0  0  0
  190.9730  176.1040  144.3030 S   0  0  0  0  0  0  0  0  0  0  0  0
  186.3540  177.9780  147.3710 C   0  0  0  0  0  3  0  0  0  0  0  0
  185.0930  178.2420  146.8350 C   0  0  0  0  0  0  0  0  0  0  0  0
  189.5290  176.6460  144.9730 C   0  0  0  0  0  0  0  0  0  0  0  0
  185.9010  177.6330  144.6370 C   0  0  0  0  0  3  0  0  0  0  0  0
  184.0900  178.6660  147.6380 F   0  0  0  0  0  0  0  0  0  0  0  0
  187.1810  177.3630  145.1500 C   0  0  0  0  0  0  0  0  0  0  0  0
  193.8000  174.4980  145.4760 N   0  0  0  0  0  0  0  0  0  0  0  0
  193.2420  175.7340  145.9590 C   0  0  0  0  0  0  0  0  0  0  0  0
  193.9900  176.5580  146.5530 O   0  0  0  0  0  0  0  0  0  0  0  0
  193.0030  173.2850  145.3880 C   0  0  0  0  0  1  0  0  0  0  0  0
  197.8150  174.1650  144.8930 C   0  0  0  0  0  1  0  0  0  0  0  0
  195.1840  174.3830  145.2750 C   0  0  0  0  0  0  0  0  0  0  0  0
  196.3730  174.2860  145.1030 C   0  0  0  0  0  0  0  0  0  0  0  0
  188.2750  176.6790  142.8450 C   0  0  2  0  0  3  0  0  0  0  0  0
  186.8920  176.5370  142.2420 C   0  0  0  0  0  2  0  0  0  0  0  0
  187.7450  175.3030  142.4910 C   0  0  1  0  0  3  0  0  0  0  0  0
  188.3710  174.8530  141.1870 C   0  0  0  0  0  2  0  0  0  0  0  0
  189.5910  173.9960  141.4740 C   0  0  0  0  0  2  0  0  0  0  0  0
  190.3780  173.7580  140.1980 C   0  0  0  0  0  2  0  0  0  0  0  0
  191.9400  171.9170  140.4560 O   0  0  0  0  0  1  0  0  0  0  0  0
  191.8030  173.3090  140.5070 C   0  0  2  0  0  3  0  0  0  0  0  0
  192.3050  173.8680  141.7050 O   0  0  0  0  0  0  0  0  0  0  0  0
  194.0170  176.0120  142.3360 O   0  0  0  0  0  1  0  0  0  0  0  0
  194.0280  174.9160  139.8140 O   0  0  0  0  0  0  0  0  0  0  0  0
  193.8460  174.5730  141.4600 P   0  0  0  0  0  0  0  0  0  0  0  0
  194.9260  173.6010  141.8770 O   0  0  0  0  0  1  0  0  0  0  0  0
  1  2  1  0  0  0  0
  1  6  1  0  0  0  0
  3  6  1  0  0  0  0
  3  9  1  0  0  0  0
  4 16  1  0  0  0  0
  4  2  2  0  0  0  0
  5 10  1  0  0  0  0
  7 11  1  0  0  0  0
  7 14  1  0  0  0  0
  8 11  1  0  0  0  0
  8  4  1  0  0  0  0
 10  9  2  0  0  0  0
 10 13  1  0  0  0  0
 11  1  2  0  0  0  0
 12 14  1  0  0  0  0
 12  5  2  0  0  0  0
 14  3  2  0  0  0  0
 15 16  1  0  0  0  0
 16 17  2  0  0  0  0
 18 15  1  0  0  0  0
 19 21  1  0  0  0  0
 20 15  1  0  0  0  0
 21 20  3  0  0  0  0
 22 23  1  6  0  0  0
 22  7  1  0  0  0  0
 23 24  1  0  0  0  0
 24 25  1  6  0  0  0
 24 22  1  0  0  0  0
 25 26  1  0  0  0  0
 27 29  1  0  0  0  0
 27 26  1  0  0  0  0
 29 28  1  1  0  0  0
 29 30  1  0  0  0  0
 32 33  2  0  0  0  0
 33 30  1  0  0  0  0
 33 34  1  0  0  0  0
 33 31  1  0  0  0  0
M  END
>  <MODEL>
5

>  <REMARK>
 VINA RESULT:      -6.8      5.067      6.748
  Name = 
  9 active torsions:
  status: ('A' for Active; 'I' for Inactive)
    1  A    between atoms: C_4  and  N_14
    2  A    between atoms: N_5  and  C_16
    3  A    between atoms: C_10  and  C_26
    4  A    between atoms: C_10  and  C_34
    5  A    between atoms: C_11  and  C_20
    6  A    between atoms: O_17  and  P_22
    7  A    between atoms: O_17  and  C_26
    8  A    between atoms: C_18  and  C_28
    9  A    between atoms: C_28  and  C_34
                            x       y       z     vdW  Elec       q    Type
                         _______ _______ _______ _____ _____    ______ ____

>  <TORSDO>
F 9

$$$$
=
 OpenBabel11042418413D

 34 37  0  0  1  0  0  0  0  0999 V2000
  187.1820  177.5140  144.8190 C   0  0  0  0  0  0  0  0  0  0  0  0
  185.9650  178.1500  144.5640 C   0  0  0  0  0  3  0  0  0  0  0  0
  189.1500  176.9910  146.1310 C   0  0  0  0  0  0  0  0  0  0  0  0
  185.4520  177.8100  143.3090 C   0  0  0  0  0  0  0  0  0  0  0  0
  191.5980  175.6840  146.4830 C   0  0  0  0  0  3  0  0  0  0  0  0
  187.9320  177.6690  145.9820 O   0  0  0  0  0  0  0  0  0  0  0  0
  188.8470  175.9490  143.8860 N   0  0  0  0  0  0  0  0  0  0  0  0
  186.5000  176.7130  142.5530 S   0  0  0  0  0  0  0  0  0  0  0  0
  189.8860  177.1770  147.3050 C   0  0  0  0  0  3  0  0  0  0  0  0
  191.1070  176.5260  147.4810 C   0  0  0  0  0  0  0  0  0  0  0  0
  187.6190  176.6880  143.8080 C   0  0  0  0  0  0  0  0  0  0  0  0
  190.8690  175.4910  145.3080 C   0  0  0  0  0  3  0  0  0  0  0  0
  191.8150  176.7100  148.6200 F   0  0  0  0  0  0  0  0  0  0  0  0
  189.6350  176.1310  145.1050 C   0  0  0  0  0  0  0  0  0  0  0  0
  183.8170  178.2070  141.3880 N   0  0  0  0  0  0  0  0  0  0  0  0
  184.1580  178.2900  142.7840 C   0  0  0  0  0  0  0  0  0  0  0  0
  183.3250  178.7790  143.5950 O   0  0  0  0  0  0  0  0  0  0  0  0
  184.8300  178.2880  140.3490 C   0  0  0  0  0  1  0  0  0  0  0  0
  179.9150  178.3420  140.2340 C   0  0  0  0  0  1  0  0  0  0  0  0
  182.4720  178.2530  140.9900 C   0  0  0  0  0  0  0  0  0  0  0  0
  181.3170  178.2930  140.6480 C   0  0  0  0  0  0  0  0  0  0  0  0
  189.1630  175.0950  142.7210 C   0  0  2  0  0  3  0  0  0  0  0  0
  188.4590  173.7530  142.7180 C   0  0  0  0  0  2  0  0  0  0  0  0
  189.9220  173.8470  143.1240 C   0  0  1  0  0  3  0  0  0  0  0  0
  190.7930  173.4030  141.9670 C   0  0  0  0  0  2  0  0  0  0  0  0
  192.2540  173.6280  142.3130 C   0  0  0  0  0  2  0  0  0  0  0  0
  192.7780  174.8640  141.6040 C   0  0  0  0  0  2  0  0  0  0  0  0
  192.2100  176.9960  142.6190 O   0  0  0  0  0  1  0  0  0  0  0  0
  193.1480  175.9570  142.6030 C   0  0  2  0  0  3  0  0  0  0  0  0
  194.4760  176.4150  142.4430 O   0  0  0  0  0  0  0  0  0  0  0  0
  195.2460  174.4070  144.2600 O   0  0  0  0  0  1  0  0  0  0  0  0
  194.9460  177.0060  145.1030 O   0  0  0  0  0  1  0  0  0  0  0  0
  195.4320  176.0290  143.8120 P   0  0  0  0  0  0  0  0  0  0  0  0
  196.8880  176.3040  143.5130 O   0  0  0  0  0  0  0  0  0  0  0  0
  1  6  1  0  0  0  0
  2  1  1  0  0  0  0
  3  9  1  0  0  0  0
  4  2  2  0  0  0  0
  5 10  1  0  0  0  0
  6  3  1  0  0  0  0
  7 14  1  0  0  0  0
  8  4  1  0  0  0  0
  8 11  1  0  0  0  0
  9 10  2  0  0  0  0
 10 13  1  0  0  0  0
 11  7  1  0  0  0  0
 11  1  2  0  0  0  0
 12  5  2  0  0  0  0
 14 12  1  0  0  0  0
 14  3  2  0  0  0  0
 15 16  1  0  0  0  0
 16  4  1  0  0  0  0
 16 17  2  0  0  0  0
 18 15  1  0  0  0  0
 19 21  1  0  0  0  0
 20 15  1  0  0  0  0
 21 20  3  0  0  0  0
 22 23  1  1  0  0  0
 22 24  1  0  0  0  0
 22  7  1  0  0  0  0
 23 24  1  0  0  0  0
 24 25  1  6  0  0  0
 25 26  1  0  0  0  0
 27 26  1  0  0  0  0
 27 29  1  0  0  0  0
 29 28  1  6  0  0  0
 30 29  1  0  0  0  0
 30 33  1  0  0  0  0
 33 31  1  0  0  0  0
 33 32  1  0  0  0  0
 34 33  2  0  0  0  0
M  END
>  <MODEL>
6

>  <REMARK>
 VINA RESULT:      -6.8      4.155      9.934
  Name = 
  9 active torsions:
  status: ('A' for Active; 'I' for Inactive)
    1  A    between atoms: C_4  and  N_14
    2  A    between atoms: N_5  and  C_16
    3  A    between atoms: C_10  and  C_26
    4  A    between atoms: C_10  and  C_34
    5  A    between atoms: C_11  and  C_20
    6  A    between atoms: O_17  and  P_22
    7  A    between atoms: O_17  and  C_26
    8  A    between atoms: C_18  and  C_28
    9  A    between atoms: C_28  and  C_34
                            x       y       z     vdW  Elec       q    Type
                         _______ _______ _______ _____ _____    ______ ____

>  <TORSDO>
F 9

$$$$
=
 OpenBabel11042418413D

 34 37  0  0  1  0  0  0  0  0999 V2000
  188.1980  175.7050  142.8180 C   0  0  0  0  0  0  0  0  0  0  0  0
  188.6100  175.3340  141.5350 C   0  0  0  0  0  3  0  0  0  0  0  0
  186.8090  176.8720  144.4220 C   0  0  0  0  0  0  0  0  0  0  0  0
  189.7170  174.4810  141.5700 C   0  0  0  0  0  0  0  0  0  0  0  0
  186.1280  177.5630  147.0460 C   0  0  0  0  0  3  0  0  0  0  0  0
  187.1300  176.5540  143.0950 O   0  0  0  0  0  0  0  0  0  0  0  0
  188.6740  175.4230  145.2240 N   0  0  0  0  0  0  0  0  0  0  0  0
  190.1470  174.1850  143.1830 S   0  0  0  0  0  0  0  0  0  0  0  0
  185.7390  177.7370  144.6680 C   0  0  0  0  0  3  0  0  0  0  0  0
  185.3980  178.0820  145.9760 C   0  0  0  0  0  0  0  0  0  0  0  0
  188.9440  175.1590  143.8380 C   0  0  0  0  0  0  0  0  0  0  0  0
  187.1970  176.6960  146.8100 C   0  0  0  0  0  3  0  0  0  0  0  0
  184.3610  178.9210  146.2080 F   0  0  0  0  0  0  0  0  0  0  0  0
  187.5590  176.3290  145.5030 C   0  0  0  0  0  0  0  0  0  0  0  0
  189.5670  173.3390  139.2910 N   0  0  0  0  0  0  0  0  0  0  0  0
  190.3440  173.8870  140.3720 C   0  0  0  0  0  0  0  0  0  0  0  0
  191.6020  173.8730  140.2960 O   0  0  0  0  0  0  0  0  0  0  0  0
  188.2650  172.7330  139.5180 C   0  0  0  0  0  1  0  0  0  0  0  0
  191.2320  172.9100  135.6010 C   0  0  0  0  0  1  0  0  0  0  0  0
  190.1400  173.1910  138.0190 C   0  0  0  0  0  0  0  0  0  0  0  0
  190.6340  173.0630  136.9260 C   0  0  0  0  0  0  0  0  0  0  0  0
  189.5590  174.7460  146.1950 C   0  0  2  0  0  3  0  0  0  0  0  0
  188.9940  174.6520  147.5980 C   0  0  0  0  0  2  0  0  0  0  0  0
  190.0500  175.6960  147.2690 C   0  0  1  0  0  3  0  0  0  0  0  0
  191.3980  175.2210  147.7700 C   0  0  0  0  0  2  0  0  0  0  0  0
  192.4190  175.3070  146.6490 C   0  0  0  0  0  2  0  0  0  0  0  0
  193.2630  176.5600  146.8030 C   0  0  0  0  0  2  0  0  0  0  0  0
  194.9410  177.9270  145.7010 O   0  0  0  0  0  1  0  0  0  0  0  0
  194.1660  176.7670  145.5900 C   0  0  2  0  0  3  0  0  0  0  0  0
  193.4610  176.6900  144.3660 O   0  0  0  0  0  0  0  0  0  0  0  0
  193.8940  176.0940  141.6490 O   0  0  0  0  0  0  0  0  0  0  0  0
  193.8110  174.0810  143.5200 O   0  0  0  0  0  1  0  0  0  0  0  0
  194.2770  175.6830  143.2460 P   0  0  0  0  0  0  0  0  0  0  0  0
  195.7710  175.7970  143.4490 O   0  0  0  0  0  1  0  0  0  0  0  0
  1  6  1  0  0  0  0
  1 11  2  0  0  0  0
  2  4  2  0  0  0  0
  2  1  1  0  0  0  0
  3  9  2  0  0  0  0
  3 14  1  0  0  0  0
  4  8  1  0  0  0  0
  6  3  1  0  0  0  0
  7 14  1  0  0  0  0
  8 11  1  0  0  0  0
  9 10  1  0  0  0  0
 10 13  1  0  0  0  0
 10  5  2  0  0  0  0
 11  7  1  0  0  0  0
 12  5  1  0  0  0  0
 14 12  2  0  0  0  0
 15 18  1  0  0  0  0
 15 16  1  0  0  0  0
 16  4  1  0  0  0  0
 17 16  2  0  0  0  0
 19 21  1  0  0  0  0
 20 15  1  0  0  0  0
 21 20  3  0  0  0  0
 22  7  1  6  0  0  0
 22 24  1  0  0  0  0
 22 23  1  0  0  0  0
 24 23  1  0  0  0  0
 24 25  1  1  0  0  0
 26 27  1  0  0  0  0
 26 25  1  0  0  0  0
 29 28  1  1  0  0  0
 29 27  1  0  0  0  0
 30 29  1  0  0  0  0
 31 33  2  0  0  0  0
 33 34  1  0  0  0  0
 33 32  1  0  0  0  0
 33 30  1  0  0  0  0
M  END
>  <MODEL>
7

>  <REMARK>
 VINA RESULT:      -6.7      4.617      8.595
  Name = 
  9 active torsions:
  status: ('A' for Active; 'I' for Inactive)
    1  A    between atoms: C_4  and  N_14
    2  A    between atoms: N_5  and  C_16
    3  A    between atoms: C_10  and  C_26
    4  A    between atoms: C_10  and  C_34
    5  A    between atoms: C_11  and  C_20
    6  A    between atoms: O_17  and  P_22
    7  A    between atoms: O_17  and  C_26
    8  A    between atoms: C_18  and  C_28
    9  A    between atoms: C_28  and  C_34
                            x       y       z     vdW  Elec       q    Type
                         _______ _______ _______ _____ _____    ______ ____

>  <TORSDO>
F 9

$$$$
=
 OpenBabel11042418413D

 34 37  0  0  1  0  0  0  0  0999 V2000
  189.7310  176.8480  146.3180 C   0  0  0  0  0  0  0  0  0  0  0  0
  191.0130  176.5510  146.7860 C   0  0  0  0  0  3  0  0  0  0  0  0
  187.4240  177.5510  146.5410 C   0  0  0  0  0  0  0  0  0  0  0  0
  191.8550  176.1150  145.7590 C   0  0  0  0  0  0  0  0  0  0  0  0
  184.8920  178.0620  145.4680 C   0  0  0  0  0  3  0  0  0  0  0  0
  188.6780  177.2940  147.1130 O   0  0  0  0  0  0  0  0  0  0  0  0
  188.3130  176.9160  144.2990 N   0  0  0  0  0  0  0  0  0  0  0  0
  191.0050  176.1280  144.2920 S   0  0  0  0  0  0  0  0  0  0  0  0
  186.3840  177.9860  147.3670 C   0  0  0  0  0  3  0  0  0  0  0  0
  185.1210  178.2410  146.8330 C   0  0  0  0  0  0  0  0  0  0  0  0
  189.5600  176.6640  144.9640 C   0  0  0  0  0  0  0  0  0  0  0  0
  185.9260  177.6310  144.6350 C   0  0  0  0  0  3  0  0  0  0  0  0
  184.1160  178.6620  147.6370 F   0  0  0  0  0  0  0  0  0  0  0  0
  187.2090  177.3690  145.1460 C   0  0  0  0  0  0  0  0  0  0  0  0
  193.8330  174.5200  145.5050 N   0  0  0  0  0  0  0  0  0  0  0  0
  193.2800  175.7750  145.9430 C   0  0  0  0  0  0  0  0  0  0  0  0
  194.0340  176.6210  146.4950 O   0  0  0  0  0  0  0  0  0  0  0  0
  193.0370  173.3040  145.4740 C   0  0  0  0  0  1  0  0  0  0  0  0
  197.8420  174.1650  144.8890 C   0  0  0  0  0  1  0  0  0  0  0  0
  195.2150  174.3980  145.2920 C   0  0  0  0  0  0  0  0  0  0  0  0
  196.4020  174.2930  145.1100 C   0  0  0  0  0  0  0  0  0  0  0  0
  188.3010  176.6840  142.8390 C   0  0  2  0  0  3  0  0  0  0  0  0
  186.9210  176.4650  142.2510 C   0  0  0  0  0  2  0  0  0  0  0  0
  187.8430  175.2810  142.4940 C   0  0  1  0  0  3  0  0  0  0  0  0
  188.4790  174.8620  141.1840 C   0  0  0  0  0  2  0  0  0  0  0  0
  189.0640  173.4680  141.3230 C   0  0  0  0  0  2  0  0  0  0  0  0
  190.4980  173.4470  140.8230 C   0  0  0  0  0  2  0  0  0  0  0  0
  191.5760  171.8370  139.3580 O   0  0  0  0  0  1  0  0  0  0  0  0
  190.5860  172.8240  139.4330 C   0  0  2  0  0  3  0  0  0  0  0  0
  190.6970  173.7930  138.4080 O   0  0  0  0  0  0  0  0  0  0  0  0
  189.3150  171.9160  136.8280 O   0  0  0  0  0  1  0  0  0  0  0  0
  189.9750  174.3810  135.8040 O   0  0  0  0  0  0  0  0  0  0  0  0
  189.5020  173.5570  137.2030 P   0  0  0  0  0  0  0  0  0  0  0  0
  188.1800  174.1170  137.6760 O   0  0  0  0  0  1  0  0  0  0  0  0
  1  2  1  0  0  0  0
  1  6  1  0  0  0  0
  3  6  1  0  0  0  0
  3  9  1  0  0  0  0
  4 16  1  0  0  0  0
  4  2  2  0  0  0  0
  5 10  1  0  0  0  0
  7 11  1  0  0  0  0
  7 14  1  0  0  0  0
  8 11  1  0  0  0  0
  8  4  1  0  0  0  0
 10  9  2  0  0  0  0
 10 13  1  0  0  0  0
 11  1  2  0  0  0  0
 12 14  1  0  0  0  0
 12  5  2  0  0  0  0
 14  3  2  0  0  0  0
 15 16  1  0  0  0  0
 16 17  2  0  0  0  0
 18 15  1  0  0  0  0
 19 21  1  0  0  0  0
 20 15  1  0  0  0  0
 21 20  3  0  0  0  0
 22 23  1  6  0  0  0
 22  7  1  0  0  0  0
 23 24  1  0  0  0  0
 24 25  1  6  0  0  0
 24 22  1  0  0  0  0
 25 26  1  0  0  0  0
 27 26  1  0  0  0  0
 29 28  1  1  0  0  0
 29 27  1  0  0  0  0
 30 29  1  0  0  0  0
 31 33  1  0  0  0  0
 32 33  2  0  0  0  0
 33 34  1  0  0  0  0
 33 30  1  0  0  0  0
M  END
>  <MODEL>
8

>  <REMARK>
 VINA RESULT:      -6.7      4.609      5.801
  Name = 
  9 active torsions:
  status: ('A' for Active; 'I' for Inactive)
    1  A    between atoms: C_4  and  N_14
    2  A    between atoms: N_5  and  C_16
    3  A    between atoms: C_10  and  C_26
    4  A    between atoms: C_10  and  C_34
    5  A    between atoms: C_11  and  C_20
    6  A    between atoms: O_17  and  P_22
    7  A    between atoms: O_17  and  C_26
    8  A    between atoms: C_18  and  C_28
    9  A    between atoms: C_28  and  C_34
                            x       y       z     vdW  Elec       q    Type
                         _______ _______ _______ _____ _____    ______ ____

>  <TORSDO>
F 9

$$$$
=
 OpenBabel11042418413D

 34 37  0  0  1  0  0  0  0  0999 V2000
  187.2280  177.5440  144.7240 C   0  0  0  0  0  0  0  0  0  0  0  0
  186.0010  178.1680  144.4870 C   0  0  0  0  0  3  0  0  0  0  0  0
  189.2090  177.0240  146.0170 C   0  0  0  0  0  0  0  0  0  0  0  0
  185.4870  177.8440  143.2280 C   0  0  0  0  0  0  0  0  0  0  0  0
  191.6770  175.7430  146.3340 C   0  0  0  0  0  3  0  0  0  0  0  0
  187.9820  177.6880  145.8870 O   0  0  0  0  0  0  0  0  0  0  0  0
  188.9090  176.0180  143.7550 N   0  0  0  0  0  0  0  0  0  0  0  0
  186.5460  176.7750  142.4470 S   0  0  0  0  0  0  0  0  0  0  0  0
  189.9480  177.1980  147.1910 C   0  0  0  0  0  3  0  0  0  0  0  0
  191.1790  176.5600  147.3490 C   0  0  0  0  0  0  0  0  0  0  0  0
  187.6700  176.7420  143.6960 C   0  0  0  0  0  0  0  0  0  0  0  0
  190.9440  175.5610  145.1590 C   0  0  0  0  0  3  0  0  0  0  0  0
  191.8900  176.7330  148.4880 F   0  0  0  0  0  0  0  0  0  0  0  0
  189.7000  176.1890  144.9740 C   0  0  0  0  0  0  0  0  0  0  0  0
  183.8200  178.2160  141.3290 N   0  0  0  0  0  0  0  0  0  0  0  0
  184.1840  178.3160  142.7190 C   0  0  0  0  0  0  0  0  0  0  0  0
  183.3630  178.8140  143.5360 O   0  0  0  0  0  0  0  0  0  0  0  0
  184.8170  178.2860  140.2730 C   0  0  0  0  0  1  0  0  0  0  0  0
  179.9010  178.3320  140.2350 C   0  0  0  0  0  1  0  0  0  0  0  0
  182.4700  178.2560  140.9520 C   0  0  0  0  0  0  0  0  0  0  0  0
  181.3090  178.2910  140.6290 C   0  0  0  0  0  0  0  0  0  0  0  0
  189.2300  175.1900  142.5730 C   0  0  2  0  0  3  0  0  0  0  0  0
  188.2830  174.0300  142.3450 C   0  0  0  0  0  2  0  0  0  0  0  0
  189.6510  173.7870  142.9630 C   0  0  1  0  0  3  0  0  0  0  0  0
  190.5900  173.2410  141.9070 C   0  0  0  0  0  2  0  0  0  0  0  0
  191.8650  172.7450  142.5650 C   0  0  0  0  0  2  0  0  0  0  0  0
  193.0650  173.4980  142.0190 C   0  0  0  0  0  2  0  0  0  0  0  0
  193.6500  175.6970  142.8670 O   0  0  0  0  0  1  0  0  0  0  0  0
  193.7420  174.3220  143.1100 C   0  0  2  0  0  3  0  0  0  0  0  0
  195.0640  173.8960  143.3750 O   0  0  0  0  0  0  0  0  0  0  0  0
  196.5650  172.5820  145.3620 O   0  0  0  0  0  0  0  0  0  0  0  0
  193.8960  173.1140  145.7550 O   0  0  0  0  0  1  0  0  0  0  0  0
  195.3230  173.6910  145.0560 P   0  0  0  0  0  0  0  0  0  0  0  0
  195.6720  175.0210  145.6850 O   0  0  0  0  0  1  0  0  0  0  0  0
  1  6  1  0  0  0  0
  2  1  1  0  0  0  0
  3  9  1  0  0  0  0
  4  2  2  0  0  0  0
  5 10  1  0  0  0  0
  6  3  1  0  0  0  0
  7 14  1  0  0  0  0
  8  4  1  0  0  0  0
  8 11  1  0  0  0  0
  9 10  2  0  0  0  0
 10 13  1  0  0  0  0
 11  7  1  0  0  0  0
 11  1  2  0  0  0  0
 12  5  2  0  0  0  0
 14 12  1  0  0  0  0
 14  3  2  0  0  0  0
 15 16  1  0  0  0  0
 16  4  1  0  0  0  0
 16 17  2  0  0  0  0
 18 15  1  0  0  0  0
 19 21  1  0  0  0  0
 20 15  1  0  0  0  0
 21 20  3  0  0  0  0
 22 23  1  6  0  0  0
 22 24  1  0  0  0  0
 22  7  1  0  0  0  0
 23 24  1  0  0  0  0
 24 25  1  6  0  0  0
 25 26  1  0  0  0  0
 27 26  1  0  0  0  0
 27 29  1  0  0  0  0
 29 28  1  6  0  0  0
 29 30  1  0  0  0  0
 30 33  1  0  0  0  0
 33 31  2  0  0  0  0
 33 34  1  0  0  0  0
 33 32  1  0  0  0  0
M  END
>  <MODEL>
9

>  <REMARK>
 VINA RESULT:      -6.5      4.133     10.238
  Name = 
  9 active torsions:
  status: ('A' for Active; 'I' for Inactive)
    1  A    between atoms: C_4  and  N_14
    2  A    between atoms: N_5  and  C_16
    3  A    between atoms: C_10  and  C_26
    4  A    between atoms: C_10  and  C_34
    5  A    between atoms: C_11  and  C_20
    6  A    between atoms: O_17  and  P_22
    7  A    between atoms: O_17  and  C_26
    8  A    between atoms: C_18  and  C_28
    9  A    between atoms: C_28  and  C_34
                            x       y       z     vdW  Elec       q    Type
                         _______ _______ _______ _____ _____    ______ ____

>  <TORSDO>
F 9

$$$$
