=
 OpenBabel11042416443D

 48 52  0  0  1  0  0  0  0  0999 V2000
  190.4670  172.8400  141.0820 C   0  0  0  0  0  2  0  0  0  0  0  0
  190.9050  174.4520  143.5120 C   0  0  0  0  0  0  0  0  0  0  0  0
  189.4260  172.3740  142.4850 S   0  0  0  0  0  0  0  0  0  0  0  0
  194.5010  176.2570  144.5490 C   0  0  0  0  0  0  0  0  0  0  0  0
  193.3990  175.4460  144.0800 C   0  0  0  0  0  0  0  0  0  0  0  0
  194.1000  177.1760  145.3740 N   0  0  0  0  0  0  0  0  0  0  0  0
  191.8970  173.0970  141.5370 C   0  0  1  0  0  3  0  0  0  0  0  0
  191.0650  175.4060  144.4740 N   0  0  0  0  0  0  0  0  0  0  0  0
  192.6620  177.0270  145.6300 C   0  0  0  0  0  2  0  0  0  0  0  0
  192.0270  174.0160  142.7360 C   0  0  0  0  0  0  0  0  0  0  0  0
  196.6710  174.9770  144.2800 C   0  0  0  0  0  0  0  0  0  0  0  0
  197.8000  174.9360  143.7200 O   0  0  0  0  0  0  0  0  0  0  0  0
  189.4960  174.0610  143.1760 C   0  0  2  0  0  3  0  0  0  0  0  0
  192.3030  175.8730  144.7640 C   0  0  0  0  0  0  0  0  0  0  0  0
  195.8580  176.1540  144.1210 N   0  0  0  0  0  2  0  0  0  0  0  0
  193.3020  174.5320  143.0390 C   0  0  0  0  0  3  0  0  0  0  0  0
  195.8610  172.6130  144.5260 N   0  0  0  0  0  2  0  0  0  0  0  0
  196.2630  173.9440  146.3980 O   0  0  0  0  0  0  0  0  0  0  0  0
  196.2710  173.8430  145.1380 C   0  0  0  0  0  0  0  0  0  0  0  0
  195.7680  171.3810  145.2960 C   0  0  1  0  0  3  0  0  0  0  0  0
  194.3510  170.8420  145.2320 C   0  0  0  0  0  1  0  0  0  0  0  0
  196.7420  170.3770  144.7670 C   0  0  0  0  0  0  0  0  0  0  0  0
  197.6410  169.7670  145.6360 O   0  0  0  0  0  1  0  0  0  0  0  0
  196.7650  170.0900  143.5400 O   0  0  0  0  0  0  0  0  0  0  0  0
  188.9120  175.1080  142.2310 C   0  0  0  0  0  2  0  0  0  0  0  0
  187.5240  176.8720  143.3350 C   0  0  0  0  0  0  0  0  0  0  0  0
  188.5690  177.5460  143.5640 O   0  0  0  0  0  0  0  0  0  0  0  0
  187.6200  175.5960  142.6920 N   0  0  0  0  0  2  0  0  0  0  0  0
  186.3770  178.3050  141.3180 O   0  0  0  0  0  1  0  0  0  0  0  0
  185.6680  179.2860  145.0840 C   0  0  2  0  0  3  0  0  0  0  0  0
  186.1840  177.4820  143.6190 C   0  0  2  0  0  3  0  0  0  0  0  0
  185.6210  178.2620  142.4930 C   0  0  2  0  0  0  0  0  0  0  0  0
  184.1110  178.0650  142.3340 C   0  0  0  0  0  1  0  0  0  0  0  0
  185.1750  179.9360  143.9780 O   0  0  0  0  0  0  0  0  0  0  0  0
  186.2510  179.0490  143.6790 C   0  0  1  0  0  0  0  0  0  0  0  0
  184.5440  178.4310  145.6070 C   0  0  0  0  0  3  0  0  0  0  0  0
  184.4390  178.2270  146.9170 C   0  0  0  0  0  2  0  0  0  0  0  0
  192.6490  171.7860  141.7360 C   0  0  0  0  0  2  0  0  0  0  0  0
  193.3040  171.3270  140.4250 C   0  0  1  0  0  3  0  0  0  0  0  0
  193.5000  169.1940  139.6110 C   0  0  0  0  0  1  0  0  0  0  0  0
  192.5980  170.2470  139.8380 O   0  0  0  0  0  0  0  0  0  0  0  0
  193.4990  172.4230  139.4660 N   0  0  0  0  0  2  0  0  0  0  0  0
  194.7600  173.0360  139.2200 C   0  0  0  0  0  3  0  0  0  0  0  0
  195.0070  174.2500  139.6970 C   0  0  0  0  0  3  0  0  0  0  0  0
  196.3460  175.5020  138.2040 F   0  0  0  0  0  0  0  0  0  0  0  0
  196.3140  174.9420  139.4690 C   0  0  1  0  0  3  0  0  0  0  0  0
  196.5820  176.0160  140.5170 C   0  0  0  0  0  2  0  0  0  0  0  0
  195.3730  176.5640  140.9530 O   0  0  0  0  0  1  0  0  0  0  0  0
  1  7  1  0  0  0  0
  1  3  1  0  0  0  0
  2  8  1  0  0  0  0
  3 13  1  0  0  0  0
  4  6  2  0  0  0  0
  5  4  1  0  0  0  0
  5 14  1  0  0  0  0
  6  9  1  0  0  0  0
  7 38  1  1  0  0  0
  7 10  1  0  0  0  0
  8 14  2  0  0  0  0
 10 16  1  0  0  0  0
 10  2  2  0  0  0  0
 11 19  1  0  0  0  0
 12 11  2  0  0  0  0
 13 25  1  6  0  0  0
 13  2  1  0  0  0  0
 14  9  1  0  0  0  0
 15 11  1  0  0  0  0
 15  4  1  0  0  0  0
 16  5  2  0  0  0  0
 17 19  1  0  0  0  0
 17 20  1  0  0  0  0
 19 18  2  0  0  0  0
 20 21  1  6  0  0  0
 22 20  1  0  0  0  0
 22 23  1  0  0  0  0
 24 22  2  0  0  0  0
 25 28  1  0  0  0  0
 26 27  2  0  0  0  0
 28 26  1  0  0  0  0
 29 32  1  0  0  0  0
 30 36  1  6  0  0  0
 31 26  1  6  0  0  0
 31 35  1  0  0  0  0
 32 33  1  6  0  0  0
 32 31  1  0  0  0  0
 32 35  1  0  0  0  0
 34 30  1  0  0  0  0
 35 34  1  6  0  0  0
 35 30  1  0  0  0  0
 36 37  2  0  0  0  0
 39 38  1  1  0  0  0
 40 41  1  0  0  0  0
 41 39  1  0  0  0  0
 42 39  1  0  0  0  0
 43 42  1  0  0  0  0
 43 44  2  0  0  0  0
 46 45  1  6  0  0  0
 46 44  1  0  0  0  0
 46 47  1  0  0  0  0
 47 48  1  0  0  0  0
M  END
>  <MODEL>
1

>  <REMARK>
 VINA RESULT:      -6.5      0.000      0.000
  Name = 
  14 active torsions:
  status: ('A' for Active; 'I' for Inactive)
    1  A    between atoms: C_2  and  CA_42
    2  A    between atoms: C_3  and  C_22
    3  A    between atoms: C_4  and  C_14
    4  A    between atoms: N_6  and  CA_42
    5  A    between atoms: C_12  and  C_31
    6  A    between atoms: C_18  and  C_43
    7  A    between atoms: O_21  and  C_35
    8  A    between atoms: C_22  and  C_34
    9  A    between atoms: N_23  and  C_37
   10  A    between atoms: C_27  and  C_47
   11  A    between atoms: C_30  and  N_44
   12  A    between atoms: C_35  and  C_43
   13  A    between atoms: C_35  and  N_44
   14  A    between atoms: C_37  and  C_38
                            x       y       z     vdW  Elec       q    Type
                         _______ _______ _______ _____ _____    ______ ____

>  <TORSDO>
F 14

$$$$
=
 OpenBabel11042416443D

 48 52  0  0  1  0  0  0  0  0999 V2000
  185.3480  177.8850  144.2240 C   0  0  0  0  0  2  0  0  0  0  0  0
  186.4730  177.1850  141.5890 C   0  0  0  0  0  0  0  0  0  0  0  0
  185.6340  179.2990  143.1350 S   0  0  0  0  0  0  0  0  0  0  0  0
  188.9110  173.9050  140.8420 C   0  0  0  0  0  0  0  0  0  0  0  0
  188.1740  175.0470  141.3360 C   0  0  0  0  0  0  0  0  0  0  0  0
  188.7610  173.7580  139.5620 N   0  0  0  0  0  0  0  0  0  0  0  0
  186.5230  176.9190  144.1680 C   0  0  1  0  0  3  0  0  0  0  0  0
  186.7840  176.6930  140.3560 N   0  0  0  0  0  0  0  0  0  0  0  0
  187.9610  174.8650  139.0200 C   0  0  0  0  0  2  0  0  0  0  0  0
  186.9690  176.5420  142.7680 C   0  0  0  0  0  0  0  0  0  0  0  0
  190.7750  173.3330  142.4600 C   0  0  0  0  0  0  0  0  0  0  0  0
  191.2510  172.4690  143.2460 O   0  0  0  0  0  0  0  0  0  0  0  0
  185.4350  178.2690  141.6430 C   0  0  2  0  0  3  0  0  0  0  0  0
  187.6440  175.6530  140.2390 C   0  0  0  0  0  0  0  0  0  0  0  0
  189.6490  172.9780  141.6370 N   0  0  0  0  0  2  0  0  0  0  0  0
  187.8430  175.4470  142.6250 C   0  0  0  0  0  3  0  0  0  0  0  0
  191.2030  175.6290  143.3800 N   0  0  0  0  0  2  0  0  0  0  0  0
  192.2150  174.9220  141.4020 O   0  0  0  0  0  0  0  0  0  0  0  0
  191.4470  174.6450  142.3680 C   0  0  0  0  0  0  0  0  0  0  0  0
  192.0630  176.7950  143.5220 C   0  0  1  0  0  3  0  0  0  0  0  0
  191.2420  177.9840  143.9860 C   0  0  0  0  0  1  0  0  0  0  0  0
  193.1630  176.5000  144.4920 C   0  0  0  0  0  0  0  0  0  0  0  0
  193.2750  175.2250  145.0360 O   0  0  0  0  0  1  0  0  0  0  0  0
  193.9780  177.3990  144.8320 O   0  0  0  0  0  0  0  0  0  0  0  0
  184.0540  177.6250  141.5530 C   0  0  0  0  0  2  0  0  0  0  0  0
  181.8440  178.5260  140.8030 C   0  0  0  0  0  0  0  0  0  0  0  0
  181.7900  177.6360  139.9060 O   0  0  0  0  0  0  0  0  0  0  0  0
  182.9870  178.6110  141.6610 N   0  0  0  0  0  2  0  0  0  0  0  0
  179.6940  177.3470  141.9980 O   0  0  0  0  0  1  0  0  0  0  0  0
  179.1460  180.3130  139.4390 C   0  0  2  0  0  3  0  0  0  0  0  0
  180.6450  179.3950  141.0440 C   0  0  2  0  0  3  0  0  0  0  0  0
  179.5050  178.6940  141.6790 C   0  0  2  0  0  0  0  0  0  0  0  0
  178.7890  179.5560  142.7210 C   0  0  0  0  0  1  0  0  0  0  0  0
  178.1540  179.6200  140.0890 O   0  0  0  0  0  0  0  0  0  0  0  0
  179.4260  178.9760  140.1500 C   0  0  1  0  0  0  0  0  0  0  0  0
  179.2960  181.6220  140.1700 C   0  0  0  0  0  3  0  0  0  0  0  0
  178.3850  182.5740  139.9900 C   0  0  0  0  0  2  0  0  0  0  0  0
  187.6820  177.4190  145.0220 C   0  0  0  0  0  2  0  0  0  0  0  0
  187.7270  176.6820  146.3690 C   0  0  1  0  0  3  0  0  0  0  0  0
  185.9960  177.1490  147.7950 C   0  0  0  0  0  1  0  0  0  0  0  0
  186.4360  176.2750  146.7860 O   0  0  0  0  0  0  0  0  0  0  0  0
  188.6710  175.5550  146.3750 N   0  0  0  0  0  2  0  0  0  0  0  0
  189.8780  175.5450  147.1300 C   0  0  0  0  0  3  0  0  0  0  0  0
  190.3650  176.6840  147.6090 C   0  0  0  0  0  3  0  0  0  0  0  0
  192.7230  176.8490  147.5710 F   0  0  0  0  0  0  0  0  0  0  0  0
  191.6280  176.7320  148.4100 C   0  0  1  0  0  3  0  0  0  0  0  0
  191.6230  177.8760  149.4170 C   0  0  0  0  0  2  0  0  0  0  0  0
  190.5570  178.7380  149.1470 O   0  0  0  0  0  1  0  0  0  0  0  0
  2 13  1  0  0  0  0
  2 10  1  0  0  0  0
  3  1  1  0  0  0  0
  4  5  1  0  0  0  0
  4 15  1  0  0  0  0
  5 16  1  0  0  0  0
  6  4  2  0  0  0  0
  7  1  1  0  0  0  0
  7 38  1  6  0  0  0
  8  2  2  0  0  0  0
  9  6  1  0  0  0  0
  9 14  1  0  0  0  0
 10  7  1  0  0  0  0
 11 12  2  0  0  0  0
 13 25  1  1  0  0  0
 13  3  1  0  0  0  0
 14  8  1  0  0  0  0
 14  5  2  0  0  0  0
 15 11  1  0  0  0  0
 16 10  2  0  0  0  0
 17 20  1  0  0  0  0
 18 19  2  0  0  0  0
 19 11  1  0  0  0  0
 19 17  1  0  0  0  0
 20 21  1  1  0  0  0
 20 22  1  0  0  0  0
 22 24  2  0  0  0  0
 22 23  1  0  0  0  0
 25 28  1  0  0  0  0
 26 28  1  0  0  0  0
 27 26  2  0  0  0  0
 30 34  1  0  0  0  0
 30 35  1  0  0  0  0
 30 36  1  1  0  0  0
 31 26  1  6  0  0  0
 31 32  1  0  0  0  0
 32 29  1  0  0  0  0
 32 33  1  1  0  0  0
 35 34  1  6  0  0  0
 35 31  1  0  0  0  0
 35 32  1  0  0  0  0
 37 36  2  0  0  0  0
 39 38  1  6  0  0  0
 39 42  1  0  0  0  0
 39 41  1  0  0  0  0
 41 40  1  0  0  0  0
 42 43  1  0  0  0  0
 43 44  2  0  0  0  0
 44 46  1  0  0  0  0
 46 45  1  6  0  0  0
 46 47  1  0  0  0  0
 48 47  1  0  0  0  0
M  END
>  <MODEL>
2

>  <REMARK>
 VINA RESULT:      -6.5      4.160      7.865
  Name = 
  14 active torsions:
  status: ('A' for Active; 'I' for Inactive)
    1  A    between atoms: C_2  and  CA_42
    2  A    between atoms: C_3  and  C_22
    3  A    between atoms: C_4  and  C_14
    4  A    between atoms: N_6  and  CA_42
    5  A    between atoms: C_12  and  C_31
    6  A    between atoms: C_18  and  C_43
    7  A    between atoms: O_21  and  C_35
    8  A    between atoms: C_22  and  C_34
    9  A    between atoms: N_23  and  C_37
   10  A    between atoms: C_27  and  C_47
   11  A    between atoms: C_30  and  N_44
   12  A    between atoms: C_35  and  C_43
   13  A    between atoms: C_35  and  N_44
   14  A    between atoms: C_37  and  C_38
                            x       y       z     vdW  Elec       q    Type
                         _______ _______ _______ _____ _____    ______ ____

>  <TORSDO>
F 14

$$$$
=
 OpenBabel11042416443D

 48 52  0  0  1  0  0  0  0  0999 V2000
  191.3500  173.1610  144.5990 C   0  0  0  0  0  2  0  0  0  0  0  0
  190.2410  174.1940  142.0690 C   0  0  0  0  0  0  0  0  0  0  0  0
  191.8230  174.8640  144.2170 S   0  0  0  0  0  0  0  0  0  0  0  0
  189.3240  171.8670  138.7510 C   0  0  0  0  0  0  0  0  0  0  0  0
  189.8320  172.5030  139.9470 C   0  0  0  0  0  0  0  0  0  0  0  0
  188.4840  172.6310  138.1240 N   0  0  0  0  0  0  0  0  0  0  0  0
  191.4400  172.2880  143.3550 C   0  0  1  0  0  3  0  0  0  0  0  0
  189.4930  174.5950  141.0020 N   0  0  0  0  0  0  0  0  0  0  0  0
  188.3970  173.9360  138.7930 C   0  0  0  0  0  2  0  0  0  0  0  0
  190.7560  172.8590  142.1280 C   0  0  0  0  0  0  0  0  0  0  0  0
  190.9320  170.0560  138.0060 C   0  0  0  0  0  0  0  0  0  0  0  0
  191.0980  168.8230  137.7980 O   0  0  0  0  0  0  0  0  0  0  0  0
  190.3050  175.1300  143.2400 C   0  0  2  0  0  3  0  0  0  0  0  0
  189.3170  173.7620  139.9480 C   0  0  0  0  0  0  0  0  0  0  0  0
  189.6130  170.5360  138.3240 N   0  0  0  0  0  2  0  0  0  0  0  0
  190.5410  172.0010  141.0310 C   0  0  0  0  0  3  0  0  0  0  0  0
  192.1600  171.7910  136.6700 N   0  0  0  0  0  2  0  0  0  0  0  0
  193.0250  170.9930  138.6830 O   0  0  0  0  0  0  0  0  0  0  0  0
  192.0890  170.9590  137.8350 C   0  0  0  0  0  0  0  0  0  0  0  0
  193.0860  172.9130  136.6000 C   0  0  1  0  0  3  0  0  0  0  0  0
  193.4060  173.2230  135.1490 C   0  0  0  0  0  1  0  0  0  0  0  0
  192.4920  174.1060  137.2780 C   0  0  0  0  0  0  0  0  0  0  0  0
  191.2920  174.6330  136.8130 O   0  0  0  0  0  0  0  0  0  0  0  0
  193.0750  174.6450  138.2560 O   0  0  0  0  0  1  0  0  0  0  0  0
  189.0350  174.9590  144.0690 C   0  0  0  0  0  2  0  0  0  0  0  0
  186.9630  175.9880  143.1160 C   0  0  0  0  0  0  0  0  0  0  0  0
  186.7390  174.9260  142.4670 O   0  0  0  0  0  0  0  0  0  0  0  0
  188.1370  176.0980  143.9290 N   0  0  0  0  0  2  0  0  0  0  0  0
  186.8120  177.5780  140.9050 O   0  0  0  0  0  1  0  0  0  0  0  0
  185.8720  179.0450  144.4580 C   0  0  2  0  0  3  0  0  0  0  0  0
  185.9220  177.0680  143.1330 C   0  0  2  0  0  3  0  0  0  0  0  0
  185.9010  177.9090  141.9130 C   0  0  2  0  0  0  0  0  0  0  0  0
  184.4810  178.2680  141.4680 C   0  0  0  0  0  1  0  0  0  0  0  0
  185.8630  179.7410  143.2730 O   0  0  0  0  0  0  0  0  0  0  0  0
  186.5620  178.5000  143.1930 C   0  0  1  0  0  0  0  0  0  0  0  0
  184.4360  178.7060  144.7600 C   0  0  0  0  0  3  0  0  0  0  0  0
  184.0490  178.5970  146.0280 C   0  0  0  0  0  2  0  0  0  0  0  0
  192.8830  171.8870  143.0720 C   0  0  0  0  0  2  0  0  0  0  0  0
  193.5530  171.3280  144.3350 C   0  0  1  0  0  3  0  0  0  0  0  0
  194.3440  169.4770  145.4290 C   0  0  0  0  0  1  0  0  0  0  0  0
  193.5910  169.9120  144.3250 O   0  0  0  0  0  0  0  0  0  0  0  0
  194.8870  171.8970  144.5770 N   0  0  0  0  0  2  0  0  0  0  0  0
  195.1040  173.1310  145.2530 C   0  0  0  0  0  3  0  0  0  0  0  0
  195.3920  174.2230  144.5550 C   0  0  0  0  0  3  0  0  0  0  0  0
  195.5380  176.5670  144.2840 F   0  0  0  0  0  0  0  0  0  0  0  0
  195.6300  175.5460  145.2130 C   0  0  1  0  0  3  0  0  0  0  0  0
  194.6560  175.7980  146.3580 C   0  0  0  0  0  2  0  0  0  0  0  0
  194.4620  177.1730  146.5190 O   0  0  0  0  0  1  0  0  0  0  0  0
  2 10  1  0  0  0  0
  2 13  1  0  0  0  0
  3  1  1  0  0  0  0
  4  5  1  0  0  0  0
  5 14  2  0  0  0  0
  5 16  1  0  0  0  0
  6  4  2  0  0  0  0
  6  9  1  0  0  0  0
  7 38  1  6  0  0  0
  7  1  1  0  0  0  0
  8  2  2  0  0  0  0
  9 14  1  0  0  0  0
 10  7  1  0  0  0  0
 11 15  1  0  0  0  0
 12 11  2  0  0  0  0
 13 25  1  1  0  0  0
 13  3  1  0  0  0  0
 14  8  1  0  0  0  0
 15  4  1  0  0  0  0
 16 10  2  0  0  0  0
 17 19  1  0  0  0  0
 19 11  1  0  0  0  0
 19 18  2  0  0  0  0
 20 21  1  6  0  0  0
 20 17  1  0  0  0  0
 20 22  1  0  0  0  0
 22 24  1  0  0  0  0
 23 22  2  0  0  0  0
 26 28  1  0  0  0  0
 27 26  2  0  0  0  0
 28 25  1  0  0  0  0
 29 32  1  0  0  0  0
 30 36  1  6  0  0  0
 31 26  1  6  0  0  0
 31 35  1  0  0  0  0
 32 33  1  6  0  0  0
 32 31  1  0  0  0  0
 32 35  1  0  0  0  0
 34 30  1  0  0  0  0
 35 34  1  1  0  0  0
 35 30  1  0  0  0  0
 36 37  2  0  0  0  0
 39 38  1  6  0  0  0
 39 42  1  0  0  0  0
 41 39  1  0  0  0  0
 41 40  1  0  0  0  0
 42 43  1  0  0  0  0
 44 46  1  0  0  0  0
 44 43  2  0  0  0  0
 46 45  1  6  0  0  0
 46 47  1  0  0  0  0
 47 48  1  0  0  0  0
M  END
>  <MODEL>
3

>  <REMARK>
 VINA RESULT:      -6.2      2.748      6.079
  Name = 
  14 active torsions:
  status: ('A' for Active; 'I' for Inactive)
    1  A    between atoms: C_2  and  CA_42
    2  A    between atoms: C_3  and  C_22
    3  A    between atoms: C_4  and  C_14
    4  A    between atoms: N_6  and  CA_42
    5  A    between atoms: C_12  and  C_31
    6  A    between atoms: C_18  and  C_43
    7  A    between atoms: O_21  and  C_35
    8  A    between atoms: C_22  and  C_34
    9  A    between atoms: N_23  and  C_37
   10  A    between atoms: C_27  and  C_47
   11  A    between atoms: C_30  and  N_44
   12  A    between atoms: C_35  and  C_43
   13  A    between atoms: C_35  and  N_44
   14  A    between atoms: C_37  and  C_38
                            x       y       z     vdW  Elec       q    Type
                         _______ _______ _______ _____ _____    ______ ____

>  <TORSDO>
F 14

$$$$
=
 OpenBabel11042416443D

 48 52  0  0  1  0  0  0  0  0999 V2000
  191.6170  173.9620  145.0030 C   0  0  0  0  0  2  0  0  0  0  0  0
  190.3630  174.4370  142.3760 C   0  0  0  0  0  0  0  0  0  0  0  0
  191.7570  175.6620  144.4050 S   0  0  0  0  0  0  0  0  0  0  0  0
  189.9560  171.5800  139.3860 C   0  0  0  0  0  0  0  0  0  0  0  0
  190.3160  172.4470  140.4870 C   0  0  0  0  0  0  0  0  0  0  0  0
  188.9930  172.0830  138.6780 N   0  0  0  0  0  0  0  0  0  0  0  0
  191.8890  172.9740  143.8770 C   0  0  1  0  0  3  0  0  0  0  0  0
  189.5660  174.5490  141.2750 N   0  0  0  0  0  0  0  0  0  0  0  0
  188.6480  173.4210  139.1780 C   0  0  0  0  0  2  0  0  0  0  0  0
  191.1240  173.2440  142.5950 C   0  0  0  0  0  0  0  0  0  0  0  0
  191.8930  170.0350  138.8560 C   0  0  0  0  0  0  0  0  0  0  0  0
  192.2960  168.8410  138.8020 O   0  0  0  0  0  0  0  0  0  0  0  0
  190.2300  175.5070  143.4200 C   0  0  2  0  0  3  0  0  0  0  0  0
  189.5680  173.5730  140.3360 C   0  0  0  0  0  0  0  0  0  0  0  0
  190.5030  170.2880  139.1260 N   0  0  0  0  0  2  0  0  0  0  0  0
  191.0940  172.2310  141.6180 C   0  0  0  0  0  3  0  0  0  0  0  0
  193.6870  171.6200  139.6140 N   0  0  0  0  0  2  0  0  0  0  0  0
  192.9450  171.6170  137.4030 O   0  0  0  0  0  0  0  0  0  0  0  0
  192.8570  171.1160  138.5600 C   0  0  0  0  0  0  0  0  0  0  0  0
  194.8570  172.4380  139.3270 C   0  0  1  0  0  3  0  0  0  0  0  0
  194.5060  173.9060  139.4800 C   0  0  0  0  0  1  0  0  0  0  0  0
  195.9770  172.0630  140.2440 C   0  0  0  0  0  0  0  0  0  0  0  0
  195.7810  171.0670  141.1950 O   0  0  0  0  0  1  0  0  0  0  0  0
  197.0890  172.6510  140.1740 O   0  0  0  0  0  0  0  0  0  0  0  0
  189.0050  175.1990  144.2780 C   0  0  0  0  0  2  0  0  0  0  0  0
  186.8690  176.1990  143.4420 C   0  0  0  0  0  0  0  0  0  0  0  0
  186.7030  175.2000  142.6840 O   0  0  0  0  0  0  0  0  0  0  0  0
  188.0410  176.2910  144.2600 N   0  0  0  0  0  2  0  0  0  0  0  0
  186.3120  177.7020  141.2350 O   0  0  0  0  0  1  0  0  0  0  0  0
  185.7570  179.2190  144.8470 C   0  0  2  0  0  3  0  0  0  0  0  0
  185.7670  177.2080  143.5740 C   0  0  2  0  0  3  0  0  0  0  0  0
  185.5240  178.0050  142.3490 C   0  0  2  0  0  0  0  0  0  0  0  0
  184.0350  178.2540  142.0930 C   0  0  0  0  0  1  0  0  0  0  0  0
  185.5400  179.8740  143.6580 O   0  0  0  0  0  0  0  0  0  0  0  0
  186.3070  178.6800  143.5130 C   0  0  1  0  0  0  0  0  0  0  0  0
  184.4010  178.7960  145.3490 C   0  0  0  0  0  3  0  0  0  0  0  0
  184.2690  178.4180  146.6180 C   0  0  0  0  0  2  0  0  0  0  0  0
  193.3860  172.8270  143.6300 C   0  0  0  0  0  2  0  0  0  0  0  0
  194.1560  172.7680  144.9580 C   0  0  1  0  0  3  0  0  0  0  0  0
  195.6390  171.2060  145.7360 C   0  0  0  0  0  1  0  0  0  0  0  0
  194.2880  171.4380  145.4280 O   0  0  0  0  0  0  0  0  0  0  0  0
  195.4580  173.4460  144.8970 N   0  0  0  0  0  2  0  0  0  0  0  0
  195.8510  174.2980  143.8260 C   0  0  0  0  0  3  0  0  0  0  0  0
  196.0980  175.5810  144.0610 C   0  0  0  0  0  3  0  0  0  0  0  0
  197.3800  177.4800  143.4740 F   0  0  0  0  0  0  0  0  0  0  0  0
  196.5140  176.5220  142.9750 C   0  0  1  0  0  3  0  0  0  0  0  0
  197.1670  175.7930  141.8060 C   0  0  0  0  0  2  0  0  0  0  0  0
  196.7170  176.3370  140.6000 O   0  0  0  0  0  1  0  0  0  0  0  0
  2 10  1  0  0  0  0
  2 13  1  0  0  0  0
  3  1  1  0  0  0  0
  4  5  1  0  0  0  0
  5 16  1  0  0  0  0
  6  9  1  0  0  0  0
  6  4  2  0  0  0  0
  7 38  1  6  0  0  0
  7  1  1  0  0  0  0
  8  2  2  0  0  0  0
  9 14  1  0  0  0  0
 10  7  1  0  0  0  0
 11 15  1  0  0  0  0
 12 11  2  0  0  0  0
 13 25  1  1  0  0  0
 13  3  1  0  0  0  0
 14  5  2  0  0  0  0
 14  8  1  0  0  0  0
 15  4  1  0  0  0  0
 16 10  2  0  0  0  0
 18 19  2  0  0  0  0
 19 11  1  0  0  0  0
 19 17  1  0  0  0  0
 20 21  1  1  0  0  0
 20 17  1  0  0  0  0
 20 22  1  0  0  0  0
 22 23  1  0  0  0  0
 24 22  2  0  0  0  0
 26 28  1  0  0  0  0
 27 26  2  0  0  0  0
 28 25  1  0  0  0  0
 29 32  1  0  0  0  0
 30 36  1  6  0  0  0
 31 26  1  6  0  0  0
 32 33  1  6  0  0  0
 32 35  1  0  0  0  0
 32 31  1  0  0  0  0
 34 30  1  0  0  0  0
 35 31  1  0  0  0  0
 35 34  1  6  0  0  0
 35 30  1  0  0  0  0
 36 37  2  0  0  0  0
 39 38  1  6  0  0  0
 39 41  1  0  0  0  0
 41 40  1  0  0  0  0
 42 39  1  0  0  0  0
 43 44  2  0  0  0  0
 43 42  1  0  0  0  0
 46 45  1  1  0  0  0
 46 44  1  0  0  0  0
 47 46  1  0  0  0  0
 48 47  1  0  0  0  0
M  END
>  <MODEL>
4

>  <REMARK>
 VINA RESULT:      -6.2      2.125      5.061
  Name = 
  14 active torsions:
  status: ('A' for Active; 'I' for Inactive)
    1  A    between atoms: C_2  and  CA_42
    2  A    between atoms: C_3  and  C_22
    3  A    between atoms: C_4  and  C_14
    4  A    between atoms: N_6  and  CA_42
    5  A    between atoms: C_12  and  C_31
    6  A    between atoms: C_18  and  C_43
    7  A    between atoms: O_21  and  C_35
    8  A    between atoms: C_22  and  C_34
    9  A    between atoms: N_23  and  C_37
   10  A    between atoms: C_27  and  C_47
   11  A    between atoms: C_30  and  N_44
   12  A    between atoms: C_35  and  C_43
   13  A    between atoms: C_35  and  N_44
   14  A    between atoms: C_37  and  C_38
                            x       y       z     vdW  Elec       q    Type
                         _______ _______ _______ _____ _____    ______ ____

>  <TORSDO>
F 14

$$$$
=
 OpenBabel11042416443D

 48 52  0  0  1  0  0  0  0  0999 V2000
  192.0220  175.6990  144.9950 C   0  0  0  0  0  2  0  0  0  0  0  0
  190.8120  174.8490  142.4440 C   0  0  0  0  0  0  0  0  0  0  0  0
  191.5920  177.0580  143.8840 S   0  0  0  0  0  0  0  0  0  0  0  0
  191.5690  171.2320  140.5430 C   0  0  0  0  0  0  0  0  0  0  0  0
  191.5510  172.4730  141.2870 C   0  0  0  0  0  0  0  0  0  0  0  0
  190.5270  171.1190  139.7780 N   0  0  0  0  0  0  0  0  0  0  0  0
  192.6750  174.5610  144.2230 C   0  0  1  0  0  3  0  0  0  0  0  0
  190.0800  174.3230  141.4200 N   0  0  0  0  0  0  0  0  0  0  0  0
  189.7150  172.3410  139.8540 C   0  0  0  0  0  2  0  0  0  0  0  0
  191.9280  174.1280  142.9770 C   0  0  0  0  0  0  0  0  0  0  0  0
  193.9460  170.3660  140.3980 C   0  0  0  0  0  0  0  0  0  0  0  0
  194.7410  169.4330  140.6960 O   0  0  0  0  0  0  0  0  0  0  0  0
  190.2640  176.0810  143.1030 C   0  0  2  0  0  3  0  0  0  0  0  0
  190.4670  173.1620  140.8390 C   0  0  0  0  0  0  0  0  0  0  0  0
  192.5430  170.1960  140.6680 N   0  0  0  0  0  2  0  0  0  0  0  0
  192.3000  172.9110  142.3730 C   0  0  0  0  0  3  0  0  0  0  0  0
  195.1100  172.5890  140.4880 N   0  0  0  0  0  2  0  0  0  0  0  0
  194.3910  171.6930  138.4590 O   0  0  0  0  0  0  0  0  0  0  0  0
  194.4870  171.5570  139.7120 C   0  0  0  0  0  0  0  0  0  0  0  0
  195.9340  173.6120  139.8610 C   0  0  1  0  0  3  0  0  0  0  0  0
  195.1230  174.8810  139.6760 C   0  0  0  0  0  1  0  0  0  0  0  0
  197.1440  173.8740  140.7000 C   0  0  0  0  0  0  0  0  0  0  0  0
  197.8980  172.8050  141.1710 O   0  0  0  0  0  1  0  0  0  0  0  0
  197.4770  175.0530  140.9950 O   0  0  0  0  0  0  0  0  0  0  0  0
  189.1820  175.6610  144.0950 C   0  0  0  0  0  2  0  0  0  0  0  0
  186.9090  176.4610  143.4230 C   0  0  0  0  0  0  0  0  0  0  0  0
  186.8020  175.4810  142.6320 O   0  0  0  0  0  0  0  0  0  0  0  0
  188.1110  176.6450  144.1790 N   0  0  0  0  0  2  0  0  0  0  0  0
  186.0760  177.9900  141.3230 O   0  0  0  0  0  1  0  0  0  0  0  0
  185.5740  179.2870  145.0270 C   0  0  2  0  0  3  0  0  0  0  0  0
  185.7180  177.3430  143.6610 C   0  0  2  0  0  3  0  0  0  0  0  0
  185.3250  178.1610  142.4900 C   0  0  2  0  0  0  0  0  0  0  0  0
  183.8070  178.2630  142.3250 C   0  0  0  0  0  1  0  0  0  0  0  0
  185.2240  179.9640  143.8850 O   0  0  0  0  0  0  0  0  0  0  0  0
  186.1000  178.8640  143.6420 C   0  0  1  0  0  0  0  0  0  0  0  0
  184.3010  178.7030  145.5800 C   0  0  0  0  0  3  0  0  0  0  0  0
  184.2820  178.2540  146.8320 C   0  0  0  0  0  2  0  0  0  0  0  0
  194.1410  174.8680  143.9350 C   0  0  0  0  0  2  0  0  0  0  0  0
  195.0620  173.9250  144.7210 C   0  0  1  0  0  3  0  0  0  0  0  0
  197.3220  174.1420  145.0260 C   0  0  0  0  0  1  0  0  0  0  0  0
  196.0680  174.6370  145.4210 O   0  0  0  0  0  0  0  0  0  0  0  0
  194.3280  173.0190  145.6150 N   0  0  0  0  0  2  0  0  0  0  0  0
  194.2680  171.6090  145.4300 C   0  0  0  0  0  3  0  0  0  0  0  0
  195.3830  170.8900  145.4820 C   0  0  0  0  0  3  0  0  0  0  0  0
  195.6430  169.0880  143.9740 F   0  0  0  0  0  0  0  0  0  0  0  0
  195.3800  169.4050  145.2950 C   0  0  1  0  0  3  0  0  0  0  0  0
  196.3870  168.7120  146.2050 C   0  0  0  0  0  2  0  0  0  0  0  0
  196.5590  169.4580  147.3740 O   0  0  0  0  0  1  0  0  0  0  0  0
  2 10  1  0  0  0  0
  2 13  1  0  0  0  0
  3  1  1  0  0  0  0
  4 15  1  0  0  0  0
  4  5  1  0  0  0  0
  5 16  1  0  0  0  0
  6  9  1  0  0  0  0
  6  4  2  0  0  0  0
  7 38  1  6  0  0  0
  7  1  1  0  0  0  0
  8  2  2  0  0  0  0
  9 14  1  0  0  0  0
 10  7  1  0  0  0  0
 11 15  1  0  0  0  0
 11 12  2  0  0  0  0
 13  3  1  0  0  0  0
 13 25  1  1  0  0  0
 14  5  2  0  0  0  0
 14  8  1  0  0  0  0
 16 10  2  0  0  0  0
 18 19  2  0  0  0  0
 19 11  1  0  0  0  0
 19 17  1  0  0  0  0
 20 21  1  1  0  0  0
 20 17  1  0  0  0  0
 20 22  1  0  0  0  0
 22 24  2  0  0  0  0
 22 23  1  0  0  0  0
 25 28  1  0  0  0  0
 26 28  1  0  0  0  0
 27 26  2  0  0  0  0
 29 32  1  0  0  0  0
 30 36  1  6  0  0  0
 31 26  1  6  0  0  0
 32 33  1  6  0  0  0
 32 35  1  0  0  0  0
 32 31  1  0  0  0  0
 34 30  1  0  0  0  0
 35 31  1  0  0  0  0
 35 34  1  6  0  0  0
 35 30  1  0  0  0  0
 36 37  2  0  0  0  0
 39 38  1  1  0  0  0
 39 41  1  0  0  0  0
 39 42  1  0  0  0  0
 40 41  1  0  0  0  0
 43 44  2  0  0  0  0
 43 42  1  0  0  0  0
 46 45  1  6  0  0  0
 46 44  1  0  0  0  0
 46 47  1  0  0  0  0
 47 48  1  0  0  0  0
M  END
>  <MODEL>
5

>  <REMARK>
 VINA RESULT:      -6.2      2.234      5.426
  Name = 
  14 active torsions:
  status: ('A' for Active; 'I' for Inactive)
    1  A    between atoms: C_2  and  CA_42
    2  A    between atoms: C_3  and  C_22
    3  A    between atoms: C_4  and  C_14
    4  A    between atoms: N_6  and  CA_42
    5  A    between atoms: C_12  and  C_31
    6  A    between atoms: C_18  and  C_43
    7  A    between atoms: O_21  and  C_35
    8  A    between atoms: C_22  and  C_34
    9  A    between atoms: N_23  and  C_37
   10  A    between atoms: C_27  and  C_47
   11  A    between atoms: C_30  and  N_44
   12  A    between atoms: C_35  and  C_43
   13  A    between atoms: C_35  and  N_44
   14  A    between atoms: C_37  and  C_38
                            x       y       z     vdW  Elec       q    Type
                         _______ _______ _______ _____ _____    ______ ____

>  <TORSDO>
F 14

$$$$
=
 OpenBabel11042416443D

 48 52  0  0  1  0  0  0  0  0999 V2000
  185.6210  177.5130  143.8980 C   0  0  0  0  0  2  0  0  0  0  0  0
  186.6120  177.0160  141.1650 C   0  0  0  0  0  0  0  0  0  0  0  0
  185.8970  179.0080  142.9200 S   0  0  0  0  0  0  0  0  0  0  0  0
  188.9300  173.7570  140.0350 C   0  0  0  0  0  0  0  0  0  0  0  0
  188.2450  174.8700  140.6570 C   0  0  0  0  0  0  0  0  0  0  0  0
  188.7210  173.7240  138.7550 N   0  0  0  0  0  0  0  0  0  0  0  0
  186.7660  176.5290  143.7070 C   0  0  1  0  0  3  0  0  0  0  0  0
  186.8580  176.6240  139.8820 N   0  0  0  0  0  0  0  0  0  0  0  0
  187.9280  174.8900  138.3450 C   0  0  0  0  0  2  0  0  0  0  0  0
  187.1420  176.2630  142.2620 C   0  0  0  0  0  0  0  0  0  0  0  0
  190.8460  173.0080  141.5140 C   0  0  0  0  0  0  0  0  0  0  0  0
  191.3330  172.0690  142.2020 O   0  0  0  0  0  0  0  0  0  0  0  0
  185.6070  178.1140  141.3570 C   0  0  2  0  0  3  0  0  0  0  0  0
  187.6850  175.5790  139.6400 C   0  0  0  0  0  0  0  0  0  0  0  0
  189.6770  172.7500  140.7150 N   0  0  0  0  0  2  0  0  0  0  0  0
  187.9800  175.1650  141.9880 C   0  0  0  0  0  3  0  0  0  0  0  0
  191.2640  175.2650  142.5310 N   0  0  0  0  0  2  0  0  0  0  0  0
  192.3750  174.5980  140.5920 O   0  0  0  0  0  0  0  0  0  0  0  0
  191.5480  174.3070  141.5020 C   0  0  0  0  0  0  0  0  0  0  0  0
  192.1380  176.4070  142.7590 C   0  0  1  0  0  3  0  0  0  0  0  0
  191.3020  177.6460  143.0240 C   0  0  0  0  0  1  0  0  0  0  0  0
  193.0500  176.1270  143.9110 C   0  0  0  0  0  0  0  0  0  0  0  0
  193.9350  175.0570  143.8420 O   0  0  0  0  0  0  0  0  0  0  0  0
  193.0120  176.8420  144.9490 O   0  0  0  0  0  1  0  0  0  0  0  0
  184.2070  177.5110  141.2750 C   0  0  0  0  0  2  0  0  0  0  0  0
  181.9720  178.4400  140.6410 C   0  0  0  0  0  0  0  0  0  0  0  0
  181.8420  177.5260  139.7770 O   0  0  0  0  0  0  0  0  0  0  0  0
  183.1700  178.5240  141.4210 N   0  0  0  0  0  2  0  0  0  0  0  0
  179.8840  177.3480  142.0140 O   0  0  0  0  0  1  0  0  0  0  0  0
  179.2260  180.2440  139.4000 C   0  0  2  0  0  3  0  0  0  0  0  0
  180.8100  179.3440  140.9320 C   0  0  2  0  0  3  0  0  0  0  0  0
  179.7010  178.6890  141.6640 C   0  0  2  0  0  0  0  0  0  0  0  0
  179.0740  179.5990  142.7230 C   0  0  0  0  0  1  0  0  0  0  0  0
  178.2660  179.5940  140.1380 O   0  0  0  0  0  0  0  0  0  0  0  0
  179.5250  178.9240  140.1350 C   0  0  1  0  0  0  0  0  0  0  0  0
  179.4510  181.5710  140.0760 C   0  0  0  0  0  3  0  0  0  0  0  0
  178.4420  182.4340  140.1630 C   0  0  0  0  0  2  0  0  0  0  0  0
  187.9740  176.9280  144.5480 C   0  0  0  0  0  2  0  0  0  0  0  0
  188.3880  175.7860  145.4870 C   0  0  1  0  0  3  0  0  0  0  0  0
  190.2820  175.6360  146.7670 C   0  0  0  0  0  1  0  0  0  0  0  0
  189.7870  175.5620  145.4540 O   0  0  0  0  0  0  0  0  0  0  0  0
  187.9080  175.9730  146.8640 N   0  0  0  0  0  2  0  0  0  0  0  0
  186.7540  176.7360  147.1970 C   0  0  0  0  0  3  0  0  0  0  0  0
  186.8820  178.0150  147.5290 C   0  0  0  0  0  3  0  0  0  0  0  0
  185.9220  180.1750  147.5030 F   0  0  0  0  0  0  0  0  0  0  0  0
  185.7040  178.8640  147.8880 C   0  0  1  0  0  3  0  0  0  0  0  0
  184.4150  178.3480  147.2600 C   0  0  0  0  0  2  0  0  0  0  0  0
  184.0980  179.1140  146.1350 O   0  0  0  0  0  1  0  0  0  0  0  0
  2 13  1  0  0  0  0
  2 10  1  0  0  0  0
  3  1  1  0  0  0  0
  4  5  1  0  0  0  0
  4 15  1  0  0  0  0
  5 16  1  0  0  0  0
  6  4  2  0  0  0  0
  7  1  1  0  0  0  0
  7 38  1  1  0  0  0
  8  2  2  0  0  0  0
  9  6  1  0  0  0  0
  9 14  1  0  0  0  0
 10  7  1  0  0  0  0
 11 12  2  0  0  0  0
 13 25  1  1  0  0  0
 13  3  1  0  0  0  0
 14  8  1  0  0  0  0
 14  5  2  0  0  0  0
 15 11  1  0  0  0  0
 16 10  2  0  0  0  0
 17 20  1  0  0  0  0
 18 19  2  0  0  0  0
 19 11  1  0  0  0  0
 19 17  1  0  0  0  0
 20 21  1  1  0  0  0
 20 22  1  0  0  0  0
 22 24  1  0  0  0  0
 23 22  2  0  0  0  0
 25 28  1  0  0  0  0
 26 28  1  0  0  0  0
 27 26  2  0  0  0  0
 30 36  1  1  0  0  0
 30 35  1  0  0  0  0
 30 34  1  0  0  0  0
 31 26  1  6  0  0  0
 31 32  1  0  0  0  0
 32 29  1  0  0  0  0
 32 33  1  1  0  0  0
 35 34  1  6  0  0  0
 35 31  1  0  0  0  0
 35 32  1  0  0  0  0
 36 37  2  0  0  0  0
 39 38  1  6  0  0  0
 39 42  1  0  0  0  0
 41 39  1  0  0  0  0
 41 40  1  0  0  0  0
 42 43  1  0  0  0  0
 43 44  2  0  0  0  0
 44 46  1  0  0  0  0
 46 45  1  6  0  0  0
 47 46  1  0  0  0  0
 48 47  1  0  0  0  0
M  END
>  <MODEL>
6

>  <REMARK>
 VINA RESULT:      -6.2      4.297      8.269
  Name = 
  14 active torsions:
  status: ('A' for Active; 'I' for Inactive)
    1  A    between atoms: C_2  and  CA_42
    2  A    between atoms: C_3  and  C_22
    3  A    between atoms: C_4  and  C_14
    4  A    between atoms: N_6  and  CA_42
    5  A    between atoms: C_12  and  C_31
    6  A    between atoms: C_18  and  C_43
    7  A    between atoms: O_21  and  C_35
    8  A    between atoms: C_22  and  C_34
    9  A    between atoms: N_23  and  C_37
   10  A    between atoms: C_27  and  C_47
   11  A    between atoms: C_30  and  N_44
   12  A    between atoms: C_35  and  C_43
   13  A    between atoms: C_35  and  N_44
   14  A    between atoms: C_37  and  C_38
                            x       y       z     vdW  Elec       q    Type
                         _______ _______ _______ _____ _____    ______ ____

>  <TORSDO>
F 14

$$$$
=
 OpenBabel11042416443D

 48 52  0  0  1  0  0  0  0  0999 V2000
  190.1540  173.5010  140.2710 C   0  0  0  0  0  2  0  0  0  0  0  0
  190.4640  174.6150  142.9840 C   0  0  0  0  0  0  0  0  0  0  0  0
  189.1200  172.7100  141.5250 S   0  0  0  0  0  0  0  0  0  0  0  0
  193.9370  176.3590  144.4540 C   0  0  0  0  0  0  0  0  0  0  0  0
  192.8890  175.6030  143.8040 C   0  0  0  0  0  0  0  0  0  0  0  0
  193.4730  177.0720  145.4340 N   0  0  0  0  0  0  0  0  0  0  0  0
  191.5600  173.7350  140.8060 C   0  0  1  0  0  3  0  0  0  0  0  0
  190.5550  175.3640  144.1200 N   0  0  0  0  0  0  0  0  0  0  0  0
  192.0410  176.8010  145.6170 C   0  0  0  0  0  2  0  0  0  0  0  0
  191.6200  174.4010  142.1670 C   0  0  0  0  0  0  0  0  0  0  0  0
  196.1780  175.2720  143.9930 C   0  0  0  0  0  0  0  0  0  0  0  0
  197.3170  175.4030  143.4660 O   0  0  0  0  0  0  0  0  0  0  0  0
  189.0840  174.2260  142.5390 C   0  0  2  0  0  3  0  0  0  0  0  0
  191.7610  175.8270  144.5300 C   0  0  0  0  0  0  0  0  0  0  0  0
  195.3040  176.4140  144.0490 N   0  0  0  0  0  2  0  0  0  0  0  0
  192.8590  174.9110  142.5990 C   0  0  0  0  0  3  0  0  0  0  0  0
  195.5180  172.8630  143.7420 N   0  0  0  0  0  2  0  0  0  0  0  0
  195.7790  173.8220  145.8510 O   0  0  0  0  0  0  0  0  0  0  0  0
  195.8300  173.9700  144.5970 C   0  0  0  0  0  0  0  0  0  0  0  0
  195.4840  171.5010  144.2540 C   0  0  1  0  0  3  0  0  0  0  0  0
  194.5100  170.6710  143.4390 C   0  0  0  0  0  1  0  0  0  0  0  0
  196.8560  170.9060  144.2060 C   0  0  0  0  0  0  0  0  0  0  0  0
  197.5710  170.7320  145.3870 O   0  0  0  0  0  1  0  0  0  0  0  0
  197.3750  170.5760  143.1070 O   0  0  0  0  0  0  0  0  0  0  0  0
  188.4580  175.4090  141.8060 C   0  0  0  0  0  2  0  0  0  0  0  0
  187.2060  177.1040  143.1560 C   0  0  0  0  0  0  0  0  0  0  0  0
  188.2660  177.7820  143.2810 O   0  0  0  0  0  0  0  0  0  0  0  0
  187.2300  175.8580  142.4490 N   0  0  0  0  0  2  0  0  0  0  0  0
  185.7990  178.6060  141.3660 O   0  0  0  0  0  1  0  0  0  0  0  0
  185.5660  179.4140  145.2320 C   0  0  2  0  0  3  0  0  0  0  0  0
  185.9070  177.6820  143.6350 C   0  0  2  0  0  3  0  0  0  0  0  0
  185.1990  178.5010  142.6240 C   0  0  2  0  0  0  0  0  0  0  0  0
  183.6830  178.2900  142.6500 C   0  0  0  0  0  1  0  0  0  0  0  0
  184.9310  180.1030  144.2270 O   0  0  0  0  0  0  0  0  0  0  0  0
  185.9680  179.2450  143.7550 C   0  0  1  0  0  0  0  0  0  0  0  0
  184.5250  178.5210  145.8540 C   0  0  0  0  0  3  0  0  0  0  0  0
  184.7100  178.0760  147.0940 C   0  0  0  0  0  2  0  0  0  0  0  0
  192.3820  172.4510  140.7600 C   0  0  0  0  0  2  0  0  0  0  0  0
  193.0650  172.2870  139.3950 C   0  0  1  0  0  3  0  0  0  0  0  0
  194.3880  173.8020  138.2980 C   0  0  0  0  0  1  0  0  0  0  0  0
  194.3440  172.8960  139.3720 O   0  0  0  0  0  0  0  0  0  0  0  0
  193.1300  170.8880  138.9510 N   0  0  0  0  0  2  0  0  0  0  0  0
  192.3360  170.3610  137.8940 C   0  0  0  0  0  3  0  0  0  0  0  0
  191.3480  171.0880  137.3850 C   0  0  0  0  0  3  0  0  0  0  0  0
  189.3160  170.0400  136.7840 F   0  0  0  0  0  0  0  0  0  0  0  0
  190.4820  170.5850  136.2750 C   0  0  1  0  0  3  0  0  0  0  0  0
  190.1450  171.6810  135.2710 C   0  0  0  0  0  2  0  0  0  0  0  0
  191.2070  172.5850  135.1850 O   0  0  0  0  0  1  0  0  0  0  0  0
  1  7  1  0  0  0  0
  1  3  1  0  0  0  0
  2  8  1  0  0  0  0
  3 13  1  0  0  0  0
  4  6  2  0  0  0  0
  5  4  1  0  0  0  0
  5 14  1  0  0  0  0
  6  9  1  0  0  0  0
  7 38  1  1  0  0  0
  7 10  1  0  0  0  0
  8 14  2  0  0  0  0
 10 16  1  0  0  0  0
 10  2  2  0  0  0  0
 11 15  1  0  0  0  0
 11 19  1  0  0  0  0
 12 11  2  0  0  0  0
 13 25  1  6  0  0  0
 13  2  1  0  0  0  0
 14  9  1  0  0  0  0
 15  4  1  0  0  0  0
 16  5  2  0  0  0  0
 17 20  1  0  0  0  0
 17 19  1  0  0  0  0
 19 18  2  0  0  0  0
 20 21  1  6  0  0  0
 22 20  1  0  0  0  0
 22 23  1  0  0  0  0
 24 22  2  0  0  0  0
 25 28  1  0  0  0  0
 26 27  2  0  0  0  0
 28 26  1  0  0  0  0
 29 32  1  0  0  0  0
 30 36  1  6  0  0  0
 31 26  1  6  0  0  0
 31 35  1  0  0  0  0
 32 33  1  1  0  0  0
 32 31  1  0  0  0  0
 32 35  1  0  0  0  0
 34 30  1  0  0  0  0
 35 34  1  6  0  0  0
 35 30  1  0  0  0  0
 36 37  2  0  0  0  0
 39 38  1  1  0  0  0
 40 41  1  0  0  0  0
 41 39  1  0  0  0  0
 42 39  1  0  0  0  0
 43 42  1  0  0  0  0
 44 43  2  0  0  0  0
 46 45  1  1  0  0  0
 46 44  1  0  0  0  0
 47 46  1  0  0  0  0
 48 47  1  0  0  0  0
M  END
>  <MODEL>
7

>  <REMARK>
 VINA RESULT:      -6.1      2.166      2.899
  Name = 
  14 active torsions:
  status: ('A' for Active; 'I' for Inactive)
    1  A    between atoms: C_2  and  CA_42
    2  A    between atoms: C_3  and  C_22
    3  A    between atoms: C_4  and  C_14
    4  A    between atoms: N_6  and  CA_42
    5  A    between atoms: C_12  and  C_31
    6  A    between atoms: C_18  and  C_43
    7  A    between atoms: O_21  and  C_35
    8  A    between atoms: C_22  and  C_34
    9  A    between atoms: N_23  and  C_37
   10  A    between atoms: C_27  and  C_47
   11  A    between atoms: C_30  and  N_44
   12  A    between atoms: C_35  and  C_43
   13  A    between atoms: C_35  and  N_44
   14  A    between atoms: C_37  and  C_38
                            x       y       z     vdW  Elec       q    Type
                         _______ _______ _______ _____ _____    ______ ____

>  <TORSDO>
F 14

$$$$
=
 OpenBabel11042416443D

 48 52  0  0  1  0  0  0  0  0999 V2000
  192.3110  176.3140  144.9140 C   0  0  0  0  0  2  0  0  0  0  0  0
  190.9690  175.1880  142.5410 C   0  0  0  0  0  0  0  0  0  0  0  0
  191.7220  177.5490  143.7330 S   0  0  0  0  0  0  0  0  0  0  0  0
  191.7950  171.4680  140.8860 C   0  0  0  0  0  0  0  0  0  0  0  0
  191.7590  172.7650  141.5260 C   0  0  0  0  0  0  0  0  0  0  0  0
  190.7080  171.2360  140.2160 N   0  0  0  0  0  0  0  0  0  0  0  0
  192.9710  175.1500  144.1870 C   0  0  1  0  0  3  0  0  0  0  0  0
  190.1960  174.5390  141.6240 N   0  0  0  0  0  0  0  0  0  0  0  0
  189.8330  172.4160  140.2560 C   0  0  0  0  0  2  0  0  0  0  0  0
  192.1610  174.5740  143.0420 C   0  0  0  0  0  0  0  0  0  0  0  0
  194.2010  170.7180  140.6250 C   0  0  0  0  0  0  0  0  0  0  0  0
  195.0690  169.8560  140.9350 O   0  0  0  0  0  0  0  0  0  0  0  0
  190.3990  176.4410  143.1400 C   0  0  2  0  0  3  0  0  0  0  0  0
  190.6060  173.3550  141.1100 C   0  0  0  0  0  0  0  0  0  0  0  0
  192.8340  170.4990  141.0170 N   0  0  0  0  0  2  0  0  0  0  0  0
  192.5580  173.3320  142.5110 C   0  0  0  0  0  3  0  0  0  0  0  0
  194.3140  171.8850  138.4050 N   0  0  0  0  0  2  0  0  0  0  0  0
  195.2610  172.8380  140.3110 O   0  0  0  0  0  0  0  0  0  0  0  0
  194.6200  171.8730  139.8050 C   0  0  0  0  0  0  0  0  0  0  0  0
  194.4080  173.1090  137.6230 C   0  0  1  0  0  3  0  0  0  0  0  0
  194.9360  172.7920  136.2360 C   0  0  0  0  0  1  0  0  0  0  0  0
  193.0670  173.7650  137.5420 C   0  0  0  0  0  0  0  0  0  0  0  0
  191.9170  172.9840  137.5910 O   0  0  0  0  0  1  0  0  0  0  0  0
  192.9690  175.0150  137.4140 O   0  0  0  0  0  0  0  0  0  0  0  0
  189.4200  176.0520  144.2440 C   0  0  0  0  0  2  0  0  0  0  0  0
  187.1040  176.6880  143.5420 C   0  0  0  0  0  0  0  0  0  0  0  0
  187.0730  175.6950  142.7600 O   0  0  0  0  0  0  0  0  0  0  0  0
  188.2830  176.9610  144.3070 N   0  0  0  0  0  2  0  0  0  0  0  0
  186.2120  178.1660  141.4310 O   0  0  0  0  0  1  0  0  0  0  0  0
  185.5560  179.4120  145.1280 C   0  0  2  0  0  3  0  0  0  0  0  0
  185.8540  177.4870  143.7590 C   0  0  2  0  0  3  0  0  0  0  0  0
  185.4300  178.2820  142.5830 C   0  0  2  0  0  0  0  0  0  0  0  0
  183.9110  178.2850  142.3890 C   0  0  0  0  0  1  0  0  0  0  0  0
  185.1830  180.0700  143.9800 O   0  0  0  0  0  0  0  0  0  0  0  0
  186.1340  179.0310  143.7520 C   0  0  1  0  0  0  0  0  0  0  0  0
  184.3130  178.7430  145.6540 C   0  0  0  0  0  3  0  0  0  0  0  0
  184.2960  178.3000  146.9080 C   0  0  0  0  0  2  0  0  0  0  0  0
  194.3910  175.5080  143.7620 C   0  0  0  0  0  2  0  0  0  0  0  0
  195.3770  174.4020  144.1630 C   0  0  1  0  0  3  0  0  0  0  0  0
  197.2230  175.5880  143.5030 C   0  0  0  0  0  1  0  0  0  0  0  0
  196.6180  174.9360  144.5910 O   0  0  0  0  0  0  0  0  0  0  0  0
  194.8240  173.4720  145.1570 N   0  0  0  0  0  2  0  0  0  0  0  0
  195.2960  172.1420  145.3370 C   0  0  0  0  0  3  0  0  0  0  0  0
  194.4650  171.2000  145.7680 C   0  0  0  0  0  3  0  0  0  0  0  0
  194.6700  169.3950  147.2820 F   0  0  0  0  0  0  0  0  0  0  0  0
  194.9070  169.7860  145.9760 C   0  0  1  0  0  3  0  0  0  0  0  0
  194.2180  168.8240  145.0150 C   0  0  0  0  0  2  0  0  0  0  0  0
  193.0690  169.4230  144.4910 O   0  0  0  0  0  1  0  0  0  0  0  0
  2 10  1  0  0  0  0
  2 13  1  0  0  0  0
  3  1  1  0  0  0  0
  4 15  1  0  0  0  0
  4  5  1  0  0  0  0
  5 16  1  0  0  0  0
  6  9  1  0  0  0  0
  6  4  2  0  0  0  0
  7 38  1  6  0  0  0
  7  1  1  0  0  0  0
  8  2  2  0  0  0  0
  9 14  1  0  0  0  0
 10  7  1  0  0  0  0
 11 12  2  0  0  0  0
 11 15  1  0  0  0  0
 13  3  1  0  0  0  0
 13 25  1  1  0  0  0
 14  5  2  0  0  0  0
 14  8  1  0  0  0  0
 16 10  2  0  0  0  0
 17 19  1  0  0  0  0
 19 18  2  0  0  0  0
 19 11  1  0  0  0  0
 20 21  1  6  0  0  0
 20 17  1  0  0  0  0
 22 23  1  0  0  0  0
 22 20  1  0  0  0  0
 24 22  2  0  0  0  0
 25 28  1  0  0  0  0
 26 28  1  0  0  0  0
 27 26  2  0  0  0  0
 29 32  1  0  0  0  0
 30 36  1  6  0  0  0
 31 26  1  6  0  0  0
 32 33  1  6  0  0  0
 32 35  1  0  0  0  0
 32 31  1  0  0  0  0
 34 30  1  0  0  0  0
 35 31  1  0  0  0  0
 35 34  1  6  0  0  0
 35 30  1  0  0  0  0
 36 37  2  0  0  0  0
 39 38  1  1  0  0  0
 39 41  1  0  0  0  0
 39 42  1  0  0  0  0
 40 41  1  0  0  0  0
 42 43  1  0  0  0  0
 43 44  2  0  0  0  0
 44 46  1  0  0  0  0
 46 45  1  1  0  0  0
 47 46  1  0  0  0  0
 48 47  1  0  0  0  0
M  END
>  <MODEL>
8

>  <REMARK>
 VINA RESULT:      -6.1      2.600      5.812
  Name = 
  14 active torsions:
  status: ('A' for Active; 'I' for Inactive)
    1  A    between atoms: C_2  and  CA_42
    2  A    between atoms: C_3  and  C_22
    3  A    between atoms: C_4  and  C_14
    4  A    between atoms: N_6  and  CA_42
    5  A    between atoms: C_12  and  C_31
    6  A    between atoms: C_18  and  C_43
    7  A    between atoms: O_21  and  C_35
    8  A    between atoms: C_22  and  C_34
    9  A    between atoms: N_23  and  C_37
   10  A    between atoms: C_27  and  C_47
   11  A    between atoms: C_30  and  N_44
   12  A    between atoms: C_35  and  C_43
   13  A    between atoms: C_35  and  N_44
   14  A    between atoms: C_37  and  C_38
                            x       y       z     vdW  Elec       q    Type
                         _______ _______ _______ _____ _____    ______ ____

>  <TORSDO>
F 14

$$$$
=
 OpenBabel11042416443D

 48 52  0  0  1  0  0  0  0  0999 V2000
  190.1510  173.0450  141.5400 C   0  0  0  0  0  2  0  0  0  0  0  0
  191.0480  174.3970  144.0030 C   0  0  0  0  0  0  0  0  0  0  0  0
  189.3980  172.4110  143.0570 S   0  0  0  0  0  0  0  0  0  0  0  0
  194.7770  176.1530  144.5260 C   0  0  0  0  0  0  0  0  0  0  0  0
  193.6040  175.3750  144.1900 C   0  0  0  0  0  0  0  0  0  0  0  0
  194.5420  176.9710  145.5060 N   0  0  0  0  0  0  0  0  0  0  0  0
  191.6420  173.2800  141.7400 C   0  0  1  0  0  3  0  0  0  0  0  0
  191.3890  175.2470  145.0140 N   0  0  0  0  0  0  0  0  0  0  0  0
  193.1790  176.7660  146.0140 C   0  0  0  0  0  2  0  0  0  0  0  0
  191.9990  174.0690  142.9850 C   0  0  0  0  0  0  0  0  0  0  0  0
  196.8540  174.9530  143.7120 C   0  0  0  0  0  0  0  0  0  0  0  0
  197.8560  174.9940  142.9460 O   0  0  0  0  0  0  0  0  0  0  0  0
  189.6000  174.0160  143.9000 C   0  0  2  0  0  3  0  0  0  0  0  0
  192.6600  175.7050  145.1130 C   0  0  0  0  0  0  0  0  0  0  0  0
  196.0270  176.1230  143.8380 N   0  0  0  0  0  2  0  0  0  0  0  0
  193.3090  174.5750  143.0930 C   0  0  0  0  0  3  0  0  0  0  0  0
  195.8710  172.6520  143.9240 N   0  0  0  0  0  2  0  0  0  0  0  0
  197.0610  173.6150  145.6830 O   0  0  0  0  0  0  0  0  0  0  0  0
  196.6250  173.7260  144.5020 C   0  0  0  0  0  0  0  0  0  0  0  0
  195.8860  171.3190  144.5110 C   0  0  1  0  0  3  0  0  0  0  0  0
  194.5520  171.0390  145.1790 C   0  0  0  0  0  1  0  0  0  0  0  0
  196.1720  170.3010  143.4530 C   0  0  0  0  0  0  0  0  0  0  0  0
  197.4900  170.0140  143.1160 O   0  0  0  0  0  1  0  0  0  0  0  0
  195.2310  169.7140  142.8550 O   0  0  0  0  0  0  0  0  0  0  0  0
  188.8470  175.1450  143.2030 C   0  0  0  0  0  2  0  0  0  0  0  0
  188.2170  176.9830  144.7800 C   0  0  0  0  0  0  0  0  0  0  0  0
  189.3830  177.4630  144.6800 O   0  0  0  0  0  0  0  0  0  0  0  0
  187.8760  175.7780  144.0860 N   0  0  0  0  0  2  0  0  0  0  0  0
  187.6630  176.1840  147.3280 O   0  0  0  0  0  1  0  0  0  0  0  0
  184.8220  177.8170  145.1120 C   0  0  2  0  0  3  0  0  0  0  0  0
  187.1670  177.7600  145.5170 C   0  0  2  0  0  3  0  0  0  0  0  0
  186.8980  177.2680  146.8880 C   0  0  2  0  0  0  0  0  0  0  0  0
  186.6710  178.4030  147.8890 C   0  0  0  0  0  1  0  0  0  0  0  0
  184.6710  177.3520  146.3960 O   0  0  0  0  0  0  0  0  0  0  0  0
  185.8750  176.9070  145.7720 C   0  0  1  0  0  0  0  0  0  0  0  0
  184.9250  179.3160  145.2150 C   0  0  0  0  0  3  0  0  0  0  0  0
  185.1810  180.0260  144.1200 C   0  0  0  0  0  2  0  0  0  0  0  0
  192.4180  171.9710  141.6490 C   0  0  0  0  0  2  0  0  0  0  0  0
  192.7750  171.6470  140.1910 C   0  0  1  0  0  3  0  0  0  0  0  0
  191.5370  171.4590  138.2720 C   0  0  0  0  0  1  0  0  0  0  0  0
  191.9450  172.3480  139.2810 O   0  0  0  0  0  0  0  0  0  0  0  0
  194.1970  171.8550  139.8890 N   0  0  0  0  0  2  0  0  0  0  0  0
  194.9020  173.0490  140.2110 C   0  0  0  0  0  3  0  0  0  0  0  0
  195.0540  173.9940  139.2900 C   0  0  0  0  0  3  0  0  0  0  0  0
  195.3290  175.8320  140.7510 F   0  0  0  0  0  0  0  0  0  0  0  0
  195.7860  175.2680  139.5730 C   0  0  1  0  0  3  0  0  0  0  0  0
  197.2930  175.0570  139.6500 C   0  0  0  0  0  2  0  0  0  0  0  0
  197.8950  175.5170  138.4760 O   0  0  0  0  0  1  0  0  0  0  0  0
  1  7  1  0  0  0  0
  1  3  1  0  0  0  0
  2  8  1  0  0  0  0
  3 13  1  0  0  0  0
  4  6  2  0  0  0  0
  5  4  1  0  0  0  0
  5 14  1  0  0  0  0
  6  9  1  0  0  0  0
  7 38  1  1  0  0  0
  7 10  1  0  0  0  0
  8 14  2  0  0  0  0
 10 16  1  0  0  0  0
 10  2  2  0  0  0  0
 11 15  1  0  0  0  0
 11 19  1  0  0  0  0
 12 11  2  0  0  0  0
 13 25  1  6  0  0  0
 13  2  1  0  0  0  0
 14  9  1  0  0  0  0
 15  4  1  0  0  0  0
 16  5  2  0  0  0  0
 17 19  1  0  0  0  0
 17 20  1  0  0  0  0
 19 18  2  0  0  0  0
 20 21  1  6  0  0  0
 22 20  1  0  0  0  0
 23 22  1  0  0  0  0
 24 22  2  0  0  0  0
 25 28  1  0  0  0  0
 27 26  2  0  0  0  0
 28 26  1  0  0  0  0
 30 36  1  1  0  0  0
 30 35  1  0  0  0  0
 30 34  1  0  0  0  0
 31 26  1  6  0  0  0
 31 35  1  0  0  0  0
 31 32  1  0  0  0  0
 32 29  1  0  0  0  0
 32 33  1  1  0  0  0
 35 34  1  6  0  0  0
 35 32  1  0  0  0  0
 37 36  2  0  0  0  0
 39 38  1  1  0  0  0
 40 41  1  0  0  0  0
 41 39  1  0  0  0  0
 42 39  1  0  0  0  0
 42 43  1  0  0  0  0
 44 46  1  0  0  0  0
 44 43  2  0  0  0  0
 46 47  1  0  0  0  0
 46 45  1  1  0  0  0
 48 47  1  0  0  0  0
M  END
>  <MODEL>
9

>  <REMARK>
 VINA RESULT:      -6.0      1.583      2.104
  Name = 
  14 active torsions:
  status: ('A' for Active; 'I' for Inactive)
    1  A    between atoms: C_2  and  CA_42
    2  A    between atoms: C_3  and  C_22
    3  A    between atoms: C_4  and  C_14
    4  A    between atoms: N_6  and  CA_42
    5  A    between atoms: C_12  and  C_31
    6  A    between atoms: C_18  and  C_43
    7  A    between atoms: O_21  and  C_35
    8  A    between atoms: C_22  and  C_34
    9  A    between atoms: N_23  and  C_37
   10  A    between atoms: C_27  and  C_47
   11  A    between atoms: C_30  and  N_44
   12  A    between atoms: C_35  and  C_43
   13  A    between atoms: C_35  and  N_44
   14  A    between atoms: C_37  and  C_38
                            x       y       z     vdW  Elec       q    Type
                         _______ _______ _______ _____ _____    ______ ____

>  <TORSDO>
F 14

$$$$
