=
 OpenBabel11042417113D

 38 40  0  0  1  0  0  0  0  0999 V2000
  187.6160  176.5740  144.2160 C   0  0  0  0  0  0  0  0  0  0  0  0
  186.1180  177.6310  145.8370 C   0  0  0  0  0  0  0  0  0  0  0  0
  184.4520  178.1830  147.5390 O   0  0  0  0  0  1  0  0  0  0  0  0
  188.4290  177.1350  146.4260 C   0  0  0  0  0  3  0  0  0  0  0  0
  184.4050  178.1780  143.2520 C   0  0  0  0  0  0  0  0  0  0  0  0
  187.0770  178.2800  148.1250 C   0  0  0  0  0  1  0  0  0  0  0  0
  184.7100  178.0680  146.1730 C   0  0  1  0  0  3  0  0  0  0  0  0
  188.6370  176.5710  145.1720 C   0  0  0  0  0  3  0  0  0  0  0  0
  185.3510  177.2370  143.4340 C   0  0  0  0  0  3  0  0  0  0  0  0
  186.3610  177.1480  144.5250 C   0  0  0  0  0  0  0  0  0  0  0  0
  187.1890  177.6700  146.7690 C   0  0  0  0  0  0  0  0  0  0  0  0
  184.2080  179.3410  144.1390 C   0  0  0  0  0  3  0  0  0  0  0  0
  184.3630  179.3220  145.4600 C   0  0  0  0  0  3  0  0  0  0  0  0
  182.2730  178.5140  142.0390 C   0  0  0  0  0  3  0  0  0  0  0  0
  183.5570  178.1470  142.0500 C   0  0  0  0  0  3  0  0  0  0  0  0
  181.7920  177.7060  139.8970 O   0  0  0  0  0  0  0  0  0  0  0  0
  181.4410  178.4840  140.8240 C   0  0  0  0  0  0  0  0  0  0  0  0
  177.7830  179.7620  141.0000 C   0  0  0  0  0  1  0  0  0  0  0  0
  178.9080  178.8340  141.0330 N   0  0  0  0  0  0  0  0  0  0  0  0
  180.2150  179.3130  140.6660 C   0  0  0  0  0  0  0  0  0  0  0  0
  180.3280  180.4850  140.2110 O   0  0  0  0  0  0  0  0  0  0  0  0
  178.6750  177.4200  141.3380 C   0  0  0  0  0  2  0  0  0  0  0  0
  178.5360  177.2080  142.7110 O   0  0  0  0  0  1  0  0  0  0  0  0
  187.8620  175.9300  142.8770 C   0  0  1  0  0  3  0  0  0  0  0  0
  188.5050  176.8980  141.8950 C   0  0  0  0  0  1  0  0  0  0  0  0
  188.7090  174.7580  143.0380 N   0  0  0  0  0  2  0  0  0  0  0  0
  189.0580  173.7850  140.8330 C   0  0  0  0  0  1  0  0  0  0  0  0
  189.6240  174.7020  141.9070 C   0  0  2  0  0  3  0  0  0  0  0  0
  191.3290  173.0560  144.2860 N   0  0  0  0  0  2  0  0  0  0  0  0
  191.8730  172.0140  142.3090 C   0  0  0  0  0  1  0  0  0  0  0  0
  190.8950  172.8670  142.9610 N   0  0  0  0  0  0  0  0  0  0  0  0
  191.8800  176.5400  143.2230 C   0  0  0  0  0  1  0  0  0  0  0  0
  190.9990  174.2040  142.3510 C   0  0  2  0  0  3  0  0  0  0  0  0
  191.7130  174.3940  144.5190 C   0  0  0  0  0  0  0  0  0  0  0  0
  191.5580  175.0960  143.4150 C   0  0  0  0  0  0  0  0  0  0  0  0
  191.3460  175.0470  146.7640 O   0  0  0  0  0  0  0  0  0  0  0  0
  193.5520  175.1490  146.0730 N   0  0  0  0  0  1  0  0  0  0  0  0
  192.1790  174.8690  145.8350 C   0  0  0  0  0  0  0  0  0  0  0  0
  1 10  2  0  0  0  0
  1  8  1  0  0  0  0
  2  7  1  0  0  0  0
  2 11  2  0  0  0  0
  4 11  1  0  0  0  0
  5  9  2  0  0  0  0
  5 12  1  0  0  0  0
  7  3  1  1  0  0  0
  8  4  2  0  0  0  0
  9 10  1  0  0  0  0
 10  2  1  0  0  0  0
 11  6  1  0  0  0  0
 12 13  2  0  0  0  0
 13  7  1  0  0  0  0
 14 15  2  0  0  0  0
 15  5  1  0  0  0  0
 16 17  2  0  0  0  0
 17 14  1  0  0  0  0
 18 19  1  0  0  0  0
 19 22  1  0  0  0  0
 20 17  1  0  0  0  0
 20 19  1  0  0  0  0
 21 20  2  0  0  0  0
 22 23  1  0  0  0  0
 24 25  1  6  0  0  0
 24 26  1  0  0  0  0
 24  1  1  0  0  0  0
 28 27  1  6  0  0  0
 28 26  1  0  0  0  0
 29 34  1  0  0  0  0
 30 31  1  0  0  0  0
 31 29  1  0  0  0  0
 32 35  1  0  0  0  0
 33 28  1  1  0  0  0
 33 31  1  0  0  0  0
 33 35  1  0  0  0  0
 34 38  1  0  0  0  0
 35 34  2  0  0  0  0
 38 37  1  0  0  0  0
 38 36  2  0  0  0  0
M  END
>  <MODEL>
1

>  <REMARK>
 VINA RESULT:      -8.0      0.000      0.000
  Name = 
  9 active torsions:
  status: ('A' for Active; 'I' for Inactive)
    1  A    between atoms: C_2  and  C_26
    2  A    between atoms: C_3  and  C_4
    3  A    between atoms: C_3  and  N_34
    4  A    between atoms: C_7  and  N_11
    5  A    between atoms: C_19  and  C_20
    6  A    between atoms: C_21  and  C_26
    7  A    between atoms: C_23  and  C_37
    8  A    between atoms: N_34  and  C_37
    9  A    between atoms: C_35  and  C_36
                            x       y       z     vdW  Elec       q    Type
                         _______ _______ _______ _____ _____    ______ ____

>  <TORSDO>
F 9

$$$$
=
 OpenBabel11042417113D

 38 40  0  0  1  0  0  0  0  0999 V2000
  187.8760  177.1280  146.4370 C   0  0  0  0  0  0  0  0  0  0  0  0
  186.2160  177.6210  144.7080 C   0  0  0  0  0  0  0  0  0  0  0  0
  184.3540  177.6370  143.1240 O   0  0  0  0  0  1  0  0  0  0  0  0
  186.0020  178.5740  146.9400 C   0  0  0  0  0  3  0  0  0  0  0  0
  188.4800  176.5110  142.8210 C   0  0  0  0  0  0  0  0  0  0  0  0
  184.3100  179.2360  145.2890 C   0  0  0  0  0  1  0  0  0  0  0  0
  185.7010  177.3280  143.3170 C   0  0  1  0  0  3  0  0  0  0  0  0
  187.1500  177.9030  147.3460 C   0  0  0  0  0  3  0  0  0  0  0  0
  188.3160  176.2860  144.1390 C   0  0  0  0  0  3  0  0  0  0  0  0
  187.4410  177.0190  145.0950 C   0  0  0  0  0  0  0  0  0  0  0  0
  185.5300  178.4510  145.6340 C   0  0  0  0  0  0  0  0  0  0  0  0
  187.7960  177.5820  142.0700 C   0  0  0  0  0  3  0  0  0  0  0  0
  186.5480  177.9850  142.2920 C   0  0  0  0  0  3  0  0  0  0  0  0
  189.5160  174.4010  142.0440 C   0  0  0  0  0  3  0  0  0  0  0  0
  189.4700  175.7360  142.0590 C   0  0  0  0  0  3  0  0  0  0  0  0
  191.6910  174.0840  141.2420 O   0  0  0  0  0  0  0  0  0  0  0  0
  190.5110  173.6410  141.2680 C   0  0  0  0  0  0  0  0  0  0  0  0
  189.6490  171.0890  138.4770 C   0  0  0  0  0  1  0  0  0  0  0  0
  189.8000  172.3730  139.1540 N   0  0  0  0  0  0  0  0  0  0  0  0
  190.1790  172.3850  140.5430 C   0  0  0  0  0  0  0  0  0  0  0  0
  190.2500  171.2880  141.1640 O   0  0  0  0  0  0  0  0  0  0  0  0
  189.4700  173.6110  138.4460 C   0  0  0  0  0  2  0  0  0  0  0  0
  188.1320  173.9640  138.6260 O   0  0  0  0  0  1  0  0  0  0  0  0
  189.1000  176.3890  146.9140 C   0  0  1  0  0  3  0  0  0  0  0  0
  188.8550  174.8910  147.0050 C   0  0  0  0  0  1  0  0  0  0  0  0
  190.2170  176.6520  146.0190 N   0  0  0  0  0  2  0  0  0  0  0  0
  192.4220  176.3280  147.0000 C   0  0  0  0  0  1  0  0  0  0  0  0
  191.2530  175.6650  146.2890 C   0  0  2  0  0  3  0  0  0  0  0  0
  193.8320  174.1960  144.7180 N   0  0  0  0  0  2  0  0  0  0  0  0
  192.0710  172.7320  144.5070 C   0  0  0  0  0  1  0  0  0  0  0  0
  192.5870  173.8520  145.2750 N   0  0  0  0  0  0  0  0  0  0  0  0
  192.1000  177.2710  143.6610 C   0  0  0  0  0  1  0  0  0  0  0  0
  191.7280  175.0150  144.9900 C   0  0  2  0  0  3  0  0  0  0  0  0
  193.7890  175.4620  144.0960 C   0  0  0  0  0  0  0  0  0  0  0  0
  192.5780  175.9690  144.2090 C   0  0  0  0  0  0  0  0  0  0  0  0
  195.8080  176.6950  144.1690 O   0  0  0  0  0  0  0  0  0  0  0  0
  195.1730  175.9990  142.0550 N   0  0  0  0  0  1  0  0  0  0  0  0
  194.9700  176.0760  143.4600 C   0  0  0  0  0  0  0  0  0  0  0  0
  1 24  1  0  0  0  0
  1  8  1  0  0  0  0
  2 10  1  0  0  0  0
  2 11  2  0  0  0  0
  4  8  2  0  0  0  0
  5  9  2  0  0  0  0
  6 11  1  0  0  0  0
  7  3  1  1  0  0  0
  7  2  1  0  0  0  0
  9 10  1  0  0  0  0
 10  1  2  0  0  0  0
 11  4  1  0  0  0  0
 12 13  2  0  0  0  0
 12  5  1  0  0  0  0
 13  7  1  0  0  0  0
 14 15  2  0  0  0  0
 15  5  1  0  0  0  0
 16 17  2  0  0  0  0
 17 14  1  0  0  0  0
 18 19  1  0  0  0  0
 19 20  1  0  0  0  0
 20 21  2  0  0  0  0
 20 17  1  0  0  0  0
 22 23  1  0  0  0  0
 22 19  1  0  0  0  0
 24 25  1  6  0  0  0
 26 28  1  0  0  0  0
 26 24  1  0  0  0  0
 28 27  1  6  0  0  0
 29 31  1  0  0  0  0
 30 31  1  0  0  0  0
 32 35  1  0  0  0  0
 33 31  1  0  0  0  0
 33 28  1  1  0  0  0
 34 35  2  0  0  0  0
 34 29  1  0  0  0  0
 35 33  1  0  0  0  0
 37 38  1  0  0  0  0
 38 34  1  0  0  0  0
 38 36  2  0  0  0  0
M  END
>  <MODEL>
2

>  <REMARK>
 VINA RESULT:      -7.3      3.782      6.673
  Name = 
  9 active torsions:
  status: ('A' for Active; 'I' for Inactive)
    1  A    between atoms: C_2  and  C_26
    2  A    between atoms: C_3  and  C_4
    3  A    between atoms: C_3  and  N_34
    4  A    between atoms: C_7  and  N_11
    5  A    between atoms: C_19  and  C_20
    6  A    between atoms: C_21  and  C_26
    7  A    between atoms: C_23  and  C_37
    8  A    between atoms: N_34  and  C_37
    9  A    between atoms: C_35  and  C_36
                            x       y       z     vdW  Elec       q    Type
                         _______ _______ _______ _____ _____    ______ ____

>  <TORSDO>
F 9

$$$$
=
 OpenBabel11042417113D

 38 40  0  0  1  0  0  0  0  0999 V2000
  190.5440  172.3910  142.6190 C   0  0  0  0  0  0  0  0  0  0  0  0
  190.2030  172.4390  140.1960 C   0  0  0  0  0  0  0  0  0  0  0  0
  190.3430  172.7280  137.7720 O   0  0  0  0  0  1  0  0  0  0  0  0
  191.0270  170.4250  141.2910 C   0  0  0  0  0  3  0  0  0  0  0  0
  188.5110  174.9960  140.9160 C   0  0  0  0  0  0  0  0  0  0  0  0
  190.6480  170.2890  138.8690 C   0  0  0  0  0  1  0  0  0  0  0  0
  189.8770  173.2650  138.9720 C   0  0  1  0  0  3  0  0  0  0  0  0
  191.0100  171.0770  142.5200 C   0  0  0  0  0  3  0  0  0  0  0  0
  189.4890  174.4190  141.6400 C   0  0  0  0  0  3  0  0  0  0  0  0
  190.0910  173.0680  141.4620 C   0  0  0  0  0  0  0  0  0  0  0  0
  190.6240  171.0840  140.1320 C   0  0  0  0  0  0  0  0  0  0  0  0
  187.8310  174.3500  139.7760 C   0  0  0  0  0  3  0  0  0  0  0  0
  188.4220  173.5450  138.8970 C   0  0  0  0  0  3  0  0  0  0  0  0
  187.0120  176.4770  142.2140 C   0  0  0  0  0  3  0  0  0  0  0  0
  187.9800  176.3090  141.3090 C   0  0  0  0  0  3  0  0  0  0  0  0
  187.1300  178.8130  142.1960 O   0  0  0  0  0  0  0  0  0  0  0  0
  186.4970  177.8020  142.6020 C   0  0  0  0  0  0  0  0  0  0  0  0
  184.0840  178.5690  145.5400 C   0  0  0  0  0  1  0  0  0  0  0  0
  185.3220  178.2460  144.8390 N   0  0  0  0  0  0  0  0  0  0  0  0
  185.2710  177.9800  143.4250 C   0  0  0  0  0  0  0  0  0  0  0  0
  184.1440  177.9140  142.8590 O   0  0  0  0  0  0  0  0  0  0  0  0
  186.5680  178.1000  145.5940 C   0  0  0  0  0  2  0  0  0  0  0  0
  186.3250  177.7410  146.9210 O   0  0  0  0  0  1  0  0  0  0  0  0
  190.5650  173.0790  143.9580 C   0  0  1  0  0  3  0  0  0  0  0  0
  189.7550  172.3190  144.9960 C   0  0  0  0  0  1  0  0  0  0  0  0
  191.9390  173.2280  144.4180 N   0  0  0  0  0  2  0  0  0  0  0  0
  193.8500  174.0330  143.1420 C   0  0  0  0  0  1  0  0  0  0  0  0
  192.5100  174.3960  143.7630 C   0  0  2  0  0  3  0  0  0  0  0  0
  192.1170  175.3580  146.9560 N   0  0  0  0  0  2  0  0  0  0  0  0
  194.3150  175.8040  146.4470 C   0  0  0  0  0  1  0  0  0  0  0  0
  193.1510  175.0250  146.0620 N   0  0  0  0  0  0  0  0  0  0  0  0
  190.5580  176.9130  144.0020 C   0  0  0  0  0  1  0  0  0  0  0  0
  192.6860  175.5390  144.7620 C   0  0  2  0  0  3  0  0  0  0  0  0
  191.0760  176.0560  146.3070 C   0  0  0  0  0  0  0  0  0  0  0  0
  191.3730  176.2040  145.0320 C   0  0  0  0  0  0  0  0  0  0  0  0
  188.8930  175.6940  147.1460 O   0  0  0  0  0  0  0  0  0  0  0  0
  189.7350  177.8180  147.5170 N   0  0  0  0  0  1  0  0  0  0  0  0
  189.8560  176.4960  147.0080 C   0  0  0  0  0  0  0  0  0  0  0  0
  1 24  1  0  0  0  0
  2 10  1  0  0  0  0
  4  8  2  0  0  0  0
  5 15  1  0  0  0  0
  5  9  2  0  0  0  0
  6 11  1  0  0  0  0
  7  3  1  6  0  0  0
  7  2  1  0  0  0  0
  8  1  1  0  0  0  0
 10  9  1  0  0  0  0
 10  1  2  0  0  0  0
 11  2  2  0  0  0  0
 11  4  1  0  0  0  0
 12  5  1  0  0  0  0
 13  7  1  0  0  0  0
 13 12  2  0  0  0  0
 14 17  1  0  0  0  0
 15 14  2  0  0  0  0
 16 17  2  0  0  0  0
 17 20  1  0  0  0  0
 19 18  1  0  0  0  0
 19 22  1  0  0  0  0
 20 19  1  0  0  0  0
 21 20  2  0  0  0  0
 22 23  1  0  0  0  0
 24 26  1  0  0  0  0
 24 25  1  1  0  0  0
 28 27  1  1  0  0  0
 28 26  1  0  0  0  0
 31 30  1  0  0  0  0
 31 29  1  0  0  0  0
 32 35  1  0  0  0  0
 33 28  1  6  0  0  0
 33 35  1  0  0  0  0
 33 31  1  0  0  0  0
 34 29  1  0  0  0  0
 34 38  1  0  0  0  0
 35 34  2  0  0  0  0
 38 36  2  0  0  0  0
 38 37  1  0  0  0  0
M  END
>  <MODEL>
3

>  <REMARK>
 VINA RESULT:      -7.3      3.190      6.669
  Name = 
  9 active torsions:
  status: ('A' for Active; 'I' for Inactive)
    1  A    between atoms: C_2  and  C_26
    2  A    between atoms: C_3  and  C_4
    3  A    between atoms: C_3  and  N_34
    4  A    between atoms: C_7  and  N_11
    5  A    between atoms: C_19  and  C_20
    6  A    between atoms: C_21  and  C_26
    7  A    between atoms: C_23  and  C_37
    8  A    between atoms: N_34  and  C_37
    9  A    between atoms: C_35  and  C_36
                            x       y       z     vdW  Elec       q    Type
                         _______ _______ _______ _____ _____    ______ ____

>  <TORSDO>
F 9

$$$$
=
 OpenBabel11042417113D

 38 40  0  0  1  0  0  0  0  0999 V2000
  188.2420  176.6500  146.2340 C   0  0  0  0  0  0  0  0  0  0  0  0
  186.5980  177.2360  144.5180 C   0  0  0  0  0  0  0  0  0  0  0  0
  184.6930  177.3930  142.9940 O   0  0  0  0  0  1  0  0  0  0  0  0
  186.6150  178.3900  146.6640 C   0  0  0  0  0  3  0  0  0  0  0  0
  188.6000  175.6580  142.6690 C   0  0  0  0  0  0  0  0  0  0  0  0
  184.9670  179.1530  145.0120 C   0  0  0  0  0  1  0  0  0  0  0  0
  185.9880  176.9080  143.1740 C   0  0  1  0  0  3  0  0  0  0  0  0
  187.6720  177.5940  147.0930 C   0  0  0  0  0  3  0  0  0  0  0  0
  188.4610  175.5680  144.0060 C   0  0  0  0  0  3  0  0  0  0  0  0
  187.7400  176.4960  144.9200 C   0  0  0  0  0  0  0  0  0  0  0  0
  186.0760  178.2300  145.3890 C   0  0  0  0  0  0  0  0  0  0  0  0
  188.0450  176.7520  141.8490 C   0  0  0  0  0  3  0  0  0  0  0  0
  186.8770  177.3490  142.0700 C   0  0  0  0  0  3  0  0  0  0  0  0
  189.7820  173.4960  142.4410 C   0  0  0  0  0  3  0  0  0  0  0  0
  189.4380  174.6880  141.9480 C   0  0  0  0  0  3  0  0  0  0  0  0
  190.9190  172.8190  140.5110 O   0  0  0  0  0  0  0  0  0  0  0  0
  190.6160  172.5320  141.7000 C   0  0  0  0  0  0  0  0  0  0  0  0
  192.5710  169.9830  143.8740 C   0  0  0  0  0  1  0  0  0  0  0  0
  192.2450  171.2340  143.1980 N   0  0  0  0  0  0  0  0  0  0  0  0
  191.1170  171.2680  142.3050 C   0  0  0  0  0  0  0  0  0  0  0  0
  190.5180  170.1890  142.0390 O   0  0  0  0  0  0  0  0  0  0  0  0
  193.1210  172.3970  143.3600 C   0  0  0  0  0  2  0  0  0  0  0  0
  192.8250  173.1040  144.5260 O   0  0  0  0  0  1  0  0  0  0  0  0
  189.3660  175.7830  146.7370 C   0  0  1  0  0  3  0  0  0  0  0  0
  188.8610  174.4440  147.2500 C   0  0  0  0  0  1  0  0  0  0  0  0
  190.3390  175.5680  145.6750 N   0  0  0  0  0  2  0  0  0  0  0  0
  191.4880  176.6800  147.5120 C   0  0  0  0  0  1  0  0  0  0  0  0
  191.6440  175.9860  146.1680 C   0  0  2  0  0  3  0  0  0  0  0  0
  193.0360  176.2320  143.1220 N   0  0  0  0  0  2  0  0  0  0  0  0
  191.4430  177.8890  143.2040 C   0  0  0  0  0  1  0  0  0  0  0  0
  191.8680  176.6320  143.7960 N   0  0  0  0  0  0  0  0  0  0  0  0
  194.6930  176.9230  146.3390 C   0  0  0  0  0  1  0  0  0  0  0  0
  192.3220  176.9220  145.1680 C   0  0  2  0  0  3  0  0  0  0  0  0
  194.1650  176.2820  143.9670 C   0  0  0  0  0  0  0  0  0  0  0  0
  193.8020  176.6990  145.1630 C   0  0  0  0  0  0  0  0  0  0  0  0
  196.2230  176.7040  142.8770 O   0  0  0  0  0  0  0  0  0  0  0  0
  196.0210  174.5830  143.7820 N   0  0  0  0  0  1  0  0  0  0  0  0
  195.5120  175.8840  143.5190 C   0  0  0  0  0  0  0  0  0  0  0  0
  1 24  1  0  0  0  0
  1  8  1  0  0  0  0
  2 10  1  0  0  0  0
  2 11  2  0  0  0  0
  4  8  2  0  0  0  0
  5  9  2  0  0  0  0
  6 11  1  0  0  0  0
  7  3  1  6  0  0  0
  7  2  1  0  0  0  0
  9 10  1  0  0  0  0
 10  1  2  0  0  0  0
 11  4  1  0  0  0  0
 12 13  2  0  0  0  0
 12  5  1  0  0  0  0
 13  7  1  0  0  0  0
 15 14  2  0  0  0  0
 15  5  1  0  0  0  0
 16 17  2  0  0  0  0
 17 20  1  0  0  0  0
 17 14  1  0  0  0  0
 19 22  1  0  0  0  0
 19 18  1  0  0  0  0
 20 19  1  0  0  0  0
 21 20  2  0  0  0  0
 22 23  1  0  0  0  0
 24 25  1  6  0  0  0
 26 28  1  0  0  0  0
 26 24  1  0  0  0  0
 28 27  1  1  0  0  0
 29 31  1  0  0  0  0
 29 34  1  0  0  0  0
 30 31  1  0  0  0  0
 31 33  1  0  0  0  0
 33 28  1  1  0  0  0
 34 35  2  0  0  0  0
 35 33  1  0  0  0  0
 35 32  1  0  0  0  0
 36 38  2  0  0  0  0
 38 37  1  0  0  0  0
 38 34  1  0  0  0  0
M  END
>  <MODEL>
4

>  <REMARK>
 VINA RESULT:      -7.3      3.883      7.737
  Name = 
  9 active torsions:
  status: ('A' for Active; 'I' for Inactive)
    1  A    between atoms: C_2  and  C_26
    2  A    between atoms: C_3  and  C_4
    3  A    between atoms: C_3  and  N_34
    4  A    between atoms: C_7  and  N_11
    5  A    between atoms: C_19  and  C_20
    6  A    between atoms: C_21  and  C_26
    7  A    between atoms: C_23  and  C_37
    8  A    between atoms: N_34  and  C_37
    9  A    between atoms: C_35  and  C_36
                            x       y       z     vdW  Elec       q    Type
                         _______ _______ _______ _____ _____    ______ ____

>  <TORSDO>
F 9

$$$$
=
 OpenBabel11042417113D

 38 40  0  0  1  0  0  0  0  0999 V2000
  190.1300  176.4000  145.4080 C   0  0  0  0  0  0  0  0  0  0  0  0
  187.7070  176.7420  145.4540 C   0  0  0  0  0  0  0  0  0  0  0  0
  185.2800  176.5890  145.7090 O   0  0  0  0  0  1  0  0  0  0  0  0
  189.1210  177.6570  147.2140 C   0  0  0  0  0  3  0  0  0  0  0  0
  187.9580  175.8660  142.4390 C   0  0  0  0  0  0  0  0  0  0  0  0
  186.7220  178.1630  147.3480 C   0  0  0  0  0  1  0  0  0  0  0  0
  186.3630  176.4090  144.8470 C   0  0  1  0  0  3  0  0  0  0  0  0
  190.2440  177.0960  146.6150 C   0  0  0  0  0  3  0  0  0  0  0  0
  188.8160  175.6180  143.4480 C   0  0  0  0  0  3  0  0  0  0  0  0
  188.8650  176.2580  144.7910 C   0  0  0  0  0  0  0  0  0  0  0  0
  187.8580  177.4960  146.6480 C   0  0  0  0  0  0  0  0  0  0  0  0
  186.8790  176.8710  142.4950 C   0  0  0  0  0  3  0  0  0  0  0  0
  186.1590  177.1510  143.5780 C   0  0  0  0  0  3  0  0  0  0  0  0
  189.0250  174.2270  140.9220 C   0  0  0  0  0  3  0  0  0  0  0  0
  188.1320  175.1950  141.1420 C   0  0  0  0  0  3  0  0  0  0  0  0
  188.1350  173.3500  138.9440 O   0  0  0  0  0  0  0  0  0  0  0  0
  189.1800  173.5600  139.6170 C   0  0  0  0  0  0  0  0  0  0  0  0
  192.2570  171.4560  138.5460 C   0  0  0  0  0  1  0  0  0  0  0  0
  191.0310  171.8230  139.2470 N   0  0  0  0  0  0  0  0  0  0  0  0
  190.5030  173.1510  139.0730 C   0  0  0  0  0  0  0  0  0  0  0  0
  191.1780  173.9930  138.4190 O   0  0  0  0  0  0  0  0  0  0  0  0
  190.4200  170.8790  140.1850 C   0  0  0  0  0  2  0  0  0  0  0  0
  190.9780  170.9880  141.4600 O   0  0  0  0  0  1  0  0  0  0  0  0
  191.3600  175.7800  144.7990 C   0  0  1  0  0  3  0  0  0  0  0  0
  192.5890  176.6530  144.9960 C   0  0  0  0  0  1  0  0  0  0  0  0
  191.5920  174.4660  145.3800 N   0  0  0  0  0  2  0  0  0  0  0  0
  190.4870  172.4230  144.6460 C   0  0  0  0  0  1  0  0  0  0  0  0
  191.5270  173.4810  144.3090 C   0  0  2  0  0  3  0  0  0  0  0  0
  194.8200  173.7020  144.9240 N   0  0  0  0  0  2  0  0  0  0  0  0
  194.2060  171.5980  145.6220 C   0  0  0  0  0  1  0  0  0  0  0  0
  193.7120  172.9300  145.3160 N   0  0  0  0  0  0  0  0  0  0  0  0
  193.2200  173.6530  141.6060 C   0  0  0  0  0  1  0  0  0  0  0  0
  192.8910  172.8270  144.0970 C   0  0  2  0  0  3  0  0  0  0  0  0
  194.7500  174.0520  143.5580 C   0  0  0  0  0  0  0  0  0  0  0  0
  193.6550  173.5470  143.0290 C   0  0  0  0  0  0  0  0  0  0  0  0
  196.6520  174.3410  142.1800 O   0  0  0  0  0  0  0  0  0  0  0  0
  195.7930  176.2970  143.0700 N   0  0  0  0  0  1  0  0  0  0  0  0
  195.7720  174.8860  142.8980 C   0  0  0  0  0  0  0  0  0  0  0  0
  1  8  1  0  0  0  0
  2 11  2  0  0  0  0
  5 12  1  0  0  0  0
  5  9  2  0  0  0  0
  7  2  1  0  0  0  0
  7  3  1  1  0  0  0
  8  4  2  0  0  0  0
  9 10  1  0  0  0  0
 10  1  2  0  0  0  0
 10  2  1  0  0  0  0
 11  4  1  0  0  0  0
 11  6  1  0  0  0  0
 12 13  2  0  0  0  0
 13  7  1  0  0  0  0
 14 15  2  0  0  0  0
 15  5  1  0  0  0  0
 16 17  2  0  0  0  0
 17 14  1  0  0  0  0
 18 19  1  0  0  0  0
 19 22  1  0  0  0  0
 20 19  1  0  0  0  0
 20 17  1  0  0  0  0
 21 20  2  0  0  0  0
 22 23  1  0  0  0  0
 24 25  1  1  0  0  0
 24 26  1  0  0  0  0
 24  1  1  0  0  0  0
 28 27  1  1  0  0  0
 28 26  1  0  0  0  0
 29 31  1  0  0  0  0
 31 30  1  0  0  0  0
 32 35  1  0  0  0  0
 33 28  1  1  0  0  0
 33 31  1  0  0  0  0
 34 29  1  0  0  0  0
 35 34  2  0  0  0  0
 35 33  1  0  0  0  0
 36 38  2  0  0  0  0
 38 37  1  0  0  0  0
 38 34  1  0  0  0  0
M  END
>  <MODEL>
5

>  <REMARK>
 VINA RESULT:      -7.2      4.477      6.817
  Name = 
  9 active torsions:
  status: ('A' for Active; 'I' for Inactive)
    1  A    between atoms: C_2  and  C_26
    2  A    between atoms: C_3  and  C_4
    3  A    between atoms: C_3  and  N_34
    4  A    between atoms: C_7  and  N_11
    5  A    between atoms: C_19  and  C_20
    6  A    between atoms: C_21  and  C_26
    7  A    between atoms: C_23  and  C_37
    8  A    between atoms: N_34  and  C_37
    9  A    between atoms: C_35  and  C_36
                            x       y       z     vdW  Elec       q    Type
                         _______ _______ _______ _____ _____    ______ ____

>  <TORSDO>
F 9

$$$$
=
 OpenBabel11042417113D

 38 40  0  0  1  0  0  0  0  0999 V2000
  187.4610  177.4410  142.7010 C   0  0  0  0  0  0  0  0  0  0  0  0
  186.0720  178.2030  144.5660 C   0  0  0  0  0  0  0  0  0  0  0  0
  184.9730  179.4160  146.3830 O   0  0  0  0  0  1  0  0  0  0  0  0
  185.2360  178.2960  142.2800 C   0  0  0  0  0  3  0  0  0  0  0  0
  188.1870  176.5800  146.2430 C   0  0  0  0  0  0  0  0  0  0  0  0
  183.6920  179.0090  144.0500 C   0  0  0  0  0  1  0  0  0  0  0  0
  185.9830  178.5150  146.0430 C   0  0  1  0  0  3  0  0  0  0  0  0
  186.4450  177.7950  141.8080 C   0  0  0  0  0  3  0  0  0  0  0  0
  188.3270  177.0910  145.0050 C   0  0  0  0  0  3  0  0  0  0  0  0
  187.2650  177.5980  144.0930 C   0  0  0  0  0  0  0  0  0  0  0  0
  185.0330  178.4980  143.6430 C   0  0  0  0  0  0  0  0  0  0  0  0
  186.8920  176.4190  146.9330 C   0  0  0  0  0  3  0  0  0  0  0  0
  185.8710  177.2680  146.8390 C   0  0  0  0  0  3  0  0  0  0  0  0
  190.5620  175.9040  146.4010 C   0  0  0  0  0  3  0  0  0  0  0  0
  189.3540  176.0380  146.9540 C   0  0  0  0  0  3  0  0  0  0  0  0
  191.6370  175.2900  148.3870 O   0  0  0  0  0  0  0  0  0  0  0  0
  191.7230  175.3650  147.1320 C   0  0  0  0  0  0  0  0  0  0  0  0
  195.3520  175.1480  145.7800 C   0  0  0  0  0  1  0  0  0  0  0  0
  194.1280  175.7330  146.3180 N   0  0  0  0  0  0  0  0  0  0  0  0
  192.9600  174.9010  146.4490 C   0  0  0  0  0  0  0  0  0  0  0  0
  192.9940  173.7280  145.9830 O   0  0  0  0  0  0  0  0  0  0  0  0
  194.0780  177.1650  146.6190 C   0  0  0  0  0  2  0  0  0  0  0  0
  194.9030  177.8980  145.7630 O   0  0  0  0  0  1  0  0  0  0  0  0
  188.7690  176.9280  142.1580 C   0  0  1  0  0  3  0  0  0  0  0  0
  189.9020  177.9160  142.3880 C   0  0  0  0  0  1  0  0  0  0  0  0
  189.0960  175.6520  142.7780 N   0  0  0  0  0  2  0  0  0  0  0  0
  187.4610  174.0290  141.9890 C   0  0  0  0  0  1  0  0  0  0  0  0
  188.8580  174.6010  141.7990 C   0  0  2  0  0  3  0  0  0  0  0  0
  191.9800  173.8550  142.7830 N   0  0  0  0  0  2  0  0  0  0  0  0
  190.6190  172.3530  143.8710 C   0  0  0  0  0  1  0  0  0  0  0  0
  190.6520  173.6380  143.1940 N   0  0  0  0  0  0  0  0  0  0  0  0
  190.6110  173.4560  139.3870 C   0  0  0  0  0  1  0  0  0  0  0  0
  189.9020  173.4930  141.9340 C   0  0  2  0  0  3  0  0  0  0  0  0
  192.0990  173.8260  141.3770 C   0  0  0  0  0  0  0  0  0  0  0  0
  190.9180  173.5970  140.8400 C   0  0  0  0  0  0  0  0  0  0  0  0
  193.7920  175.2340  140.5110 O   0  0  0  0  0  0  0  0  0  0  0  0
  194.1510  172.9710  140.1840 N   0  0  0  0  0  1  0  0  0  0  0  0
  193.3790  174.0560  140.6820 C   0  0  0  0  0  0  0  0  0  0  0  0
  1 10  1  0  0  0  0
  2  7  1  0  0  0  0
  4 11  2  0  0  0  0
  5 12  1  0  0  0  0
  5 15  1  0  0  0  0
  7  3  1  6  0  0  0
  7 13  1  0  0  0  0
  8  4  1  0  0  0  0
  8  1  2  0  0  0  0
  9  5  2  0  0  0  0
 10  2  2  0  0  0  0
 10  9  1  0  0  0  0
 11  6  1  0  0  0  0
 11  2  1  0  0  0  0
 13 12  2  0  0  0  0
 14 15  2  0  0  0  0
 14 17  1  0  0  0  0
 17 16  2  0  0  0  0
 18 19  1  0  0  0  0
 19 20  1  0  0  0  0
 19 22  1  0  0  0  0
 20 17  1  0  0  0  0
 21 20  2  0  0  0  0
 23 22  1  0  0  0  0
 24 25  1  1  0  0  0
 24  1  1  0  0  0  0
 24 26  1  0  0  0  0
 28 27  1  1  0  0  0
 28 26  1  0  0  0  0
 29 31  1  0  0  0  0
 31 30  1  0  0  0  0
 32 35  1  0  0  0  0
 33 28  1  6  0  0  0
 33 31  1  0  0  0  0
 34 29  1  0  0  0  0
 35 34  2  0  0  0  0
 35 33  1  0  0  0  0
 36 38  2  0  0  0  0
 37 38  1  0  0  0  0
 38 34  1  0  0  0  0
M  END
>  <MODEL>
6

>  <REMARK>
 VINA RESULT:      -7.2      3.548      8.041
  Name = 
  9 active torsions:
  status: ('A' for Active; 'I' for Inactive)
    1  A    between atoms: C_2  and  C_26
    2  A    between atoms: C_3  and  C_4
    3  A    between atoms: C_3  and  N_34
    4  A    between atoms: C_7  and  N_11
    5  A    between atoms: C_19  and  C_20
    6  A    between atoms: C_21  and  C_26
    7  A    between atoms: C_23  and  C_37
    8  A    between atoms: N_34  and  C_37
    9  A    between atoms: C_35  and  C_36
                            x       y       z     vdW  Elec       q    Type
                         _______ _______ _______ _____ _____    ______ ____

>  <TORSDO>
F 9

$$$$
=
 OpenBabel11042417113D

 38 40  0  0  1  0  0  0  0  0999 V2000
  187.3230  177.8850  143.1220 C   0  0  0  0  0  0  0  0  0  0  0  0
  186.1070  178.3820  145.1860 C   0  0  0  0  0  0  0  0  0  0  0  0
  185.1960  179.3240  147.2510 O   0  0  0  0  0  1  0  0  0  0  0  0
  185.1100  178.8600  143.0160 C   0  0  0  0  0  3  0  0  0  0  0  0
  188.2710  176.4530  146.4190 C   0  0  0  0  0  0  0  0  0  0  0  0
  183.7310  179.3280  144.9930 C   0  0  0  0  0  1  0  0  0  0  0  0
  186.1400  178.4590  146.6960 C   0  0  1  0  0  3  0  0  0  0  0  0
  186.2590  178.4050  142.3790 C   0  0  0  0  0  3  0  0  0  0  0  0
  188.3410  177.1490  145.2680 C   0  0  0  0  0  3  0  0  0  0  0  0
  187.2360  177.8250  144.5330 C   0  0  0  0  0  0  0  0  0  0  0  0
  185.0170  178.8490  144.4060 C   0  0  0  0  0  0  0  0  0  0  0  0
  187.0240  176.2230  147.1750 C   0  0  0  0  0  3  0  0  0  0  0  0
  186.0360  177.1060  147.2960 C   0  0  0  0  0  3  0  0  0  0  0  0
  190.6850  175.9110  146.4210 C   0  0  0  0  0  3  0  0  0  0  0  0
  189.4640  175.7720  146.9420 C   0  0  0  0  0  3  0  0  0  0  0  0
  191.8570  174.9170  148.1860 O   0  0  0  0  0  0  0  0  0  0  0  0
  191.8720  175.2260  146.9640 C   0  0  0  0  0  0  0  0  0  0  0  0
  195.3920  175.2400  145.3350 C   0  0  0  0  0  1  0  0  0  0  0  0
  194.2130  175.7280  146.0430 N   0  0  0  0  0  0  0  0  0  0  0  0
  193.0540  174.8790  146.1300 C   0  0  0  0  0  0  0  0  0  0  0  0
  193.0480  173.7910  145.4900 O   0  0  0  0  0  0  0  0  0  0  0  0
  194.1920  177.0980  146.5620 C   0  0  0  0  0  2  0  0  0  0  0  0
  194.9420  177.9610  145.7620 O   0  0  0  0  0  1  0  0  0  0  0  0
  188.5650  177.4260  142.4040 C   0  0  1  0  0  3  0  0  0  0  0  0
  189.8290  177.9150  143.0940 C   0  0  0  0  0  1  0  0  0  0  0  0
  188.5810  175.9720  142.3220 N   0  0  0  0  0  2  0  0  0  0  0  0
  187.4410  175.7020  140.1870 C   0  0  0  0  0  1  0  0  0  0  0  0
  188.7670  175.6020  140.9260 C   0  0  2  0  0  3  0  0  0  0  0  0
  188.5360  172.4500  142.0600 N   0  0  0  0  0  2  0  0  0  0  0  0
  188.3790  172.2910  139.7700 C   0  0  0  0  0  1  0  0  0  0  0  0
  188.2380  173.1910  140.9020 N   0  0  0  0  0  0  0  0  0  0  0  0
  191.5070  174.6210  142.2430 C   0  0  0  0  0  1  0  0  0  0  0  0
  189.3240  174.1830  140.8160 C   0  0  2  0  0  3  0  0  0  0  0  0
  189.7300  172.8950  142.6660 C   0  0  0  0  0  0  0  0  0  0  0  0
  190.2370  173.8890  141.9660 C   0  0  0  0  0  0  0  0  0  0  0  0
  191.2130  171.4900  143.8610 O   0  0  0  0  0  0  0  0  0  0  0  0
  189.6910  172.6350  145.1760 N   0  0  0  0  0  1  0  0  0  0  0  0
  190.2560  172.3080  143.9130 C   0  0  0  0  0  0  0  0  0  0  0  0
  1 10  1  0  0  0  0
  2  7  1  0  0  0  0
  4 11  2  0  0  0  0
  5 15  1  0  0  0  0
  5 12  1  0  0  0  0
  7  3  1  1  0  0  0
  7 13  1  0  0  0  0
  8  4  1  0  0  0  0
  8  1  2  0  0  0  0
  9  5  2  0  0  0  0
 10  2  2  0  0  0  0
 10  9  1  0  0  0  0
 11  6  1  0  0  0  0
 11  2  1  0  0  0  0
 12 13  2  0  0  0  0
 14 15  2  0  0  0  0
 14 17  1  0  0  0  0
 17 16  2  0  0  0  0
 18 19  1  0  0  0  0
 19 20  1  0  0  0  0
 19 22  1  0  0  0  0
 20 17  1  0  0  0  0
 21 20  2  0  0  0  0
 23 22  1  0  0  0  0
 24 25  1  1  0  0  0
 24  1  1  0  0  0  0
 26 24  1  0  0  0  0
 28 27  1  6  0  0  0
 28 26  1  0  0  0  0
 29 34  1  0  0  0  0
 30 31  1  0  0  0  0
 31 29  1  0  0  0  0
 33 31  1  0  0  0  0
 33 28  1  1  0  0  0
 33 35  1  0  0  0  0
 34 38  1  0  0  0  0
 35 32  1  0  0  0  0
 35 34  2  0  0  0  0
 36 38  2  0  0  0  0
 38 37  1  0  0  0  0
M  END
>  <MODEL>
7

>  <REMARK>
 VINA RESULT:      -7.1      3.727      7.977
  Name = 
  9 active torsions:
  status: ('A' for Active; 'I' for Inactive)
    1  A    between atoms: C_2  and  C_26
    2  A    between atoms: C_3  and  C_4
    3  A    between atoms: C_3  and  N_34
    4  A    between atoms: C_7  and  N_11
    5  A    between atoms: C_19  and  C_20
    6  A    between atoms: C_21  and  C_26
    7  A    between atoms: C_23  and  C_37
    8  A    between atoms: N_34  and  C_37
    9  A    between atoms: C_35  and  C_36
                            x       y       z     vdW  Elec       q    Type
                         _______ _______ _______ _____ _____    ______ ____

>  <TORSDO>
F 9

$$$$
=
 OpenBabel11042417113D

 38 40  0  0  1  0  0  0  0  0999 V2000
  192.1100  172.4170  141.9400 C   0  0  0  0  0  0  0  0  0  0  0  0
  190.1830  172.3730  140.4330 C   0  0  0  0  0  0  0  0  0  0  0  0
  188.5380  172.6960  138.6520 O   0  0  0  0  0  1  0  0  0  0  0  0
  191.9190  170.6720  140.2740 C   0  0  0  0  0  3  0  0  0  0  0  0
  188.9980  174.3440  142.5840 C   0  0  0  0  0  0  0  0  0  0  0  0
  190.0040  170.4400  138.7560 C   0  0  0  0  0  1  0  0  0  0  0  0
  188.9410  173.0760  139.9330 C   0  0  1  0  0  3  0  0  0  0  0  0
  192.6290  171.2890  141.2980 C   0  0  0  0  0  3  0  0  0  0  0  0
  190.2920  174.0660  142.3400 C   0  0  0  0  0  3  0  0  0  0  0  0
  190.8570  172.9420  141.5440 C   0  0  0  0  0  0  0  0  0  0  0  0
  190.7030  171.1930  139.8380 C   0  0  0  0  0  0  0  0  0  0  0  0
  187.8670  173.5350  142.0880 C   0  0  0  0  0  3  0  0  0  0  0  0
  187.8270  172.9320  140.9030 C   0  0  0  0  0  3  0  0  0  0  0  0
  189.0280  175.5300  144.7560 C   0  0  0  0  0  3  0  0  0  0  0  0
  188.6380  175.4520  143.4810 C   0  0  0  0  0  3  0  0  0  0  0  0
  189.5570  177.5050  145.8930 O   0  0  0  0  0  0  0  0  0  0  0  0
  188.6640  176.6530  145.6390 C   0  0  0  0  0  0  0  0  0  0  0  0
  184.9150  177.5410  146.0880 C   0  0  0  0  0  1  0  0  0  0  0  0
  186.2680  177.5620  145.5400 N   0  0  0  0  0  0  0  0  0  0  0  0
  187.3020  176.8190  146.2120 C   0  0  0  0  0  0  0  0  0  0  0  0
  187.0370  176.2730  147.3190 O   0  0  0  0  0  0  0  0  0  0  0  0
  186.5700  178.4100  144.3850 C   0  0  0  0  0  2  0  0  0  0  0  0
  185.8480  179.6040  144.4220 O   0  0  0  0  0  1  0  0  0  0  0  0
  192.9160  173.0800  143.0260 C   0  0  1  0  0  3  0  0  0  0  0  0
  193.2170  172.1240  144.1700 C   0  0  0  0  0  1  0  0  0  0  0  0
  194.1610  173.5960  142.4760 N   0  0  0  0  0  2  0  0  0  0  0  0
  194.4460  174.9600  140.4790 C   0  0  0  0  0  1  0  0  0  0  0  0
  193.8890  174.9030  141.8930 C   0  0  2  0  0  3  0  0  0  0  0  0
  195.4430  175.6220  144.7810 N   0  0  0  0  0  2  0  0  0  0  0  0
  196.7820  176.4990  143.1290 C   0  0  0  0  0  1  0  0  0  0  0  0
  195.7330  175.5330  143.4080 N   0  0  0  0  0  0  0  0  0  0  0  0
  192.2190  176.9920  143.6390 C   0  0  0  0  0  1  0  0  0  0  0  0
  194.5070  176.0100  142.7460 C   0  0  2  0  0  3  0  0  0  0  0  0
  194.1500  176.1410  145.0040 C   0  0  0  0  0  0  0  0  0  0  0  0
  193.5730  176.4020  143.8490 C   0  0  0  0  0  0  0  0  0  0  0  0
  194.0320  177.2120  147.1120 O   0  0  0  0  0  0  0  0  0  0  0  0
  192.5470  175.4590  146.8310 N   0  0  0  0  0  1  0  0  0  0  0  0
  193.5830  176.3090  146.3550 C   0  0  0  0  0  0  0  0  0  0  0  0
  1 24  1  0  0  0  0
  2 10  2  0  0  0  0
  4  8  1  0  0  0  0
  5 15  1  0  0  0  0
  6 11  1  0  0  0  0
  7  3  1  6  0  0  0
  7  2  1  0  0  0  0
  7 13  1  0  0  0  0
  8  1  2  0  0  0  0
  9  5  2  0  0  0  0
 10  1  1  0  0  0  0
 10  9  1  0  0  0  0
 11  4  2  0  0  0  0
 11  2  1  0  0  0  0
 12  5  1  0  0  0  0
 13 12  2  0  0  0  0
 14 17  1  0  0  0  0
 15 14  2  0  0  0  0
 17 16  2  0  0  0  0
 17 20  1  0  0  0  0
 19 18  1  0  0  0  0
 19 20  1  0  0  0  0
 20 21  2  0  0  0  0
 22 23  1  0  0  0  0
 22 19  1  0  0  0  0
 24 25  1  1  0  0  0
 26 24  1  0  0  0  0
 28 27  1  6  0  0  0
 28 26  1  0  0  0  0
 29 34  1  0  0  0  0
 30 31  1  0  0  0  0
 31 29  1  0  0  0  0
 32 35  1  0  0  0  0
 33 28  1  1  0  0  0
 33 31  1  0  0  0  0
 33 35  1  0  0  0  0
 34 38  1  0  0  0  0
 35 34  2  0  0  0  0
 38 37  1  0  0  0  0
 38 36  2  0  0  0  0
M  END
>  <MODEL>
8

>  <REMARK>
 VINA RESULT:      -7.1      4.058      7.355
  Name = 
  9 active torsions:
  status: ('A' for Active; 'I' for Inactive)
    1  A    between atoms: C_2  and  C_26
    2  A    between atoms: C_3  and  C_4
    3  A    between atoms: C_3  and  N_34
    4  A    between atoms: C_7  and  N_11
    5  A    between atoms: C_19  and  C_20
    6  A    between atoms: C_21  and  C_26
    7  A    between atoms: C_23  and  C_37
    8  A    between atoms: N_34  and  C_37
    9  A    between atoms: C_35  and  C_36
                            x       y       z     vdW  Elec       q    Type
                         _______ _______ _______ _____ _____    ______ ____

>  <TORSDO>
F 9

$$$$
=
 OpenBabel11042417113D

 38 40  0  0  1  0  0  0  0  0999 V2000
  189.0250  176.1830  145.4580 C   0  0  0  0  0  0  0  0  0  0  0  0
  186.8930  177.1660  144.7680 C   0  0  0  0  0  0  0  0  0  0  0  0
  184.5580  177.6820  144.2560 O   0  0  0  0  0  1  0  0  0  0  0  0
  187.8870  177.7450  146.9150 C   0  0  0  0  0  3  0  0  0  0  0  0
  187.8140  176.1190  141.9440 C   0  0  0  0  0  0  0  0  0  0  0  0
  185.7930  178.8830  146.3240 C   0  0  0  0  0  1  0  0  0  0  0  0
  185.7630  177.1790  143.7630 C   0  0  1  0  0  3  0  0  0  0  0  0
  188.9450  176.8770  146.6690 C   0  0  0  0  0  3  0  0  0  0  0  0
  188.2190  175.6960  143.1570 C   0  0  0  0  0  3  0  0  0  0  0  0
  188.0220  176.3590  144.4750 C   0  0  0  0  0  0  0  0  0  0  0  0
  186.8660  177.9050  145.9810 C   0  0  0  0  0  0  0  0  0  0  0  0
  187.0820  177.3790  141.7060 C   0  0  0  0  0  3  0  0  0  0  0  0
  186.1670  177.8910  142.5250 C   0  0  0  0  0  3  0  0  0  0  0  0
  188.7570  174.1600  140.7630 C   0  0  0  0  0  3  0  0  0  0  0  0
  188.1900  175.3680  140.7380 C   0  0  0  0  0  3  0  0  0  0  0  0
  188.1940  173.1290  138.7400 O   0  0  0  0  0  0  0  0  0  0  0  0
  189.1210  173.4180  139.5430 C   0  0  0  0  0  0  0  0  0  0  0  0
  192.4240  171.4090  139.2230 C   0  0  0  0  0  1  0  0  0  0  0  0
  191.1050  171.8000  139.7110 N   0  0  0  0  0  0  0  0  0  0  0  0
  190.5200  173.0240  139.2260 C   0  0  0  0  0  0  0  0  0  0  0  0
  191.2130  173.7800  138.4910 O   0  0  0  0  0  0  0  0  0  0  0  0
  190.4480  171.0030  140.7490 C   0  0  0  0  0  2  0  0  0  0  0  0
  190.8920  171.3570  142.0240 O   0  0  0  0  0  1  0  0  0  0  0  0
  190.1680  175.2280  145.2320 C   0  0  1  0  0  3  0  0  0  0  0  0
  189.6880  173.7890  145.1240 C   0  0  0  0  0  1  0  0  0  0  0  0
  190.8920  175.5980  144.0250 N   0  0  0  0  0  2  0  0  0  0  0  0
  191.3260  177.9580  143.6110 C   0  0  0  0  0  1  0  0  0  0  0  0
  191.7760  176.7080  144.3500 C   0  0  2  0  0  3  0  0  0  0  0  0
  193.8650  174.3020  143.2890 N   0  0  0  0  0  2  0  0  0  0  0  0
  194.1770  176.0660  141.8460 C   0  0  0  0  0  1  0  0  0  0  0  0
  193.2610  175.4780  142.8090 N   0  0  0  0  0  0  0  0  0  0  0  0
  194.1100  176.1590  146.4620 C   0  0  0  0  0  1  0  0  0  0  0  0
  193.2200  176.3710  143.9800 C   0  0  2  0  0  3  0  0  0  0  0  0
  194.2180  174.4210  144.6500 C   0  0  0  0  0  0  0  0  0  0  0  0
  193.8820  175.6160  145.0910 C   0  0  0  0  0  0  0  0  0  0  0  0
  194.1400  172.3340  145.7630 O   0  0  0  0  0  0  0  0  0  0  0  0
  196.2160  173.3570  145.7670 N   0  0  0  0  0  1  0  0  0  0  0  0
  194.8400  173.3200  145.4090 C   0  0  0  0  0  0  0  0  0  0  0  0
  1  8  1  0  0  0  0
  2 11  2  0  0  0  0
  5  9  2  0  0  0  0
  7  3  1  1  0  0  0
  7  2  1  0  0  0  0
  8  4  2  0  0  0  0
  9 10  1  0  0  0  0
 10  2  1  0  0  0  0
 10  1  2  0  0  0  0
 11  6  1  0  0  0  0
 11  4  1  0  0  0  0
 12  5  1  0  0  0  0
 12 13  2  0  0  0  0
 13  7  1  0  0  0  0
 15 14  2  0  0  0  0
 15  5  1  0  0  0  0
 16 17  2  0  0  0  0
 17 14  1  0  0  0  0
 18 19  1  0  0  0  0
 19 22  1  0  0  0  0
 20 17  1  0  0  0  0
 20 19  1  0  0  0  0
 21 20  2  0  0  0  0
 22 23  1  0  0  0  0
 24 25  1  6  0  0  0
 24  1  1  0  0  0  0
 26 28  1  0  0  0  0
 26 24  1  0  0  0  0
 28 27  1  6  0  0  0
 29 34  1  0  0  0  0
 30 31  1  0  0  0  0
 31 29  1  0  0  0  0
 31 33  1  0  0  0  0
 33 28  1  1  0  0  0
 33 35  1  0  0  0  0
 34 35  2  0  0  0  0
 34 38  1  0  0  0  0
 35 32  1  0  0  0  0
 38 36  2  0  0  0  0
 38 37  1  0  0  0  0
M  END
>  <MODEL>
9

>  <REMARK>
 VINA RESULT:      -7.1      3.973      6.720
  Name = 
  9 active torsions:
  status: ('A' for Active; 'I' for Inactive)
    1  A    between atoms: C_2  and  C_26
    2  A    between atoms: C_3  and  C_4
    3  A    between atoms: C_3  and  N_34
    4  A    between atoms: C_7  and  N_11
    5  A    between atoms: C_19  and  C_20
    6  A    between atoms: C_21  and  C_26
    7  A    between atoms: C_23  and  C_37
    8  A    between atoms: N_34  and  C_37
    9  A    between atoms: C_35  and  C_36
                            x       y       z     vdW  Elec       q    Type
                         _______ _______ _______ _____ _____    ______ ____

>  <TORSDO>
F 9

$$$$
