=
 OpenBabel11042415013D

 33 36  0  0  1  0  0  0  0  0999 V2000
  186.1880  178.2270  145.4430 C   0  0  0  0  0  2  0  0  0  0  0  0
  185.2870  176.6050  143.0900 O   0  0  0  0  0  0  0  0  0  0  0  0
  189.9710  173.7260  143.0950 C   0  0  0  0  0  0  0  0  0  0  0  0
  189.4070  174.2440  145.4060 C   0  0  0  0  0  0  0  0  0  0  0  0
  187.3680  176.9120  147.2700 C   0  0  0  0  0  2  0  0  0  0  0  0
  186.4190  179.1590  142.5280 N   0  0  0  0  0  1  0  0  0  0  0  0
  186.4640  176.7350  142.7820 C   0  0  0  0  0  0  0  0  0  0  0  0
  188.5720  177.3270  145.0660 C   0  0  0  0  0  2  0  0  0  0  0  0
  187.1750  178.0360  143.0690 C   0  0  2  0  0  3  0  0  0  0  0  0
  186.5710  178.1790  146.9200 C   0  0  0  0  0  2  0  0  0  0  0  0
  188.9430  174.7880  141.0630 C   0  0  0  0  0  2  0  0  0  0  0  0
  188.0480  176.2730  146.0540 C   0  0  1  0  0  3  0  0  0  0  0  0
  190.0740  172.3650  143.4290 C   0  0  0  0  0  0  0  0  0  0  0  0
  187.4570  178.2580  144.5650 C   0  0  1  0  0  3  0  0  0  0  0  0
  189.5370  172.8880  145.7400 C   0  0  0  0  0  3  0  0  0  0  0  0
  191.2530  175.1210  141.6530 O   0  0  0  0  0  1  0  0  0  0  0  0
  188.4890  175.9060  141.7780 O   0  0  0  0  0  0  0  0  0  0  0  0
  190.3920  171.4200  142.4610 O   0  0  0  0  0  1  0  0  0  0  0  0
  189.1120  175.2480  146.4820 C   0  0  2  0  0  3  0  0  0  0  0  0
  187.1660  175.5830  142.1250 C   0  0  0  0  0  2  0  0  0  0  0  0
  190.2070  174.1960  141.6910 C   0  0  1  0  0  3  0  0  0  0  0  0
  189.6510  174.6520  144.0910 C   0  0  0  0  0  3  0  0  0  0  0  0
  189.8640  171.9530  144.7510 C   0  0  0  0  0  3  0  0  0  0  0  0
  191.0790  175.2130  148.3770 O   0  0  0  0  0  0  0  0  0  0  0  0
  190.6220  175.9630  147.1580 S   0  0  0  0  0  0  0  0  0  0  0  0
  190.3930  177.4010  147.5400 O   0  0  0  0  0  0  0  0  0  0  0  0
  191.9110  175.9050  145.9270 C   0  0  0  0  0  2  0  0  0  0  0  0
  194.2810  172.9160  145.5130 C   0  0  0  0  0  2  0  0  0  0  0  0
  193.0170  174.9280  146.3040 C   0  0  2  0  0  3  0  0  0  0  0  0
  194.3550  175.6340  146.3570 C   0  0  0  0  0  3  0  0  0  0  0  0
  195.4910  175.0910  145.8860 C   0  0  0  0  0  3  0  0  0  0  0  0
  195.5140  173.7580  145.1810 C   0  0  0  0  0  2  0  0  0  0  0  0
  193.0260  173.7580  145.3140 C   0  0  0  0  0  2  0  0  0  0  0  0
  1 10  1  0  0  0  0
  3 13  2  0  0  0  0
  3 22  1  0  0  0  0
  4 15  1  0  0  0  0
  4 19  1  0  0  0  0
  7  9  1  0  0  0  0
  7  2  2  0  0  0  0
  9  6  1  1  0  0  0
  9 14  1  0  0  0  0
 10  5  1  0  0  0  0
 11 21  1  0  0  0  0
 11 17  1  0  0  0  0
 12  8  1  1  0  0  0
 12 19  1  0  0  0  0
 12  5  1  0  0  0  0
 13 23  1  0  0  0  0
 14  8  1  1  0  0  0
 14  1  1  0  0  0  0
 17 20  1  0  0  0  0
 18 13  1  0  0  0  0
 19 25  1  6  0  0  0
 20  7  1  0  0  0  0
 21 16  1  1  0  0  0
 21  3  1  0  0  0  0
 22  4  2  0  0  0  0
 23 15  2  0  0  0  0
 25 26  2  0  0  0  0
 25 24  2  0  0  0  0
 27 25  1  0  0  0  0
 29 27  1  6  0  0  0
 29 30  1  0  0  0  0
 31 30  2  0  0  0  0
 32 28  1  0  0  0  0
 32 31  1  0  0  0  0
 33 28  1  0  0  0  0
 33 29  1  0  0  0  0
M  END
>  <MODEL>
1

>  <REMARK>
 VINA RESULT:      -8.8      0.000      0.000
  Name = 
  3 active torsions:
  status: ('A' for Active; 'I' for Inactive)
    1  A    between atoms: C_3  and  C_31
    2  A    between atoms: S_7  and  C_27
    3  A    between atoms: S_7  and  C_31
                            x       y       z     vdW  Elec       q    Type
                         _______ _______ _______ _____ _____    ______ ____

>  <TORSDO>
F 3

$$$$
=
 OpenBabel11042415013D

 33 36  0  0  1  0  0  0  0  0999 V2000
  194.7090  174.6200  145.4110 C   0  0  0  0  0  2  0  0  0  0  0  0
  194.6990  174.0250  142.4750 O   0  0  0  0  0  0  0  0  0  0  0  0
  189.2400  174.6310  142.2220 C   0  0  0  0  0  0  0  0  0  0  0  0
  190.0940  176.2130  143.8630 C   0  0  0  0  0  0  0  0  0  0  0  0
  193.1780  176.5170  146.1320 C   0  0  0  0  0  2  0  0  0  0  0  0
  194.7450  171.7850  144.2350 N   0  0  0  0  0  1  0  0  0  0  0  0
  193.6770  173.4280  142.7850 C   0  0  0  0  0  0  0  0  0  0  0  0
  192.1540  174.2990  145.4180 C   0  0  0  0  0  2  0  0  0  0  0  0
  193.6100  172.6910  144.1010 C   0  0  2  0  0  3  0  0  0  0  0  0
  194.4230  175.6800  146.4720 C   0  0  0  0  0  2  0  0  0  0  0  0
  190.5140  172.6940  141.2530 C   0  0  0  0  0  2  0  0  0  0  0  0
  192.2250  175.8120  145.1600 C   0  0  1  0  0  3  0  0  0  0  0  0
  188.5800  175.6800  141.5600 C   0  0  0  0  0  0  0  0  0  0  0  0
  193.5310  173.6270  145.3200 C   0  0  1  0  0  3  0  0  0  0  0  0
  189.4130  177.2520  143.2130 C   0  0  0  0  0  3  0  0  0  0  0  0
  188.6060  172.3840  142.6880 O   0  0  0  0  0  1  0  0  0  0  0  0
  191.4420  172.6740  142.3050 O   0  0  0  0  0  0  0  0  0  0  0  0
  187.8350  175.4350  140.4110 O   0  0  0  0  0  1  0  0  0  0  0  0
  190.8490  176.4980  145.1290 C   0  0  2  0  0  3  0  0  0  0  0  0
  192.5140  173.4530  141.8370 C   0  0  0  0  0  2  0  0  0  0  0  0
  189.1540  173.2220  141.7150 C   0  0  1  0  0  3  0  0  0  0  0  0
  189.9790  174.9080  143.3750 C   0  0  0  0  0  3  0  0  0  0  0  0
  188.6630  176.9840  142.0630 C   0  0  0  0  0  3  0  0  0  0  0  0
  190.6730  176.1530  147.8330 O   0  0  0  0  0  0  0  0  0  0  0  0
  189.8320  176.2160  146.5900 S   0  0  0  0  0  0  0  0  0  0  0  0
  189.0750  174.9220  146.4580 O   0  0  0  0  0  0  0  0  0  0  0  0
  188.6520  177.5440  146.7570 C   0  0  0  0  0  2  0  0  0  0  0  0
  184.8760  176.8760  146.6320 C   0  0  0  0  0  2  0  0  0  0  0  0
  187.3080  177.1970  146.1290 C   0  0  2  0  0  3  0  0  0  0  0  0
  186.8730  178.2820  145.1690 C   0  0  0  0  0  3  0  0  0  0  0  0
  185.6040  178.7180  145.0810 C   0  0  0  0  0  3  0  0  0  0  0  0
  184.5150  178.2190  145.9970 C   0  0  0  0  0  2  0  0  0  0  0  0
  186.2740  176.9600  147.2350 C   0  0  0  0  0  2  0  0  0  0  0  0
  1 10  1  0  0  0  0
  2  7  2  0  0  0  0
  3 22  1  0  0  0  0
  4 19  1  0  0  0  0
  5 10  1  0  0  0  0
  7  9  1  0  0  0  0
  9  6  1  1  0  0  0
  9 14  1  0  0  0  0
 11 21  1  0  0  0  0
 11 17  1  0  0  0  0
 12  8  1  1  0  0  0
 12  5  1  0  0  0  0
 13 23  1  0  0  0  0
 13  3  2  0  0  0  0
 14  1  1  6  0  0  0
 14  8  1  0  0  0  0
 15  4  1  0  0  0  0
 18 13  1  0  0  0  0
 19 12  1  0  0  0  0
 19 25  1  1  0  0  0
 20 17  1  0  0  0  0
 20  7  1  0  0  0  0
 21  3  1  0  0  0  0
 21 16  1  1  0  0  0
 22  4  2  0  0  0  0
 23 15  2  0  0  0  0
 25 27  1  0  0  0  0
 25 24  2  0  0  0  0
 26 25  2  0  0  0  0
 28 33  1  0  0  0  0
 29 27  1  1  0  0  0
 29 33  1  0  0  0  0
 30 29  1  0  0  0  0
 31 30  2  0  0  0  0
 31 32  1  0  0  0  0
 32 28  1  0  0  0  0
M  END
>  <MODEL>
2

>  <REMARK>
 VINA RESULT:      -8.6      2.603      6.482
  Name = 
  3 active torsions:
  status: ('A' for Active; 'I' for Inactive)
    1  A    between atoms: C_3  and  C_31
    2  A    between atoms: S_7  and  C_27
    3  A    between atoms: S_7  and  C_31
                            x       y       z     vdW  Elec       q    Type
                         _______ _______ _______ _____ _____    ______ ____

>  <TORSDO>
F 3

$$$$
=
 OpenBabel11042415013D

 33 36  0  0  1  0  0  0  0  0999 V2000
  189.7670  172.3190  140.6460 C   0  0  0  0  0  2  0  0  0  0  0  0
  191.2160  170.6970  142.7080 O   0  0  0  0  0  0  0  0  0  0  0  0
  191.5820  175.0310  146.0720 C   0  0  0  0  0  0  0  0  0  0  0  0
  189.4630  175.1830  144.8810 C   0  0  0  0  0  0  0  0  0  0  0  0
  188.0070  173.9050  141.5650 C   0  0  0  0  0  2  0  0  0  0  0  0
  192.7820  171.7490  140.5720 N   0  0  0  0  0  1  0  0  0  0  0  0
  191.8450  171.7420  142.8220 C   0  0  0  0  0  0  0  0  0  0  0  0
  190.4690  174.4440  141.9210 C   0  0  0  0  0  2  0  0  0  0  0  0
  192.1500  172.5700  141.5980 C   0  0  2  0  0  3  0  0  0  0  0  0
  188.4950  173.1070  140.3450 C   0  0  0  0  0  2  0  0  0  0  0  0
  193.4950  173.5180  145.4700 C   0  0  0  0  0  2  0  0  0  0  0  0
  189.1130  174.1740  142.5920 C   0  0  1  0  0  3  0  0  0  0  0  0
  190.8990  175.1560  147.2940 C   0  0  0  0  0  0  0  0  0  0  0  0
  190.9140  173.2820  141.0210 C   0  0  1  0  0  3  0  0  0  0  0  0
  188.7900  175.3330  146.1030 C   0  0  0  0  0  3  0  0  0  0  0  0
  193.6530  175.9140  145.2990 O   0  0  0  0  0  1  0  0  0  0  0  0
  193.0500  173.3470  144.1510 O   0  0  0  0  0  0  0  0  0  0  0  0
  191.5940  175.1330  148.4980 O   0  0  0  0  0  1  0  0  0  0  0  0
  188.6940  175.2610  143.5950 C   0  0  2  0  0  3  0  0  0  0  0  0
  192.2910  172.1650  144.1910 C   0  0  0  0  0  2  0  0  0  0  0  0
  193.0720  174.8770  146.0320 C   0  0  1  0  0  3  0  0  0  0  0  0
  190.8560  175.0590  144.8780 C   0  0  0  0  0  3  0  0  0  0  0  0
  189.5080  175.3140  147.3040 C   0  0  0  0  0  3  0  0  0  0  0  0
  187.8880  177.0050  141.6540 O   0  0  0  0  0  0  0  0  0  0  0  0
  188.6770  176.9370  142.9300 S   0  0  0  0  0  0  0  0  0  0  0  0
  190.0800  177.4020  142.6510 O   0  0  0  0  0  0  0  0  0  0  0  0
  187.9430  178.0420  144.1230 C   0  0  0  0  0  2  0  0  0  0  0  0
  184.7250  177.5490  146.1540 C   0  0  0  0  0  2  0  0  0  0  0  0
  186.4740  177.7210  144.3700 C   0  0  2  0  0  3  0  0  0  0  0  0
  185.5870  178.7660  143.7280 C   0  0  0  0  0  3  0  0  0  0  0  0
  184.4840  179.2560  144.3200 C   0  0  0  0  0  3  0  0  0  0  0  0
  184.0810  178.8670  145.7210 C   0  0  0  0  0  2  0  0  0  0  0  0
  186.2230  177.6040  145.8770 C   0  0  0  0  0  2  0  0  0  0  0  0
  2  7  2  0  0  0  0
  3 13  1  0  0  0  0
  4 15  2  0  0  0  0
  7 20  1  0  0  0  0
  8 12  1  0  0  0  0
  9  6  1  6  0  0  0
  9  7  1  0  0  0  0
 10  1  1  0  0  0  0
 10  5  1  0  0  0  0
 11 21  1  0  0  0  0
 12  5  1  6  0  0  0
 12 19  1  0  0  0  0
 13 23  2  0  0  0  0
 13 18  1  0  0  0  0
 14  1  1  1  0  0  0
 14  9  1  0  0  0  0
 14  8  1  0  0  0  0
 15 23  1  0  0  0  0
 17 20  1  0  0  0  0
 17 11  1  0  0  0  0
 19 25  1  6  0  0  0
 19  4  1  0  0  0  0
 21 16  1  6  0  0  0
 21  3  1  0  0  0  0
 22  4  1  0  0  0  0
 22  3  2  0  0  0  0
 24 25  2  0  0  0  0
 25 27  1  0  0  0  0
 26 25  2  0  0  0  0
 29 27  1  1  0  0  0
 29 33  1  0  0  0  0
 30 31  2  0  0  0  0
 30 29  1  0  0  0  0
 31 32  1  0  0  0  0
 32 28  1  0  0  0  0
 33 28  1  0  0  0  0
M  END
>  <MODEL>
3

>  <REMARK>
 VINA RESULT:      -8.2      2.567      6.946
  Name = 
  3 active torsions:
  status: ('A' for Active; 'I' for Inactive)
    1  A    between atoms: C_3  and  C_31
    2  A    between atoms: S_7  and  C_27
    3  A    between atoms: S_7  and  C_31
                            x       y       z     vdW  Elec       q    Type
                         _______ _______ _______ _____ _____    ______ ____

>  <TORSDO>
F 3

$$$$
=
 OpenBabel11042415013D

 33 36  0  0  1  0  0  0  0  0999 V2000
  191.2680  171.3390  142.0830 C   0  0  0  0  0  2  0  0  0  0  0  0
  193.0170  171.0610  144.5000 O   0  0  0  0  0  0  0  0  0  0  0  0
  191.7230  176.1260  146.2020 C   0  0  0  0  0  0  0  0  0  0  0  0
  189.7580  175.1720  145.1260 C   0  0  0  0  0  0  0  0  0  0  0  0
  189.0290  172.4680  142.4980 C   0  0  0  0  0  2  0  0  0  0  0  0
  194.3020  171.8010  142.0670 N   0  0  0  0  0  1  0  0  0  0  0  0
  193.2630  172.2290  144.2300 C   0  0  0  0  0  0  0  0  0  0  0  0
  191.1520  173.8710  142.5400 C   0  0  0  0  0  2  0  0  0  0  0  0
  193.3680  172.6580  142.7870 C   0  0  2  0  0  3  0  0  0  0  0  0
  189.8340  171.5190  141.5940 C   0  0  0  0  0  2  0  0  0  0  0  0
  194.0600  175.2170  146.0540 C   0  0  0  0  0  2  0  0  0  0  0  0
  189.9140  173.4080  143.3240 C   0  0  1  0  0  3  0  0  0  0  0  0
  190.9530  176.4160  147.3410 C   0  0  0  0  0  0  0  0  0  0  0  0
  192.0110  172.6920  142.0620 C   0  0  1  0  0  3  0  0  0  0  0  0
  188.9890  175.4870  146.2560 C   0  0  0  0  0  3  0  0  0  0  0  0
  193.4440  177.3330  145.0840 O   0  0  0  0  0  1  0  0  0  0  0  0
  193.7870  174.4840  144.8890 O   0  0  0  0  0  0  0  0  0  0  0  0
  191.5310  177.0220  148.4510 O   0  0  0  0  0  1  0  0  0  0  0  0
  189.0970  174.5640  143.9240 C   0  0  2  0  0  3  0  0  0  0  0  0
  193.4520  173.2020  145.3570 C   0  0  0  0  0  2  0  0  0  0  0  0
  193.1820  176.4660  146.1480 C   0  0  1  0  0  3  0  0  0  0  0  0
  191.1120  175.5190  145.1010 C   0  0  0  0  0  3  0  0  0  0  0  0
  189.5880  176.1020  147.3600 C   0  0  0  0  0  3  0  0  0  0  0  0
  188.7510  175.3360  141.3260 O   0  0  0  0  0  0  0  0  0  0  0  0
  188.5830  175.8210  142.7380 S   0  0  0  0  0  0  0  0  0  0  0  0
  189.4030  177.0710  142.9150 O   0  0  0  0  0  0  0  0  0  0  0  0
  186.8680  176.2290  143.0090 C   0  0  0  0  0  2  0  0  0  0  0  0
  185.6270  179.5790  144.4080 C   0  0  0  0  0  2  0  0  0  0  0  0
  186.7010  177.3490  144.0280 C   0  0  2  0  0  3  0  0  0  0  0  0
  185.9110  176.8670  145.2250 C   0  0  0  0  0  3  0  0  0  0  0  0
  184.9700  177.6110  145.8320 C   0  0  0  0  0  3  0  0  0  0  0  0
  184.5590  178.9670  145.3160 C   0  0  0  0  0  2  0  0  0  0  0  0
  186.0420  178.5580  143.3550 C   0  0  0  0  0  2  0  0  0  0  0  0
  3 13  1  0  0  0  0
  4 15  2  0  0  0  0
  7  2  2  0  0  0  0
  7 20  1  0  0  0  0
  8 12  1  0  0  0  0
  9  6  1  6  0  0  0
  9  7  1  0  0  0  0
 10  1  1  0  0  0  0
 10  5  1  0  0  0  0
 11 21  1  0  0  0  0
 12  5  1  6  0  0  0
 12 19  1  0  0  0  0
 13 23  2  0  0  0  0
 13 18  1  0  0  0  0
 14  1  1  1  0  0  0
 14  8  1  0  0  0  0
 14  9  1  0  0  0  0
 15 23  1  0  0  0  0
 17 20  1  0  0  0  0
 17 11  1  0  0  0  0
 19 25  1  6  0  0  0
 19  4  1  0  0  0  0
 21 16  1  6  0  0  0
 21  3  1  0  0  0  0
 22  4  1  0  0  0  0
 22  3  2  0  0  0  0
 24 25  2  0  0  0  0
 25 26  2  0  0  0  0
 25 27  1  0  0  0  0
 28 32  1  0  0  0  0
 29 27  1  6  0  0  0
 29 30  1  0  0  0  0
 30 31  2  0  0  0  0
 32 31  1  0  0  0  0
 33 29  1  0  0  0  0
 33 28  1  0  0  0  0
M  END
>  <MODEL>
4

>  <REMARK>
 VINA RESULT:      -8.2      2.720      7.274
  Name = 
  3 active torsions:
  status: ('A' for Active; 'I' for Inactive)
    1  A    between atoms: C_3  and  C_31
    2  A    between atoms: S_7  and  C_27
    3  A    between atoms: S_7  and  C_31
                            x       y       z     vdW  Elec       q    Type
                         _______ _______ _______ _____ _____    ______ ____

>  <TORSDO>
F 3

$$$$
=
 OpenBabel11042415013D

 33 36  0  0  1  0  0  0  0  0999 V2000
  189.5510  172.2580  140.8600 C   0  0  0  0  0  2  0  0  0  0  0  0
  191.9600  170.8550  141.9580 O   0  0  0  0  0  0  0  0  0  0  0  0
  193.6040  175.4060  144.5680 C   0  0  0  0  0  0  0  0  0  0  0  0
  191.1700  175.3630  144.5970 C   0  0  0  0  0  0  0  0  0  0  0  0
  188.3630  173.7990  142.4950 C   0  0  0  0  0  2  0  0  0  0  0  0
  192.1620  171.8550  139.2980 N   0  0  0  0  0  1  0  0  0  0  0  0
  192.4750  171.9380  141.7140 C   0  0  0  0  0  0  0  0  0  0  0  0
  190.6210  174.4960  141.5530 C   0  0  0  0  0  2  0  0  0  0  0  0
  192.0620  172.7030  140.4800 C   0  0  2  0  0  3  0  0  0  0  0  0
  188.2400  172.9530  141.2170 C   0  0  0  0  0  2  0  0  0  0  0  0
  195.0770  173.9680  143.1270 C   0  0  0  0  0  2  0  0  0  0  0  0
  189.8070  174.1930  142.8210 C   0  0  1  0  0  3  0  0  0  0  0  0
  193.6140  175.5700  145.9630 C   0  0  0  0  0  0  0  0  0  0  0  0
  190.6500  173.3060  140.5830 C   0  0  1  0  0  3  0  0  0  0  0  0
  191.1860  175.5530  145.9870 C   0  0  0  0  0  3  0  0  0  0  0  0
  194.9360  176.3530  142.8360 O   0  0  0  0  0  1  0  0  0  0  0  0
  194.0490  173.6890  142.2150 O   0  0  0  0  0  0  0  0  0  0  0  0
  194.8160  175.6630  146.6570 O   0  0  0  0  0  1  0  0  0  0  0  0
  189.8590  175.3170  143.8690 C   0  0  2  0  0  3  0  0  0  0  0  0
  193.5090  172.4710  142.6620 C   0  0  0  0  0  2  0  0  0  0  0  0
  194.8840  175.3340  143.7890 C   0  0  1  0  0  3  0  0  0  0  0  0
  192.3810  175.3180  143.8990 C   0  0  0  0  0  3  0  0  0  0  0  0
  192.4060  175.6500  146.6650 C   0  0  0  0  0  3  0  0  0  0  0  0
  188.4310  176.8280  142.0970 O   0  0  0  0  0  0  0  0  0  0  0  0
  189.3780  176.9430  143.2580 S   0  0  0  0  0  0  0  0  0  0  0  0
  190.5910  177.7130  142.8110 O   0  0  0  0  0  0  0  0  0  0  0  0
  188.5800  177.8570  144.5660 C   0  0  0  0  0  2  0  0  0  0  0  0
  185.3280  176.7320  146.2630 C   0  0  0  0  0  2  0  0  0  0  0  0
  187.0990  177.5200  144.6770 C   0  0  2  0  0  3  0  0  0  0  0  0
  186.2550  178.7630  144.4970 C   0  0  0  0  0  3  0  0  0  0  0  0
  185.1650  179.0250  145.2390 C   0  0  0  0  0  3  0  0  0  0  0  0
  184.7360  178.1370  146.3800 C   0  0  0  0  0  2  0  0  0  0  0  0
  186.8300  176.8350  146.0210 C   0  0  0  0  0  2  0  0  0  0  0  0
  1 10  1  0  0  0  0
  3 13  1  0  0  0  0
  4 15  2  0  0  0  0
  5 12  1  0  0  0  0
  7  2  2  0  0  0  0
  7 20  1  0  0  0  0
  9  6  1  6  0  0  0
  9 14  1  0  0  0  0
  9  7  1  0  0  0  0
 10  5  1  0  0  0  0
 11 21  1  0  0  0  0
 12  8  1  6  0  0  0
 12 19  1  0  0  0  0
 13 18  1  0  0  0  0
 13 23  2  0  0  0  0
 14  1  1  1  0  0  0
 14  8  1  0  0  0  0
 15 23  1  0  0  0  0
 17 20  1  0  0  0  0
 17 11  1  0  0  0  0
 19 25  1  6  0  0  0
 19  4  1  0  0  0  0
 21 16  1  6  0  0  0
 21  3  1  0  0  0  0
 22  3  2  0  0  0  0
 22  4  1  0  0  0  0
 24 25  2  0  0  0  0
 25 27  1  0  0  0  0
 26 25  2  0  0  0  0
 28 32  1  0  0  0  0
 29 27  1  1  0  0  0
 29 33  1  0  0  0  0
 30 29  1  0  0  0  0
 30 31  2  0  0  0  0
 31 32  1  0  0  0  0
 33 28  1  0  0  0  0
M  END
>  <MODEL>
5

>  <REMARK>
 VINA RESULT:      -7.7      2.778      6.773
  Name = 
  3 active torsions:
  status: ('A' for Active; 'I' for Inactive)
    1  A    between atoms: C_3  and  C_31
    2  A    between atoms: S_7  and  C_27
    3  A    between atoms: S_7  and  C_31
                            x       y       z     vdW  Elec       q    Type
                         _______ _______ _______ _____ _____    ______ ____

>  <TORSDO>
F 3

$$$$
=
 OpenBabel11042415013D

 33 36  0  0  1  0  0  0  0  0999 V2000
  187.0130  177.9390  145.3700 C   0  0  0  0  0  2  0  0  0  0  0  0
  185.5660  176.4170  143.2330 O   0  0  0  0  0  0  0  0  0  0  0  0
  189.9500  173.2220  142.3340 C   0  0  0  0  0  0  0  0  0  0  0  0
  189.8780  173.7440  144.7110 C   0  0  0  0  0  0  0  0  0  0  0  0
  188.4270  176.5190  146.9350 C   0  0  0  0  0  2  0  0  0  0  0  0
  186.7450  178.8940  142.4660 N   0  0  0  0  0  1  0  0  0  0  0  0
  186.6690  176.4700  142.7040 C   0  0  0  0  0  0  0  0  0  0  0  0
  189.2120  176.8830  144.5410 C   0  0  0  0  0  2  0  0  0  0  0  0
  187.5100  177.7140  142.8510 C   0  0  2  0  0  3  0  0  0  0  0  0
  187.6680  177.8430  146.7460 C   0  0  0  0  0  2  0  0  0  0  0  0
  188.6280  174.3820  140.5390 C   0  0  0  0  0  2  0  0  0  0  0  0
  188.8150  175.8520  145.6100 C   0  0  1  0  0  3  0  0  0  0  0  0
  190.0200  171.8530  142.6410 C   0  0  0  0  0  0  0  0  0  0  0  0
  188.0900  177.8940  144.2650 C   0  0  1  0  0  3  0  0  0  0  0  0
  189.9740  172.3780  145.0120 C   0  0  0  0  0  3  0  0  0  0  0  0
  191.0260  174.5460  140.6740 O   0  0  0  0  0  1  0  0  0  0  0  0
  188.4000  175.5180  141.3290 O   0  0  0  0  0  0  0  0  0  0  0  0
  190.0790  170.9020  141.6280 O   0  0  0  0  0  1  0  0  0  0  0  0
  189.8660  174.7510  145.8240 C   0  0  2  0  0  3  0  0  0  0  0  0
  187.1490  175.2820  141.9240 C   0  0  0  0  0  2  0  0  0  0  0  0
  189.9440  173.6960  140.9120 C   0  0  1  0  0  3  0  0  0  0  0  0
  189.8930  174.1540  143.3740 C   0  0  0  0  0  3  0  0  0  0  0  0
  190.0390  171.4370  143.9780 C   0  0  0  0  0  3  0  0  0  0  0  0
  191.9090  175.0320  147.6150 O   0  0  0  0  0  0  0  0  0  0  0  0
  191.5240  175.3510  146.1980 S   0  0  0  0  0  0  0  0  0  0  0  0
  191.5950  176.8410  146.0070 O   0  0  0  0  0  0  0  0  0  0  0  0
  192.6970  174.5840  145.0940 C   0  0  0  0  0  2  0  0  0  0  0  0
  195.2880  171.8330  145.7600 C   0  0  0  0  0  2  0  0  0  0  0  0
  193.7880  173.8370  145.8510 C   0  0  2  0  0  3  0  0  0  0  0  0
  195.0530  174.6660  145.9160 C   0  0  0  0  0  3  0  0  0  0  0  0
  196.2820  174.1450  145.7560 C   0  0  0  0  0  3  0  0  0  0  0  0
  196.5020  172.6940  145.4090 C   0  0  0  0  0  2  0  0  0  0  0  0
  194.0290  172.4760  145.1880 C   0  0  0  0  0  2  0  0  0  0  0  0
  1 10  1  0  0  0  0
  3 13  2  0  0  0  0
  3 22  1  0  0  0  0
  4 15  1  0  0  0  0
  4 19  1  0  0  0  0
  7  9  1  0  0  0  0
  7  2  2  0  0  0  0
  9  6  1  1  0  0  0
  9 14  1  0  0  0  0
 10  5  1  0  0  0  0
 11 21  1  0  0  0  0
 11 17  1  0  0  0  0
 12  8  1  6  0  0  0
 12 19  1  0  0  0  0
 12  5  1  0  0  0  0
 13 23  1  0  0  0  0
 14  8  1  1  0  0  0
 14  1  1  0  0  0  0
 17 20  1  0  0  0  0
 18 13  1  0  0  0  0
 19 25  1  6  0  0  0
 20  7  1  0  0  0  0
 21 16  1  1  0  0  0
 21  3  1  0  0  0  0
 22  4  2  0  0  0  0
 23 15  2  0  0  0  0
 25 24  2  0  0  0  0
 26 25  2  0  0  0  0
 27 25  1  0  0  0  0
 29 27  1  6  0  0  0
 29 30  1  0  0  0  0
 31 30  2  0  0  0  0
 32 31  1  0  0  0  0
 32 28  1  0  0  0  0
 33 28  1  0  0  0  0
 33 29  1  0  0  0  0
M  END
>  <MODEL>
6

>  <REMARK>
 VINA RESULT:      -7.7      0.992      1.107
  Name = 
  3 active torsions:
  status: ('A' for Active; 'I' for Inactive)
    1  A    between atoms: C_3  and  C_31
    2  A    between atoms: S_7  and  C_27
    3  A    between atoms: S_7  and  C_31
                            x       y       z     vdW  Elec       q    Type
                         _______ _______ _______ _____ _____    ______ ____

>  <TORSDO>
F 3

$$$$
=
 OpenBabel11042415013D

 33 36  0  0  1  0  0  0  0  0999 V2000
  188.1920  175.2400  141.0700 C   0  0  0  0  0  2  0  0  0  0  0  0
  188.3980  177.9240  142.3850 O   0  0  0  0  0  0  0  0  0  0  0  0
  191.9820  176.0010  146.0840 C   0  0  0  0  0  0  0  0  0  0  0  0
  192.3910  174.8530  143.9760 C   0  0  0  0  0  0  0  0  0  0  0  0
  190.3940  173.9960  140.8100 C   0  0  0  0  0  2  0  0  0  0  0  0
  186.1810  176.2980  143.1320 N   0  0  0  0  0  1  0  0  0  0  0  0
  188.4200  177.2260  143.3900 C   0  0  0  0  0  0  0  0  0  0  0  0
  189.3600  174.2170  143.1250 C   0  0  0  0  0  2  0  0  0  0  0  0
  187.5670  175.9830  143.4570 C   0  0  2  0  0  3  0  0  0  0  0  0
  188.9540  174.1660  140.2970 C   0  0  0  0  0  2  0  0  0  0  0  0
  189.9490  177.3700  146.6350 C   0  0  0  0  0  2  0  0  0  0  0  0
  190.5870  174.5020  142.2440 C   0  0  1  0  0  3  0  0  0  0  0  0
  193.3390  176.3610  146.1470 C   0  0  0  0  0  0  0  0  0  0  0  0
  188.0780  174.8440  142.5570 C   0  0  1  0  0  3  0  0  0  0  0  0
  193.7500  175.1930  144.0570 C   0  0  0  0  0  3  0  0  0  0  0  0
  190.4360  175.2930  147.7500 O   0  0  0  0  0  1  0  0  0  0  0  0
  189.1750  176.7720  145.6300 O   0  0  0  0  0  0  0  0  0  0  0  0
  193.8230  177.1170  147.2090 O   0  0  0  0  0  1  0  0  0  0  0  0
  191.9070  173.9940  142.8450 C   0  0  2  0  0  3  0  0  0  0  0  0
  189.3050  177.6360  144.5300 C   0  0  0  0  0  2  0  0  0  0  0  0
  191.0230  176.4140  147.1590 C   0  0  1  0  0  3  0  0  0  0  0  0
  191.5260  175.2390  145.0050 C   0  0  0  0  0  3  0  0  0  0  0  0
  194.2180  175.9490  145.1370 C   0  0  0  0  0  3  0  0  0  0  0  0
  191.1530  171.4300  142.2790 O   0  0  0  0  0  0  0  0  0  0  0  0
  191.9150  172.2460  143.2850 S   0  0  0  0  0  0  0  0  0  0  0  0
  191.2880  172.0450  144.6370 O   0  0  0  0  0  0  0  0  0  0  0  0
  193.5970  171.6570  143.3500 C   0  0  0  0  0  2  0  0  0  0  0  0
  194.9350  169.6640  146.3440 C   0  0  0  0  0  2  0  0  0  0  0  0
  194.0620  171.4150  144.7810 C   0  0  2  0  0  3  0  0  0  0  0  0
  195.3430  172.1720  145.0590 C   0  0  0  0  0  3  0  0  0  0  0  0
  196.3630  171.6540  145.7650 C   0  0  0  0  0  3  0  0  0  0  0  0
  196.3530  170.2330  146.2710 C   0  0  0  0  0  2  0  0  0  0  0  0
  194.2230  169.9090  145.0180 C   0  0  0  0  0  2  0  0  0  0  0  0
  2  7  2  0  0  0  0
  3 13  1  0  0  0  0
  3 21  1  0  0  0  0
  4 15  2  0  0  0  0
  4 22  1  0  0  0  0
  7  9  1  0  0  0  0
  7 20  1  0  0  0  0
  9  6  1  6  0  0  0
 10  5  1  0  0  0  0
 10  1  1  0  0  0  0
 11 21  1  0  0  0  0
 12  5  1  6  0  0  0
 12 19  1  0  0  0  0
 12  8  1  0  0  0  0
 13 18  1  0  0  0  0
 14  1  1  6  0  0  0
 14  8  1  0  0  0  0
 14  9  1  0  0  0  0
 15 23  1  0  0  0  0
 17 11  1  0  0  0  0
 19 25  1  1  0  0  0
 19  4  1  0  0  0  0
 20 17  1  0  0  0  0
 21 16  1  6  0  0  0
 22  3  2  0  0  0  0
 23 13  2  0  0  0  0
 24 25  2  0  0  0  0
 25 27  1  0  0  0  0
 25 26  2  0  0  0  0
 29 27  1  6  0  0  0
 29 33  1  0  0  0  0
 29 30  1  0  0  0  0
 30 31  2  0  0  0  0
 31 32  1  0  0  0  0
 32 28  1  0  0  0  0
 33 28  1  0  0  0  0
M  END
>  <MODEL>
7

>  <REMARK>
 VINA RESULT:      -7.6      2.266      5.030
  Name = 
  3 active torsions:
  status: ('A' for Active; 'I' for Inactive)
    1  A    between atoms: C_3  and  C_31
    2  A    between atoms: S_7  and  C_27
    3  A    between atoms: S_7  and  C_31
                            x       y       z     vdW  Elec       q    Type
                         _______ _______ _______ _____ _____    ______ ____

>  <TORSDO>
F 3

$$$$
=
 OpenBabel11042415013D

 33 36  0  0  1  0  0  0  0  0999 V2000
  188.0490  175.6830  147.5560 C   0  0  0  0  0  2  0  0  0  0  0  0
  185.4660  176.0690  146.0860 O   0  0  0  0  0  0  0  0  0  0  0  0
  188.0810  176.3200  141.2570 C   0  0  0  0  0  0  0  0  0  0  0  0
  189.2730  174.7390  142.6730 C   0  0  0  0  0  0  0  0  0  0  0  0
  189.7000  174.1070  146.4370 C   0  0  0  0  0  2  0  0  0  0  0  0
  186.6300  178.3880  147.2620 N   0  0  0  0  0  1  0  0  0  0  0  0
  186.1610  176.8400  145.4390 C   0  0  0  0  0  0  0  0  0  0  0  0
  189.2950  176.4050  145.4200 C   0  0  0  0  0  2  0  0  0  0  0  0
  187.2130  177.6670  146.1380 C   0  0  2  0  0  3  0  0  0  0  0  0
  189.2460  174.7580  147.7540 C   0  0  0  0  0  2  0  0  0  0  0  0
  186.3420  177.9590  142.0320 C   0  0  0  0  0  2  0  0  0  0  0  0
  189.2510  174.8850  145.1950 C   0  0  1  0  0  3  0  0  0  0  0  0
  187.9960  175.3460  140.2480 C   0  0  0  0  0  0  0  0  0  0  0  0
  188.4240  176.8410  146.6070 C   0  0  1  0  0  3  0  0  0  0  0  0
  189.2080  173.7780  141.6530 C   0  0  0  0  0  3  0  0  0  0  0  0
  188.4820  178.6660  141.1850 O   0  0  0  0  0  1  0  0  0  0  0  0
  186.7700  177.9040  143.3670 O   0  0  0  0  0  0  0  0  0  0  0  0
  187.3560  175.6250  139.0450 O   0  0  0  0  0  1  0  0  0  0  0  0
  190.0130  174.4260  143.9410 C   0  0  2  0  0  3  0  0  0  0  0  0
  185.9410  176.9350  143.9580 C   0  0  0  0  0  2  0  0  0  0  0  0
  187.4940  177.6860  141.0630 C   0  0  1  0  0  3  0  0  0  0  0  0
  188.7310  176.0090  142.4540 C   0  0  0  0  0  3  0  0  0  0  0  0
  188.5660  174.0820  140.4470 C   0  0  0  0  0  3  0  0  0  0  0  0
  191.8340  176.4620  143.9320 O   0  0  0  0  0  0  0  0  0  0  0  0
  191.7310  174.9650  143.8610 S   0  0  0  0  0  0  0  0  0  0  0  0
  192.3640  174.5020  142.5760 O   0  0  0  0  0  0  0  0  0  0  0  0
  192.6400  174.2570  145.2230 C   0  0  0  0  0  2  0  0  0  0  0  0
  196.4610  174.5410  145.4340 C   0  0  0  0  0  2  0  0  0  0  0  0
  194.0910  173.9740  144.8560 C   0  0  2  0  0  3  0  0  0  0  0  0
  194.4510  172.5400  145.1800 C   0  0  0  0  0  3  0  0  0  0  0  0
  195.6280  172.1840  145.7230 C   0  0  0  0  0  3  0  0  0  0  0  0
  196.6640  173.1980  146.1380 C   0  0  0  0  0  2  0  0  0  0  0  0
  195.0050  174.9710  145.5760 C   0  0  0  0  0  2  0  0  0  0  0  0
  1 10  1  0  0  0  0
  3 22  1  0  0  0  0
  4 19  1  0  0  0  0
  5 10  1  0  0  0  0
  7  2  2  0  0  0  0
  7  9  1  0  0  0  0
  9 14  1  0  0  0  0
  9  6  1  1  0  0  0
 11 17  1  0  0  0  0
 12  8  1  1  0  0  0
 12  5  1  0  0  0  0
 13 23  1  0  0  0  0
 13  3  2  0  0  0  0
 14  8  1  6  0  0  0
 14  1  1  0  0  0  0
 15  4  1  0  0  0  0
 17 20  1  0  0  0  0
 18 13  1  0  0  0  0
 19 25  1  6  0  0  0
 19 12  1  0  0  0  0
 20  7  1  0  0  0  0
 21 16  1  1  0  0  0
 21  3  1  0  0  0  0
 21 11  1  0  0  0  0
 22  4  2  0  0  0  0
 23 15  2  0  0  0  0
 25 24  2  0  0  0  0
 25 27  1  0  0  0  0
 26 25  2  0  0  0  0
 28 33  1  0  0  0  0
 28 32  1  0  0  0  0
 29 30  1  0  0  0  0
 29 27  1  1  0  0  0
 29 33  1  0  0  0  0
 30 31  2  0  0  0  0
 31 32  1  0  0  0  0
M  END
>  <MODEL>
8

>  <REMARK>
 VINA RESULT:      -7.1      2.103      3.642
  Name = 
  3 active torsions:
  status: ('A' for Active; 'I' for Inactive)
    1  A    between atoms: C_3  and  C_31
    2  A    between atoms: S_7  and  C_27
    3  A    between atoms: S_7  and  C_31
                            x       y       z     vdW  Elec       q    Type
                         _______ _______ _______ _____ _____    ______ ____

>  <TORSDO>
F 3

$$$$
=
 OpenBabel11042415013D

 33 36  0  0  1  0  0  0  0  0999 V2000
  189.8970  172.1490  142.2260 C   0  0  0  0  0  2  0  0  0  0  0  0
  192.3350  171.2640  140.7270 O   0  0  0  0  0  0  0  0  0  0  0  0
  195.3740  175.2170  143.0440 C   0  0  0  0  0  0  0  0  0  0  0  0
  193.7460  174.4620  144.6890 C   0  0  0  0  0  0  0  0  0  0  0  0
  190.2950  172.7770  144.6570 C   0  0  0  0  0  2  0  0  0  0  0  0
  190.5190  172.9580  139.3320 N   0  0  0  0  0  1  0  0  0  0  0  0
  192.5070  172.4740  140.6560 C   0  0  0  0  0  0  0  0  0  0  0  0
  191.1350  174.3280  142.8220 C   0  0  0  0  0  2  0  0  0  0  0  0
  191.3210  173.3890  140.4710 C   0  0  2  0  0  3  0  0  0  0  0  0
  189.2710  172.3100  143.6090 C   0  0  0  0  0  2  0  0  0  0  0  0
  195.3120  174.7120  140.5830 C   0  0  0  0  0  2  0  0  0  0  0  0
  191.5150  173.4710  144.0400 C   0  0  1  0  0  3  0  0  0  0  0  0
  196.4070  174.9940  143.9700 C   0  0  0  0  0  0  0  0  0  0  0  0
  190.4400  173.5050  141.7270 C   0  0  1  0  0  3  0  0  0  0  0  0
  194.7780  174.2660  145.6180 C   0  0  0  0  0  3  0  0  0  0  0  0
  195.0050  176.9400  141.4430 O   0  0  0  0  0  1  0  0  0  0  0  0
  193.9440  174.4030  140.5990 O   0  0  0  0  0  0  0  0  0  0  0  0
  197.7320  175.2410  143.6270 O   0  0  0  0  0  1  0  0  0  0  0  0
  192.3210  174.2350  145.1030 C   0  0  2  0  0  3  0  0  0  0  0  0
  193.9050  173.0080  140.7600 C   0  0  0  0  0  2  0  0  0  0  0  0
  195.6690  175.7320  141.6670 C   0  0  1  0  0  3  0  0  0  0  0  0
  194.0530  174.9610  143.4190 C   0  0  0  0  0  3  0  0  0  0  0  0
  196.1040  174.5270  145.2550 C   0  0  0  0  0  3  0  0  0  0  0  0
  191.5500  176.8120  144.6260 O   0  0  0  0  0  0  0  0  0  0  0  0
  191.5480  175.7530  145.6920 S   0  0  0  0  0  0  0  0  0  0  0  0
  192.2840  176.2810  146.8930 O   0  0  0  0  0  0  0  0  0  0  0  0
  189.8620  175.4150  146.1670 C   0  0  0  0  0  2  0  0  0  0  0  0
  187.0990  176.9670  144.0030 C   0  0  0  0  0  2  0  0  0  0  0  0
  188.9030  176.4920  145.6740 C   0  0  2  0  0  3  0  0  0  0  0  0
  187.8780  176.8190  146.7370 C   0  0  0  0  0  3  0  0  0  0  0  0
  186.5790  177.0320  146.4640 C   0  0  0  0  0  3  0  0  0  0  0  0
  186.0120  176.8770  145.0750 C   0  0  0  0  0  2  0  0  0  0  0  0
  188.2470  176.0320  144.3670 C   0  0  0  0  0  2  0  0  0  0  0  0
  1 10  1  0  0  0  0
  3 22  2  0  0  0  0
  3 13  1  0  0  0  0
  4 19  1  0  0  0  0
  4 15  2  0  0  0  0
  7  2  2  0  0  0  0
  7 20  1  0  0  0  0
  9  6  1  6  0  0  0
  9  7  1  0  0  0  0
  9 14  1  0  0  0  0
 10  5  1  0  0  0  0
 11 17  1  0  0  0  0
 11 21  1  0  0  0  0
 12  8  1  6  0  0  0
 12  5  1  0  0  0  0
 12 19  1  0  0  0  0
 13 23  2  0  0  0  0
 14  1  1  1  0  0  0
 14  8  1  0  0  0  0
 17 20  1  0  0  0  0
 18 13  1  0  0  0  0
 19 25  1  6  0  0  0
 21 16  1  6  0  0  0
 21  3  1  0  0  0  0
 22  4  1  0  0  0  0
 23 15  1  0  0  0  0
 24 25  2  0  0  0  0
 25 27  1  0  0  0  0
 25 26  2  0  0  0  0
 28 33  1  0  0  0  0
 28 32  1  0  0  0  0
 29 27  1  1  0  0  0
 29 30  1  0  0  0  0
 31 30  2  0  0  0  0
 32 31  1  0  0  0  0
 33 29  1  0  0  0  0
M  END
>  <MODEL>
9

>  <REMARK>
 VINA RESULT:      -7.1      2.853      6.310
  Name = 
  3 active torsions:
  status: ('A' for Active; 'I' for Inactive)
    1  A    between atoms: C_3  and  C_31
    2  A    between atoms: S_7  and  C_27
    3  A    between atoms: S_7  and  C_31
                            x       y       z     vdW  Elec       q    Type
                         _______ _______ _______ _____ _____    ______ ____

>  <TORSDO>
F 3

$$$$
