=
 OpenBabel11042414033D

 31 33  0  0  1  0  0  0  0  0999 V2000
  189.7540  175.2960  144.0800 C   0  0  0  0  0  0  0  0  0  0  0  0
  190.3250  178.1470  143.2040 C   0  0  0  0  0  3  0  0  0  0  0  0
  192.0070  176.3340  143.7530 C   0  0  0  0  0  0  0  0  0  0  0  0
  191.0270  175.2080  143.6530 C   0  0  0  0  0  0  0  0  0  0  0  0
  189.1870  177.6520  143.7020 C   0  0  0  0  0  0  0  0  0  0  0  0
  191.6720  177.6130  143.4900 C   0  0  0  0  0  3  0  0  0  0  0  0
  188.8860  174.2210  143.8970 O   0  0  0  0  0  1  0  0  0  0  0  0
  191.4900  173.9330  143.0240 C   0  0  0  0  0  1  0  0  0  0  0  0
  189.2480  176.5550  144.7240 C   0  0  1  0  0  3  0  0  0  0  0  0
  195.3350  175.1630  145.0820 C   0  0  0  0  0  2  0  0  0  0  0  0
  193.3900  176.0330  144.0300 N   0  0  0  0  0  0  0  0  0  0  0  0
  194.3970  175.9830  142.9880 C   0  0  0  0  0  2  0  0  0  0  0  0
  195.5870  175.2560  143.5850 C   0  0  0  0  0  2  0  0  0  0  0  0
  193.8700  175.4980  145.2960 C   0  0  2  0  0  3  0  0  0  0  0  0
  192.5940  176.4710  147.2430 N   0  0  0  0  0  1  0  0  0  0  0  0
  194.6200  177.3850  146.5710 O   0  0  0  0  0  0  0  0  0  0  0  0
  193.7320  176.5090  146.3910 C   0  0  0  0  0  0  0  0  0  0  0  0
  187.9520  176.3630  145.4590 C   0  0  0  0  0  3  0  0  0  0  0  0
  187.7230  176.9940  146.6080 C   0  0  0  0  0  3  0  0  0  0  0  0
  186.4320  176.7910  147.3250 C   0  0  0  0  0  2  0  0  0  0  0  0
  184.3320  177.8400  146.4060 N   0  0  0  0  0  1  0  0  0  0  0  0
  185.5510  177.9730  147.1260 C   0  0  0  0  0  0  0  0  0  0  0  0
  185.8700  179.0870  147.6200 O   0  0  0  0  0  0  0  0  0  0  0  0
  187.9220  178.2230  143.3280 N   0  0  0  0  0  2  0  0  0  0  0  0
  184.1240  178.5700  140.3110 N   0  0  0  0  0  2  0  0  0  0  0  0
  185.0670  178.3380  142.9310 N   0  0  0  0  0  2  0  0  0  0  0  0
  185.9840  178.1650  141.8430 C   0  0  0  0  0  0  0  0  0  0  0  0
  183.2330  178.0330  141.3370 C   0  0  0  0  0  2  0  0  0  0  0  0
  187.3040  178.1300  142.0370 C   0  0  0  0  0  3  0  0  0  0  0  0
  185.4440  177.9550  140.4590 C   0  0  0  0  0  2  0  0  0  0  0  0
  183.6480  178.5840  142.6980 C   0  0  0  0  0  2  0  0  0  0  0  0
  1  9  1  0  0  0  0
  2  6  1  0  0  0  0
  2  5  2  0  0  0  0
  3 11  1  0  0  0  0
  4  3  1  0  0  0  0
  4  1  2  0  0  0  0
  5  9  1  0  0  0  0
  6  3  2  0  0  0  0
  7  1  1  0  0  0  0
  8  4  1  0  0  0  0
  9 18  1  6  0  0  0
 10 14  1  0  0  0  0
 11 14  1  0  0  0  0
 12 13  1  0  0  0  0
 12 11  1  0  0  0  0
 13 10  1  0  0  0  0
 14 17  1  1  0  0  0
 17 16  2  0  0  0  0
 17 15  1  0  0  0  0
 18 19  2  0  0  0  0
 19 20  1  0  0  0  0
 21 22  1  0  0  0  0
 22 20  1  0  0  0  0
 22 23  2  0  0  0  0
 24  5  1  0  0  0  0
 25 30  1  0  0  0  0
 25 28  1  0  0  0  0
 27 29  2  0  0  0  0
 27 26  1  0  0  0  0
 28 31  1  0  0  0  0
 29 24  1  0  0  0  0
 30 27  1  0  0  0  0
 31 26  1  0  0  0  0
M  END
>  <MODEL>
1

>  <REMARK>
 VINA RESULT:      -7.3      0.000      0.000
  Name = 
  7 active torsions:
  status: ('A' for Active; 'I' for Inactive)
    1  A    between atoms: C_3  and  C_29
    2  A    between atoms: N_5  and  C_13
    3  A    between atoms: C_11  and  C_21
    4  A    between atoms: C_16  and  N_17
    5  A    between atoms: N_17  and  C_18
    6  A    between atoms: C_21  and  C_24
    7  A    between atoms: C_30  and  C_31
                            x       y       z     vdW  Elec       q    Type
                         _______ _______ _______ _____ _____    ______ ____

>  <TORSDO>
F 7

$$$$
=
 OpenBabel11042414033D

 31 33  0  0  1  0  0  0  0  0999 V2000
  188.8400  175.5000  146.1190 C   0  0  0  0  0  0  0  0  0  0  0  0
  190.4520  177.6290  144.6730 C   0  0  0  0  0  3  0  0  0  0  0  0
  187.9310  177.4580  144.8540 C   0  0  0  0  0  0  0  0  0  0  0  0
  187.9450  176.4970  146.0010 C   0  0  0  0  0  0  0  0  0  0  0  0
  190.8580  176.4170  145.0680 C   0  0  0  0  0  0  0  0  0  0  0  0
  189.0590  177.9810  144.3320 C   0  0  0  0  0  3  0  0  0  0  0  0
  188.8220  174.6830  147.2480 O   0  0  0  0  0  1  0  0  0  0  0  0
  186.9200  176.6780  147.0750 C   0  0  0  0  0  1  0  0  0  0  0  0
  189.8820  175.2760  145.0600 C   0  0  1  0  0  3  0  0  0  0  0  0
  184.4800  177.9550  143.4200 C   0  0  0  0  0  2  0  0  0  0  0  0
  186.6640  177.9330  144.3570 N   0  0  0  0  0  0  0  0  0  0  0  0
  186.0590  179.1650  144.8270 C   0  0  0  0  0  2  0  0  0  0  0  0
  184.6040  179.1110  144.4000 C   0  0  0  0  0  2  0  0  0  0  0  0
  185.7480  177.1320  143.5580 C   0  0  2  0  0  3  0  0  0  0  0  0
  186.1150  177.7750  141.1460 N   0  0  0  0  0  1  0  0  0  0  0  0
  186.9990  175.8060  142.0010 O   0  0  0  0  0  0  0  0  0  0  0  0
  186.3240  176.8500  142.2060 C   0  0  0  0  0  0  0  0  0  0  0  0
  190.5470  173.9330  145.1590 C   0  0  0  0  0  3  0  0  0  0  0  0
  190.5710  173.1090  144.1140 C   0  0  0  0  0  3  0  0  0  0  0  0
  191.2340  171.7790  144.2300 C   0  0  0  0  0  2  0  0  0  0  0  0
  193.2620  172.7010  143.0500 N   0  0  0  0  0  1  0  0  0  0  0  0
  192.7080  171.9370  144.1150 C   0  0  0  0  0  0  0  0  0  0  0  0
  193.4670  171.4190  144.9760 O   0  0  0  0  0  0  0  0  0  0  0  0
  192.2340  176.1890  145.4140 N   0  0  0  0  0  2  0  0  0  0  0  0
  196.5740  174.9510  143.6030 N   0  0  0  0  0  2  0  0  0  0  0  0
  194.6850  174.6870  145.6460 N   0  0  0  0  0  2  0  0  0  0  0  0
  194.5090  175.7150  144.6630 C   0  0  0  0  0  0  0  0  0  0  0  0
  197.0160  174.4950  144.9190 C   0  0  0  0  0  2  0  0  0  0  0  0
  193.3640  176.3920  144.5540 C   0  0  0  0  0  3  0  0  0  0  0  0
  195.6620  176.0820  143.7750 C   0  0  0  0  0  2  0  0  0  0  0  0
  195.8520  173.8110  145.6290 C   0  0  0  0  0  2  0  0  0  0  0  0
  1  7  1  0  0  0  0
  2  5  2  0  0  0  0
  3  4  1  0  0  0  0
  4  1  2  0  0  0  0
  4  8  1  0  0  0  0
  5 24  1  0  0  0  0
  6  2  1  0  0  0  0
  6  3  2  0  0  0  0
  9  5  1  0  0  0  0
  9 18  1  1  0  0  0
  9  1  1  0  0  0  0
 10 14  1  0  0  0  0
 10 13  1  0  0  0  0
 11 12  1  0  0  0  0
 11  3  1  0  0  0  0
 13 12  1  0  0  0  0
 14 17  1  6  0  0  0
 14 11  1  0  0  0  0
 15 17  1  0  0  0  0
 16 17  2  0  0  0  0
 19 20  1  0  0  0  0
 19 18  2  0  0  0  0
 21 22  1  0  0  0  0
 22 20  1  0  0  0  0
 22 23  2  0  0  0  0
 25 30  1  0  0  0  0
 25 28  1  0  0  0  0
 27 26  1  0  0  0  0
 28 31  1  0  0  0  0
 29 27  2  0  0  0  0
 29 24  1  0  0  0  0
 30 27  1  0  0  0  0
 31 26  1  0  0  0  0
M  END
>  <MODEL>
2

>  <REMARK>
 VINA RESULT:      -7.2      2.232      8.467
  Name = 
  7 active torsions:
  status: ('A' for Active; 'I' for Inactive)
    1  A    between atoms: C_3  and  C_29
    2  A    between atoms: N_5  and  C_13
    3  A    between atoms: C_11  and  C_21
    4  A    between atoms: C_16  and  N_17
    5  A    between atoms: N_17  and  C_18
    6  A    between atoms: C_21  and  C_24
    7  A    between atoms: C_30  and  C_31
                            x       y       z     vdW  Elec       q    Type
                         _______ _______ _______ _____ _____    ______ ____

>  <TORSDO>
F 7

$$$$
=
 OpenBabel11042414033D

 31 33  0  0  1  0  0  0  0  0999 V2000
  189.8300  175.2110  143.9630 C   0  0  0  0  0  0  0  0  0  0  0  0
  190.7030  178.0910  143.5540 C   0  0  0  0  0  3  0  0  0  0  0  0
  192.1720  176.0860  144.0430 C   0  0  0  0  0  0  0  0  0  0  0  0
  191.1370  175.0700  143.6780 C   0  0  0  0  0  0  0  0  0  0  0  0
  189.4790  177.6360  143.8450 C   0  0  0  0  0  0  0  0  0  0  0  0
  191.9630  177.4120  143.9190 C   0  0  0  0  0  3  0  0  0  0  0  0
  188.9190  174.2450  143.5360 O   0  0  0  0  0  1  0  0  0  0  0  0
  191.5870  173.8490  142.9390 C   0  0  0  0  0  1  0  0  0  0  0  0
  189.3340  176.4160  144.7090 C   0  0  1  0  0  3  0  0  0  0  0  0
  195.8480  175.4980  144.6370 C   0  0  0  0  0  2  0  0  0  0  0  0
  193.4840  175.6360  144.4350 N   0  0  0  0  0  0  0  0  0  0  0  0
  193.7210  174.9180  145.6730 C   0  0  0  0  0  2  0  0  0  0  0  0
  195.2160  174.9830  145.9200 C   0  0  0  0  0  2  0  0  0  0  0  0
  194.7190  176.0650  143.7950 C   0  0  2  0  0  3  0  0  0  0  0  0
  194.6260  176.4230  141.2990 N   0  0  0  0  0  1  0  0  0  0  0  0
  195.0580  174.3220  142.1850 O   0  0  0  0  0  0  0  0  0  0  0  0
  194.8100  175.5380  142.3970 C   0  0  0  0  0  0  0  0  0  0  0  0
  187.9460  176.2450  145.2560 C   0  0  0  0  0  3  0  0  0  0  0  0
  187.5220  176.9850  146.2770 C   0  0  0  0  0  3  0  0  0  0  0  0
  186.1420  176.8000  146.8080 C   0  0  0  0  0  2  0  0  0  0  0  0
  184.1520  178.3300  146.5720 N   0  0  0  0  0  1  0  0  0  0  0  0
  185.4920  178.1250  147.0010 C   0  0  0  0  0  0  0  0  0  0  0  0
  186.1180  179.0570  147.5710 O   0  0  0  0  0  0  0  0  0  0  0  0
  188.3140  178.3550  143.4080 N   0  0  0  0  0  2  0  0  0  0  0  0
  184.4080  178.5250  140.5150 N   0  0  0  0  0  2  0  0  0  0  0  0
  185.4460  178.4140  143.1080 N   0  0  0  0  0  2  0  0  0  0  0  0
  186.3260  178.2090  141.9960 C   0  0  0  0  0  0  0  0  0  0  0  0
  183.5620  178.0190  141.5930 C   0  0  0  0  0  2  0  0  0  0  0  0
  187.6520  178.2010  142.1440 C   0  0  0  0  0  3  0  0  0  0  0  0
  185.7420  177.9350  140.6410 C   0  0  0  0  0  2  0  0  0  0  0  0
  184.0160  178.6300  142.9160 C   0  0  0  0  0  2  0  0  0  0  0  0
  1  9  1  0  0  0  0
  2  5  2  0  0  0  0
  2  6  1  0  0  0  0
  3 11  1  0  0  0  0
  4  1  2  0  0  0  0
  4  3  1  0  0  0  0
  5  9  1  0  0  0  0
  6  3  2  0  0  0  0
  7  1  1  0  0  0  0
  8  4  1  0  0  0  0
  9 18  1  6  0  0  0
 10 13  1  0  0  0  0
 11 12  1  0  0  0  0
 12 13  1  0  0  0  0
 14 17  1  6  0  0  0
 14 11  1  0  0  0  0
 14 10  1  0  0  0  0
 15 17  1  0  0  0  0
 16 17  2  0  0  0  0
 18 19  2  0  0  0  0
 19 20  1  0  0  0  0
 20 22  1  0  0  0  0
 21 22  1  0  0  0  0
 22 23  2  0  0  0  0
 24  5  1  0  0  0  0
 25 30  1  0  0  0  0
 25 28  1  0  0  0  0
 27 29  2  0  0  0  0
 27 26  1  0  0  0  0
 28 31  1  0  0  0  0
 29 24  1  0  0  0  0
 30 27  1  0  0  0  0
 31 26  1  0  0  0  0
M  END
>  <MODEL>
3

>  <REMARK>
 VINA RESULT:      -7.2      1.243      1.869
  Name = 
  7 active torsions:
  status: ('A' for Active; 'I' for Inactive)
    1  A    between atoms: C_3  and  C_29
    2  A    between atoms: N_5  and  C_13
    3  A    between atoms: C_11  and  C_21
    4  A    between atoms: C_16  and  N_17
    5  A    between atoms: N_17  and  C_18
    6  A    between atoms: C_21  and  C_24
    7  A    between atoms: C_30  and  C_31
                            x       y       z     vdW  Elec       q    Type
                         _______ _______ _______ _____ _____    ______ ____

>  <TORSDO>
F 7

$$$$
=
 OpenBabel11042414033D

 31 33  0  0  1  0  0  0  0  0999 V2000
  189.8550  174.7640  144.8340 C   0  0  0  0  0  0  0  0  0  0  0  0
  190.6760  177.6100  144.1660 C   0  0  0  0  0  3  0  0  0  0  0  0
  188.6500  176.8570  145.4860 C   0  0  0  0  0  0  0  0  0  0  0  0
  189.1630  175.4750  145.7420 C   0  0  0  0  0  0  0  0  0  0  0  0
  191.0830  176.4780  143.5810 C   0  0  0  0  0  0  0  0  0  0  0  0
  189.3730  177.7910  144.8360 C   0  0  0  0  0  3  0  0  0  0  0  0
  190.3500  173.5050  145.1710 O   0  0  0  0  0  1  0  0  0  0  0  0
  188.9080  174.8740  147.0880 C   0  0  0  0  0  1  0  0  0  0  0  0
  190.1280  175.3250  143.4680 C   0  0  1  0  0  3  0  0  0  0  0  0
  185.0660  177.2590  146.5860 C   0  0  0  0  0  2  0  0  0  0  0  0
  187.3820  177.2460  146.0510 N   0  0  0  0  0  0  0  0  0  0  0  0
  187.2810  177.9870  147.2940 C   0  0  0  0  0  2  0  0  0  0  0  0
  185.8420  177.8460  147.7540 C   0  0  0  0  0  2  0  0  0  0  0  0
  186.0970  176.7300  145.6040 C   0  0  2  0  0  3  0  0  0  0  0  0
  185.9830  176.3430  143.1130 N   0  0  0  0  0  1  0  0  0  0  0  0
  185.3210  178.3680  144.0350 O   0  0  0  0  0  0  0  0  0  0  0  0
  185.7780  177.2090  144.2220 C   0  0  0  0  0  0  0  0  0  0  0  0
  190.5760  174.2850  142.4800 C   0  0  0  0  0  3  0  0  0  0  0  0
  189.9540  174.1470  141.3120 C   0  0  0  0  0  3  0  0  0  0  0  0
  190.4100  173.1090  140.3440 C   0  0  0  0  0  2  0  0  0  0  0  0
  188.2080  172.5940  139.2300 N   0  0  0  0  0  1  0  0  0  0  0  0
  189.5300  173.1140  139.1450 C   0  0  0  0  0  0  0  0  0  0  0  0
  189.9430  173.6040  138.0620 O   0  0  0  0  0  0  0  0  0  0  0  0
  192.3900  176.3940  142.9900 N   0  0  0  0  0  0  0  0  0  0  0  0
  197.2400  176.2150  143.3090 N   0  0  0  0  0  2  0  0  0  0  0  0
  194.9650  176.3180  141.6900 N   0  0  0  0  0  0  0  0  0  0  0  0
  194.8110  176.0750  143.0940 C   0  0  0  0  0  0  0  0  0  0  0  0
  197.3340  175.7480  141.9280 C   0  0  0  0  0  2  0  0  0  0  0  0
  193.6160  176.1300  143.6880 C   0  0  0  0  0  3  0  0  0  0  0  0
  196.0120  175.6890  143.9060 C   0  0  0  0  0  2  0  0  0  0  0  0
  196.2840  176.4630  141.0840 C   0  0  0  0  0  2  0  0  0  0  0  0
  1  7  1  0  0  0  0
  1  4  2  0  0  0  0
  2  6  1  0  0  0  0
  3  4  1  0  0  0  0
  3 11  1  0  0  0  0
  4  8  1  0  0  0  0
  5  2  2  0  0  0  0
  6  3  2  0  0  0  0
  9 18  1  6  0  0  0
  9  5  1  0  0  0  0
  9  1  1  0  0  0  0
 10 13  1  0  0  0  0
 11 12  1  0  0  0  0
 12 13  1  0  0  0  0
 14 17  1  6  0  0  0
 14 11  1  0  0  0  0
 14 10  1  0  0  0  0
 15 17  1  0  0  0  0
 16 17  2  0  0  0  0
 19 18  2  0  0  0  0
 20 19  1  0  0  0  0
 22 21  1  0  0  0  0
 22 20  1  0  0  0  0
 23 22  2  0  0  0  0
 24  5  1  0  0  0  0
 24 29  2  0  0  0  0
 25 30  1  0  0  0  0
 26 27  2  0  0  0  0
 27 29  1  0  0  0  0
 27 30  1  0  0  0  0
 28 25  1  0  0  0  0
 31 26  1  0  0  0  0
 31 28  1  0  0  0  0
M  END
>  <MODEL>
4

>  <REMARK>
 VINA RESULT:      -7.1      2.653      8.267
  Name = 
  7 active torsions:
  status: ('A' for Active; 'I' for Inactive)
    1  A    between atoms: C_3  and  C_29
    2  A    between atoms: N_5  and  C_13
    3  A    between atoms: C_11  and  C_21
    4  A    between atoms: C_16  and  N_17
    5  A    between atoms: N_17  and  C_18
    6  A    between atoms: C_21  and  C_24
    7  A    between atoms: C_30  and  C_31
                            x       y       z     vdW  Elec       q    Type
                         _______ _______ _______ _____ _____    ______ ____

>  <TORSDO>
F 7

$$$$
=
 OpenBabel11042414033D

 31 33  0  0  1  0  0  0  0  0999 V2000
  188.9240  175.3820  146.2680 C   0  0  0  0  0  0  0  0  0  0  0  0
  190.3340  177.7350  144.9640 C   0  0  0  0  0  3  0  0  0  0  0  0
  187.8500  177.2420  144.9850 C   0  0  0  0  0  0  0  0  0  0  0  0
  187.9180  176.2610  146.1130 C   0  0  0  0  0  0  0  0  0  0  0  0
  190.8670  176.5740  145.3620 C   0  0  0  0  0  0  0  0  0  0  0  0
  188.9300  177.9170  144.5440 C   0  0  0  0  0  3  0  0  0  0  0  0
  188.9440  174.5410  147.3800 O   0  0  0  0  0  1  0  0  0  0  0  0
  186.8160  176.2840  147.1250 C   0  0  0  0  0  1  0  0  0  0  0  0
  190.0470  175.3200  145.2730 C   0  0  1  0  0  3  0  0  0  0  0  0
  184.6790  178.8150  143.6870 C   0  0  0  0  0  2  0  0  0  0  0  0
  186.5640  177.5670  144.4190 N   0  0  0  0  0  0  0  0  0  0  0  0
  185.9330  176.7450  143.4030 C   0  0  0  0  0  2  0  0  0  0  0  0
  184.8410  177.5990  142.7870 C   0  0  0  0  0  2  0  0  0  0  0  0
  185.8950  178.8480  144.5940 C   0  0  2  0  0  3  0  0  0  0  0  0
  184.1930  178.5660  146.4360 N   0  0  0  0  0  1  0  0  0  0  0  0
  186.2290  179.6030  146.8450 O   0  0  0  0  0  0  0  0  0  0  0  0
  185.4670  179.0380  146.0160 C   0  0  0  0  0  0  0  0  0  0  0  0
  190.8710  174.0690  145.3870 C   0  0  0  0  0  3  0  0  0  0  0  0
  191.2050  173.3740  144.3040 C   0  0  0  0  0  3  0  0  0  0  0  0
  192.0220  172.1340  144.4360 C   0  0  0  0  0  2  0  0  0  0  0  0
  192.5890  170.1530  142.9850 N   0  0  0  0  0  1  0  0  0  0  0  0
  191.6770  171.1830  143.3460 C   0  0  0  0  0  0  0  0  0  0  0  0
  190.5650  171.2690  142.7620 O   0  0  0  0  0  0  0  0  0  0  0  0
  192.2380  176.5130  145.7880 N   0  0  0  0  0  2  0  0  0  0  0  0
  196.4230  175.2620  143.6480 N   0  0  0  0  0  2  0  0  0  0  0  0
  194.5070  174.7410  145.6160 N   0  0  0  0  0  2  0  0  0  0  0  0
  194.4500  175.9810  144.8990 C   0  0  0  0  0  0  0  0  0  0  0  0
  196.8060  174.4700  144.8150 C   0  0  0  0  0  2  0  0  0  0  0  0
  193.3880  176.7840  144.9740 C   0  0  0  0  0  3  0  0  0  0  0  0
  195.6400  176.4160  144.0950 C   0  0  0  0  0  2  0  0  0  0  0  0
  195.5700  173.7710  145.3730 C   0  0  0  0  0  2  0  0  0  0  0  0
  1  7  1  0  0  0  0
  2  5  2  0  0  0  0
  3  4  1  0  0  0  0
  4  1  2  0  0  0  0
  4  8  1  0  0  0  0
  5 24  1  0  0  0  0
  6  2  1  0  0  0  0
  6  3  2  0  0  0  0
  9  5  1  0  0  0  0
  9 18  1  1  0  0  0
  9  1  1  0  0  0  0
 10 14  1  0  0  0  0
 11 14  1  0  0  0  0
 11  3  1  0  0  0  0
 12 11  1  0  0  0  0
 13 12  1  0  0  0  0
 13 10  1  0  0  0  0
 14 17  1  1  0  0  0
 17 15  1  0  0  0  0
 17 16  2  0  0  0  0
 19 20  1  0  0  0  0
 19 18  2  0  0  0  0
 21 22  1  0  0  0  0
 22 20  1  0  0  0  0
 23 22  2  0  0  0  0
 25 30  1  0  0  0  0
 25 28  1  0  0  0  0
 27 29  2  0  0  0  0
 27 26  1  0  0  0  0
 28 31  1  0  0  0  0
 29 24  1  0  0  0  0
 30 27  1  0  0  0  0
 31 26  1  0  0  0  0
M  END
>  <MODEL>
5

>  <REMARK>
 VINA RESULT:      -7.0      2.192      8.398
  Name = 
  7 active torsions:
  status: ('A' for Active; 'I' for Inactive)
    1  A    between atoms: C_3  and  C_29
    2  A    between atoms: N_5  and  C_13
    3  A    between atoms: C_11  and  C_21
    4  A    between atoms: C_16  and  N_17
    5  A    between atoms: N_17  and  C_18
    6  A    between atoms: C_21  and  C_24
    7  A    between atoms: C_30  and  C_31
                            x       y       z     vdW  Elec       q    Type
                         _______ _______ _______ _____ _____    ______ ____

>  <TORSDO>
F 7

$$$$
=
 OpenBabel11042414033D

 31 33  0  0  1  0  0  0  0  0999 V2000
  189.8300  174.8950  145.0470 C   0  0  0  0  0  0  0  0  0  0  0  0
  190.6580  177.7470  144.4140 C   0  0  0  0  0  3  0  0  0  0  0  0
  188.5510  176.9760  145.5880 C   0  0  0  0  0  0  0  0  0  0  0  0
  189.0630  175.6040  145.8950 C   0  0  0  0  0  0  0  0  0  0  0  0
  191.1230  176.6160  143.8710 C   0  0  0  0  0  0  0  0  0  0  0  0
  189.3060  177.9150  144.9840 C   0  0  0  0  0  3  0  0  0  0  0  0
  190.3170  173.6460  145.4320 O   0  0  0  0  0  1  0  0  0  0  0  0
  188.7180  175.0110  147.2240 C   0  0  0  0  0  1  0  0  0  0  0  0
  190.1950  175.4490  143.7000 C   0  0  1  0  0  3  0  0  0  0  0  0
  184.8930  177.3230  146.4320 C   0  0  0  0  0  2  0  0  0  0  0  0
  187.2390  177.3510  146.0550 N   0  0  0  0  0  0  0  0  0  0  0  0
  187.0380  178.1250  147.2650 C   0  0  0  0  0  2  0  0  0  0  0  0
  185.5740  177.9640  147.6320 C   0  0  0  0  0  2  0  0  0  0  0  0
  185.9990  176.7900  145.5390 C   0  0  2  0  0  3  0  0  0  0  0  0
  185.3520  178.5550  143.8550 N   0  0  0  0  0  1  0  0  0  0  0  0
  185.9390  176.4150  143.1720 O   0  0  0  0  0  0  0  0  0  0  0  0
  185.7640  177.2210  144.1250 C   0  0  0  0  0  0  0  0  0  0  0  0
  190.7290  174.4080  142.7570 C   0  0  0  0  0  3  0  0  0  0  0  0
  190.0380  174.0490  141.6790 C   0  0  0  0  0  3  0  0  0  0  0  0
  190.5820  173.0140  140.7550 C   0  0  0  0  0  2  0  0  0  0  0  0
  192.3260  171.4380  141.6660 N   0  0  0  0  0  1  0  0  0  0  0  0
  190.9570  171.7970  141.5250 C   0  0  0  0  0  0  0  0  0  0  0  0
  190.0660  171.1000  142.0760 O   0  0  0  0  0  0  0  0  0  0  0  0
  192.4710  176.5480  143.3790 N   0  0  0  0  0  2  0  0  0  0  0  0
  196.7810  174.5520  144.4250 N   0  0  0  0  0  2  0  0  0  0  0  0
  194.3480  174.3800  143.0610 N   0  0  0  0  0  2  0  0  0  0  0  0
  194.5210  175.4010  144.0520 C   0  0  0  0  0  0  0  0  0  0  0  0
  196.2980  173.2380  144.0060 C   0  0  0  0  0  2  0  0  0  0  0  0
  193.6550  176.4090  144.1780 C   0  0  0  0  0  3  0  0  0  0  0  0
  195.6700  175.3020  145.0110 C   0  0  0  0  0  2  0  0  0  0  0  0
  195.3950  173.4020  142.7870 C   0  0  0  0  0  2  0  0  0  0  0  0
  1  7  1  0  0  0  0
  1  4  2  0  0  0  0
  2  6  1  0  0  0  0
  3  4  1  0  0  0  0
  3 11  1  0  0  0  0
  4  8  1  0  0  0  0
  5  2  2  0  0  0  0
  6  3  2  0  0  0  0
  9 18  1  6  0  0  0
  9  5  1  0  0  0  0
  9  1  1  0  0  0  0
 10 13  1  0  0  0  0
 11 12  1  0  0  0  0
 12 13  1  0  0  0  0
 14 17  1  6  0  0  0
 14 11  1  0  0  0  0
 14 10  1  0  0  0  0
 15 17  1  0  0  0  0
 16 17  2  0  0  0  0
 19 18  2  0  0  0  0
 20 22  1  0  0  0  0
 20 19  1  0  0  0  0
 22 21  1  0  0  0  0
 22 23  2  0  0  0  0
 24  5  1  0  0  0  0
 24 29  1  0  0  0  0
 25 30  1  0  0  0  0
 26 27  1  0  0  0  0
 27 29  2  0  0  0  0
 27 30  1  0  0  0  0
 28 25  1  0  0  0  0
 31 26  1  0  0  0  0
 31 28  1  0  0  0  0
M  END
>  <MODEL>
6

>  <REMARK>
 VINA RESULT:      -6.7      2.456      8.316
  Name = 
  7 active torsions:
  status: ('A' for Active; 'I' for Inactive)
    1  A    between atoms: C_3  and  C_29
    2  A    between atoms: N_5  and  C_13
    3  A    between atoms: C_11  and  C_21
    4  A    between atoms: C_16  and  N_17
    5  A    between atoms: N_17  and  C_18
    6  A    between atoms: C_21  and  C_24
    7  A    between atoms: C_30  and  C_31
                            x       y       z     vdW  Elec       q    Type
                         _______ _______ _______ _____ _____    ______ ____

>  <TORSDO>
F 7

$$$$
=
 OpenBabel11042414033D

 31 33  0  0  1  0  0  0  0  0999 V2000
  192.4090  176.1780  143.7880 C   0  0  0  0  0  0  0  0  0  0  0  0
  191.9080  175.9520  146.7750 C   0  0  0  0  0  3  0  0  0  0  0  0
  193.7970  174.9150  145.4430 C   0  0  0  0  0  0  0  0  0  0  0  0
  193.6140  175.7940  144.2460 C   0  0  0  0  0  0  0  0  0  0  0  0
  191.0450  176.3220  145.8220 C   0  0  0  0  0  0  0  0  0  0  0  0
  193.0620  175.0550  146.5650 C   0  0  0  0  0  3  0  0  0  0  0  0
  192.3250  177.0470  142.7010 O   0  0  0  0  0  1  0  0  0  0  0  0
  194.8420  176.2830  143.5450 C   0  0  0  0  0  1  0  0  0  0  0  0
  191.1500  175.7060  144.4570 C   0  0  1  0  0  3  0  0  0  0  0  0
  196.3070  172.1820  144.7810 C   0  0  0  0  0  2  0  0  0  0  0  0
  194.8730  173.9560  145.4470 N   0  0  0  0  0  0  0  0  0  0  0  0
  196.1260  174.1980  146.1380 C   0  0  0  0  0  2  0  0  0  0  0  0
  197.1150  173.1900  145.5840 C   0  0  0  0  0  2  0  0  0  0  0  0
  194.9350  172.7960  144.5690 C   0  0  2  0  0  3  0  0  0  0  0  0
  194.1970  170.6810  145.7300 N   0  0  0  0  0  1  0  0  0  0  0  0
  192.6900  171.9580  144.5100 O   0  0  0  0  0  0  0  0  0  0  0  0
  193.8710  171.8030  144.9190 C   0  0  0  0  0  0  0  0  0  0  0  0
  189.9200  175.9190  143.6210 C   0  0  0  0  0  3  0  0  0  0  0  0
  189.0030  174.9620  143.5060 C   0  0  0  0  0  3  0  0  0  0  0  0
  187.7900  175.1890  142.6710 C   0  0  0  0  0  2  0  0  0  0  0  0
  188.8960  174.1590  140.6530 N   0  0  0  0  0  1  0  0  0  0  0  0
  188.1670  175.2340  141.2330 C   0  0  0  0  0  0  0  0  0  0  0  0
  187.8170  176.2110  140.5200 O   0  0  0  0  0  0  0  0  0  0  0  0
  189.9760  177.2340  146.1250 N   0  0  0  0  0  2  0  0  0  0  0  0
  185.1480  176.7920  146.5120 N   0  0  0  0  0  2  0  0  0  0  0  0
  187.3370  177.8840  145.1600 N   0  0  0  0  0  2  0  0  0  0  0  0
  187.5500  177.2270  146.4160 C   0  0  0  0  0  0  0  0  0  0  0  0
  184.9530  177.9980  145.7110 C   0  0  0  0  0  2  0  0  0  0  0  0
  188.7760  176.9160  146.8440 C   0  0  0  0  0  3  0  0  0  0  0  0
  186.3730  176.9390  147.3000 C   0  0  0  0  0  2  0  0  0  0  0  0
  185.9980  178.0350  144.6000 C   0  0  0  0  0  2  0  0  0  0  0  0
  1  4  2  0  0  0  0
  1  9  1  0  0  0  0
  3 11  1  0  0  0  0
  3  6  2  0  0  0  0
  4  3  1  0  0  0  0
  5 24  1  0  0  0  0
  5  2  2  0  0  0  0
  6  2  1  0  0  0  0
  7  1  1  0  0  0  0
  8  4  1  0  0  0  0
  9 18  1  6  0  0  0
  9  5  1  0  0  0  0
 10 13  1  0  0  0  0
 11 12  1  0  0  0  0
 13 12  1  0  0  0  0
 14 10  1  0  0  0  0
 14 17  1  1  0  0  0
 14 11  1  0  0  0  0
 16 17  2  0  0  0  0
 17 15  1  0  0  0  0
 19 18  2  0  0  0  0
 20 19  1  0  0  0  0
 21 22  1  0  0  0  0
 22 20  1  0  0  0  0
 23 22  2  0  0  0  0
 24 29  1  0  0  0  0
 25 30  1  0  0  0  0
 26 27  1  0  0  0  0
 27 29  2  0  0  0  0
 27 30  1  0  0  0  0
 28 25  1  0  0  0  0
 31 26  1  0  0  0  0
 31 28  1  0  0  0  0
M  END
>  <MODEL>
7

>  <REMARK>
 VINA RESULT:      -6.6      2.885      4.729
  Name = 
  7 active torsions:
  status: ('A' for Active; 'I' for Inactive)
    1  A    between atoms: C_3  and  C_29
    2  A    between atoms: N_5  and  C_13
    3  A    between atoms: C_11  and  C_21
    4  A    between atoms: C_16  and  N_17
    5  A    between atoms: N_17  and  C_18
    6  A    between atoms: C_21  and  C_24
    7  A    between atoms: C_30  and  C_31
                            x       y       z     vdW  Elec       q    Type
                         _______ _______ _______ _____ _____    ______ ____

>  <TORSDO>
F 7

$$$$
=
 OpenBabel11042414033D

 31 33  0  0  1  0  0  0  0  0999 V2000
  190.0800  176.4160  143.0670 C   0  0  0  0  0  0  0  0  0  0  0  0
  188.3550  174.0180  142.3630 C   0  0  0  0  0  3  0  0  0  0  0  0
  187.5800  176.3490  142.9820 C   0  0  0  0  0  0  0  0  0  0  0  0
  188.9090  176.9970  142.7500 C   0  0  0  0  0  0  0  0  0  0  0  0
  189.6380  174.0260  142.7390 C   0  0  0  0  0  0  0  0  0  0  0  0
  187.3600  175.0410  142.7430 C   0  0  0  0  0  3  0  0  0  0  0  0
  191.2780  177.0610  142.7640 O   0  0  0  0  0  1  0  0  0  0  0  0
  188.9240  178.3500  142.1110 C   0  0  0  0  0  1  0  0  0  0  0  0
  190.1120  175.0620  143.7160 C   0  0  1  0  0  3  0  0  0  0  0  0
  185.1510  178.8070  144.4890 C   0  0  0  0  0  2  0  0  0  0  0  0
  186.4610  177.1720  143.3660 N   0  0  0  0  0  0  0  0  0  0  0  0
  185.3820  177.4920  142.4500 C   0  0  0  0  0  2  0  0  0  0  0  0
  184.6430  178.6670  143.0620 C   0  0  0  0  0  2  0  0  0  0  0  0
  186.4150  177.9710  144.5820 C   0  0  2  0  0  3  0  0  0  0  0  0
  187.5340  176.8970  146.5730 N   0  0  0  0  0  1  0  0  0  0  0  0
  185.2800  176.5440  146.1400 O   0  0  0  0  0  0  0  0  0  0  0  0
  186.3590  177.0960  145.7960 C   0  0  0  0  0  0  0  0  0  0  0  0
  191.4440  174.7300  144.3260 C   0  0  0  0  0  3  0  0  0  0  0  0
  191.7350  175.1060  145.5690 C   0  0  0  0  0  3  0  0  0  0  0  0
  193.0620  174.7690  146.1580 C   0  0  0  0  0  2  0  0  0  0  0  0
  194.8260  176.0250  144.8670 N   0  0  0  0  0  1  0  0  0  0  0  0
  193.9880  175.9240  146.0120 C   0  0  0  0  0  0  0  0  0  0  0  0
  194.0090  176.8290  146.8870 O   0  0  0  0  0  0  0  0  0  0  0  0
  190.5360  173.0010  142.2800 N   0  0  0  0  0  2  0  0  0  0  0  0
  190.7910  171.2000  137.7700 N   0  0  0  0  0  2  0  0  0  0  0  0
  191.0270  173.4070  139.4670 N   0  0  0  0  0  2  0  0  0  0  0  0
  190.4530  172.1960  139.9750 C   0  0  0  0  0  0  0  0  0  0  0  0
  190.6650  172.5410  137.2050 C   0  0  0  0  0  2  0  0  0  0  0  0
  190.2460  172.0130  141.2810 C   0  0  0  0  0  3  0  0  0  0  0  0
  190.0170  171.1330  139.0100 C   0  0  0  0  0  2  0  0  0  0  0  0
  191.4430  173.5250  138.0730 C   0  0  0  0  0  2  0  0  0  0  0  0
  1  9  1  0  0  0  0
  2  5  2  0  0  0  0
  2  6  1  0  0  0  0
  3 11  1  0  0  0  0
  4  3  1  0  0  0  0
  4  1  2  0  0  0  0
  5  9  1  0  0  0  0
  6  3  2  0  0  0  0
  7  1  1  0  0  0  0
  8  4  1  0  0  0  0
  9 18  1  6  0  0  0
 10 14  1  0  0  0  0
 11 14  1  0  0  0  0
 12 13  1  0  0  0  0
 12 11  1  0  0  0  0
 13 10  1  0  0  0  0
 14 17  1  1  0  0  0
 17 16  2  0  0  0  0
 17 15  1  0  0  0  0
 18 19  2  0  0  0  0
 19 20  1  0  0  0  0
 21 22  1  0  0  0  0
 22 20  1  0  0  0  0
 22 23  2  0  0  0  0
 24  5  1  0  0  0  0
 25 30  1  0  0  0  0
 26 27  1  0  0  0  0
 27 29  2  0  0  0  0
 28 25  1  0  0  0  0
 28 31  1  0  0  0  0
 29 24  1  0  0  0  0
 30 27  1  0  0  0  0
 31 26  1  0  0  0  0
M  END
>  <MODEL>
8

>  <REMARK>
 VINA RESULT:      -6.3      3.243      7.408
  Name = 
  7 active torsions:
  status: ('A' for Active; 'I' for Inactive)
    1  A    between atoms: C_3  and  C_29
    2  A    between atoms: N_5  and  C_13
    3  A    between atoms: C_11  and  C_21
    4  A    between atoms: C_16  and  N_17
    5  A    between atoms: N_17  and  C_18
    6  A    between atoms: C_21  and  C_24
    7  A    between atoms: C_30  and  C_31
                            x       y       z     vdW  Elec       q    Type
                         _______ _______ _______ _____ _____    ______ ____

>  <TORSDO>
F 7

$$$$
=
 OpenBabel11042414033D

 31 33  0  0  1  0  0  0  0  0999 V2000
  190.0490  176.3470  143.0550 C   0  0  0  0  0  0  0  0  0  0  0  0
  188.2850  173.9760  142.3570 C   0  0  0  0  0  3  0  0  0  0  0  0
  187.5500  176.3250  142.9580 C   0  0  0  0  0  0  0  0  0  0  0  0
  188.8910  176.9470  142.7290 C   0  0  0  0  0  0  0  0  0  0  0  0
  189.5670  173.9630  142.7390 C   0  0  0  0  0  0  0  0  0  0  0  0
  187.3060  175.0190  142.7260 C   0  0  0  0  0  3  0  0  0  0  0  0
  191.2610  176.9690  142.7550 O   0  0  0  0  0  1  0  0  0  0  0  0
  188.9330  178.2950  142.0820 C   0  0  0  0  0  1  0  0  0  0  0  0
  190.0540  174.9970  143.7120 C   0  0  1  0  0  3  0  0  0  0  0  0
  185.1660  178.8560  144.4150 C   0  0  0  0  0  2  0  0  0  0  0  0
  186.4430  177.1700  143.3310 N   0  0  0  0  0  0  0  0  0  0  0  0
  185.3490  177.4620  142.4250 C   0  0  0  0  0  2  0  0  0  0  0  0
  184.6290  178.6650  143.0050 C   0  0  0  0  0  2  0  0  0  0  0  0
  186.4250  178.0150  144.5170 C   0  0  2  0  0  3  0  0  0  0  0  0
  187.6030  176.8530  146.4220 N   0  0  0  0  0  1  0  0  0  0  0  0
  185.2900  176.7940  146.2390 O   0  0  0  0  0  0  0  0  0  0  0  0
  186.3880  177.1870  145.7630 C   0  0  0  0  0  0  0  0  0  0  0  0
  191.3770  174.6440  144.3310 C   0  0  0  0  0  3  0  0  0  0  0  0
  191.6710  175.0300  145.5700 C   0  0  0  0  0  3  0  0  0  0  0  0
  192.9890  174.6730  146.1680 C   0  0  0  0  0  2  0  0  0  0  0  0
  194.8750  175.8690  144.9980 N   0  0  0  0  0  1  0  0  0  0  0  0
  193.9240  175.8240  146.0560 C   0  0  0  0  0  0  0  0  0  0  0  0
  193.8550  176.7740  146.8790 O   0  0  0  0  0  0  0  0  0  0  0  0
  190.4480  172.9200  142.2900 N   0  0  0  0  0  2  0  0  0  0  0  0
  190.3960  169.1340  139.2380 N   0  0  0  0  0  2  0  0  0  0  0  0
  190.8330  170.1000  141.8240 N   0  0  0  0  0  2  0  0  0  0  0  0
  190.6580  171.0340  140.7510 C   0  0  0  0  0  0  0  0  0  0  0  0
  191.2450  168.3650  140.1450 C   0  0  0  0  0  2  0  0  0  0  0  0
  190.4630  172.3350  140.9800 C   0  0  0  0  0  3  0  0  0  0  0  0
  190.7570  170.5490  139.3350 C   0  0  0  0  0  2  0  0  0  0  0  0
  190.8360  168.6600  141.5850 C   0  0  0  0  0  2  0  0  0  0  0  0
  1  9  1  0  0  0  0
  2  6  1  0  0  0  0
  2  5  2  0  0  0  0
  3 11  1  0  0  0  0
  4  3  1  0  0  0  0
  4  1  2  0  0  0  0
  5  9  1  0  0  0  0
  6  3  2  0  0  0  0
  7  1  1  0  0  0  0
  8  4  1  0  0  0  0
  9 18  1  6  0  0  0
 10 14  1  0  0  0  0
 11 14  1  0  0  0  0
 12 13  1  0  0  0  0
 12 11  1  0  0  0  0
 13 10  1  0  0  0  0
 14 17  1  1  0  0  0
 17 16  2  0  0  0  0
 17 15  1  0  0  0  0
 18 19  2  0  0  0  0
 19 20  1  0  0  0  0
 21 22  1  0  0  0  0
 22 20  1  0  0  0  0
 22 23  2  0  0  0  0
 24  5  1  0  0  0  0
 25 30  1  0  0  0  0
 25 28  1  0  0  0  0
 27 29  2  0  0  0  0
 27 26  1  0  0  0  0
 28 31  1  0  0  0  0
 29 24  1  0  0  0  0
 30 27  1  0  0  0  0
 31 26  1  0  0  0  0
M  END
>  <MODEL>
9

>  <REMARK>
 VINA RESULT:      -6.3      3.404      7.793
  Name = 
  7 active torsions:
  status: ('A' for Active; 'I' for Inactive)
    1  A    between atoms: C_3  and  C_29
    2  A    between atoms: N_5  and  C_13
    3  A    between atoms: C_11  and  C_21
    4  A    between atoms: C_16  and  N_17
    5  A    between atoms: N_17  and  C_18
    6  A    between atoms: C_21  and  C_24
    7  A    between atoms: C_30  and  C_31
                            x       y       z     vdW  Elec       q    Type
                         _______ _______ _______ _____ _____    ______ ____

>  <TORSDO>
F 7

$$$$
