=
 OpenBabel11042417003D

 38 41  0  0  1  0  0  0  0  0999 V2000
  191.3250  176.7150  144.3240 C   0  0  2  0  0  3  0  0  0  0  0  0
  192.2350  171.1420  138.5620 N   0  0  0  0  0  1  0  0  0  0  0  0
  190.4080  174.8920  142.8780 C   0  0  1  0  0  3  0  0  0  0  0  0
  187.9640  175.3000  142.3770 C   0  0  1  0  0  3  0  0  0  0  0  0
  191.6110  175.7940  143.1530 C   0  0  1  0  0  3  0  0  0  0  0  0
  189.7130  172.7280  141.7870 C   0  0  0  0  0  0  0  0  0  0  0  0
  189.3240  175.7500  142.4690 N   0  0  1  0  0  0  0  0  0  0  0  0
  187.6060  174.0150  142.2290 C   0  0  0  0  0  3  0  0  0  0  0  0
  191.1010  171.0120  140.7260 N   0  0  0  0  0  0  0  0  0  0  0  0
  191.7260  171.8090  139.7090 C   0  0  0  0  0  0  0  0  0  0  0  0
  190.2260  171.3690  141.6160 C   0  0  0  0  0  3  0  0  0  0  0  0
  189.6880  177.1530  142.4950 C   0  0  0  0  0  2  0  0  0  0  0  0
  191.9640  173.1190  139.8150 C   0  0  0  0  0  3  0  0  0  0  0  0
  191.6030  174.0310  140.9080 C   0  0  0  0  0  3  0  0  0  0  0  0
  188.4400  172.8540  142.0310 N   0  0  0  0  0  0  0  0  0  0  0  0
  191.1520  177.2220  142.9030 C   0  0  1  0  0  3  0  0  0  0  0  0
  190.6420  173.8620  141.8200 C   0  0  1  0  0  3  0  0  0  0  0  0
  186.8940  176.2610  142.4700 C   0  0  0  0  0  0  0  0  0  0  0  0
  185.9960  177.0620  142.5430 C   0  0  0  0  0  0  0  0  0  0  0  0
  184.8970  178.0290  142.6260 C   0  0  0  0  0  2  0  0  0  0  0  0
  184.5450  178.3040  144.0760 C   0  0  0  0  0  2  0  0  0  0  0  0
  185.7320  178.7200  144.8080 N   0  0  0  0  0  2  0  0  0  0  0  0
  184.0680  177.9350  146.7170 O   0  0  0  0  0  0  0  0  0  0  0  0
  185.5130  178.2650  146.4640 S   0  0  0  0  0  0  0  0  0  0  0  0
  185.9320  179.3950  147.3640 O   0  0  0  0  0  0  0  0  0  0  0  0
  186.5190  176.8410  146.8200 C   0  0  0  0  0  2  0  0  0  0  0  0
  188.6080  175.6400  146.2730 C   0  0  0  0  0  1  0  0  0  0  0  0
  187.7870  176.8780  145.9910 C   0  0  0  0  0  2  0  0  0  0  0  0
  192.6340  177.2360  144.8810 C   0  0  0  0  0  2  0  0  0  0  0  0
  192.8230  175.6600  146.6880 N   0  0  0  0  0  2  0  0  0  0  0  0
  193.3410  176.1480  145.6090 C   0  0  0  0  0  0  0  0  0  0  0  0
  194.6260  175.7150  145.1530 N   0  0  0  0  0  2  0  0  0  0  0  0
  195.4280  174.7240  145.8570 C   0  0  0  0  0  2  0  0  0  0  0  0
  195.4100  173.4070  145.0990 C   0  0  0  0  0  2  0  0  0  0  0  0
  194.3180  172.4990  145.6420 C   0  0  0  0  0  2  0  0  0  0  0  0
  193.2140  172.2980  144.6160 C   0  0  1  0  0  3  0  0  0  0  0  0
  192.0860  172.9890  145.0160 F   0  0  0  0  0  0  0  0  0  0  0  0
  193.6310  172.7750  143.3730 O   0  0  0  0  0  1  0  0  0  0  0  0
  1 29  1  6  0  0  0
  2 10  1  0  0  0  0
  3  5  1  0  0  0  0
  4  7  1  0  0  0  0
  4 18  1  0  0  0  0
  5  1  1  0  0  0  0
  6 17  1  0  0  0  0
  6 15  1  0  0  0  0
  7 12  1  0  0  0  0
  7  3  1  0  0  0  0
  8  4  1  0  0  0  0
  9 11  1  0  0  0  0
 10 13  1  0  0  0  0
 10  9  2  0  0  0  0
 11  6  2  0  0  0  0
 12 16  1  0  0  0  0
 13 14  2  0  0  0  0
 14 17  1  0  0  0  0
 15  8  2  0  0  0  0
 16  5  1  0  0  0  0
 16  1  1  0  0  0  0
 17  3  1  0  0  0  0
 18 19  3  0  0  0  0
 19 20  1  0  0  0  0
 20 21  1  0  0  0  0
 21 22  1  0  0  0  0
 22 24  1  0  0  0  0
 24 23  2  0  0  0  0
 24 26  1  0  0  0  0
 24 25  2  0  0  0  0
 28 27  1  0  0  0  0
 28 26  1  0  0  0  0
 29 31  1  0  0  0  0
 31 30  2  0  0  0  0
 32 31  1  0  0  0  0
 32 33  1  0  0  0  0
 34 35  1  0  0  0  0
 34 33  1  0  0  0  0
 36 37  1  0  0  0  0
 36 35  1  0  0  0  0
 38 36  1  0  0  0  0
M  END
>  <MODEL>
1

>  <REMARK>
 VINA RESULT:      -6.2      0.000      0.000
  Name = 
  13 active torsions:
  status: ('A' for Active; 'I' for Inactive)
    1  A    between atoms: C_1  and  C_23
    2  A    between atoms: C_2  and  S_13
    3  A    between atoms: C_2  and  C_37
    4  A    between atoms: C_5  and  C_27
    5  A    between atoms: C_11  and  C_14
    6  A    between atoms: S_13  and  N_31
    7  A    between atoms: C_14  and  C_36
    8  A    between atoms: C_18  and  C_28
    9  A    between atoms: C_18  and  C_32
   10  A    between atoms: C_23  and  C_29
   11  A    between atoms: C_26  and  N_35
   12  A    between atoms: C_26  and  C_36
   13  A    between atoms: N_31  and  C_32
                            x       y       z     vdW  Elec       q    Type
                         _______ _______ _______ _____ _____    ______ ____

>  <TORSDO>
F 13

$$$$
=
 OpenBabel11042417003D

 38 41  0  0  1  0  0  0  0  0999 V2000
  188.5720  175.4990  142.5420 C   0  0  2  0  0  3  0  0  0  0  0  0
  191.2810  169.4900  137.8900 N   0  0  0  0  0  1  0  0  0  0  0  0
  190.3900  174.4060  141.2170 C   0  0  1  0  0  3  0  0  0  0  0  0
  192.6530  174.9120  142.2270 C   0  0  1  0  0  3  0  0  0  0  0  0
  188.9770  174.2520  141.7780 C   0  0  1  0  0  3  0  0  0  0  0  0
  191.9720  173.5320  139.4600 C   0  0  0  0  0  0  0  0  0  0  0  0
  191.2820  174.5020  142.3460 N   0  0  1  0  0  0  0  0  0  0  0  0
  193.3650  174.8330  141.0920 C   0  0  0  0  0  3  0  0  0  0  0  0
  191.5590  171.9120  137.6710 N   0  0  0  0  0  0  0  0  0  0  0  0
  191.1520  170.7850  138.4620 C   0  0  0  0  0  0  0  0  0  0  0  0
  191.9310  173.0910  138.0660 C   0  0  0  0  0  3  0  0  0  0  0  0
  190.5770  174.4740  143.6130 C   0  0  0  0  0  2  0  0  0  0  0  0
  190.5560  170.8740  139.6540 C   0  0  0  0  0  3  0  0  0  0  0  0
  190.2490  172.0770  140.4380 C   0  0  0  0  0  3  0  0  0  0  0  0
  192.9930  174.2550  139.8230 N   0  0  0  0  0  0  0  0  0  0  0  0
  189.1010  174.2900  143.2930 C   0  0  1  0  0  3  0  0  0  0  0  0
  190.8290  173.2770  140.3420 C   0  0  1  0  0  3  0  0  0  0  0  0
  193.3250  175.4720  143.3720 C   0  0  0  0  0  0  0  0  0  0  0  0
  193.8920  175.9340  144.3300 C   0  0  0  0  0  0  0  0  0  0  0  0
  194.5910  176.4920  145.4920 C   0  0  0  0  0  2  0  0  0  0  0  0
  193.6150  176.7290  146.6300 C   0  0  0  0  0  2  0  0  0  0  0  0
  192.7260  175.5850  146.7720 N   0  0  0  0  0  2  0  0  0  0  0  0
  191.4760  177.1410  148.5180 O   0  0  0  0  0  0  0  0  0  0  0  0
  191.2210  176.1660  147.4010 S   0  0  0  0  0  0  0  0  0  0  0  0
  190.4060  175.0140  147.9200 O   0  0  0  0  0  0  0  0  0  0  0  0
  190.3140  176.9750  146.1020 C   0  0  0  0  0  2  0  0  0  0  0  0
  187.9040  176.4310  146.1350 C   0  0  0  0  0  1  0  0  0  0  0  0
  188.9540  177.4110  146.6100 C   0  0  0  0  0  2  0  0  0  0  0  0
  187.0630  175.5410  142.6680 C   0  0  0  0  0  2  0  0  0  0  0  0
  187.4010  177.8650  142.1470 N   0  0  0  0  0  2  0  0  0  0  0  0
  186.5860  176.9460  142.5510 C   0  0  0  0  0  0  0  0  0  0  0  0
  185.2580  177.2760  142.9680 N   0  0  0  0  0  2  0  0  0  0  0  0
  184.7410  178.6370  142.9760 C   0  0  0  0  0  2  0  0  0  0  0  0
  184.0720  178.9320  144.3070 C   0  0  0  0  0  2  0  0  0  0  0  0
  185.0930  178.8960  145.4330 C   0  0  0  0  0  2  0  0  0  0  0  0
  184.5550  178.1370  146.6350 C   0  0  1  0  0  3  0  0  0  0  0  0
  184.6220  176.7790  146.3860 F   0  0  0  0  0  0  0  0  0  0  0  0
  185.3190  178.4360  147.7640 O   0  0  0  0  0  1  0  0  0  0  0  0
  1 29  1  1  0  0  0
  1 16  1  0  0  0  0
  2 10  1  0  0  0  0
  3  5  1  0  0  0  0
  3  7  1  0  0  0  0
  4  7  1  0  0  0  0
  4 18  1  0  0  0  0
  5  1  1  0  0  0  0
  5 16  1  0  0  0  0
  6 15  1  0  0  0  0
  6 17  1  0  0  0  0
  7 12  1  0  0  0  0
  8  4  1  0  0  0  0
  9 11  1  0  0  0  0
  9 10  2  0  0  0  0
 10 13  1  0  0  0  0
 11  6  2  0  0  0  0
 13 14  2  0  0  0  0
 15  8  2  0  0  0  0
 16 12  1  0  0  0  0
 17 14  1  0  0  0  0
 17  3  1  0  0  0  0
 18 19  3  0  0  0  0
 19 20  1  0  0  0  0
 20 21  1  0  0  0  0
 21 22  1  0  0  0  0
 22 24  1  0  0  0  0
 24 25  2  0  0  0  0
 24 23  2  0  0  0  0
 26 28  1  0  0  0  0
 26 24  1  0  0  0  0
 27 28  1  0  0  0  0
 30 31  2  0  0  0  0
 31 29  1  0  0  0  0
 31 32  1  0  0  0  0
 32 33  1  0  0  0  0
 33 34  1  0  0  0  0
 34 35  1  0  0  0  0
 35 36  1  0  0  0  0
 36 38  1  0  0  0  0
 37 36  1  0  0  0  0
M  END
>  <MODEL>
2

>  <REMARK>
 VINA RESULT:      -5.9      2.675      6.683
  Name = 
  13 active torsions:
  status: ('A' for Active; 'I' for Inactive)
    1  A    between atoms: C_1  and  C_23
    2  A    between atoms: C_2  and  S_13
    3  A    between atoms: C_2  and  C_37
    4  A    between atoms: C_5  and  C_27
    5  A    between atoms: C_11  and  C_14
    6  A    between atoms: S_13  and  N_31
    7  A    between atoms: C_14  and  C_36
    8  A    between atoms: C_18  and  C_28
    9  A    between atoms: C_18  and  C_32
   10  A    between atoms: C_23  and  C_29
   11  A    between atoms: C_26  and  N_35
   12  A    between atoms: C_26  and  C_36
   13  A    between atoms: N_31  and  C_32
                            x       y       z     vdW  Elec       q    Type
                         _______ _______ _______ _____ _____    ______ ____

>  <TORSDO>
F 13

$$$$
=
 OpenBabel11042417003D

 38 41  0  0  1  0  0  0  0  0999 V2000
  191.6410  175.9820  145.6710 C   0  0  2  0  0  3  0  0  0  0  0  0
  183.9510  178.2250  146.6360 N   0  0  0  0  0  1  0  0  0  0  0  0
  189.3530  176.4060  144.7540 C   0  0  1  0  0  3  0  0  0  0  0  0
  188.8650  174.8410  142.8270 C   0  0  1  0  0  3  0  0  0  0  0  0
  190.2020  176.3120  146.0210 C   0  0  1  0  0  3  0  0  0  0  0  0
  187.2080  177.3480  143.8240 C   0  0  0  0  0  0  0  0  0  0  0  0
  189.3390  175.0920  144.1590 N   0  0  1  0  0  0  0  0  0  0  0  0
  188.0170  175.6470  142.1680 C   0  0  0  0  0  3  0  0  0  0  0  0
  185.5680  178.8170  144.8970 N   0  0  0  0  0  0  0  0  0  0  0  0
  185.2090  177.9920  146.0170 C   0  0  0  0  0  0  0  0  0  0  0  0
  186.4030  178.5650  143.9360 C   0  0  0  0  0  3  0  0  0  0  0  0
  190.1480  174.1410  144.8970 C   0  0  0  0  0  2  0  0  0  0  0  0
  186.0210  177.1000  146.5880 C   0  0  0  0  0  3  0  0  0  0  0  0
  187.3810  176.7110  146.1920 C   0  0  0  0  0  3  0  0  0  0  0  0
  187.3310  176.8270  142.6370 N   0  0  0  0  0  0  0  0  0  0  0  0
  190.6970  174.8770  146.1110 C   0  0  1  0  0  3  0  0  0  0  0  0
  187.9460  176.8500  144.9890 C   0  0  1  0  0  3  0  0  0  0  0  0
  189.3290  173.6760  142.1200 C   0  0  0  0  0  0  0  0  0  0  0  0
  189.7150  172.6960  141.5320 C   0  0  0  0  0  0  0  0  0  0  0  0
  190.1760  171.4990  140.8230 C   0  0  0  0  0  2  0  0  0  0  0  0
  190.5790  170.4220  141.8140 C   0  0  0  0  0  2  0  0  0  0  0  0
  191.1080  171.0300  143.0250 N   0  0  0  0  0  2  0  0  0  0  0  0
  193.2170  169.6890  142.1410 O   0  0  0  0  0  0  0  0  0  0  0  0
  192.8320  170.8760  142.9800 S   0  0  0  0  0  0  0  0  0  0  0  0
  193.3660  170.6980  144.3740 O   0  0  0  0  0  0  0  0  0  0  0  0
  193.5350  172.3520  142.2770 C   0  0  0  0  0  2  0  0  0  0  0  0
  192.8850  174.7360  142.3120 C   0  0  0  0  0  1  0  0  0  0  0  0
  193.2450  173.5430  143.1690 C   0  0  0  0  0  2  0  0  0  0  0  0
  192.5370  176.3600  146.8320 C   0  0  0  0  0  2  0  0  0  0  0  0
  194.6270  177.4270  146.3020 N   0  0  0  0  0  2  0  0  0  0  0  0
  193.9620  176.3240  146.4010 C   0  0  0  0  0  0  0  0  0  0  0  0
  194.5510  175.0760  146.0210 N   0  0  0  0  0  2  0  0  0  0  0  0
  195.9060  174.9620  145.5010 C   0  0  0  0  0  2  0  0  0  0  0  0
  196.5990  173.7570  146.1130 C   0  0  0  0  0  2  0  0  0  0  0  0
  196.2400  172.4940  145.3470 C   0  0  0  0  0  2  0  0  0  0  0  0
  196.8430  171.2640  146.0070 C   0  0  1  0  0  3  0  0  0  0  0  0
  195.8330  170.3760  146.3270 F   0  0  0  0  0  0  0  0  0  0  0  0
  197.7370  170.6480  145.1310 O   0  0  0  0  0  1  0  0  0  0  0  0
  1  5  1  0  0  0  0
  1 16  1  0  0  0  0
  1 29  1  1  0  0  0
  3 17  1  0  0  0  0
  3  5  1  0  0  0  0
  4  7  1  0  0  0  0
  5 16  1  0  0  0  0
  6 11  2  0  0  0  0
  6 17  1  0  0  0  0
  7  3  1  0  0  0  0
  7 12  1  0  0  0  0
  8 15  2  0  0  0  0
  8  4  1  0  0  0  0
  9 10  2  0  0  0  0
 10 13  1  0  0  0  0
 10  2  1  0  0  0  0
 11  9  1  0  0  0  0
 12 16  1  0  0  0  0
 14 13  2  0  0  0  0
 15  6  1  0  0  0  0
 17 14  1  0  0  0  0
 18  4  1  0  0  0  0
 19 18  3  0  0  0  0
 20 19  1  0  0  0  0
 20 21  1  0  0  0  0
 21 22  1  0  0  0  0
 23 24  2  0  0  0  0
 24 22  1  0  0  0  0
 24 25  2  0  0  0  0
 26 24  1  0  0  0  0
 26 28  1  0  0  0  0
 27 28  1  0  0  0  0
 30 31  2  0  0  0  0
 31 29  1  0  0  0  0
 32 31  1  0  0  0  0
 33 32  1  0  0  0  0
 33 34  1  0  0  0  0
 35 36  1  0  0  0  0
 35 34  1  0  0  0  0
 36 37  1  0  0  0  0
 38 36  1  0  0  0  0
M  END
>  <MODEL>
3

>  <REMARK>
 VINA RESULT:      -5.9      3.798      6.832
  Name = 
  13 active torsions:
  status: ('A' for Active; 'I' for Inactive)
    1  A    between atoms: C_1  and  C_23
    2  A    between atoms: C_2  and  S_13
    3  A    between atoms: C_2  and  C_37
    4  A    between atoms: C_5  and  C_27
    5  A    between atoms: C_11  and  C_14
    6  A    between atoms: S_13  and  N_31
    7  A    between atoms: C_14  and  C_36
    8  A    between atoms: C_18  and  C_28
    9  A    between atoms: C_18  and  C_32
   10  A    between atoms: C_23  and  C_29
   11  A    between atoms: C_26  and  N_35
   12  A    between atoms: C_26  and  C_36
   13  A    between atoms: N_31  and  C_32
                            x       y       z     vdW  Elec       q    Type
                         _______ _______ _______ _____ _____    ______ ____

>  <TORSDO>
F 13

$$$$
=
 OpenBabel11042417003D

 38 41  0  0  1  0  0  0  0  0999 V2000
  191.7070  175.9660  145.7120 C   0  0  2  0  0  3  0  0  0  0  0  0
  184.0770  178.2900  146.9260 N   0  0  0  0  0  1  0  0  0  0  0  0
  189.3810  176.3580  144.8820 C   0  0  1  0  0  3  0  0  0  0  0  0
  188.7980  174.7090  143.0560 C   0  0  1  0  0  3  0  0  0  0  0  0
  190.2870  176.3190  146.1120 C   0  0  1  0  0  3  0  0  0  0  0  0
  187.1970  177.2680  144.0110 C   0  0  0  0  0  0  0  0  0  0  0  0
  189.3350  175.0190  144.3510 N   0  0  1  0  0  0  0  0  0  0  0  0
  187.9230  175.4880  142.4000 C   0  0  0  0  0  3  0  0  0  0  0  0
  185.6130  178.7930  145.0880 N   0  0  0  0  0  0  0  0  0  0  0  0
  185.3040  178.0230  146.2610 C   0  0  0  0  0  0  0  0  0  0  0  0
  186.4020  178.4920  144.1030 C   0  0  0  0  0  3  0  0  0  0  0  0
  190.1740  174.0990  145.0940 C   0  0  0  0  0  2  0  0  0  0  0  0
  186.1390  177.1530  146.8350 C   0  0  0  0  0  3  0  0  0  0  0  0
  187.4780  176.7400  146.3950 C   0  0  0  0  0  3  0  0  0  0  0  0
  187.2640  176.6920  142.8440 N   0  0  0  0  0  0  0  0  0  0  0  0
  190.7810  174.8880  146.2450 C   0  0  1  0  0  3  0  0  0  0  0  0
  187.9870  176.8210  145.1620 C   0  0  1  0  0  3  0  0  0  0  0  0
  189.2260  173.5100  142.3820 C   0  0  0  0  0  0  0  0  0  0  0  0
  189.5880  172.5050  141.8230 C   0  0  0  0  0  0  0  0  0  0  0  0
  190.0330  171.2790  141.1530 C   0  0  0  0  0  2  0  0  0  0  0  0
  191.2660  171.5550  140.3120 C   0  0  0  0  0  2  0  0  0  0  0  0
  192.4690  171.3310  141.1000 N   0  0  0  0  0  2  0  0  0  0  0  0
  193.1350  173.5460  139.8050 O   0  0  0  0  0  0  0  0  0  0  0  0
  193.3870  172.7980  141.0860 S   0  0  0  0  0  0  0  0  0  0  0  0
  194.8520  172.4850  141.2020 O   0  0  0  0  0  0  0  0  0  0  0  0
  192.9010  173.8090  142.4680 C   0  0  0  0  0  2  0  0  0  0  0  0
  193.0890  176.2730  142.4740 C   0  0  0  0  0  1  0  0  0  0  0  0
  192.2760  175.0990  141.9760 C   0  0  0  0  0  2  0  0  0  0  0  0
  192.6570  176.3930  146.8110 C   0  0  0  0  0  2  0  0  0  0  0  0
  194.6780  177.4250  146.0110 N   0  0  0  0  0  2  0  0  0  0  0  0
  194.0610  176.3310  146.3160 C   0  0  0  0  0  0  0  0  0  0  0  0
  194.6770  175.0580  146.1040 N   0  0  0  0  0  2  0  0  0  0  0  0
  196.0090  174.9030  145.5370 C   0  0  0  0  0  2  0  0  0  0  0  0
  195.9080  174.5320  144.0670 C   0  0  0  0  0  2  0  0  0  0  0  0
  196.9930  175.2370  143.2680 C   0  0  0  0  0  2  0  0  0  0  0  0
  196.6080  176.6790  142.9780 C   0  0  1  0  0  3  0  0  0  0  0  0
  197.5970  177.5200  143.4520 F   0  0  0  0  0  0  0  0  0  0  0  0
  196.4670  176.8630  141.6020 O   0  0  0  0  0  1  0  0  0  0  0  0
  1  5  1  0  0  0  0
  1 16  1  0  0  0  0
  1 29  1  1  0  0  0
  3 17  1  0  0  0  0
  3  5  1  0  0  0  0
  4  7  1  0  0  0  0
  5 16  1  0  0  0  0
  6 11  2  0  0  0  0
  6 17  1  0  0  0  0
  7  3  1  0  0  0  0
  7 12  1  0  0  0  0
  8 15  2  0  0  0  0
  8  4  1  0  0  0  0
  9 10  2  0  0  0  0
 10 13  1  0  0  0  0
 10  2  1  0  0  0  0
 11  9  1  0  0  0  0
 12 16  1  0  0  0  0
 14 13  2  0  0  0  0
 15  6  1  0  0  0  0
 17 14  1  0  0  0  0
 18  4  1  0  0  0  0
 19 18  3  0  0  0  0
 20 19  1  0  0  0  0
 21 22  1  0  0  0  0
 21 20  1  0  0  0  0
 23 24  2  0  0  0  0
 24 22  1  0  0  0  0
 24 25  2  0  0  0  0
 24 26  1  0  0  0  0
 28 26  1  0  0  0  0
 28 27  1  0  0  0  0
 30 31  2  0  0  0  0
 31 29  1  0  0  0  0
 32 31  1  0  0  0  0
 33 32  1  0  0  0  0
 34 33  1  0  0  0  0
 35 34  1  0  0  0  0
 36 35  1  0  0  0  0
 36 37  1  0  0  0  0
 38 36  1  0  0  0  0
M  END
>  <MODEL>
4

>  <REMARK>
 VINA RESULT:      -5.9      3.878      6.983
  Name = 
  13 active torsions:
  status: ('A' for Active; 'I' for Inactive)
    1  A    between atoms: C_1  and  C_23
    2  A    between atoms: C_2  and  S_13
    3  A    between atoms: C_2  and  C_37
    4  A    between atoms: C_5  and  C_27
    5  A    between atoms: C_11  and  C_14
    6  A    between atoms: S_13  and  N_31
    7  A    between atoms: C_14  and  C_36
    8  A    between atoms: C_18  and  C_28
    9  A    between atoms: C_18  and  C_32
   10  A    between atoms: C_23  and  C_29
   11  A    between atoms: C_26  and  N_35
   12  A    between atoms: C_26  and  C_36
   13  A    between atoms: N_31  and  C_32
                            x       y       z     vdW  Elec       q    Type
                         _______ _______ _______ _____ _____    ______ ____

>  <TORSDO>
F 13

$$$$
=
 OpenBabel11042417003D

 38 41  0  0  1  0  0  0  0  0999 V2000
  191.5450  176.4100  145.4330 C   0  0  2  0  0  3  0  0  0  0  0  0
  192.6460  172.1580  138.6650 N   0  0  0  0  0  1  0  0  0  0  0  0
  190.6450  175.1870  143.4460 C   0  0  1  0  0  3  0  0  0  0  0  0
  188.4640  176.2150  142.6830 C   0  0  1  0  0  3  0  0  0  0  0  0
  191.9020  175.7250  144.1270 C   0  0  1  0  0  3  0  0  0  0  0  0
  189.8260  173.5160  141.7450 C   0  0  0  0  0  0  0  0  0  0  0  0
  189.8330  176.3270  143.1010 N   0  0  1  0  0  0  0  0  0  0  0  0
  187.9270  175.1020  142.1590 C   0  0  0  0  0  3  0  0  0  0  0  0
  191.0850  171.8110  140.5180 N   0  0  0  0  0  0  0  0  0  0  0  0
  192.0350  172.6550  139.8490 C   0  0  0  0  0  0  0  0  0  0  0  0
  190.1210  172.1480  141.3190 C   0  0  0  0  0  3  0  0  0  0  0  0
  190.4200  177.5790  143.5390 C   0  0  0  0  0  2  0  0  0  0  0  0
  192.4680  173.8270  140.3200 C   0  0  0  0  0  3  0  0  0  0  0  0
  192.0530  174.5360  141.5370 C   0  0  0  0  0  3  0  0  0  0  0  0
  188.5710  173.8590  141.8080 N   0  0  0  0  0  0  0  0  0  0  0  0
  191.7580  177.2380  144.1790 C   0  0  1  0  0  3  0  0  0  0  0  0
  190.9100  174.3860  142.2120 C   0  0  1  0  0  3  0  0  0  0  0  0
  187.5800  177.3410  142.8460 C   0  0  0  0  0  0  0  0  0  0  0  0
  186.8360  178.2810  142.9780 C   0  0  0  0  0  0  0  0  0  0  0  0
  185.9230  179.4170  143.1360 C   0  0  0  0  0  2  0  0  0  0  0  0
  185.0250  179.2080  144.3420 C   0  0  0  0  0  2  0  0  0  0  0  0
  185.7790  179.4200  145.5690 N   0  0  0  0  0  2  0  0  0  0  0  0
  185.1920  176.8400  145.7260 O   0  0  0  0  0  0  0  0  0  0  0  0
  185.5470  178.0300  146.5740 S   0  0  0  0  0  0  0  0  0  0  0  0
  184.4420  178.2900  147.5590 O   0  0  0  0  0  0  0  0  0  0  0  0
  187.0490  177.6940  147.4680 C   0  0  0  0  0  2  0  0  0  0  0  0
  188.3630  175.6990  146.8380 C   0  0  0  0  0  1  0  0  0  0  0  0
  188.1070  177.1560  146.5260 C   0  0  0  0  0  2  0  0  0  0  0  0
  192.7800  176.5010  146.3050 C   0  0  0  0  0  2  0  0  0  0  0  0
  193.4600  174.2000  146.1370 N   0  0  0  0  0  2  0  0  0  0  0  0
  193.7500  175.4400  145.9170 C   0  0  0  0  0  0  0  0  0  0  0  0
  195.0260  175.8120  145.3870 N   0  0  0  0  0  2  0  0  0  0  0  0
  196.0670  174.8460  145.0690 C   0  0  0  0  0  2  0  0  0  0  0  0
  196.7590  175.2340  143.7730 C   0  0  0  0  0  2  0  0  0  0  0  0
  196.0150  176.3740  143.0970 C   0  0  0  0  0  2  0  0  0  0  0  0
  195.6020  175.9960  141.6840 C   0  0  1  0  0  3  0  0  0  0  0  0
  194.5350  176.7830  141.2930 F   0  0  0  0  0  0  0  0  0  0  0  0
  196.6700  176.1990  140.8090 O   0  0  0  0  0  1  0  0  0  0  0  0
  1 29  1  1  0  0  0
  2 10  1  0  0  0  0
  3  5  1  0  0  0  0
  4 18  1  0  0  0  0
  4  7  1  0  0  0  0
  5 16  1  0  0  0  0
  5  1  1  0  0  0  0
  6 15  1  0  0  0  0
  6 17  1  0  0  0  0
  7  3  1  0  0  0  0
  7 12  1  0  0  0  0
  8  4  1  0  0  0  0
  9 11  1  0  0  0  0
 10 13  1  0  0  0  0
 10  9  2  0  0  0  0
 11  6  2  0  0  0  0
 12 16  1  0  0  0  0
 13 14  2  0  0  0  0
 14 17  1  0  0  0  0
 15  8  2  0  0  0  0
 16  1  1  0  0  0  0
 17  3  1  0  0  0  0
 18 19  3  0  0  0  0
 19 20  1  0  0  0  0
 20 21  1  0  0  0  0
 21 22  1  0  0  0  0
 22 24  1  0  0  0  0
 23 24  2  0  0  0  0
 24 26  1  0  0  0  0
 24 25  2  0  0  0  0
 28 27  1  0  0  0  0
 28 26  1  0  0  0  0
 31 30  2  0  0  0  0
 31 29  1  0  0  0  0
 32 31  1  0  0  0  0
 33 32  1  0  0  0  0
 34 33  1  0  0  0  0
 35 34  1  0  0  0  0
 36 35  1  0  0  0  0
 37 36  1  0  0  0  0
 38 36  1  0  0  0  0
M  END
>  <MODEL>
5

>  <REMARK>
 VINA RESULT:      -5.8      1.869      2.084
  Name = 
  13 active torsions:
  status: ('A' for Active; 'I' for Inactive)
    1  A    between atoms: C_1  and  C_23
    2  A    between atoms: C_2  and  S_13
    3  A    between atoms: C_2  and  C_37
    4  A    between atoms: C_5  and  C_27
    5  A    between atoms: C_11  and  C_14
    6  A    between atoms: S_13  and  N_31
    7  A    between atoms: C_14  and  C_36
    8  A    between atoms: C_18  and  C_28
    9  A    between atoms: C_18  and  C_32
   10  A    between atoms: C_23  and  C_29
   11  A    between atoms: C_26  and  N_35
   12  A    between atoms: C_26  and  C_36
   13  A    between atoms: N_31  and  C_32
                            x       y       z     vdW  Elec       q    Type
                         _______ _______ _______ _____ _____    ______ ____

>  <TORSDO>
F 13

$$$$
=
 OpenBabel11042417003D

 38 41  0  0  1  0  0  0  0  0999 V2000
  191.2140  176.2280  144.6300 C   0  0  2  0  0  3  0  0  0  0  0  0
  183.6890  178.6670  146.2120 N   0  0  0  0  0  1  0  0  0  0  0  0
  188.9200  176.8770  143.8750 C   0  0  1  0  0  3  0  0  0  0  0  0
  188.2840  175.6150  141.7780 C   0  0  0  0  0  0  0  0  0  0  0  0
  189.8080  176.5720  145.0810 C   0  0  1  0  0  3  0  0  0  0  0  0
  186.7940  178.0350  143.1730 C   0  0  0  0  0  0  0  0  0  0  0  0
  188.8180  175.6590  143.1100 N   0  0  0  0  0  0  0  0  0  0  0  0
  187.4560  176.5410  141.2700 C   0  0  0  0  0  3  0  0  0  0  0  0
  185.2710  179.4170  144.5020 N   0  0  0  0  0  0  0  0  0  0  0  0
  184.9100  178.4640  145.5140 C   0  0  0  0  0  0  0  0  0  0  0  0
  186.0570  179.2600  143.4810 C   0  0  0  0  0  3  0  0  0  0  0  0
  189.6030  174.5800  143.6790 C   0  0  0  0  0  2  0  0  0  0  0  0
  185.6950  177.4650  145.9260 C   0  0  0  0  0  3  0  0  0  0  0  0
  187.0190  177.0730  145.4230 C   0  0  0  0  0  3  0  0  0  0  0  0
  186.8480  177.6760  141.9220 N   0  0  0  0  0  2  0  0  0  0  0  0
  190.2320  175.1180  144.9560 C   0  0  1  0  0  3  0  0  0  0  0  0
  187.5470  177.3490  144.2280 C   0  0  1  0  0  3  0  0  0  0  0  0
  188.6630  174.5370  140.9010 C   0  0  0  0  0  0  0  0  0  0  0  0
  188.9860  173.6350  140.1690 C   0  0  0  0  0  0  0  0  0  0  0  0
  189.3860  172.5340  139.2880 C   0  0  0  0  0  2  0  0  0  0  0  0
  190.5100  171.7340  139.9210 C   0  0  0  0  0  2  0  0  0  0  0  0
  191.7620  171.9910  139.2240 N   0  0  0  0  0  2  0  0  0  0  0  0
  192.4130  174.1460  140.6230 O   0  0  0  0  0  0  0  0  0  0  0  0
  192.8470  172.7330  140.3500 S   0  0  0  0  0  0  0  0  0  0  0  0
  194.2410  172.7380  139.7870 O   0  0  0  0  0  0  0  0  0  0  0  0
  192.8410  171.8060  141.8690 C   0  0  0  0  0  2  0  0  0  0  0  0
  192.2580  171.9810  144.2640 C   0  0  0  0  0  1  0  0  0  0  0  0
  192.7400  172.7470  143.0530 C   0  0  0  0  0  2  0  0  0  0  0  0
  192.1700  176.4020  145.7920 C   0  0  0  0  0  2  0  0  0  0  0  0
  194.4220  177.2360  145.9290 N   0  0  0  0  0  2  0  0  0  0  0  0
  193.5660  176.5140  145.2850 C   0  0  0  0  0  0  0  0  0  0  0  0
  193.9170  175.8910  144.0460 N   0  0  0  0  0  2  0  0  0  0  0  0
  195.2290  176.0260  143.4310 C   0  0  0  0  0  2  0  0  0  0  0  0
  195.9160  174.6720  143.3660 C   0  0  0  0  0  2  0  0  0  0  0  0
  197.0590  174.6100  144.3680 C   0  0  0  0  0  2  0  0  0  0  0  0
  196.6870  173.7540  145.5680 C   0  0  1  0  0  3  0  0  0  0  0  0
  196.0560  174.5410  146.5130 F   0  0  0  0  0  0  0  0  0  0  0  0
  195.8270  172.7310  145.1710 O   0  0  0  0  0  1  0  0  0  0  0  0
  1 16  1  0  0  0  0
  1  5  1  0  0  0  0
  1 29  1  1  0  0  0
  3  7  1  1  0  0  0
  3 17  1  0  0  0  0
  3  5  1  0  0  0  0
  4  7  1  0  0  0  0
  6 11  2  0  0  0  0
  6 17  1  0  0  0  0
  7 12  1  0  0  0  0
  8  4  2  0  0  0  0
  8 15  1  0  0  0  0
  9 10  2  0  0  0  0
 10 13  1  0  0  0  0
 10  2  1  0  0  0  0
 11  9  1  0  0  0  0
 12 16  1  0  0  0  0
 14 13  2  0  0  0  0
 15  6  1  0  0  0  0
 16  5  1  0  0  0  0
 17 14  1  0  0  0  0
 18  4  1  0  0  0  0
 19 18  3  0  0  0  0
 20 21  1  0  0  0  0
 20 19  1  0  0  0  0
 22 21  1  0  0  0  0
 22 24  1  0  0  0  0
 24 23  2  0  0  0  0
 24 26  1  0  0  0  0
 25 24  2  0  0  0  0
 26 28  1  0  0  0  0
 28 27  1  0  0  0  0
 31 29  1  0  0  0  0
 31 30  2  0  0  0  0
 32 31  1  0  0  0  0
 33 32  1  0  0  0  0
 34 33  1  0  0  0  0
 34 35  1  0  0  0  0
 35 36  1  0  0  0  0
 36 37  1  0  0  0  0
 38 36  1  0  0  0  0
M  END
>  <MODEL>
6

>  <REMARK>
 VINA RESULT:      -5.7      3.551      6.811
  Name = 
  13 active torsions:
  status: ('A' for Active; 'I' for Inactive)
    1  A    between atoms: C_1  and  C_23
    2  A    between atoms: C_2  and  S_13
    3  A    between atoms: C_2  and  C_37
    4  A    between atoms: C_5  and  C_27
    5  A    between atoms: C_11  and  C_14
    6  A    between atoms: S_13  and  N_31
    7  A    between atoms: C_14  and  C_36
    8  A    between atoms: C_18  and  C_28
    9  A    between atoms: C_18  and  C_32
   10  A    between atoms: C_23  and  C_29
   11  A    between atoms: C_26  and  N_35
   12  A    between atoms: C_26  and  C_36
   13  A    between atoms: N_31  and  C_32
                            x       y       z     vdW  Elec       q    Type
                         _______ _______ _______ _____ _____    ______ ____

>  <TORSDO>
F 13

$$$$
=
 OpenBabel11042417003D

 38 41  0  0  1  0  0  0  0  0999 V2000
  189.5490  173.8170  142.5990 C   0  0  2  0  0  3  0  0  0  0  0  0
  184.0800  179.4920  144.3270 N   0  0  0  0  0  1  0  0  0  0  0  0
  188.5080  175.4410  144.1910 C   0  0  1  0  0  3  0  0  0  0  0  0
  190.2360  176.3300  145.8090 C   0  0  0  0  0  0  0  0  0  0  0  0
  188.5480  174.9480  142.7450 C   0  0  1  0  0  3  0  0  0  0  0  0
  187.0910  176.6890  145.8610 C   0  0  0  0  0  0  0  0  0  0  0  0
  189.8050  176.0010  144.4800 N   0  0  0  0  0  0  0  0  0  0  0  0
  189.4010  176.5680  146.8330 C   0  0  0  0  0  3  0  0  0  0  0  0
  184.8110  177.5490  145.6230 N   0  0  0  0  0  0  0  0  0  0  0  0
  185.0060  178.4280  144.5040 C   0  0  0  0  0  0  0  0  0  0  0  0
  185.6820  176.8070  146.2360 C   0  0  0  0  0  2  0  0  0  0  0  0
  190.7220  175.8790  143.3630 C   0  0  0  0  0  2  0  0  0  0  0  0
  185.9280  178.2500  143.5550 C   0  0  0  0  0  3  0  0  0  0  0  0
  186.9590  177.2080  143.4630 C   0  0  0  0  0  3  0  0  0  0  0  0
  187.9600  176.6560  146.8310 N   0  0  0  0  0  2  0  0  0  0  0  0
  189.9480  175.2330  142.2250 C   0  0  1  0  0  3  0  0  0  0  0  0
  187.4600  176.4720  144.4590 C   0  0  0  0  0  0  0  0  0  0  0  0
  191.6460  176.3890  146.1010 C   0  0  0  0  0  0  0  0  0  0  0  0
  192.8270  176.4430  146.3380 C   0  0  0  0  0  0  0  0  0  0  0  0
  194.2630  176.5170  146.6210 C   0  0  0  0  0  2  0  0  0  0  0  0
  195.0110  177.0560  145.4150 C   0  0  0  0  0  2  0  0  0  0  0  0
  194.5360  176.4070  144.2020 N   0  0  0  0  0  2  0  0  0  0  0  0
  196.6740  174.8490  144.0390 O   0  0  0  0  0  0  0  0  0  0  0  0
  195.9240  175.9170  143.2910 S   0  0  0  0  0  0  0  0  0  0  0  0
  196.8280  177.0960  143.0630 O   0  0  0  0  0  0  0  0  0  0  0  0
  195.3980  175.2790  141.7150 C   0  0  0  0  0  2  0  0  0  0  0  0
  193.4550  174.5420  140.3780 C   0  0  0  0  0  1  0  0  0  0  0  0
  193.8850  175.2510  141.6440 C   0  0  0  0  0  2  0  0  0  0  0  0
  189.2420  173.0380  141.3370 C   0  0  0  0  0  2  0  0  0  0  0  0
  190.4400  171.5790  139.8450 N   0  0  0  0  0  2  0  0  0  0  0  0
  190.3830  172.1400  141.0080 C   0  0  0  0  0  0  0  0  0  0  0  0
  191.3570  171.8430  142.0130 N   0  0  0  0  0  2  0  0  0  0  0  0
  192.4520  170.9050  141.8080 C   0  0  0  0  0  2  0  0  0  0  0  0
  193.3040  170.8170  143.0620 C   0  0  0  0  0  2  0  0  0  0  0  0
  194.2100  172.0340  143.1720 C   0  0  0  0  0  2  0  0  0  0  0  0
  194.0080  172.7480  144.4990 C   0  0  1  0  0  3  0  0  0  0  0  0
  192.8410  173.4870  144.4480 F   0  0  0  0  0  0  0  0  0  0  0  0
  193.9150  171.8120  145.5300 O   0  0  0  0  0  1  0  0  0  0  0  0
  1 29  1  6  0  0  0
  1  5  1  0  0  0  0
  2 10  1  0  0  0  0
  3 17  1  6  0  0  0
  3  7  1  0  0  0  0
  4 18  1  0  0  0  0
  4  8  2  0  0  0  0
  5  3  1  0  0  0  0
  6 11  1  0  0  0  0
  6 15  1  0  0  0  0
  7  4  1  0  0  0  0
  9 11  1  0  0  0  0
 10  9  2  0  0  0  0
 12  7  1  0  0  0  0
 13 10  1  0  0  0  0
 14 13  2  0  0  0  0
 14 17  1  0  0  0  0
 15  8  1  0  0  0  0
 16  1  1  0  0  0  0
 16  5  1  0  0  0  0
 16 12  1  0  0  0  0
 17  6  2  0  0  0  0
 18 19  3  0  0  0  0
 19 20  1  0  0  0  0
 21 20  1  0  0  0  0
 22 21  1  0  0  0  0
 24 23  2  0  0  0  0
 24 22  1  0  0  0  0
 25 24  2  0  0  0  0
 26 24  1  0  0  0  0
 27 28  1  0  0  0  0
 28 26  1  0  0  0  0
 30 31  2  0  0  0  0
 31 29  1  0  0  0  0
 31 32  1  0  0  0  0
 33 32  1  0  0  0  0
 33 34  1  0  0  0  0
 34 35  1  0  0  0  0
 35 36  1  0  0  0  0
 36 38  1  0  0  0  0
 37 36  1  0  0  0  0
M  END
>  <MODEL>
7

>  <REMARK>
 VINA RESULT:      -5.7      3.540      7.427
  Name = 
  13 active torsions:
  status: ('A' for Active; 'I' for Inactive)
    1  A    between atoms: C_1  and  C_23
    2  A    between atoms: C_2  and  S_13
    3  A    between atoms: C_2  and  C_37
    4  A    between atoms: C_5  and  C_27
    5  A    between atoms: C_11  and  C_14
    6  A    between atoms: S_13  and  N_31
    7  A    between atoms: C_14  and  C_36
    8  A    between atoms: C_18  and  C_28
    9  A    between atoms: C_18  and  C_32
   10  A    between atoms: C_23  and  C_29
   11  A    between atoms: C_26  and  N_35
   12  A    between atoms: C_26  and  C_36
   13  A    between atoms: N_31  and  C_32
                            x       y       z     vdW  Elec       q    Type
                         _______ _______ _______ _____ _____    ______ ____

>  <TORSDO>
F 13

$$$$
=
 OpenBabel11042417003D

 38 41  0  0  1  0  0  0  0  0999 V2000
  190.0830  172.6370  142.7200 C   0  0  2  0  0  3  0  0  0  0  0  0
  197.1920  173.7930  146.3540 N   0  0  0  0  0  1  0  0  0  0  0  0
  191.6960  174.0920  143.9580 C   0  0  1  0  0  3  0  0  0  0  0  0
  190.4610  175.7610  145.4010 C   0  0  1  0  0  3  0  0  0  0  0  0
  191.4010  172.6740  143.4680 C   0  0  1  0  0  3  0  0  0  0  0  0
  193.5500  175.6210  144.7210 C   0  0  0  0  0  0  0  0  0  0  0  0
  190.6730  174.4260  144.9160 N   0  0  1  0  0  0  0  0  0  0  0  0
  191.3960  176.7240  145.3810 C   0  0  0  0  0  3  0  0  0  0  0  0
  195.9640  175.2160  144.7880 N   0  0  0  0  0  0  0  0  0  0  0  0
  195.9870  174.0710  145.6530 C   0  0  0  0  0  0  0  0  0  0  0  0
  194.9430  175.9100  144.3850 C   0  0  0  0  0  3  0  0  0  0  0  0
  189.6910  173.3700  145.0700 C   0  0  0  0  0  2  0  0  0  0  0  0
  194.9950  173.1840  145.7600 C   0  0  0  0  0  3  0  0  0  0  0  0
  193.6790  173.1970  145.1070 C   0  0  0  0  0  3  0  0  0  0  0  0
  192.7840  176.6380  144.9960 N   0  0  0  0  0  0  0  0  0  0  0  0
  190.1370  172.2200  144.1780 C   0  0  1  0  0  3  0  0  0  0  0  0
  193.0370  174.2530  144.5990 C   0  0  1  0  0  3  0  0  0  0  0  0
  189.1690  176.1280  145.9220 C   0  0  0  0  0  0  0  0  0  0  0  0
  188.0880  176.4400  146.3540 C   0  0  0  0  0  0  0  0  0  0  0  0
  186.7700  176.8260  146.8700 C   0  0  0  0  0  2  0  0  0  0  0  0
  186.2830  178.0870  146.1810 C   0  0  0  0  0  2  0  0  0  0  0  0
  185.0340  177.8250  145.4810 N   0  0  0  0  0  2  0  0  0  0  0  0
  185.5910  179.7780  143.7780 O   0  0  0  0  0  0  0  0  0  0  0  0
  185.2420  178.3170  143.8350 S   0  0  0  0  0  0  0  0  0  0  0  0
  183.9720  178.0760  143.0670 O   0  0  0  0  0  0  0  0  0  0  0  0
  186.5510  177.3640  143.0970 C   0  0  0  0  0  2  0  0  0  0  0  0
  188.9200  177.6770  142.4660 C   0  0  0  0  0  1  0  0  0  0  0  0
  187.5360  178.2830  142.4020 C   0  0  0  0  0  2  0  0  0  0  0  0
  190.0360  171.3970  141.8510 C   0  0  0  0  0  2  0  0  0  0  0  0
  191.1390  170.7130  139.8250 N   0  0  0  0  0  2  0  0  0  0  0  0
  190.6560  171.6850  140.5280 C   0  0  0  0  0  0  0  0  0  0  0  0
  190.7860  173.0410  140.0910 N   0  0  0  0  0  2  0  0  0  0  0  0
  191.4620  173.4180  138.8580 C   0  0  0  0  0  2  0  0  0  0  0  0
  192.8970  173.8200  139.1530 C   0  0  0  0  0  2  0  0  0  0  0  0
  192.9980  174.4450  140.5350 C   0  0  0  0  0  2  0  0  0  0  0  0
  194.3600  174.1820  141.1570 C   0  0  1  0  0  3  0  0  0  0  0  0
  194.3490  172.9470  141.7770 F   0  0  0  0  0  0  0  0  0  0  0  0
  195.3420  174.1920  140.1650 O   0  0  0  0  0  1  0  0  0  0  0  0
  1 29  1  6  0  0  0
  1  5  1  0  0  0  0
  1 16  1  0  0  0  0
  3 17  1  0  0  0  0
  3  7  1  0  0  0  0
  4 18  1  0  0  0  0
  5  3  1  0  0  0  0
  5 16  1  0  0  0  0
  6 15  1  0  0  0  0
  7 12  1  0  0  0  0
  7  4  1  0  0  0  0
  8  4  1  0  0  0  0
  9 10  2  0  0  0  0
 10 13  1  0  0  0  0
 10  2  1  0  0  0  0
 11  6  2  0  0  0  0
 11  9  1  0  0  0  0
 14 13  2  0  0  0  0
 15  8  2  0  0  0  0
 16 12  1  0  0  0  0
 17  6  1  0  0  0  0
 17 14  1  0  0  0  0
 18 19  3  0  0  0  0
 19 20  1  0  0  0  0
 21 20  1  0  0  0  0
 22 21  1  0  0  0  0
 23 24  2  0  0  0  0
 24 22  1  0  0  0  0
 25 24  2  0  0  0  0
 26 24  1  0  0  0  0
 28 27  1  0  0  0  0
 28 26  1  0  0  0  0
 30 31  2  0  0  0  0
 31 29  1  0  0  0  0
 32 31  1  0  0  0  0
 33 34  1  0  0  0  0
 33 32  1  0  0  0  0
 34 35  1  0  0  0  0
 35 36  1  0  0  0  0
 36 37  1  0  0  0  0
 38 36  1  0  0  0  0
M  END
>  <MODEL>
8

>  <REMARK>
 VINA RESULT:      -5.7      2.052      5.447
  Name = 
  13 active torsions:
  status: ('A' for Active; 'I' for Inactive)
    1  A    between atoms: C_1  and  C_23
    2  A    between atoms: C_2  and  S_13
    3  A    between atoms: C_2  and  C_37
    4  A    between atoms: C_5  and  C_27
    5  A    between atoms: C_11  and  C_14
    6  A    between atoms: S_13  and  N_31
    7  A    between atoms: C_14  and  C_36
    8  A    between atoms: C_18  and  C_28
    9  A    between atoms: C_18  and  C_32
   10  A    between atoms: C_23  and  C_29
   11  A    between atoms: C_26  and  N_35
   12  A    between atoms: C_26  and  C_36
   13  A    between atoms: N_31  and  C_32
                            x       y       z     vdW  Elec       q    Type
                         _______ _______ _______ _____ _____    ______ ____

>  <TORSDO>
F 13

$$$$
=
 OpenBabel11042417003D

 38 41  0  0  1  0  0  0  0  0999 V2000
  190.0830  173.2300  142.1500 C   0  0  2  0  0  3  0  0  0  0  0  0
  197.0140  173.5890  146.2650 N   0  0  0  0  0  1  0  0  0  0  0  0
  191.6580  174.4210  143.6850 C   0  0  1  0  0  3  0  0  0  0  0  0
  190.3820  175.8700  145.3170 C   0  0  1  0  0  3  0  0  0  0  0  0
  191.3620  173.1100  142.9580 C   0  0  1  0  0  3  0  0  0  0  0  0
  193.4990  175.7560  144.7740 C   0  0  0  0  0  0  0  0  0  0  0  0
  190.5920  174.6250  144.6340 N   0  0  1  0  0  0  0  0  0  0  0  0
  191.3350  176.7970  145.4990 C   0  0  0  0  0  3  0  0  0  0  0  0
  195.8970  175.2790  144.8920 N   0  0  0  0  0  0  0  0  0  0  0  0
  195.8530  174.0090  145.5600 C   0  0  0  0  0  0  0  0  0  0  0  0
  194.9130  176.0570  144.5570 C   0  0  0  0  0  2  0  0  0  0  0  0
  189.5840  173.5850  144.5670 C   0  0  0  0  0  2  0  0  0  0  0  0
  194.8390  173.1440  145.4740 C   0  0  0  0  0  3  0  0  0  0  0  0
  193.5600  173.2990  144.7690 C   0  0  0  0  0  3  0  0  0  0  0  0
  192.7390  176.7360  145.1740 N   0  0  0  0  0  0  0  0  0  0  0  0
  190.0530  172.5820  143.5230 C   0  0  1  0  0  3  0  0  0  0  0  0
  192.9660  174.4400  144.4080 C   0  0  0  0  0  0  0  0  0  0  0  0
  189.0720  176.1830  145.8280 C   0  0  0  0  0  0  0  0  0  0  0  0
  187.9720  176.4440  146.2490 C   0  0  0  0  0  0  0  0  0  0  0  0
  186.6310  176.7530  146.7540 C   0  0  0  0  0  2  0  0  0  0  0  0
  185.9130  177.6910  145.8010 C   0  0  0  0  0  2  0  0  0  0  0  0
  185.7650  177.0630  144.4970 N   0  0  0  0  0  2  0  0  0  0  0  0
  185.4570  179.6550  144.0290 O   0  0  0  0  0  0  0  0  0  0  0  0
  185.4460  178.3160  143.3450 S   0  0  0  0  0  0  0  0  0  0  0  0
  184.1040  178.0910  142.7050 O   0  0  0  0  0  0  0  0  0  0  0  0
  186.6990  178.2850  142.0810 C   0  0  0  0  0  2  0  0  0  0  0  0
  188.4730  176.5650  142.1230 C   0  0  0  0  0  1  0  0  0  0  0  0
  188.0360  177.9000  142.6830 C   0  0  0  0  0  2  0  0  0  0  0  0
  190.0580  172.1480  141.0900 C   0  0  0  0  0  2  0  0  0  0  0  0
  188.2190  172.6490  139.6230 N   0  0  0  0  0  2  0  0  0  0  0  0
  189.4950  172.6940  139.8250 C   0  0  0  0  0  0  0  0  0  0  0  0
  190.3800  173.1830  138.8130 N   0  0  0  0  0  2  0  0  0  0  0  0
  189.9220  173.6470  137.5120 C   0  0  0  0  0  2  0  0  0  0  0  0
  190.4810  172.7560  136.4150 C   0  0  0  0  0  2  0  0  0  0  0  0
  189.5680  171.5610  136.1890 C   0  0  0  0  0  2  0  0  0  0  0  0
  190.2080  170.2800  136.6980 C   0  0  1  0  0  3  0  0  0  0  0  0
  191.5170  170.5350  137.0610 F   0  0  0  0  0  0  0  0  0  0  0  0
  189.5060  169.8100  137.8090 O   0  0  0  0  0  1  0  0  0  0  0  0
  1 29  1  6  0  0  0
  1  5  1  0  0  0  0
  1 16  1  0  0  0  0
  3 17  1  1  0  0  0
  3  7  1  0  0  0  0
  4  8  1  0  0  0  0
  4 18  1  6  0  0  0
  5 16  1  0  0  0  0
  5  3  1  0  0  0  0
  6 15  1  0  0  0  0
  7  4  1  0  0  0  0
  9 10  2  0  0  0  0
 10  2  1  0  0  0  0
 11  6  1  0  0  0  0
 11  9  1  0  0  0  0
 12  7  1  0  0  0  0
 13 10  1  0  0  0  0
 14 13  2  0  0  0  0
 15  8  2  0  0  0  0
 16 12  1  0  0  0  0
 17 14  1  0  0  0  0
 17  6  2  0  0  0  0
 18 19  3  0  0  0  0
 19 20  1  0  0  0  0
 21 20  1  0  0  0  0
 22 21  1  0  0  0  0
 24 23  2  0  0  0  0
 24 22  1  0  0  0  0
 25 24  2  0  0  0  0
 26 28  1  0  0  0  0
 26 24  1  0  0  0  0
 27 28  1  0  0  0  0
 30 31  2  0  0  0  0
 31 29  1  0  0  0  0
 32 31  1  0  0  0  0
 33 32  1  0  0  0  0
 34 33  1  0  0  0  0
 35 34  1  0  0  0  0
 35 36  1  0  0  0  0
 36 37  1  0  0  0  0
 36 38  1  0  0  0  0
M  END
>  <MODEL>
9

>  <REMARK>
 VINA RESULT:      -5.7      2.822      6.202
  Name = 
  13 active torsions:
  status: ('A' for Active; 'I' for Inactive)
    1  A    between atoms: C_1  and  C_23
    2  A    between atoms: C_2  and  S_13
    3  A    between atoms: C_2  and  C_37
    4  A    between atoms: C_5  and  C_27
    5  A    between atoms: C_11  and  C_14
    6  A    between atoms: S_13  and  N_31
    7  A    between atoms: C_14  and  C_36
    8  A    between atoms: C_18  and  C_28
    9  A    between atoms: C_18  and  C_32
   10  A    between atoms: C_23  and  C_29
   11  A    between atoms: C_26  and  N_35
   12  A    between atoms: C_26  and  C_36
   13  A    between atoms: N_31  and  C_32
                            x       y       z     vdW  Elec       q    Type
                         _______ _______ _______ _____ _____    ______ ____

>  <TORSDO>
F 13

$$$$
