=
 OpenBabel11042415123D

 45 47  0  0  1  0  0  0  0  0999 V2000
  192.2000  173.5460  143.3390 C   0  0  0  0  0  0  0  0  0  0  0  0
  193.0260  174.4910  142.4890 C   0  0  0  0  0  2  0  0  0  0  0  0
  191.1670  172.8850  142.7920 C   0  0  0  0  0  3  0  0  0  0  0  0
  190.8160  173.0520  141.3320 C   0  0  2  0  0  3  0  0  0  0  0  0
  193.0660  174.0450  141.0550 C   0  0  0  0  0  3  0  0  0  0  0  0
  192.0300  173.4040  140.5020 C   0  0  0  0  0  0  0  0  0  0  0  0
  191.9230  173.9450  138.0820 C   0  0  0  0  0  1  0  0  0  0  0  0
  192.4470  171.2240  137.6150 O   0  0  0  0  0  0  0  0  0  0  0  0
  192.3420  171.5820  138.8190 C   0  0  0  0  0  0  0  0  0  0  0  0
  192.1130  172.9640  139.1420 N   0  0  0  0  0  0  0  0  0  0  0  0
  192.4280  170.5480  139.9000 C   0  0  0  0  0  2  0  0  0  0  0  0
  194.0390  170.7350  141.8230 N   0  0  0  0  0  2  0  0  0  0  0  0
  193.8130  170.4370  140.4460 C   0  0  0  0  0  0  0  0  0  0  0  0
  194.7670  170.1070  139.6930 O   0  0  0  0  0  0  0  0  0  0  0  0
  195.3440  170.5860  142.4460 C   0  0  0  0  0  2  0  0  0  0  0  0
  195.8590  172.3450  144.1590 C   0  0  0  0  0  3  0  0  0  0  0  0
  196.8550  174.0470  142.1750 C   0  0  0  0  0  3  0  0  0  0  0  0
  196.3180  174.0590  145.9220 C   0  0  0  0  0  1  0  0  0  0  0  0
  196.3350  173.6160  144.4990 C   0  0  0  0  0  0  0  0  0  0  0  0
  196.3740  172.7790  141.8330 C   0  0  0  0  0  3  0  0  0  0  0  0
  195.8760  171.9250  142.8250 C   0  0  0  0  0  0  0  0  0  0  0  0
  196.8340  174.4660  143.5080 C   0  0  0  0  0  3  0  0  0  0  0  0
  189.6910  174.0230  141.1360 C   0  0  0  0  0  0  0  0  0  0  0  0
  188.6180  173.8600  139.6990 S   0  0  0  0  0  1  0  0  0  0  0  0
  189.4930  174.9330  142.1020 C   0  0  0  0  0  3  0  0  0  0  0  0
  188.5090  175.9790  142.0990 N   0  0  0  0  0  0  0  0  0  0  0  0
  187.7640  176.2910  143.1100 C   0  0  0  0  0  3  0  0  0  0  0  0
  186.8120  177.3580  143.0290 N   0  0  0  0  0  0  0  0  0  0  0  0
  184.2630  178.2490  146.3130 C   0  0  0  0  0  3  0  0  0  0  0  0
  185.8870  176.7960  145.2540 C   0  0  0  0  0  3  0  0  0  0  0  0
  185.9500  177.6540  144.1430 C   0  0  0  0  0  0  0  0  0  0  0  0
  185.1530  178.8110  144.1340 C   0  0  0  0  0  3  0  0  0  0  0  0
  184.3140  179.1060  145.2120 C   0  0  0  0  0  3  0  0  0  0  0  0
  185.0480  177.0920  146.3330 C   0  0  0  0  0  3  0  0  0  0  0  0
  185.7650  177.5980  141.0880 O   0  0  0  0  0  1  0  0  0  0  0  0
  186.7400  178.1330  141.8600 N   0  0  0  0  0  2  0  0  0  0  0  0
  192.4920  173.3390  144.7940 C   0  0  0  0  0  2  0  0  0  0  0  0
  192.7260  174.6020  145.4790 N   0  0  0  0  0  2  0  0  0  0  0  0
  191.4920  175.2730  145.5300 N   0  0  0  0  0  0  0  0  0  0  0  0
  191.1410  175.9060  147.8790 C   0  0  0  0  0  1  0  0  0  0  0  0
  190.7920  174.9200  146.7730 C   0  0  0  0  0  3  0  0  0  0  0  0
  189.2740  174.8260  146.6120 C   0  0  0  0  0  1  0  0  0  0  0  0
  191.7680  176.7050  145.5440 C   0  0  0  0  0  2  0  0  0  0  0  0
  191.5960  177.7030  143.3300 N   0  0  0  0  0  1  0  0  0  0  0  0
  190.8640  177.4230  144.5550 C   0  0  0  0  0  2  0  0  0  0  0  0
  1 37  1  0  0  0  0
  2  1  1  0  0  0  0
  3  1  2  0  0  0  0
  4 23  1  1  0  0  0
  4  3  1  0  0  0  0
  5  2  1  0  0  0  0
  6  5  2  0  0  0  0
  6  4  1  0  0  0  0
  7 10  1  0  0  0  0
  8  9  2  0  0  0  0
  9 10  1  0  0  0  0
  9 11  1  0  0  0  0
 10  6  1  0  0  0  0
 11 13  1  0  0  0  0
 12 15  1  0  0  0  0
 13 12  1  0  0  0  0
 14 13  2  0  0  0  0
 15 21  1  0  0  0  0
 16 19  1  0  0  0  0
 17 22  1  0  0  0  0
 19 18  1  0  0  0  0
 20 17  2  0  0  0  0
 20 21  1  0  0  0  0
 21 16  2  0  0  0  0
 22 19  2  0  0  0  0
 23 25  2  0  0  0  0
 24 23  1  0  0  0  0
 26 25  1  0  0  0  0
 26 27  2  0  0  0  0
 28 27  1  0  0  0  0
 28 31  1  0  0  0  0
 29 34  1  0  0  0  0
 30 34  2  0  0  0  0
 31 30  1  0  0  0  0
 32 31  2  0  0  0  0
 32 33  1  0  0  0  0
 33 29  2  0  0  0  0
 35 36  1  0  0  0  0
 36 28  1  0  0  0  0
 37 38  1  0  0  0  0
 38 39  1  0  0  0  0
 39 43  1  0  0  0  0
 39 41  1  0  0  0  0
 41 40  1  0  0  0  0
 42 41  1  0  0  0  0
 44 45  1  0  0  0  0
 45 43  1  0  0  0  0
M  END
>  <MODEL>
1

>  <REMARK>
 VINA RESULT:      -6.1      0.000      0.000
  Name = 
  15 active torsions:
  status: ('A' for Active; 'I' for Inactive)
    1  A    between atoms: C_1  and  C_8
    2  A    between atoms: N_3  and  C_21
    3  A    between atoms: C_6  and  C_40
    4  A    between atoms: C_8  and  N_33
    5  A    between atoms: N_11  and  C_35
    6  A    between atoms: N_14  and  N_32
    7  A    between atoms: C_17  and  N_32
    8  A    between atoms: N_19  and  C_30
    9  A    between atoms: N_19  and  N_33
   10  A    between atoms: N_19  and  C_37
   11  A    between atoms: C_21  and  C_42
   12  A    between atoms: C_23  and  C_39
   13  A    between atoms: C_26  and  C_37
   14  A    between atoms: C_28  and  C_39
   15  A    between atoms: N_31  and  C_43
                            x       y       z     vdW  Elec       q    Type
                         _______ _______ _______ _____ _____    ______ ____

>  <TORSDO>
F 15

$$$$
=
 OpenBabel11042415123D

 45 47  0  0  1  0  0  0  0  0999 V2000
  193.1780  172.5830  142.5610 C   0  0  0  0  0  0  0  0  0  0  0  0
  192.8660  172.0750  143.9530 C   0  0  0  0  0  2  0  0  0  0  0  0
  193.0270  173.8870  142.2760 C   0  0  0  0  0  3  0  0  0  0  0  0
  192.5620  174.8690  143.3260 C   0  0  2  0  0  3  0  0  0  0  0  0
  193.1260  173.1280  144.9940 C   0  0  0  0  0  3  0  0  0  0  0  0
  192.9550  174.4270  144.7180 C   0  0  0  0  0  0  0  0  0  0  0  0
  192.3710  175.4840  146.8870 C   0  0  0  0  0  1  0  0  0  0  0  0
  194.5950  177.1550  146.4870 O   0  0  0  0  0  0  0  0  0  0  0  0
  194.3400  176.3230  145.5750 C   0  0  0  0  0  0  0  0  0  0  0  0
  193.2420  175.4070  145.7220 N   0  0  0  0  0  0  0  0  0  0  0  0
  195.1740  176.3250  144.3290 C   0  0  0  0  0  2  0  0  0  0  0  0
  196.3660  174.4720  145.5420 N   0  0  0  0  0  2  0  0  0  0  0  0
  196.2980  175.3480  144.4180 C   0  0  0  0  0  0  0  0  0  0  0  0
  197.1840  175.3180  143.5230 O   0  0  0  0  0  0  0  0  0  0  0  0
  197.3900  173.4480  145.6700 C   0  0  0  0  0  2  0  0  0  0  0  0
  196.2610  171.2920  146.2770 C   0  0  0  0  0  3  0  0  0  0  0  0
  196.3630  170.4390  143.6150 C   0  0  0  0  0  3  0  0  0  0  0  0
  195.1560  169.1560  146.9660 C   0  0  0  0  0  1  0  0  0  0  0  0
  195.7570  170.0360  145.9230 C   0  0  0  0  0  0  0  0  0  0  0  0
  196.8730  171.6930  143.9680 C   0  0  0  0  0  3  0  0  0  0  0  0
  196.8220  172.1220  145.3000 C   0  0  0  0  0  0  0  0  0  0  0  0
  195.8060  169.6100  144.5930 C   0  0  0  0  0  3  0  0  0  0  0  0
  191.0950  175.1550  143.2140 C   0  0  0  0  0  0  0  0  0  0  0  0
  189.9080  173.8320  143.4960 S   0  0  0  0  0  1  0  0  0  0  0  0
  190.7370  176.4280  142.9790 C   0  0  0  0  0  3  0  0  0  0  0  0
  189.4000  176.9150  142.7920 N   0  0  0  0  0  0  0  0  0  0  0  0
  188.5560  177.1360  143.7480 C   0  0  0  0  0  3  0  0  0  0  0  0
  187.2410  177.6350  143.4780 N   0  0  0  0  0  0  0  0  0  0  0  0
  184.4480  178.1650  146.6390 C   0  0  0  0  0  3  0  0  0  0  0  0
  185.7630  179.0900  144.8270 C   0  0  0  0  0  3  0  0  0  0  0  0
  186.2950  177.8200  144.5480 C   0  0  0  0  0  0  0  0  0  0  0  0
  185.8920  176.7280  145.3330 C   0  0  0  0  0  3  0  0  0  0  0  0
  184.9750  176.8990  146.3730 C   0  0  0  0  0  3  0  0  0  0  0  0
  184.8440  179.2610  145.8670 C   0  0  0  0  0  3  0  0  0  0  0  0
  185.6890  177.3840  141.9130 O   0  0  0  0  0  1  0  0  0  0  0  0
  186.8850  177.9670  142.1600 N   0  0  0  0  0  2  0  0  0  0  0  0
  193.6390  171.6630  141.4720 C   0  0  0  0  0  2  0  0  0  0  0  0
  192.9420  171.9230  140.2210 N   0  0  0  0  0  2  0  0  0  0  0  0
  191.6370  171.4220  140.3670 N   0  0  0  0  0  0  0  0  0  0  0  0
  191.3790  173.4030  138.9360 C   0  0  0  0  0  1  0  0  0  0  0  0
  190.6750  172.3940  139.8310 C   0  0  0  0  0  3  0  0  0  0  0  0
  189.5100  171.7470  139.0790 C   0  0  0  0  0  1  0  0  0  0  0  0
  191.5440  170.1950  139.5830 C   0  0  0  0  0  2  0  0  0  0  0  0
  190.7500  169.4540  141.7630 N   0  0  0  0  0  1  0  0  0  0  0  0
  191.3150  169.0040  140.5000 C   0  0  0  0  0  2  0  0  0  0  0  0
  1  2  1  0  0  0  0
  2  5  1  0  0  0  0
  3  1  2  0  0  0  0
  3  4  1  0  0  0  0
  4 23  1  1  0  0  0
  4  6  1  0  0  0  0
  6  5  2  0  0  0  0
  6 10  1  0  0  0  0
  9 10  1  0  0  0  0
  9  8  2  0  0  0  0
 10  7  1  0  0  0  0
 11 13  1  0  0  0  0
 11  9  1  0  0  0  0
 12 15  1  0  0  0  0
 13 12  1  0  0  0  0
 14 13  2  0  0  0  0
 17 20  2  0  0  0  0
 17 22  1  0  0  0  0
 19 16  1  0  0  0  0
 19 18  1  0  0  0  0
 20 21  1  0  0  0  0
 21 15  1  0  0  0  0
 21 16  2  0  0  0  0
 22 19  2  0  0  0  0
 23 24  1  0  0  0  0
 25 23  2  0  0  0  0
 26 25  1  0  0  0  0
 26 27  2  0  0  0  0
 28 27  1  0  0  0  0
 28 31  1  0  0  0  0
 30 34  1  0  0  0  0
 31 30  2  0  0  0  0
 31 32  1  0  0  0  0
 32 33  2  0  0  0  0
 33 29  1  0  0  0  0
 34 29  2  0  0  0  0
 35 36  1  0  0  0  0
 36 28  1  0  0  0  0
 37  1  1  0  0  0  0
 38 39  1  0  0  0  0
 38 37  1  0  0  0  0
 40 41  1  0  0  0  0
 41 39  1  0  0  0  0
 42 41  1  0  0  0  0
 43 39  1  0  0  0  0
 43 45  1  0  0  0  0
 45 44  1  0  0  0  0
M  END
>  <MODEL>
2

>  <REMARK>
 VINA RESULT:      -6.1      2.585      5.349
  Name = 
  15 active torsions:
  status: ('A' for Active; 'I' for Inactive)
    1  A    between atoms: C_1  and  C_8
    2  A    between atoms: N_3  and  C_21
    3  A    between atoms: C_6  and  C_40
    4  A    between atoms: C_8  and  N_33
    5  A    between atoms: N_11  and  C_35
    6  A    between atoms: N_14  and  N_32
    7  A    between atoms: C_17  and  N_32
    8  A    between atoms: N_19  and  C_30
    9  A    between atoms: N_19  and  N_33
   10  A    between atoms: N_19  and  C_37
   11  A    between atoms: C_21  and  C_42
   12  A    between atoms: C_23  and  C_39
   13  A    between atoms: C_26  and  C_37
   14  A    between atoms: C_28  and  C_39
   15  A    between atoms: N_31  and  C_43
                            x       y       z     vdW  Elec       q    Type
                         _______ _______ _______ _____ _____    ______ ____

>  <TORSDO>
F 15

$$$$
=
 OpenBabel11042415123D

 45 47  0  0  1  0  0  0  0  0999 V2000
  193.5220  174.4330  140.0400 C   0  0  0  0  0  0  0  0  0  0  0  0
  193.1360  173.1600  139.3150 C   0  0  0  0  0  2  0  0  0  0  0  0
  192.9300  174.7440  141.2040 C   0  0  0  0  0  3  0  0  0  0  0  0
  191.8900  173.8380  141.8210 C   0  0  2  0  0  3  0  0  0  0  0  0
  192.7130  172.0860  140.2790 C   0  0  0  0  0  3  0  0  0  0  0  0
  192.1060  172.3930  141.4300 C   0  0  0  0  0  0  0  0  0  0  0  0
  190.4250  170.7460  142.2190 C   0  0  0  0  0  1  0  0  0  0  0  0
  192.3190  169.9770  144.1470 O   0  0  0  0  0  0  0  0  0  0  0  0
  192.6440  170.9220  143.3790 C   0  0  0  0  0  0  0  0  0  0  0  0
  191.7450  171.3490  142.3410 N   0  0  0  0  0  0  0  0  0  0  0  0
  193.9590  171.6120  143.5820 C   0  0  0  0  0  2  0  0  0  0  0  0
  193.6010  173.7400  144.8760 N   0  0  0  0  0  2  0  0  0  0  0  0
  193.9900  172.3670  144.8690 C   0  0  0  0  0  0  0  0  0  0  0  0
  194.3780  171.8020  145.9260 O   0  0  0  0  0  0  0  0  0  0  0  0
  193.5390  174.5250  146.0970 C   0  0  0  0  0  2  0  0  0  0  0  0
  192.2460  176.3790  145.0090 C   0  0  0  0  0  3  0  0  0  0  0  0
  190.3080  176.2670  147.0220 C   0  0  0  0  0  3  0  0  0  0  0  0
  191.0280  178.2480  143.8780 C   0  0  0  0  0  1  0  0  0  0  0  0
  191.1580  177.2570  144.9840 C   0  0  0  0  0  0  0  0  0  0  0  0
  191.3970  175.3920  147.0520 C   0  0  0  0  0  3  0  0  0  0  0  0
  192.3690  175.4460  146.0440 C   0  0  0  0  0  0  0  0  0  0  0  0
  190.1880  177.2020  145.9890 C   0  0  0  0  0  3  0  0  0  0  0  0
  190.4970  174.3060  141.5270 C   0  0  0  0  0  0  0  0  0  0  0  0
  189.6510  173.7060  140.0560 S   0  0  0  0  0  1  0  0  0  0  0  0
  189.9150  175.1030  142.4370 C   0  0  0  0  0  3  0  0  0  0  0  0
  188.6120  175.6980  142.3390 N   0  0  0  0  0  0  0  0  0  0  0  0
  187.9440  176.1760  143.3390 C   0  0  0  0  0  3  0  0  0  0  0  0
  186.6520  176.7650  143.1550 N   0  0  0  0  0  0  0  0  0  0  0  0
  184.4150  178.1760  146.4840 C   0  0  0  0  0  3  0  0  0  0  0  0
  186.1580  176.7580  145.5800 C   0  0  0  0  0  3  0  0  0  0  0  0
  185.8970  177.2390  144.2860 C   0  0  0  0  0  0  0  0  0  0  0  0
  184.8800  178.1920  144.1100 C   0  0  0  0  0  3  0  0  0  0  0  0
  184.1430  178.6570  145.2020 C   0  0  0  0  0  3  0  0  0  0  0  0
  185.4220  177.2240  146.6730 C   0  0  0  0  0  3  0  0  0  0  0  0
  186.6550  178.0410  141.3410 O   0  0  0  0  0  1  0  0  0  0  0  0
  186.1330  176.9030  141.8570 N   0  0  0  0  0  2  0  0  0  0  0  0
  194.5420  175.3770  139.4810 C   0  0  0  0  0  2  0  0  0  0  0  0
  195.5300  175.7510  140.4830 N   0  0  0  0  0  2  0  0  0  0  0  0
  196.1460  174.5640  140.9130 N   0  0  0  0  0  0  0  0  0  0  0  0
  197.4520  173.1940  139.3450 C   0  0  0  0  0  1  0  0  0  0  0  0
  197.4490  174.4180  140.2500 C   0  0  0  0  0  3  0  0  0  0  0  0
  197.8730  175.6580  139.4590 C   0  0  0  0  0  1  0  0  0  0  0  0
  196.3680  174.6760  142.3500 C   0  0  0  0  0  2  0  0  0  0  0  0
  195.8160  176.3930  143.9860 N   0  0  0  0  0  1  0  0  0  0  0  0
  196.5270  176.1360  142.7440 C   0  0  0  0  0  2  0  0  0  0  0  0
  1  3  2  0  0  0  0
  2  1  1  0  0  0  0
  2  5  1  0  0  0  0
  3  4  1  0  0  0  0
  4 23  1  6  0  0  0
  5  6  2  0  0  0  0
  6  4  1  0  0  0  0
  6 10  1  0  0  0  0
  7 10  1  0  0  0  0
  9 11  1  0  0  0  0
  9  8  2  0  0  0  0
 10  9  1  0  0  0  0
 11 13  1  0  0  0  0
 12 15  1  0  0  0  0
 13 12  1  0  0  0  0
 13 14  2  0  0  0  0
 16 21  1  0  0  0  0
 17 20  1  0  0  0  0
 18 19  1  0  0  0  0
 19 16  2  0  0  0  0
 19 22  1  0  0  0  0
 21 15  1  0  0  0  0
 21 20  2  0  0  0  0
 22 17  2  0  0  0  0
 23 25  2  0  0  0  0
 24 23  1  0  0  0  0
 26 25  1  0  0  0  0
 26 27  2  0  0  0  0
 28 27  1  0  0  0  0
 28 31  1  0  0  0  0
 29 34  1  0  0  0  0
 30 34  2  0  0  0  0
 31 30  1  0  0  0  0
 32 31  2  0  0  0  0
 32 33  1  0  0  0  0
 33 29  2  0  0  0  0
 35 36  1  0  0  0  0
 36 28  1  0  0  0  0
 37  1  1  0  0  0  0
 37 38  1  0  0  0  0
 38 39  1  0  0  0  0
 39 43  1  0  0  0  0
 40 41  1  0  0  0  0
 41 39  1  0  0  0  0
 42 41  1  0  0  0  0
 43 45  1  0  0  0  0
 45 44  1  0  0  0  0
M  END
>  <MODEL>
3

>  <REMARK>
 VINA RESULT:      -6.0      2.189      5.107
  Name = 
  15 active torsions:
  status: ('A' for Active; 'I' for Inactive)
    1  A    between atoms: C_1  and  C_8
    2  A    between atoms: N_3  and  C_21
    3  A    between atoms: C_6  and  C_40
    4  A    between atoms: C_8  and  N_33
    5  A    between atoms: N_11  and  C_35
    6  A    between atoms: N_14  and  N_32
    7  A    between atoms: C_17  and  N_32
    8  A    between atoms: N_19  and  C_30
    9  A    between atoms: N_19  and  N_33
   10  A    between atoms: N_19  and  C_37
   11  A    between atoms: C_21  and  C_42
   12  A    between atoms: C_23  and  C_39
   13  A    between atoms: C_26  and  C_37
   14  A    between atoms: C_28  and  C_39
   15  A    between atoms: N_31  and  C_43
                            x       y       z     vdW  Elec       q    Type
                         _______ _______ _______ _____ _____    ______ ____

>  <TORSDO>
F 15

$$$$
=
 OpenBabel11042415123D

 45 47  0  0  1  0  0  0  0  0999 V2000
  193.4680  174.2330  139.5620 C   0  0  0  0  0  0  0  0  0  0  0  0
  192.8160  172.9510  139.0860 C   0  0  0  0  0  2  0  0  0  0  0  0
  193.1830  174.7140  140.7830 C   0  0  0  0  0  3  0  0  0  0  0  0
  192.2310  173.9920  141.7070 C   0  0  2  0  0  3  0  0  0  0  0  0
  192.5250  172.0240  140.2340 C   0  0  0  0  0  3  0  0  0  0  0  0
  192.2210  172.5020  141.4460 C   0  0  0  0  0  0  0  0  0  0  0  0
  190.6200  171.1290  142.7540 C   0  0  0  0  0  1  0  0  0  0  0  0
  192.8190  170.3390  144.3140 O   0  0  0  0  0  0  0  0  0  0  0  0
  193.0470  171.1680  143.3920 C   0  0  0  0  0  0  0  0  0  0  0  0
  191.9810  171.5920  142.5250 N   0  0  0  0  0  0  0  0  0  0  0  0
  194.4300  171.7250  143.2340 C   0  0  0  0  0  2  0  0  0  0  0  0
  194.1910  173.9370  144.4090 N   0  0  0  0  0  2  0  0  0  0  0  0
  194.7850  172.6410  144.3580 C   0  0  0  0  0  0  0  0  0  0  0  0
  195.6160  172.2780  145.2330 O   0  0  0  0  0  0  0  0  0  0  0  0
  194.4320  174.8610  145.5050 C   0  0  0  0  0  2  0  0  0  0  0  0
  191.9730  174.5170  145.8590 C   0  0  0  0  0  3  0  0  0  0  0  0
  191.8670  176.7290  147.5680 C   0  0  0  0  0  3  0  0  0  0  0  0
  189.5190  174.1250  146.1420 C   0  0  0  0  0  1  0  0  0  0  0  0
  190.7570  174.9010  146.4340 C   0  0  0  0  0  0  0  0  0  0  0  0
  193.0820  176.3500  146.9900 C   0  0  0  0  0  3  0  0  0  0  0  0
  193.1370  175.2420  146.1350 C   0  0  0  0  0  0  0  0  0  0  0  0
  190.7030  176.0060  147.2900 C   0  0  0  0  0  3  0  0  0  0  0  0
  190.8550  174.5850  141.6670 C   0  0  0  0  0  0  0  0  0  0  0  0
  189.6010  173.8490  140.6040 S   0  0  0  0  0  1  0  0  0  0  0  0
  190.6050  175.6070  142.5010 C   0  0  0  0  0  3  0  0  0  0  0  0
  189.3790  176.3480  142.5960 N   0  0  0  0  0  0  0  0  0  0  0  0
  188.8230  176.7120  143.7070 C   0  0  0  0  0  3  0  0  0  0  0  0
  187.6030  177.4610  143.7160 N   0  0  0  0  0  0  0  0  0  0  0  0
  185.7190  178.4960  147.3840 C   0  0  0  0  0  3  0  0  0  0  0  0
  187.3260  177.1620  146.1570 C   0  0  0  0  0  3  0  0  0  0  0  0
  186.9680  177.8070  144.9610 C   0  0  0  0  0  0  0  0  0  0  0  0
  185.9730  178.7980  144.9970 C   0  0  0  0  0  3  0  0  0  0  0  0
  185.3520  179.1400  146.2010 C   0  0  0  0  0  3  0  0  0  0  0  0
  186.7060  177.5050  147.3620 C   0  0  0  0  0  3  0  0  0  0  0  0
  186.1110  176.9570  142.1540 O   0  0  0  0  0  1  0  0  0  0  0  0
  187.0400  177.8800  142.5000 N   0  0  0  0  0  2  0  0  0  0  0  0
  194.4180  175.0010  138.6950 C   0  0  0  0  0  2  0  0  0  0  0  0
  195.6040  174.2190  138.3760 N   0  0  0  0  0  2  0  0  0  0  0  0
  196.6450  175.1320  138.1400 N   0  0  0  0  0  0  0  0  0  0  0  0
  197.4290  175.7550  140.3840 C   0  0  0  0  0  1  0  0  0  0  0  0
  197.7080  174.9330  139.1340 C   0  0  0  0  0  3  0  0  0  0  0  0
  197.9280  173.4660  139.5070 C   0  0  0  0  0  1  0  0  0  0  0  0
  197.1890  174.8500  136.8160 C   0  0  0  0  0  2  0  0  0  0  0  0
  195.8090  176.3860  135.5250 N   0  0  0  0  0  1  0  0  0  0  0  0
  197.1680  176.1080  135.9630 C   0  0  0  0  0  2  0  0  0  0  0  0
  1  3  2  0  0  0  0
  2  1  1  0  0  0  0
  2  5  1  0  0  0  0
  3  4  1  0  0  0  0
  4 23  1  6  0  0  0
  5  6  2  0  0  0  0
  6  4  1  0  0  0  0
  6 10  1  0  0  0  0
  9  8  2  0  0  0  0
 10  7  1  0  0  0  0
 10  9  1  0  0  0  0
 11  9  1  0  0  0  0
 11 13  1  0  0  0  0
 12 15  1  0  0  0  0
 13 12  1  0  0  0  0
 13 14  2  0  0  0  0
 15 21  1  0  0  0  0
 16 21  2  0  0  0  0
 16 19  1  0  0  0  0
 18 19  1  0  0  0  0
 19 22  2  0  0  0  0
 20 17  2  0  0  0  0
 21 20  1  0  0  0  0
 22 17  1  0  0  0  0
 23 25  2  0  0  0  0
 24 23  1  0  0  0  0
 25 26  1  0  0  0  0
 26 27  2  0  0  0  0
 27 28  1  0  0  0  0
 28 31  1  0  0  0  0
 30 34  2  0  0  0  0
 31 32  2  0  0  0  0
 31 30  1  0  0  0  0
 32 33  1  0  0  0  0
 33 29  2  0  0  0  0
 34 29  1  0  0  0  0
 35 36  1  0  0  0  0
 36 28  1  0  0  0  0
 37  1  1  0  0  0  0
 38 37  1  0  0  0  0
 39 38  1  0  0  0  0
 39 41  1  0  0  0  0
 41 42  1  0  0  0  0
 41 40  1  0  0  0  0
 43 39  1  0  0  0  0
 44 45  1  0  0  0  0
 45 43  1  0  0  0  0
M  END
>  <MODEL>
4

>  <REMARK>
 VINA RESULT:      -5.7      2.656      5.634
  Name = 
  15 active torsions:
  status: ('A' for Active; 'I' for Inactive)
    1  A    between atoms: C_1  and  C_8
    2  A    between atoms: N_3  and  C_21
    3  A    between atoms: C_6  and  C_40
    4  A    between atoms: C_8  and  N_33
    5  A    between atoms: N_11  and  C_35
    6  A    between atoms: N_14  and  N_32
    7  A    between atoms: C_17  and  N_32
    8  A    between atoms: N_19  and  C_30
    9  A    between atoms: N_19  and  N_33
   10  A    between atoms: N_19  and  C_37
   11  A    between atoms: C_21  and  C_42
   12  A    between atoms: C_23  and  C_39
   13  A    between atoms: C_26  and  C_37
   14  A    between atoms: C_28  and  C_39
   15  A    between atoms: N_31  and  C_43
                            x       y       z     vdW  Elec       q    Type
                         _______ _______ _______ _____ _____    ______ ____

>  <TORSDO>
F 15

$$$$
=
 OpenBabel11042415123D

 45 47  0  0  1  0  0  0  0  0999 V2000
  189.3640  177.0130  145.0790 C   0  0  0  0  0  0  0  0  0  0  0  0
  190.1210  177.8230  144.0460 C   0  0  0  0  0  2  0  0  0  0  0  0
  189.9110  175.8950  145.5830 C   0  0  0  0  0  3  0  0  0  0  0  0
  191.2810  175.4290  145.1490 C   0  0  2  0  0  3  0  0  0  0  0  0
  191.6070  177.7080  144.2400 C   0  0  0  0  0  3  0  0  0  0  0  0
  192.1550  176.5870  144.7220 C   0  0  0  0  0  0  0  0  0  0  0  0
  194.1060  176.9020  146.2250 C   0  0  0  0  0  1  0  0  0  0  0  0
  195.6970  176.0440  144.0740 O   0  0  0  0  0  0  0  0  0  0  0  0
  194.4580  176.1280  143.8630 C   0  0  0  0  0  0  0  0  0  0  0  0
  193.5710  176.5220  144.9240 N   0  0  0  0  0  0  0  0  0  0  0  0
  193.9280  175.8430  142.4900 C   0  0  0  0  0  2  0  0  0  0  0  0
  195.3990  174.3120  141.1410 N   0  0  0  0  0  2  0  0  0  0  0  0
  195.0320  175.6410  141.5060 C   0  0  0  0  0  0  0  0  0  0  0  0
  195.6420  176.6330  141.0260 O   0  0  0  0  0  0  0  0  0  0  0  0
  196.4160  174.0330  140.1400 C   0  0  0  0  0  2  0  0  0  0  0  0
  195.0720  171.9360  139.8420 C   0  0  0  0  0  3  0  0  0  0  0  0
  196.2930  171.4540  137.3710 C   0  0  0  0  0  3  0  0  0  0  0  0
  193.7150  169.8450  139.6290 C   0  0  0  0  0  1  0  0  0  0  0  0
  194.7340  170.7980  139.1030 C   0  0  0  0  0  0  0  0  0  0  0  0
  196.6360  172.5900  138.1120 C   0  0  0  0  0  3  0  0  0  0  0  0
  196.0250  172.8330  139.3480 C   0  0  0  0  0  0  0  0  0  0  0  0
  195.3420  170.5570  137.8670 C   0  0  0  0  0  3  0  0  0  0  0  0
  191.2030  174.3590  144.1020 C   0  0  0  0  0  0  0  0  0  0  0  0
  192.0210  172.7800  144.3840 S   0  0  0  0  0  1  0  0  0  0  0  0
  190.4460  174.6140  143.0230 C   0  0  0  0  0  3  0  0  0  0  0  0
  190.2680  173.7550  141.8870 N   0  0  0  0  0  0  0  0  0  0  0  0
  191.0140  173.7690  140.8290 C   0  0  0  0  0  3  0  0  0  0  0  0
  190.7760  172.8690  139.7400 N   0  0  0  0  0  0  0  0  0  0  0  0
  193.1540  173.0860  136.2230 C   0  0  0  0  0  3  0  0  0  0  0  0
  191.4930  171.9400  137.5620 C   0  0  0  0  0  3  0  0  0  0  0  0
  191.5800  172.9370  138.5480 C   0  0  0  0  0  0  0  0  0  0  0  0
  192.4690  174.0070  138.3530 C   0  0  0  0  0  3  0  0  0  0  0  0
  193.2520  174.0810  137.1980 C   0  0  0  0  0  3  0  0  0  0  0  0
  192.2760  172.0140  136.4060 C   0  0  0  0  0  3  0  0  0  0  0  0
  188.6360  172.4440  139.3420 O   0  0  0  0  0  1  0  0  0  0  0  0
  189.7660  171.9000  139.8530 N   0  0  0  0  0  2  0  0  0  0  0  0
  188.0000  177.4160  145.5490 C   0  0  0  0  0  2  0  0  0  0  0  0
  187.2240  178.0290  144.4800 N   0  0  0  0  0  2  0  0  0  0  0  0
  185.9670  177.4020  144.4760 N   0  0  0  0  0  0  0  0  0  0  0  0
  184.3300  178.3650  146.0370 C   0  0  0  0  0  1  0  0  0  0  0  0
  184.9130  178.4150  144.6320 C   0  0  0  0  0  3  0  0  0  0  0  0
  185.3800  179.8350  144.3060 C   0  0  0  0  0  1  0  0  0  0  0  0
  185.7980  176.7540  143.1810 C   0  0  0  0  0  2  0  0  0  0  0  0
  186.0540  177.7440  140.9710 N   0  0  0  0  0  1  0  0  0  0  0  0
  186.7710  177.3420  142.1710 C   0  0  0  0  0  2  0  0  0  0  0  0
  1 37  1  0  0  0  0
  1  3  2  0  0  0  0
  2  5  1  0  0  0  0
  2  1  1  0  0  0  0
  4 23  1  6  0  0  0
  4  3  1  0  0  0  0
  5  6  2  0  0  0  0
  6 10  1  0  0  0  0
  6  4  1  0  0  0  0
  9  8  2  0  0  0  0
  9 10  1  0  0  0  0
 10  7  1  0  0  0  0
 11  9  1  0  0  0  0
 12 13  1  0  0  0  0
 13 11  1  0  0  0  0
 14 13  2  0  0  0  0
 15 12  1  0  0  0  0
 17 22  2  0  0  0  0
 17 20  1  0  0  0  0
 19 18  1  0  0  0  0
 19 16  2  0  0  0  0
 20 21  2  0  0  0  0
 21 16  1  0  0  0  0
 21 15  1  0  0  0  0
 22 19  1  0  0  0  0
 23 24  1  0  0  0  0
 25 23  2  0  0  0  0
 26 25  1  0  0  0  0
 27 26  2  0  0  0  0
 28 36  1  0  0  0  0
 28 27  1  0  0  0  0
 29 34  2  0  0  0  0
 29 33  1  0  0  0  0
 30 31  2  0  0  0  0
 31 28  1  0  0  0  0
 32 31  1  0  0  0  0
 33 32  2  0  0  0  0
 34 30  1  0  0  0  0
 35 36  1  0  0  0  0
 38 37  1  0  0  0  0
 39 38  1  0  0  0  0
 39 41  1  0  0  0  0
 41 40  1  0  0  0  0
 42 41  1  0  0  0  0
 43 39  1  0  0  0  0
 44 45  1  0  0  0  0
 45 43  1  0  0  0  0
M  END
>  <MODEL>
5

>  <REMARK>
 VINA RESULT:      -5.7      2.678      7.013
  Name = 
  15 active torsions:
  status: ('A' for Active; 'I' for Inactive)
    1  A    between atoms: C_1  and  C_8
    2  A    between atoms: N_3  and  C_21
    3  A    between atoms: C_6  and  C_40
    4  A    between atoms: C_8  and  N_33
    5  A    between atoms: N_11  and  C_35
    6  A    between atoms: N_14  and  N_32
    7  A    between atoms: C_17  and  N_32
    8  A    between atoms: N_19  and  C_30
    9  A    between atoms: N_19  and  N_33
   10  A    between atoms: N_19  and  C_37
   11  A    between atoms: C_21  and  C_42
   12  A    between atoms: C_23  and  C_39
   13  A    between atoms: C_26  and  C_37
   14  A    between atoms: C_28  and  C_39
   15  A    between atoms: N_31  and  C_43
                            x       y       z     vdW  Elec       q    Type
                         _______ _______ _______ _____ _____    ______ ____

>  <TORSDO>
F 15

$$$$
=
 OpenBabel11042415123D

 45 47  0  0  1  0  0  0  0  0999 V2000
  192.7000  174.1330  141.9830 C   0  0  0  0  0  0  0  0  0  0  0  0
  192.6480  174.4460  140.5010 C   0  0  0  0  0  2  0  0  0  0  0  0
  191.7120  173.4230  142.5500 C   0  0  0  0  0  3  0  0  0  0  0  0
  190.5460  172.9120  141.7360 C   0  0  2  0  0  3  0  0  0  0  0  0
  191.9340  173.3670  139.7370 C   0  0  0  0  0  3  0  0  0  0  0  0
  190.9350  172.6720  140.2940 C   0  0  0  0  0  0  0  0  0  0  0  0
  189.0210  171.9120  138.9080 C   0  0  0  0  0  1  0  0  0  0  0  0
  190.3160  169.4220  138.7710 O   0  0  0  0  0  0  0  0  0  0  0  0
  190.8770  170.3160  139.4610 C   0  0  0  0  0  0  0  0  0  0  0  0
  190.2980  171.6290  139.5490 N   0  0  0  0  0  0  0  0  0  0  0  0
  192.1330  169.9820  140.2080 C   0  0  0  0  0  2  0  0  0  0  0  0
  192.8990  169.8850  142.6020 N   0  0  0  0  0  2  0  0  0  0  0  0
  191.8560  169.6970  141.6470 C   0  0  0  0  0  0  0  0  0  0  0  0
  190.7240  169.2750  142.0040 O   0  0  0  0  0  0  0  0  0  0  0  0
  192.6920  169.6940  144.0280 C   0  0  0  0  0  2  0  0  0  0  0  0
  194.3320  171.4380  144.7800 C   0  0  0  0  0  3  0  0  0  0  0  0
  195.8320  169.5040  146.1330 C   0  0  0  0  0  3  0  0  0  0  0  0
  195.9360  173.2290  145.4680 C   0  0  0  0  0  1  0  0  0  0  0  0
  195.4980  171.8040  145.4590 C   0  0  0  0  0  0  0  0  0  0  0  0
  194.6690  169.1350  145.4510 C   0  0  0  0  0  3  0  0  0  0  0  0
  193.9160  170.1020  144.7730 C   0  0  0  0  0  0  0  0  0  0  0  0
  196.2480  170.8380  146.1370 C   0  0  0  0  0  3  0  0  0  0  0  0
  189.3450  173.8000  141.8600 C   0  0  0  0  0  0  0  0  0  0  0  0
  187.7070  173.0650  141.9940 S   0  0  0  0  0  1  0  0  0  0  0  0
  189.5670  175.1210  141.9450 C   0  0  0  0  0  3  0  0  0  0  0  0
  188.5690  176.1500  142.0240 N   0  0  0  0  0  0  0  0  0  0  0  0
  187.8580  176.4060  143.0750 C   0  0  0  0  0  3  0  0  0  0  0  0
  186.8870  177.4590  143.0760 N   0  0  0  0  0  0  0  0  0  0  0  0
  184.4610  178.1330  146.5020 C   0  0  0  0  0  3  0  0  0  0  0  0
  185.2300  178.8210  144.3100 C   0  0  0  0  0  3  0  0  0  0  0  0
  186.0640  177.6930  144.2340 C   0  0  0  0  0  0  0  0  0  0  0  0
  186.0860  176.7920  145.3110 C   0  0  0  0  0  3  0  0  0  0  0  0
  185.2900  177.0110  146.4390 C   0  0  0  0  0  3  0  0  0  0  0  0
  184.4330  179.0390  145.4370 C   0  0  0  0  0  3  0  0  0  0  0  0
  185.8160  177.7240  141.1520 O   0  0  0  0  0  1  0  0  0  0  0  0
  186.7600  178.2830  141.9450 N   0  0  0  0  0  2  0  0  0  0  0  0
  193.8240  174.6130  142.8490 C   0  0  0  0  0  2  0  0  0  0  0  0
  193.7440  176.0480  143.0830 N   0  0  0  0  0  2  0  0  0  0  0  0
  193.2650  176.2230  144.3930 N   0  0  0  0  0  0  0  0  0  0  0  0
  194.1940  176.5870  146.6390 C   0  0  0  0  0  1  0  0  0  0  0  0
  194.2410  176.9960  145.1730 C   0  0  0  0  0  3  0  0  0  0  0  0
  195.6720  176.8860  144.6420 C   0  0  0  0  0  1  0  0  0  0  0  0
  192.0260  176.9870  144.3120 C   0  0  0  0  0  2  0  0  0  0  0  0
  190.1020  177.2840  145.7760 N   0  0  0  0  0  1  0  0  0  0  0  0
  190.9310  176.2930  145.1070 C   0  0  0  0  0  2  0  0  0  0  0  0
  1  3  2  0  0  0  0
  1 37  1  0  0  0  0
  2  1  1  0  0  0  0
  4 23  1  6  0  0  0
  4  3  1  0  0  0  0
  5  6  2  0  0  0  0
  5  2  1  0  0  0  0
  6  4  1  0  0  0  0
  7 10  1  0  0  0  0
  8  9  2  0  0  0  0
  9 10  1  0  0  0  0
  9 11  1  0  0  0  0
 10  6  1  0  0  0  0
 11 13  1  0  0  0  0
 12 15  1  0  0  0  0
 13 14  2  0  0  0  0
 13 12  1  0  0  0  0
 15 21  1  0  0  0  0
 16 19  1  0  0  0  0
 17 22  1  0  0  0  0
 19 18  1  0  0  0  0
 19 22  2  0  0  0  0
 20 17  2  0  0  0  0
 21 16  2  0  0  0  0
 21 20  1  0  0  0  0
 23 25  2  0  0  0  0
 23 24  1  0  0  0  0
 25 26  1  0  0  0  0
 26 27  2  0  0  0  0
 27 28  1  0  0  0  0
 28 31  1  0  0  0  0
 30 34  1  0  0  0  0
 31 30  2  0  0  0  0
 31 32  1  0  0  0  0
 32 33  2  0  0  0  0
 33 29  1  0  0  0  0
 34 29  2  0  0  0  0
 35 36  1  0  0  0  0
 36 28  1  0  0  0  0
 37 38  1  0  0  0  0
 38 39  1  0  0  0  0
 39 41  1  0  0  0  0
 41 40  1  0  0  0  0
 42 41  1  0  0  0  0
 43 39  1  0  0  0  0
 43 45  1  0  0  0  0
 45 44  1  0  0  0  0
M  END
>  <MODEL>
6

>  <REMARK>
 VINA RESULT:      -5.6      1.920      2.737
  Name = 
  15 active torsions:
  status: ('A' for Active; 'I' for Inactive)
    1  A    between atoms: C_1  and  C_8
    2  A    between atoms: N_3  and  C_21
    3  A    between atoms: C_6  and  C_40
    4  A    between atoms: C_8  and  N_33
    5  A    between atoms: N_11  and  C_35
    6  A    between atoms: N_14  and  N_32
    7  A    between atoms: C_17  and  N_32
    8  A    between atoms: N_19  and  C_30
    9  A    between atoms: N_19  and  N_33
   10  A    between atoms: N_19  and  C_37
   11  A    between atoms: C_21  and  C_42
   12  A    between atoms: C_23  and  C_39
   13  A    between atoms: C_26  and  C_37
   14  A    between atoms: C_28  and  C_39
   15  A    between atoms: N_31  and  C_43
                            x       y       z     vdW  Elec       q    Type
                         _______ _______ _______ _____ _____    ______ ____

>  <TORSDO>
F 15

$$$$
=
 OpenBabel11042415123D

 45 47  0  0  1  0  0  0  0  0999 V2000
  194.4020  175.7880  143.8290 C   0  0  0  0  0  0  0  0  0  0  0  0
  193.7820  175.5490  142.4670 C   0  0  0  0  0  2  0  0  0  0  0  0
  193.7270  175.4490  144.9390 C   0  0  0  0  0  3  0  0  0  0  0  0
  192.3580  174.8150  144.8610 C   0  0  2  0  0  3  0  0  0  0  0  0
  192.8690  174.3550  142.4820 C   0  0  0  0  0  3  0  0  0  0  0  0
  192.1800  174.0270  143.5820 C   0  0  0  0  0  0  0  0  0  0  0  0
  191.9180  171.5920  143.9840 C   0  0  0  0  0  1  0  0  0  0  0  0
  189.2480  171.9080  143.1670 O   0  0  0  0  0  0  0  0  0  0  0  0
  189.9760  172.9360  143.1340 C   0  0  0  0  0  0  0  0  0  0  0  0
  191.3440  172.8660  143.5730 N   0  0  0  0  0  0  0  0  0  0  0  0
  189.4080  174.2180  142.6030 C   0  0  0  0  0  2  0  0  0  0  0  0
  189.9000  173.2070  140.3520 N   0  0  0  0  0  2  0  0  0  0  0  0
  189.1570  174.1410  141.1340 C   0  0  0  0  0  0  0  0  0  0  0  0
  188.3150  174.9070  140.5940 O   0  0  0  0  0  0  0  0  0  0  0  0
  189.6670  173.0240  138.9290 C   0  0  0  0  0  2  0  0  0  0  0  0
  192.0510  173.7960  138.8240 C   0  0  0  0  0  3  0  0  0  0  0  0
  191.8910  174.0510  136.0430 C   0  0  0  0  0  3  0  0  0  0  0  0
  194.4260  174.5830  138.8040 C   0  0  0  0  0  1  0  0  0  0  0  0
  193.1580  174.2470  138.0960 C   0  0  0  0  0  0  0  0  0  0  0  0
  190.7830  173.6050  136.7700 C   0  0  0  0  0  3  0  0  0  0  0  0
  190.8610  173.4760  138.1620 C   0  0  0  0  0  0  0  0  0  0  0  0
  193.0790  174.3740  136.7060 C   0  0  0  0  0  3  0  0  0  0  0  0
  191.2640  175.8190  145.0680 C   0  0  0  0  0  0  0  0  0  0  0  0
  191.2990  177.3700  144.1560 S   0  0  0  0  0  1  0  0  0  0  0  0
  190.2570  175.4650  145.8810 C   0  0  0  0  0  3  0  0  0  0  0  0
  189.1370  176.2830  146.2540 N   0  0  0  0  0  0  0  0  0  0  0  0
  188.1800  176.6300  145.4540 C   0  0  0  0  0  3  0  0  0  0  0  0
  187.0900  177.4400  145.9080 N   0  0  0  0  0  0  0  0  0  0  0  0
  184.0570  178.7070  143.2120 C   0  0  0  0  0  3  0  0  0  0  0  0
  185.8520  177.1840  143.7810 C   0  0  0  0  0  3  0  0  0  0  0  0
  186.0650  177.8650  144.9910 C   0  0  0  0  0  0  0  0  0  0  0  0
  185.2600  178.9750  145.2940 C   0  0  0  0  0  3  0  0  0  0  0  0
  184.2620  179.3940  144.4100 C   0  0  0  0  0  3  0  0  0  0  0  0
  184.8540  177.6020  142.8960 C   0  0  0  0  0  3  0  0  0  0  0  0
  186.2580  176.8570  147.8800 O   0  0  0  0  0  1  0  0  0  0  0  0
  187.0120  177.7970  147.2640 N   0  0  0  0  0  2  0  0  0  0  0  0
  195.7540  176.4170  143.9780 C   0  0  0  0  0  2  0  0  0  0  0  0
  196.6910  175.9140  142.9840 N   0  0  0  0  0  2  0  0  0  0  0  0
  196.8040  174.5290  143.1920 N   0  0  0  0  0  0  0  0  0  0  0  0
  196.3250  172.8220  141.4890 C   0  0  0  0  0  1  0  0  0  0  0  0
  197.3020  173.8870  141.9680 C   0  0  0  0  0  3  0  0  0  0  0  0
  197.6000  174.8750  140.8390 C   0  0  0  0  0  1  0  0  0  0  0  0
  197.7790  174.3190  144.2560 C   0  0  0  0  0  2  0  0  0  0  0  0
  197.0250  173.7210  146.4930 N   0  0  0  0  0  1  0  0  0  0  0  0
  197.3230  173.1940  145.1710 C   0  0  0  0  0  2  0  0  0  0  0  0
  1 37  1  0  0  0  0
  1  3  2  0  0  0  0
  2  5  1  0  0  0  0
  2  1  1  0  0  0  0
  4  3  1  0  0  0  0
  4 23  1  6  0  0  0
  5  6  2  0  0  0  0
  6  4  1  0  0  0  0
  9  8  2  0  0  0  0
  9 10  1  0  0  0  0
 10  6  1  0  0  0  0
 10  7  1  0  0  0  0
 11  9  1  0  0  0  0
 12 13  1  0  0  0  0
 13 11  1  0  0  0  0
 14 13  2  0  0  0  0
 15 12  1  0  0  0  0
 17 22  2  0  0  0  0
 17 20  1  0  0  0  0
 19 18  1  0  0  0  0
 19 16  2  0  0  0  0
 20 21  2  0  0  0  0
 21 16  1  0  0  0  0
 21 15  1  0  0  0  0
 22 19  1  0  0  0  0
 23 25  2  0  0  0  0
 24 23  1  0  0  0  0
 25 26  1  0  0  0  0
 27 28  1  0  0  0  0
 27 26  2  0  0  0  0
 28 36  1  0  0  0  0
 29 33  1  0  0  0  0
 30 31  2  0  0  0  0
 31 32  1  0  0  0  0
 31 28  1  0  0  0  0
 33 32  2  0  0  0  0
 34 29  2  0  0  0  0
 34 30  1  0  0  0  0
 36 35  1  0  0  0  0
 38 39  1  0  0  0  0
 38 37  1  0  0  0  0
 39 43  1  0  0  0  0
 40 41  1  0  0  0  0
 41 39  1  0  0  0  0
 42 41  1  0  0  0  0
 43 45  1  0  0  0  0
 45 44  1  0  0  0  0
M  END
>  <MODEL>
7

>  <REMARK>
 VINA RESULT:      -5.6      2.718      5.716
  Name = 
  15 active torsions:
  status: ('A' for Active; 'I' for Inactive)
    1  A    between atoms: C_1  and  C_8
    2  A    between atoms: N_3  and  C_21
    3  A    between atoms: C_6  and  C_40
    4  A    between atoms: C_8  and  N_33
    5  A    between atoms: N_11  and  C_35
    6  A    between atoms: N_14  and  N_32
    7  A    between atoms: C_17  and  N_32
    8  A    between atoms: N_19  and  C_30
    9  A    between atoms: N_19  and  N_33
   10  A    between atoms: N_19  and  C_37
   11  A    between atoms: C_21  and  C_42
   12  A    between atoms: C_23  and  C_39
   13  A    between atoms: C_26  and  C_37
   14  A    between atoms: C_28  and  C_39
   15  A    between atoms: N_31  and  C_43
                            x       y       z     vdW  Elec       q    Type
                         _______ _______ _______ _____ _____    ______ ____

>  <TORSDO>
F 15

$$$$
=
 OpenBabel11042415123D

 45 47  0  0  1  0  0  0  0  0999 V2000
  191.6580  172.7870  138.5560 C   0  0  0  0  0  0  0  0  0  0  0  0
  190.8710  171.5100  138.7640 C   0  0  0  0  0  2  0  0  0  0  0  0
  191.6260  173.7520  139.4900 C   0  0  0  0  0  3  0  0  0  0  0  0
  190.8260  173.5850  140.7610 C   0  0  2  0  0  3  0  0  0  0  0  0
  190.7520  171.1700  140.2230 C   0  0  0  0  0  3  0  0  0  0  0  0
  190.6980  172.1300  141.1540 C   0  0  0  0  0  0  0  0  0  0  0  0
  189.3010  171.6260  143.1420 C   0  0  0  0  0  1  0  0  0  0  0  0
  191.7090  171.2430  144.5380 O   0  0  0  0  0  0  0  0  0  0  0  0
  191.8030  171.5930  143.3310 C   0  0  0  0  0  0  0  0  0  0  0  0
  190.6170  171.7720  142.5370 N   0  0  0  0  0  0  0  0  0  0  0  0
  193.1600  171.8490  142.7470 C   0  0  0  0  0  2  0  0  0  0  0  0
  192.8320  174.2370  143.4640 N   0  0  0  0  0  2  0  0  0  0  0  0
  193.7210  173.1510  143.2120 C   0  0  0  0  0  0  0  0  0  0  0  0
  194.9650  173.2900  143.3550 O   0  0  0  0  0  0  0  0  0  0  0  0
  193.2920  175.5150  143.9830 C   0  0  0  0  0  2  0  0  0  0  0  0
  191.4390  176.4060  145.4200 C   0  0  0  0  0  3  0  0  0  0  0  0
  190.5950  178.0980  143.3590 C   0  0  0  0  0  3  0  0  0  0  0  0
  189.6010  177.2260  146.9060 C   0  0  0  0  0  1  0  0  0  0  0  0
  190.3290  177.2370  145.6050 C   0  0  0  0  0  0  0  0  0  0  0  0
  191.7020  177.2640  143.1710 C   0  0  0  0  0  3  0  0  0  0  0  0
  192.1260  176.4170  144.2020 C   0  0  0  0  0  0  0  0  0  0  0  0
  189.9070  178.0840  144.5760 C   0  0  0  0  0  3  0  0  0  0  0  0
  189.4950  174.2710  140.6780 C   0  0  0  0  0  0  0  0  0  0  0  0
  188.4640  174.0350  139.2210 S   0  0  0  0  0  1  0  0  0  0  0  0
  189.1030  174.9760  141.7500 C   0  0  0  0  0  3  0  0  0  0  0  0
  187.8960  175.7430  141.8700 N   0  0  0  0  0  0  0  0  0  0  0  0
  187.3980  176.1620  142.9890 C   0  0  0  0  0  3  0  0  0  0  0  0
  186.1920  176.9340  143.0230 N   0  0  0  0  0  0  0  0  0  0  0  0
  184.4960  178.1510  146.7260 C   0  0  0  0  0  3  0  0  0  0  0  0
  186.0500  176.7670  145.4880 C   0  0  0  0  0  3  0  0  0  0  0  0
  185.6210  177.3420  144.2800 C   0  0  0  0  0  0  0  0  0  0  0  0
  184.6170  178.3240  144.3160 C   0  0  0  0  0  3  0  0  0  0  0  0
  184.0580  178.7260  145.5320 C   0  0  0  0  0  3  0  0  0  0  0  0
  185.4920  177.1700  146.7040 C   0  0  0  0  0  3  0  0  0  0  0  0
  186.1700  178.4660  141.4200 O   0  0  0  0  0  1  0  0  0  0  0  0
  185.5810  177.3140  141.8170 N   0  0  0  0  0  2  0  0  0  0  0  0
  192.4690  173.0180  137.3170 C   0  0  0  0  0  2  0  0  0  0  0  0
  193.6580  172.1790  137.2910 N   0  0  0  0  0  2  0  0  0  0  0  0
  194.7670  173.0410  137.3020 N   0  0  0  0  0  0  0  0  0  0  0  0
  195.2360  172.3900  139.6260 C   0  0  0  0  0  1  0  0  0  0  0  0
  195.7910  172.5120  138.2140 C   0  0  0  0  0  3  0  0  0  0  0  0
  196.3780  171.1730  137.7610 C   0  0  0  0  0  1  0  0  0  0  0  0
  195.3190  173.0710  135.9520 C   0  0  0  0  0  2  0  0  0  0  0  0
  194.9750  175.4370  136.4150 N   0  0  0  0  0  1  0  0  0  0  0  0
  195.6920  174.4940  135.5700 C   0  0  0  0  0  2  0  0  0  0  0  0
  1  2  1  0  0  0  0
  1  3  2  0  0  0  0
  2  5  1  0  0  0  0
  3  4  1  0  0  0  0
  4 23  1  6  0  0  0
  4  6  1  0  0  0  0
  5  6  2  0  0  0  0
  6 10  1  0  0  0  0
  9  8  2  0  0  0  0
 10  7  1  0  0  0  0
 10  9  1  0  0  0  0
 11 13  1  0  0  0  0
 11  9  1  0  0  0  0
 12 15  1  0  0  0  0
 13 14  2  0  0  0  0
 13 12  1  0  0  0  0
 15 21  1  0  0  0  0
 16 19  1  0  0  0  0
 17 22  1  0  0  0  0
 19 18  1  0  0  0  0
 20 17  2  0  0  0  0
 20 21  1  0  0  0  0
 21 16  2  0  0  0  0
 22 19  2  0  0  0  0
 23 25  2  0  0  0  0
 24 23  1  0  0  0  0
 25 26  1  0  0  0  0
 26 27  2  0  0  0  0
 27 28  1  0  0  0  0
 28 31  1  0  0  0  0
 30 34  2  0  0  0  0
 31 32  2  0  0  0  0
 31 30  1  0  0  0  0
 32 33  1  0  0  0  0
 33 29  2  0  0  0  0
 34 29  1  0  0  0  0
 35 36  1  0  0  0  0
 36 28  1  0  0  0  0
 37  1  1  0  0  0  0
 38 39  1  0  0  0  0
 38 37  1  0  0  0  0
 39 41  1  0  0  0  0
 41 40  1  0  0  0  0
 42 41  1  0  0  0  0
 43 39  1  0  0  0  0
 45 43  1  0  0  0  0
 45 44  1  0  0  0  0
M  END
>  <MODEL>
8

>  <REMARK>
 VINA RESULT:      -5.6      2.306      5.777
  Name = 
  15 active torsions:
  status: ('A' for Active; 'I' for Inactive)
    1  A    between atoms: C_1  and  C_8
    2  A    between atoms: N_3  and  C_21
    3  A    between atoms: C_6  and  C_40
    4  A    between atoms: C_8  and  N_33
    5  A    between atoms: N_11  and  C_35
    6  A    between atoms: N_14  and  N_32
    7  A    between atoms: C_17  and  N_32
    8  A    between atoms: N_19  and  C_30
    9  A    between atoms: N_19  and  N_33
   10  A    between atoms: N_19  and  C_37
   11  A    between atoms: C_21  and  C_42
   12  A    between atoms: C_23  and  C_39
   13  A    between atoms: C_26  and  C_37
   14  A    between atoms: C_28  and  C_39
   15  A    between atoms: N_31  and  C_43
                            x       y       z     vdW  Elec       q    Type
                         _______ _______ _______ _____ _____    ______ ____

>  <TORSDO>
F 15

$$$$
=
 OpenBabel11042415123D

 45 47  0  0  1  0  0  0  0  0999 V2000
  188.6850  176.7790  143.5200 C   0  0  0  0  0  0  0  0  0  0  0  0
  189.9080  177.6560  143.3480 C   0  0  0  0  0  2  0  0  0  0  0  0
  188.8010  175.5800  144.1140 C   0  0  0  0  0  3  0  0  0  0  0  0
  190.1330  175.0880  144.6320 C   0  0  2  0  0  3  0  0  0  0  0  0
  190.9030  177.4340  144.4520 C   0  0  0  0  0  3  0  0  0  0  0  0
  191.0350  176.2350  145.0310 C   0  0  0  0  0  0  0  0  0  0  0  0
  191.4840  175.5450  147.3730 C   0  0  0  0  0  1  0  0  0  0  0  0
  194.1640  176.2410  146.8940 O   0  0  0  0  0  0  0  0  0  0  0  0
  193.3520  176.4310  145.9500 C   0  0  0  0  0  0  0  0  0  0  0  0
  191.9700  176.0650  146.1020 N   0  0  0  0  0  0  0  0  0  0  0  0
  193.8380  177.0710  144.6840 C   0  0  0  0  0  2  0  0  0  0  0  0
  195.9450  175.9040  143.9600 N   0  0  0  0  0  2  0  0  0  0  0  0
  194.5390  176.0890  143.8060 C   0  0  0  0  0  0  0  0  0  0  0  0
  193.8980  175.4530  142.9280 O   0  0  0  0  0  0  0  0  0  0  0  0
  196.6890  174.9200  143.1910 C   0  0  0  0  0  2  0  0  0  0  0  0
  197.3160  172.5000  143.4040 C   0  0  0  0  0  3  0  0  0  0  0  0
  196.7460  172.5490  146.1420 C   0  0  0  0  0  3  0  0  0  0  0  0
  197.9340  170.0800  143.5310 C   0  0  0  0  0  1  0  0  0  0  0  0
  197.4640  171.3400  144.1720 C   0  0  0  0  0  0  0  0  0  0  0  0
  196.5930  173.7080  145.3750 C   0  0  0  0  0  3  0  0  0  0  0  0
  196.8790  173.6860  144.0040 C   0  0  0  0  0  0  0  0  0  0  0  0
  197.1800  171.3640  145.5410 C   0  0  0  0  0  3  0  0  0  0  0  0
  190.7960  174.1520  143.6680 C   0  0  0  0  0  0  0  0  0  0  0  0
  192.0080  172.9660  144.2730 S   0  0  0  0  0  1  0  0  0  0  0  0
  190.3850  174.1960  142.3910 C   0  0  0  0  0  3  0  0  0  0  0  0
  190.9100  173.4260  141.3000 N   0  0  0  0  0  0  0  0  0  0  0  0
  190.4680  173.4740  140.0840 C   0  0  0  0  0  3  0  0  0  0  0  0
  191.0550  172.6800  139.0480 N   0  0  0  0  0  0  0  0  0  0  0  0
  189.4570  172.7640  135.1090 C   0  0  0  0  0  3  0  0  0  0  0  0
  190.0010  171.5340  137.1240 C   0  0  0  0  0  3  0  0  0  0  0  0
  190.5140  172.7020  137.7140 C   0  0  0  0  0  0  0  0  0  0  0  0
  190.4920  173.8990  136.9790 C   0  0  0  0  0  3  0  0  0  0  0  0
  189.9670  173.9290  135.6840 C   0  0  0  0  0  3  0  0  0  0  0  0
  189.4760  171.5650  135.8290 C   0  0  0  0  0  3  0  0  0  0  0  0
  193.2570  172.5370  138.8150 O   0  0  0  0  0  1  0  0  0  0  0  0
  192.1840  171.8940  139.3350 N   0  0  0  0  0  2  0  0  0  0  0  0
  187.3360  177.2040  143.0260 C   0  0  0  0  0  2  0  0  0  0  0  0
  186.2720  176.7330  143.9010 N   0  0  0  0  0  2  0  0  0  0  0  0
  186.1240  177.6930  144.9170 N   0  0  0  0  0  0  0  0  0  0  0  0
  184.0000  178.6660  145.6820 C   0  0  0  0  0  1  0  0  0  0  0  0
  185.0340  178.6140  144.5660 C   0  0  0  0  0  3  0  0  0  0  0  0
  185.5140  180.0270  144.2280 C   0  0  0  0  0  1  0  0  0  0  0  0
  185.7600  176.9890  146.1410 C   0  0  0  0  0  2  0  0  0  0  0  0
  187.9770  177.6980  146.8560 N   0  0  0  0  0  1  0  0  0  0  0  0
  187.0110  176.6130  146.9200 C   0  0  0  0  0  2  0  0  0  0  0  0
  1  3  2  0  0  0  0
  2  1  1  0  0  0  0
  2  5  1  0  0  0  0
  3  4  1  0  0  0  0
  4 23  1  6  0  0  0
  4  6  1  0  0  0  0
  5  6  2  0  0  0  0
  6 10  1  0  0  0  0
  9 10  1  0  0  0  0
  9  8  2  0  0  0  0
 10  7  1  0  0  0  0
 11  9  1  0  0  0  0
 13 12  1  0  0  0  0
 13 11  1  0  0  0  0
 14 13  2  0  0  0  0
 15 12  1  0  0  0  0
 15 21  1  0  0  0  0
 16 21  2  0  0  0  0
 16 19  1  0  0  0  0
 18 19  1  0  0  0  0
 19 22  2  0  0  0  0
 20 17  2  0  0  0  0
 21 20  1  0  0  0  0
 22 17  1  0  0  0  0
 23 24  1  0  0  0  0
 25 23  2  0  0  0  0
 26 25  1  0  0  0  0
 27 26  2  0  0  0  0
 28 36  1  0  0  0  0
 28 27  1  0  0  0  0
 29 33  2  0  0  0  0
 29 34  1  0  0  0  0
 30 31  1  0  0  0  0
 31 28  1  0  0  0  0
 32 31  2  0  0  0  0
 33 32  1  0  0  0  0
 34 30  2  0  0  0  0
 35 36  1  0  0  0  0
 37  1  1  0  0  0  0
 37 38  1  0  0  0  0
 38 39  1  0  0  0  0
 39 43  1  0  0  0  0
 41 39  1  0  0  0  0
 41 40  1  0  0  0  0
 42 41  1  0  0  0  0
 43 45  1  0  0  0  0
 44 45  1  0  0  0  0
M  END
>  <MODEL>
9

>  <REMARK>
 VINA RESULT:      -5.6      2.725      7.029
  Name = 
  15 active torsions:
  status: ('A' for Active; 'I' for Inactive)
    1  A    between atoms: C_1  and  C_8
    2  A    between atoms: N_3  and  C_21
    3  A    between atoms: C_6  and  C_40
    4  A    between atoms: C_8  and  N_33
    5  A    between atoms: N_11  and  C_35
    6  A    between atoms: N_14  and  N_32
    7  A    between atoms: C_17  and  N_32
    8  A    between atoms: N_19  and  C_30
    9  A    between atoms: N_19  and  N_33
   10  A    between atoms: N_19  and  C_37
   11  A    between atoms: C_21  and  C_42
   12  A    between atoms: C_23  and  C_39
   13  A    between atoms: C_26  and  C_37
   14  A    between atoms: C_28  and  C_39
   15  A    between atoms: N_31  and  C_43
                            x       y       z     vdW  Elec       q    Type
                         _______ _______ _______ _____ _____    ______ ____

>  <TORSDO>
F 15

$$$$
