=
 OpenBabel11042418513D

 26 29  0  0  1  0  0  0  0  0999 V2000
  187.8410  177.7290  144.8360 C   0  0  0  0  0  0  0  0  0  0  0  0
  188.3930  177.0040  147.1090 C   0  0  0  0  0  3  0  0  0  0  0  0
  186.8780  178.2250  143.8050 C   0  0  0  0  0  2  0  0  0  0  0  0
  185.0170  177.7510  145.6320 N   0  0  0  0  0  2  0  0  0  0  0  0
  191.5570  176.8530  145.2470 C   0  0  2  0  0  3  0  0  0  0  0  0
  185.7360  177.2230  143.5840 C   0  0  1  0  0  3  0  0  0  0  0  0
  190.0790  177.0300  145.3740 C   0  0  0  0  0  0  0  0  0  0  0  0
  193.6290  175.0690  145.6900 N   0  0  0  0  0  2  0  0  0  0  0  0
  192.8480  175.4620  146.7920 N   0  0  0  0  0  0  0  0  0  0  0  0
  193.1280  175.2270  144.3800 N   0  0  0  0  0  0  0  0  0  0  0  0
  192.0760  175.9600  144.1500 C   0  0  0  0  0  0  0  0  0  0  0  0
  191.8250  176.2260  146.5790 C   0  0  0  0  0  0  0  0  0  0  0  0
  189.7020  176.7990  146.6830 C   0  0  0  0  0  0  0  0  0  0  0  0
  190.7570  176.3450  147.4570 O   0  0  0  0  0  0  0  0  0  0  0  0
  187.4410  177.4700  146.1830 C   0  0  0  0  0  0  0  0  0  0  0  0
  185.9480  178.9210  147.5460 C   0  0  0  0  0  1  0  0  0  0  0  0
  189.1730  177.5220  144.4400 C   0  0  0  0  0  3  0  0  0  0  0  0
  186.0250  177.6690  146.6910 C   0  0  1  0  0  3  0  0  0  0  0  0
  191.6000  176.1280  142.7500 C   0  0  0  0  0  1  0  0  0  0  0  0
  185.1960  176.7010  144.7840 O   0  0  0  0  0  0  0  0  0  0  0  0
  184.6530  177.8370  142.7110 C   0  0  0  0  0  2  0  0  0  0  0  0
  185.2580  178.6480  141.6690 N   0  0  0  0  0  2  0  0  0  0  0  0
  185.0900  177.9210  140.4240 C   0  0  0  0  0  2  0  0  0  0  0  0
  186.5130  176.8560  138.6790 O   0  0  0  0  0  0  0  0  0  0  0  0
  186.4210  177.5220  139.8940 C   0  0  0  0  0  0  0  0  0  0  0  0
  187.4600  177.7560  140.5640 O   0  0  0  0  0  1  0  0  0  0  0  0
  1 15  1  0  0  0  0
  3  1  1  0  0  0  0
  4 18  1  0  0  0  0
  5 11  1  6  0  0  0
  5  7  1  0  0  0  0
  5 12  1  0  0  0  0
  6 21  1  1  0  0  0
  6  3  1  0  0  0  0
  6 20  1  0  0  0  0
  7 13  2  0  0  0  0
  8  9  1  0  0  0  0
 10  8  1  0  0  0  0
 11 10  2  0  0  0  0
 12  9  2  0  0  0  0
 12 14  1  0  0  0  0
 13  2  1  0  0  0  0
 13 14  1  0  0  0  0
 15 18  1  0  0  0  0
 15  2  2  0  0  0  0
 17  1  2  0  0  0  0
 17  7  1  0  0  0  0
 18 16  1  6  0  0  0
 19 11  1  0  0  0  0
 20  4  1  0  0  0  0
 22 21  1  0  0  0  0
 23 22  1  0  0  0  0
 24 25  2  0  0  0  0
 25 23  1  0  0  0  0
 25 26  1  0  0  0  0
M  END
>  <MODEL>
1

>  <REMARK>
 VINA RESULT:      -7.5      0.000      0.000
  Name = 
  4 active torsions:
  status: ('A' for Active; 'I' for Inactive)
    1  A    between atoms: C_1  and  N_7
    2  A    between atoms: C_1  and  C_10
    3  A    between atoms: N_7  and  C_8
    4  A    between atoms: C_8  and  C_16
                            x       y       z     vdW  Elec       q    Type
                         _______ _______ _______ _____ _____    ______ ____

>  <TORSDO>
F 4

$$$$
=
 OpenBabel11042418513D

 26 29  0  0  1  0  0  0  0  0999 V2000
  189.4530  176.0620  144.8220 C   0  0  0  0  0  0  0  0  0  0  0  0
  189.0330  177.2740  146.9080 C   0  0  0  0  0  3  0  0  0  0  0  0
  190.3530  175.3350  143.8740 C   0  0  0  0  0  2  0  0  0  0  0  0
  192.3160  176.1610  145.4530 N   0  0  0  0  0  2  0  0  0  0  0  0
  185.7710  177.0750  145.2280 C   0  0  2  0  0  3  0  0  0  0  0  0
  191.4880  176.2440  143.3800 C   0  0  1  0  0  3  0  0  0  0  0  0
  187.2520  176.9020  145.3120 C   0  0  0  0  0  0  0  0  0  0  0  0
  183.7390  178.9490  145.3800 N   0  0  0  0  0  2  0  0  0  0  0  0
  184.5770  178.7920  146.4980 N   0  0  0  0  0  0  0  0  0  0  0  0
  184.1640  178.5010  144.1120 N   0  0  0  0  0  0  0  0  0  0  0  0
  185.1970  177.7160  143.9910 C   0  0  0  0  0  0  0  0  0  0  0  0
  185.5810  177.9810  146.4030 C   0  0  0  0  0  0  0  0  0  0  0  0
  187.7040  177.4050  146.5170 C   0  0  0  0  0  0  0  0  0  0  0  0
  186.6960  178.0360  147.2280 O   0  0  0  0  0  0  0  0  0  0  0  0
  189.9290  176.6000  146.0570 C   0  0  0  0  0  0  0  0  0  0  0  0
  191.4860  175.4530  147.6230 C   0  0  0  0  0  1  0  0  0  0  0  0
  188.1020  176.2020  144.4610 C   0  0  0  0  0  3  0  0  0  0  0  0
  191.3700  176.4900  146.5200 C   0  0  1  0  0  3  0  0  0  0  0  0
  185.5940  177.2390  142.6380 C   0  0  0  0  0  1  0  0  0  0  0  0
  192.0980  177.0050  144.4070 O   0  0  0  0  0  0  0  0  0  0  0  0
  192.5170  175.4350  142.6060 C   0  0  0  0  0  2  0  0  0  0  0  0
  193.6470  176.2770  142.2560 N   0  0  0  0  0  2  0  0  0  0  0  0
  194.8450  175.5060  142.5340 C   0  0  0  0  0  2  0  0  0  0  0  0
  197.0590  176.6160  142.8030 O   0  0  0  0  0  0  0  0  0  0  0  0
  195.8000  176.3330  143.3180 C   0  0  0  0  0  0  0  0  0  0  0  0
  195.4820  176.7460  144.4630 O   0  0  0  0  0  1  0  0  0  0  0  0
  1 15  1  0  0  0  0
  3  1  1  0  0  0  0
  4 18  1  0  0  0  0
  5 11  1  6  0  0  0
  5  7  1  0  0  0  0
  5 12  1  0  0  0  0
  6 21  1  1  0  0  0
  6  3  1  0  0  0  0
  6 20  1  0  0  0  0
  7 13  2  0  0  0  0
  8  9  1  0  0  0  0
 10  8  1  0  0  0  0
 11 10  2  0  0  0  0
 12  9  2  0  0  0  0
 12 14  1  0  0  0  0
 13  2  1  0  0  0  0
 13 14  1  0  0  0  0
 15 18  1  0  0  0  0
 15  2  2  0  0  0  0
 17  1  2  0  0  0  0
 17  7  1  0  0  0  0
 18 16  1  1  0  0  0
 19 11  1  0  0  0  0
 20  4  1  0  0  0  0
 22 23  1  0  0  0  0
 22 21  1  0  0  0  0
 23 25  1  0  0  0  0
 24 25  2  0  0  0  0
 25 26  1  0  0  0  0
M  END
>  <MODEL>
2

>  <REMARK>
 VINA RESULT:      -7.4      2.595      7.030
  Name = 
  4 active torsions:
  status: ('A' for Active; 'I' for Inactive)
    1  A    between atoms: C_1  and  N_7
    2  A    between atoms: C_1  and  C_10
    3  A    between atoms: N_7  and  C_8
    4  A    between atoms: C_8  and  C_16
                            x       y       z     vdW  Elec       q    Type
                         _______ _______ _______ _____ _____    ______ ____

>  <TORSDO>
F 4

$$$$
=
 OpenBabel11042418513D

 26 29  0  0  1  0  0  0  0  0999 V2000
  189.4360  176.6810  144.6190 C   0  0  0  0  0  0  0  0  0  0  0  0
  188.4130  175.7390  142.6040 C   0  0  0  0  0  3  0  0  0  0  0  0
  190.5110  176.7240  145.6590 C   0  0  0  0  0  2  0  0  0  0  0  0
  191.3460  174.4550  144.5740 N   0  0  0  0  0  2  0  0  0  0  0  0
  186.2320  178.5280  143.5870 C   0  0  2  0  0  3  0  0  0  0  0  0
  190.5770  175.4060  146.4430 C   0  0  1  0  0  3  0  0  0  0  0  0
  187.3670  177.5760  143.7810 C   0  0  0  0  0  0  0  0  0  0  0  0
  183.4940  178.6740  143.2020 N   0  0  0  0  0  2  0  0  0  0  0  0
  184.2560  177.9590  142.2600 N   0  0  0  0  0  0  0  0  0  0  0  0
  184.0190  178.9310  144.4850 N   0  0  0  0  0  0  0  0  0  0  0  0
  185.2850  178.7520  144.7380 C   0  0  0  0  0  0  0  0  0  0  0  0
  185.5230  177.8130  142.4810 C   0  0  0  0  0  0  0  0  0  0  0  0
  187.3890  176.6730  142.7350 C   0  0  0  0  0  0  0  0  0  0  0  0
  186.2960  176.8180  141.8980 O   0  0  0  0  0  0  0  0  0  0  0  0
  189.4520  175.7310  143.5520 C   0  0  0  0  0  0  0  0  0  0  0  0
  191.4580  175.0830  142.2300 C   0  0  0  0  0  1  0  0  0  0  0  0
  188.3950  177.6180  144.7180 C   0  0  0  0  0  3  0  0  0  0  0  0
  190.5410  174.6890  143.3740 C   0  0  1  0  0  3  0  0  0  0  0  0
  185.8060  179.0660  146.0960 C   0  0  0  0  0  1  0  0  0  0  0  0
  190.5060  174.2520  145.6250 O   0  0  0  0  0  0  0  0  0  0  0  0
  191.8120  175.3790  147.3310 C   0  0  0  0  0  2  0  0  0  0  0  0
  192.6460  176.5340  147.0530 N   0  0  0  0  0  2  0  0  0  0  0  0
  193.9260  176.0250  146.5960 C   0  0  0  0  0  2  0  0  0  0  0  0
  194.3610  176.3890  144.1710 O   0  0  0  0  0  0  0  0  0  0  0  0
  194.4270  176.8630  145.4750 C   0  0  0  0  0  0  0  0  0  0  0  0
  194.9430  177.9860  145.7110 O   0  0  0  0  0  1  0  0  0  0  0  0
  1 17  1  0  0  0  0
  1  3  1  0  0  0  0
  2 13  2  0  0  0  0
  2 15  1  0  0  0  0
  3  6  1  0  0  0  0
  4 20  1  0  0  0  0
  5 12  1  6  0  0  0
  5  7  1  0  0  0  0
  5 11  1  0  0  0  0
  6 21  1  6  0  0  0
  7 17  2  0  0  0  0
  8 10  1  0  0  0  0
  9 12  2  0  0  0  0
  9  8  1  0  0  0  0
 10 11  2  0  0  0  0
 11 19  1  0  0  0  0
 13  7  1  0  0  0  0
 14 12  1  0  0  0  0
 14 13  1  0  0  0  0
 15  1  2  0  0  0  0
 18 16  1  6  0  0  0
 18 15  1  0  0  0  0
 18  4  1  0  0  0  0
 20  6  1  0  0  0  0
 22 21  1  0  0  0  0
 23 22  1  0  0  0  0
 24 25  2  0  0  0  0
 25 26  1  0  0  0  0
 25 23  1  0  0  0  0
M  END
>  <MODEL>
3

>  <REMARK>
 VINA RESULT:      -7.2      2.151      7.476
  Name = 
  4 active torsions:
  status: ('A' for Active; 'I' for Inactive)
    1  A    between atoms: C_1  and  N_7
    2  A    between atoms: C_1  and  C_10
    3  A    between atoms: N_7  and  C_8
    4  A    between atoms: C_8  and  C_16
                            x       y       z     vdW  Elec       q    Type
                         _______ _______ _______ _____ _____    ______ ____

>  <TORSDO>
F 4

$$$$
=
 OpenBabel11042418513D

 26 29  0  0  1  0  0  0  0  0999 V2000
  188.0130  177.6070  145.0600 C   0  0  0  0  0  0  0  0  0  0  0  0
  188.2650  175.9780  146.8710 C   0  0  0  0  0  3  0  0  0  0  0  0
  187.1900  178.5230  144.2120 C   0  0  0  0  0  2  0  0  0  0  0  0
  185.1070  177.3950  145.4030 N   0  0  0  0  0  2  0  0  0  0  0  0
  191.6580  176.5070  145.5630 C   0  0  2  0  0  3  0  0  0  0  0  0
  186.1130  177.7470  143.4400 C   0  0  1  0  0  3  0  0  0  0  0  0
  190.1730  176.6680  145.5520 C   0  0  0  0  0  0  0  0  0  0  0  0
  193.6920  174.6300  145.4920 N   0  0  0  0  0  2  0  0  0  0  0  0
  192.7580  174.5520  146.5410 N   0  0  0  0  0  0  0  0  0  0  0  0
  193.3730  175.3380  144.3150 N   0  0  0  0  0  0  0  0  0  0  0  0
  192.3450  176.1380  144.2740 C   0  0  0  0  0  0  0  0  0  0  0  0
  191.7560  175.3720  146.5320 C   0  0  0  0  0  0  0  0  0  0  0  0
  189.6250  175.9240  146.5800 C   0  0  0  0  0  0  0  0  0  0  0  0
  190.5750  175.1500  147.2260 O   0  0  0  0  0  0  0  0  0  0  0  0
  187.4390  176.8230  146.1070 C   0  0  0  0  0  0  0  0  0  0  0  0
  185.7370  177.6220  147.7380 C   0  0  0  0  0  1  0  0  0  0  0  0
  189.3910  177.5380  144.7980 C   0  0  0  0  0  3  0  0  0  0  0  0
  185.9620  176.8420  146.4550 C   0  0  1  0  0  3  0  0  0  0  0  0
  192.0610  176.8930  143.0230 C   0  0  0  0  0  1  0  0  0  0  0  0
  185.4260  176.7910  144.2250 O   0  0  0  0  0  0  0  0  0  0  0  0
  185.1450  178.7090  142.7670 C   0  0  0  0  0  2  0  0  0  0  0  0
  184.3880  178.0120  141.7430 N   0  0  0  0  0  2  0  0  0  0  0  0
  182.9860  178.2890  141.9990 C   0  0  0  0  0  2  0  0  0  0  0  0
  181.0550  178.9890  140.5900 O   0  0  0  0  0  1  0  0  0  0  0  0
  182.2280  178.2570  140.7210 C   0  0  0  0  0  0  0  0  0  0  0  0
  182.6290  177.5380  139.7700 O   0  0  0  0  0  0  0  0  0  0  0  0
  1 15  1  0  0  0  0
  3  1  1  0  0  0  0
  4 18  1  0  0  0  0
  5 11  1  6  0  0  0
  5 12  1  0  0  0  0
  6 21  1  1  0  0  0
  6  3  1  0  0  0  0
  6 20  1  0  0  0  0
  7  5  1  0  0  0  0
  7 13  2  0  0  0  0
  8  9  1  0  0  0  0
 10  8  1  0  0  0  0
 11 10  2  0  0  0  0
 12  9  2  0  0  0  0
 12 14  1  0  0  0  0
 13  2  1  0  0  0  0
 13 14  1  0  0  0  0
 15 18  1  0  0  0  0
 15  2  2  0  0  0  0
 17  1  2  0  0  0  0
 17  7  1  0  0  0  0
 18 16  1  1  0  0  0
 19 11  1  0  0  0  0
 20  4  1  0  0  0  0
 22 23  1  0  0  0  0
 22 21  1  0  0  0  0
 24 25  1  0  0  0  0
 25 23  1  0  0  0  0
 26 25  2  0  0  0  0
M  END
>  <MODEL>
4

>  <REMARK>
 VINA RESULT:      -7.2      1.749      1.974
  Name = 
  4 active torsions:
  status: ('A' for Active; 'I' for Inactive)
    1  A    between atoms: C_1  and  N_7
    2  A    between atoms: C_1  and  C_10
    3  A    between atoms: N_7  and  C_8
    4  A    between atoms: C_8  and  C_16
                            x       y       z     vdW  Elec       q    Type
                         _______ _______ _______ _____ _____    ______ ____

>  <TORSDO>
F 4

$$$$
=
 OpenBabel11042418513D

 26 29  0  0  1  0  0  0  0  0999 V2000
  188.0920  176.9120  144.0040 C   0  0  0  0  0  0  0  0  0  0  0  0
  189.8520  177.4050  142.3740 C   0  0  0  0  0  3  0  0  0  0  0  0
  186.6570  176.8590  144.4230 C   0  0  0  0  0  2  0  0  0  0  0  0
  186.1810  178.1930  142.1830 N   0  0  0  0  0  2  0  0  0  0  0  0
  191.5980  176.0420  145.3060 C   0  0  2  0  0  3  0  0  0  0  0  0
  186.0230  178.2570  144.4100 C   0  0  1  0  0  3  0  0  0  0  0  0
  190.4020  176.5520  144.5700 C   0  0  0  0  0  0  0  0  0  0  0  0
  194.1460  176.7210  146.1500 N   0  0  0  0  0  2  0  0  0  0  0  0
  193.8730  176.7670  144.7710 N   0  0  0  0  0  0  0  0  0  0  0  0
  193.0850  176.7510  147.0800 N   0  0  0  0  0  0  0  0  0  0  0  0
  191.8540  176.5600  146.6970 C   0  0  0  0  0  0  0  0  0  0  0  0
  192.6620  176.5350  144.3770 C   0  0  0  0  0  0  0  0  0  0  0  0
  190.7860  176.9810  143.3140 C   0  0  0  0  0  0  0  0  0  0  0  0
  192.1610  176.9450  143.1490 O   0  0  0  0  0  0  0  0  0  0  0  0
  188.4860  177.3770  142.7110 C   0  0  0  0  0  0  0  0  0  0  0  0
  187.3550  176.8100  140.5680 C   0  0  0  0  0  1  0  0  0  0  0  0
  189.0580  176.4820  144.9270 C   0  0  0  0  0  3  0  0  0  0  0  0
  187.5050  177.8570  141.6570 C   0  0  1  0  0  3  0  0  0  0  0  0
  190.7670  176.5670  147.7140 C   0  0  0  0  0  1  0  0  0  0  0  0
  186.3380  179.0150  143.2570 O   0  0  0  0  0  0  0  0  0  0  0  0
  184.5190  178.1590  144.6140 C   0  0  0  0  0  2  0  0  0  0  0  0
  184.1090  179.0360  145.6960 N   0  0  0  0  0  2  0  0  0  0  0  0
  184.1490  178.2460  146.9130 C   0  0  0  0  0  2  0  0  0  0  0  0
  186.1440  177.3310  148.0900 O   0  0  0  0  0  1  0  0  0  0  0  0
  185.4620  178.4300  147.5850 C   0  0  0  0  0  0  0  0  0  0  0  0
  185.9380  179.5860  147.7300 O   0  0  0  0  0  0  0  0  0  0  0  0
  1  3  1  0  0  0  0
  1 17  1  0  0  0  0
  2 15  1  0  0  0  0
  2 13  2  0  0  0  0
  4 20  1  0  0  0  0
  5 12  1  6  0  0  0
  5 11  1  0  0  0  0
  6  3  1  0  0  0  0
  6 21  1  6  0  0  0
  7 17  2  0  0  0  0
  7  5  1  0  0  0  0
  8 10  1  0  0  0  0
  9  8  1  0  0  0  0
 11 10  2  0  0  0  0
 11 19  1  0  0  0  0
 12  9  2  0  0  0  0
 13  7  1  0  0  0  0
 14 13  1  0  0  0  0
 14 12  1  0  0  0  0
 15  1  2  0  0  0  0
 18 16  1  6  0  0  0
 18  4  1  0  0  0  0
 18 15  1  0  0  0  0
 20  6  1  0  0  0  0
 21 22  1  0  0  0  0
 22 23  1  0  0  0  0
 23 25  1  0  0  0  0
 25 26  2  0  0  0  0
 25 24  1  0  0  0  0
M  END
>  <MODEL>
5

>  <REMARK>
 VINA RESULT:      -7.1      2.087      4.447
  Name = 
  4 active torsions:
  status: ('A' for Active; 'I' for Inactive)
    1  A    between atoms: C_1  and  N_7
    2  A    between atoms: C_1  and  C_10
    3  A    between atoms: N_7  and  C_8
    4  A    between atoms: C_8  and  C_16
                            x       y       z     vdW  Elec       q    Type
                         _______ _______ _______ _____ _____    ______ ____

>  <TORSDO>
F 4

$$$$
=
 OpenBabel11042418513D

 26 29  0  0  1  0  0  0  0  0999 V2000
  189.6230  175.9300  144.6960 C   0  0  0  0  0  0  0  0  0  0  0  0
  189.4510  177.1480  146.8140 C   0  0  0  0  0  3  0  0  0  0  0  0
  190.4040  175.1910  143.6570 C   0  0  0  0  0  2  0  0  0  0  0  0
  192.5400  175.9870  145.0110 N   0  0  0  0  0  2  0  0  0  0  0  0
  186.0230  176.9970  145.5000 C   0  0  2  0  0  3  0  0  0  0  0  0
  191.4910  176.0830  143.0410 C   0  0  1  0  0  3  0  0  0  0  0  0
  187.5020  176.8030  145.4230 C   0  0  0  0  0  0  0  0  0  0  0  0
  184.0480  178.9010  145.8710 N   0  0  0  0  0  2  0  0  0  0  0  0
  185.0000  178.7310  146.8910 N   0  0  0  0  0  0  0  0  0  0  0  0
  184.3250  178.4480  144.5650 N   0  0  0  0  0  0  0  0  0  0  0  0
  185.3270  177.6470  144.3330 C   0  0  0  0  0  0  0  0  0  0  0  0
  185.9760  177.9060  146.6880 C   0  0  0  0  0  0  0  0  0  0  0  0
  188.0890  177.2980  146.5710 C   0  0  0  0  0  0  0  0  0  0  0  0
  187.1750  177.9440  147.3870 O   0  0  0  0  0  0  0  0  0  0  0  0
  190.2390  176.4600  145.8720 C   0  0  0  0  0  0  0  0  0  0  0  0
  191.9410  175.2910  147.2600 C   0  0  0  0  0  1  0  0  0  0  0  0
  188.2440  176.0900  144.4850 C   0  0  0  0  0  3  0  0  0  0  0  0
  191.7200  176.3290  146.1750 C   0  0  1  0  0  3  0  0  0  0  0  0
  185.5670  177.1650  142.9450 C   0  0  0  0  0  1  0  0  0  0  0  0
  192.2210  176.8340  143.9940 O   0  0  0  0  0  0  0  0  0  0  0  0
  192.4180  175.2580  142.1600 C   0  0  0  0  0  2  0  0  0  0  0  0
  191.8730  173.9250  141.9810 N   0  0  0  0  0  2  0  0  0  0  0  0
  191.6820  173.7390  140.5550 C   0  0  0  0  0  2  0  0  0  0  0  0
  189.4980  172.7320  141.2040 O   0  0  0  0  0  1  0  0  0  0  0  0
  190.2530  173.4380  140.2760 C   0  0  0  0  0  0  0  0  0  0  0  0
  189.7370  173.7900  139.1840 O   0  0  0  0  0  0  0  0  0  0  0  0
  1 15  1  0  0  0  0
  3  1  1  0  0  0  0
  4 18  1  0  0  0  0
  5 11  1  6  0  0  0
  5 12  1  0  0  0  0
  6 21  1  1  0  0  0
  6  3  1  0  0  0  0
  6 20  1  0  0  0  0
  7  5  1  0  0  0  0
  7 13  2  0  0  0  0
  8  9  1  0  0  0  0
 10  8  1  0  0  0  0
 11 10  2  0  0  0  0
 12  9  2  0  0  0  0
 12 14  1  0  0  0  0
 13  2  1  0  0  0  0
 13 14  1  0  0  0  0
 15 18  1  0  0  0  0
 15  2  2  0  0  0  0
 17  1  2  0  0  0  0
 17  7  1  0  0  0  0
 18 16  1  1  0  0  0
 19 11  1  0  0  0  0
 20  4  1  0  0  0  0
 22 21  1  0  0  0  0
 23 22  1  0  0  0  0
 25 23  1  0  0  0  0
 25 24  1  0  0  0  0
 26 25  2  0  0  0  0
M  END
>  <MODEL>
6

>  <REMARK>
 VINA RESULT:      -7.0      2.290      6.189
  Name = 
  4 active torsions:
  status: ('A' for Active; 'I' for Inactive)
    1  A    between atoms: C_1  and  N_7
    2  A    between atoms: C_1  and  C_10
    3  A    between atoms: N_7  and  C_8
    4  A    between atoms: C_8  and  C_16
                            x       y       z     vdW  Elec       q    Type
                         _______ _______ _______ _____ _____    ______ ____

>  <TORSDO>
F 4

$$$$
=
 OpenBabel11042418513D

 26 29  0  0  1  0  0  0  0  0999 V2000
  189.4670  176.2150  144.8080 C   0  0  0  0  0  0  0  0  0  0  0  0
  189.0540  177.1560  147.0310 C   0  0  0  0  0  3  0  0  0  0  0  0
  190.3660  175.6210  143.7710 C   0  0  0  0  0  2  0  0  0  0  0  0
  192.3350  176.2660  145.4240 N   0  0  0  0  0  2  0  0  0  0  0  0
  185.7800  177.1320  145.3640 C   0  0  2  0  0  3  0  0  0  0  0  0
  191.4870  176.5960  143.3840 C   0  0  1  0  0  3  0  0  0  0  0  0
  187.2630  176.9660  145.4160 C   0  0  0  0  0  0  0  0  0  0  0  0
  183.7310  178.9520  145.7630 N   0  0  0  0  0  2  0  0  0  0  0  0
  184.5810  178.6660  146.8460 N   0  0  0  0  0  0  0  0  0  0  0  0
  184.1490  178.6680  144.4460 N   0  0  0  0  0  0  0  0  0  0  0  0
  185.1890  177.9150  144.2210 C   0  0  0  0  0  0  0  0  0  0  0  0
  185.5920  177.8840  146.6440 C   0  0  0  0  0  0  0  0  0  0  0  0
  187.7200  177.3200  146.6700 C   0  0  0  0  0  0  0  0  0  0  0  0
  186.7130  177.8480  147.4610 O   0  0  0  0  0  0  0  0  0  0  0  0
  189.9490  176.6020  146.0970 C   0  0  0  0  0  0  0  0  0  0  0  0
  191.5310  175.2870  147.4970 C   0  0  0  0  0  1  0  0  0  0  0  0
  188.1120  176.3840  144.4780 C   0  0  0  0  0  3  0  0  0  0  0  0
  191.3940  176.4500  146.5310 C   0  0  1  0  0  3  0  0  0  0  0  0
  185.5770  177.6130  142.8160 C   0  0  0  0  0  1  0  0  0  0  0  0
  192.0990  177.2300  144.4920 O   0  0  0  0  0  0  0  0  0  0  0  0
  192.5170  175.8990  142.5080 C   0  0  0  0  0  2  0  0  0  0  0  0
  192.1080  174.5280  142.2600 N   0  0  0  0  0  2  0  0  0  0  0  0
  193.2990  173.7080  142.3830 C   0  0  0  0  0  2  0  0  0  0  0  0
  194.8210  173.6980  144.3540 O   0  0  0  0  0  0  0  0  0  0  0  0
  193.5680  173.4290  143.8180 C   0  0  0  0  0  0  0  0  0  0  0  0
  192.6740  172.9140  144.5370 O   0  0  0  0  0  1  0  0  0  0  0  0
  1 15  1  0  0  0  0
  3  1  1  0  0  0  0
  4 18  1  0  0  0  0
  5 11  1  6  0  0  0
  5  7  1  0  0  0  0
  5 12  1  0  0  0  0
  6 21  1  1  0  0  0
  6  3  1  0  0  0  0
  6 20  1  0  0  0  0
  7 13  2  0  0  0  0
  8  9  1  0  0  0  0
 10  8  1  0  0  0  0
 11 10  2  0  0  0  0
 12  9  2  0  0  0  0
 12 14  1  0  0  0  0
 13  2  1  0  0  0  0
 13 14  1  0  0  0  0
 15 18  1  0  0  0  0
 15  2  2  0  0  0  0
 17  1  2  0  0  0  0
 17  7  1  0  0  0  0
 18 16  1  1  0  0  0
 19 11  1  0  0  0  0
 20  4  1  0  0  0  0
 22 23  1  0  0  0  0
 22 21  1  0  0  0  0
 23 25  1  0  0  0  0
 25 24  2  0  0  0  0
 25 26  1  0  0  0  0
M  END
>  <MODEL>
7

>  <REMARK>
 VINA RESULT:      -7.0      2.603      6.809
  Name = 
  4 active torsions:
  status: ('A' for Active; 'I' for Inactive)
    1  A    between atoms: C_1  and  N_7
    2  A    between atoms: C_1  and  C_10
    3  A    between atoms: N_7  and  C_8
    4  A    between atoms: C_8  and  C_16
                            x       y       z     vdW  Elec       q    Type
                         _______ _______ _______ _____ _____    ______ ____

>  <TORSDO>
F 4

$$$$
=
 OpenBabel11042418513D

 26 29  0  0  1  0  0  0  0  0999 V2000
  187.2160  177.4030  144.9480 C   0  0  0  0  0  0  0  0  0  0  0  0
  187.9910  176.0580  146.8420 C   0  0  0  0  0  3  0  0  0  0  0  0
  186.3550  178.4680  144.3490 C   0  0  0  0  0  2  0  0  0  0  0  0
  185.1180  178.4790  146.6930 N   0  0  0  0  0  2  0  0  0  0  0  0
  189.9990  174.9420  143.9740 C   0  0  2  0  0  3  0  0  0  0  0  0
  184.8650  178.1280  144.5020 C   0  0  1  0  0  3  0  0  0  0  0  0
  188.8960  175.7100  144.6250 C   0  0  0  0  0  0  0  0  0  0  0  0
  190.9940  172.3900  143.5720 N   0  0  0  0  0  2  0  0  0  0  0  0
  190.8560  172.8440  144.8960 N   0  0  0  0  0  0  0  0  0  0  0  0
  190.2730  173.0150  142.5340 N   0  0  0  0  0  0  0  0  0  0  0  0
  189.6840  174.1620  142.7250 C   0  0  0  0  0  0  0  0  0  0  0  0
  190.3100  174.0010  145.0940 C   0  0  0  0  0  0  0  0  0  0  0  0
  188.8540  175.4000  145.9710 C   0  0  0  0  0  0  0  0  0  0  0  0
  189.7380  174.3850  146.2990 O   0  0  0  0  0  0  0  0  0  0  0  0
  187.1540  177.0700  146.3360 C   0  0  0  0  0  0  0  0  0  0  0  0
  187.0060  178.7070  148.2050 C   0  0  0  0  0  1  0  0  0  0  0  0
  188.1070  176.7280  144.0970 C   0  0  0  0  0  3  0  0  0  0  0  0
  186.2230  177.7520  147.3210 C   0  0  1  0  0  3  0  0  0  0  0  0
  188.9610  174.8040  141.5940 C   0  0  0  0  0  1  0  0  0  0  0  0
  184.5180  177.6560  145.7900 O   0  0  0  0  0  0  0  0  0  0  0  0
  184.0060  179.3170  144.0990 C   0  0  0  0  0  2  0  0  0  0  0  0
  182.8970  178.8690  143.2750 N   0  0  0  0  0  2  0  0  0  0  0  0
  183.4760  178.2250  142.1090 C   0  0  0  0  0  2  0  0  0  0  0  0
  182.7520  177.5120  139.8360 O   0  0  0  0  0  0  0  0  0  0  0  0
  182.4920  178.2310  140.9950 C   0  0  0  0  0  0  0  0  0  0  0  0
  181.4410  178.9160  141.0870 O   0  0  0  0  0  1  0  0  0  0  0  0
  1 15  1  0  0  0  0
  3  6  1  0  0  0  0
  3  1  1  0  0  0  0
  4 18  1  0  0  0  0
  5 11  1  6  0  0  0
  5  7  1  0  0  0  0
  5 12  1  0  0  0  0
  6 21  1  1  0  0  0
  6 20  1  0  0  0  0
  7 13  2  0  0  0  0
  8  9  1  0  0  0  0
  9 12  2  0  0  0  0
 10 11  2  0  0  0  0
 10  8  1  0  0  0  0
 12 14  1  0  0  0  0
 13 14  1  0  0  0  0
 13  2  1  0  0  0  0
 15  2  2  0  0  0  0
 15 18  1  0  0  0  0
 17  7  1  0  0  0  0
 17  1  2  0  0  0  0
 18 16  1  6  0  0  0
 19 11  1  0  0  0  0
 20  4  1  0  0  0  0
 22 21  1  0  0  0  0
 23 22  1  0  0  0  0
 24 25  2  0  0  0  0
 25 26  1  0  0  0  0
 25 23  1  0  0  0  0
M  END
>  <MODEL>
8

>  <REMARK>
 VINA RESULT:      -6.9      2.538      2.793
  Name = 
  4 active torsions:
  status: ('A' for Active; 'I' for Inactive)
    1  A    between atoms: C_1  and  N_7
    2  A    between atoms: C_1  and  C_10
    3  A    between atoms: N_7  and  C_8
    4  A    between atoms: C_8  and  C_16
                            x       y       z     vdW  Elec       q    Type
                         _______ _______ _______ _____ _____    ______ ____

>  <TORSDO>
F 4

$$$$
=
 OpenBabel11042418513D

 26 29  0  0  1  0  0  0  0  0999 V2000
  188.9330  175.4170  143.7610 C   0  0  0  0  0  0  0  0  0  0  0  0
  186.9120  175.4600  142.3780 C   0  0  0  0  0  3  0  0  0  0  0  0
  190.2760  174.8680  144.1190 C   0  0  0  0  0  2  0  0  0  0  0  0
  189.7280  172.9690  142.3530 N   0  0  0  0  0  2  0  0  0  0  0  0
  186.4730  178.1680  144.8220 C   0  0  2  0  0  3  0  0  0  0  0  0
  190.1850  173.3830  144.5000 C   0  0  1  0  0  3  0  0  0  0  0  0
  187.1680  176.9790  144.2430 C   0  0  0  0  0  0  0  0  0  0  0  0
  184.0660  179.0410  145.8760 N   0  0  0  0  0  2  0  0  0  0  0  0
  184.0670  178.5340  144.5640 N   0  0  0  0  0  0  0  0  0  0  0  0
  185.1250  178.7280  146.7540 N   0  0  0  0  0  0  0  0  0  0  0  0
  186.2280  178.1980  146.3080 C   0  0  0  0  0  0  0  0  0  0  0  0
  185.1700  178.0430  144.0970 C   0  0  0  0  0  0  0  0  0  0  0  0
  186.4380  176.4980  143.1730 C   0  0  0  0  0  0  0  0  0  0  0  0
  185.2270  177.1560  143.0310 O   0  0  0  0  0  0  0  0  0  0  0  0
  188.1710  174.9020  142.6670 C   0  0  0  0  0  0  0  0  0  0  0  0
  189.0840  174.3060  140.4300 C   0  0  0  0  0  1  0  0  0  0  0  0
  188.4300  176.4730  144.5380 C   0  0  0  0  0  3  0  0  0  0  0  0
  188.6430  173.7660  141.7780 C   0  0  1  0  0  3  0  0  0  0  0  0
  187.3350  177.9130  147.2630 C   0  0  0  0  0  1  0  0  0  0  0  0
  189.3810  172.6180  143.6210 O   0  0  0  0  0  0  0  0  0  0  0  0
  191.5770  172.7840  144.6380 C   0  0  0  0  0  2  0  0  0  0  0  0
  192.5800  173.8220  144.4790 N   0  0  0  0  0  2  0  0  0  0  0  0
  193.4450  173.7490  145.6420 C   0  0  0  0  0  2  0  0  0  0  0  0
  192.1270  175.3120  147.0640 O   0  0  0  0  0  1  0  0  0  0  0  0
  193.3260  175.0000  146.4350 C   0  0  0  0  0  0  0  0  0  0  0  0
  194.2980  175.7960  146.5060 O   0  0  0  0  0  0  0  0  0  0  0  0
  1  3  1  0  0  0  0
  1 17  1  0  0  0  0
  2 15  1  0  0  0  0
  2 13  2  0  0  0  0
  3  6  1  0  0  0  0
  4 20  1  0  0  0  0
  5 12  1  6  0  0  0
  5 11  1  0  0  0  0
  6 21  1  6  0  0  0
  7 17  2  0  0  0  0
  7  5  1  0  0  0  0
  8 10  1  0  0  0  0
  9  8  1  0  0  0  0
 11 10  2  0  0  0  0
 11 19  1  0  0  0  0
 12  9  2  0  0  0  0
 13  7  1  0  0  0  0
 14 13  1  0  0  0  0
 14 12  1  0  0  0  0
 15  1  2  0  0  0  0
 18 16  1  6  0  0  0
 18  4  1  0  0  0  0
 18 15  1  0  0  0  0
 20  6  1  0  0  0  0
 22 21  1  0  0  0  0
 22 23  1  0  0  0  0
 23 25  1  0  0  0  0
 25 26  2  0  0  0  0
 25 24  1  0  0  0  0
M  END
>  <MODEL>
9

>  <REMARK>
 VINA RESULT:      -6.8      2.631      7.412
  Name = 
  4 active torsions:
  status: ('A' for Active; 'I' for Inactive)
    1  A    between atoms: C_1  and  N_7
    2  A    between atoms: C_1  and  C_10
    3  A    between atoms: N_7  and  C_8
    4  A    between atoms: C_8  and  C_16
                            x       y       z     vdW  Elec       q    Type
                         _______ _______ _______ _____ _____    ______ ____

>  <TORSDO>
F 4

$$$$
