=
 OpenBabel11042417123D

 38 40  0  0  1  0  0  0  0  0999 V2000
  188.0780  177.0340  141.6940 C   0  0  0  0  0  0  0  0  0  0  0  0
  190.1540  176.6660  143.1380 C   0  0  2  0  0  3  0  0  0  0  0  0
  189.1790  177.4880  142.3280 C   0  0  0  0  0  3  0  0  0  0  0  0
  188.6400  174.5830  141.8230 C   0  0  2  0  0  3  0  0  0  0  0  0
  189.4510  175.6350  144.0090 C   0  0  0  0  0  2  0  0  0  0  0  0
  189.1920  174.3420  143.2320 C   0  0  0  0  0  2  0  0  0  0  0  0
  187.5370  175.6340  141.8290 C   0  0  0  0  0  2  0  0  0  0  0  0
  187.4880  172.4920  141.9100 O   0  0  0  0  0  0  0  0  0  0  0  0
  188.1470  173.3090  141.2130 C   0  0  0  0  0  0  0  0  0  0  0  0
  188.3880  173.0150  139.8340 N   0  0  0  0  0  2  0  0  0  0  0  0
  189.1210  173.9030  138.9370 C   0  0  0  0  0  2  0  0  0  0  0  0
  188.2930  174.2310  137.7010 C   0  0  0  0  0  2  0  0  0  0  0  0
  186.7670  175.8520  136.7100 N   0  0  0  0  0  1  0  0  0  0  0  0
  187.3580  175.4020  137.9570 C   0  0  0  0  0  2  0  0  0  0  0  0
  191.0000  177.5770  144.0110 C   0  0  0  0  0  2  0  0  0  0  0  0
  192.0960  176.7810  144.6990 C   0  0  0  0  0  2  0  0  0  0  0  0
  193.2350  176.6330  143.8070 N   0  0  0  0  0  2  0  0  0  0  0  0
  194.1540  175.6890  144.4240 C   0  0  1  0  0  3  0  0  0  0  0  0
  194.3630  174.5890  143.5590 O   0  0  0  0  0  0  0  0  0  0  0  0
  196.4020  175.6040  143.9670 C   0  0  1  0  0  3  0  0  0  0  0  0
  195.4030  176.3300  144.6630 O   0  0  0  0  0  0  0  0  0  0  0  0
  196.2180  173.6350  142.5620 O   0  0  0  0  0  0  0  0  0  0  0  0
  195.6920  174.5210  143.2880 C   0  0  0  0  0  0  0  0  0  0  0  0
  197.0730  176.5090  142.9470 C   0  0  0  0  0  2  0  0  0  0  0  0
  196.1660  176.8370  141.9390 O   0  0  0  0  0  1  0  0  0  0  0  0
  187.2730  178.0000  140.8920 C   0  0  0  0  0  2  0  0  0  0  0  0
  185.9700  177.4290  140.5920 N   0  0  0  0  0  2  0  0  0  0  0  0
  185.0250  178.4260  140.8580 N   0  0  0  0  0  2  0  0  0  0  0  0
  184.2970  178.0030  142.0420 C   0  0  0  0  0  2  0  0  0  0  0  0
  184.5780  178.9140  143.1420 N   0  0  0  0  0  2  0  0  0  0  0  0
  184.8930  178.1270  144.2590 N   0  0  0  0  0  0  0  0  0  0  0  0
  184.0880  178.6280  145.3700 C   0  0  0  0  0  2  0  0  0  0  0  0
  184.2820  177.8260  146.5140 O   0  0  0  0  0  0  0  0  0  0  0  0
  186.2870  178.4010  144.5870 C   0  0  0  0  0  2  0  0  0  0  0  0
  185.6210  177.9530  146.9610 C   0  0  1  0  0  3  0  0  0  0  0  0
  186.6670  177.6740  145.8700 C   0  0  0  0  0  2  0  0  0  0  0  0
  185.8780  179.2170  147.7880 C   0  0  0  0  0  2  0  0  0  0  0  0
  187.1870  179.1890  148.4240 N   0  0  0  0  0  1  0  0  0  0  0  0
  1  7  1  0  0  0  0
  1  3  2  0  0  0  0
  2  5  1  0  0  0  0
  2 15  1  1  0  0  0
  3  2  1  0  0  0  0
  4  9  1  1  0  0  0
  4  7  1  0  0  0  0
  4  6  1  0  0  0  0
  6  5  1  0  0  0  0
  9  8  2  0  0  0  0
 10  9  1  0  0  0  0
 11 10  1  0  0  0  0
 12 14  1  0  0  0  0
 12 11  1  0  0  0  0
 13 14  1  0  0  0  0
 15 16  1  0  0  0  0
 17 16  1  0  0  0  0
 18 17  1  6  0  0  0
 18 21  1  0  0  0  0
 19 18  1  0  0  0  0
 20 24  1  6  0  0  0
 20 21  1  0  0  0  0
 22 23  2  0  0  0  0
 23 19  1  0  0  0  0
 23 20  1  0  0  0  0
 25 24  1  0  0  0  0
 26  1  1  0  0  0  0
 27 28  1  0  0  0  0
 27 26  1  0  0  0  0
 28 29  1  0  0  0  0
 29 30  1  0  0  0  0
 30 31  1  0  0  0  0
 31 34  1  0  0  0  0
 31 32  1  0  0  0  0
 32 33  1  0  0  0  0
 33 35  1  0  0  0  0
 34 36  1  0  0  0  0
 35 37  1  6  0  0  0
 36 35  1  0  0  0  0
 37 38  1  0  0  0  0
M  END
>  <MODEL>
1

>  <REMARK>
 VINA RESULT:      -6.3      0.000      0.000
  Name = 
  16 active torsions:
  status: ('A' for Active; 'I' for Inactive)
    1  A    between atoms: C_1  and  C_8
    2  A    between atoms: C_1  and  C_34
    3  A    between atoms: C_2  and  C_21
    4  A    between atoms: N_3  and  N_4
    5  A    between atoms: N_4  and  C_14
    6  A    between atoms: C_6  and  N_7
    7  A    between atoms: N_7  and  C_34
    8  A    between atoms: N_11  and  C_14
    9  A    between atoms: N_11  and  N_28
   10  A    between atoms: C_12  and  C_25
   11  A    between atoms: C_16  and  C_27
   12  A    between atoms: C_18  and  C_26
   13  A    between atoms: C_19  and  C_20
   14  A    between atoms: C_19  and  C_22
   15  A    between atoms: C_21  and  N_28
   16  A    between atoms: C_22  and  N_38
                            x       y       z     vdW  Elec       q    Type
                         _______ _______ _______ _____ _____    ______ ____

>  <TORSDO>
F 16

$$$$
=
 OpenBabel11042417123D

 38 40  0  0  1  0  0  0  0  0999 V2000
  192.0910  173.9180  145.1250 C   0  0  0  0  0  0  0  0  0  0  0  0
  191.6610  176.3960  145.5800 C   0  0  2  0  0  3  0  0  0  0  0  0
  191.2850  175.0000  145.1400 C   0  0  0  0  0  3  0  0  0  0  0  0
  194.2660  175.1530  145.4120 C   0  0  2  0  0  3  0  0  0  0  0  0
  192.5320  176.3900  146.8280 C   0  0  0  0  0  2  0  0  0  0  0  0
  194.0110  176.2340  146.4670 C   0  0  0  0  0  2  0  0  0  0  0  0
  193.4780  173.8850  145.7130 C   0  0  0  0  0  2  0  0  0  0  0  0
  196.2660  174.0430  146.1030 O   0  0  0  0  0  0  0  0  0  0  0  0
  195.7260  174.8470  145.2970 C   0  0  0  0  0  0  0  0  0  0  0  0
  196.5190  175.4360  144.2620 N   0  0  0  0  0  2  0  0  0  0  0  0
  195.9860  176.3620  143.2680 C   0  0  0  0  0  2  0  0  0  0  0  0
  195.6570  175.6360  141.9690 C   0  0  0  0  0  2  0  0  0  0  0  0
  196.1610  175.4860  139.5900 N   0  0  0  0  0  1  0  0  0  0  0  0
  196.6130  176.0340  140.8560 C   0  0  0  0  0  2  0  0  0  0  0  0
  190.4080  177.2140  145.8390 C   0  0  0  0  0  2  0  0  0  0  0  0
  189.4610  176.4550  146.7540 C   0  0  0  0  0  2  0  0  0  0  0  0
  188.4010  177.3390  147.2120 N   0  0  0  0  0  2  0  0  0  0  0  0
  187.1350  176.7570  146.7950 C   0  0  1  0  0  3  0  0  0  0  0  0
  186.0930  177.2290  147.6270 O   0  0  0  0  0  0  0  0  0  0  0  0
  185.6180  177.8210  145.4410 C   0  0  1  0  0  3  0  0  0  0  0  0
  186.8580  177.1360  145.4500 O   0  0  0  0  0  0  0  0  0  0  0  0
  184.1150  178.3690  147.2650 O   0  0  0  0  0  0  0  0  0  0  0  0
  185.1820  177.8530  146.8370 C   0  0  0  0  0  0  0  0  0  0  0  0
  185.8200  179.2360  144.9250 C   0  0  0  0  0  2  0  0  0  0  0  0
  184.7160  179.6230  144.1650 O   0  0  0  0  0  1  0  0  0  0  0  0
  191.5450  172.6350  144.5950 C   0  0  0  0  0  2  0  0  0  0  0  0
  190.1050  172.7430  144.4290 N   0  0  0  0  0  2  0  0  0  0  0  0
  189.8150  172.2910  143.1360 N   0  0  0  0  0  2  0  0  0  0  0  0
  188.8890  173.2490  142.5590 C   0  0  0  0  0  2  0  0  0  0  0  0
  189.5770  174.5070  142.3080 N   0  0  0  0  0  2  0  0  0  0  0  0
  188.6950  175.5380  142.6610 N   0  0  0  0  0  0  0  0  0  0  0  0
  187.4370  175.2740  141.9680 C   0  0  0  0  0  2  0  0  0  0  0  0
  186.4630  176.2230  142.3440 O   0  0  0  0  0  0  0  0  0  0  0  0
  189.2400  176.7690  142.0990 C   0  0  0  0  0  2  0  0  0  0  0  0
  186.8540  177.5080  141.8930 C   0  0  1  0  0  3  0  0  0  0  0  0
  188.2670  177.9170  142.3350 C   0  0  0  0  0  2  0  0  0  0  0  0
  186.5460  177.7610  140.4130 C   0  0  0  0  0  2  0  0  0  0  0  0
  185.1130  177.8100  140.1610 N   0  0  0  0  0  1  0  0  0  0  0  0
  1  3  2  0  0  0  0
  1  7  1  0  0  0  0
  2 15  1  1  0  0  0
  2  5  1  0  0  0  0
  3  2  1  0  0  0  0
  4  9  1  1  0  0  0
  4  7  1  0  0  0  0
  4  6  1  0  0  0  0
  6  5  1  0  0  0  0
  9  8  2  0  0  0  0
 10  9  1  0  0  0  0
 11 10  1  0  0  0  0
 12 11  1  0  0  0  0
 13 14  1  0  0  0  0
 14 12  1  0  0  0  0
 15 16  1  0  0  0  0
 16 17  1  0  0  0  0
 18 17  1  1  0  0  0
 18 19  1  0  0  0  0
 20 24  1  1  0  0  0
 20 21  1  0  0  0  0
 20 23  1  0  0  0  0
 21 18  1  0  0  0  0
 23 22  2  0  0  0  0
 23 19  1  0  0  0  0
 25 24  1  0  0  0  0
 26  1  1  0  0  0  0
 27 26  1  0  0  0  0
 28 27  1  0  0  0  0
 29 28  1  0  0  0  0
 30 29  1  0  0  0  0
 30 31  1  0  0  0  0
 32 33  1  0  0  0  0
 32 31  1  0  0  0  0
 34 36  1  0  0  0  0
 34 31  1  0  0  0  0
 35 37  1  6  0  0  0
 35 36  1  0  0  0  0
 35 33  1  0  0  0  0
 38 37  1  0  0  0  0
M  END
>  <MODEL>
2

>  <REMARK>
 VINA RESULT:      -6.2      2.501      7.893
  Name = 
  16 active torsions:
  status: ('A' for Active; 'I' for Inactive)
    1  A    between atoms: C_1  and  C_8
    2  A    between atoms: C_1  and  C_34
    3  A    between atoms: C_2  and  C_21
    4  A    between atoms: N_3  and  N_4
    5  A    between atoms: N_4  and  C_14
    6  A    between atoms: C_6  and  N_7
    7  A    between atoms: N_7  and  C_34
    8  A    between atoms: N_11  and  C_14
    9  A    between atoms: N_11  and  N_28
   10  A    between atoms: C_12  and  C_25
   11  A    between atoms: C_16  and  C_27
   12  A    between atoms: C_18  and  C_26
   13  A    between atoms: C_19  and  C_20
   14  A    between atoms: C_19  and  C_22
   15  A    between atoms: C_21  and  N_28
   16  A    between atoms: C_22  and  N_38
                            x       y       z     vdW  Elec       q    Type
                         _______ _______ _______ _____ _____    ______ ____

>  <TORSDO>
F 16

$$$$
=
 OpenBabel11042417123D

 38 40  0  0  1  0  0  0  0  0999 V2000
  191.0980  177.3120  144.5680 C   0  0  0  0  0  0  0  0  0  0  0  0
  193.4050  176.3940  145.1700 C   0  0  2  0  0  3  0  0  0  0  0  0
  192.4390  177.2890  144.4290 C   0  0  0  0  0  3  0  0  0  0  0  0
  190.8820  175.1420  145.8240 C   0  0  2  0  0  3  0  0  0  0  0  0
  193.0400  176.2470  146.6410 C   0  0  0  0  0  2  0  0  0  0  0  0
  192.0240  175.1210  146.8460 C   0  0  0  0  0  2  0  0  0  0  0  0
  190.3400  176.5510  145.6250 C   0  0  0  0  0  2  0  0  0  0  0  0
  189.1590  174.4010  147.3040 O   0  0  0  0  0  0  0  0  0  0  0  0
  189.7830  174.2100  146.2270 C   0  0  0  0  0  0  0  0  0  0  0  0
  189.4080  173.1130  145.3880 N   0  0  0  0  0  2  0  0  0  0  0  0
  190.0530  172.8180  144.1130 C   0  0  0  0  0  2  0  0  0  0  0  0
  189.1860  173.2750  142.9460 C   0  0  0  0  0  2  0  0  0  0  0  0
  189.1550  174.4610  140.8180 N   0  0  0  0  0  1  0  0  0  0  0  0
  190.0090  174.0110  141.9020 C   0  0  0  0  0  2  0  0  0  0  0  0
  194.8170  176.9400  145.0490 C   0  0  0  0  0  2  0  0  0  0  0  0
  195.6660  176.0260  144.1810 C   0  0  0  0  0  2  0  0  0  0  0  0
  194.8670  174.9030  143.7180 N   0  0  0  0  0  2  0  0  0  0  0  0
  195.7640  173.7710  143.5410 C   0  0  1  0  0  3  0  0  0  0  0  0
  196.6410  173.6770  144.6470 O   0  0  0  0  0  0  0  0  0  0  0  0
  195.4320  171.7110  144.4970 C   0  0  1  0  0  3  0  0  0  0  0  0
  195.0020  172.5710  143.4560 O   0  0  0  0  0  0  0  0  0  0  0  0
  197.1120  172.0460  146.2160 O   0  0  0  0  0  0  0  0  0  0  0  0
  196.4630  172.4590  145.2170 C   0  0  0  0  0  0  0  0  0  0  0  0
  194.2660  171.4070  145.4220 C   0  0  0  0  0  2  0  0  0  0  0  0
  193.1100  172.0220  144.9420 O   0  0  0  0  0  1  0  0  0  0  0  0
  190.3120  178.2330  143.6960 C   0  0  0  0  0  2  0  0  0  0  0  0
  189.9980  177.5750  142.4390 N   0  0  0  0  0  2  0  0  0  0  0  0
  188.8960  178.2490  141.8980 N   0  0  0  0  0  2  0  0  0  0  0  0
  187.7250  177.7670  142.6110 C   0  0  0  0  0  2  0  0  0  0  0  0
  186.6490  178.7410  142.5000 N   0  0  0  0  0  2  0  0  0  0  0  0
  185.6780  178.3940  143.4510 N   0  0  0  0  0  0  0  0  0  0  0  0
  185.3710  179.6080  144.2030 C   0  0  0  0  0  2  0  0  0  0  0  0
  184.3320  179.3620  145.1240 O   0  0  0  0  0  0  0  0  0  0  0  0
  186.3140  177.4680  144.3810 C   0  0  0  0  0  2  0  0  0  0  0  0
  184.7760  178.4400  146.1050 C   0  0  1  0  0  3  0  0  0  0  0  0
  185.3550  177.1440  145.5190 C   0  0  0  0  0  2  0  0  0  0  0  0
  185.6220  179.0780  147.2120 C   0  0  0  0  0  2  0  0  0  0  0  0
  186.4180  178.0880  147.9230 N   0  0  0  0  0  1  0  0  0  0  0  0
  1  7  1  0  0  0  0
  2 15  1  1  0  0  0
  2  5  1  0  0  0  0
  3  1  2  0  0  0  0
  3  2  1  0  0  0  0
  4  9  1  1  0  0  0
  4  6  1  0  0  0  0
  5  6  1  0  0  0  0
  7  4  1  0  0  0  0
  9  8  2  0  0  0  0
 10  9  1  0  0  0  0
 11 10  1  0  0  0  0
 12 11  1  0  0  0  0
 13 14  1  0  0  0  0
 14 12  1  0  0  0  0
 16 15  1  0  0  0  0
 17 16  1  0  0  0  0
 18 17  1  1  0  0  0
 18 19  1  0  0  0  0
 19 23  1  0  0  0  0
 20 23  1  0  0  0  0
 20 24  1  1  0  0  0
 21 18  1  0  0  0  0
 21 20  1  0  0  0  0
 23 22  2  0  0  0  0
 25 24  1  0  0  0  0
 26  1  1  0  0  0  0
 27 26  1  0  0  0  0
 28 27  1  0  0  0  0
 28 29  1  0  0  0  0
 30 29  1  0  0  0  0
 30 31  1  0  0  0  0
 31 32  1  0  0  0  0
 31 34  1  0  0  0  0
 32 33  1  0  0  0  0
 33 35  1  0  0  0  0
 34 36  1  0  0  0  0
 35 37  1  6  0  0  0
 36 35  1  0  0  0  0
 37 38  1  0  0  0  0
M  END
>  <MODEL>
3

>  <REMARK>
 VINA RESULT:      -6.1      2.469      4.013
  Name = 
  16 active torsions:
  status: ('A' for Active; 'I' for Inactive)
    1  A    between atoms: C_1  and  C_8
    2  A    between atoms: C_1  and  C_34
    3  A    between atoms: C_2  and  C_21
    4  A    between atoms: N_3  and  N_4
    5  A    between atoms: N_4  and  C_14
    6  A    between atoms: C_6  and  N_7
    7  A    between atoms: N_7  and  C_34
    8  A    between atoms: N_11  and  C_14
    9  A    between atoms: N_11  and  N_28
   10  A    between atoms: C_12  and  C_25
   11  A    between atoms: C_16  and  C_27
   12  A    between atoms: C_18  and  C_26
   13  A    between atoms: C_19  and  C_20
   14  A    between atoms: C_19  and  C_22
   15  A    between atoms: C_21  and  N_28
   16  A    between atoms: C_22  and  N_38
                            x       y       z     vdW  Elec       q    Type
                         _______ _______ _______ _____ _____    ______ ____

>  <TORSDO>
F 16

$$$$
=
 OpenBabel11042417123D

 38 40  0  0  1  0  0  0  0  0999 V2000
  190.1460  176.6750  142.7070 C   0  0  0  0  0  0  0  0  0  0  0  0
  187.7120  176.4630  141.9560 C   0  0  2  0  0  3  0  0  0  0  0  0
  188.9430  177.2110  142.4140 C   0  0  0  0  0  3  0  0  0  0  0  0
  189.3910  174.2760  142.8300 C   0  0  2  0  0  3  0  0  0  0  0  0
  188.0450  175.3710  140.9490 C   0  0  0  0  0  2  0  0  0  0  0  0
  188.4280  174.0680  141.6560 C   0  0  0  0  0  2  0  0  0  0  0  0
  190.5160  175.2350  142.4620 C   0  0  0  0  0  2  0  0  0  0  0  0
  189.8440  171.9430  142.5870 O   0  0  0  0  0  0  0  0  0  0  0  0
  189.9480  172.9720  143.3070 C   0  0  0  0  0  0  0  0  0  0  0  0
  190.6260  172.8800  144.5630 N   0  0  0  0  0  2  0  0  0  0  0  0
  190.8180  174.0160  145.4590 C   0  0  0  0  0  2  0  0  0  0  0  0
  189.5500  174.3030  146.2530 C   0  0  0  0  0  2  0  0  0  0  0  0
  191.2840  175.3100  147.6380 N   0  0  0  0  0  1  0  0  0  0  0  0
  189.8510  175.1230  147.4970 C   0  0  0  0  0  2  0  0  0  0  0  0
  186.7150  177.4310  141.3440 C   0  0  0  0  0  2  0  0  0  0  0  0
  186.4820  178.6090  142.2750 C   0  0  0  0  0  2  0  0  0  0  0  0
  185.0710  178.7020  142.6130 N   0  0  0  0  0  2  0  0  0  0  0  0
  184.9660  179.4600  143.8510 C   0  0  1  0  0  3  0  0  0  0  0  0
  183.9480  178.9100  144.6650 O   0  0  0  0  0  0  0  0  0  0  0  0
  185.9470  178.8300  145.8270 C   0  0  1  0  0  3  0  0  0  0  0  0
  186.2030  179.3950  144.5530 O   0  0  0  0  0  0  0  0  0  0  0  0
  183.8730  178.0350  146.8030 O   0  0  0  0  0  0  0  0  0  0  0  0
  184.5130  178.5410  145.8430 C   0  0  0  0  0  0  0  0  0  0  0  0
  186.7400  177.5430  145.9840 C   0  0  0  0  0  2  0  0  0  0  0  0
  186.2140  176.5600  145.1460 O   0  0  0  0  0  1  0  0  0  0  0  0
  191.2230  177.5800  143.2030 C   0  0  0  0  0  2  0  0  0  0  0  0
  192.4030  176.8030  143.5440 N   0  0  0  0  0  2  0  0  0  0  0  0
  192.7120  177.1080  144.8750 N   0  0  0  0  0  2  0  0  0  0  0  0
  194.0490  176.5950  145.1190 C   0  0  0  0  0  2  0  0  0  0  0  0
  194.4220  175.6730  144.0560 N   0  0  0  0  0  2  0  0  0  0  0  0
  195.6710  175.1340  144.3970 N   0  0  0  0  0  0  0  0  0  0  0  0
  195.9770  174.1120  143.3990 C   0  0  0  0  0  2  0  0  0  0  0  0
  197.2660  173.5830  143.6210 O   0  0  0  0  0  0  0  0  0  0  0  0
  195.4990  174.4460  145.6710 C   0  0  0  0  0  2  0  0  0  0  0  0
  197.2870  172.8900  144.8560 C   0  0  1  0  0  3  0  0  0  0  0  0
  196.7890  173.7260  146.0440 C   0  0  0  0  0  2  0  0  0  0  0  0
  196.7070  171.4740  144.7790 C   0  0  0  0  0  2  0  0  0  0  0  0
  197.1020  170.6650  145.9230 N   0  0  0  0  0  1  0  0  0  0  0  0
  1 26  1  0  0  0  0
  2 15  1  6  0  0  0
  2  3  1  0  0  0  0
  3  1  2  0  0  0  0
  4  9  1  6  0  0  0
  5  6  1  0  0  0  0
  5  2  1  0  0  0  0
  6  4  1  0  0  0  0
  7  1  1  0  0  0  0
  7  4  1  0  0  0  0
  8  9  2  0  0  0  0
  9 10  1  0  0  0  0
 10 11  1  0  0  0  0
 11 12  1  0  0  0  0
 12 14  1  0  0  0  0
 14 13  1  0  0  0  0
 15 16  1  0  0  0  0
 16 17  1  0  0  0  0
 18 17  1  6  0  0  0
 18 21  1  0  0  0  0
 18 19  1  0  0  0  0
 19 23  1  0  0  0  0
 20 23  1  0  0  0  0
 20 24  1  6  0  0  0
 21 20  1  0  0  0  0
 23 22  2  0  0  0  0
 25 24  1  0  0  0  0
 26 27  1  0  0  0  0
 27 28  1  0  0  0  0
 28 29  1  0  0  0  0
 30 31  1  0  0  0  0
 30 29  1  0  0  0  0
 31 34  1  0  0  0  0
 32 33  1  0  0  0  0
 32 31  1  0  0  0  0
 33 35  1  0  0  0  0
 34 36  1  0  0  0  0
 35 37  1  6  0  0  0
 35 36  1  0  0  0  0
 37 38  1  0  0  0  0
M  END
>  <MODEL>
4

>  <REMARK>
 VINA RESULT:      -6.0      2.460      9.152
  Name = 
  16 active torsions:
  status: ('A' for Active; 'I' for Inactive)
    1  A    between atoms: C_1  and  C_8
    2  A    between atoms: C_1  and  C_34
    3  A    between atoms: C_2  and  C_21
    4  A    between atoms: N_3  and  N_4
    5  A    between atoms: N_4  and  C_14
    6  A    between atoms: C_6  and  N_7
    7  A    between atoms: N_7  and  C_34
    8  A    between atoms: N_11  and  C_14
    9  A    between atoms: N_11  and  N_28
   10  A    between atoms: C_12  and  C_25
   11  A    between atoms: C_16  and  C_27
   12  A    between atoms: C_18  and  C_26
   13  A    between atoms: C_19  and  C_20
   14  A    between atoms: C_19  and  C_22
   15  A    between atoms: C_21  and  N_28
   16  A    between atoms: C_22  and  N_38
                            x       y       z     vdW  Elec       q    Type
                         _______ _______ _______ _____ _____    ______ ____

>  <TORSDO>
F 16

$$$$
=
 OpenBabel11042417123D

 38 40  0  0  1  0  0  0  0  0999 V2000
  188.6140  176.7810  143.8940 C   0  0  0  0  0  0  0  0  0  0  0  0
  188.5940  175.5570  146.1370 C   0  0  2  0  0  3  0  0  0  0  0  0
  189.0200  175.7820  144.7050 C   0  0  0  0  0  3  0  0  0  0  0  0
  186.6680  177.5430  145.2970 C   0  0  2  0  0  3  0  0  0  0  0  0
  188.5180  176.8570  146.9250 C   0  0  0  0  0  2  0  0  0  0  0  0
  187.1530  177.5290  146.7500 C   0  0  0  0  0  2  0  0  0  0  0  0
  187.7820  177.9540  144.3420 C   0  0  0  0  0  2  0  0  0  0  0  0
  185.1640  179.2360  146.0590 O   0  0  0  0  0  0  0  0  0  0  0  0
  185.4820  178.4410  145.1350 C   0  0  0  0  0  0  0  0  0  0  0  0
  184.7140  178.4300  143.9280 N   0  0  0  0  0  2  0  0  0  0  0  0
  185.0110  177.5630  142.7920 C   0  0  0  0  0  2  0  0  0  0  0  0
  185.7050  178.3400  141.6810 C   0  0  0  0  0  2  0  0  0  0  0  0
  186.5090  177.4630  139.5540 N   0  0  0  0  0  1  0  0  0  0  0  0
  185.3180  177.8080  140.3110 C   0  0  0  0  0  2  0  0  0  0  0  0
  189.5580  174.6040  146.8220 C   0  0  0  0  0  2  0  0  0  0  0  0
  190.5840  175.3800  147.6310 C   0  0  0  0  0  2  0  0  0  0  0  0
  191.9250  175.0380  147.1880 N   0  0  0  0  0  2  0  0  0  0  0  0
  192.5980  176.2770  146.8280 C   0  0  1  0  0  3  0  0  0  0  0  0
  193.9660  176.0230  146.5730 O   0  0  0  0  0  0  0  0  0  0  0  0
  193.0160  176.9280  144.6680 C   0  0  1  0  0  3  0  0  0  0  0  0
  192.0030  176.8150  145.6520 O   0  0  0  0  0  0  0  0  0  0  0  0
  195.3690  176.3440  144.7650 O   0  0  0  0  0  0  0  0  0  0  0  0
  194.2300  176.4130  145.3000 C   0  0  0  0  0  0  0  0  0  0  0  0
  192.6540  176.0760  143.4630 C   0  0  0  0  0  2  0  0  0  0  0  0
  192.4730  174.7510  143.8590 O   0  0  0  0  0  1  0  0  0  0  0  0
  189.1070  176.7940  142.4860 C   0  0  0  0  0  2  0  0  0  0  0  0
  189.3600  175.4340  142.0380 N   0  0  0  0  0  2  0  0  0  0  0  0
  188.3240  175.1030  141.1570 N   0  0  0  0  0  2  0  0  0  0  0  0
  188.8640  174.1230  140.2310 C   0  0  0  0  0  2  0  0  0  0  0  0
  188.2640  174.3070  138.9180 N   0  0  0  0  0  2  0  0  0  0  0  0
  188.7240  173.2610  138.1040 N   0  0  0  0  0  0  0  0  0  0  0  0
  189.0100  172.1330  138.9870 C   0  0  0  0  0  2  0  0  0  0  0  0
  189.3940  171.0060  138.2300 O   0  0  0  0  0  0  0  0  0  0  0  0
  189.9970  173.6940  137.5410 C   0  0  0  0  0  2  0  0  0  0  0  0
  190.6240  171.2690  137.5790 C   0  0  1  0  0  3  0  0  0  0  0  0
  190.6200  172.5570  136.7430 C   0  0  0  0  0  2  0  0  0  0  0  0
  191.8500  171.0940  138.4830 C   0  0  0  0  0  2  0  0  0  0  0  0
  191.8640  169.7890  139.1270 N   0  0  0  0  0  1  0  0  0  0  0  0
  1  7  1  0  0  0  0
  1  3  2  0  0  0  0
  2 15  1  1  0  0  0
  2  5  1  0  0  0  0
  3  2  1  0  0  0  0
  4  9  1  1  0  0  0
  4  6  1  0  0  0  0
  6  5  1  0  0  0  0
  7  4  1  0  0  0  0
  9  8  2  0  0  0  0
 10  9  1  0  0  0  0
 11 10  1  0  0  0  0
 12 11  1  0  0  0  0
 13 14  1  0  0  0  0
 14 12  1  0  0  0  0
 15 16  1  0  0  0  0
 17 16  1  0  0  0  0
 18 17  1  6  0  0  0
 19 18  1  0  0  0  0
 20 24  1  6  0  0  0
 20 23  1  0  0  0  0
 20 21  1  0  0  0  0
 21 18  1  0  0  0  0
 22 23  2  0  0  0  0
 23 19  1  0  0  0  0
 24 25  1  0  0  0  0
 26  1  1  0  0  0  0
 27 26  1  0  0  0  0
 28 27  1  0  0  0  0
 29 28  1  0  0  0  0
 30 29  1  0  0  0  0
 31 30  1  0  0  0  0
 31 32  1  0  0  0  0
 33 32  1  0  0  0  0
 34 31  1  0  0  0  0
 35 33  1  0  0  0  0
 35 37  1  1  0  0  0
 36 34  1  0  0  0  0
 36 35  1  0  0  0  0
 37 38  1  0  0  0  0
M  END
>  <MODEL>
5

>  <REMARK>
 VINA RESULT:      -6.0      2.345      6.811
  Name = 
  16 active torsions:
  status: ('A' for Active; 'I' for Inactive)
    1  A    between atoms: C_1  and  C_8
    2  A    between atoms: C_1  and  C_34
    3  A    between atoms: C_2  and  C_21
    4  A    between atoms: N_3  and  N_4
    5  A    between atoms: N_4  and  C_14
    6  A    between atoms: C_6  and  N_7
    7  A    between atoms: N_7  and  C_34
    8  A    between atoms: N_11  and  C_14
    9  A    between atoms: N_11  and  N_28
   10  A    between atoms: C_12  and  C_25
   11  A    between atoms: C_16  and  C_27
   12  A    between atoms: C_18  and  C_26
   13  A    between atoms: C_19  and  C_20
   14  A    between atoms: C_19  and  C_22
   15  A    between atoms: C_21  and  N_28
   16  A    between atoms: C_22  and  N_38
                            x       y       z     vdW  Elec       q    Type
                         _______ _______ _______ _____ _____    ______ ____

>  <TORSDO>
F 16

$$$$
=
 OpenBabel11042417123D

 38 40  0  0  1  0  0  0  0  0999 V2000
  188.3570  176.6200  145.0680 C   0  0  0  0  0  0  0  0  0  0  0  0
  189.8380  178.2030  143.7150 C   0  0  2  0  0  3  0  0  0  0  0  0
  189.5360  177.2310  144.8320 C   0  0  0  0  0  3  0  0  0  0  0  0
  186.9530  178.0700  143.5630 C   0  0  2  0  0  3  0  0  0  0  0  0
  189.2110  177.7750  142.3960 C   0  0  0  0  0  2  0  0  0  0  0  0
  187.7690  178.2770  142.2820 C   0  0  0  0  0  2  0  0  0  0  0  0
  187.1700  176.6770  144.1410 C   0  0  0  0  0  2  0  0  0  0  0  0
  185.1100  178.7290  142.1940 O   0  0  0  0  0  0  0  0  0  0  0  0
  185.4980  178.3150  143.3190 C   0  0  0  0  0  0  0  0  0  0  0  0
  184.5300  178.0580  144.3400 N   0  0  0  0  0  2  0  0  0  0  0  0
  184.8730  177.5580  145.6680 C   0  0  0  0  0  2  0  0  0  0  0  0
  184.6390  178.6260  146.7290 C   0  0  0  0  0  2  0  0  0  0  0  0
  186.6700  178.4470  148.0640 N   0  0  0  0  0  1  0  0  0  0  0  0
  185.9430  179.2950  147.1360 C   0  0  0  0  0  2  0  0  0  0  0  0
  191.3400  178.3440  143.5420 C   0  0  0  0  0  2  0  0  0  0  0  0
  192.0650  177.2430  144.2980 C   0  0  0  0  0  2  0  0  0  0  0  0
  192.8200  176.4190  143.3680 N   0  0  0  0  0  2  0  0  0  0  0  0
  193.7240  175.5900  144.1510 C   0  0  1  0  0  3  0  0  0  0  0  0
  194.1700  174.4970  143.3710 O   0  0  0  0  0  0  0  0  0  0  0  0
  196.0120  175.7280  144.0370 C   0  0  1  0  0  3  0  0  0  0  0  0
  194.8530  176.3630  144.5470 O   0  0  0  0  0  0  0  0  0  0  0  0
  196.2390  173.7160  142.7000 O   0  0  0  0  0  0  0  0  0  0  0  0
  195.5240  174.5600  143.3030 C   0  0  0  0  0  0  0  0  0  0  0  0
  196.7380  176.6710  143.0930 C   0  0  0  0  0  2  0  0  0  0  0  0
  196.0070  176.8120  141.9130 O   0  0  0  0  0  1  0  0  0  0  0  0
  188.2440  175.7360  146.2650 C   0  0  0  0  0  2  0  0  0  0  0  0
  189.5570  175.2330  146.6330 N   0  0  0  0  0  2  0  0  0  0  0  0
  189.5960  173.8900  146.2400 N   0  0  0  0  0  2  0  0  0  0  0  0
  190.5900  173.7950  145.1840 C   0  0  0  0  0  2  0  0  0  0  0  0
  190.3720  172.5810  144.4130 N   0  0  0  0  0  2  0  0  0  0  0  0
  190.7440  172.8600  143.0890 N   0  0  0  0  0  0  0  0  0  0  0  0
  190.1060  174.1230  142.7290 C   0  0  0  0  0  2  0  0  0  0  0  0
  190.5060  174.5210  141.4360 O   0  0  0  0  0  0  0  0  0  0  0  0
  190.1410  171.8260  142.2560 C   0  0  0  0  0  2  0  0  0  0  0  0
  190.0190  173.5930  140.4830 C   0  0  1  0  0  3  0  0  0  0  0  0
  190.3980  172.1350  140.7870 C   0  0  0  0  0  2  0  0  0  0  0  0
  188.5490  173.8090  140.1070 C   0  0  0  0  0  2  0  0  0  0  0  0
  188.3620  173.8560  138.6640 N   0  0  0  0  0  1  0  0  0  0  0  0
  1 26  1  0  0  0  0
  2 15  1  6  0  0  0
  2  3  1  0  0  0  0
  3  1  2  0  0  0  0
  4  9  1  6  0  0  0
  4  7  1  0  0  0  0
  5  2  1  0  0  0  0
  6  5  1  0  0  0  0
  6  4  1  0  0  0  0
  7  1  1  0  0  0  0
  8  9  2  0  0  0  0
  9 10  1  0  0  0  0
 10 11  1  0  0  0  0
 11 12  1  0  0  0  0
 12 14  1  0  0  0  0
 14 13  1  0  0  0  0
 15 16  1  0  0  0  0
 17 16  1  0  0  0  0
 18 17  1  6  0  0  0
 18 21  1  0  0  0  0
 19 18  1  0  0  0  0
 20 24  1  6  0  0  0
 20 21  1  0  0  0  0
 22 23  2  0  0  0  0
 23 19  1  0  0  0  0
 23 20  1  0  0  0  0
 25 24  1  0  0  0  0
 26 27  1  0  0  0  0
 28 27  1  0  0  0  0
 29 28  1  0  0  0  0
 30 29  1  0  0  0  0
 31 30  1  0  0  0  0
 32 31  1  0  0  0  0
 33 32  1  0  0  0  0
 34 31  1  0  0  0  0
 35 37  1  1  0  0  0
 35 36  1  0  0  0  0
 35 33  1  0  0  0  0
 36 34  1  0  0  0  0
 38 37  1  0  0  0  0
M  END
>  <MODEL>
6

>  <REMARK>
 VINA RESULT:      -5.9      2.206      6.454
  Name = 
  16 active torsions:
  status: ('A' for Active; 'I' for Inactive)
    1  A    between atoms: C_1  and  C_8
    2  A    between atoms: C_1  and  C_34
    3  A    between atoms: C_2  and  C_21
    4  A    between atoms: N_3  and  N_4
    5  A    between atoms: N_4  and  C_14
    6  A    between atoms: C_6  and  N_7
    7  A    between atoms: N_7  and  C_34
    8  A    between atoms: N_11  and  C_14
    9  A    between atoms: N_11  and  N_28
   10  A    between atoms: C_12  and  C_25
   11  A    between atoms: C_16  and  C_27
   12  A    between atoms: C_18  and  C_26
   13  A    between atoms: C_19  and  C_20
   14  A    between atoms: C_19  and  C_22
   15  A    between atoms: C_21  and  N_28
   16  A    between atoms: C_22  and  N_38
                            x       y       z     vdW  Elec       q    Type
                         _______ _______ _______ _____ _____    ______ ____

>  <TORSDO>
F 16

$$$$
=
 OpenBabel11042417123D

 38 40  0  0  1  0  0  0  0  0999 V2000
  191.2570  177.2640  144.3790 C   0  0  0  0  0  0  0  0  0  0  0  0
  193.4940  176.4690  145.3270 C   0  0  2  0  0  3  0  0  0  0  0  0
  192.6060  177.2750  144.4070 C   0  0  0  0  0  3  0  0  0  0  0  0
  190.9390  175.1860  145.7650 C   0  0  2  0  0  3  0  0  0  0  0  0
  192.9530  176.4190  146.7490 C   0  0  0  0  0  2  0  0  0  0  0  0
  191.9460  175.2790  146.9170 C   0  0  0  0  0  2  0  0  0  0  0  0
  190.3930  176.5590  145.3920 C   0  0  0  0  0  2  0  0  0  0  0  0
  188.9970  174.5550  147.0050 O   0  0  0  0  0  0  0  0  0  0  0  0
  189.8210  174.2510  146.1020 C   0  0  0  0  0  0  0  0  0  0  0  0
  189.6550  173.0210  145.3900 N   0  0  0  0  0  2  0  0  0  0  0  0
  190.5400  172.5870  144.3150 C   0  0  0  0  0  2  0  0  0  0  0  0
  190.2050  173.3030  143.0120 C   0  0  0  0  0  2  0  0  0  0  0  0
  190.2680  170.9850  142.2600 N   0  0  0  0  0  1  0  0  0  0  0  0
  189.7900  172.3170  141.9320 C   0  0  0  0  0  2  0  0  0  0  0  0
  194.8960  177.0510  145.3370 C   0  0  0  0  0  2  0  0  0  0  0  0
  195.8810  176.0680  144.7270 C   0  0  0  0  0  2  0  0  0  0  0  0
  196.1640  176.4400  143.3510 N   0  0  0  0  0  2  0  0  0  0  0  0
  196.5680  175.2330  142.6450 C   0  0  1  0  0  3  0  0  0  0  0  0
  195.7590  174.1460  143.0500 O   0  0  0  0  0  0  0  0  0  0  0  0
  195.5190  174.4340  140.7670 C   0  0  1  0  0  3  0  0  0  0  0  0
  196.4090  175.4280  141.2430 O   0  0  0  0  0  0  0  0  0  0  0  0
  194.3600  172.6660  141.9580 O   0  0  0  0  0  0  0  0  0  0  0  0
  195.1380  173.6560  141.9470 C   0  0  0  0  0  0  0  0  0  0  0  0
  194.2930  175.0950  140.1600 C   0  0  0  0  0  2  0  0  0  0  0  0
  194.4710  175.2460  138.7850 O   0  0  0  0  0  1  0  0  0  0  0  0
  190.5630  178.0920  143.3500 C   0  0  0  0  0  2  0  0  0  0  0  0
  189.5210  177.3090  142.7080 N   0  0  0  0  0  2  0  0  0  0  0  0
  188.7240  178.2110  141.9940 N   0  0  0  0  0  2  0  0  0  0  0  0
  187.3510  177.7600  142.1400 C   0  0  0  0  0  2  0  0  0  0  0  0
  186.5270  178.8500  142.6410 N   0  0  0  0  0  2  0  0  0  0  0  0
  185.6310  178.2980  143.5680 N   0  0  0  0  0  0  0  0  0  0  0  0
  185.0270  179.4160  144.2880 C   0  0  0  0  0  2  0  0  0  0  0  0
  184.0420  178.9450  145.1830 O   0  0  0  0  0  0  0  0  0  0  0  0
  186.4310  177.5540  144.5340 C   0  0  0  0  0  2  0  0  0  0  0  0
  184.6540  178.1620  146.1920 C   0  0  1  0  0  3  0  0  0  0  0  0
  185.5360  177.0280  145.6480 C   0  0  0  0  0  2  0  0  0  0  0  0
  185.2920  178.9900  147.3130 C   0  0  0  0  0  2  0  0  0  0  0  0
  186.2980  178.2290  148.0410 N   0  0  0  0  0  1  0  0  0  0  0  0
  1  3  2  0  0  0  0
  1  7  1  0  0  0  0
  2 15  1  1  0  0  0
  2  5  1  0  0  0  0
  3  2  1  0  0  0  0
  4  9  1  1  0  0  0
  4  6  1  0  0  0  0
  5  6  1  0  0  0  0
  7  4  1  0  0  0  0
  9  8  2  0  0  0  0
 10  9  1  0  0  0  0
 11 10  1  0  0  0  0
 12 11  1  0  0  0  0
 14 13  1  0  0  0  0
 14 12  1  0  0  0  0
 16 15  1  0  0  0  0
 17 16  1  0  0  0  0
 18 19  1  0  0  0  0
 18 17  1  1  0  0  0
 20 24  1  1  0  0  0
 20 21  1  0  0  0  0
 20 23  1  0  0  0  0
 21 18  1  0  0  0  0
 23 22  2  0  0  0  0
 23 19  1  0  0  0  0
 25 24  1  0  0  0  0
 26  1  1  0  0  0  0
 27 26  1  0  0  0  0
 28 29  1  0  0  0  0
 28 27  1  0  0  0  0
 29 30  1  0  0  0  0
 30 31  1  0  0  0  0
 31 32  1  0  0  0  0
 31 34  1  0  0  0  0
 32 33  1  0  0  0  0
 33 35  1  0  0  0  0
 34 36  1  0  0  0  0
 35 37  1  6  0  0  0
 36 35  1  0  0  0  0
 37 38  1  0  0  0  0
M  END
>  <MODEL>
7

>  <REMARK>
 VINA RESULT:      -5.9      2.477      3.925
  Name = 
  16 active torsions:
  status: ('A' for Active; 'I' for Inactive)
    1  A    between atoms: C_1  and  C_8
    2  A    between atoms: C_1  and  C_34
    3  A    between atoms: C_2  and  C_21
    4  A    between atoms: N_3  and  N_4
    5  A    between atoms: N_4  and  C_14
    6  A    between atoms: C_6  and  N_7
    7  A    between atoms: N_7  and  C_34
    8  A    between atoms: N_11  and  C_14
    9  A    between atoms: N_11  and  N_28
   10  A    between atoms: C_12  and  C_25
   11  A    between atoms: C_16  and  C_27
   12  A    between atoms: C_18  and  C_26
   13  A    between atoms: C_19  and  C_20
   14  A    between atoms: C_19  and  C_22
   15  A    between atoms: C_21  and  N_28
   16  A    between atoms: C_22  and  N_38
                            x       y       z     vdW  Elec       q    Type
                         _______ _______ _______ _____ _____    ______ ____

>  <TORSDO>
F 16

$$$$
=
 OpenBabel11042417123D

 38 40  0  0  1  0  0  0  0  0999 V2000
  192.0560  175.5460  146.6360 C   0  0  0  0  0  0  0  0  0  0  0  0
  194.1730  174.7490  145.4470 C   0  0  2  0  0  3  0  0  0  0  0  0
  193.3800  175.6250  146.3890 C   0  0  0  0  0  3  0  0  0  0  0  0
  191.4690  174.0630  144.6880 C   0  0  2  0  0  3  0  0  0  0  0  0
  193.7560  173.2870  145.5330 C   0  0  0  0  0  2  0  0  0  0  0  0
  192.5690  172.9980  144.6110 C   0  0  0  0  0  2  0  0  0  0  0  0
  191.1630  174.4420  146.1310 C   0  0  0  0  0  2  0  0  0  0  0  0
  189.6500  172.5470  144.3660 O   0  0  0  0  0  0  0  0  0  0  0  0
  190.2260  173.6040  143.9920 C   0  0  0  0  0  0  0  0  0  0  0  0
  189.6630  174.3650  142.9200 N   0  0  0  0  0  2  0  0  0  0  0  0
  190.2410  175.6110  142.4270 C   0  0  0  0  0  2  0  0  0  0  0  0
  189.1900  176.7120  142.3680 C   0  0  0  0  0  2  0  0  0  0  0  0
  190.9600  177.7510  143.6810 N   0  0  0  0  0  1  0  0  0  0  0  0
  189.5920  177.9050  143.2190 C   0  0  0  0  0  2  0  0  0  0  0  0
  195.6570  174.8720  145.7500 C   0  0  0  0  0  2  0  0  0  0  0  0
  196.4450  175.0570  144.4640 C   0  0  0  0  0  2  0  0  0  0  0  0
  196.1830  176.3740  143.9080 N   0  0  0  0  0  2  0  0  0  0  0  0
  196.9070  176.4700  142.6490 C   0  0  1  0  0  3  0  0  0  0  0  0
  197.4580  175.2110  142.3150 O   0  0  0  0  0  0  0  0  0  0  0  0
  196.0300  175.8660  140.6160 C   0  0  1  0  0  3  0  0  0  0  0  0
  196.0110  176.8690  141.6160 O   0  0  0  0  0  0  0  0  0  0  0  0
  197.2640  173.7790  140.5110 O   0  0  0  0  0  0  0  0  0  0  0  0
  196.9550  174.8450  141.1090 C   0  0  0  0  0  0  0  0  0  0  0  0
  194.6380  175.2760  140.4580 C   0  0  0  0  0  2  0  0  0  0  0  0
  194.2470  174.6650  141.6500 O   0  0  0  0  0  1  0  0  0  0  0  0
  191.4470  176.5470  147.5580 C   0  0  0  0  0  2  0  0  0  0  0  0
  190.0090  176.3480  147.6240 N   0  0  0  0  0  2  0  0  0  0  0  0
  189.4190  177.5710  147.2840 N   0  0  0  0  0  2  0  0  0  0  0  0
  188.2640  177.2600  146.4580 C   0  0  0  0  0  2  0  0  0  0  0  0
  187.0510  177.3570  147.2560 N   0  0  0  0  0  2  0  0  0  0  0  0
  185.9720  177.4140  146.3620 N   0  0  0  0  0  0  0  0  0  0  0  0
  186.4720  176.9570  145.0680 C   0  0  0  0  0  2  0  0  0  0  0  0
  185.4190  176.9000  144.1300 O   0  0  0  0  0  0  0  0  0  0  0  0
  185.6270  178.8230  146.2100 C   0  0  0  0  0  2  0  0  0  0  0  0
  184.9350  178.2080  143.8810 C   0  0  1  0  0  3  0  0  0  0  0  0
  184.5410  178.9750  145.1530 C   0  0  0  0  0  2  0  0  0  0  0  0
  185.7900  179.0040  142.8900 C   0  0  0  0  0  2  0  0  0  0  0  0
  185.9720  178.2860  141.6360 N   0  0  0  0  0  1  0  0  0  0  0  0
  1 26  1  0  0  0  0
  2  5  1  0  0  0  0
  2 15  1  1  0  0  0
  2  3  1  0  0  0  0
  3  1  2  0  0  0  0
  4  9  1  1  0  0  0
  4  7  1  0  0  0  0
  6  4  1  0  0  0  0
  6  5  1  0  0  0  0
  7  1  1  0  0  0  0
  9  8  2  0  0  0  0
 10  9  1  0  0  0  0
 11 10  1  0  0  0  0
 12 11  1  0  0  0  0
 12 14  1  0  0  0  0
 14 13  1  0  0  0  0
 16 15  1  0  0  0  0
 17 16  1  0  0  0  0
 18 17  1  1  0  0  0
 19 18  1  0  0  0  0
 20 24  1  1  0  0  0
 20 23  1  0  0  0  0
 20 21  1  0  0  0  0
 21 18  1  0  0  0  0
 22 23  2  0  0  0  0
 23 19  1  0  0  0  0
 24 25  1  0  0  0  0
 26 27  1  0  0  0  0
 28 27  1  0  0  0  0
 29 30  1  0  0  0  0
 29 28  1  0  0  0  0
 31 30  1  0  0  0  0
 32 31  1  0  0  0  0
 33 32  1  0  0  0  0
 34 31  1  0  0  0  0
 35 37  1  1  0  0  0
 35 33  1  0  0  0  0
 35 36  1  0  0  0  0
 36 34  1  0  0  0  0
 38 37  1  0  0  0  0
M  END
>  <MODEL>
8

>  <REMARK>
 VINA RESULT:      -5.9      2.485      4.854
  Name = 
  16 active torsions:
  status: ('A' for Active; 'I' for Inactive)
    1  A    between atoms: C_1  and  C_8
    2  A    between atoms: C_1  and  C_34
    3  A    between atoms: C_2  and  C_21
    4  A    between atoms: N_3  and  N_4
    5  A    between atoms: N_4  and  C_14
    6  A    between atoms: C_6  and  N_7
    7  A    between atoms: N_7  and  C_34
    8  A    between atoms: N_11  and  C_14
    9  A    between atoms: N_11  and  N_28
   10  A    between atoms: C_12  and  C_25
   11  A    between atoms: C_16  and  C_27
   12  A    between atoms: C_18  and  C_26
   13  A    between atoms: C_19  and  C_20
   14  A    between atoms: C_19  and  C_22
   15  A    between atoms: C_21  and  N_28
   16  A    between atoms: C_22  and  N_38
                            x       y       z     vdW  Elec       q    Type
                         _______ _______ _______ _____ _____    ______ ____

>  <TORSDO>
F 16

$$$$
=
 OpenBabel11042417123D

 38 40  0  0  1  0  0  0  0  0999 V2000
  193.8270  173.7400  145.5680 C   0  0  0  0  0  0  0  0  0  0  0  0
  192.2540  175.6290  146.2680 C   0  0  2  0  0  3  0  0  0  0  0  0
  192.6870  174.1870  146.1340 C   0  0  0  0  0  3  0  0  0  0  0  0
  194.4580  175.8870  144.4150 C   0  0  2  0  0  3  0  0  0  0  0  0
  193.4090  176.5420  146.6540 C   0  0  0  0  0  2  0  0  0  0  0  0
  194.1770  177.0120  145.4160 C   0  0  0  0  0  2  0  0  0  0  0  0
  194.9560  174.6300  145.1160 C   0  0  0  0  0  2  0  0  0  0  0  0
  196.5310  176.8490  143.7160 O   0  0  0  0  0  0  0  0  0  0  0  0
  195.4370  176.3270  143.3720 C   0  0  0  0  0  0  0  0  0  0  0  0
  195.1600  176.1380  141.9810 N   0  0  0  0  0  2  0  0  0  0  0  0
  193.9340  175.5260  141.4800 C   0  0  0  0  0  2  0  0  0  0  0  0
  194.1260  174.0320  141.2510 C   0  0  0  0  0  2  0  0  0  0  0  0
  195.5310  172.8870  139.6220 N   0  0  0  0  0  1  0  0  0  0  0  0
  194.3550  173.7240  139.7800 C   0  0  0  0  0  2  0  0  0  0  0  0
  191.1480  175.7440  147.3020 C   0  0  0  0  0  2  0  0  0  0  0  0
  189.9620  174.8790  146.9070 C   0  0  0  0  0  2  0  0  0  0  0  0
  188.7230  175.6020  147.1390 N   0  0  0  0  0  2  0  0  0  0  0  0
  188.6190  176.6320  146.1160 C   0  0  1  0  0  3  0  0  0  0  0  0
  188.2960  176.0410  144.8720 O   0  0  0  0  0  0  0  0  0  0  0  0
  186.6350  177.5540  145.4230 C   0  0  1  0  0  3  0  0  0  0  0  0
  187.5890  177.5500  146.4700 O   0  0  0  0  0  0  0  0  0  0  0  0
  186.5730  176.2900  143.3520 O   0  0  0  0  0  0  0  0  0  0  0  0
  187.1280  176.5840  144.4440 C   0  0  0  0  0  0  0  0  0  0  0  0
  185.2840  177.1110  145.9610 C   0  0  0  0  0  2  0  0  0  0  0  0
  184.8670  177.9850  146.9640 O   0  0  0  0  0  1  0  0  0  0  0  0
  194.0430  172.2670  145.4790 C   0  0  0  0  0  2  0  0  0  0  0  0
  193.7260  171.8000  144.1400 N   0  0  0  0  0  2  0  0  0  0  0  0
  192.5530  171.0430  144.2460 N   0  0  0  0  0  2  0  0  0  0  0  0
  191.5410  171.7350  143.4660 C   0  0  0  0  0  2  0  0  0  0  0  0
  190.4170  172.0850  144.3230 N   0  0  0  0  0  2  0  0  0  0  0  0
  189.7200  173.1220  143.6850 N   0  0  0  0  0  0  0  0  0  0  0  0
  188.8600  172.4980  142.6820 C   0  0  0  0  0  2  0  0  0  0  0  0
  188.0550  173.4730  142.0550 O   0  0  0  0  0  0  0  0  0  0  0  0
  190.7100  173.9130  142.9630 C   0  0  0  0  0  2  0  0  0  0  0  0
  188.8750  174.3620  141.3170 C   0  0  1  0  0  3  0  0  0  0  0  0
  190.0100  174.9870  142.1420 C   0  0  0  0  0  2  0  0  0  0  0  0
  189.3000  173.8170  139.9490 C   0  0  0  0  0  2  0  0  0  0  0  0
  188.3060  174.0970  138.9240 N   0  0  0  0  0  1  0  0  0  0  0  0
  1  3  2  0  0  0  0
  2  5  1  0  0  0  0
  2 15  1  1  0  0  0
  3  2  1  0  0  0  0
  4  9  1  6  0  0  0
  4  7  1  0  0  0  0
  4  6  1  0  0  0  0
  6  5  1  0  0  0  0
  7  1  1  0  0  0  0
  9  8  2  0  0  0  0
 10  9  1  0  0  0  0
 11 10  1  0  0  0  0
 12 11  1  0  0  0  0
 13 14  1  0  0  0  0
 14 12  1  0  0  0  0
 16 17  1  0  0  0  0
 16 15  1  0  0  0  0
 18 21  1  0  0  0  0
 18 17  1  1  0  0  0
 19 18  1  0  0  0  0
 20 24  1  1  0  0  0
 20 21  1  0  0  0  0
 22 23  2  0  0  0  0
 23 19  1  0  0  0  0
 23 20  1  0  0  0  0
 24 25  1  0  0  0  0
 26  1  1  0  0  0  0
 27 28  1  0  0  0  0
 27 26  1  0  0  0  0
 29 28  1  0  0  0  0
 29 30  1  0  0  0  0
 31 30  1  0  0  0  0
 32 31  1  0  0  0  0
 33 32  1  0  0  0  0
 34 31  1  0  0  0  0
 35 37  1  6  0  0  0
 35 33  1  0  0  0  0
 35 36  1  0  0  0  0
 36 34  1  0  0  0  0
 38 37  1  0  0  0  0
M  END
>  <MODEL>
9

>  <REMARK>
 VINA RESULT:      -5.9      2.972      8.186
  Name = 
  16 active torsions:
  status: ('A' for Active; 'I' for Inactive)
    1  A    between atoms: C_1  and  C_8
    2  A    between atoms: C_1  and  C_34
    3  A    between atoms: C_2  and  C_21
    4  A    between atoms: N_3  and  N_4
    5  A    between atoms: N_4  and  C_14
    6  A    between atoms: C_6  and  N_7
    7  A    between atoms: N_7  and  C_34
    8  A    between atoms: N_11  and  C_14
    9  A    between atoms: N_11  and  N_28
   10  A    between atoms: C_12  and  C_25
   11  A    between atoms: C_16  and  C_27
   12  A    between atoms: C_18  and  C_26
   13  A    between atoms: C_19  and  C_20
   14  A    between atoms: C_19  and  C_22
   15  A    between atoms: C_21  and  N_28
   16  A    between atoms: C_22  and  N_38
                            x       y       z     vdW  Elec       q    Type
                         _______ _______ _______ _____ _____    ______ ____

>  <TORSDO>
F 16

$$$$
