=
 OpenBabel11042417043D

 44 48  0  0  1  0  0  0  0  0999 V2000
  187.7000  177.1070  144.2690 C   0  0  0  0  0  0  0  0  0  0  0  0
  192.1100  173.1660  143.7950 C   0  0  2  0  0  3  0  0  0  0  0  0
  190.8270  173.6830  140.2680 C   0  0  1  0  0  3  0  0  0  0  0  0
  188.4060  173.9140  139.7070 C   0  0  0  0  0  3  0  0  0  0  0  0
  189.6190  173.4320  139.4160 C   0  0  0  0  0  3  0  0  0  0  0  0
  190.6650  175.1070  144.3640 N   0  0  0  0  0  2  0  0  0  0  0  0
  190.9170  173.6890  144.6230 C   0  0  0  0  0  2  0  0  0  0  0  0
  190.6170  173.1100  141.6490 C   0  0  1  0  0  3  0  0  0  0  0  0
  191.7390  172.5630  142.4380 C   0  0  0  0  0  0  0  0  0  0  0  0
  188.6610  174.4880  142.0610 C   0  0  0  0  0  0  0  0  0  0  0  0
  188.1210  174.6760  140.8910 N   0  0  0  0  0  0  0  0  0  0  0  0
  189.5750  173.4360  142.3350 N   0  0  0  0  0  2  0  0  0  0  0  0
  192.4720  171.6730  141.9270 O   0  0  0  0  0  0  0  0  0  0  0  0
  188.4570  175.4440  143.1550 C   0  0  0  0  0  0  0  0  0  0  0  0
  189.3490  175.6730  144.2020 C   0  0  0  0  0  0  0  0  0  0  0  0
  187.4420  176.3210  143.2030 N   0  0  0  0  0  0  0  0  0  0  0  0
  188.8880  176.7660  144.9040 C   0  0  0  0  0  2  0  0  0  0  0  0
  191.9470  173.1230  139.6480 O   0  0  0  0  0  0  0  0  0  0  0  0
  192.1380  173.8820  138.4900 C   0  0  0  0  0  2  0  0  0  0  0  0
  193.5530  174.4360  138.4530 C   0  0  0  0  0  2  0  0  0  0  0  0
  193.9280  174.9680  139.7570 N   0  0  0  0  0  2  0  0  0  0  0  0
  196.1630  175.3360  139.1890 O   0  0  0  0  0  0  0  0  0  0  0  0
  195.2640  175.3680  140.0740 C   0  0  0  0  0  0  0  0  0  0  0  0
  196.9070  176.1930  141.7590 C   0  0  0  0  0  3  0  0  0  0  0  0
  195.5940  175.8300  141.4320 C   0  0  0  0  0  0  0  0  0  0  0  0
  194.8800  176.3330  143.6500 C   0  0  0  0  0  0  0  0  0  0  0  0
  194.6190  175.9090  142.3810 N   0  0  0  0  0  0  0  0  0  0  0  0
  197.1960  176.6310  143.0520 C   0  0  0  0  0  3  0  0  0  0  0  0
  196.1790  176.7020  144.0050 C   0  0  0  0  0  3  0  0  0  0  0  0
  194.1400  176.4900  145.9940 C   0  0  0  0  0  1  0  0  0  0  0  0
  193.8630  176.4030  144.6050 O   0  0  0  0  0  0  0  0  0  0  0  0
  186.7860  178.2280  144.6870 C   0  0  0  0  0  3  0  0  0  0  0  0
  185.3620  179.7600  143.9600 C   0  0  0  0  0  1  0  0  0  0  0  0
  185.7210  178.4210  143.7950 O   0  0  0  0  0  0  0  0  0  0  0  0
  185.4850  176.9930  146.1100 C   0  0  0  0  0  1  0  0  0  0  0  0
  186.3420  178.1010  146.0230 O   0  0  0  0  0  0  0  0  0  0  0  0
  192.8930  172.1640  144.6310 C   0  0  0  0  0  2  0  0  0  0  0  0
  193.8960  172.8530  145.4300 N   0  0  0  0  0  2  0  0  0  0  0  0
  196.9930  172.7940  143.3290 C   0  0  0  0  0  3  0  0  0  0  0  0
  195.2560  172.9880  145.0140 C   0  0  0  0  0  0  0  0  0  0  0  0
  197.9380  173.2630  144.2470 C   0  0  0  0  0  3  0  0  0  0  0  0
  196.2060  173.4570  145.9290 C   0  0  0  0  0  3  0  0  0  0  0  0
  197.5440  173.5960  145.5470 C   0  0  0  0  0  3  0  0  0  0  0  0
  195.6560  172.6570  143.7110 C   0  0  0  0  0  3  0  0  0  0  0  0
  1 32  1  0  0  0  0
  1 17  1  0  0  0  0
  2  7  1  0  0  0  0
  2 37  1  1  0  0  0
  3 18  1  6  0  0  0
  3  8  1  0  0  0  0
  4 11  1  0  0  0  0
  5  4  2  0  0  0  0
  5  3  1  0  0  0  0
  6  7  1  0  0  0  0
  8 12  1  1  0  0  0
  8  9  1  0  0  0  0
  9  2  1  0  0  0  0
 10 12  1  0  0  0  0
 10 14  1  0  0  0  0
 11 10  2  0  0  0  0
 13  9  2  0  0  0  0
 14 16  1  0  0  0  0
 14 15  2  0  0  0  0
 15  6  1  0  0  0  0
 15 17  1  0  0  0  0
 16  1  2  0  0  0  0
 19 18  1  0  0  0  0
 20 19  1  0  0  0  0
 20 21  1  0  0  0  0
 21 23  1  0  0  0  0
 22 23  2  0  0  0  0
 23 25  1  0  0  0  0
 24 28  1  0  0  0  0
 25 24  2  0  0  0  0
 25 27  1  0  0  0  0
 26 29  1  0  0  0  0
 26 31  1  0  0  0  0
 27 26  2  0  0  0  0
 28 29  2  0  0  0  0
 31 30  1  0  0  0  0
 32 36  1  0  0  0  0
 34 33  1  0  0  0  0
 34 32  1  0  0  0  0
 36 35  1  0  0  0  0
 37 38  1  0  0  0  0
 39 44  2  0  0  0  0
 39 41  1  0  0  0  0
 40 38  1  0  0  0  0
 40 42  2  0  0  0  0
 41 43  2  0  0  0  0
 43 42  1  0  0  0  0
 44 40  1  0  0  0  0
M  END
>  <MODEL>
1

>  <REMARK>
 VINA RESULT:      -6.4      0.000      0.000
  Name = 
  12 active torsions:
  status: ('A' for Active; 'I' for Inactive)
    1  A    between atoms: C_1  and  C_25
    2  A    between atoms: C_5  and  C_44
    3  A    between atoms: N_6  and  C_32
    4  A    between atoms: C_7  and  C_41
    5  A    between atoms: C_9  and  O_17
    6  A    between atoms: C_14  and  O_43
    7  A    between atoms: C_15  and  O_17
    8  A    between atoms: C_15  and  C_32
    9  A    between atoms: O_21  and  C_25
   10  A    between atoms: C_23  and  N_27
   11  A    between atoms: C_25  and  O_31
   12  A    between atoms: N_27  and  C_44
                            x       y       z     vdW  Elec       q    Type
                         _______ _______ _______ _____ _____    ______ ____

>  <TORSDO>
F 12

$$$$
=
 OpenBabel11042417043D

 44 48  0  0  1  0  0  0  0  0999 V2000
  187.1330  176.6040  143.2820 C   0  0  0  0  0  0  0  0  0  0  0  0
  191.6580  172.7670  143.3920 C   0  0  2  0  0  3  0  0  0  0  0  0
  191.1440  173.6260  139.7390 C   0  0  1  0  0  3  0  0  0  0  0  0
  188.8940  173.8930  138.6940 C   0  0  0  0  0  3  0  0  0  0  0  0
  190.1540  173.4520  138.6260 C   0  0  0  0  0  3  0  0  0  0  0  0
  190.0680  174.6290  143.8200 N   0  0  0  0  0  2  0  0  0  0  0  0
  190.3000  173.1940  143.9900 C   0  0  0  0  0  2  0  0  0  0  0  0
  190.6600  172.9150  140.9800 C   0  0  1  0  0  3  0  0  0  0  0  0
  191.6030  172.3000  141.9360 C   0  0  0  0  0  0  0  0  0  0  0  0
  188.6220  174.2280  141.0910 C   0  0  0  0  0  0  0  0  0  0  0  0
  188.3400  174.5290  139.8560 N   0  0  0  0  0  0  0  0  0  0  0  0
  189.4870  173.1610  141.4520 N   0  0  0  0  0  2  0  0  0  0  0  0
  192.4550  171.4720  141.5110 O   0  0  0  0  0  0  0  0  0  0  0  0
  188.1600  175.0670  142.2030 C   0  0  0  0  0  0  0  0  0  0  0  0
  188.8010  175.1980  143.4340 C   0  0  0  0  0  0  0  0  0  0  0  0
  187.1330  175.9280  142.1140 N   0  0  0  0  0  0  0  0  0  0  0  0
  188.1680  176.2100  144.1230 C   0  0  0  0  0  2  0  0  0  0  0  0
  192.3870  173.1400  139.3240 O   0  0  0  0  0  0  0  0  0  0  0  0
  193.0910  174.2670  138.8910 C   0  0  0  0  0  2  0  0  0  0  0  0
  194.3990  174.3950  139.6530 C   0  0  0  0  0  2  0  0  0  0  0  0
  194.1950  175.1250  140.8980 N   0  0  0  0  0  2  0  0  0  0  0  0
  195.2230  173.5170  142.2440 O   0  0  0  0  0  0  0  0  0  0  0  0
  194.6010  174.6120  142.1710 C   0  0  0  0  0  0  0  0  0  0  0  0
  195.2000  175.3540  144.4750 C   0  0  0  0  0  3  0  0  0  0  0  0
  194.3030  175.3650  143.3990 C   0  0  0  0  0  0  0  0  0  0  0  0
  192.8310  176.7940  144.6140 C   0  0  0  0  0  0  0  0  0  0  0  0
  193.1470  176.0820  143.4950 N   0  0  0  0  0  0  0  0  0  0  0  0
  194.8970  176.0770  145.6290 C   0  0  0  0  0  3  0  0  0  0  0  0
  193.7070  176.8020  145.7020 C   0  0  0  0  0  3  0  0  0  0  0  0
  191.1700  178.3070  143.6060 C   0  0  0  0  0  1  0  0  0  0  0  0
  191.6410  177.5190  144.6890 O   0  0  0  0  0  0  0  0  0  0  0  0
  186.1190  177.6690  143.5990 C   0  0  0  0  0  3  0  0  0  0  0  0
  185.7650  178.5100  145.6170 C   0  0  0  0  0  1  0  0  0  0  0  0
  186.6010  178.6260  144.5050 O   0  0  0  0  0  0  0  0  0  0  0  0
  184.1790  178.0990  142.4600 C   0  0  0  0  0  1  0  0  0  0  0  0
  185.5720  178.2660  142.4400 O   0  0  0  0  0  0  0  0  0  0  0  0
  192.2730  171.6920  144.2770 C   0  0  0  0  0  2  0  0  0  0  0  0
  193.3540  172.2560  145.0720 N   0  0  0  0  0  2  0  0  0  0  0  0
  195.5410  169.4130  146.1410 C   0  0  0  0  0  3  0  0  0  0  0  0
  194.5010  171.5000  145.4640 C   0  0  0  0  0  0  0  0  0  0  0  0
  196.7780  170.0600  146.2350 C   0  0  0  0  0  3  0  0  0  0  0  0
  195.7410  172.1420  145.5600 C   0  0  0  0  0  3  0  0  0  0  0  0
  196.8780  171.4230  145.9440 C   0  0  0  0  0  3  0  0  0  0  0  0
  194.4060  170.1310  145.7560 C   0  0  0  0  0  3  0  0  0  0  0  0
  1 32  1  0  0  0  0
  1 17  1  0  0  0  0
  2  7  1  0  0  0  0
  2 37  1  1  0  0  0
  3 18  1  6  0  0  0
  3  8  1  0  0  0  0
  4 11  1  0  0  0  0
  5  4  2  0  0  0  0
  5  3  1  0  0  0  0
  6  7  1  0  0  0  0
  8 12  1  1  0  0  0
  8  9  1  0  0  0  0
  9  2  1  0  0  0  0
 10 12  1  0  0  0  0
 10 14  1  0  0  0  0
 11 10  2  0  0  0  0
 13  9  2  0  0  0  0
 14 15  2  0  0  0  0
 15  6  1  0  0  0  0
 15 17  1  0  0  0  0
 16 14  1  0  0  0  0
 16  1  2  0  0  0  0
 19 18  1  0  0  0  0
 19 20  1  0  0  0  0
 20 21  1  0  0  0  0
 21 23  1  0  0  0  0
 23 22  2  0  0  0  0
 23 25  1  0  0  0  0
 24 28  1  0  0  0  0
 25 27  1  0  0  0  0
 25 24  2  0  0  0  0
 26 31  1  0  0  0  0
 26 29  1  0  0  0  0
 27 26  2  0  0  0  0
 28 29  2  0  0  0  0
 30 31  1  0  0  0  0
 32 34  1  0  0  0  0
 34 33  1  0  0  0  0
 36 35  1  0  0  0  0
 36 32  1  0  0  0  0
 37 38  1  0  0  0  0
 38 40  1  0  0  0  0
 39 41  1  0  0  0  0
 40 42  2  0  0  0  0
 40 44  1  0  0  0  0
 42 43  1  0  0  0  0
 43 41  2  0  0  0  0
 44 39  2  0  0  0  0
M  END
>  <MODEL>
2

>  <REMARK>
 VINA RESULT:      -6.4      1.628      2.179
  Name = 
  12 active torsions:
  status: ('A' for Active; 'I' for Inactive)
    1  A    between atoms: C_1  and  C_25
    2  A    between atoms: C_5  and  C_44
    3  A    between atoms: N_6  and  C_32
    4  A    between atoms: C_7  and  C_41
    5  A    between atoms: C_9  and  O_17
    6  A    between atoms: C_14  and  O_43
    7  A    between atoms: C_15  and  O_17
    8  A    between atoms: C_15  and  C_32
    9  A    between atoms: O_21  and  C_25
   10  A    between atoms: C_23  and  N_27
   11  A    between atoms: C_25  and  O_31
   12  A    between atoms: N_27  and  C_44
                            x       y       z     vdW  Elec       q    Type
                         _______ _______ _______ _____ _____    ______ ____

>  <TORSDO>
F 12

$$$$
=
 OpenBabel11042417043D

 44 48  0  0  1  0  0  0  0  0999 V2000
  181.2540  179.0320  141.8650 C   0  0  0  0  0  0  0  0  0  0  0  0
  186.7500  176.8000  141.7570 C   0  0  2  0  0  3  0  0  0  0  0  0
  185.7650  176.8950  145.4140 C   0  0  1  0  0  3  0  0  0  0  0  0
  184.4900  178.7770  146.4440 C   0  0  0  0  0  3  0  0  0  0  0  0
  185.4640  177.8640  146.5180 C   0  0  0  0  0  3  0  0  0  0  0  0
  184.3620  177.3410  141.3320 N   0  0  0  0  0  2  0  0  0  0  0  0
  185.7410  177.7980  141.1520 C   0  0  0  0  0  2  0  0  0  0  0  0
  186.1660  177.6400  144.1630 C   0  0  1  0  0  3  0  0  0  0  0  0
  187.1450  177.0790  143.2090 C   0  0  0  0  0  0  0  0  0  0  0  0
  184.0570  178.8370  144.0470 C   0  0  0  0  0  0  0  0  0  0  0  0
  183.6650  178.9600  145.2830 N   0  0  0  0  0  0  0  0  0  0  0  0
  185.4020  178.5610  143.6840 N   0  0  0  0  0  2  0  0  0  0  0  0
  188.2740  176.7130  143.6340 O   0  0  0  0  0  0  0  0  0  0  0  0
  183.0960  178.8450  142.9390 C   0  0  0  0  0  0  0  0  0  0  0  0
  183.2720  178.2040  141.7140 C   0  0  0  0  0  0  0  0  0  0  0  0
  181.8570  179.3580  143.0270 N   0  0  0  0  0  2  0  0  0  0  0  0
  182.0790  178.2890  141.0290 C   0  0  0  0  0  3  0  0  0  0  0  0
  186.7730  176.0230  145.8340 O   0  0  0  0  0  0  0  0  0  0  0  0
  187.4280  176.6980  146.8680 C   0  0  0  0  0  2  0  0  0  0  0  0
  188.4530  175.7870  147.5240 C   0  0  0  0  0  2  0  0  0  0  0  0
  189.8020  176.1650  147.1240 N   0  0  0  0  0  2  0  0  0  0  0  0
  190.1510  174.2840  145.7850 O   0  0  0  0  0  0  0  0  0  0  0  0
  190.6160  175.3490  146.2770 C   0  0  0  0  0  0  0  0  0  0  0  0
  192.7820  176.3970  146.9320 C   0  0  0  0  0  3  0  0  0  0  0  0
  191.9970  175.7520  145.9680 C   0  0  0  0  0  0  0  0  0  0  0  0
  193.7970  175.8510  144.4070 C   0  0  0  0  0  0  0  0  0  0  0  0
  192.5220  175.4960  144.7360 N   0  0  0  0  0  0  0  0  0  0  0  0
  194.0890  176.7680  146.6170 C   0  0  0  0  0  3  0  0  0  0  0  0
  194.6020  176.4950  145.3480 C   0  0  0  0  0  3  0  0  0  0  0  0
  193.6480  175.9940  141.9530 C   0  0  0  0  0  1  0  0  0  0  0  0
  194.3110  175.5790  143.1380 O   0  0  0  0  0  0  0  0  0  0  0  0
  179.8390  179.4340  141.5490 C   0  0  0  0  0  3  0  0  0  0  0  0
  179.6910  181.1460  140.1530 C   0  0  0  0  0  1  0  0  0  0  0  0
  179.6540  179.7520  140.1950 O   0  0  0  0  0  0  0  0  0  0  0  0
  178.3900  178.9210  143.2470 C   0  0  0  0  0  1  0  0  0  0  0  0
  178.8880  178.4930  142.0060 O   0  0  0  0  0  0  0  0  0  0  0  0
  187.9850  176.7430  140.8680 C   0  0  0  0  0  2  0  0  0  0  0  0
  188.2090  175.3800  140.4090 N   0  0  0  0  0  2  0  0  0  0  0  0
  190.7510  173.4610  142.3730 C   0  0  0  0  0  3  0  0  0  0  0  0
  188.8200  174.3800  141.2250 C   0  0  0  0  0  0  0  0  0  0  0  0
  189.9750  172.3890  142.8240 C   0  0  0  0  0  3  0  0  0  0  0  0
  188.0470  173.3050  141.6790 C   0  0  0  0  0  3  0  0  0  0  0  0
  188.6230  172.3120  142.4780 C   0  0  0  0  0  3  0  0  0  0  0  0
  190.1760  174.4540  141.5760 C   0  0  0  0  0  3  0  0  0  0  0  0
  1 16  1  0  0  0  0
  2 37  1  6  0  0  0
  2  9  1  0  0  0  0
  3 18  1  1  0  0  0
  3  5  1  0  0  0  0
  4  5  2  0  0  0  0
  6 15  1  0  0  0  0
  7  6  1  0  0  0  0
  7  2  1  0  0  0  0
  8  9  1  6  0  0  0
  8  3  1  0  0  0  0
  9 13  2  0  0  0  0
 10 11  2  0  0  0  0
 11  4  1  0  0  0  0
 12 10  1  0  0  0  0
 12  8  1  0  0  0  0
 14 16  1  0  0  0  0
 14 10  1  0  0  0  0
 15 14  2  0  0  0  0
 17 15  1  0  0  0  0
 17  1  2  0  0  0  0
 18 19  1  0  0  0  0
 19 20  1  0  0  0  0
 21 20  1  0  0  0  0
 22 23  2  0  0  0  0
 23 21  1  0  0  0  0
 25 23  1  0  0  0  0
 25 24  2  0  0  0  0
 26 27  2  0  0  0  0
 26 29  1  0  0  0  0
 27 25  1  0  0  0  0
 28 24  1  0  0  0  0
 29 28  2  0  0  0  0
 30 31  1  0  0  0  0
 31 26  1  0  0  0  0
 32  1  1  0  0  0  0
 32 36  1  0  0  0  0
 33 34  1  0  0  0  0
 34 32  1  0  0  0  0
 36 35  1  0  0  0  0
 38 37  1  0  0  0  0
 38 40  1  0  0  0  0
 39 41  1  0  0  0  0
 40 44  1  0  0  0  0
 40 42  2  0  0  0  0
 42 43  1  0  0  0  0
 43 41  2  0  0  0  0
 44 39  2  0  0  0  0
M  END
>  <MODEL>
3

>  <REMARK>
 VINA RESULT:      -6.3      3.439      7.299
  Name = 
  12 active torsions:
  status: ('A' for Active; 'I' for Inactive)
    1  A    between atoms: C_1  and  C_25
    2  A    between atoms: C_5  and  C_44
    3  A    between atoms: N_6  and  C_32
    4  A    between atoms: C_7  and  C_41
    5  A    between atoms: C_9  and  O_17
    6  A    between atoms: C_14  and  O_43
    7  A    between atoms: C_15  and  O_17
    8  A    between atoms: C_15  and  C_32
    9  A    between atoms: O_21  and  C_25
   10  A    between atoms: C_23  and  N_27
   11  A    between atoms: C_25  and  O_31
   12  A    between atoms: N_27  and  C_44
                            x       y       z     vdW  Elec       q    Type
                         _______ _______ _______ _____ _____    ______ ____

>  <TORSDO>
F 12

$$$$
=
 OpenBabel11042417043D

 44 48  0  0  1  0  0  0  0  0999 V2000
  189.7070  173.4860  140.6070 C   0  0  0  0  0  0  0  0  0  0  0  0
  189.1430  176.1180  145.8940 C   0  0  2  0  0  3  0  0  0  0  0  0
  192.7220  174.8870  145.7510 C   0  0  1  0  0  3  0  0  0  0  0  0
  193.3790  172.6850  144.7750 C   0  0  0  0  0  3  0  0  0  0  0  0
  193.5210  173.6180  145.7230 C   0  0  0  0  0  3  0  0  0  0  0  0
  189.0770  175.5190  143.4830 N   0  0  0  0  0  2  0  0  0  0  0  0
  188.4880  175.2540  144.7960 C   0  0  0  0  0  2  0  0  0  0  0  0
  191.2510  174.5720  145.8780 C   0  0  1  0  0  3  0  0  0  0  0  0
  190.3290  175.4660  146.6080 C   0  0  0  0  0  0  0  0  0  0  0  0
  191.2190  173.2830  143.8210 C   0  0  0  0  0  0  0  0  0  0  0  0
  192.4130  172.7740  143.7160 N   0  0  0  0  0  0  0  0  0  0  0  0
  190.6860  173.7660  145.0460 N   0  0  0  0  0  2  0  0  0  0  0  0
  190.6010  175.7900  147.7960 O   0  0  0  0  0  0  0  0  0  0  0  0
  190.3830  173.5120  142.6370 C   0  0  0  0  0  0  0  0  0  0  0  0
  189.3980  174.4920  142.5230 C   0  0  0  0  0  0  0  0  0  0  0  0
  190.5660  172.8910  141.4610 N   0  0  0  0  0  2  0  0  0  0  0  0
  188.9810  174.5060  141.2100 C   0  0  0  0  0  3  0  0  0  0  0  0
  193.1680  175.6830  146.8090 O   0  0  0  0  0  0  0  0  0  0  0  0
  194.4350  176.1260  146.4210 C   0  0  0  0  0  2  0  0  0  0  0  0
  194.3350  176.9670  145.1590 C   0  0  0  0  0  2  0  0  0  0  0  0
  195.3030  176.5180  144.1680 N   0  0  0  0  0  2  0  0  0  0  0  0
  193.7000  175.8730  142.5970 O   0  0  0  0  0  0  0  0  0  0  0  0
  194.9200  175.9440  142.9140 C   0  0  0  0  0  0  0  0  0  0  0  0
  196.3930  176.2420  140.9250 C   0  0  0  0  0  3  0  0  0  0  0  0
  195.9450  175.4440  141.9860 C   0  0  0  0  0  0  0  0  0  0  0  0
  197.4220  173.6940  141.3200 C   0  0  0  0  0  0  0  0  0  0  0  0
  196.4690  174.1970  142.1560 N   0  0  0  0  0  0  0  0  0  0  0  0
  197.3680  175.7480  140.0580 C   0  0  0  0  0  3  0  0  0  0  0  0
  197.8870  174.4670  140.2540 C   0  0  0  0  0  3  0  0  0  0  0  0
  197.7950  171.7210  142.7450 C   0  0  0  0  0  1  0  0  0  0  0  0
  197.9410  172.4130  141.5140 O   0  0  0  0  0  0  0  0  0  0  0  0
  189.5840  173.0720  139.1650 C   0  0  0  0  0  3  0  0  0  0  0  0
  188.1750  174.0720  137.7800 C   0  0  0  0  0  1  0  0  0  0  0  0
  189.4690  174.1650  138.2940 O   0  0  0  0  0  0  0  0  0  0  0  0
  190.1300  171.4020  137.6970 C   0  0  0  0  0  1  0  0  0  0  0  0
  190.6040  172.1800  138.7640 O   0  0  0  0  0  0  0  0  0  0  0  0
  188.0770  176.5350  146.8980 C   0  0  0  0  0  2  0  0  0  0  0  0
  187.6690  177.9110  146.6540 N   0  0  0  0  0  2  0  0  0  0  0  0
  185.3790  178.8720  143.8540 C   0  0  0  0  0  3  0  0  0  0  0  0
  186.4910  178.2490  145.9210 C   0  0  0  0  0  0  0  0  0  0  0  0
  184.1530  178.9120  144.5260 C   0  0  0  0  0  3  0  0  0  0  0  0
  185.2610  178.2900  146.5870 C   0  0  0  0  0  3  0  0  0  0  0  0
  184.0940  178.6200  145.8910 C   0  0  0  0  0  3  0  0  0  0  0  0
  186.5450  178.5410  144.5490 C   0  0  0  0  0  3  0  0  0  0  0  0
  1 17  2  0  0  0  0
  1 16  1  0  0  0  0
  2  9  1  0  0  0  0
  2 37  1  1  0  0  0
  3  8  1  0  0  0  0
  3 18  1  1  0  0  0
  4  5  2  0  0  0  0
  5  3  1  0  0  0  0
  6  7  1  0  0  0  0
  7  2  1  0  0  0  0
  8 12  1  6  0  0  0
  8  9  1  0  0  0  0
  9 13  2  0  0  0  0
 10 12  1  0  0  0  0
 11 10  2  0  0  0  0
 11  4  1  0  0  0  0
 14 10  1  0  0  0  0
 15 14  2  0  0  0  0
 15  6  1  0  0  0  0
 16 14  1  0  0  0  0
 17 15  1  0  0  0  0
 19 18  1  0  0  0  0
 20 19  1  0  0  0  0
 21 20  1  0  0  0  0
 22 23  2  0  0  0  0
 23 21  1  0  0  0  0
 24 25  2  0  0  0  0
 25 27  1  0  0  0  0
 25 23  1  0  0  0  0
 26 31  1  0  0  0  0
 26 27  2  0  0  0  0
 28 29  2  0  0  0  0
 28 24  1  0  0  0  0
 29 26  1  0  0  0  0
 31 30  1  0  0  0  0
 32  1  1  0  0  0  0
 33 34  1  0  0  0  0
 34 32  1  0  0  0  0
 35 36  1  0  0  0  0
 36 32  1  0  0  0  0
 38 37  1  0  0  0  0
 39 41  2  0  0  0  0
 39 44  1  0  0  0  0
 40 42  1  0  0  0  0
 40 38  1  0  0  0  0
 41 43  1  0  0  0  0
 43 42  2  0  0  0  0
 44 40  2  0  0  0  0
M  END
>  <MODEL>
4

>  <REMARK>
 VINA RESULT:      -6.0      2.363      7.250
  Name = 
  12 active torsions:
  status: ('A' for Active; 'I' for Inactive)
    1  A    between atoms: C_1  and  C_25
    2  A    between atoms: C_5  and  C_44
    3  A    between atoms: N_6  and  C_32
    4  A    between atoms: C_7  and  C_41
    5  A    between atoms: C_9  and  O_17
    6  A    between atoms: C_14  and  O_43
    7  A    between atoms: C_15  and  O_17
    8  A    between atoms: C_15  and  C_32
    9  A    between atoms: O_21  and  C_25
   10  A    between atoms: C_23  and  N_27
   11  A    between atoms: C_25  and  O_31
   12  A    between atoms: N_27  and  C_44
                            x       y       z     vdW  Elec       q    Type
                         _______ _______ _______ _____ _____    ______ ____

>  <TORSDO>
F 12

$$$$
=
 OpenBabel11042417043D

 44 48  0  0  1  0  0  0  0  0999 V2000
  182.5200  178.3530  142.1220 C   0  0  0  0  0  0  0  0  0  0  0  0
  188.3080  177.4650  143.0830 C   0  0  2  0  0  3  0  0  0  0  0  0
  186.7150  177.5800  146.5180 C   0  0  1  0  0  3  0  0  0  0  0  0
  184.9010  179.1780  147.1380 C   0  0  0  0  0  3  0  0  0  0  0  0
  186.0240  178.5260  147.4550 C   0  0  0  0  0  3  0  0  0  0  0  0
  185.9680  177.4030  142.2480 N   0  0  0  0  0  2  0  0  0  0  0  0
  187.2230  178.1560  142.2300 C   0  0  0  0  0  2  0  0  0  0  0  0
  187.1500  178.3100  145.2700 C   0  0  1  0  0  3  0  0  0  0  0  0
  188.3770  177.9290  144.5400 C   0  0  0  0  0  0  0  0  0  0  0  0
  184.8820  178.9700  144.7110 C   0  0  0  0  0  0  0  0  0  0  0  0
  184.2670  179.0840  145.8520 N   0  0  0  0  0  0  0  0  0  0  0  0
  186.2970  178.9920  144.5860 N   0  0  0  0  0  2  0  0  0  0  0  0
  189.4700  177.8670  145.1670 O   0  0  0  0  0  0  0  0  0  0  0  0
  184.1470  178.6770  143.4760 C   0  0  0  0  0  0  0  0  0  0  0  0
  184.6660  178.0120  142.3670 C   0  0  0  0  0  0  0  0  0  0  0  0
  182.8300  178.8910  143.3210 N   0  0  0  0  0  2  0  0  0  0  0  0
  183.6190  177.7680  141.5040 C   0  0  0  0  0  3  0  0  0  0  0  0
  187.8020  176.9990  147.1760 O   0  0  0  0  0  0  0  0  0  0  0  0
  187.8210  175.6710  146.7420 C   0  0  0  0  0  2  0  0  0  0  0  0
  188.9170  174.9000  147.4590 C   0  0  0  0  0  2  0  0  0  0  0  0
  189.9860  174.5530  146.5320 N   0  0  0  0  0  2  0  0  0  0  0  0
  191.6420  175.7280  147.6850 O   0  0  0  0  0  0  0  0  0  0  0  0
  191.3270  175.0310  146.6820 C   0  0  0  0  0  0  0  0  0  0  0  0
  192.6870  173.3700  145.4140 C   0  0  0  0  0  3  0  0  0  0  0  0
  192.3460  174.7040  145.6720 C   0  0  0  0  0  0  0  0  0  0  0  0
  193.9120  175.4440  144.0340 C   0  0  0  0  0  0  0  0  0  0  0  0
  192.9640  175.7010  144.9790 N   0  0  0  0  0  0  0  0  0  0  0  0
  193.6540  173.0830  144.4500 C   0  0  0  0  0  3  0  0  0  0  0  0
  194.2720  174.1240  143.7550 C   0  0  0  0  0  3  0  0  0  0  0  0
  195.8840  176.4050  142.9150 C   0  0  0  0  0  1  0  0  0  0  0  0
  194.5320  176.4830  143.3390 O   0  0  0  0  0  0  0  0  0  0  0  0
  181.1270  178.3900  141.5550 C   0  0  0  0  0  3  0  0  0  0  0  0
  179.3560  178.9560  142.7590 C   0  0  0  0  0  1  0  0  0  0  0  0
  180.3910  179.5000  141.9970 O   0  0  0  0  0  0  0  0  0  0  0  0
  179.8210  177.8710  139.7480 C   0  0  0  0  0  1  0  0  0  0  0  0
  181.1060  178.2670  140.1480 O   0  0  0  0  0  0  0  0  0  0  0  0
  189.6580  177.6370  142.4020 C   0  0  0  0  0  2  0  0  0  0  0  0
  190.3970  176.3830  142.4300 N   0  0  0  0  0  2  0  0  0  0  0  0
  189.4340  172.8030  142.9420 C   0  0  0  0  0  3  0  0  0  0  0  0
  189.7680  175.1110  142.2670 C   0  0  0  0  0  0  0  0  0  0  0  0
  188.5110  172.6330  141.9050 C   0  0  0  0  0  3  0  0  0  0  0  0
  188.8430  174.9350  141.2310 C   0  0  0  0  0  3  0  0  0  0  0  0
  188.2150  173.6990  141.0510 C   0  0  0  0  0  3  0  0  0  0  0  0
  190.0610  174.0390  143.1230 C   0  0  0  0  0  3  0  0  0  0  0  0
  1 16  1  0  0  0  0
  2 37  1  6  0  0  0
  2  9  1  0  0  0  0
  3 18  1  1  0  0  0
  3  5  1  0  0  0  0
  4  5  2  0  0  0  0
  6 15  1  0  0  0  0
  7  6  1  0  0  0  0
  7  2  1  0  0  0  0
  8  9  1  6  0  0  0
  8  3  1  0  0  0  0
  9 13  2  0  0  0  0
 10 11  2  0  0  0  0
 11  4  1  0  0  0  0
 12 10  1  0  0  0  0
 12  8  1  0  0  0  0
 14 10  1  0  0  0  0
 15 14  2  0  0  0  0
 16 14  1  0  0  0  0
 17  1  2  0  0  0  0
 17 15  1  0  0  0  0
 19 18  1  0  0  0  0
 19 20  1  0  0  0  0
 21 23  1  0  0  0  0
 21 20  1  0  0  0  0
 23 22  2  0  0  0  0
 24 25  2  0  0  0  0
 25 23  1  0  0  0  0
 26 27  2  0  0  0  0
 27 25  1  0  0  0  0
 28 24  1  0  0  0  0
 29 26  1  0  0  0  0
 29 28  2  0  0  0  0
 30 31  1  0  0  0  0
 31 26  1  0  0  0  0
 32 34  1  0  0  0  0
 32  1  1  0  0  0  0
 34 33  1  0  0  0  0
 35 36  1  0  0  0  0
 36 32  1  0  0  0  0
 37 38  1  0  0  0  0
 39 44  1  0  0  0  0
 40 38  1  0  0  0  0
 40 44  2  0  0  0  0
 41 39  2  0  0  0  0
 42 40  1  0  0  0  0
 43 42  2  0  0  0  0
 43 41  1  0  0  0  0
M  END
>  <MODEL>
5

>  <REMARK>
 VINA RESULT:      -5.8      3.074      7.080
  Name = 
  12 active torsions:
  status: ('A' for Active; 'I' for Inactive)
    1  A    between atoms: C_1  and  C_25
    2  A    between atoms: C_5  and  C_44
    3  A    between atoms: N_6  and  C_32
    4  A    between atoms: C_7  and  C_41
    5  A    between atoms: C_9  and  O_17
    6  A    between atoms: C_14  and  O_43
    7  A    between atoms: C_15  and  O_17
    8  A    between atoms: C_15  and  C_32
    9  A    between atoms: O_21  and  C_25
   10  A    between atoms: C_23  and  N_27
   11  A    between atoms: C_25  and  O_31
   12  A    between atoms: N_27  and  C_44
                            x       y       z     vdW  Elec       q    Type
                         _______ _______ _______ _____ _____    ______ ____

>  <TORSDO>
F 12

$$$$
=
 OpenBabel11042417043D

 44 48  0  0  1  0  0  0  0  0999 V2000
  191.4980  171.4770  137.3060 C   0  0  0  0  0  0  0  0  0  0  0  0
  189.7390  173.8690  142.4430 C   0  0  2  0  0  3  0  0  0  0  0  0
  192.4260  171.3610  143.3590 C   0  0  1  0  0  3  0  0  0  0  0  0
  192.6460  169.1250  142.2720 C   0  0  0  0  0  3  0  0  0  0  0  0
  192.6910  169.8850  143.3710 C   0  0  0  0  0  3  0  0  0  0  0  0
  190.4680  173.4560  140.1030 N   0  0  0  0  0  2  0  0  0  0  0  0
  189.3420  173.3770  141.0350 C   0  0  0  0  0  2  0  0  0  0  0  0
  191.0190  171.6320  142.8830 C   0  0  1  0  0  3  0  0  0  0  0  0
  190.2370  172.7770  143.3930 C   0  0  0  0  0  0  0  0  0  0  0  0
  191.4010  170.5540  140.7410 C   0  0  0  0  0  0  0  0  0  0  0  0
  192.2880  169.6300  140.9760 N   0  0  0  0  0  0  0  0  0  0  0  0
  190.6100  171.1470  141.7610 N   0  0  0  0  0  2  0  0  0  0  0  0
  190.0910  172.9140  144.6380 O   0  0  0  0  0  0  0  0  0  0  0  0
  191.2510  171.1440  139.4060 C   0  0  0  0  0  0  0  0  0  0  0  0
  190.7890  172.4320  139.1410 C   0  0  0  0  0  0  0  0  0  0  0  0
  191.6800  170.5570  138.2770 N   0  0  0  0  0  2  0  0  0  0  0  0
  190.9760  172.6690  137.7960 C   0  0  0  0  0  3  0  0  0  0  0  0
  192.6380  171.8730  144.6420 O   0  0  0  0  0  0  0  0  0  0  0  0
  193.9990  172.1900  144.6850 C   0  0  0  0  0  2  0  0  0  0  0  0
  194.2130  173.4850  145.4520 C   0  0  0  0  0  2  0  0  0  0  0  0
  193.0450  174.3470  145.3330 N   0  0  0  0  0  2  0  0  0  0  0  0
  193.8540  175.5270  143.4870 O   0  0  0  0  0  0  0  0  0  0  0  0
  192.9420  175.3780  144.3460 C   0  0  0  0  0  0  0  0  0  0  0  0
  191.5170  177.0840  143.2150 C   0  0  0  0  0  3  0  0  0  0  0  0
  191.7670  176.2640  144.3220 C   0  0  0  0  0  0  0  0  0  0  0  0
  189.8090  177.0920  145.4030 C   0  0  0  0  0  0  0  0  0  0  0  0
  190.9110  176.2880  145.3830 N   0  0  0  0  0  0  0  0  0  0  0  0
  190.3950  177.9130  143.2140 C   0  0  0  0  0  3  0  0  0  0  0  0
  189.5350  177.9200  144.3120 C   0  0  0  0  0  3  0  0  0  0  0  0
  188.1950  175.9570  146.8760 C   0  0  0  0  0  1  0  0  0  0  0  0
  188.9490  177.1000  146.5020 O   0  0  0  0  0  0  0  0  0  0  0  0
  191.8440  171.2110  135.8660 C   0  0  0  0  0  3  0  0  0  0  0  0
  193.9070  171.9360  135.5170 C   0  0  0  0  0  1  0  0  0  0  0  0
  193.1640  170.7680  135.6980 O   0  0  0  0  0  0  0  0  0  0  0  0
  191.5680  169.1740  134.8580 C   0  0  0  0  0  1  0  0  0  0  0  0
  190.9140  170.3590  135.2290 O   0  0  0  0  0  0  0  0  0  0  0  0
  188.5630  174.6160  143.0570 C   0  0  0  0  0  2  0  0  0  0  0  0
  187.7610  175.2330  142.0110 N   0  0  0  0  0  2  0  0  0  0  0  0
  185.6790  178.3060  141.5320 C   0  0  0  0  0  3  0  0  0  0  0  0
  186.8660  176.3180  142.2620 C   0  0  0  0  0  0  0  0  0  0  0  0
  185.1100  178.4340  142.8030 C   0  0  0  0  0  3  0  0  0  0  0  0
  186.2940  176.4510  143.5320 C   0  0  0  0  0  3  0  0  0  0  0  0
  185.4160  177.5060  143.8020 C   0  0  0  0  0  3  0  0  0  0  0  0
  186.5550  177.2510  141.2620 C   0  0  0  0  0  3  0  0  0  0  0  0
  1 17  2  0  0  0  0
  1 16  1  0  0  0  0
  2 37  1  1  0  0  0
  2  9  1  0  0  0  0
  3  5  1  0  0  0  0
  3 18  1  1  0  0  0
  4  5  2  0  0  0  0
  6  7  1  0  0  0  0
  7  2  1  0  0  0  0
  8 12  1  6  0  0  0
  8  3  1  0  0  0  0
  8  9  1  0  0  0  0
  9 13  2  0  0  0  0
 10 11  2  0  0  0  0
 10 12  1  0  0  0  0
 11  4  1  0  0  0  0
 14 10  1  0  0  0  0
 15 14  2  0  0  0  0
 15  6  1  0  0  0  0
 16 14  1  0  0  0  0
 17 15  1  0  0  0  0
 18 19  1  0  0  0  0
 19 20  1  0  0  0  0
 21 20  1  0  0  0  0
 22 23  2  0  0  0  0
 23 21  1  0  0  0  0
 24 25  2  0  0  0  0
 25 23  1  0  0  0  0
 25 27  1  0  0  0  0
 26 31  1  0  0  0  0
 27 26  2  0  0  0  0
 28 24  1  0  0  0  0
 28 29  2  0  0  0  0
 29 26  1  0  0  0  0
 31 30  1  0  0  0  0
 32  1  1  0  0  0  0
 33 34  1  0  0  0  0
 34 32  1  0  0  0  0
 35 36  1  0  0  0  0
 36 32  1  0  0  0  0
 38 40  1  0  0  0  0
 38 37  1  0  0  0  0
 39 41  1  0  0  0  0
 40 42  2  0  0  0  0
 41 43  2  0  0  0  0
 42 43  1  0  0  0  0
 44 39  2  0  0  0  0
 44 40  1  0  0  0  0
M  END
>  <MODEL>
6

>  <REMARK>
 VINA RESULT:      -5.8      2.799      8.125
  Name = 
  12 active torsions:
  status: ('A' for Active; 'I' for Inactive)
    1  A    between atoms: C_1  and  C_25
    2  A    between atoms: C_5  and  C_44
    3  A    between atoms: N_6  and  C_32
    4  A    between atoms: C_7  and  C_41
    5  A    between atoms: C_9  and  O_17
    6  A    between atoms: C_14  and  O_43
    7  A    between atoms: C_15  and  O_17
    8  A    between atoms: C_15  and  C_32
    9  A    between atoms: O_21  and  C_25
   10  A    between atoms: C_23  and  N_27
   11  A    between atoms: C_25  and  O_31
   12  A    between atoms: N_27  and  C_44
                            x       y       z     vdW  Elec       q    Type
                         _______ _______ _______ _____ _____    ______ ____

>  <TORSDO>
F 12

$$$$
=
 OpenBabel11042417043D

 44 48  0  0  1  0  0  0  0  0999 V2000
  187.5630  177.4230  144.6730 C   0  0  0  0  0  0  0  0  0  0  0  0
  192.8460  175.7820  142.5270 C   0  0  2  0  0  3  0  0  0  0  0  0
  190.2820  173.9890  140.3910 C   0  0  1  0  0  3  0  0  0  0  0  0
  188.1960  172.9730  141.3120 C   0  0  0  0  0  3  0  0  0  0  0  0
  189.2360  172.9170  140.4730 C   0  0  0  0  0  3  0  0  0  0  0  0
  190.8930  177.0300  143.4250 N   0  0  0  0  0  2  0  0  0  0  0  0
  192.0010  176.1370  143.7680 C   0  0  0  0  0  2  0  0  0  0  0  0
  190.9900  174.1270  141.7170 C   0  0  1  0  0  3  0  0  0  0  0  0
  192.4150  174.5080  141.7960 C   0  0  0  0  0  0  0  0  0  0  0  0
  188.9410  174.6610  142.9020 C   0  0  0  0  0  0  0  0  0  0  0  0
  187.9980  174.0360  142.2570 N   0  0  0  0  0  0  0  0  0  0  0  0
  190.3140  174.3160  142.7980 N   0  0  0  0  0  2  0  0  0  0  0  0
  193.2660  173.8410  141.1450 O   0  0  0  0  0  0  0  0  0  0  0  0
  188.6530  175.8650  143.6900 C   0  0  0  0  0  0  0  0  0  0  0  0
  189.5570  176.8940  143.9490 C   0  0  0  0  0  0  0  0  0  0  0  0
  187.4310  176.1890  144.1420 N   0  0  0  0  0  0  0  0  0  0  0  0
  188.8570  177.9170  144.5510 C   0  0  0  0  0  2  0  0  0  0  0  0
  191.1760  173.6770  139.3630 O   0  0  0  0  0  0  0  0  0  0  0  0
  190.3950  173.6320  138.2050 C   0  0  0  0  0  2  0  0  0  0  0  0
  191.1990  174.1160  137.0100 C   0  0  0  0  0  2  0  0  0  0  0  0
  192.6140  174.1980  137.3460 N   0  0  0  0  0  2  0  0  0  0  0  0
  192.9270  176.3040  136.3880 O   0  0  0  0  0  0  0  0  0  0  0  0
  193.4360  175.3090  136.9730 C   0  0  0  0  0  0  0  0  0  0  0  0
  195.8170  175.5440  136.2730 C   0  0  0  0  0  3  0  0  0  0  0  0
  194.8740  175.3000  137.2800 C   0  0  0  0  0  0  0  0  0  0  0  0
  196.6220  175.0380  138.8810 C   0  0  0  0  0  0  0  0  0  0  0  0
  195.2990  175.0540  138.5520 N   0  0  0  0  0  0  0  0  0  0  0  0
  197.1760  175.5330  136.5880 C   0  0  0  0  0  3  0  0  0  0  0  0
  197.5840  175.2780  137.8990 C   0  0  0  0  0  3  0  0  0  0  0  0
  196.6980  173.5760  140.8620 C   0  0  0  0  0  1  0  0  0  0  0  0
  197.0300  174.7820  140.1910 O   0  0  0  0  0  0  0  0  0  0  0  0
  186.4140  178.1570  145.3080 C   0  0  0  0  0  3  0  0  0  0  0  0
  185.5710  179.6260  143.8820 C   0  0  0  0  0  1  0  0  0  0  0  0
  185.3440  178.3600  144.4240 O   0  0  0  0  0  0  0  0  0  0  0  0
  184.5910  177.4900  146.5240 C   0  0  0  0  0  1  0  0  0  0  0  0
  185.9920  177.5670  146.5220 O   0  0  0  0  0  0  0  0  0  0  0  0
  194.3110  175.6980  142.9320 C   0  0  0  0  0  2  0  0  0  0  0  0
  194.4220  175.3570  144.3420 N   0  0  0  0  0  2  0  0  0  0  0  0
  195.6650  171.8590  144.8130 C   0  0  0  0  0  3  0  0  0  0  0  0
  195.1740  174.2370  144.8090 C   0  0  0  0  0  0  0  0  0  0  0  0
  196.6730  172.0680  145.7600 C   0  0  0  0  0  3  0  0  0  0  0  0
  196.1850  174.4390  145.7570 C   0  0  0  0  0  3  0  0  0  0  0  0
  196.9330  173.3580  146.2310 C   0  0  0  0  0  3  0  0  0  0  0  0
  194.9170  172.9400  144.3390 C   0  0  0  0  0  3  0  0  0  0  0  0
  1 32  1  0  0  0  0
  2 37  1  1  0  0  0
  2  7  1  0  0  0  0
  3 18  1  6  0  0  0
  3  5  1  0  0  0  0
  3  8  1  0  0  0  0
  4 11  1  0  0  0  0
  5  4  2  0  0  0  0
  6  7  1  0  0  0  0
  6 15  1  0  0  0  0
  8  9  1  6  0  0  0
  8 12  1  0  0  0  0
  9  2  1  0  0  0  0
 10 14  1  0  0  0  0
 11 10  2  0  0  0  0
 12 10  1  0  0  0  0
 13  9  2  0  0  0  0
 14 15  2  0  0  0  0
 14 16  1  0  0  0  0
 15 17  1  0  0  0  0
 16  1  2  0  0  0  0
 17  1  1  0  0  0  0
 19 18  1  0  0  0  0
 20 21  1  0  0  0  0
 20 19  1  0  0  0  0
 22 23  2  0  0  0  0
 23 25  1  0  0  0  0
 23 21  1  0  0  0  0
 24 28  1  0  0  0  0
 24 25  2  0  0  0  0
 25 27  1  0  0  0  0
 26 31  1  0  0  0  0
 27 26  2  0  0  0  0
 28 29  2  0  0  0  0
 29 26  1  0  0  0  0
 31 30  1  0  0  0  0
 32 36  1  0  0  0  0
 33 34  1  0  0  0  0
 34 32  1  0  0  0  0
 36 35  1  0  0  0  0
 37 38  1  0  0  0  0
 38 40  1  0  0  0  0
 39 41  1  0  0  0  0
 40 42  2  0  0  0  0
 41 43  2  0  0  0  0
 42 43  1  0  0  0  0
 44 40  1  0  0  0  0
 44 39  2  0  0  0  0
M  END
>  <MODEL>
7

>  <REMARK>
 VINA RESULT:      -5.8      1.848      2.992
  Name = 
  12 active torsions:
  status: ('A' for Active; 'I' for Inactive)
    1  A    between atoms: C_1  and  C_25
    2  A    between atoms: C_5  and  C_44
    3  A    between atoms: N_6  and  C_32
    4  A    between atoms: C_7  and  C_41
    5  A    between atoms: C_9  and  O_17
    6  A    between atoms: C_14  and  O_43
    7  A    between atoms: C_15  and  O_17
    8  A    between atoms: C_15  and  C_32
    9  A    between atoms: O_21  and  C_25
   10  A    between atoms: C_23  and  N_27
   11  A    between atoms: C_25  and  O_31
   12  A    between atoms: N_27  and  C_44
                            x       y       z     vdW  Elec       q    Type
                         _______ _______ _______ _____ _____    ______ ____

>  <TORSDO>
F 12

$$$$
=
 OpenBabel11042417043D

 44 48  0  0  1  0  0  0  0  0999 V2000
  186.3760  177.7780  142.3900 C   0  0  0  0  0  0  0  0  0  0  0  0
  190.1380  173.1940  142.6010 C   0  0  2  0  0  3  0  0  0  0  0  0
  191.8500  176.0000  144.4830 C   0  0  1  0  0  3  0  0  0  0  0  0
  191.7870  178.3850  143.7490 C   0  0  0  0  0  3  0  0  0  0  0  0
  192.4630  177.3520  144.2630 C   0  0  0  0  0  3  0  0  0  0  0  0
  188.1450  174.6790  142.6530 N   0  0  0  0  0  2  0  0  0  0  0  0
  189.0920  173.9820  141.7830 C   0  0  0  0  0  2  0  0  0  0  0  0
  191.3930  175.4170  143.1680 C   0  0  1  0  0  3  0  0  0  0  0  0
  191.4240  173.9620  142.9150 C   0  0  0  0  0  0  0  0  0  0  0  0
  189.8800  177.2650  142.7290 C   0  0  0  0  0  0  0  0  0  0  0  0
  190.4240  178.2970  143.3060 N   0  0  0  0  0  0  0  0  0  0  0  0
  190.6050  176.0880  142.4000 N   0  0  0  0  0  2  0  0  0  0  0  0
  192.5040  173.3330  143.0860 O   0  0  0  0  0  0  0  0  0  0  0  0
  188.4330  177.1970  142.4970 C   0  0  0  0  0  0  0  0  0  0  0  0
  187.6820  176.0250  142.4230 C   0  0  0  0  0  0  0  0  0  0  0  0
  187.6290  178.2730  142.4700 N   0  0  0  0  0  2  0  0  0  0  0  0
  186.3530  176.3880  142.3880 C   0  0  0  0  0  3  0  0  0  0  0  0
  192.7850  175.1730  145.1120 O   0  0  0  0  0  0  0  0  0  0  0  0
  192.8370  175.6240  146.4330 C   0  0  0  0  0  2  0  0  0  0  0  0
  191.7770  174.9260  147.2690 C   0  0  0  0  0  2  0  0  0  0  0  0
  190.5720  175.7410  147.3490 N   0  0  0  0  0  2  0  0  0  0  0  0
  189.3040  174.3610  145.9550 O   0  0  0  0  0  0  0  0  0  0  0  0
  189.3730  175.4210  146.6350 C   0  0  0  0  0  0  0  0  0  0  0  0
  187.0600  176.0520  145.9520 C   0  0  0  0  0  3  0  0  0  0  0  0
  188.2120  176.3230  146.7000 C   0  0  0  0  0  0  0  0  0  0  0  0
  187.2000  178.2910  147.5860 C   0  0  0  0  0  0  0  0  0  0  0  0
  188.2520  177.4300  147.4950 N   0  0  0  0  0  0  0  0  0  0  0  0
  185.9700  176.9200  146.0310 C   0  0  0  0  0  3  0  0  0  0  0  0
  186.0380  178.0460  146.8520 C   0  0  0  0  0  3  0  0  0  0  0  0
  186.2560  180.4150  148.3980 C   0  0  0  0  0  1  0  0  0  0  0  0
  187.2660  179.4190  148.4060 O   0  0  0  0  0  0  0  0  0  0  0  0
  185.1610  178.6630  142.3230 C   0  0  0  0  0  3  0  0  0  0  0  0
  183.8750  178.2620  140.5650 C   0  0  0  0  0  1  0  0  0  0  0  0
  184.0070  177.9720  141.9240 O   0  0  0  0  0  0  0  0  0  0  0  0
  183.7050  179.0460  144.0490 C   0  0  0  0  0  1  0  0  0  0  0  0
  184.9540  179.3980  143.5120 O   0  0  0  0  0  0  0  0  0  0  0  0
  190.4540  171.8920  141.8800 C   0  0  0  0  0  2  0  0  0  0  0  0
  190.3070  172.0660  140.4430 N   0  0  0  0  0  2  0  0  0  0  0  0
  189.7020  169.8420  137.4950 C   0  0  0  0  0  3  0  0  0  0  0  0
  190.4090  170.9830  139.5180 C   0  0  0  0  0  0  0  0  0  0  0  0
  190.6410  168.8330  137.7350 C   0  0  0  0  0  3  0  0  0  0  0  0
  191.3470  169.9710  139.7530 C   0  0  0  0  0  3  0  0  0  0  0  0
  191.4640  168.8990  138.8630 C   0  0  0  0  0  3  0  0  0  0  0  0
  189.5860  170.9130  138.3830 C   0  0  0  0  0  3  0  0  0  0  0  0
  1 16  1  0  0  0  0
  2 37  1  6  0  0  0
  2  9  1  0  0  0  0
  3 18  1  6  0  0  0
  4  5  2  0  0  0  0
  5  3  1  0  0  0  0
  7  2  1  0  0  0  0
  7  6  1  0  0  0  0
  8 12  1  1  0  0  0
  8  3  1  0  0  0  0
  9 13  2  0  0  0  0
  9  8  1  0  0  0  0
 10 11  2  0  0  0  0
 11  4  1  0  0  0  0
 12 10  1  0  0  0  0
 14 10  1  0  0  0  0
 15 14  2  0  0  0  0
 15  6  1  0  0  0  0
 16 14  1  0  0  0  0
 17  1  2  0  0  0  0
 17 15  1  0  0  0  0
 18 19  1  0  0  0  0
 19 20  1  0  0  0  0
 20 21  1  0  0  0  0
 22 23  2  0  0  0  0
 23 25  1  0  0  0  0
 23 21  1  0  0  0  0
 24 28  1  0  0  0  0
 24 25  2  0  0  0  0
 25 27  1  0  0  0  0
 26 31  1  0  0  0  0
 27 26  2  0  0  0  0
 28 29  2  0  0  0  0
 29 26  1  0  0  0  0
 30 31  1  0  0  0  0
 32  1  1  0  0  0  0
 32 36  1  0  0  0  0
 33 34  1  0  0  0  0
 34 32  1  0  0  0  0
 36 35  1  0  0  0  0
 38 37  1  0  0  0  0
 39 41  2  0  0  0  0
 39 44  1  0  0  0  0
 40 42  1  0  0  0  0
 40 38  1  0  0  0  0
 41 43  1  0  0  0  0
 43 42  2  0  0  0  0
 44 40  2  0  0  0  0
M  END
>  <MODEL>
8

>  <REMARK>
 VINA RESULT:      -5.7      3.351      6.775
  Name = 
  12 active torsions:
  status: ('A' for Active; 'I' for Inactive)
    1  A    between atoms: C_1  and  C_25
    2  A    between atoms: C_5  and  C_44
    3  A    between atoms: N_6  and  C_32
    4  A    between atoms: C_7  and  C_41
    5  A    between atoms: C_9  and  O_17
    6  A    between atoms: C_14  and  O_43
    7  A    between atoms: C_15  and  O_17
    8  A    between atoms: C_15  and  C_32
    9  A    between atoms: O_21  and  C_25
   10  A    between atoms: C_23  and  N_27
   11  A    between atoms: C_25  and  O_31
   12  A    between atoms: N_27  and  C_44
                            x       y       z     vdW  Elec       q    Type
                         _______ _______ _______ _____ _____    ______ ____

>  <TORSDO>
F 12

$$$$
=
 OpenBabel11042417043D

 44 48  0  0  1  0  0  0  0  0999 V2000
  186.6180  177.2780  142.9100 C   0  0  0  0  0  0  0  0  0  0  0  0
  190.6560  172.9910  142.1800 C   0  0  2  0  0  3  0  0  0  0  0  0
  192.3440  175.6220  144.3200 C   0  0  1  0  0  3  0  0  0  0  0  0
  192.0760  178.0750  143.9470 C   0  0  0  0  0  3  0  0  0  0  0  0
  192.8530  177.0310  144.2550 C   0  0  0  0  0  3  0  0  0  0  0  0
  188.5880  174.3080  142.5910 N   0  0  0  0  0  2  0  0  0  0  0  0
  189.5010  173.8090  141.5620 C   0  0  0  0  0  2  0  0  0  0  0  0
  191.8160  175.1970  142.9710 C   0  0  1  0  0  3  0  0  0  0  0  0
  191.9140  173.7980  142.5080 C   0  0  0  0  0  0  0  0  0  0  0  0
  190.1630  176.9750  142.9160 C   0  0  0  0  0  0  0  0  0  0  0  0
  190.6890  177.9530  143.5960 N   0  0  0  0  0  0  0  0  0  0  0  0
  190.9280  175.9110  142.3680 N   0  0  0  0  0  2  0  0  0  0  0  0
  193.0410  173.2300  142.5070 O   0  0  0  0  0  0  0  0  0  0  0  0
  188.7090  176.8370  142.7820 C   0  0  0  0  0  0  0  0  0  0  0  0
  188.0270  175.6360  142.5930 C   0  0  0  0  0  0  0  0  0  0  0  0
  187.8420  177.8450  142.9700 N   0  0  0  0  0  2  0  0  0  0  0  0
  186.6800  175.9040  142.7080 C   0  0  0  0  0  3  0  0  0  0  0  0
  193.3750  174.7840  144.7530 O   0  0  0  0  0  0  0  0  0  0  0  0
  193.5050  175.0440  146.1200 C   0  0  0  0  0  2  0  0  0  0  0  0
  192.3600  174.4040  146.8880 C   0  0  0  0  0  2  0  0  0  0  0  0
  191.2950  175.3710  147.1160 N   0  0  0  0  0  2  0  0  0  0  0  0
  189.6920  174.1990  145.8870 O   0  0  0  0  0  0  0  0  0  0  0  0
  189.9860  175.2280  146.5550 C   0  0  0  0  0  0  0  0  0  0  0  0
  189.3390  177.5210  147.2920 C   0  0  0  0  0  3  0  0  0  0  0  0
  188.9750  176.2760  146.7640 C   0  0  0  0  0  0  0  0  0  0  0  0
  186.7020  176.9810  146.6160 C   0  0  0  0  0  0  0  0  0  0  0  0
  187.6720  176.0390  146.4410 N   0  0  0  0  0  0  0  0  0  0  0  0
  188.3630  178.5000  147.4790 C   0  0  0  0  0  3  0  0  0  0  0  0
  187.0360  178.2320  147.1400 C   0  0  0  0  0  3  0  0  0  0  0  0
  184.3040  177.5320  146.7250 C   0  0  0  0  0  1  0  0  0  0  0  0
  185.3740  176.7140  146.2790 O   0  0  0  0  0  0  0  0  0  0  0  0
  185.3510  178.0740  143.0600 C   0  0  0  0  0  3  0  0  0  0  0  0
  185.0110  179.8370  144.3580 C   0  0  0  0  0  1  0  0  0  0  0  0
  185.5830  179.4550  143.1430 O   0  0  0  0  0  0  0  0  0  0  0  0
  184.8050  178.2890  140.8460 C   0  0  0  0  0  1  0  0  0  0  0  0
  184.3860  177.7580  142.0760 O   0  0  0  0  0  0  0  0  0  0  0  0
  190.9900  171.8290  141.2560 C   0  0  0  0  0  2  0  0  0  0  0  0
  191.2980  172.3210  139.9220 N   0  0  0  0  0  2  0  0  0  0  0  0
  191.6360  170.8980  136.4770 C   0  0  0  0  0  3  0  0  0  0  0  0
  191.0540  171.5570  138.7410 C   0  0  0  0  0  0  0  0  0  0  0  0
  190.5330  170.0400  136.4430 C   0  0  0  0  0  3  0  0  0  0  0  0
  189.9510  170.6950  138.7000 C   0  0  0  0  0  3  0  0  0  0  0  0
  189.6920  169.9370  137.5540 C   0  0  0  0  0  3  0  0  0  0  0  0
  191.8960  171.6550  137.6230 C   0  0  0  0  0  3  0  0  0  0  0  0
  1 16  1  0  0  0  0
  1 32  1  0  0  0  0
  2 37  1  6  0  0  0
  2  9  1  0  0  0  0
  3 18  1  6  0  0  0
  4  5  2  0  0  0  0
  5  3  1  0  0  0  0
  6 15  1  0  0  0  0
  7  2  1  0  0  0  0
  7  6  1  0  0  0  0
  8 12  1  1  0  0  0
  8  3  1  0  0  0  0
  9  8  1  0  0  0  0
 10 11  2  0  0  0  0
 11  4  1  0  0  0  0
 12 10  1  0  0  0  0
 13  9  2  0  0  0  0
 14 10  1  0  0  0  0
 14 16  1  0  0  0  0
 15 17  1  0  0  0  0
 15 14  2  0  0  0  0
 17  1  2  0  0  0  0
 18 19  1  0  0  0  0
 19 20  1  0  0  0  0
 20 21  1  0  0  0  0
 22 23  2  0  0  0  0
 23 25  1  0  0  0  0
 23 21  1  0  0  0  0
 24 28  1  0  0  0  0
 25 24  2  0  0  0  0
 26 29  1  0  0  0  0
 27 26  2  0  0  0  0
 27 25  1  0  0  0  0
 29 28  2  0  0  0  0
 31 26  1  0  0  0  0
 31 30  1  0  0  0  0
 32 34  1  0  0  0  0
 34 33  1  0  0  0  0
 35 36  1  0  0  0  0
 36 32  1  0  0  0  0
 38 37  1  0  0  0  0
 39 44  1  0  0  0  0
 40 38  1  0  0  0  0
 41 39  2  0  0  0  0
 41 43  1  0  0  0  0
 42 40  1  0  0  0  0
 43 42  2  0  0  0  0
 44 40  2  0  0  0  0
M  END
>  <MODEL>
9

>  <REMARK>
 VINA RESULT:      -5.7      2.901      6.638
  Name = 
  12 active torsions:
  status: ('A' for Active; 'I' for Inactive)
    1  A    between atoms: C_1  and  C_25
    2  A    between atoms: C_5  and  C_44
    3  A    between atoms: N_6  and  C_32
    4  A    between atoms: C_7  and  C_41
    5  A    between atoms: C_9  and  O_17
    6  A    between atoms: C_14  and  O_43
    7  A    between atoms: C_15  and  O_17
    8  A    between atoms: C_15  and  C_32
    9  A    between atoms: O_21  and  C_25
   10  A    between atoms: C_23  and  N_27
   11  A    between atoms: C_25  and  O_31
   12  A    between atoms: N_27  and  C_44
                            x       y       z     vdW  Elec       q    Type
                         _______ _______ _______ _____ _____    ______ ____

>  <TORSDO>
F 12

$$$$
