=
 OpenBabel11042415053D

 53 60  0  0  1  0  0  0  0  0999 V2000
  191.9910  175.5890  146.8650 C   0  0  0  0  0  0  0  0  0  0  0  0
  194.5430  174.7000  145.5520 C   0  0  0  0  0  0  0  0  0  0  0  0
  193.1160  176.3680  146.8640 C   0  0  0  0  0  0  0  0  0  0  0  0
  193.3540  173.8850  145.6580 C   0  0  0  0  0  0  0  0  0  0  0  0
  194.3380  177.1010  146.8720 C   0  0  0  0  0  2  0  0  0  0  0  0
  192.2060  174.3400  146.3050 N   0  0  0  0  0  0  0  0  0  0  0  0
  194.3190  175.8870  146.2170 C   0  0  0  0  0  0  0  0  0  0  0  0
  190.4510  177.4290  147.1850 N   0  0  0  0  0  0  0  0  0  0  0  0
  188.5110  176.4960  146.9300 N   0  0  0  0  0  0  0  0  0  0  0  0
  189.4430  175.4700  146.8030 C   0  0  0  0  0  3  0  0  0  0  0  0
  190.6520  176.1010  146.9610 C   0  0  0  0  0  0  0  0  0  0  0  0
  189.1420  177.5890  147.1390 N   0  0  0  0  0  0  0  0  0  0  0  0
  187.3180  176.4420  146.2270 N   0  0  0  0  0  2  0  0  0  0  0  0
  185.9020  177.3280  146.6560 S   0  0  0  0  0  0  0  0  0  0  0  0
  184.6400  176.5360  146.3920 O   0  0  0  0  0  0  0  0  0  0  0  0
  186.0120  177.7470  148.0990 O   0  0  0  0  0  0  0  0  0  0  0  0
  186.0110  178.2310  143.6380 N   0  0  0  0  0  0  0  0  0  0  0  0
  185.9480  178.7740  145.5560 C   0  0  2  0  0  3  0  0  0  0  0  0
  183.7060  178.8880  144.4320 O   0  0  0  0  0  0  0  0  0  0  0  0
  184.8960  178.6340  144.5210 C   0  0  0  0  0  0  0  0  0  0  0  0
  186.8900  178.6810  144.5710 O   0  0  0  0  0  0  0  0  0  0  0  0
  185.7170  177.8610  141.0440 S   0  0  0  0  0  0  0  0  0  0  0  0
  186.0390  177.3050  142.5420 C   0  0  0  0  0  0  0  0  0  0  0  0
  186.5610  175.9230  142.7440 C   0  0  0  0  0  2  0  0  0  0  0  0
  187.7610  175.6210  141.8430 C   0  0  0  0  0  2  0  0  0  0  0  0
  189.5670  174.1520  141.5660 C   0  0  0  0  0  1  0  0  0  0  0  0
  189.7510  175.8900  143.0830 C   0  0  0  0  0  1  0  0  0  0  0  0
  188.8160  174.9020  142.5590 N   0  0  0  0  0  0  0  0  0  0  0  0
  193.1280  172.7740  144.7330 C   0  0  2  0  0  3  0  0  0  0  0  0
  192.6320  173.3800  143.5030 C   0  0  0  0  0  2  0  0  0  0  0  0
  191.7390  172.5900  144.3670 N   0  0  0  0  0  2  0  0  0  0  0  0
  195.8390  174.4980  144.7710 C   0  0  0  0  0  2  0  0  0  0  0  0
  196.0970  175.5670  143.7020 C   0  0  0  0  0  2  0  0  0  0  0  0
  196.3230  175.0950  142.2620 C   0  0  2  0  0  3  0  0  0  0  0  0
  194.9620  174.3140  140.3190 C   0  0  0  0  0  2  0  0  0  0  0  0
  197.6370  175.5190  141.6210 C   0  0  0  0  0  2  0  0  0  0  0  0
  197.3110  174.7350  139.2220 C   0  0  0  0  0  2  0  0  0  0  0  0
  197.9130  174.4040  140.5960 C   0  0  0  0  0  2  0  0  0  0  0  0
  195.8010  174.4320  139.0660 C   0  0  2  0  0  3  0  0  0  0  0  0
  195.0820  175.3870  141.3950 C   0  0  0  0  0  2  0  0  0  0  0  0
  196.2850  176.7950  134.5130 N   0  0  0  0  0  1  0  0  0  0  0  0
  193.1380  175.7850  136.4120 C   0  0  0  0  0  2  0  0  0  0  0  0
  194.1760  176.6430  135.6340 C   0  0  0  0  0  2  0  0  0  0  0  0
  195.1470  175.1110  137.8220 C   0  0  2  0  0  3  0  0  0  0  0  0
  193.7220  174.7150  137.3470 C   0  0  2  0  0  3  0  0  0  0  0  0
  195.4580  175.9220  135.3610 C   0  0  2  0  0  3  0  0  0  0  0  0
  196.1640  175.4720  136.7070 C   0  0  0  0  0  2  0  0  0  0  0  0
  191.4920  171.7210  136.2310 S   0  0  0  0  0  0  0  0  0  0  0  0
  192.7070  172.4640  137.2890 C   0  0  0  0  0  0  0  0  0  0  0  0
  190.5620  171.3170  137.7280 C   0  0  0  0  0  2  0  0  0  0  0  0
  193.6370  173.3880  136.7370 N   0  0  0  0  0  2  0  0  0  0  0  0
  191.5200  171.3440  138.9130 C   0  0  0  0  0  2  0  0  0  0  0  0
  192.6050  172.2550  138.5640 N   0  0  0  0  0  0  0  0  0  0  0  0
  1 11  1  0  0  0  0
  2  4  2  0  0  0  0
  2  7  1  0  0  0  0
  3  1  1  0  0  0  0
  3  5  1  0  0  0  0
  4  6  1  0  0  0  0
  6  1  2  0  0  0  0
  7  3  2  0  0  0  0
  7  5  1  0  0  0  0
  9 12  1  0  0  0  0
 10  9  1  0  0  0  0
 10 11  2  0  0  0  0
 11  8  1  0  0  0  0
 12  8  2  0  0  0  0
 13 14  1  0  0  0  0
 13  9  1  0  0  0  0
 14 16  2  0  0  0  0
 15 14  2  0  0  0  0
 17 20  1  0  0  0  0
 17 21  1  0  0  0  0
 18 14  1  1  0  0  0
 19 20  2  0  0  0  0
 20 18  1  0  0  0  0
 21 18  1  0  0  0  0
 22 23  2  0  0  0  0
 23 24  1  0  0  0  0
 23 17  1  0  0  0  0
 25 28  1  0  0  0  0
 25 24  1  0  0  0  0
 26 28  1  0  0  0  0
 28 27  1  0  0  0  0
 29  4  1  1  0  0  0
 30 31  1  0  0  0  0
 30 29  1  0  0  0  0
 31 29  1  0  0  0  0
 32  2  1  0  0  0  0
 33 32  1  0  0  0  0
 34 33  1  1  0  0  0
 35 40  1  0  0  0  0
 36 34  1  0  0  0  0
 37 38  1  0  0  0  0
 38 36  1  0  0  0  0
 39 37  1  1  0  0  0
 39 35  1  0  0  0  0
 40 34  1  0  0  0  0
 42 45  1  0  0  0  0
 43 42  1  0  0  0  0
 44 47  1  6  0  0  0
 44 39  1  0  0  0  0
 45 51  1  6  0  0  0
 45 44  1  0  0  0  0
 46 41  1  1  0  0  0
 46 43  1  0  0  0  0
 46 47  1  0  0  0  0
 48 49  1  0  0  0  0
 48 50  1  0  0  0  0
 49 53  2  0  0  0  0
 50 52  1  0  0  0  0
 51 49  1  0  0  0  0
 53 52  1  0  0  0  0
M  END
>  <MODEL>
1

>  <REMARK>
 VINA RESULT:      -7.6      0.000      0.000
  Name = 
  14 active torsions:
  status: ('A' for Active; 'I' for Inactive)
    1  A    between atoms: C_3  and  C_35
    2  A    between atoms: C_4  and  C_24
    3  A    between atoms: C_5  and  C_24
    4  A    between atoms: C_5  and  C_26
    5  A    between atoms: N_6  and  N_10
    6  A    between atoms: S_9  and  N_10
    7  A    between atoms: S_9  and  C_31
    8  A    between atoms: C_13  and  C_28
    9  A    between atoms: C_17  and  C_51
   10  A    between atoms: N_19  and  C_30
   11  A    between atoms: N_27  and  C_33
   12  A    between atoms: C_33  and  C_40
   13  A    between atoms: C_40  and  C_47
   14  A    between atoms: N_46  and  C_47
                            x       y       z     vdW  Elec       q    Type
                         _______ _______ _______ _____ _____    ______ ____

>  <TORSDO>
F 14

$$$$
=
 OpenBabel11042415053D

 53 60  0  0  1  0  0  0  0  0999 V2000
  190.3190  173.0380  139.3140 C   0  0  0  0  0  0  0  0  0  0  0  0
  192.8380  173.2100  137.6860 C   0  0  0  0  0  0  0  0  0  0  0  0
  191.4720  172.4060  139.6930 C   0  0  0  0  0  0  0  0  0  0  0  0
  191.5710  173.7850  137.2920 C   0  0  0  0  0  0  0  0  0  0  0  0
  192.6900  171.7300  139.9960 C   0  0  0  0  0  2  0  0  0  0  0  0
  190.4270  173.6490  138.0760 N   0  0  0  0  0  0  0  0  0  0  0  0
  192.6560  172.5230  138.8670 C   0  0  0  0  0  0  0  0  0  0  0  0
  188.8130  172.5890  141.1560 N   0  0  0  0  0  0  0  0  0  0  0  0
  187.8430  174.5010  141.4750 N   0  0  0  0  0  0  0  0  0  0  0  0
  188.6930  174.6860  140.3880 C   0  0  0  0  0  3  0  0  0  0  0  0
  189.2920  173.4610  140.2260 C   0  0  0  0  0  0  0  0  0  0  0  0
  187.9590  173.2920  141.8750 N   0  0  0  0  0  0  0  0  0  0  0  0
  187.5790  175.5540  142.3370 N   0  0  0  0  0  2  0  0  0  0  0  0
  187.0300  177.1070  141.8260 S   0  0  0  0  0  0  0  0  0  0  0  0
  188.0500  178.1880  142.1100 O   0  0  0  0  0  0  0  0  0  0  0  0
  186.6780  177.0390  140.3620 O   0  0  0  0  0  0  0  0  0  0  0  0
  185.9790  177.3810  144.7850 N   0  0  0  0  0  0  0  0  0  0  0  0
  185.5480  177.3950  142.8360 C   0  0  2  0  0  3  0  0  0  0  0  0
  185.7810  179.7000  143.8050 O   0  0  0  0  0  0  0  0  0  0  0  0
  185.8220  178.4810  143.8080 C   0  0  0  0  0  0  0  0  0  0  0  0
  185.4250  176.5260  143.8850 O   0  0  0  0  0  0  0  0  0  0  0  0
  186.3450  177.9580  147.3310 S   0  0  0  0  0  0  0  0  0  0  0  0
  186.8320  177.2740  145.9330 C   0  0  0  0  0  0  0  0  0  0  0  0
  188.0220  176.3770  145.9000 C   0  0  0  0  0  2  0  0  0  0  0  0
  189.3330  177.1530  146.0470 C   0  0  0  0  0  2  0  0  0  0  0  0
  191.3870  176.4460  146.9310 C   0  0  0  0  0  1  0  0  0  0  0  0
  190.1640  178.0470  148.0670 C   0  0  0  0  0  1  0  0  0  0  0  0
  190.0300  176.8210  147.2910 N   0  0  0  0  0  0  0  0  0  0  0  0
  191.5200  174.8890  136.3330 C   0  0  2  0  0  3  0  0  0  0  0  0
  190.2230  174.7810  135.6770 C   0  0  0  0  0  2  0  0  0  0  0  0
  191.4630  174.4610  134.9500 N   0  0  0  0  0  2  0  0  0  0  0  0
  194.2390  173.3560  137.0970 C   0  0  0  0  0  2  0  0  0  0  0  0
  194.9720  174.6300  137.5370 C   0  0  0  0  0  2  0  0  0  0  0  0
  195.7240  174.5950  138.8700 C   0  0  2  0  0  3  0  0  0  0  0  0
  195.9460  176.0010  140.9230 C   0  0  0  0  0  2  0  0  0  0  0  0
  196.2030  173.2270  139.3300 C   0  0  0  0  0  2  0  0  0  0  0  0
  197.0710  173.7460  141.6660 C   0  0  0  0  0  2  0  0  0  0  0  0
  197.4400  173.5470  140.1880 C   0  0  0  0  0  2  0  0  0  0  0  0
  196.5190  175.1450  142.0310 C   0  0  2  0  0  3  0  0  0  0  0  0
  194.9510  175.3820  139.9480 C   0  0  0  0  0  2  0  0  0  0  0  0
  194.9510  177.8530  146.1250 N   0  0  0  0  0  1  0  0  0  0  0  0
  194.4750  174.1580  145.3210 C   0  0  0  0  0  2  0  0  0  0  0  0
  194.8440  175.4630  146.0820 C   0  0  0  0  0  2  0  0  0  0  0  0
  195.8130  175.2010  143.4220 C   0  0  2  0  0  3  0  0  0  0  0  0
  194.7010  174.1830  143.8000 C   0  0  2  0  0  3  0  0  0  0  0  0
  194.7020  176.6970  145.2490 C   0  0  2  0  0  3  0  0  0  0  0  0
  195.6360  176.6420  143.9700 C   0  0  0  0  0  2  0  0  0  0  0  0
  190.8060  174.1520  143.9020 S   0  0  0  0  0  0  0  0  0  0  0  0
  192.3680  173.4900  143.3830 C   0  0  0  0  0  0  0  0  0  0  0  0
  190.4230  172.5070  144.5490 C   0  0  0  0  0  2  0  0  0  0  0  0
  193.4380  174.3800  143.0890 N   0  0  0  0  0  2  0  0  0  0  0  0
  191.3220  171.4930  143.8520 C   0  0  0  0  0  2  0  0  0  0  0  0
  192.5270  172.2040  143.4380 N   0  0  0  0  0  0  0  0  0  0  0  0
  1  3  1  0  0  0  0
  1 11  1  0  0  0  0
  2  7  1  0  0  0  0
  3  5  1  0  0  0  0
  4  2  2  0  0  0  0
  4  6  1  0  0  0  0
  6  1  2  0  0  0  0
  7  3  2  0  0  0  0
  7  5  1  0  0  0  0
  8 12  2  0  0  0  0
  9 12  1  0  0  0  0
  9 13  1  0  0  0  0
 10  9  1  0  0  0  0
 11 10  2  0  0  0  0
 11  8  1  0  0  0  0
 14 15  2  0  0  0  0
 14 13  1  0  0  0  0
 16 14  2  0  0  0  0
 17 23  1  0  0  0  0
 18 14  1  6  0  0  0
 18 20  1  0  0  0  0
 18 21  1  0  0  0  0
 19 20  2  0  0  0  0
 20 17  1  0  0  0  0
 21 17  1  0  0  0  0
 23 22  2  0  0  0  0
 24 23  1  0  0  0  0
 24 25  1  0  0  0  0
 25 28  1  0  0  0  0
 26 28  1  0  0  0  0
 28 27  1  0  0  0  0
 29  4  1  1  0  0  0
 30 29  1  0  0  0  0
 31 30  1  0  0  0  0
 31 29  1  0  0  0  0
 32 33  1  0  0  0  0
 32  2  1  0  0  0  0
 34 33  1  6  0  0  0
 34 36  1  0  0  0  0
 34 40  1  0  0  0  0
 36 38  1  0  0  0  0
 37 39  1  0  0  0  0
 38 37  1  0  0  0  0
 39 35  1  6  0  0  0
 39 44  1  0  0  0  0
 40 35  1  0  0  0  0
 42 43  1  0  0  0  0
 44 45  1  0  0  0  0
 44 47  1  6  0  0  0
 45 51  1  6  0  0  0
 45 42  1  0  0  0  0
 46 43  1  0  0  0  0
 46 41  1  1  0  0  0
 47 46  1  0  0  0  0
 48 50  1  0  0  0  0
 49 53  2  0  0  0  0
 49 48  1  0  0  0  0
 51 49  1  0  0  0  0
 52 50  1  0  0  0  0
 53 52  1  0  0  0  0
M  END
>  <MODEL>
2

>  <REMARK>
 VINA RESULT:      -7.1      2.205      6.543
  Name = 
  14 active torsions:
  status: ('A' for Active; 'I' for Inactive)
    1  A    between atoms: C_3  and  C_35
    2  A    between atoms: C_4  and  C_24
    3  A    between atoms: C_5  and  C_24
    4  A    between atoms: C_5  and  C_26
    5  A    between atoms: N_6  and  N_10
    6  A    between atoms: S_9  and  N_10
    7  A    between atoms: S_9  and  C_31
    8  A    between atoms: C_13  and  C_28
    9  A    between atoms: C_17  and  C_51
   10  A    between atoms: N_19  and  C_30
   11  A    between atoms: N_27  and  C_33
   12  A    between atoms: C_33  and  C_40
   13  A    between atoms: C_40  and  C_47
   14  A    between atoms: N_46  and  C_47
                            x       y       z     vdW  Elec       q    Type
                         _______ _______ _______ _____ _____    ______ ____

>  <TORSDO>
F 14

$$$$
=
 OpenBabel11042415053D

 53 60  0  0  1  0  0  0  0  0999 V2000
  196.3880  173.2880  143.3000 C   0  0  0  0  0  0  0  0  0  0  0  0
  195.4470  175.8590  144.5380 C   0  0  0  0  0  0  0  0  0  0  0  0
  196.4040  173.4900  144.6540 C   0  0  0  0  0  0  0  0  0  0  0  0
  195.5330  175.6220  143.1140 C   0  0  0  0  0  0  0  0  0  0  0  0
  196.4440  173.7900  146.0460 C   0  0  0  0  0  2  0  0  0  0  0  0
  196.0050  174.4180  142.5960 N   0  0  0  0  0  0  0  0  0  0  0  0
  195.9400  174.7510  145.1940 C   0  0  0  0  0  0  0  0  0  0  0  0
  196.0120  170.9000  143.4330 N   0  0  0  0  0  0  0  0  0  0  0  0
  196.1180  170.2700  141.3620 N   0  0  0  0  0  0  0  0  0  0  0  0
  196.3760  171.6380  141.3540 C   0  0  0  0  0  3  0  0  0  0  0  0
  196.2900  171.9980  142.6760 C   0  0  0  0  0  0  0  0  0  0  0  0
  195.9110  169.9070  142.5710 N   0  0  0  0  0  0  0  0  0  0  0  0
  195.4850  169.6770  140.2820 N   0  0  0  0  0  2  0  0  0  0  0  0
  193.7960  169.8110  139.9580 S   0  0  0  0  0  0  0  0  0  0  0  0
  193.3470  168.8380  138.8890 O   0  0  0  0  0  0  0  0  0  0  0  0
  193.0390  169.6180  141.2470 O   0  0  0  0  0  0  0  0  0  0  0  0
  191.8420  171.7740  138.4530 N   0  0  0  0  0  0  0  0  0  0  0  0
  193.6080  171.5110  139.3440 C   0  0  2  0  0  3  0  0  0  0  0  0
  191.9160  172.6230  140.8290 O   0  0  0  0  0  0  0  0  0  0  0  0
  192.3180  172.0630  139.8230 C   0  0  0  0  0  0  0  0  0  0  0  0
  193.1300  171.5790  138.0650 O   0  0  0  0  0  0  0  0  0  0  0  0
  189.9720  169.9160  138.4120 S   0  0  0  0  0  0  0  0  0  0  0  0
  190.5440  171.3810  137.9840 C   0  0  0  0  0  0  0  0  0  0  0  0
  189.6620  172.3740  137.3070 C   0  0  0  0  0  2  0  0  0  0  0  0
  190.1030  173.8150  137.5740 C   0  0  0  0  0  2  0  0  0  0  0  0
  191.7560  174.4810  136.0500 C   0  0  0  0  0  1  0  0  0  0  0  0
  189.6850  173.8260  135.2520 C   0  0  0  0  0  1  0  0  0  0  0  0
  190.3330  174.5570  136.3340 N   0  0  0  0  0  0  0  0  0  0  0  0
  194.7290  176.4100  142.1790 C   0  0  2  0  0  3  0  0  0  0  0  0
  193.7130  175.4990  141.6670 C   0  0  0  0  0  2  0  0  0  0  0  0
  194.8160  175.9580  140.8060 N   0  0  0  0  0  2  0  0  0  0  0  0
  194.8260  177.0030  145.3360 C   0  0  0  0  0  2  0  0  0  0  0  0
  193.9370  176.5430  146.4980 C   0  0  0  0  0  2  0  0  0  0  0  0
  192.4480  176.3260  146.2130 C   0  0  2  0  0  3  0  0  0  0  0  0
  190.6990  177.2000  144.6580 C   0  0  0  0  0  2  0  0  0  0  0  0
  191.8650  175.0020  146.6860 C   0  0  0  0  0  2  0  0  0  0  0  0
  189.5250  175.0870  145.6880 C   0  0  0  0  0  2  0  0  0  0  0  0
  190.3830  175.3310  146.9390 C   0  0  0  0  0  2  0  0  0  0  0  0
  189.5440  176.2220  144.6360 C   0  0  2  0  0  3  0  0  0  0  0  0
  192.1230  176.6620  144.7430 C   0  0  0  0  0  2  0  0  0  0  0  0
  188.6130  172.5580  141.1350 N   0  0  0  0  0  1  0  0  0  0  0  0
  187.7560  176.2710  141.0630 C   0  0  0  0  0  2  0  0  0  0  0  0
  188.3040  174.8790  140.6400 C   0  0  0  0  0  2  0  0  0  0  0  0
  188.9840  175.7990  143.2420 C   0  0  2  0  0  3  0  0  0  0  0  0
  187.8340  176.5930  142.5640 C   0  0  2  0  0  3  0  0  0  0  0  0
  188.1840  173.8430  141.7120 C   0  0  2  0  0  3  0  0  0  0  0  0
  188.9830  174.2640  143.0140 C   0  0  0  0  0  2  0  0  0  0  0  0
  184.3480  178.1080  143.4200 S   0  0  0  0  0  0  0  0  0  0  0  0
  185.9690  177.5470  143.8720 C   0  0  0  0  0  0  0  0  0  0  0  0
  184.7630  179.6770  144.2180 C   0  0  0  0  0  2  0  0  0  0  0  0
  186.5280  176.4240  143.2020 N   0  0  0  0  0  2  0  0  0  0  0  0
  185.9120  179.4350  145.1890 C   0  0  0  0  0  2  0  0  0  0  0  0
  186.6530  178.2790  144.6950 N   0  0  0  0  0  0  0  0  0  0  0  0
  1  3  1  0  0  0  0
  2  7  1  0  0  0  0
  2 32  1  0  0  0  0
  3  7  2  0  0  0  0
  3  5  1  0  0  0  0
  4  2  2  0  0  0  0
  6  4  1  0  0  0  0
  6  1  2  0  0  0  0
  7  5  1  0  0  0  0
  9 12  1  0  0  0  0
 10  9  1  0  0  0  0
 10 11  2  0  0  0  0
 11  1  1  0  0  0  0
 11  8  1  0  0  0  0
 12  8  2  0  0  0  0
 13  9  1  0  0  0  0
 14 13  1  0  0  0  0
 14 16  2  0  0  0  0
 15 14  2  0  0  0  0
 17 20  1  0  0  0  0
 18 20  1  0  0  0  0
 18 14  1  1  0  0  0
 20 19  2  0  0  0  0
 21 17  1  0  0  0  0
 21 18  1  0  0  0  0
 23 22  2  0  0  0  0
 23 17  1  0  0  0  0
 24 25  1  0  0  0  0
 24 23  1  0  0  0  0
 26 28  1  0  0  0  0
 27 28  1  0  0  0  0
 28 25  1  0  0  0  0
 29  4  1  1  0  0  0
 30 29  1  0  0  0  0
 31 30  1  0  0  0  0
 31 29  1  0  0  0  0
 32 33  1  0  0  0  0
 34 33  1  6  0  0  0
 34 36  1  0  0  0  0
 35 40  1  0  0  0  0
 36 38  1  0  0  0  0
 37 38  1  0  0  0  0
 39 35  1  6  0  0  0
 39 37  1  0  0  0  0
 40 34  1  0  0  0  0
 42 45  1  0  0  0  0
 43 42  1  0  0  0  0
 43 46  1  0  0  0  0
 44 47  1  1  0  0  0
 44 39  1  0  0  0  0
 45 51  1  1  0  0  0
 45 44  1  0  0  0  0
 46 41  1  6  0  0  0
 46 47  1  0  0  0  0
 48 49  1  0  0  0  0
 48 50  1  0  0  0  0
 49 53  2  0  0  0  0
 50 52  1  0  0  0  0
 51 49  1  0  0  0  0
 53 52  1  0  0  0  0
M  END
>  <MODEL>
3

>  <REMARK>
 VINA RESULT:      -7.1      3.922      8.827
  Name = 
  14 active torsions:
  status: ('A' for Active; 'I' for Inactive)
    1  A    between atoms: C_3  and  C_35
    2  A    between atoms: C_4  and  C_24
    3  A    between atoms: C_5  and  C_24
    4  A    between atoms: C_5  and  C_26
    5  A    between atoms: N_6  and  N_10
    6  A    between atoms: S_9  and  N_10
    7  A    between atoms: S_9  and  C_31
    8  A    between atoms: C_13  and  C_28
    9  A    between atoms: C_17  and  C_51
   10  A    between atoms: N_19  and  C_30
   11  A    between atoms: N_27  and  C_33
   12  A    between atoms: C_33  and  C_40
   13  A    between atoms: C_40  and  C_47
   14  A    between atoms: N_46  and  C_47
                            x       y       z     vdW  Elec       q    Type
                         _______ _______ _______ _____ _____    ______ ____

>  <TORSDO>
F 14

$$$$
=
 OpenBabel11042415053D

 53 60  0  0  1  0  0  0  0  0999 V2000
  190.7750  172.7960  139.5930 C   0  0  0  0  0  0  0  0  0  0  0  0
  193.2420  173.2740  137.9470 C   0  0  0  0  0  0  0  0  0  0  0  0
  192.0160  172.3980  140.0130 C   0  0  0  0  0  0  0  0  0  0  0  0
  191.8990  173.5940  137.5170 C   0  0  0  0  0  0  0  0  0  0  0  0
  193.3280  171.9640  140.3610 C   0  0  0  0  0  2  0  0  0  0  0  0
  190.7880  173.3230  138.3130 N   0  0  0  0  0  0  0  0  0  0  0  0
  193.1700  172.6540  139.1760 C   0  0  0  0  0  0  0  0  0  0  0  0
  189.3720  172.2490  141.4890 N   0  0  0  0  0  0  0  0  0  0  0  0
  188.0600  173.9680  141.6410 N   0  0  0  0  0  0  0  0  0  0  0  0
  188.8650  174.2050  140.5310 C   0  0  0  0  0  3  0  0  0  0  0  0
  189.6830  173.1040  140.4750 C   0  0  0  0  0  0  0  0  0  0  0  0
  188.3980  172.8440  142.1510 N   0  0  0  0  0  0  0  0  0  0  0  0
  187.6000  175.0290  142.4040 N   0  0  0  0  0  2  0  0  0  0  0  0
  187.2040  176.5810  141.7640 S   0  0  0  0  0  0  0  0  0  0  0  0
  187.1910  176.5800  140.2510 O   0  0  0  0  0  0  0  0  0  0  0  0
  185.8800  177.0180  142.3360 O   0  0  0  0  0  0  0  0  0  0  0  0
  188.7720  177.5150  144.3340 N   0  0  0  0  0  0  0  0  0  0  0  0
  188.5500  177.6490  142.3550 C   0  0  2  0  0  3  0  0  0  0  0  0
  190.4270  176.1240  143.0300 O   0  0  0  0  0  0  0  0  0  0  0  0
  189.4660  176.8530  143.2080 C   0  0  0  0  0  0  0  0  0  0  0  0
  188.2150  178.3890  143.4550 O   0  0  0  0  0  0  0  0  0  0  0  0
  189.5330  177.3450  146.8520 S   0  0  0  0  0  0  0  0  0  0  0  0
  188.4740  177.0330  145.6520 C   0  0  0  0  0  0  0  0  0  0  0  0
  187.1330  176.4560  145.9530 C   0  0  0  0  0  2  0  0  0  0  0  0
  186.5720  176.9620  147.2840 C   0  0  0  0  0  2  0  0  0  0  0  0
  185.6600  179.1220  147.3150 C   0  0  0  0  0  1  0  0  0  0  0  0
  184.9500  177.6210  145.7020 C   0  0  0  0  0  1  0  0  0  0  0  0
  185.3330  177.7210  147.1050 N   0  0  0  0  0  0  0  0  0  0  0  0
  191.6700  174.6000  136.4790 C   0  0  2  0  0  3  0  0  0  0  0  0
  190.2490  174.5250  136.1640 C   0  0  0  0  0  2  0  0  0  0  0  0
  191.2590  174.0450  135.2060 N   0  0  0  0  0  2  0  0  0  0  0  0
  194.6040  173.6130  137.3440 C   0  0  0  0  0  2  0  0  0  0  0  0
  195.1460  174.9860  137.7580 C   0  0  0  0  0  2  0  0  0  0  0  0
  195.9240  175.0780  139.0740 C   0  0  2  0  0  3  0  0  0  0  0  0
  195.8810  176.4270  141.1760 C   0  0  0  0  0  2  0  0  0  0  0  0
  196.7130  173.8380  139.4700 C   0  0  0  0  0  2  0  0  0  0  0  0
  197.5070  174.4610  141.8060 C   0  0  0  0  0  2  0  0  0  0  0  0
  197.8700  174.4020  140.3140 C   0  0  0  0  0  2  0  0  0  0  0  0
  196.6640  175.6860  142.2370 C   0  0  2  0  0  3  0  0  0  0  0  0
  195.0250  175.6310  140.1980 C   0  0  0  0  0  2  0  0  0  0  0  0
  192.7990  176.7270  145.4820 N   0  0  0  0  0  1  0  0  0  0  0  0
  195.8770  174.5370  145.9830 C   0  0  0  0  0  2  0  0  0  0  0  0
  194.7950  175.6290  146.2140 C   0  0  0  0  0  2  0  0  0  0  0  0
  196.0040  175.5320  143.6440 C   0  0  2  0  0  3  0  0  0  0  0  0
  196.2600  174.2730  144.5180 C   0  0  2  0  0  3  0  0  0  0  0  0
  193.8350  175.7640  145.0750 C   0  0  2  0  0  3  0  0  0  0  0  0
  194.5830  176.1480  143.7320 C   0  0  0  0  0  2  0  0  0  0  0  0
  194.8480  170.7260  145.2950 S   0  0  0  0  0  0  0  0  0  0  0  0
  196.0470  171.8140  144.5690 C   0  0  0  0  0  0  0  0  0  0  0  0
  196.2260  169.9060  146.1310 C   0  0  0  0  0  2  0  0  0  0  0  0
  195.6190  173.0550  144.0230 N   0  0  0  0  0  2  0  0  0  0  0  0
  197.5090  170.2280  145.3750 C   0  0  0  0  0  2  0  0  0  0  0  0
  197.3000  171.5050  144.7010 N   0  0  0  0  0  0  0  0  0  0  0  0
  1  3  1  0  0  0  0
  1 11  1  0  0  0  0
  2  7  1  0  0  0  0
  3  5  1  0  0  0  0
  4  2  2  0  0  0  0
  4  6  1  0  0  0  0
  6  1  2  0  0  0  0
  7  3  2  0  0  0  0
  7  5  1  0  0  0  0
  8 12  2  0  0  0  0
  9 12  1  0  0  0  0
  9 13  1  0  0  0  0
 10  9  1  0  0  0  0
 11 10  2  0  0  0  0
 11  8  1  0  0  0  0
 14 16  2  0  0  0  0
 14 13  1  0  0  0  0
 15 14  2  0  0  0  0
 17 23  1  0  0  0  0
 18 14  1  1  0  0  0
 18 20  1  0  0  0  0
 18 21  1  0  0  0  0
 19 20  2  0  0  0  0
 20 17  1  0  0  0  0
 21 17  1  0  0  0  0
 23 24  1  0  0  0  0
 23 22  2  0  0  0  0
 24 25  1  0  0  0  0
 27 28  1  0  0  0  0
 28 25  1  0  0  0  0
 28 26  1  0  0  0  0
 29  4  1  1  0  0  0
 30 29  1  0  0  0  0
 31 30  1  0  0  0  0
 31 29  1  0  0  0  0
 32 33  1  0  0  0  0
 32  2  1  0  0  0  0
 34 33  1  6  0  0  0
 34 36  1  0  0  0  0
 34 40  1  0  0  0  0
 36 38  1  0  0  0  0
 37 39  1  0  0  0  0
 38 37  1  0  0  0  0
 39 35  1  6  0  0  0
 39 44  1  0  0  0  0
 40 35  1  0  0  0  0
 42 43  1  0  0  0  0
 44 47  1  6  0  0  0
 44 45  1  0  0  0  0
 45 51  1  6  0  0  0
 45 42  1  0  0  0  0
 46 41  1  1  0  0  0
 46 43  1  0  0  0  0
 47 46  1  0  0  0  0
 48 50  1  0  0  0  0
 49 53  2  0  0  0  0
 49 48  1  0  0  0  0
 51 49  1  0  0  0  0
 52 50  1  0  0  0  0
 53 52  1  0  0  0  0
M  END
>  <MODEL>
4

>  <REMARK>
 VINA RESULT:      -7.1      2.731      6.984
  Name = 
  14 active torsions:
  status: ('A' for Active; 'I' for Inactive)
    1  A    between atoms: C_3  and  C_35
    2  A    between atoms: C_4  and  C_24
    3  A    between atoms: C_5  and  C_24
    4  A    between atoms: C_5  and  C_26
    5  A    between atoms: N_6  and  N_10
    6  A    between atoms: S_9  and  N_10
    7  A    between atoms: S_9  and  C_31
    8  A    between atoms: C_13  and  C_28
    9  A    between atoms: C_17  and  C_51
   10  A    between atoms: N_19  and  C_30
   11  A    between atoms: N_27  and  C_33
   12  A    between atoms: C_33  and  C_40
   13  A    between atoms: C_40  and  C_47
   14  A    between atoms: N_46  and  C_47
                            x       y       z     vdW  Elec       q    Type
                         _______ _______ _______ _____ _____    ______ ____

>  <TORSDO>
F 14

$$$$
=
 OpenBabel11042415053D

 53 60  0  0  1  0  0  0  0  0999 V2000
  194.9380  174.3500  142.0290 C   0  0  0  0  0  0  0  0  0  0  0  0
  194.4370  174.7390  144.9650 C   0  0  0  0  0  0  0  0  0  0  0  0
  194.0700  175.2990  142.4970 C   0  0  0  0  0  0  0  0  0  0  0  0
  195.2750  173.7000  144.4110 C   0  0  0  0  0  0  0  0  0  0  0  0
  193.1420  176.2270  143.0520 C   0  0  0  0  0  2  0  0  0  0  0  0
  195.4480  173.5490  143.0370 N   0  0  0  0  0  0  0  0  0  0  0  0
  193.8670  175.4400  143.9240 C   0  0  0  0  0  0  0  0  0  0  0  0
  196.3540  173.3730  140.3260 N   0  0  0  0  0  0  0  0  0  0  0  0
  196.4350  174.9180  138.8080 N   0  0  0  0  0  0  0  0  0  0  0  0
  195.6680  175.4450  139.8420 C   0  0  0  0  0  3  0  0  0  0  0  0
  195.6330  174.4370  140.7740 C   0  0  0  0  0  0  0  0  0  0  0  0
  196.7920  173.7340  139.1340 N   0  0  0  0  0  0  0  0  0  0  0  0
  196.1820  175.2900  137.4970 N   0  0  0  0  0  2  0  0  0  0  0  0
  194.9250  174.6170  136.5260 S   0  0  0  0  0  0  0  0  0  0  0  0
  195.0900  174.9720  135.0650 O   0  0  0  0  0  0  0  0  0  0  0  0
  194.8920  173.1260  136.7420 O   0  0  0  0  0  0  0  0  0  0  0  0
  191.7790  174.6290  136.3300 N   0  0  0  0  0  0  0  0  0  0  0  0
  193.4160  175.3980  137.1710 C   0  0  2  0  0  3  0  0  0  0  0  0
  192.2860  173.6840  138.6150 O   0  0  0  0  0  0  0  0  0  0  0  0
  192.4690  174.3450  137.6070 C   0  0  0  0  0  0  0  0  0  0  0  0
  192.5270  175.7550  136.1960 O   0  0  0  0  0  0  0  0  0  0  0  0
  191.8330  172.5170  134.7520 S   0  0  0  0  0  0  0  0  0  0  0  0
  191.0450  173.7580  135.4570 C   0  0  0  0  0  0  0  0  0  0  0  0
  189.5600  173.8620  135.3730 C   0  0  0  0  0  2  0  0  0  0  0  0
  189.0460  175.2120  135.8810 C   0  0  0  0  0  2  0  0  0  0  0  0
  187.8100  174.8550  137.8410 C   0  0  0  0  0  1  0  0  0  0  0  0
  187.0760  176.4340  136.3180 C   0  0  0  0  0  1  0  0  0  0  0  0
  187.6870  175.1150  136.4170 N   0  0  0  0  0  0  0  0  0  0  0  0
  196.3140  173.0690  145.2260 C   0  0  2  0  0  3  0  0  0  0  0  0
  197.5220  173.8540  145.0010 C   0  0  0  0  0  2  0  0  0  0  0  0
  197.3950  172.4930  144.4530 N   0  0  0  0  0  2  0  0  0  0  0  0
  194.2220  175.2040  146.4040 C   0  0  0  0  0  2  0  0  0  0  0  0
  193.3710  176.4740  146.5290 C   0  0  0  0  0  2  0  0  0  0  0  0
  191.8600  176.3050  146.7090 C   0  0  2  0  0  3  0  0  0  0  0  0
  189.7770  177.6290  146.3280 C   0  0  0  0  0  2  0  0  0  0  0  0
  191.3540  174.8720  146.7850 C   0  0  0  0  0  2  0  0  0  0  0  0
  188.8330  175.2170  146.7670 C   0  0  0  0  0  2  0  0  0  0  0  0
  190.0770  174.9850  147.6370 C   0  0  0  0  0  2  0  0  0  0  0  0
  188.5990  176.6790  146.3150 C   0  0  2  0  0  3  0  0  0  0  0  0
  191.0930  177.1850  145.7010 C   0  0  0  0  0  2  0  0  0  0  0  0
  185.4170  179.6110  143.5190 N   0  0  0  0  0  1  0  0  0  0  0  0
  186.2900  175.9210  143.1430 C   0  0  0  0  0  2  0  0  0  0  0  0
  185.4640  177.2300  143.2860 C   0  0  0  0  0  2  0  0  0  0  0  0
  187.5700  176.8220  145.1500 C   0  0  2  0  0  3  0  0  0  0  0  0
  187.6180  175.8790  143.9160 C   0  0  2  0  0  3  0  0  0  0  0  0
  186.3070  178.4400  143.5390 C   0  0  2  0  0  3  0  0  0  0  0  0
  187.1460  178.2890  144.8740 C   0  0  0  0  0  2  0  0  0  0  0  0
  189.9420  174.5380  141.0910 S   0  0  0  0  0  0  0  0  0  0  0  0
  189.6330  175.0320  142.7670 C   0  0  0  0  0  0  0  0  0  0  0  0
  190.5360  172.9650  141.7550 C   0  0  0  0  0  2  0  0  0  0  0  0
  188.7500  176.1180  143.0200 N   0  0  0  0  0  2  0  0  0  0  0  0
  190.9090  173.1700  143.2190 C   0  0  0  0  0  2  0  0  0  0  0  0
  190.1050  174.2830  143.7130 N   0  0  0  0  0  0  0  0  0  0  0  0
  1  3  2  0  0  0  0
  1  6  1  0  0  0  0
  2 32  1  0  0  0  0
  3  5  1  0  0  0  0
  3  7  1  0  0  0  0
  4  2  1  0  0  0  0
  5  7  1  0  0  0  0
  6  4  2  0  0  0  0
  7  2  2  0  0  0  0
  8 11  1  0  0  0  0
  9 12  1  0  0  0  0
  9 10  1  0  0  0  0
 10 11  2  0  0  0  0
 11  1  1  0  0  0  0
 12  8  2  0  0  0  0
 13  9  1  0  0  0  0
 14 16  2  0  0  0  0
 14 13  1  0  0  0  0
 15 14  2  0  0  0  0
 17 20  1  0  0  0  0
 18 14  1  6  0  0  0
 18 20  1  0  0  0  0
 20 19  2  0  0  0  0
 21 17  1  0  0  0  0
 21 18  1  0  0  0  0
 22 23  2  0  0  0  0
 23 17  1  0  0  0  0
 24 23  1  0  0  0  0
 24 25  1  0  0  0  0
 25 28  1  0  0  0  0
 27 28  1  0  0  0  0
 28 26  1  0  0  0  0
 29  4  1  6  0  0  0
 30 29  1  0  0  0  0
 31 30  1  0  0  0  0
 31 29  1  0  0  0  0
 32 33  1  0  0  0  0
 34 33  1  6  0  0  0
 34 36  1  0  0  0  0
 36 38  1  0  0  0  0
 37 38  1  0  0  0  0
 39 35  1  6  0  0  0
 39 37  1  0  0  0  0
 40 35  1  0  0  0  0
 40 34  1  0  0  0  0
 42 43  1  0  0  0  0
 42 45  1  0  0  0  0
 43 46  1  0  0  0  0
 44 47  1  6  0  0  0
 44 39  1  0  0  0  0
 45 51  1  6  0  0  0
 45 44  1  0  0  0  0
 46 41  1  1  0  0  0
 46 47  1  0  0  0  0
 48 50  1  0  0  0  0
 48 49  1  0  0  0  0
 49 51  1  0  0  0  0
 49 53  2  0  0  0  0
 50 52  1  0  0  0  0
 52 53  1  0  0  0  0
M  END
>  <MODEL>
5

>  <REMARK>
 VINA RESULT:      -7.0      4.083      8.994
  Name = 
  14 active torsions:
  status: ('A' for Active; 'I' for Inactive)
    1  A    between atoms: C_3  and  C_35
    2  A    between atoms: C_4  and  C_24
    3  A    between atoms: C_5  and  C_24
    4  A    between atoms: C_5  and  C_26
    5  A    between atoms: N_6  and  N_10
    6  A    between atoms: S_9  and  N_10
    7  A    between atoms: S_9  and  C_31
    8  A    between atoms: C_13  and  C_28
    9  A    between atoms: C_17  and  C_51
   10  A    between atoms: N_19  and  C_30
   11  A    between atoms: N_27  and  C_33
   12  A    between atoms: C_33  and  C_40
   13  A    between atoms: C_40  and  C_47
   14  A    between atoms: N_46  and  C_47
                            x       y       z     vdW  Elec       q    Type
                         _______ _______ _______ _____ _____    ______ ____

>  <TORSDO>
F 14

$$$$
=
 OpenBabel11042415053D

 53 60  0  0  1  0  0  0  0  0999 V2000
  194.5600  172.7170  142.6990 C   0  0  0  0  0  0  0  0  0  0  0  0
  194.9790  174.7770  144.8450 C   0  0  0  0  0  0  0  0  0  0  0  0
  194.2900  172.4590  144.0160 C   0  0  0  0  0  0  0  0  0  0  0  0
  195.3280  174.9650  143.4550 C   0  0  0  0  0  0  0  0  0  0  0  0
  194.0820  172.2420  145.4090 C   0  0  0  0  0  2  0  0  0  0  0  0
  195.1370  173.9610  142.5070 N   0  0  0  0  0  0  0  0  0  0  0  0
  194.5120  173.4900  145.0070 C   0  0  0  0  0  0  0  0  0  0  0  0
  193.3830  170.8160  141.7720 N   0  0  0  0  0  0  0  0  0  0  0  0
  192.9540  171.4460  139.7420 N   0  0  0  0  0  0  0  0  0  0  0  0
  193.6780  172.4870  140.3160 C   0  0  0  0  0  3  0  0  0  0  0  0
  193.9200  172.0550  141.5960 C   0  0  0  0  0  0  0  0  0  0  0  0
  192.8100  170.5260  140.6190 N   0  0  0  0  0  0  0  0  0  0  0  0
  192.0010  171.7140  138.7730 N   0  0  0  0  0  2  0  0  0  0  0  0
  191.3950  170.5420  137.6630 S   0  0  0  0  0  0  0  0  0  0  0  0
  192.4940  169.6530  137.1260 O   0  0  0  0  0  0  0  0  0  0  0  0
  190.3110  169.7460  138.3430 O   0  0  0  0  0  0  0  0  0  0  0  0
  189.4460  172.9270  136.9900 N   0  0  0  0  0  0  0  0  0  0  0  0
  190.7120  171.5430  136.3090 C   0  0  2  0  0  3  0  0  0  0  0  0
  191.7580  173.8170  136.5030 O   0  0  0  0  0  0  0  0  0  0  0  0
  190.8800  172.9800  136.6310 C   0  0  0  0  0  0  0  0  0  0  0  0
  189.3580  171.7130  136.3850 O   0  0  0  0  0  0  0  0  0  0  0  0
  187.7930  174.9090  137.5250 S   0  0  0  0  0  0  0  0  0  0  0  0
  188.7120  173.6460  137.9910 C   0  0  0  0  0  0  0  0  0  0  0  0
  188.6270  173.1160  139.3820 C   0  0  0  0  0  2  0  0  0  0  0  0
  189.0610  174.1520  140.4220 C   0  0  0  0  0  2  0  0  0  0  0  0
  187.8270  172.9130  141.9840 C   0  0  0  0  0  1  0  0  0  0  0  0
  190.1020  172.5380  141.7930 C   0  0  0  0  0  1  0  0  0  0  0  0
  189.0940  173.5910  141.7740 N   0  0  0  0  0  0  0  0  0  0  0  0
  195.4570  176.3110  142.8950 C   0  0  2  0  0  3  0  0  0  0  0  0
  196.2440  176.1580  141.6770 C   0  0  0  0  0  2  0  0  0  0  0  0
  196.8170  176.8070  142.8690 N   0  0  0  0  0  2  0  0  0  0  0  0
  194.9390  175.7550  146.0170 C   0  0  0  0  0  2  0  0  0  0  0  0
  193.5980  175.7850  146.7600 C   0  0  0  0  0  2  0  0  0  0  0  0
  192.3340  176.0540  145.9390 C   0  0  2  0  0  3  0  0  0  0  0  0
  189.9740  175.2410  145.8260 C   0  0  0  0  0  2  0  0  0  0  0  0
  192.2750  177.3970  145.2250 C   0  0  0  0  0  2  0  0  0  0  0  0
  189.8970  177.3930  144.3210 C   0  0  0  0  0  2  0  0  0  0  0  0
  191.3750  177.1200  144.0080 C   0  0  0  0  0  2  0  0  0  0  0  0
  189.1520  176.2580  145.0650 C   0  0  2  0  0  3  0  0  0  0  0  0
  191.0720  175.7300  146.7650 C   0  0  0  0  0  2  0  0  0  0  0  0
  186.5450  178.7380  148.7540 N   0  0  0  0  0  1  0  0  0  0  0  0
  185.2560  176.9040  145.6720 C   0  0  0  0  0  2  0  0  0  0  0  0
  185.4400  177.3460  147.1510 C   0  0  0  0  0  2  0  0  0  0  0  0
  187.7930  176.7000  145.6920 C   0  0  2  0  0  3  0  0  0  0  0  0
  186.5290  176.8990  144.8100 C   0  0  2  0  0  3  0  0  0  0  0  0
  186.5710  178.3060  147.3470 C   0  0  2  0  0  3  0  0  0  0  0  0
  187.9500  177.6740  146.8900 C   0  0  0  0  0  2  0  0  0  0  0  0
  185.2990  178.6760  141.5690 S   0  0  0  0  0  0  0  0  0  0  0  0
  186.5440  177.8660  142.5390 C   0  0  0  0  0  0  0  0  0  0  0  0
  185.6370  177.4580  140.2750 C   0  0  0  0  0  2  0  0  0  0  0  0
  186.5770  178.0770  143.9450 N   0  0  0  0  0  2  0  0  0  0  0  0
  187.0210  176.8680  140.5190 C   0  0  0  0  0  2  0  0  0  0  0  0
  187.2900  176.9840  141.9490 N   0  0  0  0  0  0  0  0  0  0  0  0
  1  3  1  0  0  0  0
  2  7  1  0  0  0  0
  2 32  1  0  0  0  0
  3  7  2  0  0  0  0
  3  5  1  0  0  0  0
  4  2  2  0  0  0  0
  6  1  2  0  0  0  0
  6  4  1  0  0  0  0
  7  5  1  0  0  0  0
  9 10  1  0  0  0  0
  9 12  1  0  0  0  0
 10 11  2  0  0  0  0
 11  8  1  0  0  0  0
 11  1  1  0  0  0  0
 12  8  2  0  0  0  0
 13  9  1  0  0  0  0
 14 16  2  0  0  0  0
 14 13  1  0  0  0  0
 15 14  2  0  0  0  0
 17 23  1  0  0  0  0
 18 21  1  0  0  0  0
 18 20  1  0  0  0  0
 18 14  1  1  0  0  0
 19 20  2  0  0  0  0
 20 17  1  0  0  0  0
 21 17  1  0  0  0  0
 22 23  2  0  0  0  0
 23 24  1  0  0  0  0
 24 25  1  0  0  0  0
 25 28  1  0  0  0  0
 28 27  1  0  0  0  0
 28 26  1  0  0  0  0
 29  4  1  1  0  0  0
 30 31  1  0  0  0  0
 30 29  1  0  0  0  0
 31 29  1  0  0  0  0
 32 33  1  0  0  0  0
 34 33  1  1  0  0  0
 34 40  1  0  0  0  0
 35 40  1  0  0  0  0
 36 34  1  0  0  0  0
 38 37  1  0  0  0  0
 38 36  1  0  0  0  0
 39 37  1  1  0  0  0
 39 44  1  0  0  0  0
 39 35  1  0  0  0  0
 42 43  1  0  0  0  0
 43 46  1  0  0  0  0
 44 47  1  6  0  0  0
 45 51  1  1  0  0  0
 45 42  1  0  0  0  0
 45 44  1  0  0  0  0
 46 41  1  1  0  0  0
 47 46  1  0  0  0  0
 48 49  1  0  0  0  0
 49 51  1  0  0  0  0
 50 52  1  0  0  0  0
 50 48  1  0  0  0  0
 52 53  1  0  0  0  0
 53 49  2  0  0  0  0
M  END
>  <MODEL>
6

>  <REMARK>
 VINA RESULT:      -6.9      4.313      8.967
  Name = 
  14 active torsions:
  status: ('A' for Active; 'I' for Inactive)
    1  A    between atoms: C_3  and  C_35
    2  A    between atoms: C_4  and  C_24
    3  A    between atoms: C_5  and  C_24
    4  A    between atoms: C_5  and  C_26
    5  A    between atoms: N_6  and  N_10
    6  A    between atoms: S_9  and  N_10
    7  A    between atoms: S_9  and  C_31
    8  A    between atoms: C_13  and  C_28
    9  A    between atoms: C_17  and  C_51
   10  A    between atoms: N_19  and  C_30
   11  A    between atoms: N_27  and  C_33
   12  A    between atoms: C_33  and  C_40
   13  A    between atoms: C_40  and  C_47
   14  A    between atoms: N_46  and  C_47
                            x       y       z     vdW  Elec       q    Type
                         _______ _______ _______ _____ _____    ______ ____

>  <TORSDO>
F 14

$$$$
=
 OpenBabel11042415053D

 53 60  0  0  1  0  0  0  0  0999 V2000
  189.6720  172.2130  139.6280 C   0  0  0  0  0  0  0  0  0  0  0  0
  192.1370  171.1290  138.2970 C   0  0  0  0  0  0  0  0  0  0  0  0
  190.3770  171.1640  140.1520 C   0  0  0  0  0  0  0  0  0  0  0  0
  191.3060  172.1760  137.7460 C   0  0  0  0  0  0  0  0  0  0  0  0
  191.1270  170.0430  140.6100 C   0  0  0  0  0  2  0  0  0  0  0  0
  190.1560  172.6200  138.3960 N   0  0  0  0  0  0  0  0  0  0  0  0
  191.5580  170.6820  139.4660 C   0  0  0  0  0  0  0  0  0  0  0  0
  188.1490  172.6400  141.4610 N   0  0  0  0  0  0  0  0  0  0  0  0
  187.8730  174.7890  141.3800 N   0  0  0  0  0  0  0  0  0  0  0  0
  188.7080  174.4750  140.3120 C   0  0  0  0  0  3  0  0  0  0  0  0
  188.8650  173.1140  140.4040 C   0  0  0  0  0  0  0  0  0  0  0  0
  187.5930  173.7070  142.0030 N   0  0  0  0  0  0  0  0  0  0  0  0
  187.9920  176.0120  142.0190 N   0  0  0  0  0  2  0  0  0  0  0  0
  187.2160  177.4590  141.4910 S   0  0  0  0  0  0  0  0  0  0  0  0
  188.0340  178.6890  141.8170 O   0  0  0  0  0  0  0  0  0  0  0  0
  186.9350  177.3460  140.0140 O   0  0  0  0  0  0  0  0  0  0  0  0
  186.0120  177.2860  144.3990 N   0  0  0  0  0  0  0  0  0  0  0  0
  185.6690  177.4920  142.4440 C   0  0  2  0  0  3  0  0  0  0  0  0
  185.6380  179.6770  143.6800 O   0  0  0  0  0  0  0  0  0  0  0  0
  185.7960  178.4750  143.5460 C   0  0  0  0  0  0  0  0  0  0  0  0
  185.5830  176.4980  143.3780 O   0  0  0  0  0  0  0  0  0  0  0  0
  186.3400  177.8400  146.9560 S   0  0  0  0  0  0  0  0  0  0  0  0
  186.8190  177.1200  145.5740 C   0  0  0  0  0  0  0  0  0  0  0  0
  187.9430  176.1400  145.5760 C   0  0  0  0  0  2  0  0  0  0  0  0
  188.4200  175.8140  146.9940 C   0  0  0  0  0  2  0  0  0  0  0  0
  189.8080  174.5180  145.6180 C   0  0  0  0  0  1  0  0  0  0  0  0
  190.6300  175.2930  147.6370 C   0  0  0  0  0  1  0  0  0  0  0  0
  189.4330  174.7570  147.0010 N   0  0  0  0  0  0  0  0  0  0  0  0
  191.8460  173.1130  136.7610 C   0  0  2  0  0  3  0  0  0  0  0  0
  192.4250  174.2070  137.5330 C   0  0  0  0  0  2  0  0  0  0  0  0
  191.1880  174.4030  136.7580 N   0  0  0  0  0  2  0  0  0  0  0  0
  193.5030  170.5930  137.8720 C   0  0  0  0  0  2  0  0  0  0  0  0
  194.5390  170.5580  139.0010 C   0  0  0  0  0  2  0  0  0  0  0  0
  195.0250  171.8960  139.5650 C   0  0  2  0  0  3  0  0  0  0  0  0
  194.0980  173.8240  140.8550 C   0  0  0  0  0  2  0  0  0  0  0  0
  196.5270  172.0250  139.7750 C   0  0  0  0  0  2  0  0  0  0  0  0
  196.6850  174.2620  140.9780 C   0  0  0  0  0  2  0  0  0  0  0  0
  196.7830  173.5360  139.6280 C   0  0  0  0  0  2  0  0  0  0  0  0
  195.2500  174.6020  141.4490 C   0  0  2  0  0  3  0  0  0  0  0  0
  194.1850  172.3030  140.7930 C   0  0  0  0  0  2  0  0  0  0  0  0
  192.7070  176.8580  145.3200 N   0  0  0  0  0  1  0  0  0  0  0  0
  195.9840  174.9130  145.3650 C   0  0  0  0  0  2  0  0  0  0  0  0
  194.9410  176.0450  145.5890 C   0  0  0  0  0  2  0  0  0  0  0  0
  195.1570  174.9880  142.9590 C   0  0  2  0  0  3  0  0  0  0  0  0
  195.8460  174.1260  144.0520 C   0  0  2  0  0  3  0  0  0  0  0  0
  193.6300  175.7850  144.9190 C   0  0  2  0  0  3  0  0  0  0  0  0
  193.8020  175.6340  143.3500 C   0  0  0  0  0  2  0  0  0  0  0  0
  195.9850  170.6340  145.7750 S   0  0  0  0  0  0  0  0  0  0  0  0
  196.0480  171.6820  144.3450 C   0  0  0  0  0  0  0  0  0  0  0  0
  197.5920  169.9830  145.2620 C   0  0  0  0  0  2  0  0  0  0  0  0
  195.2100  172.8300  144.2870 N   0  0  0  0  0  2  0  0  0  0  0  0
  197.7760  170.2710  143.7770 C   0  0  0  0  0  2  0  0  0  0  0  0
  196.9730  171.4490  143.4670 N   0  0  0  0  0  0  0  0  0  0  0  0
  1  3  1  0  0  0  0
  1 11  1  0  0  0  0
  2  7  1  0  0  0  0
  3  5  1  0  0  0  0
  4  2  2  0  0  0  0
  4  6  1  0  0  0  0
  6  1  2  0  0  0  0
  7  3  2  0  0  0  0
  7  5  1  0  0  0  0
  8 12  2  0  0  0  0
  9 12  1  0  0  0  0
  9 13  1  0  0  0  0
 10 11  2  0  0  0  0
 10  9  1  0  0  0  0
 11  8  1  0  0  0  0
 14 15  2  0  0  0  0
 14 13  1  0  0  0  0
 16 14  2  0  0  0  0
 17 23  1  0  0  0  0
 18 14  1  6  0  0  0
 18 21  1  0  0  0  0
 18 20  1  0  0  0  0
 20 19  2  0  0  0  0
 20 17  1  0  0  0  0
 21 17  1  0  0  0  0
 23 24  1  0  0  0  0
 23 22  2  0  0  0  0
 24 25  1  0  0  0  0
 25 28  1  0  0  0  0
 26 28  1  0  0  0  0
 28 27  1  0  0  0  0
 29 30  1  0  0  0  0
 29  4  1  1  0  0  0
 31 29  1  0  0  0  0
 31 30  1  0  0  0  0
 32  2  1  0  0  0  0
 32 33  1  0  0  0  0
 34 33  1  1  0  0  0
 34 36  1  0  0  0  0
 34 40  1  0  0  0  0
 37 39  1  0  0  0  0
 38 36  1  0  0  0  0
 38 37  1  0  0  0  0
 39 35  1  1  0  0  0
 39 44  1  0  0  0  0
 40 35  1  0  0  0  0
 42 43  1  0  0  0  0
 44 47  1  1  0  0  0
 44 45  1  0  0  0  0
 45 51  1  1  0  0  0
 45 42  1  0  0  0  0
 46 41  1  6  0  0  0
 46 43  1  0  0  0  0
 47 46  1  0  0  0  0
 49 48  1  0  0  0  0
 50 48  1  0  0  0  0
 51 49  1  0  0  0  0
 52 50  1  0  0  0  0
 53 52  1  0  0  0  0
 53 49  2  0  0  0  0
M  END
>  <MODEL>
7

>  <REMARK>
 VINA RESULT:      -6.8      2.686      6.765
  Name = 
  14 active torsions:
  status: ('A' for Active; 'I' for Inactive)
    1  A    between atoms: C_3  and  C_35
    2  A    between atoms: C_4  and  C_24
    3  A    between atoms: C_5  and  C_24
    4  A    between atoms: C_5  and  C_26
    5  A    between atoms: N_6  and  N_10
    6  A    between atoms: S_9  and  N_10
    7  A    between atoms: S_9  and  C_31
    8  A    between atoms: C_13  and  C_28
    9  A    between atoms: C_17  and  C_51
   10  A    between atoms: N_19  and  C_30
   11  A    between atoms: N_27  and  C_33
   12  A    between atoms: C_33  and  C_40
   13  A    between atoms: C_40  and  C_47
   14  A    between atoms: N_46  and  C_47
                            x       y       z     vdW  Elec       q    Type
                         _______ _______ _______ _____ _____    ______ ____

>  <TORSDO>
F 14

$$$$
=
 OpenBabel11042415053D

 53 60  0  0  1  0  0  0  0  0999 V2000
  193.0320  175.0570  146.1020 C   0  0  0  0  0  0  0  0  0  0  0  0
  195.8660  174.4530  145.3080 C   0  0  0  0  0  0  0  0  0  0  0  0
  193.9580  176.0460  145.9080 C   0  0  0  0  0  0  0  0  0  0  0  0
  194.8710  173.4480  145.6090 C   0  0  0  0  0  0  0  0  0  0  0  0
  194.9850  177.0200  145.7430 C   0  0  0  0  0  2  0  0  0  0  0  0
  193.5780  173.7880  146.0010 N   0  0  0  0  0  0  0  0  0  0  0  0
  195.3100  175.6960  145.5270 C   0  0  0  0  0  0  0  0  0  0  0  0
  190.9880  176.2610  146.5810 N   0  0  0  0  0  0  0  0  0  0  0  0
  189.5140  175.2260  145.3740 N   0  0  0  0  0  0  0  0  0  0  0  0
  190.7100  174.5440  145.1770 C   0  0  0  0  0  3  0  0  0  0  0  0
  191.6150  175.2330  145.9450 C   0  0  0  0  0  0  0  0  0  0  0  0
  189.7330  176.1990  146.1770 N   0  0  0  0  0  0  0  0  0  0  0  0
  188.5740  175.2910  144.3580 N   0  0  0  0  0  2  0  0  0  0  0  0
  188.8930  175.9260  142.7860 S   0  0  0  0  0  0  0  0  0  0  0  0
  189.2880  177.3850  142.8370 O   0  0  0  0  0  0  0  0  0  0  0  0
  189.9520  175.0800  142.1280 O   0  0  0  0  0  0  0  0  0  0  0  0
  185.9640  177.0770  142.6000 N   0  0  0  0  0  0  0  0  0  0  0  0
  187.3020  175.7600  141.9230 C   0  0  2  0  0  3  0  0  0  0  0  0
  187.0790  177.7780  140.4450 O   0  0  0  0  0  0  0  0  0  0  0  0
  186.8720  177.0920  141.4330 C   0  0  0  0  0  0  0  0  0  0  0  0
  186.2240  175.7530  142.7630 O   0  0  0  0  0  0  0  0  0  0  0  0
  183.9550  178.6640  143.2270 S   0  0  0  0  0  0  0  0  0  0  0  0
  185.4910  178.1540  143.4220 C   0  0  0  0  0  0  0  0  0  0  0  0
  186.3150  178.6400  144.5650 C   0  0  0  0  0  2  0  0  0  0  0  0
  185.4520  179.1680  145.7150 C   0  0  0  0  0  2  0  0  0  0  0  0
  186.3450  177.1650  146.5440 C   0  0  0  0  0  1  0  0  0  0  0  0
  185.9420  178.9100  148.0090 C   0  0  0  0  0  1  0  0  0  0  0  0
  185.4020  178.2300  146.8380 N   0  0  0  0  0  0  0  0  0  0  0  0
  195.0100  172.0860  145.0930 C   0  0  2  0  0  3  0  0  0  0  0  0
  193.7060  171.7390  144.5390 C   0  0  0  0  0  2  0  0  0  0  0  0
  194.1880  171.1130  145.7820 N   0  0  0  0  0  2  0  0  0  0  0  0
  197.2680  174.3410  144.7130 C   0  0  0  0  0  2  0  0  0  0  0  0
  197.5020  175.2370  143.4910 C   0  0  0  0  0  2  0  0  0  0  0  0
  196.6140  175.0160  142.2640 C   0  0  2  0  0  3  0  0  0  0  0  0
  195.9570  173.1410  140.7500 C   0  0  0  0  0  2  0  0  0  0  0  0
  195.5160  176.0460  142.0410 C   0  0  0  0  0  2  0  0  0  0  0  0
  194.2270  175.0110  140.1070 C   0  0  0  0  0  2  0  0  0  0  0  0
  195.3050  176.0250  140.5170 C   0  0  0  0  0  2  0  0  0  0  0  0
  194.6990  173.5390  140.0100 C   0  0  2  0  0  3  0  0  0  0  0  0
  196.1210  173.5560  142.2080 C   0  0  0  0  0  2  0  0  0  0  0  0
  190.5510  171.4040  142.1970 N   0  0  0  0  0  1  0  0  0  0  0  0
  192.1320  170.7280  138.7960 C   0  0  0  0  0  2  0  0  0  0  0  0
  191.5340  170.4970  140.2130 C   0  0  0  0  0  2  0  0  0  0  0  0
  193.5310  172.5040  139.9640 C   0  0  2  0  0  3  0  0  0  0  0  0
  192.9360  172.0250  138.6110 C   0  0  2  0  0  3  0  0  0  0  0  0
  191.2270  171.7670  140.9410 C   0  0  2  0  0  3  0  0  0  0  0  0
  192.5290  172.6480  141.1400 C   0  0  0  0  0  2  0  0  0  0  0  0
  189.5750  172.9840  136.8910 S   0  0  0  0  0  0  0  0  0  0  0  0
  191.3050  172.5970  136.8480 C   0  0  0  0  0  0  0  0  0  0  0  0
  189.3370  171.6620  135.6810 C   0  0  0  0  0  2  0  0  0  0  0  0
  192.1430  173.0340  137.9110 N   0  0  0  0  0  2  0  0  0  0  0  0
  190.6690  171.3960  134.9890 C   0  0  0  0  0  2  0  0  0  0  0  0
  191.7200  171.7920  135.9200 N   0  0  0  0  0  0  0  0  0  0  0  0
  2  7  2  0  0  0  0
  2  4  1  0  0  0  0
  3  1  2  0  0  0  0
  4  6  2  0  0  0  0
  5  3  1  0  0  0  0
  6  1  1  0  0  0  0
  7  5  1  0  0  0  0
  7  3  1  0  0  0  0
  9 12  1  0  0  0  0
 10  9  1  0  0  0  0
 10 11  2  0  0  0  0
 11  1  1  0  0  0  0
 11  8  1  0  0  0  0
 12  8  2  0  0  0  0
 13  9  1  0  0  0  0
 14 15  2  0  0  0  0
 14 13  1  0  0  0  0
 16 14  2  0  0  0  0
 17 21  1  0  0  0  0
 17 23  1  0  0  0  0
 18 21  1  0  0  0  0
 18 14  1  1  0  0  0
 19 20  2  0  0  0  0
 20 18  1  0  0  0  0
 20 17  1  0  0  0  0
 22 23  2  0  0  0  0
 23 24  1  0  0  0  0
 24 25  1  0  0  0  0
 25 28  1  0  0  0  0
 26 28  1  0  0  0  0
 28 27  1  0  0  0  0
 29  4  1  1  0  0  0
 29 31  1  0  0  0  0
 30 29  1  0  0  0  0
 30 31  1  0  0  0  0
 32  2  1  0  0  0  0
 33 32  1  0  0  0  0
 34 33  1  1  0  0  0
 35 40  1  0  0  0  0
 36 34  1  0  0  0  0
 37 38  1  0  0  0  0
 38 36  1  0  0  0  0
 39 37  1  1  0  0  0
 39 35  1  0  0  0  0
 40 34  1  0  0  0  0
 42 43  1  0  0  0  0
 43 46  1  0  0  0  0
 44 39  1  0  0  0  0
 44 47  1  1  0  0  0
 45 51  1  1  0  0  0
 45 42  1  0  0  0  0
 45 44  1  0  0  0  0
 46 47  1  0  0  0  0
 46 41  1  1  0  0  0
 49 48  1  0  0  0  0
 49 51  1  0  0  0  0
 50 48  1  0  0  0  0
 52 50  1  0  0  0  0
 52 53  1  0  0  0  0
 53 49  2  0  0  0  0
M  END
>  <MODEL>
8

>  <REMARK>
 VINA RESULT:      -6.8      2.556      4.069
  Name = 
  14 active torsions:
  status: ('A' for Active; 'I' for Inactive)
    1  A    between atoms: C_3  and  C_35
    2  A    between atoms: C_4  and  C_24
    3  A    between atoms: C_5  and  C_24
    4  A    between atoms: C_5  and  C_26
    5  A    between atoms: N_6  and  N_10
    6  A    between atoms: S_9  and  N_10
    7  A    between atoms: S_9  and  C_31
    8  A    between atoms: C_13  and  C_28
    9  A    between atoms: C_17  and  C_51
   10  A    between atoms: N_19  and  C_30
   11  A    between atoms: N_27  and  C_33
   12  A    between atoms: C_33  and  C_40
   13  A    between atoms: C_40  and  C_47
   14  A    between atoms: N_46  and  C_47
                            x       y       z     vdW  Elec       q    Type
                         _______ _______ _______ _____ _____    ______ ____

>  <TORSDO>
F 14

$$$$
=
 OpenBabel11042415053D

 53 60  0  0  1  0  0  0  0  0999 V2000
  188.9400  174.8830  143.7490 C   0  0  0  0  0  0  0  0  0  0  0  0
  188.1860  174.6910  140.8480 C   0  0  0  0  0  0  0  0  0  0  0  0
  189.1650  173.7500  143.0150 C   0  0  0  0  0  0  0  0  0  0  0  0
  187.8960  175.8270  141.6930 C   0  0  0  0  0  0  0  0  0  0  0  0
  189.3180  172.5870  142.2060 C   0  0  0  0  0  2  0  0  0  0  0  0
  188.2450  175.8490  143.0420 N   0  0  0  0  0  0  0  0  0  0  0  0
  188.7780  173.7140  141.6200 C   0  0  0  0  0  0  0  0  0  0  0  0
  189.5270  174.6070  146.0820 N   0  0  0  0  0  0  0  0  0  0  0  0
  191.1180  176.0530  146.3620 N   0  0  0  0  0  0  0  0  0  0  0  0
  190.7030  176.1990  145.0420 C   0  0  0  0  0  3  0  0  0  0  0  0
  189.7080  175.2640  144.9030 C   0  0  0  0  0  0  0  0  0  0  0  0
  190.4190  175.1280  146.9030 N   0  0  0  0  0  0  0  0  0  0  0  0
  192.4390  176.2930  146.7060 N   0  0  0  0  0  2  0  0  0  0  0  0
  193.7890  175.5460  145.9360 S   0  0  0  0  0  0  0  0  0  0  0  0
  194.9570  175.3780  146.8830 O   0  0  0  0  0  0  0  0  0  0  0  0
  193.3460  174.2300  145.3510 O   0  0  0  0  0  0  0  0  0  0  0  0
  195.6200  175.9530  143.4030 N   0  0  0  0  0  0  0  0  0  0  0  0
  194.2410  176.7190  144.6240 C   0  0  2  0  0  3  0  0  0  0  0  0
  193.2700  175.8150  142.4920 O   0  0  0  0  0  0  0  0  0  0  0  0
  194.1470  176.0410  143.3090 C   0  0  0  0  0  0  0  0  0  0  0  0
  195.5900  176.8350  144.4360 O   0  0  0  0  0  0  0  0  0  0  0  0
  197.8920  175.4260  142.1730 S   0  0  0  0  0  0  0  0  0  0  0  0
  196.5230  174.9480  142.9190 C   0  0  0  0  0  0  0  0  0  0  0  0
  196.3150  173.5170  143.2820 C   0  0  0  0  0  2  0  0  0  0  0  0
  196.7240  173.2240  144.7280 C   0  0  0  0  0  2  0  0  0  0  0  0
  196.7990  171.1240  145.7680 C   0  0  0  0  0  1  0  0  0  0  0  0
  197.4380  171.3070  143.5520 C   0  0  0  0  0  1  0  0  0  0  0  0
  197.5030  171.9900  144.8380 N   0  0  0  0  0  0  0  0  0  0  0  0
  187.6550  177.1470  141.1080 C   0  0  2  0  0  3  0  0  0  0  0  0
  188.5200  178.0660  141.8380 C   0  0  0  0  0  2  0  0  0  0  0  0
  187.0600  178.0950  142.0270 N   0  0  0  0  0  2  0  0  0  0  0  0
  188.0570  174.4940  139.3390 C   0  0  0  0  0  2  0  0  0  0  0  0
  188.1950  173.0370  138.8840 C   0  0  0  0  0  2  0  0  0  0  0  0
  189.5210  172.6110  138.2480 C   0  0  2  0  0  3  0  0  0  0  0  0
  191.7310  173.6290  137.6860 C   0  0  0  0  0  2  0  0  0  0  0  0
  189.8150  171.1180  138.2560 C   0  0  0  0  0  2  0  0  0  0  0  0
  192.2040  171.0620  137.3800 C   0  0  0  0  0  2  0  0  0  0  0  0
  190.7160  170.9210  137.0240 C   0  0  0  0  0  2  0  0  0  0  0  0
  192.7320  172.5140  137.4710 C   0  0  2  0  0  3  0  0  0  0  0  0
  190.6800  173.4790  138.7790 C   0  0  0  0  0  2  0  0  0  0  0  0
  196.9650  175.2510  138.5400 N   0  0  0  0  0  1  0  0  0  0  0  0
  195.9220  171.7980  139.7700 C   0  0  0  0  0  2  0  0  0  0  0  0
  196.7690  172.9460  139.1530 C   0  0  0  0  0  2  0  0  0  0  0  0
  194.1140  172.6390  138.1880 C   0  0  2  0  0  3  0  0  0  0  0  0
  194.4100  171.8630  139.5020 C   0  0  2  0  0  3  0  0  0  0  0  0
  196.0140  174.2290  139.0060 C   0  0  2  0  0  3  0  0  0  0  0  0
  194.7490  174.0490  138.0690 C   0  0  0  0  0  2  0  0  0  0  0  0
  193.2870  171.3000  143.1900 S   0  0  0  0  0  0  0  0  0  0  0  0
  192.9570  171.4320  141.4510 C   0  0  0  0  0  0  0  0  0  0  0  0
  192.4740  169.6860  143.1330 C   0  0  0  0  0  2  0  0  0  0  0  0
  193.6940  172.3680  140.6730 N   0  0  0  0  0  2  0  0  0  0  0  0
  191.5870  169.6360  141.8950 C   0  0  0  0  0  2  0  0  0  0  0  0
  192.1600  170.5580  140.9210 N   0  0  0  0  0  0  0  0  0  0  0  0
  1 11  1  0  0  0  0
  2  7  2  0  0  0  0
  2  4  1  0  0  0  0
  3  1  2  0  0  0  0
  4  6  2  0  0  0  0
  5  3  1  0  0  0  0
  6  1  1  0  0  0  0
  7  5  1  0  0  0  0
  7  3  1  0  0  0  0
  8 12  2  0  0  0  0
  9 13  1  0  0  0  0
  9 12  1  0  0  0  0
 10  9  1  0  0  0  0
 11 10  2  0  0  0  0
 11  8  1  0  0  0  0
 14 13  1  0  0  0  0
 14 15  2  0  0  0  0
 16 14  2  0  0  0  0
 17 21  1  0  0  0  0
 18 14  1  1  0  0  0
 19 20  2  0  0  0  0
 20 17  1  0  0  0  0
 20 18  1  0  0  0  0
 21 18  1  0  0  0  0
 22 23  2  0  0  0  0
 23 24  1  0  0  0  0
 23 17  1  0  0  0  0
 24 25  1  0  0  0  0
 25 28  1  0  0  0  0
 27 28  1  0  0  0  0
 28 26  1  0  0  0  0
 29  4  1  1  0  0  0
 29 30  1  0  0  0  0
 29 31  1  0  0  0  0
 30 31  1  0  0  0  0
 32  2  1  0  0  0  0
 33 32  1  0  0  0  0
 34 36  1  0  0  0  0
 34 40  1  0  0  0  0
 34 33  1  1  0  0  0
 35 40  1  0  0  0  0
 38 37  1  0  0  0  0
 38 36  1  0  0  0  0
 39 37  1  1  0  0  0
 39 35  1  0  0  0  0
 39 44  1  0  0  0  0
 43 42  1  0  0  0  0
 44 47  1  1  0  0  0
 44 45  1  0  0  0  0
 45 42  1  0  0  0  0
 45 51  1  1  0  0  0
 46 41  1  6  0  0  0
 46 43  1  0  0  0  0
 47 46  1  0  0  0  0
 49 48  1  0  0  0  0
 50 48  1  0  0  0  0
 51 49  1  0  0  0  0
 52 50  1  0  0  0  0
 53 49  2  0  0  0  0
 53 52  1  0  0  0  0
M  END
>  <MODEL>
9

>  <REMARK>
 VINA RESULT:      -6.8      3.873      7.210
  Name = 
  14 active torsions:
  status: ('A' for Active; 'I' for Inactive)
    1  A    between atoms: C_3  and  C_35
    2  A    between atoms: C_4  and  C_24
    3  A    between atoms: C_5  and  C_24
    4  A    between atoms: C_5  and  C_26
    5  A    between atoms: N_6  and  N_10
    6  A    between atoms: S_9  and  N_10
    7  A    between atoms: S_9  and  C_31
    8  A    between atoms: C_13  and  C_28
    9  A    between atoms: C_17  and  C_51
   10  A    between atoms: N_19  and  C_30
   11  A    between atoms: N_27  and  C_33
   12  A    between atoms: C_33  and  C_40
   13  A    between atoms: C_40  and  C_47
   14  A    between atoms: N_46  and  C_47
                            x       y       z     vdW  Elec       q    Type
                         _______ _______ _______ _____ _____    ______ ____

>  <TORSDO>
F 14

$$$$
