=
 OpenBabel11042419313D

 32 37  0  0  1  0  0  0  0  0999 V2000
  186.6460  178.2880  147.4530 C   0  0  0  0  0  3  0  0  0  0  0  0
  188.2630  175.6600  142.7440 C   0  0  0  0  0  0  0  0  0  0  0  0
  187.8200  176.3200  143.9020 C   0  0  0  0  0  0  0  0  0  0  0  0
  191.0790  176.2380  145.8980 C   0  0  0  0  0  0  0  0  0  0  0  0
  185.3310  178.7410  147.5680 C   0  0  0  0  0  3  0  0  0  0  0  0
  184.4510  178.5470  146.5520 N   0  0  0  0  0  0  0  0  0  0  0  0
  185.5610  176.6160  143.0420 O   0  0  0  0  0  1  0  0  0  0  0  0
  192.3020  175.8120  145.7770 N   0  0  0  0  0  2  0  0  0  0  0  0
  186.1240  177.4430  145.2390 C   0  0  0  0  0  0  0  0  0  0  0  0
  188.5780  174.6900  140.8170 C   0  0  0  0  0  0  0  0  0  0  0  0
  186.5010  176.7910  144.0560 C   0  0  0  0  0  0  0  0  0  0  0  0
  190.1050  176.0350  144.8020 C   0  0  0  0  0  0  0  0  0  0  0  0
  189.5510  175.2120  142.6180 C   0  0  0  0  0  0  0  0  0  0  0  0
  190.6230  176.9280  147.1210 C   0  0  0  0  0  3  0  0  0  0  0  0
  190.4970  175.3790  143.6200 C   0  0  0  0  0  3  0  0  0  0  0  0
  187.5980  175.3310  141.5740 C   0  0  0  0  0  3  0  0  0  0  0  0
  189.3660  177.3590  147.2310 C   0  0  0  0  0  3  0  0  0  0  0  0
  188.3790  177.1660  146.1410 C   0  0  0  0  0  0  0  0  0  0  0  0
  188.7680  176.5080  144.9510 C   0  0  1  0  0  3  0  0  0  0  0  0
  189.7270  174.6330  141.4600 O   0  0  0  0  0  0  0  0  0  0  0  0
  184.8160  177.9160  145.4040 C   0  0  0  0  0  3  0  0  0  0  0  0
  187.0580  177.6320  146.2840 C   0  0  0  0  0  0  0  0  0  0  0  0
  188.3750  174.1410  139.4730 C   0  0  0  0  0  0  0  0  0  0  0  0
  188.7910  172.8150  139.1650 N   0  0  0  0  0  1  0  0  0  0  0  0
  187.8300  174.8440  138.5820 O   0  0  0  0  0  0  0  0  0  0  0  0
  193.3340  175.9750  146.7940 C   0  0  0  0  0  2  0  0  0  0  0  0
  194.6960  176.1180  146.1380 C   0  0  0  0  0  2  0  0  0  0  0  0
  195.6700  174.2850  144.6040 C   0  0  2  0  0  3  0  0  0  0  0  0
  196.0100  175.6670  144.0850 C   0  0  0  0  0  2  0  0  0  0  0  0
  194.6780  175.4450  144.7720 C   0  0  2  0  0  3  0  0  0  0  0  0
  196.8160  172.4950  145.8840 C   0  0  0  0  0  1  0  0  0  0  0  0
  196.5210  173.9790  145.8300 C   0  0  0  0  0  2  0  0  0  0  0  0
  1  5  1  0  0  0  0
  2  3  1  0  0  0  0
  3 11  2  0  0  0  0
  4 14  2  0  0  0  0
  6  5  2  0  0  0  0
  7 11  1  0  0  0  0
  8  4  1  0  0  0  0
  8 26  1  0  0  0  0
  9 21  2  0  0  0  0
  9 22  1  0  0  0  0
 10 20  1  0  0  0  0
 10 16  2  0  0  0  0
 11  9  1  0  0  0  0
 12 19  1  0  0  0  0
 12  4  1  0  0  0  0
 13  2  2  0  0  0  0
 13 15  1  0  0  0  0
 14 17  1  0  0  0  0
 15 12  2  0  0  0  0
 16  2  1  0  0  0  0
 18 22  1  0  0  0  0
 18 17  2  0  0  0  0
 19  3  1  6  0  0  0
 19 18  1  0  0  0  0
 20 13  1  0  0  0  0
 21  6  1  0  0  0  0
 22  1  2  0  0  0  0
 23 10  1  0  0  0  0
 24 23  1  0  0  0  0
 25 23  2  0  0  0  0
 27 26  1  0  0  0  0
 28 30  1  0  0  0  0
 28 32  1  1  0  0  0
 29 28  1  0  0  0  0
 29 30  1  0  0  0  0
 30 27  1  1  0  0  0
 32 31  1  0  0  0  0
M  END
>  <MODEL>
1

>  <REMARK>
 VINA RESULT:      -8.5      0.000      0.000
  Name = 
  5 active torsions:
  status: ('A' for Active; 'I' for Inactive)
    1  A    between atoms: C_2  and  C_16
    2  A    between atoms: C_3  and  C_29
    3  A    between atoms: C_12  and  C_28
    4  A    between atoms: N_13  and  C_17
    5  A    between atoms: C_17  and  C_28
                            x       y       z     vdW  Elec       q    Type
                         _______ _______ _______ _____ _____    ______ ____

>  <TORSDO>
F 5

$$$$
=
 OpenBabel11042419313D

 32 37  0  0  1  0  0  0  0  0999 V2000
  193.6410  175.9460  146.3580 C   0  0  0  0  0  3  0  0  0  0  0  0
  189.9400  174.7040  142.3010 C   0  0  0  0  0  0  0  0  0  0  0  0
  190.8950  174.9960  143.2900 C   0  0  0  0  0  0  0  0  0  0  0  0
  188.5920  176.6670  145.8430 C   0  0  0  0  0  0  0  0  0  0  0  0
  194.9830  175.6050  146.1890 C   0  0  0  0  0  3  0  0  0  0  0  0
  195.3910  174.9800  145.0540 N   0  0  0  0  0  0  0  0  0  0  0  0
  192.7250  174.0270  142.0090 O   0  0  0  0  0  1  0  0  0  0  0  0
  187.3370  176.9790  145.9870 N   0  0  0  0  0  2  0  0  0  0  0  0
  193.1590  174.9890  144.1810 C   0  0  0  0  0  0  0  0  0  0  0  0
  188.7660  174.0950  140.5670 C   0  0  0  0  0  0  0  0  0  0  0  0
  192.2580  174.6690  143.1550 C   0  0  0  0  0  0  0  0  0  0  0  0
  189.0560  175.9870  144.6120 C   0  0  0  0  0  0  0  0  0  0  0  0
  188.6190  175.0320  142.4550 C   0  0  0  0  0  0  0  0  0  0  0  0
  189.5880  176.9820  146.8860 C   0  0  0  0  0  3  0  0  0  0  0  0
  188.1400  175.6720  143.5900 C   0  0  0  0  0  3  0  0  0  0  0  0
  190.0670  174.0860  141.0680 C   0  0  0  0  0  3  0  0  0  0  0  0
  190.8710  176.6570  146.7230 C   0  0  0  0  0  3  0  0  0  0  0  0
  191.3500  175.9730  145.4980 C   0  0  0  0  0  0  0  0  0  0  0  0
  190.4350  175.6530  144.4690 C   0  0  1  0  0  3  0  0  0  0  0  0
  187.9260  174.6620  141.4110 O   0  0  0  0  0  0  0  0  0  0  0  0
  194.5170  174.6690  144.0600 C   0  0  0  0  0  3  0  0  0  0  0  0
  192.7110  175.6410  145.3530 C   0  0  0  0  0  0  0  0  0  0  0  0
  188.3610  173.5470  139.2690 C   0  0  0  0  0  0  0  0  0  0  0  0
  188.0640  174.4170  138.1810 N   0  0  0  0  0  1  0  0  0  0  0  0
  188.2750  172.3020  139.1110 O   0  0  0  0  0  0  0  0  0  0  0  0
  186.7840  177.6370  147.1650 C   0  0  0  0  0  2  0  0  0  0  0  0
  185.7460  178.6650  146.7500 C   0  0  0  0  0  2  0  0  0  0  0  0
  184.5610  178.3880  144.4740 C   0  0  2  0  0  3  0  0  0  0  0  0
  183.6370  179.0200  145.4960 C   0  0  0  0  0  2  0  0  0  0  0  0
  184.6430  177.9820  145.9530 C   0  0  2  0  0  3  0  0  0  0  0  0
  186.3410  178.8810  142.8180 C   0  0  0  0  0  1  0  0  0  0  0  0
  185.5960  179.4110  144.0260 C   0  0  0  0  0  2  0  0  0  0  0  0
  2 13  2  0  0  0  0
  2  3  1  0  0  0  0
  4  8  1  0  0  0  0
  4 14  2  0  0  0  0
  5  1  1  0  0  0  0
  6  5  2  0  0  0  0
  7 11  1  0  0  0  0
  8 26  1  0  0  0  0
  9 22  1  0  0  0  0
 10 16  2  0  0  0  0
 10 20  1  0  0  0  0
 11  3  2  0  0  0  0
 11  9  1  0  0  0  0
 12  4  1  0  0  0  0
 13 15  1  0  0  0  0
 15 12  2  0  0  0  0
 16  2  1  0  0  0  0
 17 14  1  0  0  0  0
 18 17  2  0  0  0  0
 19  3  1  1  0  0  0
 19 12  1  0  0  0  0
 19 18  1  0  0  0  0
 20 13  1  0  0  0  0
 21  9  2  0  0  0  0
 21  6  1  0  0  0  0
 22 18  1  0  0  0  0
 22  1  2  0  0  0  0
 23 10  1  0  0  0  0
 24 23  1  0  0  0  0
 25 23  2  0  0  0  0
 27 26  1  0  0  0  0
 28 32  1  1  0  0  0
 28 29  1  0  0  0  0
 28 30  1  0  0  0  0
 29 30  1  0  0  0  0
 30 27  1  1  0  0  0
 31 32  1  0  0  0  0
M  END
>  <MODEL>
2

>  <REMARK>
 VINA RESULT:      -8.4      1.677      6.959
  Name = 
  5 active torsions:
  status: ('A' for Active; 'I' for Inactive)
    1  A    between atoms: C_2  and  C_16
    2  A    between atoms: C_3  and  C_29
    3  A    between atoms: C_12  and  C_28
    4  A    between atoms: N_13  and  C_17
    5  A    between atoms: C_17  and  C_28
                            x       y       z     vdW  Elec       q    Type
                         _______ _______ _______ _____ _____    ______ ____

>  <TORSDO>
F 5

$$$$
=
 OpenBabel11042419313D

 32 37  0  0  1  0  0  0  0  0999 V2000
  192.0700  176.4120  145.9050 C   0  0  0  0  0  3  0  0  0  0  0  0
  190.0640  173.9050  141.2800 C   0  0  0  0  0  0  0  0  0  0  0  0
  190.5970  174.5030  142.4350 C   0  0  0  0  0  0  0  0  0  0  0  0
  187.9970  177.2640  142.9120 C   0  0  0  0  0  0  0  0  0  0  0  0
  193.2340  175.9250  146.5000 C   0  0  0  0  0  3  0  0  0  0  0  0
  193.8760  174.8530  145.9640 N   0  0  0  0  0  0  0  0  0  0  0  0
  192.4640  172.9440  142.5520 O   0  0  0  0  0  1  0  0  0  0  0  0
  186.9120  177.7080  142.3470 N   0  0  0  0  0  0  0  0  0  0  0  0
  192.2480  174.6820  144.2150 C   0  0  0  0  0  0  0  0  0  0  0  0
  189.5470  172.7290  139.5190 C   0  0  0  0  0  0  0  0  0  0  0  0
  191.7700  174.0390  143.0630 C   0  0  0  0  0  0  0  0  0  0  0  0
  188.7120  176.0990  142.3420 C   0  0  0  0  0  0  0  0  0  0  0  0
  188.9210  174.3740  140.6880 C   0  0  0  0  0  0  0  0  0  0  0  0
  188.5510  177.9010  144.1230 C   0  0  0  0  0  3  0  0  0  0  0  0
  188.2200  175.4640  141.1860 C   0  0  0  0  0  3  0  0  0  0  0  0
  190.4990  172.8230  140.5330 C   0  0  0  0  0  3  0  0  0  0  0  0
  189.6640  177.4350  144.6900 C   0  0  0  0  0  3  0  0  0  0  0  0
  190.3890  176.2670  144.1330 C   0  0  0  0  0  0  0  0  0  0  0  0
  189.9000  175.6240  142.9720 C   0  0  0  0  0  0  0  0  0  0  0  0
  188.6220  173.6630  139.6350 O   0  0  0  0  0  0  0  0  0  0  0  0
  193.4120  174.2300  144.8490 C   0  0  0  0  0  3  0  0  0  0  0  0
  191.5630  175.7950  144.7530 C   0  0  0  0  0  0  0  0  0  0  0  0
  189.5550  171.7280  138.4490 C   0  0  0  0  0  0  0  0  0  0  0  0
  189.3800  172.1210  137.0910 N   0  0  0  0  0  1  0  0  0  0  0  0
  189.7190  170.5110  138.7270 O   0  0  0  0  0  0  0  0  0  0  0  0
  186.1340  178.8390  142.8400 C   0  0  0  0  0  2  0  0  0  0  0  0
  185.0490  178.3540  143.7850 C   0  0  0  0  0  2  0  0  0  0  0  0
  185.3880  178.4470  146.3420 C   0  0  2  0  0  3  0  0  0  0  0  0
  183.9480  178.7400  145.9720 C   0  0  0  0  0  2  0  0  0  0  0  0
  185.0550  179.2050  145.0480 C   0  0  2  0  0  3  0  0  0  0  0  0
  186.8440  176.5590  147.0280 C   0  0  0  0  0  1  0  0  0  0  0  0
  185.6630  176.9590  146.1680 C   0  0  0  0  0  2  0  0  0  0  0  0
  1  5  1  0  0  0  0
  2  3  1  0  0  0  0
  3 19  1  0  0  0  0
  3 11  2  0  0  0  0
  4 14  1  0  0  0  0
  6  5  2  0  0  0  0
  7 11  1  0  0  0  0
  8 26  1  0  0  0  0
  8  4  2  0  0  0  0
  9 22  1  0  0  0  0
  9 21  2  0  0  0  0
 10 20  1  0  0  0  0
 10 16  2  0  0  0  0
 11  9  1  0  0  0  0
 12  4  1  0  0  0  0
 12 19  1  0  0  0  0
 13 15  1  0  0  0  0
 13  2  2  0  0  0  0
 14 17  2  0  0  0  0
 15 12  2  0  0  0  0
 16  2  1  0  0  0  0
 18 17  1  0  0  0  0
 18 22  1  0  0  0  0
 19 18  2  0  0  0  0
 20 13  1  0  0  0  0
 21  6  1  0  0  0  0
 22  1  2  0  0  0  0
 23 25  2  0  0  0  0
 23 10  1  0  0  0  0
 24 23  1  0  0  0  0
 26 27  1  0  0  0  0
 28 32  1  6  0  0  0
 29 28  1  0  0  0  0
 30 27  1  6  0  0  0
 30 29  1  0  0  0  0
 30 28  1  0  0  0  0
 32 31  1  0  0  0  0
M  END
>  <MODEL>
3

>  <REMARK>
 VINA RESULT:      -8.2      2.194      6.825
  Name = 
  5 active torsions:
  status: ('A' for Active; 'I' for Inactive)
    1  A    between atoms: C_2  and  C_16
    2  A    between atoms: C_3  and  C_29
    3  A    between atoms: C_12  and  C_28
    4  A    between atoms: N_13  and  C_17
    5  A    between atoms: C_17  and  C_28
                            x       y       z     vdW  Elec       q    Type
                         _______ _______ _______ _____ _____    ______ ____

>  <TORSDO>
F 5

$$$$
=
 OpenBabel11042419313D

 32 37  0  0  1  0  0  0  0  0999 V2000
  188.3480  173.4100  139.7760 C   0  0  0  0  0  3  0  0  0  0  0  0
  191.6000  175.6300  143.7990 C   0  0  0  0  0  0  0  0  0  0  0  0
  190.8190  175.0470  142.7870 C   0  0  0  0  0  0  0  0  0  0  0  0
  187.7510  177.3120  143.0450 C   0  0  0  0  0  0  0  0  0  0  0  0
  188.8140  172.3200  139.0410 C   0  0  0  0  0  3  0  0  0  0  0  0
  190.0430  171.8000  139.2970 N   0  0  0  0  0  0  0  0  0  0  0  0
  192.5080  173.3760  142.2490 O   0  0  0  0  0  1  0  0  0  0  0  0
  187.3290  178.3300  143.7370 N   0  0  0  0  0  2  0  0  0  0  0  0
  190.4260  173.4120  141.0270 C   0  0  0  0  0  0  0  0  0  0  0  0
  193.0800  176.2550  145.2730 C   0  0  0  0  0  0  0  0  0  0  0  0
  191.2560  173.9450  142.0240 C   0  0  0  0  0  0  0  0  0  0  0  0
  189.0870  176.7300  143.3110 C   0  0  0  0  0  0  0  0  0  0  0  0
  191.1540  176.7010  144.5270 C   0  0  0  0  0  0  0  0  0  0  0  0
  186.9220  176.7050  141.9850 C   0  0  0  0  0  3  0  0  0  0  0  0
  189.9090  177.2770  144.3140 C   0  0  0  0  0  3  0  0  0  0  0  0
  192.8650  175.3140  144.2680 C   0  0  0  0  0  3  0  0  0  0  0  0
  187.3680  175.6630  141.2840 C   0  0  0  0  0  2  0  0  0  0  0  0
  188.7040  175.0710  141.5360 C   0  0  0  0  0  0  0  0  0  0  0  0
  189.5350  175.6150  142.5430 C   0  0  0  0  0  0  0  0  0  0  0  0
  192.0480  177.0660  145.4060 O   0  0  0  0  0  0  0  0  0  0  0  0
  190.8480  172.3170  140.2630 C   0  0  0  0  0  3  0  0  0  0  0  0
  189.1500  173.9690  140.7800 C   0  0  0  0  0  0  0  0  0  0  0  0
  194.2930  176.3490  146.0910 C   0  0  0  0  0  0  0  0  0  0  0  0
  195.2070  175.2600  146.1530 N   0  0  0  0  0  1  0  0  0  0  0  0
  194.5320  177.3990  146.7440 O   0  0  0  0  0  0  0  0  0  0  0  0
  186.0370  178.9770  143.5420 C   0  0  0  0  0  2  0  0  0  0  0  0
  185.0410  178.4780  144.5730 C   0  0  0  0  0  2  0  0  0  0  0  0
  185.8840  178.1750  146.9940 C   0  0  2  0  0  3  0  0  0  0  0  0
  184.4130  178.5370  146.9710 C   0  0  0  0  0  2  0  0  0  0  0  0
  185.3330  179.1250  145.9210 C   0  0  2  0  0  3  0  0  0  0  0  0
  187.4880  176.2930  146.7910 C   0  0  0  0  0  1  0  0  0  0  0  0
  186.0580  176.7280  146.5500 C   0  0  0  0  0  2  0  0  0  0  0  0
  1 22  1  0  0  0  0
  2 16  1  0  0  0  0
  2 13  1  0  0  0  0
  3  2  2  0  0  0  0
  4 12  1  0  0  0  0
  4  8  1  0  0  0  0
  5  6  1  0  0  0  0
  5  1  2  0  0  0  0
  6 21  2  0  0  0  0
  9 11  2  0  0  0  0
 10 20  1  0  0  0  0
 10 23  1  0  0  0  0
 11  7  1  0  0  0  0
 11  3  1  0  0  0  0
 12 15  1  0  0  0  0
 13 20  1  0  0  0  0
 14  4  2  0  0  0  0
 15 13  2  0  0  0  0
 16 10  2  0  0  0  0
 17 18  1  0  0  0  0
 17 14  1  0  0  0  0
 18 19  1  0  0  0  0
 19  3  1  0  0  0  0
 19 12  2  0  0  0  0
 21  9  1  0  0  0  0
 22  9  1  0  0  0  0
 22 18  2  0  0  0  0
 23 24  1  0  0  0  0
 23 25  2  0  0  0  0
 26  8  1  0  0  0  0
 26 27  1  0  0  0  0
 28 32  1  6  0  0  0
 29 28  1  0  0  0  0
 30 27  1  6  0  0  0
 30 29  1  0  0  0  0
 30 28  1  0  0  0  0
 32 31  1  0  0  0  0
M  END
>  <MODEL>
4

>  <REMARK>
 VINA RESULT:      -8.2      2.568      7.921
  Name = 
  5 active torsions:
  status: ('A' for Active; 'I' for Inactive)
    1  A    between atoms: C_2  and  C_16
    2  A    between atoms: C_3  and  C_29
    3  A    between atoms: C_12  and  C_28
    4  A    between atoms: N_13  and  C_17
    5  A    between atoms: C_17  and  C_28
                            x       y       z     vdW  Elec       q    Type
                         _______ _______ _______ _____ _____    ______ ____

>  <TORSDO>
F 5

$$$$
=
 OpenBabel11042419313D

 32 37  0  0  1  0  0  0  0  0999 V2000
  185.1250  177.5240  145.4170 C   0  0  0  0  0  3  0  0  0  0  0  0
  190.6770  176.5910  145.4030 C   0  0  0  0  0  0  0  0  0  0  0  0
  189.2950  176.8410  145.4460 C   0  0  0  0  0  0  0  0  0  0  0  0
  188.3440  175.4300  142.0230 C   0  0  0  0  0  0  0  0  0  0  0  0
  184.5340  178.1300  146.5260 C   0  0  0  0  0  3  0  0  0  0  0  0
  185.2950  178.4910  147.5920 N   0  0  0  0  0  0  0  0  0  0  0  0
  189.4000  177.8400  147.6640 O   0  0  0  0  0  1  0  0  0  0  0  0
  188.9080  174.8650  140.9950 N   0  0  0  0  0  0  0  0  0  0  0  0
  187.2770  177.6720  146.5250 C   0  0  0  0  0  0  0  0  0  0  0  0
  192.8250  176.3680  145.6990 C   0  0  0  0  0  0  0  0  0  0  0  0
  188.6620  177.4510  146.5470 C   0  0  0  0  0  0  0  0  0  0  0  0
  189.1570  175.8320  143.1930 C   0  0  0  0  0  0  0  0  0  0  0  0
  191.2680  175.9960  144.3200 C   0  0  0  0  0  0  0  0  0  0  0  0
  186.8920  175.6910  142.0560 C   0  0  0  0  0  3  0  0  0  0  0  0
  190.5460  175.6040  143.2020 C   0  0  0  0  0  3  0  0  0  0  0  0
  191.6760  176.8470  146.3270 C   0  0  0  0  0  3  0  0  0  0  0  0
  186.3280  176.2710  143.1160 C   0  0  0  0  0  3  0  0  0  0  0  0
  187.1280  176.6770  144.2970 C   0  0  0  0  0  0  0  0  0  0  0  0
  188.5240  176.4500  144.3120 C   0  0  0  0  0  0  0  0  0  0  0  0
  192.5540  175.8680  144.5100 O   0  0  0  0  0  0  0  0  0  0  0  0
  186.6370  178.2770  147.6140 C   0  0  0  0  0  3  0  0  0  0  0  0
  186.5070  177.2880  145.4040 C   0  0  0  0  0  0  0  0  0  0  0  0
  194.1740  176.4060  146.2730 C   0  0  0  0  0  0  0  0  0  0  0  0
  195.0460  175.2880  146.1390 N   0  0  0  0  0  1  0  0  0  0  0  0
  194.5680  177.4310  146.8870 O   0  0  0  0  0  0  0  0  0  0  0  0
  188.1920  174.4230  139.8040 C   0  0  0  0  0  2  0  0  0  0  0  0
  188.5640  172.9900  139.4710 C   0  0  0  0  0  2  0  0  0  0  0  0
  190.6690  171.6350  138.8440 C   0  0  2  0  0  3  0  0  0  0  0  0
  190.3320  171.4680  140.3120 C   0  0  0  0  0  2  0  0  0  0  0  0
  190.0660  172.8000  139.6410 C   0  0  2  0  0  3  0  0  0  0  0  0
  190.1410  169.4070  137.8880 C   0  0  0  0  0  1  0  0  0  0  0  0
  189.6770  170.8440  138.0020 C   0  0  0  0  0  2  0  0  0  0  0  0
  1  5  1  0  0  0  0
  2  3  1  0  0  0  0
  2 16  1  0  0  0  0
  3 11  2  0  0  0  0
  4 14  1  0  0  0  0
  4 12  1  0  0  0  0
  5  6  2  0  0  0  0
  6 21  1  0  0  0  0
  8  4  2  0  0  0  0
  9 11  1  0  0  0  0
  9 21  2  0  0  0  0
 10 23  1  0  0  0  0
 10 16  2  0  0  0  0
 11  7  1  0  0  0  0
 12 15  2  0  0  0  0
 12 19  1  0  0  0  0
 13 20  1  0  0  0  0
 13  2  2  0  0  0  0
 14 17  2  0  0  0  0
 15 13  1  0  0  0  0
 17 18  1  0  0  0  0
 18 19  2  0  0  0  0
 18 22  1  0  0  0  0
 19  3  1  0  0  0  0
 20 10  1  0  0  0  0
 22  1  2  0  0  0  0
 22  9  1  0  0  0  0
 23 25  2  0  0  0  0
 24 23  1  0  0  0  0
 26  8  1  0  0  0  0
 27 26  1  0  0  0  0
 28 32  1  6  0  0  0
 28 30  1  0  0  0  0
 28 29  1  0  0  0  0
 30 27  1  6  0  0  0
 30 29  1  0  0  0  0
 31 32  1  0  0  0  0
M  END
>  <MODEL>
5

>  <REMARK>
 VINA RESULT:      -8.0      2.619      6.195
  Name = 
  5 active torsions:
  status: ('A' for Active; 'I' for Inactive)
    1  A    between atoms: C_2  and  C_16
    2  A    between atoms: C_3  and  C_29
    3  A    between atoms: C_12  and  C_28
    4  A    between atoms: N_13  and  C_17
    5  A    between atoms: C_17  and  C_28
                            x       y       z     vdW  Elec       q    Type
                         _______ _______ _______ _____ _____    ______ ____

>  <TORSDO>
F 5

$$$$
=
 OpenBabel11042419313D

 32 37  0  0  1  0  0  0  0  0999 V2000
  190.7930  173.7610  140.3390 C   0  0  0  0  0  3  0  0  0  0  0  0
  188.2150  176.5130  144.5200 C   0  0  0  0  0  0  0  0  0  0  0  0
  188.8200  175.8180  143.4590 C   0  0  0  0  0  0  0  0  0  0  0  0
  192.4730  176.2260  144.5070 C   0  0  0  0  0  0  0  0  0  0  0  0
  190.0290  173.1830  139.3250 C   0  0  0  0  0  3  0  0  0  0  0  0
  188.6740  173.2850  139.3490 N   0  0  0  0  0  0  0  0  0  0  0  0
  186.6910  175.2990  142.3970 O   0  0  0  0  0  1  0  0  0  0  0  0
  193.1740  176.7690  145.4590 N   0  0  0  0  0  2  0  0  0  0  0  0
  188.7490  174.5410  141.3880 C   0  0  0  0  0  0  0  0  0  0  0  0
  186.9350  177.5000  145.9820 C   0  0  0  0  0  0  0  0  0  0  0  0
  188.0820  175.2210  142.4170 C   0  0  0  0  0  0  0  0  0  0  0  0
  190.9960  176.3290  144.5140 C   0  0  0  0  0  0  0  0  0  0  0  0
  188.9540  177.0840  145.5220 C   0  0  0  0  0  0  0  0  0  0  0  0
  193.1190  175.5010  143.3950 C   0  0  0  0  0  3  0  0  0  0  0  0
  190.3400  177.0140  145.5540 C   0  0  0  0  0  3  0  0  0  0  0  0
  186.8830  176.7700  144.7960 C   0  0  0  0  0  3  0  0  0  0  0  0
  192.3880  174.9500  142.4260 C   0  0  0  0  0  2  0  0  0  0  0  0
  190.9080  175.0410  142.4210 C   0  0  0  0  0  0  0  0  0  0  0  0
  190.2430  175.7280  143.4630 C   0  0  0  0  0  0  0  0  0  0  0  0
  188.1770  177.6720  146.3910 O   0  0  0  0  0  0  0  0  0  0  0  0
  188.0270  173.9440  140.3470 C   0  0  0  0  0  3  0  0  0  0  0  0
  190.1600  174.4490  141.3840 C   0  0  0  0  0  0  0  0  0  0  0  0
  185.7680  178.0210  146.7010 C   0  0  0  0  0  0  0  0  0  0  0  0
  185.9100  179.0970  147.6220 N   0  0  0  0  0  1  0  0  0  0  0  0
  184.6320  177.5160  146.5040 O   0  0  0  0  0  0  0  0  0  0  0  0
  194.6280  176.7120  145.5450 C   0  0  0  0  0  2  0  0  0  0  0  0
  195.0600  175.4390  146.2500 C   0  0  0  0  0  2  0  0  0  0  0  0
  195.5930  173.2230  145.0380 C   0  0  2  0  0  3  0  0  0  0  0  0
  196.5990  173.4980  146.1370 C   0  0  0  0  0  2  0  0  0  0  0  0
  196.0210  174.6620  145.3590 C   0  0  2  0  0  3  0  0  0  0  0  0
  193.4830  171.9770  144.6490 C   0  0  0  0  0  1  0  0  0  0  0  0
  194.2710  172.7870  145.6570 C   0  0  0  0  0  2  0  0  0  0  0  0
  1 22  1  0  0  0  0
  2 16  1  0  0  0  0
  2 13  1  0  0  0  0
  3 19  1  0  0  0  0
  3  2  2  0  0  0  0
  4 12  1  0  0  0  0
  4  8  1  0  0  0  0
  5  6  1  0  0  0  0
  5  1  2  0  0  0  0
  6 21  2  0  0  0  0
  7 11  1  0  0  0  0
  8 26  1  0  0  0  0
  9 11  2  0  0  0  0
 10 20  1  0  0  0  0
 10 23  1  0  0  0  0
 11  3  1  0  0  0  0
 12 15  1  0  0  0  0
 13 15  2  0  0  0  0
 13 20  1  0  0  0  0
 14  4  2  0  0  0  0
 16 10  2  0  0  0  0
 17 14  1  0  0  0  0
 18 17  1  0  0  0  0
 18 19  1  0  0  0  0
 19 12  2  0  0  0  0
 21  9  1  0  0  0  0
 22  9  1  0  0  0  0
 22 18  2  0  0  0  0
 23 24  1  0  0  0  0
 25 23  2  0  0  0  0
 26 27  1  0  0  0  0
 28 30  1  0  0  0  0
 28 32  1  1  0  0  0
 28 29  1  0  0  0  0
 30 29  1  0  0  0  0
 30 27  1  1  0  0  0
 31 32  1  0  0  0  0
M  END
>  <MODEL>
6

>  <REMARK>
 VINA RESULT:      -7.8      1.738      5.479
  Name = 
  5 active torsions:
  status: ('A' for Active; 'I' for Inactive)
    1  A    between atoms: C_2  and  C_16
    2  A    between atoms: C_3  and  C_29
    3  A    between atoms: C_12  and  C_28
    4  A    between atoms: N_13  and  C_17
    5  A    between atoms: C_17  and  C_28
                            x       y       z     vdW  Elec       q    Type
                         _______ _______ _______ _____ _____    ______ ____

>  <TORSDO>
F 5

$$$$
=
 OpenBabel11042419313D

 32 37  0  0  1  0  0  0  0  0999 V2000
  193.1610  175.2180  144.7030 C   0  0  0  0  0  3  0  0  0  0  0  0
  187.8340  176.9740  145.1910 C   0  0  0  0  0  0  0  0  0  0  0  0
  189.1720  176.5510  145.1090 C   0  0  0  0  0  0  0  0  0  0  0  0
  189.0720  174.9900  141.6210 C   0  0  0  0  0  0  0  0  0  0  0  0
  194.0550  175.4400  145.7510 C   0  0  0  0  0  3  0  0  0  0  0  0
  193.6410  176.0740  146.8790 N   0  0  0  0  0  0  0  0  0  0  0  0
  189.7270  177.4020  147.3220 O   0  0  0  0  0  1  0  0  0  0  0  0
  188.2280  174.7900  140.6510 N   0  0  0  0  0  0  0  0  0  0  0  0
  191.4250  176.3100  145.9980 C   0  0  0  0  0  0  0  0  0  0  0  0
  185.8620  177.7650  145.6800 C   0  0  0  0  0  0  0  0  0  0  0  0
  190.1040  176.7570  146.1460 C   0  0  0  0  0  0  0  0  0  0  0  0
  188.6380  175.6780  142.8590 C   0  0  0  0  0  0  0  0  0  0  0  0
  186.9470  176.7630  144.1690 C   0  0  0  0  0  0  0  0  0  0  0  0
  190.4740  174.5390  141.5260 C   0  0  0  0  0  3  0  0  0  0  0  0
  187.3090  176.1210  142.9930 C   0  0  0  0  0  3  0  0  0  0  0  0
  187.1490  177.6310  146.2000 C   0  0  0  0  0  3  0  0  0  0  0  0
  191.3280  174.7500  142.5280 C   0  0  0  0  0  3  0  0  0  0  0  0
  190.9100  175.4400  143.7720 C   0  0  0  0  0  0  0  0  0  0  0  0
  189.5760  175.8890  143.9130 C   0  0  0  0  0  0  0  0  0  0  0  0
  185.7710  177.2410  144.4730 O   0  0  0  0  0  0  0  0  0  0  0  0
  192.3600  176.5080  147.0210 C   0  0  0  0  0  3  0  0  0  0  0  0
  191.8320  175.6510  144.8160 C   0  0  0  0  0  0  0  0  0  0  0  0
  184.7390  178.4040  146.3720 C   0  0  0  0  0  0  0  0  0  0  0  0
  183.6940  179.0250  145.6290 N   0  0  0  0  0  1  0  0  0  0  0  0
  184.6930  178.4050  147.6290 O   0  0  0  0  0  0  0  0  0  0  0  0
  188.5630  174.1340  139.3930 C   0  0  0  0  0  2  0  0  0  0  0  0
  188.3670  172.6340  139.5170 C   0  0  0  0  0  2  0  0  0  0  0  0
  190.3520  171.0540  139.0430 C   0  0  2  0  0  3  0  0  0  0  0  0
  190.6350  172.4520  138.5330 C   0  0  0  0  0  2  0  0  0  0  0  0
  189.2180  171.9200  138.4760 C   0  0  2  0  0  3  0  0  0  0  0  0
  191.9120  171.1010  140.9720 C   0  0  0  0  0  1  0  0  0  0  0  0
  190.4550  171.0380  140.5630 C   0  0  0  0  0  2  0  0  0  0  0  0
  1 22  2  0  0  0  0
  1  5  1  0  0  0  0
  2 16  1  0  0  0  0
  3  2  1  0  0  0  0
  3 11  2  0  0  0  0
  4 12  1  0  0  0  0
  5  6  2  0  0  0  0
  6 21  1  0  0  0  0
  8  4  2  0  0  0  0
  9 11  1  0  0  0  0
  9 21  2  0  0  0  0
 10 16  2  0  0  0  0
 10 23  1  0  0  0  0
 11  7  1  0  0  0  0
 12 15  2  0  0  0  0
 12 19  1  0  0  0  0
 13 20  1  0  0  0  0
 13  2  2  0  0  0  0
 14  4  1  0  0  0  0
 14 17  2  0  0  0  0
 15 13  1  0  0  0  0
 17 18  1  0  0  0  0
 18 19  2  0  0  0  0
 18 22  1  0  0  0  0
 19  3  1  0  0  0  0
 20 10  1  0  0  0  0
 22  9  1  0  0  0  0
 23 25  2  0  0  0  0
 24 23  1  0  0  0  0
 26 27  1  0  0  0  0
 26  8  1  0  0  0  0
 28 32  1  1  0  0  0
 29 28  1  0  0  0  0
 30 29  1  0  0  0  0
 30 28  1  0  0  0  0
 30 27  1  1  0  0  0
 32 31  1  0  0  0  0
M  END
>  <MODEL>
7

>  <REMARK>
 VINA RESULT:      -7.5      2.271      6.891
  Name = 
  5 active torsions:
  status: ('A' for Active; 'I' for Inactive)
    1  A    between atoms: C_2  and  C_16
    2  A    between atoms: C_3  and  C_29
    3  A    between atoms: C_12  and  C_28
    4  A    between atoms: N_13  and  C_17
    5  A    between atoms: C_17  and  C_28
                            x       y       z     vdW  Elec       q    Type
                         _______ _______ _______ _____ _____    ______ ____

>  <TORSDO>
F 5

$$$$
=
 OpenBabel11042419313D

 32 37  0  0  1  0  0  0  0  0999 V2000
  192.7350  174.6280  144.8650 C   0  0  0  0  0  3  0  0  0  0  0  0
  187.5180  176.6960  144.4060 C   0  0  0  0  0  0  0  0  0  0  0  0
  188.8260  176.2030  144.5560 C   0  0  0  0  0  0  0  0  0  0  0  0
  188.9510  173.9450  141.4750 C   0  0  0  0  0  0  0  0  0  0  0  0
  193.5380  175.0240  145.9340 C   0  0  0  0  0  3  0  0  0  0  0  0
  193.0620  175.9020  146.8560 N   0  0  0  0  0  0  0  0  0  0  0  0
  189.2240  177.4760  146.5940 O   0  0  0  0  0  1  0  0  0  0  0  0
  188.1920  173.5840  140.4820 N   0  0  0  0  0  0  0  0  0  0  0  0
  190.9620  176.0490  145.7130 C   0  0  0  0  0  0  0  0  0  0  0  0
  185.5670  177.6640  144.5070 C   0  0  0  0  0  0  0  0  0  0  0  0
  189.6660  176.5790  145.6230 C   0  0  0  0  0  0  0  0  0  0  0  0
  188.4500  174.8990  142.4900 C   0  0  0  0  0  0  0  0  0  0  0  0
  186.7200  176.3150  143.3600 C   0  0  0  0  0  0  0  0  0  0  0  0
  190.3220  173.4180  141.6250 C   0  0  0  0  0  3  0  0  0  0  0  0
  187.1480  175.4230  142.3870 C   0  0  0  0  0  3  0  0  0  0  0  0
  186.7870  177.5830  145.1780 C   0  0  0  0  0  3  0  0  0  0  0  0
  191.0890  173.7970  142.6480 C   0  0  0  0  0  3  0  0  0  0  0  0
  190.6020  174.7540  143.6720 C   0  0  0  0  0  0  0  0  0  0  0  0
  189.2950  175.2840  143.5730 C   0  0  0  0  0  0  0  0  0  0  0  0
  185.5550  176.9010  143.4310 O   0  0  0  0  0  0  0  0  0  0  0  0
  191.8070  176.4160  146.7680 C   0  0  0  0  0  3  0  0  0  0  0  0
  191.4340  175.1370  144.7420 C   0  0  0  0  0  0  0  0  0  0  0  0
  184.4300  178.4870  144.9270 C   0  0  0  0  0  0  0  0  0  0  0  0
  184.1400  178.6640  146.3100 N   0  0  0  0  0  1  0  0  0  0  0  0
  183.7020  179.0420  144.0640 O   0  0  0  0  0  0  0  0  0  0  0  0
  188.5990  172.6620  139.4280 C   0  0  0  0  0  2  0  0  0  0  0  0
  188.5670  173.3610  138.0810 C   0  0  0  0  0  2  0  0  0  0  0  0
  190.5870  172.8830  136.5470 C   0  0  2  0  0  3  0  0  0  0  0  0
  190.9250  172.6000  137.9970 C   0  0  0  0  0  2  0  0  0  0  0  0
  189.9830  173.7400  137.6680 C   0  0  2  0  0  3  0  0  0  0  0  0
  190.2530  170.4300  136.3810 C   0  0  0  0  0  1  0  0  0  0  0  0
  189.6790  171.7820  136.0140 C   0  0  0  0  0  2  0  0  0  0  0  0
  1  5  1  0  0  0  0
  2  3  1  0  0  0  0
  2 16  1  0  0  0  0
  3 11  2  0  0  0  0
  4 14  1  0  0  0  0
  4 12  1  0  0  0  0
  5  6  2  0  0  0  0
  8  4  2  0  0  0  0
  9 21  2  0  0  0  0
 10 23  1  0  0  0  0
 10 16  2  0  0  0  0
 11  9  1  0  0  0  0
 11  7  1  0  0  0  0
 12 19  1  0  0  0  0
 13 20  1  0  0  0  0
 13  2  2  0  0  0  0
 14 17  2  0  0  0  0
 15 12  2  0  0  0  0
 15 13  1  0  0  0  0
 17 18  1  0  0  0  0
 18 22  1  0  0  0  0
 19 18  2  0  0  0  0
 19  3  1  0  0  0  0
 20 10  1  0  0  0  0
 21  6  1  0  0  0  0
 22  1  2  0  0  0  0
 22  9  1  0  0  0  0
 23 24  1  0  0  0  0
 25 23  2  0  0  0  0
 26  8  1  0  0  0  0
 27 26  1  0  0  0  0
 28 32  1  1  0  0  0
 28 30  1  0  0  0  0
 28 29  1  0  0  0  0
 30 29  1  0  0  0  0
 30 27  1  1  0  0  0
 32 31  1  0  0  0  0
M  END
>  <MODEL>
8

>  <REMARK>
 VINA RESULT:      -7.4      2.180      7.117
  Name = 
  5 active torsions:
  status: ('A' for Active; 'I' for Inactive)
    1  A    between atoms: C_2  and  C_16
    2  A    between atoms: C_3  and  C_29
    3  A    between atoms: C_12  and  C_28
    4  A    between atoms: N_13  and  C_17
    5  A    between atoms: C_17  and  C_28
                            x       y       z     vdW  Elec       q    Type
                         _______ _______ _______ _____ _____    ______ ____

>  <TORSDO>
F 5

$$$$
=
 OpenBabel11042419313D

 32 37  0  0  1  0  0  0  0  0999 V2000
  195.3100  174.7580  146.0020 C   0  0  0  0  0  3  0  0  0  0  0  0
  191.2720  174.2330  142.1140 C   0  0  0  0  0  0  0  0  0  0  0  0
  192.3070  174.3430  143.0580 C   0  0  0  0  0  0  0  0  0  0  0  0
  190.4220  176.2820  145.7600 C   0  0  0  0  0  0  0  0  0  0  0  0
  196.5720  174.2150  145.7580 C   0  0  0  0  0  3  0  0  0  0  0  0
  196.8210  173.5660  144.5910 N   0  0  0  0  0  0  0  0  0  0  0  0
  193.8980  173.1340  141.6670 O   0  0  0  0  0  1  0  0  0  0  0  0
  189.2400  176.7830  145.9750 N   0  0  0  0  0  2  0  0  0  0  0  0
  194.5810  173.9530  143.8330 C   0  0  0  0  0  0  0  0  0  0  0  0
  189.9370  173.8670  140.4290 C   0  0  0  0  0  0  0  0  0  0  0  0
  193.5930  173.8080  142.8480 C   0  0  0  0  0  0  0  0  0  0  0  0
  190.7140  175.5730  144.4930 C   0  0  0  0  0  0  0  0  0  0  0  0
  190.0290  174.7610  142.3420 C   0  0  0  0  0  0  0  0  0  0  0  0
  191.5030  176.4050  146.7580 C   0  0  0  0  0  3  0  0  0  0  0  0
  189.7120  175.4350  143.5130 C   0  0  0  0  0  3  0  0  0  0  0  0
  191.2420  173.6390  140.8630 C   0  0  0  0  0  3  0  0  0  0  0  0
  192.7090  175.8870  146.5230 C   0  0  0  0  0  3  0  0  0  0  0  0
  193.0150  175.1710  145.2610 C   0  0  0  0  0  0  0  0  0  0  0  0
  192.0130  175.0290  144.2730 C   0  0  2  0  0  3  0  0  0  0  0  0
  189.2390  174.5360  141.3270 O   0  0  0  0  0  0  0  0  0  0  0  0
  195.8630  173.4260  143.6360 C   0  0  0  0  0  3  0  0  0  0  0  0
  194.2980  174.6330  145.0400 C   0  0  0  0  0  0  0  0  0  0  0  0
  189.3900  173.4290  139.1420 C   0  0  0  0  0  0  0  0  0  0  0  0
  188.1910  172.6620  139.0920 N   0  0  0  0  0  1  0  0  0  0  0  0
  189.9800  173.7310  138.0720 O   0  0  0  0  0  0  0  0  0  0  0  0
  188.8550  177.4860  147.1930 C   0  0  0  0  0  2  0  0  0  0  0  0
  187.4020  177.9170  147.1090 C   0  0  0  0  0  2  0  0  0  0  0  0
  185.8630  177.1080  145.2020 C   0  0  2  0  0  3  0  0  0  0  0  0
  185.1070  177.1940  146.5130 C   0  0  0  0  0  2  0  0  0  0  0  0
  186.5660  176.7850  146.5290 C   0  0  2  0  0  3  0  0  0  0  0  0
  186.6070  178.4280  143.2370 C   0  0  0  0  0  1  0  0  0  0  0  0
  186.1080  178.5120  144.6650 C   0  0  0  0  0  2  0  0  0  0  0  0
  2 13  2  0  0  0  0
  2  3  1  0  0  0  0
  4  8  1  0  0  0  0
  4 14  2  0  0  0  0
  5  1  1  0  0  0  0
  6  5  2  0  0  0  0
  7 11  1  0  0  0  0
  8 26  1  0  0  0  0
  9 22  1  0  0  0  0
 10 16  2  0  0  0  0
 10 20  1  0  0  0  0
 11  3  2  0  0  0  0
 11  9  1  0  0  0  0
 12  4  1  0  0  0  0
 13 15  1  0  0  0  0
 15 12  2  0  0  0  0
 16  2  1  0  0  0  0
 17 14  1  0  0  0  0
 18 17  2  0  0  0  0
 19  3  1  6  0  0  0
 19 12  1  0  0  0  0
 19 18  1  0  0  0  0
 20 13  1  0  0  0  0
 21  9  2  0  0  0  0
 21  6  1  0  0  0  0
 22 18  1  0  0  0  0
 22  1  2  0  0  0  0
 23 10  1  0  0  0  0
 24 23  1  0  0  0  0
 25 23  2  0  0  0  0
 27 26  1  0  0  0  0
 28 32  1  1  0  0  0
 28 29  1  0  0  0  0
 28 30  1  0  0  0  0
 29 30  1  0  0  0  0
 30 27  1  1  0  0  0
 31 32  1  0  0  0  0
M  END
>  <MODEL>
9

>  <REMARK>
 VINA RESULT:      -7.4      1.919      7.180
  Name = 
  5 active torsions:
  status: ('A' for Active; 'I' for Inactive)
    1  A    between atoms: C_2  and  C_16
    2  A    between atoms: C_3  and  C_29
    3  A    between atoms: C_12  and  C_28
    4  A    between atoms: N_13  and  C_17
    5  A    between atoms: C_17  and  C_28
                            x       y       z     vdW  Elec       q    Type
                         _______ _______ _______ _____ _____    ______ ____

>  <TORSDO>
F 5

$$$$
