=
 OpenBabel11042414073D

 49 55  0  0  1  0  0  0  0  0999 V2000
  188.4410  176.3740  145.1660 C   0  0  0  0  0  3  0  0  0  0  0  0
  187.9330  175.5570  140.8810 C   0  0  0  0  0  0  0  0  0  0  0  0
  188.8660  175.2860  143.0110 C   0  0  0  0  0  0  0  0  0  0  0  0
  189.6420  174.2560  142.5710 C   0  0  0  0  0  0  0  0  0  0  0  0
  185.5640  179.6910  144.4540 C   0  0  0  0  0  1  0  0  0  0  0  0
  186.9370  177.6820  143.5720 C   0  0  0  0  0  0  0  0  0  0  0  0
  189.5320  173.7740  141.2670 C   0  0  0  0  0  0  0  0  0  0  0  0
  190.1450  172.4680  140.9040 C   0  0  0  0  0  2  0  0  0  0  0  0
  186.0110  178.7700  143.3690 C   0  0  0  0  0  0  0  0  0  0  0  0
  190.3770  173.8210  143.6480 C   0  0  0  0  0  0  0  0  0  0  0  0
  186.6580  177.2730  141.1770 C   0  0  0  0  0  0  0  0  0  0  0  0
  190.0280  174.5650  144.7380 N   0  0  0  0  0  0  0  0  0  0  0  0
  191.0290  171.2910  138.4760 O   0  0  0  0  0  0  0  0  0  0  0  0
  192.0430  172.4640  144.6300 O   0  0  0  0  0  0  0  0  0  0  0  0
  185.5050  179.0370  142.1240 N   0  0  0  0  0  0  0  0  0  0  0  0
  191.5190  172.8790  143.5660 C   0  0  0  0  0  0  0  0  0  0  0  0
  192.1570  172.5510  142.3210 N   0  0  0  0  0  0  0  0  0  0  0  0
  192.1500  171.8220  138.7070 C   0  0  0  0  0  0  0  0  0  0  0  0
  191.6320  172.4290  141.1370 C   0  0  0  0  0  0  0  0  0  0  0  0
  189.0890  175.4710  144.3370 C   0  0  0  0  0  0  0  0  0  0  0  0
  187.2420  176.9750  142.3840 C   0  0  0  0  0  0  0  0  0  0  0  0
  187.0670  176.3880  140.1850 C   0  0  0  0  0  3  0  0  0  0  0  0
  187.4560  177.3420  144.8730 C   0  0  0  0  0  0  0  0  0  0  0  0
  188.0200  175.9130  142.1870 N   0  0  0  0  0  0  0  0  0  0  0  0
  192.5190  172.2220  140.0320 N   0  0  0  0  0  2  0  0  0  0  0  0
  185.8130  178.3110  141.0470 N   0  0  0  0  0  0  0  0  0  0  0  0
  188.6490  174.4440  140.3820 C   0  0  0  0  0  3  0  0  0  0  0  0
  193.1020  172.0310  137.5820 C   0  0  0  0  0  2  0  0  0  0  0  0
  193.5440  175.6520  136.7370 C   0  0  0  0  0  3  0  0  0  0  0  0
  195.0010  175.1840  136.7880 C   0  0  0  0  0  2  0  0  0  0  0  0
  193.5630  173.4100  137.5540 N   0  0  0  0  0  0  0  0  0  0  0  0
  192.6720  174.5250  137.3130 C   0  0  0  0  0  3  0  0  0  0  0  0
  195.8620  172.9990  137.3540 O   0  0  0  0  0  0  0  0  0  0  0  0
  194.8880  173.7870  137.2460 C   0  0  0  0  0  0  0  0  0  0  0  0
  186.9090  177.9990  146.0270 N   0  0  0  0  0  2  0  0  0  0  0  0
  186.1130  177.3350  147.0580 C   0  0  2  0  0  3  0  0  0  0  0  0
  185.0550  176.6590  146.4520 O   0  0  0  0  0  1  0  0  0  0  0  0
  185.5530  178.3720  148.0140 C   0  0  0  0  0  1  0  0  0  0  0  0
  190.5170  174.3770  146.1060 C   0  0  0  0  0  2  0  0  0  0  0  0
  191.5260  175.4630  146.4670 C   0  0  0  0  0  2  0  0  0  0  0  0
  192.9470  174.9330  146.4140 C   0  0  0  0  0  2  0  0  0  0  0  0
  193.9390  176.0750  146.5120 C   0  0  0  0  0  2  0  0  0  0  0  0
  193.8730  176.9890  145.2810 C   0  0  0  0  0  2  0  0  0  0  0  0
  192.0680  176.9080  143.0880 O   0  0  0  0  0  0  0  0  0  0  0  0
  194.1100  176.2470  144.0450 N   0  0  0  0  0  0  0  0  0  0  0  0
  193.4420  175.6300  141.6490 C   0  0  0  0  0  1  0  0  0  0  0  0
  193.1600  176.2960  142.9560 C   0  0  0  0  0  0  0  0  0  0  0  0
  196.4390  176.7930  143.5110 C   0  0  0  0  0  1  0  0  0  0  0  0
  195.4520  175.6920  143.8590 C   0  0  0  0  0  2  0  0  0  0  0  0
  2 24  1  0  0  0  0
  3 20  2  0  0  0  0
  4  3  1  0  0  0  0
  4 10  2  0  0  0  0
  6 23  1  0  0  0  0
  7  4  1  0  0  0  0
  8 19  1  0  0  0  0
  8  7  1  0  0  0  0
  9  6  1  0  0  0  0
  9  5  1  0  0  0  0
 10 12  1  0  0  0  0
 11 21  1  0  0  0  0
 12 39  1  0  0  0  0
 13 18  2  0  0  0  0
 15  9  2  0  0  0  0
 16 10  1  0  0  0  0
 16 14  2  0  0  0  0
 17 16  1  0  0  0  0
 18 25  1  0  0  0  0
 19 17  2  0  0  0  0
 20 12  1  0  0  0  0
 20  1  1  0  0  0  0
 21  6  2  0  0  0  0
 22  2  2  0  0  0  0
 22 11  1  0  0  0  0
 23  1  2  0  0  0  0
 23 35  1  0  0  0  0
 24 21  1  0  0  0  0
 24  3  1  0  0  0  0
 25 19  1  0  0  0  0
 26 11  2  0  0  0  0
 26 15  1  0  0  0  0
 27  2  1  0  0  0  0
 27  7  2  0  0  0  0
 28 18  1  0  0  0  0
 29 30  1  0  0  0  0
 29 32  2  0  0  0  0
 30 34  1  0  0  0  0
 31 28  1  0  0  0  0
 32 31  1  0  0  0  0
 34 33  2  0  0  0  0
 34 31  1  0  0  0  0
 35 36  1  0  0  0  0
 36 38  1  1  0  0  0
 37 36  1  0  0  0  0
 39 40  1  0  0  0  0
 41 40  1  0  0  0  0
 41 42  1  0  0  0  0
 43 42  1  0  0  0  0
 45 43  1  0  0  0  0
 46 47  1  0  0  0  0
 47 44  2  0  0  0  0
 47 45  1  0  0  0  0
 48 49  1  0  0  0  0
 49 45  1  0  0  0  0
M  END
>  <MODEL>
1

>  <REMARK>
 VINA RESULT:      -7.8      0.000      0.000
  Name = 
  11 active torsions:
  status: ('A' for Active; 'I' for Inactive)
    1  A    between atoms: C_1  and  N_22
    2  A    between atoms: C_1  and  C_31
    3  A    between atoms: C_3  and  C_6
    4  A    between atoms: C_3  and  C_41
    5  A    between atoms: C_6  and  C_36
    6  A    between atoms: C_10  and  N_30
    7  A    between atoms: C_20  and  N_43
    8  A    between atoms: N_23  and  C_36
    9  A    between atoms: C_24  and  C_41
   10  A    between atoms: C_24  and  N_43
   11  A    between atoms: N_30  and  C_42
                            x       y       z     vdW  Elec       q    Type
                         _______ _______ _______ _____ _____    ______ ____

>  <TORSDO>
F 11

$$$$
=
 OpenBabel11042414073D

 49 55  0  0  1  0  0  0  0  0999 V2000
  188.6500  176.6880  145.3240 C   0  0  0  0  0  3  0  0  0  0  0  0
  188.4680  175.2530  141.1780 C   0  0  0  0  0  0  0  0  0  0  0  0
  189.3100  175.3820  143.3580 C   0  0  0  0  0  0  0  0  0  0  0  0
  190.2200  174.4030  143.0950 C   0  0  0  0  0  0  0  0  0  0  0  0
  185.4580  179.5140  144.0520 C   0  0  0  0  0  1  0  0  0  0  0  0
  187.0950  177.5840  143.5090 C   0  0  0  0  0  0  0  0  0  0  0  0
  190.2350  173.7420  141.8670 C   0  0  0  0  0  0  0  0  0  0  0  0
  191.0110  172.4810  141.7120 C   0  0  0  0  0  2  0  0  0  0  0  0
  186.0650  178.5170  143.1220 C   0  0  0  0  0  0  0  0  0  0  0  0
  190.9400  174.2060  144.2490 C   0  0  0  0  0  0  0  0  0  0  0  0
  186.9930  176.8290  141.1850 C   0  0  0  0  0  0  0  0  0  0  0  0
  190.4520  175.0420  145.2110 N   0  0  0  0  0  0  0  0  0  0  0  0
  192.1510  171.1060  139.5050 O   0  0  0  0  0  0  0  0  0  0  0  0
  192.6940  173.2000  145.4720 O   0  0  0  0  0  0  0  0  0  0  0  0
  185.5990  178.5530  141.8340 N   0  0  0  0  0  0  0  0  0  0  0  0
  192.1850  173.4040  144.3420 C   0  0  0  0  0  0  0  0  0  0  0  0
  192.9210  172.9920  143.1780 N   0  0  0  0  0  0  0  0  0  0  0  0
  193.1910  171.7920  139.7030 C   0  0  0  0  0  0  0  0  0  0  0  0
  192.4770  172.6510  142.0040 C   0  0  0  0  0  0  0  0  0  0  0  0
  189.4390  175.7670  144.6530 C   0  0  0  0  0  0  0  0  0  0  0  0
  187.5410  176.7670  142.4420 C   0  0  0  0  0  0  0  0  0  0  0  0
  187.5520  175.8750  140.3410 C   0  0  0  0  0  3  0  0  0  0  0  0
  187.5790  177.4840  144.8630 C   0  0  0  0  0  0  0  0  0  0  0  0
  188.4440  175.7880  142.4240 N   0  0  0  0  0  0  0  0  0  0  0  0
  193.4400  172.4060  140.9730 N   0  0  0  0  0  2  0  0  0  0  0  0
  186.0440  177.7320  140.8800 N   0  0  0  0  0  0  0  0  0  0  0  0
  189.3310  174.1780  140.8650 C   0  0  0  0  0  3  0  0  0  0  0  0
  194.1720  171.9610  138.5960 C   0  0  0  0  0  2  0  0  0  0  0  0
  194.3510  175.3820  137.0820 C   0  0  0  0  0  3  0  0  0  0  0  0
  195.7890  175.2050  137.5740 C   0  0  0  0  0  2  0  0  0  0  0  0
  194.4420  173.3720  138.3650 N   0  0  0  0  0  0  0  0  0  0  0  0
  193.5100  174.2410  137.6790 C   0  0  0  0  0  3  0  0  0  0  0  0
  196.7450  173.3570  138.8030 O   0  0  0  0  0  0  0  0  0  0  0  0
  195.7410  173.9200  138.2970 C   0  0  0  0  0  0  0  0  0  0  0  0
  186.8990  178.2200  145.8940 N   0  0  0  0  0  2  0  0  0  0  0  0
  186.0920  177.6110  146.9490 C   0  0  2  0  0  3  0  0  0  0  0  0
  185.2330  176.6710  146.3810 O   0  0  0  0  0  1  0  0  0  0  0  0
  185.2660  178.6810  147.6370 C   0  0  0  0  0  1  0  0  0  0  0  0
  190.8850  175.0970  146.6090 C   0  0  0  0  0  2  0  0  0  0  0  0
  191.5420  176.4400  146.9130 C   0  0  0  0  0  2  0  0  0  0  0  0
  193.0460  176.3700  146.7250 C   0  0  0  0  0  2  0  0  0  0  0  0
  193.4190  176.7670  145.3100 C   0  0  0  0  0  2  0  0  0  0  0  0
  194.9400  176.8270  145.1210 C   0  0  0  0  0  2  0  0  0  0  0  0
  196.1020  174.4190  146.0850 O   0  0  0  0  0  0  0  0  0  0  0  0
  195.4210  175.7440  144.2670 N   0  0  0  0  0  0  0  0  0  0  0  0
  196.3500  173.3730  143.9790 C   0  0  0  0  0  1  0  0  0  0  0  0
  195.9560  174.5280  144.8390 C   0  0  0  0  0  0  0  0  0  0  0  0
  196.1830  176.5420  142.0790 C   0  0  0  0  0  1  0  0  0  0  0  0
  195.0830  175.8290  142.8450 C   0  0  0  0  0  2  0  0  0  0  0  0
  2 24  1  0  0  0  0
  3 20  2  0  0  0  0
  4  3  1  0  0  0  0
  4 10  2  0  0  0  0
  6 23  1  0  0  0  0
  7  4  1  0  0  0  0
  8  7  1  0  0  0  0
  8 19  1  0  0  0  0
  9  6  1  0  0  0  0
  9  5  1  0  0  0  0
 10 16  1  0  0  0  0
 10 12  1  0  0  0  0
 11 21  1  0  0  0  0
 12 39  1  0  0  0  0
 13 18  2  0  0  0  0
 15  9  2  0  0  0  0
 16 14  2  0  0  0  0
 17 16  1  0  0  0  0
 18 25  1  0  0  0  0
 19 17  2  0  0  0  0
 20 12  1  0  0  0  0
 20  1  1  0  0  0  0
 21  6  2  0  0  0  0
 22  2  2  0  0  0  0
 22 11  1  0  0  0  0
 23  1  2  0  0  0  0
 23 35  1  0  0  0  0
 24 21  1  0  0  0  0
 24  3  1  0  0  0  0
 25 19  1  0  0  0  0
 26 11  2  0  0  0  0
 26 15  1  0  0  0  0
 27  2  1  0  0  0  0
 27  7  2  0  0  0  0
 28 18  1  0  0  0  0
 29 30  1  0  0  0  0
 29 32  2  0  0  0  0
 30 34  1  0  0  0  0
 31 28  1  0  0  0  0
 32 31  1  0  0  0  0
 34 31  1  0  0  0  0
 34 33  2  0  0  0  0
 35 36  1  0  0  0  0
 36 38  1  6  0  0  0
 37 36  1  0  0  0  0
 39 40  1  0  0  0  0
 41 40  1  0  0  0  0
 42 41  1  0  0  0  0
 43 42  1  0  0  0  0
 45 47  1  0  0  0  0
 45 43  1  0  0  0  0
 46 47  1  0  0  0  0
 47 44  2  0  0  0  0
 48 49  1  0  0  0  0
 49 45  1  0  0  0  0
M  END
>  <MODEL>
2

>  <REMARK>
 VINA RESULT:      -7.5      1.214      1.504
  Name = 
  11 active torsions:
  status: ('A' for Active; 'I' for Inactive)
    1  A    between atoms: C_1  and  N_22
    2  A    between atoms: C_1  and  C_31
    3  A    between atoms: C_3  and  C_6
    4  A    between atoms: C_3  and  C_41
    5  A    between atoms: C_6  and  C_36
    6  A    between atoms: C_10  and  N_30
    7  A    between atoms: C_20  and  N_43
    8  A    between atoms: N_23  and  C_36
    9  A    between atoms: C_24  and  C_41
   10  A    between atoms: C_24  and  N_43
   11  A    between atoms: N_30  and  C_42
                            x       y       z     vdW  Elec       q    Type
                         _______ _______ _______ _____ _____    ______ ____

>  <TORSDO>
F 11

$$$$
=
 OpenBabel11042414073D

 49 55  0  0  1  0  0  0  0  0999 V2000
  191.6250  172.9710  144.6020 C   0  0  0  0  0  3  0  0  0  0  0  0
  188.8600  174.6000  141.6040 C   0  0  0  0  0  0  0  0  0  0  0  0
  189.9460  174.4980  143.6750 C   0  0  0  0  0  0  0  0  0  0  0  0
  189.3360  175.6460  144.0830 C   0  0  0  0  0  0  0  0  0  0  0  0
  192.2120  169.6770  141.6700 C   0  0  0  0  0  1  0  0  0  0  0  0
  191.0920  171.9120  142.3420 C   0  0  0  0  0  0  0  0  0  0  0  0
  188.5140  176.3720  143.2230 C   0  0  0  0  0  0  0  0  0  0  0  0
  188.1190  177.7640  143.5720 C   0  0  0  0  0  2  0  0  0  0  0  0
  191.2960  170.8260  141.4130 C   0  0  0  0  0  0  0  0  0  0  0  0
  189.7820  175.9030  145.3580 C   0  0  0  0  0  0  0  0  0  0  0  0
  189.5340  172.7760  140.6660 C   0  0  0  0  0  0  0  0  0  0  0  0
  190.6750  174.9320  145.7080 N   0  0  0  0  0  0  0  0  0  0  0  0
  185.9660  179.4640  142.8400 O   0  0  0  0  0  0  0  0  0  0  0  0
  189.7600  177.1440  147.3680 O   0  0  0  0  0  0  0  0  0  0  0  0
  190.6150  170.7830  140.2250 N   0  0  0  0  0  0  0  0  0  0  0  0
  189.1980  176.9180  146.2680 C   0  0  0  0  0  0  0  0  0  0  0  0
  187.9230  177.5330  146.0150 N   0  0  0  0  0  0  0  0  0  0  0  0
  185.3380  178.9760  143.8190 C   0  0  0  0  0  0  0  0  0  0  0  0
  187.3780  177.8560  144.8790 C   0  0  0  0  0  0  0  0  0  0  0  0
  190.7740  174.0640  144.6590 C   0  0  0  0  0  0  0  0  0  0  0  0
  190.1440  172.8630  141.8940 C   0  0  0  0  0  0  0  0  0  0  0  0
  188.7060  173.8700  140.4340 C   0  0  0  0  0  3  0  0  0  0  0  0
  191.8210  172.0170  143.5810 C   0  0  0  0  0  0  0  0  0  0  0  0
  189.7240  173.9940  142.4570 N   0  0  0  0  0  0  0  0  0  0  0  0
  186.0320  178.3430  144.9000 N   0  0  0  0  0  2  0  0  0  0  0  0
  189.7540  171.7310  139.8500 N   0  0  0  0  0  0  0  0  0  0  0  0
  188.2590  175.8360  141.9350 C   0  0  0  0  0  3  0  0  0  0  0  0
  183.8520  179.0640  143.8460 C   0  0  0  0  0  2  0  0  0  0  0  0
  183.2610  177.9680  140.3150 C   0  0  0  0  0  3  0  0  0  0  0  0
  181.8700  178.4800  140.6980 C   0  0  0  0  0  2  0  0  0  0  0  0
  183.2840  178.4660  142.6490 N   0  0  0  0  0  0  0  0  0  0  0  0
  184.1020  177.8940  141.6000 C   0  0  0  0  0  3  0  0  0  0  0  0
  181.1140  179.3350  142.8270 O   0  0  0  0  0  0  0  0  0  0  0  0
  182.0160  178.8060  142.1290 C   0  0  0  0  0  0  0  0  0  0  0  0
  192.9050  171.1040  143.8220 N   0  0  0  0  0  2  0  0  0  0  0  0
  194.2540  171.5060  144.2110 C   0  0  2  0  0  3  0  0  0  0  0  0
  194.8480  172.1930  143.1540 O   0  0  0  0  0  1  0  0  0  0  0  0
  195.0810  170.2730  144.5250 C   0  0  0  0  0  1  0  0  0  0  0  0
  191.4440  174.8730  146.9530 C   0  0  0  0  0  2  0  0  0  0  0  0
  192.9300  175.0800  146.6740 C   0  0  0  0  0  2  0  0  0  0  0  0
  193.2610  176.5540  146.5280 C   0  0  0  0  0  2  0  0  0  0  0  0
  194.5870  176.7270  145.8140 C   0  0  0  0  0  2  0  0  0  0  0  0
  194.8940  175.5380  144.8940 C   0  0  0  0  0  2  0  0  0  0  0  0
  197.0930  176.5740  143.4210 O   0  0  0  0  0  0  0  0  0  0  0  0
  194.8380  175.9180  143.4850 N   0  0  0  0  0  0  0  0  0  0  0  0
  195.9960  176.6810  141.3300 C   0  0  0  0  0  1  0  0  0  0  0  0
  196.0160  176.3930  142.7950 C   0  0  0  0  0  0  0  0  0  0  0  0
  192.6210  176.6730  142.7600 C   0  0  0  0  0  1  0  0  0  0  0  0
  193.6290  175.5380  142.7500 C   0  0  0  0  0  2  0  0  0  0  0  0
  1 20  1  0  0  0  0
  2 27  1  0  0  0  0
  2 24  1  0  0  0  0
  3  4  1  0  0  0  0
  3 20  2  0  0  0  0
  4 10  2  0  0  0  0
  6 23  1  0  0  0  0
  7  8  1  0  0  0  0
  7  4  1  0  0  0  0
  8 19  1  0  0  0  0
  9  5  1  0  0  0  0
  9  6  2  0  0  0  0
 10 12  1  0  0  0  0
 10 16  1  0  0  0  0
 11 21  2  0  0  0  0
 12 39  1  0  0  0  0
 13 18  2  0  0  0  0
 15  9  1  0  0  0  0
 16 14  2  0  0  0  0
 17 16  1  0  0  0  0
 18 28  1  0  0  0  0
 18 25  1  0  0  0  0
 19 25  1  0  0  0  0
 19 17  2  0  0  0  0
 20 12  1  0  0  0  0
 21  6  1  0  0  0  0
 21 24  1  0  0  0  0
 22 11  1  0  0  0  0
 22  2  2  0  0  0  0
 23 35  1  0  0  0  0
 23  1  2  0  0  0  0
 24  3  1  0  0  0  0
 26 15  2  0  0  0  0
 26 11  1  0  0  0  0
 27  7  2  0  0  0  0
 29 30  1  0  0  0  0
 29 32  2  0  0  0  0
 30 34  1  0  0  0  0
 31 28  1  0  0  0  0
 32 31  1  0  0  0  0
 34 31  1  0  0  0  0
 34 33  2  0  0  0  0
 35 36  1  0  0  0  0
 36 38  1  6  0  0  0
 37 36  1  0  0  0  0
 40 39  1  0  0  0  0
 41 40  1  0  0  0  0
 42 41  1  0  0  0  0
 43 42  1  0  0  0  0
 45 43  1  0  0  0  0
 46 47  1  0  0  0  0
 47 44  2  0  0  0  0
 47 45  1  0  0  0  0
 49 48  1  0  0  0  0
 49 45  1  0  0  0  0
M  END
>  <MODEL>
3

>  <REMARK>
 VINA RESULT:      -7.5      2.759      7.853
  Name = 
  11 active torsions:
  status: ('A' for Active; 'I' for Inactive)
    1  A    between atoms: C_1  and  N_22
    2  A    between atoms: C_1  and  C_31
    3  A    between atoms: C_3  and  C_6
    4  A    between atoms: C_3  and  C_41
    5  A    between atoms: C_6  and  C_36
    6  A    between atoms: C_10  and  N_30
    7  A    between atoms: C_20  and  N_43
    8  A    between atoms: N_23  and  C_36
    9  A    between atoms: C_24  and  C_41
   10  A    between atoms: C_24  and  N_43
   11  A    between atoms: N_30  and  C_42
                            x       y       z     vdW  Elec       q    Type
                         _______ _______ _______ _____ _____    ______ ____

>  <TORSDO>
F 11

$$$$
=
 OpenBabel11042414073D

 49 55  0  0  1  0  0  0  0  0999 V2000
  191.3160  173.1250  144.7810 C   0  0  0  0  0  3  0  0  0  0  0  0
  188.6720  174.7570  141.6770 C   0  0  0  0  0  0  0  0  0  0  0  0
  189.6700  174.6490  143.7920 C   0  0  0  0  0  0  0  0  0  0  0  0
  189.0370  175.7910  144.1800 C   0  0  0  0  0  0  0  0  0  0  0  0
  192.0450  169.8520  141.8580 C   0  0  0  0  0  1  0  0  0  0  0  0
  190.8850  172.0760  142.4940 C   0  0  0  0  0  0  0  0  0  0  0  0
  188.2470  176.5180  143.2900 C   0  0  0  0  0  0  0  0  0  0  0  0
  187.8310  177.9050  143.6300 C   0  0  0  0  0  2  0  0  0  0  0  0
  191.1350  170.9980  141.5690 C   0  0  0  0  0  0  0  0  0  0  0  0
  189.4260  176.0430  145.4740 C   0  0  0  0  0  0  0  0  0  0  0  0
  189.3950  172.9420  140.7590 C   0  0  0  0  0  0  0  0  0  0  0  0
  190.3090  175.0750  145.8570 N   0  0  0  0  0  0  0  0  0  0  0  0
  185.7010  179.5980  142.8170 O   0  0  0  0  0  0  0  0  0  0  0  0
  189.3130  177.2730  147.4880 O   0  0  0  0  0  0  0  0  0  0  0  0
  190.5050  170.9570  140.3530 N   0  0  0  0  0  0  0  0  0  0  0  0
  188.7990  177.0500  146.3640 C   0  0  0  0  0  0  0  0  0  0  0  0
  187.5330  177.6590  146.0620 N   0  0  0  0  0  0  0  0  0  0  0  0
  185.0340  179.1010  143.7650 C   0  0  0  0  0  0  0  0  0  0  0  0
  187.0340  177.9860  144.9050 C   0  0  0  0  0  0  0  0  0  0  0  0
  190.4580  174.2140  144.8080 C   0  0  0  0  0  0  0  0  0  0  0  0
  189.9510  173.0250  142.0110 C   0  0  0  0  0  0  0  0  0  0  0  0
  188.5710  174.0330  140.4980 C   0  0  0  0  0  3  0  0  0  0  0  0
  191.5610  172.1780  143.7630 C   0  0  0  0  0  0  0  0  0  0  0  0
  189.5010  174.1500  142.5630 N   0  0  0  0  0  0  0  0  0  0  0  0
  185.6860  178.4650  144.8710 N   0  0  0  0  0  2  0  0  0  0  0  0
  189.6550  171.9030  139.9460 N   0  0  0  0  0  0  0  0  0  0  0  0
  188.0500  175.9880  141.9900 C   0  0  0  0  0  3  0  0  0  0  0  0
  183.5490  179.1810  143.7310 C   0  0  0  0  0  2  0  0  0  0  0  0
  183.0790  177.8820  140.2500 C   0  0  0  0  0  3  0  0  0  0  0  0
  181.6630  178.3670  140.5740 C   0  0  0  0  0  2  0  0  0  0  0  0
  183.0290  178.5030  142.5540 N   0  0  0  0  0  0  0  0  0  0  0  0
  183.8900  177.9040  141.5560 C   0  0  0  0  0  3  0  0  0  0  0  0
  180.8290  179.3070  142.6370 O   0  0  0  0  0  0  0  0  0  0  0  0
  181.7640  178.7720  141.9890 C   0  0  0  0  0  0  0  0  0  0  0  0
  192.6380  171.2690  144.0450 N   0  0  0  0  0  2  0  0  0  0  0  0
  193.9540  171.6730  144.5370 C   0  0  2  0  0  3  0  0  0  0  0  0
  194.8250  171.8000  143.4570 O   0  0  0  0  0  1  0  0  0  0  0  0
  194.4900  170.6140  145.4820 C   0  0  0  0  0  1  0  0  0  0  0  0
  191.0250  175.0120  147.1330 C   0  0  0  0  0  2  0  0  0  0  0  0
  192.2220  175.9590  147.1210 C   0  0  0  0  0  2  0  0  0  0  0  0
  193.4430  175.2930  146.5130 C   0  0  0  0  0  2  0  0  0  0  0  0
  194.6050  176.2650  146.4690 C   0  0  0  0  0  2  0  0  0  0  0  0
  194.6600  177.0230  145.1360 C   0  0  0  0  0  2  0  0  0  0  0  0
  192.2660  177.0720  143.6050 O   0  0  0  0  0  0  0  0  0  0  0  0
  194.3870  176.1420  144.0040 N   0  0  0  0  0  0  0  0  0  0  0  0
  192.9200  175.4420  142.0220 C   0  0  0  0  0  1  0  0  0  0  0  0
  193.1610  176.2640  143.2460 C   0  0  0  0  0  0  0  0  0  0  0  0
  196.4920  176.2080  142.7480 C   0  0  0  0  0  1  0  0  0  0  0  0
  195.5080  175.3380  143.5110 C   0  0  0  0  0  2  0  0  0  0  0  0
  1 20  1  0  0  0  0
  2 27  1  0  0  0  0
  2 24  1  0  0  0  0
  3  4  1  0  0  0  0
  3 20  2  0  0  0  0
  4 10  2  0  0  0  0
  6 23  1  0  0  0  0
  7  8  1  0  0  0  0
  7  4  1  0  0  0  0
  8 19  1  0  0  0  0
  9  5  1  0  0  0  0
  9  6  2  0  0  0  0
 10 12  1  0  0  0  0
 10 16  1  0  0  0  0
 11 21  2  0  0  0  0
 12 39  1  0  0  0  0
 13 18  2  0  0  0  0
 15  9  1  0  0  0  0
 16 14  2  0  0  0  0
 17 16  1  0  0  0  0
 18 25  1  0  0  0  0
 19 17  2  0  0  0  0
 20 12  1  0  0  0  0
 21  6  1  0  0  0  0
 21 24  1  0  0  0  0
 22 11  1  0  0  0  0
 22  2  2  0  0  0  0
 23 35  1  0  0  0  0
 23  1  2  0  0  0  0
 24  3  1  0  0  0  0
 25 19  1  0  0  0  0
 26 15  2  0  0  0  0
 26 11  1  0  0  0  0
 27  7  2  0  0  0  0
 28 18  1  0  0  0  0
 29 30  1  0  0  0  0
 29 32  2  0  0  0  0
 30 34  1  0  0  0  0
 31 28  1  0  0  0  0
 32 31  1  0  0  0  0
 34 31  1  0  0  0  0
 34 33  2  0  0  0  0
 35 36  1  0  0  0  0
 36 38  1  1  0  0  0
 37 36  1  0  0  0  0
 40 39  1  0  0  0  0
 41 40  1  0  0  0  0
 42 41  1  0  0  0  0
 43 42  1  0  0  0  0
 45 43  1  0  0  0  0
 46 47  1  0  0  0  0
 47 44  2  0  0  0  0
 47 45  1  0  0  0  0
 48 49  1  0  0  0  0
 49 45  1  0  0  0  0
M  END
>  <MODEL>
4

>  <REMARK>
 VINA RESULT:      -7.5      2.712      7.762
  Name = 
  11 active torsions:
  status: ('A' for Active; 'I' for Inactive)
    1  A    between atoms: C_1  and  N_22
    2  A    between atoms: C_1  and  C_31
    3  A    between atoms: C_3  and  C_6
    4  A    between atoms: C_3  and  C_41
    5  A    between atoms: C_6  and  C_36
    6  A    between atoms: C_10  and  N_30
    7  A    between atoms: C_20  and  N_43
    8  A    between atoms: N_23  and  C_36
    9  A    between atoms: C_24  and  C_41
   10  A    between atoms: C_24  and  N_43
   11  A    between atoms: N_30  and  C_42
                            x       y       z     vdW  Elec       q    Type
                         _______ _______ _______ _____ _____    ______ ____

>  <TORSDO>
F 11

$$$$
=
 OpenBabel11042414073D

 49 55  0  0  1  0  0  0  0  0999 V2000
  190.3490  173.7030  144.3930 C   0  0  0  0  0  3  0  0  0  0  0  0
  188.6090  174.6610  140.4760 C   0  0  0  0  0  0  0  0  0  0  0  0
  188.8540  174.8150  142.7990 C   0  0  0  0  0  0  0  0  0  0  0  0
  187.9160  175.8000  142.8610 C   0  0  0  0  0  0  0  0  0  0  0  0
  192.6330  170.6060  142.1610 C   0  0  0  0  0  1  0  0  0  0  0  0
  190.9130  172.5400  142.1920 C   0  0  0  0  0  0  0  0  0  0  0  0
  187.3380  176.3220  141.7050 C   0  0  0  0  0  0  0  0  0  0  0  0
  186.5670  177.5930  141.7680 C   0  0  0  0  0  2  0  0  0  0  0  0
  191.6620  171.5220  141.4950 C   0  0  0  0  0  0  0  0  0  0  0  0
  187.8000  176.1570  144.1840 C   0  0  0  0  0  0  0  0  0  0  0  0
  189.9390  173.0280  140.0020 C   0  0  0  0  0  0  0  0  0  0  0  0
  188.6800  175.4110  144.9130 N   0  0  0  0  0  0  0  0  0  0  0  0
  184.5350  178.7690  140.1720 O   0  0  0  0  0  0  0  0  0  0  0  0
  186.7880  177.3740  145.9380 O   0  0  0  0  0  0  0  0  0  0  0  0
  191.4890  171.3220  140.1510 N   0  0  0  0  0  0  0  0  0  0  0  0
  186.7280  177.0220  144.7340 C   0  0  0  0  0  0  0  0  0  0  0  0
  185.5380  177.3380  143.9910 N   0  0  0  0  0  0  0  0  0  0  0  0
  183.7050  178.1580  140.8990 C   0  0  0  0  0  0  0  0  0  0  0  0
  185.3950  177.5250  142.7110 C   0  0  0  0  0  0  0  0  0  0  0  0
  189.3330  174.5810  144.0470 C   0  0  0  0  0  0  0  0  0  0  0  0
  190.0230  173.2550  141.3540 C   0  0  0  0  0  0  0  0  0  0  0  0
  189.0490  173.9090  139.3960 C   0  0  0  0  0  3  0  0  0  0  0  0
  191.0980  172.8120  143.5950 C   0  0  0  0  0  0  0  0  0  0  0  0
  189.2030  174.2670  141.6300 N   0  0  0  0  0  0  0  0  0  0  0  0
  184.0670  177.7010  142.2070 N   0  0  0  0  0  2  0  0  0  0  0  0
  190.6520  172.0530  139.4120 N   0  0  0  0  0  0  0  0  0  0  0  0
  187.6900  175.7350  140.4630 C   0  0  0  0  0  3  0  0  0  0  0  0
  182.3290  177.9150  140.3870 C   0  0  0  0  0  2  0  0  0  0  0  0
  180.1830  179.2170  143.1660 C   0  0  0  0  0  3  0  0  0  0  0  0
  179.1510  179.0720  142.0450 C   0  0  0  0  0  2  0  0  0  0  0  0
  181.3560  178.6700  141.1610 N   0  0  0  0  0  0  0  0  0  0  0  0
  181.5780  179.0380  142.5440 C   0  0  0  0  0  3  0  0  0  0  0  0
  179.5020  178.3860  139.7550 O   0  0  0  0  0  0  0  0  0  0  0  0
  179.9720  178.6820  140.8830 C   0  0  0  0  0  0  0  0  0  0  0  0
  192.1790  172.1630  144.2860 N   0  0  0  0  0  2  0  0  0  0  0  0
  193.3840  172.8420  144.7590 C   0  0  2  0  0  3  0  0  0  0  0  0
  194.2370  173.0630  143.6800 O   0  0  0  0  0  1  0  0  0  0  0  0
  194.0920  171.9680  145.7770 C   0  0  0  0  0  1  0  0  0  0  0  0
  188.9320  175.5310  146.3500 C   0  0  0  0  0  2  0  0  0  0  0  0
  189.9990  176.5880  146.6190 C   0  0  0  0  0  2  0  0  0  0  0  0
  191.1270  176.0270  147.4660 C   0  0  0  0  0  2  0  0  0  0  0  0
  192.3830  175.8690  146.6320 C   0  0  0  0  0  2  0  0  0  0  0  0
  192.3580  176.7740  145.3940 C   0  0  0  0  0  2  0  0  0  0  0  0
  191.9350  176.4700  142.6000 O   0  0  0  0  0  0  0  0  0  0  0  0
  193.3990  176.4080  144.4370 N   0  0  0  0  0  0  0  0  0  0  0  0
  194.1910  176.0520  142.0250 C   0  0  0  0  0  1  0  0  0  0  0  0
  193.1120  176.3200  143.0220 C   0  0  0  0  0  0  0  0  0  0  0  0
  195.1840  177.8040  145.3720 C   0  0  0  0  0  1  0  0  0  0  0  0
  194.7770  176.4090  144.9330 C   0  0  0  0  0  2  0  0  0  0  0  0
  2 24  1  0  0  0  0
  3  4  1  0  0  0  0
  3 20  2  0  0  0  0
  4 10  2  0  0  0  0
  6 23  1  0  0  0  0
  7  8  1  0  0  0  0
  7  4  1  0  0  0  0
  8 19  1  0  0  0  0
  9  5  1  0  0  0  0
  9  6  1  0  0  0  0
 10 16  1  0  0  0  0
 10 12  1  0  0  0  0
 11 21  1  0  0  0  0
 12 39  1  0  0  0  0
 13 18  2  0  0  0  0
 15  9  2  0  0  0  0
 16 14  2  0  0  0  0
 17 16  1  0  0  0  0
 18 25  1  0  0  0  0
 19 17  2  0  0  0  0
 20  1  1  0  0  0  0
 20 12  1  0  0  0  0
 21 24  1  0  0  0  0
 21  6  2  0  0  0  0
 22 11  1  0  0  0  0
 22  2  2  0  0  0  0
 23 35  1  0  0  0  0
 23  1  2  0  0  0  0
 24  3  1  0  0  0  0
 25 19  1  0  0  0  0
 26 11  2  0  0  0  0
 26 15  1  0  0  0  0
 27  2  1  0  0  0  0
 27  7  2  0  0  0  0
 28 18  1  0  0  0  0
 28 31  1  0  0  0  0
 30 29  1  0  0  0  0
 31 32  1  0  0  0  0
 32 29  2  0  0  0  0
 33 34  2  0  0  0  0
 34 31  1  0  0  0  0
 34 30  1  0  0  0  0
 35 36  1  0  0  0  0
 36 38  1  1  0  0  0
 37 36  1  0  0  0  0
 39 40  1  0  0  0  0
 40 41  1  0  0  0  0
 42 41  1  0  0  0  0
 43 42  1  0  0  0  0
 44 47  2  0  0  0  0
 45 49  1  0  0  0  0
 45 43  1  0  0  0  0
 46 47  1  0  0  0  0
 47 45  1  0  0  0  0
 49 48  1  0  0  0  0
M  END
>  <MODEL>
5

>  <REMARK>
 VINA RESULT:      -7.0      2.858      8.061
  Name = 
  11 active torsions:
  status: ('A' for Active; 'I' for Inactive)
    1  A    between atoms: C_1  and  N_22
    2  A    between atoms: C_1  and  C_31
    3  A    between atoms: C_3  and  C_6
    4  A    between atoms: C_3  and  C_41
    5  A    between atoms: C_6  and  C_36
    6  A    between atoms: C_10  and  N_30
    7  A    between atoms: C_20  and  N_43
    8  A    between atoms: N_23  and  C_36
    9  A    between atoms: C_24  and  C_41
   10  A    between atoms: C_24  and  N_43
   11  A    between atoms: N_30  and  C_42
                            x       y       z     vdW  Elec       q    Type
                         _______ _______ _______ _____ _____    ______ ____

>  <TORSDO>
F 11

$$$$
=
 OpenBabel11042414073D

 49 55  0  0  1  0  0  0  0  0999 V2000
  194.1350  173.2810  143.6230 C   0  0  0  0  0  3  0  0  0  0  0  0
  190.1630  172.5800  141.8850 C   0  0  0  0  0  0  0  0  0  0  0  0
  191.8800  173.8480  142.8470 C   0  0  0  0  0  0  0  0  0  0  0  0
  191.1500  174.9900  142.7110 C   0  0  0  0  0  0  0  0  0  0  0  0
  194.5790  168.8630  143.3520 C   0  0  0  0  0  1  0  0  0  0  0  0
  193.1760  171.0050  142.9770 C   0  0  0  0  0  0  0  0  0  0  0  0
  189.9110  174.9850  142.0720 C   0  0  0  0  0  0  0  0  0  0  0  0
  189.2850  176.2690  141.6560 C   0  0  0  0  0  2  0  0  0  0  0  0
  193.3450  169.5740  142.9070 C   0  0  0  0  0  0  0  0  0  0  0  0
  191.9170  176.0160  143.2130 C   0  0  0  0  0  0  0  0  0  0  0  0
  190.9580  170.5790  142.0380 C   0  0  0  0  0  0  0  0  0  0  0  0
  193.1120  175.5000  143.6240 N   0  0  0  0  0  0  0  0  0  0  0  0
  186.6240  177.1030  141.1200 O   0  0  0  0  0  0  0  0  0  0  0  0
  192.2410  178.2720  143.8310 O   0  0  0  0  0  0  0  0  0  0  0  0
  192.3370  168.7710  142.4420 N   0  0  0  0  0  0  0  0  0  0  0  0
  191.4210  177.3880  143.4810 C   0  0  0  0  0  0  0  0  0  0  0  0
  190.0200  177.7050  143.5160 N   0  0  0  0  0  0  0  0  0  0  0  0
  186.5380  177.3870  142.3460 C   0  0  0  0  0  0  0  0  0  0  0  0
  189.0480  177.2100  142.8080 C   0  0  0  0  0  0  0  0  0  0  0  0
  193.0840  174.1560  143.3920 C   0  0  0  0  0  0  0  0  0  0  0  0
  191.9030  171.4420  142.5360 C   0  0  0  0  0  0  0  0  0  0  0  0
  189.8280  171.2640  141.6040 C   0  0  0  0  0  3  0  0  0  0  0  0
  194.2270  171.8880  143.4170 C   0  0  0  0  0  0  0  0  0  0  0  0
  191.4020  172.6710  142.4300 N   0  0  0  0  0  0  0  0  0  0  0  0
  187.7130  177.6110  143.1350 N   0  0  0  0  0  2  0  0  0  0  0  0
  191.1690  169.2510  142.0140 N   0  0  0  0  0  0  0  0  0  0  0  0
  189.3900  173.7390  141.6420 C   0  0  0  0  0  3  0  0  0  0  0  0
  185.1950  177.4960  142.9760 C   0  0  0  0  0  2  0  0  0  0  0  0
  184.7300  177.5420  146.6910 C   0  0  0  0  0  3  0  0  0  0  0  0
  184.7810  179.0410  146.3850 C   0  0  0  0  0  2  0  0  0  0  0  0
  185.3190  177.7980  144.3930 N   0  0  0  0  0  0  0  0  0  0  0  0
  185.1620  176.7900  145.4210 C   0  0  0  0  0  3  0  0  0  0  0  0
  185.1550  180.1320  144.2630 O   0  0  0  0  0  0  0  0  0  0  0  0
  185.0940  179.0770  144.9440 C   0  0  0  0  0  0  0  0  0  0  0  0
  195.5390  171.3410  143.6360 N   0  0  0  0  0  2  0  0  0  0  0  0
  196.4450  171.7690  144.7000 C   0  0  2  0  0  3  0  0  0  0  0  0
  197.7440  171.3790  144.3760 O   0  0  0  0  0  1  0  0  0  0  0  0
  196.0440  171.1100  146.0060 C   0  0  0  0  0  1  0  0  0  0  0  0
  194.2470  176.2620  144.1490 C   0  0  0  0  0  2  0  0  0  0  0  0
  194.5140  175.8900  145.6050 C   0  0  0  0  0  2  0  0  0  0  0  0
  193.4160  176.4120  146.5150 C   0  0  0  0  0  2  0  0  0  0  0  0
  192.4590  175.2940  146.8790 C   0  0  0  0  0  2  0  0  0  0  0  0
  191.5590  175.6820  148.0590 C   0  0  0  0  0  2  0  0  0  0  0  0
  189.3270  175.1100  146.3940 O   0  0  0  0  0  0  0  0  0  0  0  0
  190.5490  176.6620  147.6670 N   0  0  0  0  0  0  0  0  0  0  0  0
  188.3240  177.2460  146.5380 C   0  0  0  0  0  1  0  0  0  0  0  0
  189.4160  176.2780  146.8550 C   0  0  0  0  0  0  0  0  0  0  0  0
  191.5660  177.9130  149.5140 C   0  0  0  0  0  1  0  0  0  0  0  0
  190.5890  177.9560  148.3520 C   0  0  0  0  0  2  0  0  0  0  0  0
  2 24  1  0  0  0  0
  3 20  2  0  0  0  0
  4  3  1  0  0  0  0
  4 10  2  0  0  0  0
  6 23  1  0  0  0  0
  7  4  1  0  0  0  0
  8  7  1  0  0  0  0
  8 19  1  0  0  0  0
  9  6  1  0  0  0  0
  9  5  1  0  0  0  0
 10 16  1  0  0  0  0
 10 12  1  0  0  0  0
 11 21  1  0  0  0  0
 12 39  1  0  0  0  0
 13 18  2  0  0  0  0
 15  9  2  0  0  0  0
 16 17  1  0  0  0  0
 16 14  2  0  0  0  0
 18 28  1  0  0  0  0
 18 25  1  0  0  0  0
 19 25  1  0  0  0  0
 19 17  2  0  0  0  0
 20  1  1  0  0  0  0
 20 12  1  0  0  0  0
 21  6  2  0  0  0  0
 22  2  2  0  0  0  0
 22 11  1  0  0  0  0
 23  1  2  0  0  0  0
 23 35  1  0  0  0  0
 24 21  1  0  0  0  0
 24  3  1  0  0  0  0
 26 11  2  0  0  0  0
 26 15  1  0  0  0  0
 27  2  1  0  0  0  0
 27  7  2  0  0  0  0
 28 31  1  0  0  0  0
 30 29  1  0  0  0  0
 31 34  1  0  0  0  0
 31 32  1  0  0  0  0
 32 29  2  0  0  0  0
 33 34  2  0  0  0  0
 34 30  1  0  0  0  0
 35 36  1  0  0  0  0
 36 38  1  1  0  0  0
 37 36  1  0  0  0  0
 39 40  1  0  0  0  0
 40 41  1  0  0  0  0
 41 42  1  0  0  0  0
 42 43  1  0  0  0  0
 44 47  2  0  0  0  0
 45 43  1  0  0  0  0
 45 49  1  0  0  0  0
 46 47  1  0  0  0  0
 47 45  1  0  0  0  0
 49 48  1  0  0  0  0
M  END
>  <MODEL>
6

>  <REMARK>
 VINA RESULT:      -6.9      3.184      8.423
  Name = 
  11 active torsions:
  status: ('A' for Active; 'I' for Inactive)
    1  A    between atoms: C_1  and  N_22
    2  A    between atoms: C_1  and  C_31
    3  A    between atoms: C_3  and  C_6
    4  A    between atoms: C_3  and  C_41
    5  A    between atoms: C_6  and  C_36
    6  A    between atoms: C_10  and  N_30
    7  A    between atoms: C_20  and  N_43
    8  A    between atoms: N_23  and  C_36
    9  A    between atoms: C_24  and  C_41
   10  A    between atoms: C_24  and  N_43
   11  A    between atoms: N_30  and  C_42
                            x       y       z     vdW  Elec       q    Type
                         _______ _______ _______ _____ _____    ______ ____

>  <TORSDO>
F 11

$$$$
=
 OpenBabel11042414073D

 49 55  0  0  1  0  0  0  0  0999 V2000
  193.6880  174.1330  140.2340 C   0  0  0  0  0  3  0  0  0  0  0  0
  193.4470  175.8860  144.2540 C   0  0  0  0  0  0  0  0  0  0  0  0
  192.6180  174.8790  142.3100 C   0  0  0  0  0  0  0  0  0  0  0  0
  191.3670  174.8120  142.8440 C   0  0  0  0  0  0  0  0  0  0  0  0
  197.9410  175.4310  140.3720 C   0  0  0  0  0  1  0  0  0  0  0  0
  195.6120  175.2500  141.4860 C   0  0  0  0  0  0  0  0  0  0  0  0
  191.1190  175.2120  144.1580 C   0  0  0  0  0  0  0  0  0  0  0  0
  189.8380  174.8410  144.8170 C   0  0  0  0  0  2  0  0  0  0  0  0
  196.9930  175.6660  141.5000 C   0  0  0  0  0  0  0  0  0  0  0  0
  190.5590  174.2260  141.8990 C   0  0  0  0  0  0  0  0  0  0  0  0
  195.5010  176.2630  143.7090 C   0  0  0  0  0  0  0  0  0  0  0  0
  191.3230  173.9160  140.8100 N   0  0  0  0  0  0  0  0  0  0  0  0
  188.3360  175.9000  146.9810 O   0  0  0  0  0  0  0  0  0  0  0  0
  188.4530  173.5130  141.1020 O   0  0  0  0  0  0  0  0  0  0  0  0
  197.5100  176.3450  142.5720 N   0  0  0  0  0  0  0  0  0  0  0  0
  189.0790  174.1750  141.9670 C   0  0  0  0  0  0  0  0  0  0  0  0
  188.3230  174.9860  142.8820 N   0  0  0  0  0  0  0  0  0  0  0  0
  187.7570  176.6320  146.1320 C   0  0  0  0  0  0  0  0  0  0  0  0
  188.6280  175.3620  144.0900 C   0  0  0  0  0  0  0  0  0  0  0  0
  192.5990  174.3220  141.0730 C   0  0  0  0  0  0  0  0  0  0  0  0
  194.9020  175.6230  142.6530 C   0  0  0  0  0  0  0  0  0  0  0  0
  194.6090  176.4490  144.7600 C   0  0  0  0  0  3  0  0  0  0  0  0
  195.0420  174.4960  140.3980 C   0  0  0  0  0  0  0  0  0  0  0  0
  193.6380  175.3920  143.0050 N   0  0  0  0  0  0  0  0  0  0  0  0
  187.7480  176.2840  144.7420 N   0  0  0  0  0  2  0  0  0  0  0  0
  196.7910  176.6400  143.6570 N   0  0  0  0  0  0  0  0  0  0  0  0
  192.1920  175.7720  144.8960 C   0  0  0  0  0  3  0  0  0  0  0  0
  187.0710  177.8720  146.5870 C   0  0  0  0  0  2  0  0  0  0  0  0
  184.8590  179.7990  144.2600 C   0  0  0  0  0  3  0  0  0  0  0  0
  183.8190  179.0370  145.0870 C   0  0  0  0  0  2  0  0  0  0  0  0
  186.0250  178.2480  145.6490 N   0  0  0  0  0  0  0  0  0  0  0  0
  186.2400  179.2070  144.5860 C   0  0  0  0  0  3  0  0  0  0  0  0
  184.1840  177.4080  146.8320 O   0  0  0  0  0  0  0  0  0  0  0  0
  184.6460  178.1600  145.9370 C   0  0  0  0  0  0  0  0  0  0  0  0
  195.9170  173.9990  139.3720 N   0  0  0  0  0  2  0  0  0  0  0  0
  196.0370  172.5910  138.9960 C   0  0  2  0  0  3  0  0  0  0  0  0
  197.3300  172.1530  139.2750 O   0  0  0  0  0  1  0  0  0  0  0  0
  195.7740  172.4380  137.5100 C   0  0  0  0  0  1  0  0  0  0  0  0
  190.8710  173.2090  139.6100 C   0  0  0  0  0  2  0  0  0  0  0  0
  191.4980  171.8200  139.5410 C   0  0  0  0  0  2  0  0  0  0  0  0
  191.0340  170.9500  140.6950 C   0  0  0  0  0  2  0  0  0  0  0  0
  192.0670  169.8820  140.9960 C   0  0  0  0  0  2  0  0  0  0  0  0
  192.1060  169.5380  142.4910 C   0  0  0  0  0  2  0  0  0  0  0  0
  191.2780  171.6120  144.2500 O   0  0  0  0  0  0  0  0  0  0  0  0
  193.0190  170.4140  143.2210 N   0  0  0  0  0  0  0  0  0  0  0  0
  193.4410  172.2420  144.9670 C   0  0  0  0  0  1  0  0  0  0  0  0
  192.5160  171.4150  144.1360 C   0  0  0  0  0  0  0  0  0  0  0  0
  194.7300  168.9800  144.2340 C   0  0  0  0  0  1  0  0  0  0  0  0
  194.4380  170.0510  143.1980 C   0  0  0  0  0  2  0  0  0  0  0  0
  1 23  2  0  0  0  0
  1 20  1  0  0  0  0
  2 22  2  0  0  0  0
  2 27  1  0  0  0  0
  3  4  1  0  0  0  0
  3 24  1  0  0  0  0
  4  7  1  0  0  0  0
  5  9  1  0  0  0  0
  6  9  2  0  0  0  0
  6 21  1  0  0  0  0
  7  8  1  0  0  0  0
  7 27  2  0  0  0  0
  9 15  1  0  0  0  0
 10 16  1  0  0  0  0
 10  4  2  0  0  0  0
 11 22  1  0  0  0  0
 12 20  1  0  0  0  0
 12 10  1  0  0  0  0
 14 16  2  0  0  0  0
 15 26  2  0  0  0  0
 16 17  1  0  0  0  0
 17 19  2  0  0  0  0
 18 28  1  0  0  0  0
 18 13  2  0  0  0  0
 19 25  1  0  0  0  0
 19  8  1  0  0  0  0
 20  3  2  0  0  0  0
 21 24  1  0  0  0  0
 21 11  2  0  0  0  0
 23  6  1  0  0  0  0
 24  2  1  0  0  0  0
 25 18  1  0  0  0  0
 26 11  1  0  0  0  0
 29 32  2  0  0  0  0
 29 30  1  0  0  0  0
 30 34  1  0  0  0  0
 31 34  1  0  0  0  0
 31 28  1  0  0  0  0
 32 31  1  0  0  0  0
 34 33  2  0  0  0  0
 35 23  1  0  0  0  0
 36 38  1  6  0  0  0
 36 37  1  0  0  0  0
 36 35  1  0  0  0  0
 39 12  1  0  0  0  0
 40 39  1  0  0  0  0
 40 41  1  0  0  0  0
 41 42  1  0  0  0  0
 42 43  1  0  0  0  0
 43 45  1  0  0  0  0
 45 47  1  0  0  0  0
 47 44  2  0  0  0  0
 47 46  1  0  0  0  0
 49 45  1  0  0  0  0
 49 48  1  0  0  0  0
M  END
>  <MODEL>
7

>  <REMARK>
 VINA RESULT:      -6.8      2.282      9.181
  Name = 
  11 active torsions:
  status: ('A' for Active; 'I' for Inactive)
    1  A    between atoms: C_1  and  N_22
    2  A    between atoms: C_1  and  C_31
    3  A    between atoms: C_3  and  C_6
    4  A    between atoms: C_3  and  C_41
    5  A    between atoms: C_6  and  C_36
    6  A    between atoms: C_10  and  N_30
    7  A    between atoms: C_20  and  N_43
    8  A    between atoms: N_23  and  C_36
    9  A    between atoms: C_24  and  C_41
   10  A    between atoms: C_24  and  N_43
   11  A    between atoms: N_30  and  C_42
                            x       y       z     vdW  Elec       q    Type
                         _______ _______ _______ _____ _____    ______ ____

>  <TORSDO>
F 11

$$$$
=
 OpenBabel11042414073D

 49 55  0  0  1  0  0  0  0  0999 V2000
  194.1150  172.7660  142.0080 C   0  0  0  0  0  3  0  0  0  0  0  0
  191.5900  175.2310  144.6230 C   0  0  0  0  0  0  0  0  0  0  0  0
  192.1060  173.9810  142.7120 C   0  0  0  0  0  0  0  0  0  0  0  0
  190.8410  174.1420  142.2310 C   0  0  0  0  0  0  0  0  0  0  0  0
  197.3120  173.6190  144.9820 C   0  0  0  0  0  1  0  0  0  0  0  0
  194.8670  173.8850  144.1760 C   0  0  0  0  0  0  0  0  0  0  0  0
  189.8620  174.7950  142.9780 C   0  0  0  0  0  0  0  0  0  0  0  0
  188.4310  174.6840  142.5840 C   0  0  0  0  0  2  0  0  0  0  0  0
  195.9260  174.1510  145.1200 C   0  0  0  0  0  0  0  0  0  0  0  0
  190.7850  173.4810  141.0260 C   0  0  0  0  0  0  0  0  0  0  0  0
  193.4950  175.2890  145.6350 C   0  0  0  0  0  0  0  0  0  0  0  0
  192.0000  172.9030  140.7930 N   0  0  0  0  0  0  0  0  0  0  0  0
  186.1160  176.2660  143.0320 O   0  0  0  0  0  0  0  0  0  0  0  0
  189.6780  172.8580  139.0350 O   0  0  0  0  0  0  0  0  0  0  0  0
  195.7080  174.9550  146.2080 N   0  0  0  0  0  0  0  0  0  0  0  0
  189.6740  173.5970  140.0510 C   0  0  0  0  0  0  0  0  0  0  0  0
  188.6820  174.6340  140.1350 N   0  0  0  0  0  0  0  0  0  0  0  0
  186.4210  176.8880  141.9780 C   0  0  0  0  0  0  0  0  0  0  0  0
  188.1620  175.1880  141.1910 C   0  0  0  0  0  0  0  0  0  0  0  0
  192.8140  173.2150  141.8440 C   0  0  0  0  0  0  0  0  0  0  0  0
  193.6510  174.5340  144.4990 C   0  0  0  0  0  0  0  0  0  0  0  0
  192.1900  175.7530  145.7590 C   0  0  0  0  0  3  0  0  0  0  0  0
  195.0430  173.0100  143.0440 C   0  0  0  0  0  0  0  0  0  0  0  0
  192.4680  174.5020  143.8880 N   0  0  0  0  0  0  0  0  0  0  0  0
  187.2800  176.2990  140.9950 N   0  0  0  0  0  2  0  0  0  0  0  0
  194.5250  175.5140  146.4700 N   0  0  0  0  0  0  0  0  0  0  0  0
  190.2420  175.3650  144.2190 C   0  0  0  0  0  3  0  0  0  0  0  0
  185.8740  178.2540  141.7550 C   0  0  0  0  0  2  0  0  0  0  0  0
  185.3890  179.0550  145.3810 C   0  0  0  0  0  3  0  0  0  0  0  0
  183.9380  178.8880  144.9230 C   0  0  0  0  0  2  0  0  0  0  0  0
  185.3960  178.8220  143.0060 N   0  0  0  0  0  0  0  0  0  0  0  0
  186.2740  179.0930  144.1250 C   0  0  0  0  0  3  0  0  0  0  0  0
  183.1020  178.4480  142.6990 O   0  0  0  0  0  0  0  0  0  0  0  0
  184.0670  178.6980  143.4660 C   0  0  0  0  0  0  0  0  0  0  0  0
  196.2570  172.2480  142.9440 N   0  0  0  0  0  2  0  0  0  0  0  0
  196.3150  170.8170  142.6520 C   0  0  2  0  0  3  0  0  0  0  0  0
  197.0130  170.1710  143.6700 O   0  0  0  0  0  1  0  0  0  0  0  0
  197.0410  170.5960  141.3380 C   0  0  0  0  0  1  0  0  0  0  0  0
  192.3440  172.0410  139.6600 C   0  0  0  0  0  2  0  0  0  0  0  0
  193.0240  172.8520  138.5610 C   0  0  0  0  0  2  0  0  0  0  0  0
  194.4840  172.4620  138.4150 C   0  0  0  0  0  2  0  0  0  0  0  0
  195.3390  173.6960  138.2020 C   0  0  0  0  0  2  0  0  0  0  0  0
  194.7810  174.9090  138.9580 C   0  0  0  0  0  2  0  0  0  0  0  0
  194.2290  176.2610  141.3960 O   0  0  0  0  0  0  0  0  0  0  0  0
  195.7960  175.5300  139.8050 N   0  0  0  0  0  0  0  0  0  0  0  0
  196.4770  176.7000  141.9810 C   0  0  0  0  0  1  0  0  0  0  0  0
  195.4370  176.1580  141.0570 C   0  0  0  0  0  0  0  0  0  0  0  0
  197.7480  174.1620  140.3810 C   0  0  0  0  0  1  0  0  0  0  0  0
  197.1940  175.2450  139.4720 C   0  0  0  0  0  2  0  0  0  0  0  0
  1 23  2  0  0  0  0
  2 22  2  0  0  0  0
  3 24  1  0  0  0  0
  4  3  1  0  0  0  0
  4  7  1  0  0  0  0
  5  9  1  0  0  0  0
  6 21  2  0  0  0  0
  6  9  1  0  0  0  0
  7 27  2  0  0  0  0
  8  7  1  0  0  0  0
  9 15  2  0  0  0  0
 10  4  2  0  0  0  0
 11 22  1  0  0  0  0
 11 26  2  0  0  0  0
 12 10  1  0  0  0  0
 12 20  1  0  0  0  0
 14 16  2  0  0  0  0
 15 26  1  0  0  0  0
 16 17  1  0  0  0  0
 16 10  1  0  0  0  0
 17 19  2  0  0  0  0
 18 13  2  0  0  0  0
 19  8  1  0  0  0  0
 20  1  1  0  0  0  0
 20  3  2  0  0  0  0
 21 11  1  0  0  0  0
 23  6  1  0  0  0  0
 24 21  1  0  0  0  0
 24  2  1  0  0  0  0
 25 19  1  0  0  0  0
 25 18  1  0  0  0  0
 27  2  1  0  0  0  0
 28 18  1  0  0  0  0
 28 31  1  0  0  0  0
 30 29  1  0  0  0  0
 31 34  1  0  0  0  0
 31 32  1  0  0  0  0
 32 29  2  0  0  0  0
 33 34  2  0  0  0  0
 34 30  1  0  0  0  0
 35 23  1  0  0  0  0
 36 38  1  6  0  0  0
 36 35  1  0  0  0  0
 36 37  1  0  0  0  0
 39 12  1  0  0  0  0
 40 39  1  0  0  0  0
 41 40  1  0  0  0  0
 42 41  1  0  0  0  0
 42 43  1  0  0  0  0
 43 45  1  0  0  0  0
 45 47  1  0  0  0  0
 47 44  2  0  0  0  0
 47 46  1  0  0  0  0
 49 45  1  0  0  0  0
 49 48  1  0  0  0  0
M  END
>  <MODEL>
8

>  <REMARK>
 VINA RESULT:      -6.7      2.526      8.574
  Name = 
  11 active torsions:
  status: ('A' for Active; 'I' for Inactive)
    1  A    between atoms: C_1  and  N_22
    2  A    between atoms: C_1  and  C_31
    3  A    between atoms: C_3  and  C_6
    4  A    between atoms: C_3  and  C_41
    5  A    between atoms: C_6  and  C_36
    6  A    between atoms: C_10  and  N_30
    7  A    between atoms: C_20  and  N_43
    8  A    between atoms: N_23  and  C_36
    9  A    between atoms: C_24  and  C_41
   10  A    between atoms: C_24  and  N_43
   11  A    between atoms: N_30  and  C_42
                            x       y       z     vdW  Elec       q    Type
                         _______ _______ _______ _____ _____    ______ ____

>  <TORSDO>
F 11

$$$$
=
 OpenBabel11042414073D

 49 55  0  0  1  0  0  0  0  0999 V2000
  191.6780  176.4430  144.7010 C   0  0  0  0  0  3  0  0  0  0  0  0
  190.2620  174.3160  141.1290 C   0  0  0  0  0  0  0  0  0  0  0  0
  191.8580  175.2190  142.5840 C   0  0  0  0  0  0  0  0  0  0  0  0
  192.8730  174.7180  141.8280 C   0  0  0  0  0  0  0  0  0  0  0  0
  187.3640  177.2510  145.4250 C   0  0  0  0  0  1  0  0  0  0  0  0
  189.2390  176.1880  143.9930 C   0  0  0  0  0  0  0  0  0  0  0  0
  192.6180  173.9120  140.7180 C   0  0  0  0  0  0  0  0  0  0  0  0
  193.7210  173.1260  140.1030 C   0  0  0  0  0  2  0  0  0  0  0  0
  187.8480  176.4710  144.2490 C   0  0  0  0  0  0  0  0  0  0  0  0
  194.0480  175.0870  142.4400 C   0  0  0  0  0  0  0  0  0  0  0  0
  188.4220  175.0380  141.9940 C   0  0  0  0  0  0  0  0  0  0  0  0
  193.7430  175.7840  143.5740 N   0  0  0  0  0  0  0  0  0  0  0  0
  194.1740  172.0100  137.5320 O   0  0  0  0  0  0  0  0  0  0  0  0
  196.4040  175.2210  142.5300 O   0  0  0  0  0  0  0  0  0  0  0  0
  186.8750  176.0500  143.3810 N   0  0  0  0  0  0  0  0  0  0  0  0
  195.3940  174.9580  141.8320 C   0  0  0  0  0  0  0  0  0  0  0  0
  195.5830  174.7030  140.4300 N   0  0  0  0  0  0  0  0  0  0  0  0
  194.7060  173.1110  137.2220 C   0  0  0  0  0  0  0  0  0  0  0  0
  194.8610  173.9830  139.6220 C   0  0  0  0  0  0  0  0  0  0  0  0
  192.3830  175.8610  143.6590 C   0  0  0  0  0  0  0  0  0  0  0  0
  189.4530  175.4680  142.7920 C   0  0  0  0  0  0  0  0  0  0  0  0
  188.8910  174.2920  140.9190 C   0  0  0  0  0  3  0  0  0  0  0  0
  190.2870  176.5740  144.9030 C   0  0  0  0  0  0  0  0  0  0  0  0
  190.5800  175.0110  142.2500 N   0  0  0  0  0  0  0  0  0  0  0  0
  195.1990  174.0010  138.2310 N   0  0  0  0  0  2  0  0  0  0  0  0
  187.1440  175.3480  142.2780 N   0  0  0  0  0  0  0  0  0  0  0  0
  191.2660  173.7000  140.3470 C   0  0  0  0  0  3  0  0  0  0  0  0
  194.8240  173.4850  135.7870 C   0  0  0  0  0  2  0  0  0  0  0  0
  193.0450  176.7800  135.8380 C   0  0  0  0  0  3  0  0  0  0  0  0
  191.8700  175.8170  135.6490 C   0  0  0  0  0  2  0  0  0  0  0  0
  193.9400  174.5970  135.4760 N   0  0  0  0  0  0  0  0  0  0  0  0
  194.3420  175.9800  135.6350 C   0  0  0  0  0  3  0  0  0  0  0  0
  191.9180  173.4160  135.3860 O   0  0  0  0  0  0  0  0  0  0  0  0
  192.5320  174.5080  135.4920 C   0  0  0  0  0  0  0  0  0  0  0  0
  189.9220  177.1120  146.1850 N   0  0  0  0  0  2  0  0  0  0  0  0
  190.0680  176.3980  147.4530 C   0  0  2  0  0  3  0  0  0  0  0  0
  191.3850  176.5130  147.8920 O   0  0  0  0  0  1  0  0  0  0  0  0
  189.7410  174.9310  147.2500 C   0  0  0  0  0  1  0  0  0  0  0  0
  194.7000  176.2920  144.5590 C   0  0  0  0  0  2  0  0  0  0  0  0
  194.7140  175.4020  145.7980 C   0  0  0  0  0  2  0  0  0  0  0  0
  195.9330  174.4970  145.8110 C   0  0  0  0  0  2  0  0  0  0  0  0
  195.6060  173.1650  145.1650 C   0  0  0  0  0  2  0  0  0  0  0  0
  194.2170  172.6610  145.5780 C   0  0  0  0  0  2  0  0  0  0  0  0
  194.8910  170.0360  146.4350 O   0  0  0  0  0  0  0  0  0  0  0  0
  193.8510  171.4410  144.8640 N   0  0  0  0  0  0  0  0  0  0  0  0
  193.7310  168.8840  144.7270 C   0  0  0  0  0  1  0  0  0  0  0  0
  194.1920  170.1390  145.3930 C   0  0  0  0  0  0  0  0  0  0  0  0
  191.5750  172.1270  144.2630 C   0  0  0  0  0  1  0  0  0  0  0  0
  192.9010  171.5860  143.7580 C   0  0  0  0  0  2  0  0  0  0  0  0
  1 23  2  0  0  0  0
  2 24  1  0  0  0  0
  3 20  2  0  0  0  0
  4 10  2  0  0  0  0
  4  3  1  0  0  0  0
  6  9  1  0  0  0  0
  6 23  1  0  0  0  0
  7  4  1  0  0  0  0
  8  7  1  0  0  0  0
  9  5  1  0  0  0  0
 10 12  1  0  0  0  0
 11 26  2  0  0  0  0
 11 21  1  0  0  0  0
 12 20  1  0  0  0  0
 12 39  1  0  0  0  0
 15  9  2  0  0  0  0
 16 10  1  0  0  0  0
 16 14  2  0  0  0  0
 17 16  1  0  0  0  0
 18 13  2  0  0  0  0
 18 25  1  0  0  0  0
 19  8  1  0  0  0  0
 19 17  2  0  0  0  0
 20  1  1  0  0  0  0
 21  6  2  0  0  0  0
 22  2  2  0  0  0  0
 22 11  1  0  0  0  0
 23 35  1  0  0  0  0
 24  3  1  0  0  0  0
 24 21  1  0  0  0  0
 25 19  1  0  0  0  0
 26 15  1  0  0  0  0
 27  7  2  0  0  0  0
 27  2  1  0  0  0  0
 28 18  1  0  0  0  0
 30 29  1  0  0  0  0
 31 34  1  0  0  0  0
 31 32  1  0  0  0  0
 31 28  1  0  0  0  0
 32 29  2  0  0  0  0
 33 34  2  0  0  0  0
 34 30  1  0  0  0  0
 35 36  1  0  0  0  0
 36 38  1  6  0  0  0
 36 37  1  0  0  0  0
 39 40  1  0  0  0  0
 40 41  1  0  0  0  0
 42 43  1  0  0  0  0
 42 41  1  0  0  0  0
 45 47  1  0  0  0  0
 45 43  1  0  0  0  0
 46 47  1  0  0  0  0
 47 44  2  0  0  0  0
 49 48  1  0  0  0  0
 49 45  1  0  0  0  0
M  END
>  <MODEL>
9

>  <REMARK>
 VINA RESULT:      -6.5      2.384      4.111
  Name = 
  11 active torsions:
  status: ('A' for Active; 'I' for Inactive)
    1  A    between atoms: C_1  and  N_22
    2  A    between atoms: C_1  and  C_31
    3  A    between atoms: C_3  and  C_6
    4  A    between atoms: C_3  and  C_41
    5  A    between atoms: C_6  and  C_36
    6  A    between atoms: C_10  and  N_30
    7  A    between atoms: C_20  and  N_43
    8  A    between atoms: N_23  and  C_36
    9  A    between atoms: C_24  and  C_41
   10  A    between atoms: C_24  and  N_43
   11  A    between atoms: N_30  and  C_42
                            x       y       z     vdW  Elec       q    Type
                         _______ _______ _______ _____ _____    ______ ____

>  <TORSDO>
F 11

$$$$
