=
 OpenBabel11042414013D

 31 34  0  0  1  0  0  0  0  0999 V2000
  185.2150  177.6700  144.9190 C   0  0  2  0  0  3  0  0  0  0  0  0
  186.3770  177.2750  144.0710 N   0  0  0  0  0  0  0  0  0  0  0  0
  184.3990  178.7110  144.1830 C   0  0  0  0  0  1  0  0  0  0  0  0
  186.4520  178.1830  145.2560 C   0  0  2  0  0  3  0  0  0  0  0  0
  187.6800  175.3990  143.2200 C   0  0  0  0  0  3  0  0  0  0  0  0
  188.2620  174.6970  142.1620 C   0  0  0  0  0  3  0  0  0  0  0  0
  188.1370  175.1660  140.8510 C   0  0  0  0  0  0  0  0  0  0  0  0
  187.4190  176.3490  140.6090 C   0  0  0  0  0  3  0  0  0  0  0  0
  186.9650  176.5750  142.9780 C   0  0  0  0  0  0  0  0  0  0  0  0
  186.8300  177.0590  141.6660 C   0  0  0  0  0  0  0  0  0  0  0  0
  188.1600  174.2000  138.6540 C   0  0  0  0  0  3  0  0  0  0  0  0
  188.7460  174.4250  139.7880 N   0  0  0  0  0  0  0  0  0  0  0  0
  189.3910  172.1280  138.1190 C   0  0  0  0  0  2  0  0  0  0  0  0
  190.8740  173.1780  136.7230 C   0  0  0  0  0  2  0  0  0  0  0  0
  190.7400  172.0330  137.6100 N   0  0  0  0  0  2  0  0  0  0  0  0
  188.8410  173.4200  137.5780 C   0  0  2  0  0  3  0  0  0  0  0  0
  189.9120  174.1460  137.0510 O   0  0  0  0  0  0  0  0  0  0  0  0
  185.0300  178.3140  140.5190 C   0  0  0  0  0  1  0  0  0  0  0  0
  186.1110  178.2380  141.4380 O   0  0  0  0  0  0  0  0  0  0  0  0
  186.3310  177.3430  147.4880 O   0  0  0  0  0  0  0  0  0  0  0  0
  187.0210  177.4500  146.4370 C   0  0  0  0  0  0  0  0  0  0  0  0
  190.8870  175.5850  146.2450 C   0  0  0  0  0  0  0  0  0  0  0  0
  190.7030  176.8850  145.7530 C   0  0  0  0  0  3  0  0  0  0  0  0
  188.5380  175.5130  146.8600 C   0  0  0  0  0  3  0  0  0  0  0  0
  189.4480  177.4930  145.8150 C   0  0  0  0  0  3  0  0  0  0  0  0
  189.7940  174.9040  146.7990 C   0  0  0  0  0  3  0  0  0  0  0  0
  188.3530  176.8130  146.3700 C   0  0  0  0  0  0  0  0  0  0  0  0
  192.2120  174.9440  146.1810 C   0  0  0  0  0  0  0  0  0  0  0  0
  193.1850  175.4410  146.8110 O   0  0  0  0  0  0  0  0  0  0  0  0
  192.3960  173.7570  145.4040 N   0  0  0  0  0  2  0  0  0  0  0  0
  193.6830  173.0890  145.3110 C   0  0  0  0  0  1  0  0  0  0  0  0
  1  3  1  6  0  0  0
  1  4  1  0  0  0  0
  2  1  1  0  0  0  0
  2  4  1  0  0  0  0
  4 21  1  1  0  0  0
  6  5  2  0  0  0  0
  7  6  1  0  0  0  0
  8  7  2  0  0  0  0
  8 10  1  0  0  0  0
  9  5  1  0  0  0  0
  9  2  1  0  0  0  0
 10  9  2  0  0  0  0
 11 12  2  0  0  0  0
 12  7  1  0  0  0  0
 14 17  1  0  0  0  0
 14 15  1  0  0  0  0
 15 13  1  0  0  0  0
 16 13  1  0  0  0  0
 16 11  1  1  0  0  0
 17 16  1  0  0  0  0
 18 19  1  0  0  0  0
 19 10  1  0  0  0  0
 21 20  2  0  0  0  0
 22 26  1  0  0  0  0
 23 25  1  0  0  0  0
 23 22  2  0  0  0  0
 25 27  2  0  0  0  0
 26 24  2  0  0  0  0
 27 21  1  0  0  0  0
 27 24  1  0  0  0  0
 28 22  1  0  0  0  0
 28 29  2  0  0  0  0
 30 28  1  0  0  0  0
 31 30  1  0  0  0  0
M  END
>  <MODEL>
1

>  <REMARK>
 VINA RESULT:      -7.1      0.000      0.000
  Name = 
  7 active torsions:
  status: ('A' for Active; 'I' for Inactive)
    1  A    between atoms: N_3  and  C_18
    2  A    between atoms: C_5  and  C_10
    3  A    between atoms: C_6  and  N_29
    4  A    between atoms: C_12  and  C_28
    5  A    between atoms: O_21  and  C_25
    6  A    between atoms: C_22  and  C_24
    7  A    between atoms: C_22  and  C_27
                            x       y       z     vdW  Elec       q    Type
                         _______ _______ _______ _____ _____    ______ ____

>  <TORSDO>
F 7

$$$$
=
 OpenBabel11042414013D

 31 34  0  0  1  0  0  0  0  0999 V2000
  189.0090  175.8420  145.8110 C   0  0  2  0  0  3  0  0  0  0  0  0
  188.1110  176.8980  145.2630 N   0  0  0  0  0  0  0  0  0  0  0  0
  188.4610  175.3700  147.1400 C   0  0  0  0  0  1  0  0  0  0  0  0
  189.4350  177.1520  145.9080 C   0  0  2  0  0  3  0  0  0  0  0  0
  186.1190  178.3040  145.2400 C   0  0  0  0  0  3  0  0  0  0  0  0
  184.9450  178.7470  144.6270 C   0  0  0  0  0  3  0  0  0  0  0  0
  184.5550  178.2260  143.3900 C   0  0  0  0  0  0  0  0  0  0  0  0
  185.3560  177.2520  142.7700 C   0  0  0  0  0  3  0  0  0  0  0  0
  186.9150  177.3350  144.6220 C   0  0  0  0  0  0  0  0  0  0  0  0
  186.5380  176.8020  143.3790 C   0  0  0  0  0  0  0  0  0  0  0  0
  182.9190  178.2880  141.6340 C   0  0  0  0  0  3  0  0  0  0  0  0
  183.3460  178.6990  142.7870 N   0  0  0  0  0  0  0  0  0  0  0  0
  180.6190  179.0400  142.1230 C   0  0  0  0  0  2  0  0  0  0  0  0
  179.7260  178.0400  140.2660 C   0  0  0  0  0  2  0  0  0  0  0  0
  179.3960  178.4590  141.6200 N   0  0  0  0  0  2  0  0  0  0  0  0
  181.6510  178.8150  141.0500 C   0  0  2  0  0  3  0  0  0  0  0  0
  181.1160  177.9020  140.1380 O   0  0  0  0  0  0  0  0  0  0  0  0
  188.1450  176.1060  141.6290 C   0  0  0  0  0  1  0  0  0  0  0  0
  187.3450  175.8330  142.7720 O   0  0  0  0  0  0  0  0  0  0  0  0
  190.2190  178.2880  143.9580 O   0  0  0  0  0  0  0  0  0  0  0  0
  190.4740  177.4450  144.8630 C   0  0  0  0  0  0  0  0  0  0  0  0
  194.3390  175.5720  144.9730 C   0  0  0  0  0  0  0  0  0  0  0  0
  193.6700  175.8840  146.1650 C   0  0  0  0  0  3  0  0  0  0  0  0
  192.4730  176.4870  143.7150 C   0  0  0  0  0  3  0  0  0  0  0  0
  192.4130  176.4930  146.1310 C   0  0  0  0  0  3  0  0  0  0  0  0
  193.7300  175.8780  143.7480 C   0  0  0  0  0  3  0  0  0  0  0  0
  191.8030  176.7990  144.9050 C   0  0  0  0  0  0  0  0  0  0  0  0
  195.6640  174.9290  145.0090 C   0  0  0  0  0  0  0  0  0  0  0  0
  196.5910  175.3520  144.2660 O   0  0  0  0  0  0  0  0  0  0  0  0
  195.9000  173.8240  145.8860 N   0  0  0  0  0  2  0  0  0  0  0  0
  197.1900  173.1580  145.9570 C   0  0  0  0  0  1  0  0  0  0  0  0
  1  4  1  0  0  0  0
  1  3  1  1  0  0  0
  2  1  1  0  0  0  0
  2  4  1  0  0  0  0
  4 21  1  6  0  0  0
  6  5  1  0  0  0  0
  7  6  2  0  0  0  0
  8 10  2  0  0  0  0
  8  7  1  0  0  0  0
  9  5  2  0  0  0  0
  9  2  1  0  0  0  0
 10  9  1  0  0  0  0
 11 12  2  0  0  0  0
 12  7  1  0  0  0  0
 14 15  1  0  0  0  0
 15 13  1  0  0  0  0
 16 11  1  1  0  0  0
 16 13  1  0  0  0  0
 17 14  1  0  0  0  0
 17 16  1  0  0  0  0
 18 19  1  0  0  0  0
 19 10  1  0  0  0  0
 20 21  2  0  0  0  0
 21 27  1  0  0  0  0
 22 28  1  0  0  0  0
 22 23  1  0  0  0  0
 24 26  1  0  0  0  0
 24 27  2  0  0  0  0
 25 23  2  0  0  0  0
 26 22  2  0  0  0  0
 27 25  1  0  0  0  0
 28 30  1  0  0  0  0
 29 28  2  0  0  0  0
 30 31  1  0  0  0  0
M  END
>  <MODEL>
2

>  <REMARK>
 VINA RESULT:      -7.0      3.518      6.164
  Name = 
  7 active torsions:
  status: ('A' for Active; 'I' for Inactive)
    1  A    between atoms: N_3  and  C_18
    2  A    between atoms: C_5  and  C_10
    3  A    between atoms: C_6  and  N_29
    4  A    between atoms: C_12  and  C_28
    5  A    between atoms: O_21  and  C_25
    6  A    between atoms: C_22  and  C_24
    7  A    between atoms: C_22  and  C_27
                            x       y       z     vdW  Elec       q    Type
                         _______ _______ _______ _____ _____    ______ ____

>  <TORSDO>
F 7

$$$$
=
 OpenBabel11042414013D

 31 34  0  0  1  0  0  0  0  0999 V2000
  188.3130  176.5600  145.5030 C   0  0  2  0  0  3  0  0  0  0  0  0
  187.5770  177.3680  144.4890 N   0  0  0  0  0  0  0  0  0  0  0  0
  187.7250  176.8330  146.8710 C   0  0  0  0  0  1  0  0  0  0  0  0
  188.9370  177.6920  145.0170 C   0  0  2  0  0  3  0  0  0  0  0  0
  186.4910  177.2640  142.3090 C   0  0  0  0  0  3  0  0  0  0  0  0
  185.3970  177.5130  141.4770 C   0  0  0  0  0  3  0  0  0  0  0  0
  184.2510  178.1320  141.9850 C   0  0  0  0  0  0  0  0  0  0  0  0
  184.2120  178.5010  143.3390 C   0  0  0  0  0  3  0  0  0  0  0  0
  186.4510  177.6320  143.6560 C   0  0  0  0  0  0  0  0  0  0  0  0
  185.3070  178.2550  144.1820 C   0  0  0  0  0  0  0  0  0  0  0  0
  181.9110  178.3570  141.5000 C   0  0  0  0  0  3  0  0  0  0  0  0
  183.1470  178.3740  141.1070 N   0  0  0  0  0  0  0  0  0  0  0  0
  180.3660  180.0580  140.5960 C   0  0  0  0  0  2  0  0  0  0  0  0
  178.5770  178.6280  140.5290 C   0  0  0  0  0  2  0  0  0  0  0  0
  178.9240  180.0350  140.6640 N   0  0  0  0  0  2  0  0  0  0  0  0
  180.7960  178.6160  140.5420 C   0  0  2  0  0  3  0  0  0  0  0  0
  179.6840  177.8340  140.8650 O   0  0  0  0  0  0  0  0  0  0  0  0
  184.2410  178.2160  146.4160 C   0  0  0  0  0  1  0  0  0  0  0  0
  185.2800  178.6170  145.5330 O   0  0  0  0  0  0  0  0  0  0  0  0
  189.9190  177.7940  142.8420 O   0  0  0  0  0  0  0  0  0  0  0  0
  189.9880  177.3200  144.0100 C   0  0  0  0  0  0  0  0  0  0  0  0
  193.2870  174.7910  145.0930 C   0  0  0  0  0  0  0  0  0  0  0  0
  192.4620  174.4520  144.0120 C   0  0  0  0  0  3  0  0  0  0  0  0
  191.9490  176.7840  145.4590 C   0  0  0  0  0  3  0  0  0  0  0  0
  191.3890  175.2730  143.6580 C   0  0  0  0  0  3  0  0  0  0  0  0
  193.0230  175.9630  145.8140 C   0  0  0  0  0  3  0  0  0  0  0  0
  191.1230  176.4470  144.3780 C   0  0  0  0  0  0  0  0  0  0  0  0
  194.4200  173.9250  145.4650 C   0  0  0  0  0  0  0  0  0  0  0  0
  194.2460  172.6840  145.6070 O   0  0  0  0  0  0  0  0  0  0  0  0
  195.7180  174.4910  145.6670 N   0  0  0  0  0  2  0  0  0  0  0  0
  196.8650  173.6780  146.0340 C   0  0  0  0  0  1  0  0  0  0  0  0
  1  3  1  1  0  0  0
  2  4  1  0  0  0  0
  2  1  1  0  0  0  0
  4 21  1  6  0  0  0
  4  1  1  0  0  0  0
  5  9  1  0  0  0  0
  6  7  1  0  0  0  0
  6  5  2  0  0  0  0
  7  8  2  0  0  0  0
  8 10  1  0  0  0  0
  9 10  2  0  0  0  0
  9  2  1  0  0  0  0
 10 19  1  0  0  0  0
 12 11  2  0  0  0  0
 12  7  1  0  0  0  0
 13 15  1  0  0  0  0
 14 15  1  0  0  0  0
 14 17  1  0  0  0  0
 16 13  1  0  0  0  0
 16 17  1  0  0  0  0
 16 11  1  1  0  0  0
 19 18  1  0  0  0  0
 20 21  2  0  0  0  0
 21 27  1  0  0  0  0
 22 28  1  0  0  0  0
 22 26  1  0  0  0  0
 23 22  2  0  0  0  0
 24 26  2  0  0  0  0
 25 23  1  0  0  0  0
 25 27  2  0  0  0  0
 27 24  1  0  0  0  0
 28 29  2  0  0  0  0
 28 30  1  0  0  0  0
 30 31  1  0  0  0  0
M  END
>  <MODEL>
3

>  <REMARK>
 VINA RESULT:      -6.9      3.739      6.331
  Name = 
  7 active torsions:
  status: ('A' for Active; 'I' for Inactive)
    1  A    between atoms: N_3  and  C_18
    2  A    between atoms: C_5  and  C_10
    3  A    between atoms: C_6  and  N_29
    4  A    between atoms: C_12  and  C_28
    5  A    between atoms: O_21  and  C_25
    6  A    between atoms: C_22  and  C_24
    7  A    between atoms: C_22  and  C_27
                            x       y       z     vdW  Elec       q    Type
                         _______ _______ _______ _____ _____    ______ ____

>  <TORSDO>
F 7

$$$$
=
 OpenBabel11042414013D

 31 34  0  0  1  0  0  0  0  0999 V2000
  190.2090  177.6660  143.9820 C   0  0  2  0  0  3  0  0  0  0  0  0
  190.8010  176.5880  144.8240 N   0  0  0  0  0  0  0  0  0  0  0  0
  191.2270  178.7730  143.8100 C   0  0  0  0  0  1  0  0  0  0  0  0
  189.8010  177.5920  145.2990 C   0  0  2  0  0  3  0  0  0  0  0  0
  192.9150  175.6590  145.6050 C   0  0  0  0  0  3  0  0  0  0  0  0
  193.7680  174.5720  145.8140 C   0  0  0  0  0  3  0  0  0  0  0  0
  193.3710  173.2830  145.4470 C   0  0  0  0  0  0  0  0  0  0  0  0
  192.1070  173.0920  144.8660 C   0  0  0  0  0  3  0  0  0  0  0  0
  191.6570  175.4660  145.0270 C   0  0  0  0  0  0  0  0  0  0  0  0
  191.2440  174.1780  144.6530 C   0  0  0  0  0  0  0  0  0  0  0  0
  194.1600  171.0470  145.0720 C   0  0  0  0  0  3  0  0  0  0  0  0
  194.2680  172.1910  145.6730 N   0  0  0  0  0  0  0  0  0  0  0  0
  194.6240  169.0580  146.4580 C   0  0  0  0  0  2  0  0  0  0  0  0
  196.8570  169.5230  146.6640 C   0  0  0  0  0  2  0  0  0  0  0  0
  195.7500  168.8650  147.3420 N   0  0  0  0  0  2  0  0  0  0  0  0
  195.1220  169.9400  145.3450 C   0  0  2  0  0  3  0  0  0  0  0  0
  196.3600  170.4540  145.7390 O   0  0  0  0  0  0  0  0  0  0  0  0
  189.8030  173.6100  142.7200 C   0  0  0  0  0  1  0  0  0  0  0  0
  189.9810  174.0000  144.0760 O   0  0  0  0  0  0  0  0  0  0  0  0
  188.1810  176.1900  146.3550 O   0  0  0  0  0  0  0  0  0  0  0  0
  188.4390  176.9650  145.3920 C   0  0  0  0  0  0  0  0  0  0  0  0
  185.3780  177.8870  142.5220 C   0  0  0  0  0  0  0  0  0  0  0  0
  186.0530  176.6600  142.4670 C   0  0  0  0  0  3  0  0  0  0  0  0
  186.7100  178.5040  144.4570 C   0  0  0  0  0  3  0  0  0  0  0  0
  187.0480  176.3580  143.3990 C   0  0  0  0  0  3  0  0  0  0  0  0
  185.7150  178.8070  143.5250 C   0  0  0  0  0  3  0  0  0  0  0  0
  187.3850  177.2770  144.4040 C   0  0  0  0  0  0  0  0  0  0  0  0
  184.3280  178.2050  141.5390 C   0  0  0  0  0  0  0  0  0  0  0  0
  184.6420  178.5250  140.3600 O   0  0  0  0  0  0  0  0  0  0  0  0
  182.9510  178.1500  141.9210 N   0  0  0  0  0  2  0  0  0  0  0  0
  181.8790  178.4540  140.9870 C   0  0  0  0  0  1  0  0  0  0  0  0
  1  3  1  1  0  0  0
  1  2  1  0  0  0  0
  1  4  1  0  0  0  0
  2  9  1  0  0  0  0
  2  4  1  0  0  0  0
  4 21  1  6  0  0  0
  5  6  1  0  0  0  0
  7 12  1  0  0  0  0
  7  6  2  0  0  0  0
  8  7  1  0  0  0  0
  9  5  2  0  0  0  0
 10  8  2  0  0  0  0
 10  9  1  0  0  0  0
 11 12  2  0  0  0  0
 13 15  1  0  0  0  0
 14 15  1  0  0  0  0
 16 11  1  1  0  0  0
 16 17  1  0  0  0  0
 16 13  1  0  0  0  0
 17 14  1  0  0  0  0
 18 19  1  0  0  0  0
 19 10  1  0  0  0  0
 21 20  2  0  0  0  0
 22 26  1  0  0  0  0
 23 22  2  0  0  0  0
 23 25  1  0  0  0  0
 25 27  2  0  0  0  0
 26 24  2  0  0  0  0
 27 24  1  0  0  0  0
 27 21  1  0  0  0  0
 28 30  1  0  0  0  0
 28 22  1  0  0  0  0
 29 28  2  0  0  0  0
 31 30  1  0  0  0  0
M  END
>  <MODEL>
4

>  <REMARK>
 VINA RESULT:      -6.9      3.438      7.866
  Name = 
  7 active torsions:
  status: ('A' for Active; 'I' for Inactive)
    1  A    between atoms: N_3  and  C_18
    2  A    between atoms: C_5  and  C_10
    3  A    between atoms: C_6  and  N_29
    4  A    between atoms: C_12  and  C_28
    5  A    between atoms: O_21  and  C_25
    6  A    between atoms: C_22  and  C_24
    7  A    between atoms: C_22  and  C_27
                            x       y       z     vdW  Elec       q    Type
                         _______ _______ _______ _____ _____    ______ ____

>  <TORSDO>
F 7

$$$$
=
 OpenBabel11042414013D

 31 34  0  0  1  0  0  0  0  0999 V2000
  190.0620  177.5540  143.9840 C   0  0  2  0  0  3  0  0  0  0  0  0
  190.6040  176.3810  144.7280 N   0  0  0  0  0  0  0  0  0  0  0  0
  191.1650  178.5750  143.8040 C   0  0  0  0  0  1  0  0  0  0  0  0
  189.7300  177.4400  145.3200 C   0  0  2  0  0  3  0  0  0  0  0  0
  191.0320  174.0950  144.0000 C   0  0  0  0  0  3  0  0  0  0  0  0
  191.7670  172.9090  144.0680 C   0  0  0  0  0  3  0  0  0  0  0  0
  192.8430  172.7960  144.9540 C   0  0  0  0  0  0  0  0  0  0  0  0
  193.1760  173.8870  145.7730 C   0  0  0  0  0  3  0  0  0  0  0  0
  191.3650  175.1790  144.8150 C   0  0  0  0  0  0  0  0  0  0  0  0
  192.4430  175.0820  145.7100 C   0  0  0  0  0  0  0  0  0  0  0  0
  194.5880  171.3750  145.7890 C   0  0  0  0  0  3  0  0  0  0  0  0
  193.5760  171.5680  145.0010 N   0  0  0  0  0  0  0  0  0  0  0  0
  194.9230  169.2450  146.9920 C   0  0  0  0  0  2  0  0  0  0  0  0
  197.1860  169.2150  146.6350 C   0  0  0  0  0  2  0  0  0  0  0  0
  196.1590  168.7620  147.5610 N   0  0  0  0  0  2  0  0  0  0  0  0
  195.3190  170.0740  145.7990 C   0  0  2  0  0  3  0  0  0  0  0  0
  196.6970  170.2880  145.8750 O   0  0  0  0  0  0  0  0  0  0  0  0
  193.9410  176.9540  146.3290 C   0  0  0  0  0  1  0  0  0  0  0  0
  192.7670  176.1760  146.5200 O   0  0  0  0  0  0  0  0  0  0  0  0
  188.0270  176.2280  146.4760 O   0  0  0  0  0  0  0  0  0  0  0  0
  188.3250  176.9290  145.4700 C   0  0  0  0  0  0  0  0  0  0  0  0
  185.2840  177.9470  142.6110 C   0  0  0  0  0  0  0  0  0  0  0  0
  186.0270  176.7680  142.4630 C   0  0  0  0  0  3  0  0  0  0  0  0
  186.5350  178.4540  144.6300 C   0  0  0  0  0  3  0  0  0  0  0  0
  187.0160  176.4350  143.3910 C   0  0  0  0  0  3  0  0  0  0  0  0
  185.5460  178.7870  143.7020 C   0  0  0  0  0  3  0  0  0  0  0  0
  187.2780  177.2750  144.4840 C   0  0  0  0  0  0  0  0  0  0  0  0
  184.2400  178.2970  141.6320 C   0  0  0  0  0  0  0  0  0  0  0  0
  184.5580  178.5930  140.4480 O   0  0  0  0  0  0  0  0  0  0  0  0
  182.8640  178.3020  142.0230 N   0  0  0  0  0  2  0  0  0  0  0  0
  181.7990  178.6400  141.0930 C   0  0  0  0  0  1  0  0  0  0  0  0
  1  3  1  1  0  0  0
  1  2  1  0  0  0  0
  1  4  1  0  0  0  0
  2  9  1  0  0  0  0
  2  4  1  0  0  0  0
  4 21  1  6  0  0  0
  5  6  2  0  0  0  0
  5  9  1  0  0  0  0
  6  7  1  0  0  0  0
  7 12  1  0  0  0  0
  7  8  2  0  0  0  0
  9 10  2  0  0  0  0
 10  8  1  0  0  0  0
 10 19  1  0  0  0  0
 12 11  2  0  0  0  0
 13 15  1  0  0  0  0
 14 15  1  0  0  0  0
 16 11  1  1  0  0  0
 16 17  1  0  0  0  0
 16 13  1  0  0  0  0
 17 14  1  0  0  0  0
 18 19  1  0  0  0  0
 21 20  2  0  0  0  0
 22 26  1  0  0  0  0
 23 22  2  0  0  0  0
 23 25  1  0  0  0  0
 25 27  2  0  0  0  0
 26 24  2  0  0  0  0
 27 24  1  0  0  0  0
 27 21  1  0  0  0  0
 28 30  1  0  0  0  0
 28 22  1  0  0  0  0
 29 28  2  0  0  0  0
 31 30  1  0  0  0  0
M  END
>  <MODEL>
5

>  <REMARK>
 VINA RESULT:      -6.8      3.599      8.114
  Name = 
  7 active torsions:
  status: ('A' for Active; 'I' for Inactive)
    1  A    between atoms: N_3  and  C_18
    2  A    between atoms: C_5  and  C_10
    3  A    between atoms: C_6  and  N_29
    4  A    between atoms: C_12  and  C_28
    5  A    between atoms: O_21  and  C_25
    6  A    between atoms: C_22  and  C_24
    7  A    between atoms: C_22  and  C_27
                            x       y       z     vdW  Elec       q    Type
                         _______ _______ _______ _____ _____    ______ ____

>  <TORSDO>
F 7

$$$$
=
 OpenBabel11042414013D

 31 34  0  0  1  0  0  0  0  0999 V2000
  186.5320  178.1810  145.6790 C   0  0  2  0  0  3  0  0  0  0  0  0
  187.7720  177.4350  145.3200 N   0  0  0  0  0  0  0  0  0  0  0  0
  186.3980  178.2160  147.1870 C   0  0  0  0  0  1  0  0  0  0  0  0
  186.3840  176.8880  145.2160 C   0  0  2  0  0  3  0  0  0  0  0  0
  189.8160  177.9170  144.0830 C   0  0  0  0  0  3  0  0  0  0  0  0
  191.2020  177.8200  143.9290 C   0  0  0  0  0  3  0  0  0  0  0  0
  191.9690  177.1280  144.8710 C   0  0  0  0  0  0  0  0  0  0  0  0
  191.3340  176.5330  145.9720 C   0  0  0  0  0  3  0  0  0  0  0  0
  189.1860  177.3230  145.1800 C   0  0  0  0  0  0  0  0  0  0  0  0
  189.9430  176.6250  146.1350 C   0  0  0  0  0  0  0  0  0  0  0  0
  194.0650  175.9580  144.8730 C   0  0  0  0  0  3  0  0  0  0  0  0
  193.3860  177.0470  144.6850 N   0  0  0  0  0  0  0  0  0  0  0  0
  195.8770  175.8480  143.1990 C   0  0  0  0  0  2  0  0  0  0  0  0
  197.1670  174.4310  144.4540 C   0  0  0  0  0  2  0  0  0  0  0  0
  196.8790  174.8150  143.0800 N   0  0  0  0  0  2  0  0  0  0  0  0
  195.5430  175.9270  144.6650 C   0  0  2  0  0  3  0  0  0  0  0  0
  196.1000  174.8050  145.2840 O   0  0  0  0  0  0  0  0  0  0  0  0
  188.9460  174.6600  147.2630 C   0  0  0  0  0  1  0  0  0  0  0  0
  189.2980  176.0360  147.2280 O   0  0  0  0  0  0  0  0  0  0  0  0
  184.8940  177.5410  143.4680 O   0  0  0  0  0  0  0  0  0  0  0  0
  185.9300  176.8920  143.7850 C   0  0  0  0  0  0  0  0  0  0  0  0
  188.1700  174.8600  140.7350 C   0  0  0  0  0  0  0  0  0  0  0  0
  187.9690  174.2580  141.9840 C   0  0  0  0  0  3  0  0  0  0  0  0
  186.9020  176.7890  141.4880 C   0  0  0  0  0  3  0  0  0  0  0  0
  187.2410  174.9160  142.9770 C   0  0  0  0  0  3  0  0  0  0  0  0
  187.6310  176.1310  140.4940 C   0  0  0  0  0  3  0  0  0  0  0  0
  186.7000  176.1880  142.7380 C   0  0  0  0  0  0  0  0  0  0  0  0
  188.9380  174.1640  139.6870 C   0  0  0  0  0  0  0  0  0  0  0  0
  190.0540  173.6440  139.9610 O   0  0  0  0  0  0  0  0  0  0  0  0
  188.4180  174.0760  138.3570 N   0  0  0  0  0  2  0  0  0  0  0  0
  189.1370  173.4000  137.2910 C   0  0  0  0  0  1  0  0  0  0  0  0
  1  3  1  1  0  0  0
  2  1  1  0  0  0  0
  4 21  1  6  0  0  0
  4  2  1  0  0  0  0
  4  1  1  0  0  0  0
  5  9  1  0  0  0  0
  6  5  2  0  0  0  0
  6  7  1  0  0  0  0
  7  8  2  0  0  0  0
  8 10  1  0  0  0  0
  9  2  1  0  0  0  0
  9 10  2  0  0  0  0
 10 19  1  0  0  0  0
 12  7  1  0  0  0  0
 12 11  2  0  0  0  0
 13 16  1  0  0  0  0
 14 17  1  0  0  0  0
 15 13  1  0  0  0  0
 15 14  1  0  0  0  0
 16 11  1  6  0  0  0
 16 17  1  0  0  0  0
 19 18  1  0  0  0  0
 20 21  2  0  0  0  0
 22 23  1  0  0  0  0
 23 25  2  0  0  0  0
 24 27  2  0  0  0  0
 26 22  2  0  0  0  0
 26 24  1  0  0  0  0
 27 25  1  0  0  0  0
 27 21  1  0  0  0  0
 28 29  2  0  0  0  0
 28 22  1  0  0  0  0
 30 28  1  0  0  0  0
 31 30  1  0  0  0  0
M  END
>  <MODEL>
6

>  <REMARK>
 VINA RESULT:      -6.8      2.219      6.632
  Name = 
  7 active torsions:
  status: ('A' for Active; 'I' for Inactive)
    1  A    between atoms: N_3  and  C_18
    2  A    between atoms: C_5  and  C_10
    3  A    between atoms: C_6  and  N_29
    4  A    between atoms: C_12  and  C_28
    5  A    between atoms: O_21  and  C_25
    6  A    between atoms: C_22  and  C_24
    7  A    between atoms: C_22  and  C_27
                            x       y       z     vdW  Elec       q    Type
                         _______ _______ _______ _____ _____    ______ ____

>  <TORSDO>
F 7

$$$$
=
 OpenBabel11042414013D

 31 34  0  0  1  0  0  0  0  0999 V2000
  187.6040  176.4060  146.3850 C   0  0  2  0  0  3  0  0  0  0  0  0
  188.2440  176.2610  145.0460 N   0  0  0  0  0  0  0  0  0  0  0  0
  186.7500  177.6560  146.3910 C   0  0  0  0  0  1  0  0  0  0  0  0
  188.9400  176.7410  146.2790 C   0  0  2  0  0  3  0  0  0  0  0  0
  188.8190  174.7400  143.2310 C   0  0  0  0  0  3  0  0  0  0  0  0
  188.8030  174.3920  141.8780 C   0  0  0  0  0  3  0  0  0  0  0  0
  188.1860  175.2280  140.9420 C   0  0  0  0  0  0  0  0  0  0  0  0
  187.5820  176.4190  141.3770 C   0  0  0  0  0  3  0  0  0  0  0  0
  188.2180  175.9260  143.6610 C   0  0  0  0  0  0  0  0  0  0  0  0
  187.5940  176.7760  142.7340 C   0  0  0  0  0  0  0  0  0  0  0  0
  188.6790  173.7230  139.1390 C   0  0  0  0  0  3  0  0  0  0  0  0
  188.1860  174.8450  139.5630 N   0  0  0  0  0  0  0  0  0  0  0  0
  189.9100  172.6410  137.2920 C   0  0  0  0  0  2  0  0  0  0  0  0
  189.3160  174.2290  135.7520 C   0  0  0  0  0  2  0  0  0  0  0  0
  190.3610  173.2690  136.0720 N   0  0  0  0  0  2  0  0  0  0  0  0
  188.6550  173.3720  137.6880 C   0  0  2  0  0  3  0  0  0  0  0  0
  188.5770  174.5270  136.9060 O   0  0  0  0  0  0  0  0  0  0  0  0
  186.0380  178.6750  142.4090 C   0  0  0  0  0  1  0  0  0  0  0  0
  186.9950  177.9600  143.1800 O   0  0  0  0  0  0  0  0  0  0  0  0
  189.2920  174.8100  147.6410 O   0  0  0  0  0  0  0  0  0  0  0  0
  189.8010  175.6490  146.8470 C   0  0  0  0  0  0  0  0  0  0  0  0
  193.9300  175.2700  145.7200 C   0  0  0  0  0  0  0  0  0  0  0  0
  192.9930  174.3110  145.3090 C   0  0  0  0  0  3  0  0  0  0  0  0
  192.1580  176.4730  146.8660 C   0  0  0  0  0  3  0  0  0  0  0  0
  191.6510  174.4330  145.6740 C   0  0  0  0  0  3  0  0  0  0  0  0
  193.5020  176.3520  146.5020 C   0  0  0  0  0  3  0  0  0  0  0  0
  191.2210  175.5160  146.4560 C   0  0  0  0  0  0  0  0  0  0  0  0
  195.3460  175.1430  145.3340 C   0  0  0  0  0  0  0  0  0  0  0  0
  195.8940  176.0410  144.6390 O   0  0  0  0  0  0  0  0  0  0  0  0
  196.1010  174.0000  145.7470 N   0  0  0  0  0  2  0  0  0  0  0  0
  197.5000  173.8310  145.3920 C   0  0  0  0  0  1  0  0  0  0  0  0
  1  3  1  6  0  0  0
  2  4  1  0  0  0  0
  2  1  1  0  0  0  0
  4  1  1  0  0  0  0
  4 21  1  1  0  0  0
  5  9  1  0  0  0  0
  6  5  2  0  0  0  0
  7  8  2  0  0  0  0
  7  6  1  0  0  0  0
  8 10  1  0  0  0  0
  9  2  1  0  0  0  0
 10 19  1  0  0  0  0
 10  9  2  0  0  0  0
 11 12  2  0  0  0  0
 12  7  1  0  0  0  0
 13 16  1  0  0  0  0
 14 15  1  0  0  0  0
 14 17  1  0  0  0  0
 15 13  1  0  0  0  0
 16 11  1  1  0  0  0
 17 16  1  0  0  0  0
 18 19  1  0  0  0  0
 21 20  2  0  0  0  0
 22 26  1  0  0  0  0
 23 25  1  0  0  0  0
 23 22  2  0  0  0  0
 25 27  2  0  0  0  0
 26 24  2  0  0  0  0
 27 21  1  0  0  0  0
 27 24  1  0  0  0  0
 28 22  1  0  0  0  0
 28 30  1  0  0  0  0
 29 28  2  0  0  0  0
 31 30  1  0  0  0  0
M  END
>  <MODEL>
7

>  <REMARK>
 VINA RESULT:      -6.6      1.864      2.656
  Name = 
  7 active torsions:
  status: ('A' for Active; 'I' for Inactive)
    1  A    between atoms: N_3  and  C_18
    2  A    between atoms: C_5  and  C_10
    3  A    between atoms: C_6  and  N_29
    4  A    between atoms: C_12  and  C_28
    5  A    between atoms: O_21  and  C_25
    6  A    between atoms: C_22  and  C_24
    7  A    between atoms: C_22  and  C_27
                            x       y       z     vdW  Elec       q    Type
                         _______ _______ _______ _____ _____    ______ ____

>  <TORSDO>
F 7

$$$$
=
 OpenBabel11042414013D

 31 34  0  0  1  0  0  0  0  0999 V2000
  190.7840  176.8410  147.4780 C   0  0  2  0  0  3  0  0  0  0  0  0
  191.7710  176.0160  146.7240 N   0  0  0  0  0  0  0  0  0  0  0  0
  191.4770  177.4760  148.6650 C   0  0  0  0  0  1  0  0  0  0  0  0
  190.7210  175.4710  147.6390 C   0  0  2  0  0  3  0  0  0  0  0  0
  194.0960  175.4110  146.3160 C   0  0  0  0  0  3  0  0  0  0  0  0
  195.1820  175.2500  145.4530 C   0  0  0  0  0  3  0  0  0  0  0  0
  195.0500  175.5370  144.0910 C   0  0  0  0  0  0  0  0  0  0  0  0
  193.8130  175.9880  143.6010 C   0  0  0  0  0  3  0  0  0  0  0  0
  192.8670  175.8600  145.8270 C   0  0  0  0  0  0  0  0  0  0  0  0
  192.7170  176.1530  144.4620 C   0  0  0  0  0  0  0  0  0  0  0  0
  196.0930  174.8790  142.0320 C   0  0  0  0  0  3  0  0  0  0  0  0
  196.1810  175.3620  143.2320 N   0  0  0  0  0  0  0  0  0  0  0  0
  197.2830  175.6860  140.0250 C   0  0  0  0  0  2  0  0  0  0  0  0
  197.9370  173.5900  139.3730 C   0  0  0  0  0  2  0  0  0  0  0  0
  197.6220  174.9120  138.8540 N   0  0  0  0  0  2  0  0  0  0  0  0
  197.3050  174.7170  141.1770 C   0  0  2  0  0  3  0  0  0  0  0  0
  197.3560  173.4280  140.6400 O   0  0  0  0  0  0  0  0  0  0  0  0
  191.3480  177.7300  143.1320 C   0  0  0  0  0  1  0  0  0  0  0  0
  191.4800  176.6010  143.9850 O   0  0  0  0  0  0  0  0  0  0  0  0
  189.6090  173.6820  146.5120 O   0  0  0  0  0  0  0  0  0  0  0  0
  189.5830  174.9010  146.8410 C   0  0  0  0  0  0  0  0  0  0  0  0
  186.1890  177.3090  145.7720 C   0  0  0  0  0  0  0  0  0  0  0  0
  186.3350  176.8350  147.0830 C   0  0  0  0  0  3  0  0  0  0  0  0
  188.2670  176.2050  145.1680 C   0  0  0  0  0  3  0  0  0  0  0  0
  187.4380  176.0520  147.4330 C   0  0  0  0  0  3  0  0  0  0  0  0
  187.1640  176.9880  144.8170 C   0  0  0  0  0  3  0  0  0  0  0  0
  188.4140  175.7310  146.4780 C   0  0  0  0  0  0  0  0  0  0  0  0
  185.0270  178.1360  145.4030 C   0  0  0  0  0  0  0  0  0  0  0  0
  184.3820  178.7520  146.2950 O   0  0  0  0  0  0  0  0  0  0  0  0
  184.6290  178.2420  144.0340 N   0  0  0  0  0  2  0  0  0  0  0  0
  183.4900  179.0450  143.6210 C   0  0  0  0  0  1  0  0  0  0  0  0
  1  4  1  0  0  0  0
  1  3  1  1  0  0  0
  2  1  1  0  0  0  0
  2  4  1  0  0  0  0
  4 21  1  6  0  0  0
  6  5  2  0  0  0  0
  7  6  1  0  0  0  0
  8  7  2  0  0  0  0
  8 10  1  0  0  0  0
  9  5  1  0  0  0  0
  9  2  1  0  0  0  0
 10  9  2  0  0  0  0
 11 12  2  0  0  0  0
 12  7  1  0  0  0  0
 13 16  1  0  0  0  0
 14 17  1  0  0  0  0
 15 14  1  0  0  0  0
 15 13  1  0  0  0  0
 16 11  1  6  0  0  0
 17 16  1  0  0  0  0
 18 19  1  0  0  0  0
 19 10  1  0  0  0  0
 20 21  2  0  0  0  0
 22 23  1  0  0  0  0
 23 25  2  0  0  0  0
 24 27  2  0  0  0  0
 26 24  1  0  0  0  0
 26 22  2  0  0  0  0
 27 21  1  0  0  0  0
 27 25  1  0  0  0  0
 28 22  1  0  0  0  0
 28 29  2  0  0  0  0
 30 28  1  0  0  0  0
 31 30  1  0  0  0  0
M  END
>  <MODEL>
8

>  <REMARK>
 VINA RESULT:      -6.6      4.169      7.067
  Name = 
  7 active torsions:
  status: ('A' for Active; 'I' for Inactive)
    1  A    between atoms: N_3  and  C_18
    2  A    between atoms: C_5  and  C_10
    3  A    between atoms: C_6  and  N_29
    4  A    between atoms: C_12  and  C_28
    5  A    between atoms: O_21  and  C_25
    6  A    between atoms: C_22  and  C_24
    7  A    between atoms: C_22  and  C_27
                            x       y       z     vdW  Elec       q    Type
                         _______ _______ _______ _____ _____    ______ ____

>  <TORSDO>
F 7

$$$$
=
 OpenBabel11042414013D

 31 34  0  0  1  0  0  0  0  0999 V2000
  186.7290  178.2370  145.8710 C   0  0  2  0  0  3  0  0  0  0  0  0
  187.8950  177.5930  145.2010 N   0  0  0  0  0  0  0  0  0  0  0  0
  186.4950  177.5640  147.2070 C   0  0  0  0  0  1  0  0  0  0  0  0
  186.4630  177.3580  144.8400 C   0  0  2  0  0  3  0  0  0  0  0  0
  189.9570  177.9690  143.9570 C   0  0  0  0  0  3  0  0  0  0  0  0
  191.3270  177.7650  143.7740 C   0  0  0  0  0  3  0  0  0  0  0  0
  192.0440  176.9570  144.6620 C   0  0  0  0  0  0  0  0  0  0  0  0
  191.3740  176.3560  145.7400 C   0  0  0  0  0  3  0  0  0  0  0  0
  189.2920  177.3700  145.0300 C   0  0  0  0  0  0  0  0  0  0  0  0
  189.9980  176.5570  145.9310 C   0  0  0  0  0  0  0  0  0  0  0  0
  194.0180  175.6040  144.4880 C   0  0  0  0  0  3  0  0  0  0  0  0
  193.4460  176.7660  144.4470 N   0  0  0  0  0  0  0  0  0  0  0  0
  196.1050  176.7830  143.8950 C   0  0  0  0  0  2  0  0  0  0  0  0
  196.8810  175.0810  142.5730 C   0  0  0  0  0  2  0  0  0  0  0  0
  196.9470  176.5240  142.7510 N   0  0  0  0  0  2  0  0  0  0  0  0
  195.4860  175.4600  144.2560 C   0  0  2  0  0  3  0  0  0  0  0  0
  195.7300  174.5790  143.1990 O   0  0  0  0  0  0  0  0  0  0  0  0
  189.2810  174.5570  147.2020 C   0  0  0  0  0  1  0  0  0  0  0  0
  189.3190  175.9630  147.0010 O   0  0  0  0  0  0  0  0  0  0  0  0
  185.6130  179.2640  143.6790 O   0  0  0  0  0  0  0  0  0  0  0  0
  186.1130  178.1090  143.5870 C   0  0  0  0  0  0  0  0  0  0  0  0
  186.9080  176.4580  139.7020 C   0  0  0  0  0  0  0  0  0  0  0  0
  187.5250  175.9180  140.8390 C   0  0  0  0  0  3  0  0  0  0  0  0
  185.7730  178.0750  141.1140 C   0  0  0  0  0  3  0  0  0  0  0  0
  187.2680  176.4530  142.1030 C   0  0  0  0  0  3  0  0  0  0  0  0
  186.0300  177.5400  139.8490 C   0  0  0  0  0  3  0  0  0  0  0  0
  186.3880  177.5370  142.2520 C   0  0  0  0  0  0  0  0  0  0  0  0
  187.1790  175.8920  138.3680 C   0  0  0  0  0  0  0  0  0  0  0  0
  187.8260  174.8150  138.2590 O   0  0  0  0  0  0  0  0  0  0  0  0
  186.7070  176.5630  137.1970 N   0  0  0  0  0  2  0  0  0  0  0  0
  186.9480  176.0440  135.8610 C   0  0  0  0  0  1  0  0  0  0  0  0
  1  3  1  1  0  0  0
  2  1  1  0  0  0  0
  4 21  1  6  0  0  0
  4  2  1  0  0  0  0
  4  1  1  0  0  0  0
  5  9  1  0  0  0  0
  6  5  2  0  0  0  0
  6  7  1  0  0  0  0
  7  8  2  0  0  0  0
  8 10  1  0  0  0  0
  9  2  1  0  0  0  0
  9 10  2  0  0  0  0
 10 19  1  0  0  0  0
 12 11  2  0  0  0  0
 12  7  1  0  0  0  0
 13 16  1  0  0  0  0
 14 15  1  0  0  0  0
 14 17  1  0  0  0  0
 15 13  1  0  0  0  0
 16 11  1  6  0  0  0
 17 16  1  0  0  0  0
 19 18  1  0  0  0  0
 21 20  2  0  0  0  0
 22 26  2  0  0  0  0
 22 23  1  0  0  0  0
 23 25  2  0  0  0  0
 24 27  2  0  0  0  0
 25 27  1  0  0  0  0
 26 24  1  0  0  0  0
 27 21  1  0  0  0  0
 28 22  1  0  0  0  0
 29 28  2  0  0  0  0
 30 28  1  0  0  0  0
 31 30  1  0  0  0  0
M  END
>  <MODEL>
9

>  <REMARK>
 VINA RESULT:      -6.5      2.611      7.089
  Name = 
  7 active torsions:
  status: ('A' for Active; 'I' for Inactive)
    1  A    between atoms: N_3  and  C_18
    2  A    between atoms: C_5  and  C_10
    3  A    between atoms: C_6  and  N_29
    4  A    between atoms: C_12  and  C_28
    5  A    between atoms: O_21  and  C_25
    6  A    between atoms: C_22  and  C_24
    7  A    between atoms: C_22  and  C_27
                            x       y       z     vdW  Elec       q    Type
                         _______ _______ _______ _____ _____    ______ ____

>  <TORSDO>
F 7

$$$$
