=
 OpenBabel11042417593D

 36 40  0  0  1  0  0  0  0  0999 V2000
  184.0420  178.8950  145.4130 C   0  0  0  0  0  1  0  0  0  0  0  0
  185.9750  177.6930  144.5820 C   0  0  2  0  0  3  0  0  0  0  0  0
  185.0410  177.8910  143.4300 N   0  0  1  0  0  0  0  0  0  0  0  0
  188.4660  177.4930  144.9000 C   0  0  0  0  0  3  0  0  0  0  0  0
  185.2210  178.9320  144.4600 C   0  0  1  0  0  3  0  0  0  0  0  0
  189.6040  177.4220  143.9220 C   0  0  2  0  0  0  0  0  0  0  0  0
  187.4040  177.8050  144.1660 C   0  0  0  0  0  0  0  0  0  0  0  0
  191.7090  176.3060  142.9350 C   0  0  0  0  0  1  0  0  0  0  0  0
  185.5580  178.5250  142.1940 C   0  0  1  0  0  3  0  0  0  0  0  0
  187.7740  177.8720  142.7810 C   0  0  0  0  0  0  0  0  0  0  0  0
  190.9460  176.7650  144.1680 C   0  0  1  0  0  0  0  0  0  0  0  0
  190.8050  178.2820  144.2680 C   0  0  0  0  0  2  0  0  0  0  0  0
  186.9240  178.1170  141.8460 N   0  0  0  0  0  0  0  0  0  0  0  0
  189.1200  177.6230  142.6030 O   0  0  0  0  0  0  0  0  0  0  0  0
  184.6170  178.2270  141.0400 C   0  0  0  0  0  2  0  0  0  0  0  0
  183.1840  178.1660  141.5300 C   0  0  0  0  0  2  0  0  0  0  0  0
  182.3410  177.8690  140.4590 O   0  0  0  0  0  0  0  0  0  0  0  0
  180.9690  178.8770  142.1240 C   0  0  0  0  0  2  0  0  0  0  0  0
  179.4660  178.9650  142.2550 C   0  0  0  0  0  2  0  0  0  0  0  0
  179.9850  178.0130  140.0790 C   0  0  0  0  0  2  0  0  0  0  0  0
  178.9160  178.0800  141.1560 C   0  0  0  0  0  2  0  0  0  0  0  0
  181.2240  178.6860  140.6440 C   0  0  0  0  0  3  0  0  0  0  0  0
  191.1350  176.0660  145.5190 C   0  0  2  0  0  3  0  0  0  0  0  0
  192.4180  176.4930  146.2290 C   0  0  0  0  0  2  0  0  0  0  0  0
  193.3830  175.3260  146.3080 C   0  0  0  0  0  2  0  0  0  0  0  0
  194.7540  175.7760  145.8490 C   0  0  0  0  0  2  0  0  0  0  0  0
  195.5330  174.5800  145.3420 C   0  0  0  0  0  2  0  0  0  0  0  0
  195.8490  173.4610  143.4120 O   0  0  0  0  0  1  0  0  0  0  0  0
  195.7570  174.7160  143.9130 N   0  0  0  0  0  0  0  0  0  0  0  0
  197.0650  175.3330  143.7530 C   0  0  0  0  0  2  0  0  0  0  0  0
  196.9440  176.6410  142.9840 C   0  0  0  0  0  2  0  0  0  0  0  0
  196.5580  176.1030  140.6350 N   0  0  0  0  0  1  0  0  0  0  0  0
  195.9160  176.5300  141.8680 C   0  0  0  0  0  2  0  0  0  0  0  0
  190.9970  174.6080  145.4220 N   0  0  0  0  0  2  0  0  0  0  0  0
  189.6540  174.1820  145.8040 C   0  0  0  0  0  2  0  0  0  0  0  0
  189.3210  174.7350  147.1730 C   0  0  0  0  0  1  0  0  0  0  0  0
  2  7  1  6  0  0  0
  3  5  1  0  0  0  0
  3  2  1  0  0  0  0
  5  2  1  0  0  0  0
  5  1  1  0  0  0  0
  6 11  1  0  0  0  0
  6 12  1  0  0  0  0
  6  4  1  0  0  0  0
  7  4  2  0  0  0  0
  8 11  1  0  0  0  0
  9  3  1  0  0  0  0
 10  7  1  0  0  0  0
 11 12  1  0  0  0  0
 11 23  1  0  0  0  0
 13  9  1  0  0  0  0
 13 10  2  0  0  0  0
 14 10  1  0  0  0  0
 14  6  1  0  0  0  0
 15 16  1  0  0  0  0
 15  9  1  0  0  0  0
 17 22  1  0  0  0  0
 17 16  1  0  0  0  0
 18 19  1  0  0  0  0
 20 22  1  0  0  0  0
 20 21  1  0  0  0  0
 21 19  1  0  0  0  0
 22 18  1  0  0  0  0
 23 24  1  0  0  0  0
 24 25  1  0  0  0  0
 26 25  1  0  0  0  0
 27 26  1  0  0  0  0
 28 29  1  0  0  0  0
 29 27  1  0  0  0  0
 30 29  1  0  0  0  0
 31 30  1  0  0  0  0
 32 33  1  0  0  0  0
 33 31  1  0  0  0  0
 34 23  1  0  0  0  0
 34 35  1  0  0  0  0
 35 36  1  0  0  0  0
M  END
>  <MODEL>
1

>  <REMARK>
 VINA RESULT:      -6.8      0.000      0.000
  Name = 
  15 active torsions:
  status: ('A' for Active; 'I' for Inactive)
    1  A    between atoms: C_1  and  C_16
    2  A    between atoms: C_1  and  C_29
    3  A    between atoms: C_2  and  C_12
    4  A    between atoms: C_2  and  N_17
    5  A    between atoms: C_4  and  C_24
    6  A    between atoms: C_4  and  C_28
    7  A    between atoms: C_8  and  C_14
    8  A    between atoms: C_8  and  N_17
    9  A    between atoms: C_10  and  N_33
   10  A    between atoms: C_12  and  C_29
   11  A    between atoms: C_14  and  C_35
   12  A    between atoms: C_16  and  C_27
   13  A    between atoms: C_16  and  N_33
   14  A    between atoms: O_26  and  C_28
   15  A    between atoms: O_26  and  C_31
                            x       y       z     vdW  Elec       q    Type
                         _______ _______ _______ _____ _____    ______ ____

>  <TORSDO>
F 15

$$$$
=
 OpenBabel11042417593D

 36 40  0  0  1  0  0  0  0  0999 V2000
  187.1170  176.7080  140.0760 C   0  0  0  0  0  1  0  0  0  0  0  0
  188.6100  177.0840  141.9470 C   0  0  2  0  0  3  0  0  0  0  0  0
  187.4870  178.0660  142.0670 N   0  0  1  0  0  0  0  0  0  0  0  0
  190.1430  175.8630  143.5300 C   0  0  0  0  0  3  0  0  0  0  0  0
  187.2570  176.6900  141.5860 C   0  0  1  0  0  3  0  0  0  0  0  0
  190.3320  175.9490  145.0180 C   0  0  2  0  0  0  0  0  0  0  0  0
  189.0570  176.5840  143.2810 C   0  0  0  0  0  0  0  0  0  0  0  0
  191.7780  176.2790  147.1270 C   0  0  0  0  0  1  0  0  0  0  0  0
  186.7260  178.1270  143.3370 C   0  0  1  0  0  3  0  0  0  0  0  0
  188.5790  177.1770  144.4980 C   0  0  0  0  0  0  0  0  0  0  0  0
  191.6000  175.6110  145.7720 C   0  0  1  0  0  0  0  0  0  0  0  0
  190.4450  174.6140  145.7310 C   0  0  0  0  0  2  0  0  0  0  0  0
  187.5580  177.9600  144.5340 N   0  0  0  0  0  0  0  0  0  0  0  0
  189.3570  176.8150  145.5780 O   0  0  0  0  0  0  0  0  0  0  0  0
  185.9680  179.4410  143.4100 C   0  0  0  0  0  2  0  0  0  0  0  0
  185.5040  179.7050  144.8290 C   0  0  0  0  0  2  0  0  0  0  0  0
  184.3430  178.9730  145.0800 O   0  0  0  0  0  0  0  0  0  0  0  0
  185.6300  179.2540  147.0630 C   0  0  0  0  0  2  0  0  0  0  0  0
  186.2140  178.2430  148.0220 C   0  0  0  0  0  2  0  0  0  0  0  0
  184.7950  177.0610  146.4420 C   0  0  0  0  0  2  0  0  0  0  0  0
  185.9850  176.8950  147.3700 C   0  0  0  0  0  2  0  0  0  0  0  0
  184.4680  178.5440  146.4030 C   0  0  0  0  0  3  0  0  0  0  0  0
  192.8130  175.1940  144.9330 C   0  0  2  0  0  3  0  0  0  0  0  0
  193.8240  174.3690  145.7260 C   0  0  0  0  0  2  0  0  0  0  0  0
  193.7100  172.9040  145.3520 C   0  0  0  0  0  2  0  0  0  0  0  0
  193.1310  172.7850  143.9590 C   0  0  0  0  0  2  0  0  0  0  0  0
  192.6340  171.3710  143.7380 C   0  0  0  0  0  2  0  0  0  0  0  0
  192.5820  171.4100  141.4860 O   0  0  0  0  0  1  0  0  0  0  0  0
  191.7730  171.3350  142.5690 N   0  0  0  0  0  0  0  0  0  0  0  0
  190.9850  172.5590  142.5940 C   0  0  0  0  0  2  0  0  0  0  0  0
  190.6240  172.9860  141.1790 C   0  0  0  0  0  2  0  0  0  0  0  0
  188.4460  172.8730  142.2740 N   0  0  0  0  0  1  0  0  0  0  0  0
  189.1310  173.2430  141.0440 C   0  0  0  0  0  2  0  0  0  0  0  0
  193.4290  176.3280  144.2330 N   0  0  0  0  0  2  0  0  0  0  0  0
  194.8840  176.2860  144.3450 C   0  0  0  0  0  2  0  0  0  0  0  0
  195.4900  176.1250  142.9670 C   0  0  0  0  0  1  0  0  0  0  0  0
  1  5  1  0  0  0  0
  2  3  1  0  0  0  0
  2  7  1  1  0  0  0
  3  9  1  0  0  0  0
  4  6  1  0  0  0  0
  5  2  1  0  0  0  0
  5  3  1  0  0  0  0
  6 14  1  0  0  0  0
  6 12  1  0  0  0  0
  6 11  1  0  0  0  0
  7  4  2  0  0  0  0
  7 10  1  0  0  0  0
  9 15  1  0  0  0  0
  9 13  1  0  0  0  0
 10 13  2  0  0  0  0
 10 14  1  0  0  0  0
 11  8  1  0  0  0  0
 12 11  1  0  0  0  0
 15 16  1  0  0  0  0
 16 17  1  0  0  0  0
 17 22  1  0  0  0  0
 18 19  1  0  0  0  0
 20 21  1  0  0  0  0
 21 19  1  0  0  0  0
 22 20  1  0  0  0  0
 22 18  1  0  0  0  0
 23 24  1  0  0  0  0
 23 11  1  0  0  0  0
 25 24  1  0  0  0  0
 26 25  1  0  0  0  0
 27 26  1  0  0  0  0
 28 29  1  0  0  0  0
 29 30  1  0  0  0  0
 29 27  1  0  0  0  0
 31 30  1  0  0  0  0
 33 31  1  0  0  0  0
 33 32  1  0  0  0  0
 34 35  1  0  0  0  0
 34 23  1  0  0  0  0
 36 35  1  0  0  0  0
M  END
>  <MODEL>
2

>  <REMARK>
 VINA RESULT:      -6.7      3.225      5.220
  Name = 
  15 active torsions:
  status: ('A' for Active; 'I' for Inactive)
    1  A    between atoms: C_1  and  C_16
    2  A    between atoms: C_1  and  C_29
    3  A    between atoms: C_2  and  C_12
    4  A    between atoms: C_2  and  N_17
    5  A    between atoms: C_4  and  C_24
    6  A    between atoms: C_4  and  C_28
    7  A    between atoms: C_8  and  C_14
    8  A    between atoms: C_8  and  N_17
    9  A    between atoms: C_10  and  N_33
   10  A    between atoms: C_12  and  C_29
   11  A    between atoms: C_14  and  C_35
   12  A    between atoms: C_16  and  C_27
   13  A    between atoms: C_16  and  N_33
   14  A    between atoms: O_26  and  C_28
   15  A    between atoms: O_26  and  C_31
                            x       y       z     vdW  Elec       q    Type
                         _______ _______ _______ _____ _____    ______ ____

>  <TORSDO>
F 15

$$$$
=
 OpenBabel11042417593D

 36 40  0  0  1  0  0  0  0  0999 V2000
  184.0410  178.9500  145.5590 C   0  0  0  0  0  1  0  0  0  0  0  0
  185.9170  177.7110  144.6540 C   0  0  2  0  0  3  0  0  0  0  0  0
  184.9360  177.9150  143.5420 N   0  0  1  0  0  0  0  0  0  0  0  0
  188.4160  177.4760  144.8620 C   0  0  0  0  0  3  0  0  0  0  0  0
  185.1770  178.9600  144.5550 C   0  0  1  0  0  3  0  0  0  0  0  0
  189.5090  177.3800  143.8350 C   0  0  2  0  0  0  0  0  0  0  0  0
  187.3280  177.7980  144.1730 C   0  0  0  0  0  0  0  0  0  0  0  0
  191.5510  176.2240  142.7650 C   0  0  0  0  0  1  0  0  0  0  0  0
  185.4070  178.5310  142.2790 C   0  0  1  0  0  3  0  0  0  0  0  0
  187.6370  177.8490  142.7730 C   0  0  0  0  0  0  0  0  0  0  0  0
  190.8500  176.7040  144.0270 C   0  0  1  0  0  0  0  0  0  0  0  0
  190.7370  178.2240  144.1210 C   0  0  0  0  0  2  0  0  0  0  0  0
  186.7500  178.1000  141.8750 N   0  0  0  0  0  0  0  0  0  0  0  0
  188.9700  177.5780  142.5370 O   0  0  0  0  0  0  0  0  0  0  0  0
  184.4110  178.2380  141.1710 C   0  0  0  0  0  2  0  0  0  0  0  0
  182.9980  178.2300  141.7190 C   0  0  0  0  0  2  0  0  0  0  0  0
  182.1060  178.5850  140.7070 O   0  0  0  0  0  0  0  0  0  0  0  0
  179.9860  177.9160  141.5600 C   0  0  0  0  0  2  0  0  0  0  0  0
  178.6240  178.5590  141.4540 C   0  0  0  0  0  2  0  0  0  0  0  0
  180.2640  180.0980  140.5330 C   0  0  0  0  0  2  0  0  0  0  0  0
  178.7980  179.7070  140.4820 C   0  0  0  0  0  2  0  0  0  0  0  0
  180.9720  179.0500  141.3740 C   0  0  0  0  0  3  0  0  0  0  0  0
  191.0890  176.0130  145.3740 C   0  0  2  0  0  3  0  0  0  0  0  0
  192.4090  176.4240  146.0220 C   0  0  0  0  0  2  0  0  0  0  0  0
  193.2490  175.1970  146.3190 C   0  0  0  0  0  2  0  0  0  0  0  0
  194.7150  175.5450  146.1720 C   0  0  0  0  0  2  0  0  0  0  0  0
  195.3210  174.7150  145.0590 C   0  0  0  0  0  2  0  0  0  0  0  0
  197.3420  174.2210  144.1940 O   0  0  0  0  0  1  0  0  0  0  0  0
  196.7080  174.4170  145.3750 N   0  0  0  0  0  0  0  0  0  0  0  0
  196.7110  173.1410  146.0750 C   0  0  0  0  0  2  0  0  0  0  0  0
  197.0500  172.0100  145.1140 C   0  0  0  0  0  2  0  0  0  0  0  0
  197.3980  169.7870  146.0580 N   0  0  0  0  0  1  0  0  0  0  0  0
  196.3950  170.7070  145.5450 C   0  0  0  0  0  2  0  0  0  0  0  0
  190.9230  174.5570  145.2960 N   0  0  0  0  0  2  0  0  0  0  0  0
  189.6100  174.1500  145.7870 C   0  0  0  0  0  2  0  0  0  0  0  0
  189.3670  174.7720  147.1460 C   0  0  0  0  0  1  0  0  0  0  0  0
  2  7  1  6  0  0  0
  3  5  1  0  0  0  0
  3  2  1  0  0  0  0
  5  2  1  0  0  0  0
  5  1  1  0  0  0  0
  6 11  1  0  0  0  0
  6 12  1  0  0  0  0
  6  4  1  0  0  0  0
  7  4  2  0  0  0  0
  8 11  1  0  0  0  0
  9  3  1  0  0  0  0
 10  7  1  0  0  0  0
 11 12  1  0  0  0  0
 11 23  1  0  0  0  0
 13  9  1  0  0  0  0
 13 10  2  0  0  0  0
 14 10  1  0  0  0  0
 14  6  1  0  0  0  0
 15 16  1  0  0  0  0
 15  9  1  0  0  0  0
 17 22  1  0  0  0  0
 17 16  1  0  0  0  0
 19 18  1  0  0  0  0
 20 22  1  0  0  0  0
 21 20  1  0  0  0  0
 21 19  1  0  0  0  0
 22 18  1  0  0  0  0
 23 24  1  0  0  0  0
 24 25  1  0  0  0  0
 26 25  1  0  0  0  0
 27 29  1  0  0  0  0
 27 26  1  0  0  0  0
 28 29  1  0  0  0  0
 29 30  1  0  0  0  0
 31 33  1  0  0  0  0
 31 30  1  0  0  0  0
 33 32  1  0  0  0  0
 34 23  1  0  0  0  0
 34 35  1  0  0  0  0
 35 36  1  0  0  0  0
M  END
>  <MODEL>
3

>  <REMARK>
 VINA RESULT:      -6.7      1.460      2.200
  Name = 
  15 active torsions:
  status: ('A' for Active; 'I' for Inactive)
    1  A    between atoms: C_1  and  C_16
    2  A    between atoms: C_1  and  C_29
    3  A    between atoms: C_2  and  C_12
    4  A    between atoms: C_2  and  N_17
    5  A    between atoms: C_4  and  C_24
    6  A    between atoms: C_4  and  C_28
    7  A    between atoms: C_8  and  C_14
    8  A    between atoms: C_8  and  N_17
    9  A    between atoms: C_10  and  N_33
   10  A    between atoms: C_12  and  C_29
   11  A    between atoms: C_14  and  C_35
   12  A    between atoms: C_16  and  C_27
   13  A    between atoms: C_16  and  N_33
   14  A    between atoms: O_26  and  C_28
   15  A    between atoms: O_26  and  C_31
                            x       y       z     vdW  Elec       q    Type
                         _______ _______ _______ _____ _____    ______ ____

>  <TORSDO>
F 15

$$$$
=
 OpenBabel11042417593D

 36 40  0  0  1  0  0  0  0  0999 V2000
  196.5630  176.6120  142.6340 C   0  0  0  0  0  1  0  0  0  0  0  0
  194.5720  175.5690  143.5400 C   0  0  2  0  0  3  0  0  0  0  0  0
  195.7540  174.9110  144.1810 N   0  0  1  0  0  0  0  0  0  0  0  0
  192.1930  176.0810  144.1900 C   0  0  0  0  0  3  0  0  0  0  0  0
  195.7460  176.3570  143.8850 C   0  0  1  0  0  3  0  0  0  0  0  0
  191.3780  175.7160  145.3980 C   0  0  2  0  0  0  0  0  0  0  0  0
  193.4340  175.7190  144.4940 C   0  0  0  0  0  0  0  0  0  0  0  0
  189.3020  174.6920  146.5370 C   0  0  0  0  0  1  0  0  0  0  0  0
  195.8230  174.8530  145.6600 C   0  0  1  0  0  3  0  0  0  0  0  0
  193.4540  175.0900  145.7840 C   0  0  0  0  0  0  0  0  0  0  0  0
  189.8700  175.5870  145.4460 C   0  0  1  0  0  0  0  0  0  0  0  0
  190.5480  176.8460  145.9800 C   0  0  0  0  0  2  0  0  0  0  0  0
  194.5270  174.6060  146.3040 N   0  0  0  0  0  0  0  0  0  0  0  0
  192.1970  175.0600  146.3540 O   0  0  0  0  0  0  0  0  0  0  0  0
  196.8220  173.7900  146.0790 C   0  0  0  0  0  2  0  0  0  0  0  0
  196.8800  172.6830  145.0450 C   0  0  0  0  0  2  0  0  0  0  0  0
  196.5240  171.4730  145.6410 O   0  0  0  0  0  0  0  0  0  0  0  0
  195.6560  171.5360  143.4250 C   0  0  0  0  0  2  0  0  0  0  0  0
  194.2370  171.6320  142.9150 C   0  0  0  0  0  2  0  0  0  0  0  0
  194.1590  171.3260  145.3250 C   0  0  0  0  0  2  0  0  0  0  0  0
  193.3860  171.8840  144.1420 C   0  0  0  0  0  2  0  0  0  0  0  0
  195.5350  170.9410  144.8120 C   0  0  0  0  0  3  0  0  0  0  0  0
  189.1170  175.7970  144.1270 C   0  0  2  0  0  3  0  0  0  0  0  0
  187.7860  176.5210  144.3160 C   0  0  0  0  0  2  0  0  0  0  0  0
  187.8510  177.9030  143.6960 C   0  0  0  0  0  2  0  0  0  0  0  0
  186.4880  178.2740  143.1510 C   0  0  0  0  0  2  0  0  0  0  0  0
  185.4130  177.7450  144.0790 C   0  0  0  0  0  2  0  0  0  0  0  0
  184.9900  179.9580  144.0870 O   0  0  0  0  0  1  0  0  0  0  0  0
  184.3880  178.7570  144.2610 N   0  0  0  0  0  0  0  0  0  0  0  0
  183.9770  178.6880  145.6560 C   0  0  0  0  0  2  0  0  0  0  0  0
  185.0160  177.9400  146.4780 C   0  0  0  0  0  2  0  0  0  0  0  0
  186.9650  178.4170  147.8680 N   0  0  0  0  0  1  0  0  0  0  0  0
  185.6040  178.8300  147.5630 C   0  0  0  0  0  2  0  0  0  0  0  0
  188.9850  174.5580  143.3510 N   0  0  0  0  0  2  0  0  0  0  0  0
  189.6310  174.6830  142.0480 C   0  0  0  0  0  2  0  0  0  0  0  0
  190.7380  173.6560  141.9350 C   0  0  0  0  0  1  0  0  0  0  0  0
  1  5  1  0  0  0  0
  2  5  1  0  0  0  0
  2  3  1  0  0  0  0
  2  7  1  1  0  0  0
  3  9  1  0  0  0  0
  4  7  2  0  0  0  0
  4  6  1  0  0  0  0
  5  3  1  0  0  0  0
  6 11  1  0  0  0  0
  6 12  1  0  0  0  0
  6 14  1  0  0  0  0
  7 10  1  0  0  0  0
  9 15  1  0  0  0  0
  9 13  1  0  0  0  0
 10 13  2  0  0  0  0
 10 14  1  0  0  0  0
 11 12  1  0  0  0  0
 11  8  1  0  0  0  0
 16 17  1  0  0  0  0
 16 15  1  0  0  0  0
 18 22  1  0  0  0  0
 19 18  1  0  0  0  0
 19 21  1  0  0  0  0
 21 20  1  0  0  0  0
 22 20  1  0  0  0  0
 22 17  1  0  0  0  0
 23 24  1  0  0  0  0
 23 11  1  0  0  0  0
 25 24  1  0  0  0  0
 26 25  1  0  0  0  0
 26 27  1  0  0  0  0
 27 29  1  0  0  0  0
 28 29  1  0  0  0  0
 29 30  1  0  0  0  0
 30 31  1  0  0  0  0
 31 33  1  0  0  0  0
 33 32  1  0  0  0  0
 34 23  1  0  0  0  0
 35 34  1  0  0  0  0
 36 35  1  0  0  0  0
M  END
>  <MODEL>
4

>  <REMARK>
 VINA RESULT:      -6.5      2.986     10.805
  Name = 
  15 active torsions:
  status: ('A' for Active; 'I' for Inactive)
    1  A    between atoms: C_1  and  C_16
    2  A    between atoms: C_1  and  C_29
    3  A    between atoms: C_2  and  C_12
    4  A    between atoms: C_2  and  N_17
    5  A    between atoms: C_4  and  C_24
    6  A    between atoms: C_4  and  C_28
    7  A    between atoms: C_8  and  C_14
    8  A    between atoms: C_8  and  N_17
    9  A    between atoms: C_10  and  N_33
   10  A    between atoms: C_12  and  C_29
   11  A    between atoms: C_14  and  C_35
   12  A    between atoms: C_16  and  C_27
   13  A    between atoms: C_16  and  N_33
   14  A    between atoms: O_26  and  C_28
   15  A    between atoms: O_26  and  C_31
                            x       y       z     vdW  Elec       q    Type
                         _______ _______ _______ _____ _____    ______ ____

>  <TORSDO>
F 15

$$$$
=
 OpenBabel11042417593D

 36 40  0  0  1  0  0  0  0  0999 V2000
  196.6970  176.7360  142.8010 C   0  0  0  0  0  1  0  0  0  0  0  0
  194.6450  175.7130  143.5860 C   0  0  2  0  0  3  0  0  0  0  0  0
  195.7810  174.8750  144.0830 N   0  0  1  0  0  0  0  0  0  0  0  0
  192.3230  176.2910  144.3740 C   0  0  0  0  0  3  0  0  0  0  0  0
  195.8820  176.3460  144.0190 C   0  0  1  0  0  3  0  0  0  0  0  0
  191.5010  175.8010  145.5310 C   0  0  2  0  0  0  0  0  0  0  0  0
  193.5370  175.7940  144.5820 C   0  0  0  0  0  0  0  0  0  0  0  0
  189.3690  174.7670  146.5510 C   0  0  0  0  0  1  0  0  0  0  0  0
  195.8680  174.5790  145.5330 C   0  0  1  0  0  3  0  0  0  0  0  0
  193.5270  174.9680  145.7560 C   0  0  0  0  0  0  0  0  0  0  0  0
  189.9880  175.7780  145.5990 C   0  0  1  0  0  0  0  0  0  0  0  0
  190.7700  176.8830  146.3060 C   0  0  0  0  0  2  0  0  0  0  0  0
  194.5670  174.3300  146.1650 N   0  0  0  0  0  0  0  0  0  0  0  0
  192.2810  174.9420  146.3490 O   0  0  0  0  0  0  0  0  0  0  0  0
  196.7880  173.3910  145.7520 C   0  0  0  0  0  2  0  0  0  0  0  0
  196.0170  172.0940  145.6170 C   0  0  0  0  0  2  0  0  0  0  0  0
  196.7950  171.1600  144.9330 O   0  0  0  0  0  0  0  0  0  0  0  0
  195.0200  170.0940  146.1060 C   0  0  0  0  0  2  0  0  0  0  0  0
  195.0340  169.0280  147.1770 C   0  0  0  0  0  2  0  0  0  0  0  0
  197.3010  169.2980  146.3440 C   0  0  0  0  0  2  0  0  0  0  0  0
  196.4910  168.8540  147.5500 C   0  0  0  0  0  2  0  0  0  0  0  0
  196.3240  169.9170  145.3590 C   0  0  0  0  0  3  0  0  0  0  0  0
  189.2340  176.2510  144.3500 C   0  0  2  0  0  3  0  0  0  0  0  0
  188.0140  177.1050  144.6860 C   0  0  0  0  0  2  0  0  0  0  0  0
  186.7970  176.5920  143.9440 C   0  0  0  0  0  2  0  0  0  0  0  0
  186.4770  177.5260  142.7960 C   0  0  0  0  0  2  0  0  0  0  0  0
  185.6690  178.6990  143.3110 C   0  0  0  0  0  2  0  0  0  0  0  0
  183.4520  178.5340  142.9420 O   0  0  0  0  0  1  0  0  0  0  0  0
  184.4070  178.2210  143.8500 N   0  0  0  0  0  0  0  0  0  0  0  0
  184.1360  179.0130  145.0400 C   0  0  0  0  0  2  0  0  0  0  0  0
  184.3160  178.1670  146.2930 C   0  0  0  0  0  2  0  0  0  0  0  0
  186.0270  177.6900  147.9660 N   0  0  0  0  0  1  0  0  0  0  0  0
  185.3870  178.7500  147.2020 C   0  0  0  0  0  2  0  0  0  0  0  0
  188.9210  175.1490  143.4330 N   0  0  0  0  0  2  0  0  0  0  0  0
  189.6740  175.2720  142.1880 C   0  0  0  0  0  2  0  0  0  0  0  0
  189.9800  173.8920  141.6460 C   0  0  0  0  0  1  0  0  0  0  0  0
  1  5  1  0  0  0  0
  2  5  1  0  0  0  0
  2  3  1  0  0  0  0
  2  7  1  1  0  0  0
  3  9  1  0  0  0  0
  4  7  2  0  0  0  0
  4  6  1  0  0  0  0
  5  3  1  0  0  0  0
  6 11  1  0  0  0  0
  6 12  1  0  0  0  0
  6 14  1  0  0  0  0
  7 10  1  0  0  0  0
  9 15  1  0  0  0  0
  9 13  1  0  0  0  0
 10 13  2  0  0  0  0
 10 14  1  0  0  0  0
 11 12  1  0  0  0  0
 11  8  1  0  0  0  0
 16 15  1  0  0  0  0
 17 22  1  0  0  0  0
 17 16  1  0  0  0  0
 18 19  1  0  0  0  0
 19 21  1  0  0  0  0
 20 21  1  0  0  0  0
 22 18  1  0  0  0  0
 22 20  1  0  0  0  0
 23 24  1  0  0  0  0
 23 11  1  0  0  0  0
 25 24  1  0  0  0  0
 26 27  1  0  0  0  0
 26 25  1  0  0  0  0
 27 29  1  0  0  0  0
 28 29  1  0  0  0  0
 29 30  1  0  0  0  0
 30 31  1  0  0  0  0
 31 33  1  0  0  0  0
 33 32  1  0  0  0  0
 34 23  1  0  0  0  0
 35 34  1  0  0  0  0
 36 35  1  0  0  0  0
M  END
>  <MODEL>
5

>  <REMARK>
 VINA RESULT:      -6.4      2.837     11.473
  Name = 
  15 active torsions:
  status: ('A' for Active; 'I' for Inactive)
    1  A    between atoms: C_1  and  C_16
    2  A    between atoms: C_1  and  C_29
    3  A    between atoms: C_2  and  C_12
    4  A    between atoms: C_2  and  N_17
    5  A    between atoms: C_4  and  C_24
    6  A    between atoms: C_4  and  C_28
    7  A    between atoms: C_8  and  C_14
    8  A    between atoms: C_8  and  N_17
    9  A    between atoms: C_10  and  N_33
   10  A    between atoms: C_12  and  C_29
   11  A    between atoms: C_14  and  C_35
   12  A    between atoms: C_16  and  C_27
   13  A    between atoms: C_16  and  N_33
   14  A    between atoms: O_26  and  C_28
   15  A    between atoms: O_26  and  C_31
                            x       y       z     vdW  Elec       q    Type
                         _______ _______ _______ _____ _____    ______ ____

>  <TORSDO>
F 15

$$$$
=
 OpenBabel11042417593D

 36 40  0  0  1  0  0  0  0  0999 V2000
  196.6850  176.7640  142.5240 C   0  0  0  0  0  1  0  0  0  0  0  0
  194.7280  175.7710  143.5520 C   0  0  2  0  0  3  0  0  0  0  0  0
  195.8740  174.8350  143.7730 N   0  0  1  0  0  0  0  0  0  0  0  0
  192.6090  176.3830  144.7690 C   0  0  0  0  0  3  0  0  0  0  0  0
  196.0580  176.2980  143.8230 C   0  0  1  0  0  3  0  0  0  0  0  0
  191.9570  175.8230  146.0010 C   0  0  2  0  0  0  0  0  0  0  0  0
  193.8060  175.8090  144.7250 C   0  0  0  0  0  0  0  0  0  0  0  0
  189.9600  174.8000  147.2720 C   0  0  0  0  0  1  0  0  0  0  0  0
  196.1780  174.3940  145.1550 C   0  0  1  0  0  3  0  0  0  0  0  0
  193.9350  174.8740  145.8060 C   0  0  0  0  0  0  0  0  0  0  0  0
  190.4780  175.8680  146.3220 C   0  0  1  0  0  0  0  0  0  0  0  0
  191.4350  176.8580  146.9810 C   0  0  0  0  0  2  0  0  0  0  0  0
  194.9850  174.1480  145.9740 N   0  0  0  0  0  0  0  0  0  0  0  0
  192.8040  174.8510  146.5960 O   0  0  0  0  0  0  0  0  0  0  0  0
  197.0420  173.1460  145.1100 C   0  0  0  0  0  2  0  0  0  0  0  0
  196.4450  172.1240  144.1630 C   0  0  0  0  0  2  0  0  0  0  0  0
  196.8540  170.8460  144.5440 O   0  0  0  0  0  0  0  0  0  0  0  0
  197.0620  169.5110  146.5050 C   0  0  0  0  0  2  0  0  0  0  0  0
  196.0160  168.9050  147.4110 C   0  0  0  0  0  2  0  0  0  0  0  0
  194.8930  170.3630  145.8230 C   0  0  0  0  0  2  0  0  0  0  0  0
  194.6930  169.1500  146.7160 C   0  0  0  0  0  2  0  0  0  0  0  0
  196.3760  170.6890  145.8460 C   0  0  0  0  0  3  0  0  0  0  0  0
  189.5620  176.4970  145.2660 C   0  0  2  0  0  3  0  0  0  0  0  0
  188.0940  176.5010  145.6860 C   0  0  0  0  0  2  0  0  0  0  0  0
  187.8290  177.6450  146.6450 C   0  0  0  0  0  2  0  0  0  0  0  0
  186.3400  177.7650  146.8860 C   0  0  0  0  0  2  0  0  0  0  0  0
  185.8260  179.0370  146.2440 C   0  0  0  0  0  2  0  0  0  0  0  0
  184.0350  177.6780  146.3910 O   0  0  0  0  0  1  0  0  0  0  0  0
  184.3870  178.9450  146.0680 N   0  0  0  0  0  0  0  0  0  0  0  0
  184.1310  179.1060  144.6440 C   0  0  0  0  0  2  0  0  0  0  0  0
  185.4220  179.4320  143.9060 C   0  0  0  0  0  2  0  0  0  0  0  0
  185.6000  177.0950  143.2250 N   0  0  0  0  0  1  0  0  0  0  0  0
  185.6540  178.4690  142.7510 C   0  0  0  0  0  2  0  0  0  0  0  0
  189.7690  175.9250  143.9300 N   0  0  0  0  0  2  0  0  0  0  0  0
  189.3000  176.8360  142.8900 C   0  0  0  0  0  2  0  0  0  0  0  0
  189.9290  178.1990  143.0940 C   0  0  0  0  0  1  0  0  0  0  0  0
  1  5  1  0  0  0  0
  2  3  1  0  0  0  0
  2  5  1  0  0  0  0
  2  7  1  1  0  0  0
  3  5  1  0  0  0  0
  3  9  1  0  0  0  0
  4  6  1  0  0  0  0
  6 11  1  0  0  0  0
  6 14  1  0  0  0  0
  6 12  1  0  0  0  0
  7  4  2  0  0  0  0
  7 10  1  0  0  0  0
  9 13  1  0  0  0  0
 10 13  2  0  0  0  0
 10 14  1  0  0  0  0
 11 12  1  0  0  0  0
 11  8  1  0  0  0  0
 15  9  1  0  0  0  0
 16 17  1  0  0  0  0
 16 15  1  0  0  0  0
 17 22  1  0  0  0  0
 18 19  1  0  0  0  0
 20 22  1  0  0  0  0
 20 21  1  0  0  0  0
 21 19  1  0  0  0  0
 22 18  1  0  0  0  0
 23 24  1  0  0  0  0
 23 11  1  0  0  0  0
 24 25  1  0  0  0  0
 25 26  1  0  0  0  0
 27 26  1  0  0  0  0
 29 27  1  0  0  0  0
 29 28  1  0  0  0  0
 30 29  1  0  0  0  0
 31 30  1  0  0  0  0
 33 32  1  0  0  0  0
 33 31  1  0  0  0  0
 34 23  1  0  0  0  0
 35 36  1  0  0  0  0
 35 34  1  0  0  0  0
M  END
>  <MODEL>
6

>  <REMARK>
 VINA RESULT:      -6.4      2.904     11.284
  Name = 
  15 active torsions:
  status: ('A' for Active; 'I' for Inactive)
    1  A    between atoms: C_1  and  C_16
    2  A    between atoms: C_1  and  C_29
    3  A    between atoms: C_2  and  C_12
    4  A    between atoms: C_2  and  N_17
    5  A    between atoms: C_4  and  C_24
    6  A    between atoms: C_4  and  C_28
    7  A    between atoms: C_8  and  C_14
    8  A    between atoms: C_8  and  N_17
    9  A    between atoms: C_10  and  N_33
   10  A    between atoms: C_12  and  C_29
   11  A    between atoms: C_14  and  C_35
   12  A    between atoms: C_16  and  C_27
   13  A    between atoms: C_16  and  N_33
   14  A    between atoms: O_26  and  C_28
   15  A    between atoms: O_26  and  C_31
                            x       y       z     vdW  Elec       q    Type
                         _______ _______ _______ _____ _____    ______ ____

>  <TORSDO>
F 15

$$$$
=
 OpenBabel11042417593D

 36 40  0  0  1  0  0  0  0  0999 V2000
  195.1230  175.2410  139.6530 C   0  0  0  0  0  1  0  0  0  0  0  0
  194.1060  175.1900  141.8520 C   0  0  2  0  0  3  0  0  0  0  0  0
  195.5900  175.1570  142.0440 N   0  0  1  0  0  0  0  0  0  0  0  0
  192.1190  176.0610  143.1320 C   0  0  0  0  0  3  0  0  0  0  0  0
  194.9710  175.9660  140.9760 C   0  0  1  0  0  3  0  0  0  0  0  0
  191.9910  176.6790  144.4960 C   0  0  2  0  0  0  0  0  0  0  0  0
  193.4260  175.9960  142.9090 C   0  0  0  0  0  0  0  0  0  0  0  0
  190.9800  176.8080  146.8650 C   0  0  0  0  0  1  0  0  0  0  0  0
  196.2170  176.1650  142.9310 C   0  0  1  0  0  3  0  0  0  0  0  0
  194.1390  176.4680  144.0610 C   0  0  0  0  0  0  0  0  0  0  0  0
  190.7540  176.6520  145.3690 C   0  0  1  0  0  0  0  0  0  0  0  0
  191.0980  177.9040  144.5660 C   0  0  0  0  0  2  0  0  0  0  0  0
  195.4250  176.4740  144.1280 N   0  0  0  0  0  0  0  0  0  0  0  0
  193.2780  176.8770  145.0590 O   0  0  0  0  0  0  0  0  0  0  0  0
  197.6020  175.6920  143.3340 C   0  0  0  0  0  2  0  0  0  0  0  0
  197.5670  174.2300  143.7320 C   0  0  0  0  0  2  0  0  0  0  0  0
  197.4000  174.1290  145.1130 O   0  0  0  0  0  0  0  0  0  0  0  0
  196.8370  172.0560  144.0850 C   0  0  0  0  0  2  0  0  0  0  0  0
  195.5170  171.3320  143.9650 C   0  0  0  0  0  2  0  0  0  0  0  0
  195.2060  173.2390  145.4410 C   0  0  0  0  0  2  0  0  0  0  0  0
  194.4800  172.3010  144.4920 C   0  0  0  0  0  2  0  0  0  0  0  0
  196.6900  172.9430  145.3040 C   0  0  0  0  0  3  0  0  0  0  0  0
  189.5440  175.8800  144.8300 C   0  0  2  0  0  3  0  0  0  0  0  0
  188.2320  176.6400  145.0090 C   0  0  0  0  0  2  0  0  0  0  0  0
  187.5460  176.2020  146.2880 C   0  0  0  0  0  2  0  0  0  0  0  0
  186.1580  176.8030  146.3450 C   0  0  0  0  0  2  0  0  0  0  0  0
  186.2260  178.2670  145.9610 C   0  0  0  0  0  2  0  0  0  0  0  0
  184.0740  177.9140  146.5260 O   0  0  0  0  0  1  0  0  0  0  0  0
  184.8860  178.8280  145.9430 N   0  0  0  0  0  0  0  0  0  0  0  0
  184.4900  178.9160  144.5450 C   0  0  0  0  0  2  0  0  0  0  0  0
  185.6550  179.4030  143.6940 C   0  0  0  0  0  2  0  0  0  0  0  0
  187.0650  178.3520  142.0030 N   0  0  0  0  0  1  0  0  0  0  0  0
  185.6940  178.6870  142.3530 C   0  0  0  0  0  2  0  0  0  0  0  0
  189.4810  174.5070  145.3430 N   0  0  0  0  0  2  0  0  0  0  0  0
  189.6940  173.5360  144.2730 C   0  0  0  0  0  2  0  0  0  0  0  0
  190.8760  172.6560  144.6200 C   0  0  0  0  0  1  0  0  0  0  0  0
  1  5  1  0  0  0  0
  2  3  1  0  0  0  0
  2  7  1  1  0  0  0
  3  9  1  0  0  0  0
  4  6  1  0  0  0  0
  5  2  1  0  0  0  0
  5  3  1  0  0  0  0
  6 12  1  0  0  0  0
  6 14  1  0  0  0  0
  6 11  1  0  0  0  0
  7  4  2  0  0  0  0
  7 10  1  0  0  0  0
  9 15  1  0  0  0  0
  9 13  1  0  0  0  0
 10 13  2  0  0  0  0
 10 14  1  0  0  0  0
 11  8  1  0  0  0  0
 12 11  1  0  0  0  0
 15 16  1  0  0  0  0
 16 17  1  0  0  0  0
 17 22  1  0  0  0  0
 18 22  1  0  0  0  0
 19 18  1  0  0  0  0
 19 21  1  0  0  0  0
 21 20  1  0  0  0  0
 22 20  1  0  0  0  0
 23 24  1  0  0  0  0
 23 34  1  0  0  0  0
 23 11  1  0  0  0  0
 24 25  1  0  0  0  0
 25 26  1  0  0  0  0
 27 26  1  0  0  0  0
 29 27  1  0  0  0  0
 29 28  1  0  0  0  0
 30 29  1  0  0  0  0
 31 30  1  0  0  0  0
 32 33  1  0  0  0  0
 33 31  1  0  0  0  0
 35 36  1  0  0  0  0
 35 34  1  0  0  0  0
M  END
>  <MODEL>
7

>  <REMARK>
 VINA RESULT:      -6.3      2.855     10.626
  Name = 
  15 active torsions:
  status: ('A' for Active; 'I' for Inactive)
    1  A    between atoms: C_1  and  C_16
    2  A    between atoms: C_1  and  C_29
    3  A    between atoms: C_2  and  C_12
    4  A    between atoms: C_2  and  N_17
    5  A    between atoms: C_4  and  C_24
    6  A    between atoms: C_4  and  C_28
    7  A    between atoms: C_8  and  C_14
    8  A    between atoms: C_8  and  N_17
    9  A    between atoms: C_10  and  N_33
   10  A    between atoms: C_12  and  C_29
   11  A    between atoms: C_14  and  C_35
   12  A    between atoms: C_16  and  C_27
   13  A    between atoms: C_16  and  N_33
   14  A    between atoms: O_26  and  C_28
   15  A    between atoms: O_26  and  C_31
                            x       y       z     vdW  Elec       q    Type
                         _______ _______ _______ _____ _____    ______ ____

>  <TORSDO>
F 15

$$$$
=
 OpenBabel11042417593D

 36 40  0  0  1  0  0  0  0  0999 V2000
  193.5740  170.0340  144.4170 C   0  0  0  0  0  1  0  0  0  0  0  0
  193.0530  172.3890  144.6480 C   0  0  2  0  0  3  0  0  0  0  0  0
  194.1870  172.2740  143.6790 N   0  0  1  0  0  0  0  0  0  0  0  0
  191.1180  173.9590  145.0150 C   0  0  0  0  0  3  0  0  0  0  0  0
  193.0950  171.2820  143.7040 C   0  0  1  0  0  3  0  0  0  0  0  0
  190.7310  175.2530  144.3580 C   0  0  2  0  0  0  0  0  0  0  0  0
  192.1060  173.4790  144.2700 C   0  0  0  0  0  0  0  0  0  0  0  0
  190.1090  177.7550  144.4160 C   0  0  0  0  0  1  0  0  0  0  0  0
  194.0550  172.9110  142.3470 C   0  0  1  0  0  3  0  0  0  0  0  0
  192.4190  174.4090  143.2230 C   0  0  0  0  0  0  0  0  0  0  0  0
  189.9140  176.3600  144.9890 C   0  0  1  0  0  0  0  0  0  0  0  0
  189.2590  175.3850  144.0140 C   0  0  0  0  0  2  0  0  0  0  0  0
  193.3700  174.2090  142.3780 N   0  0  0  0  0  0  0  0  0  0  0  0
  191.5980  175.5170  143.2660 O   0  0  0  0  0  0  0  0  0  0  0  0
  195.4290  173.0640  141.7200 C   0  0  0  0  0  2  0  0  0  0  0  0
  196.1450  174.2670  142.3030 C   0  0  0  0  0  2  0  0  0  0  0  0
  197.4370  173.8990  142.6790 O   0  0  0  0  0  0  0  0  0  0  0  0
  197.5780  173.1070  144.9200 C   0  0  0  0  0  2  0  0  0  0  0  0
  196.8750  173.5570  146.1800 C   0  0  0  0  0  2  0  0  0  0  0  0
  196.3440  175.1350  144.4090 C   0  0  0  0  0  2  0  0  0  0  0  0
  195.8410  174.5640  145.7240 C   0  0  0  0  0  2  0  0  0  0  0  0
  197.5570  174.3140  144.0070 C   0  0  0  0  0  3  0  0  0  0  0  0
  189.4900  176.1590  146.4490 C   0  0  2  0  0  3  0  0  0  0  0  0
  187.9760  176.0470  146.6130 C   0  0  0  0  0  2  0  0  0  0  0  0
  187.3930  177.3910  147.0010 C   0  0  0  0  0  2  0  0  0  0  0  0
  185.9370  177.2180  147.3770 C   0  0  0  0  0  2  0  0  0  0  0  0
  185.0920  177.1870  146.1200 C   0  0  0  0  0  2  0  0  0  0  0  0
  183.7930  179.0280  146.0870 O   0  0  0  0  0  1  0  0  0  0  0  0
  184.9540  178.5340  145.5940 N   0  0  0  0  0  0  0  0  0  0  0  0
  184.7820  178.4040  144.1540 C   0  0  0  0  0  2  0  0  0  0  0  0
  185.9340  179.0760  143.4200 C   0  0  0  0  0  2  0  0  0  0  0  0
  186.1640  178.0860  141.2010 N   0  0  0  0  0  1  0  0  0  0  0  0
  186.6920  178.0790  142.5560 C   0  0  0  0  0  2  0  0  0  0  0  0
  190.0880  177.1510  147.3490 N   0  0  0  0  0  2  0  0  0  0  0  0
  191.4440  176.7660  147.7290 C   0  0  0  0  0  2  0  0  0  0  0  0
  191.4660  175.2980  148.0980 C   0  0  0  0  0  1  0  0  0  0  0  0
  2  7  1  6  0  0  0
  3  5  1  0  0  0  0
  3  2  1  0  0  0  0
  5  1  1  0  0  0  0
  5  2  1  0  0  0  0
  6 11  1  0  0  0  0
  6  4  1  0  0  0  0
  7  4  2  0  0  0  0
  8 11  1  0  0  0  0
  9 13  1  0  0  0  0
  9  3  1  0  0  0  0
 10 14  1  0  0  0  0
 10  7  1  0  0  0  0
 11 23  1  0  0  0  0
 12  6  1  0  0  0  0
 12 11  1  0  0  0  0
 13 10  2  0  0  0  0
 14  6  1  0  0  0  0
 15 16  1  0  0  0  0
 15  9  1  0  0  0  0
 16 17  1  0  0  0  0
 17 22  1  0  0  0  0
 18 19  1  0  0  0  0
 20 21  1  0  0  0  0
 21 19  1  0  0  0  0
 22 20  1  0  0  0  0
 22 18  1  0  0  0  0
 23 24  1  0  0  0  0
 23 34  1  0  0  0  0
 24 25  1  0  0  0  0
 25 26  1  0  0  0  0
 27 26  1  0  0  0  0
 29 28  1  0  0  0  0
 29 27  1  0  0  0  0
 30 29  1  0  0  0  0
 31 30  1  0  0  0  0
 32 33  1  0  0  0  0
 33 31  1  0  0  0  0
 34 35  1  0  0  0  0
 35 36  1  0  0  0  0
M  END
>  <MODEL>
8

>  <REMARK>
 VINA RESULT:      -6.2      2.980     10.578
  Name = 
  15 active torsions:
  status: ('A' for Active; 'I' for Inactive)
    1  A    between atoms: C_1  and  C_16
    2  A    between atoms: C_1  and  C_29
    3  A    between atoms: C_2  and  C_12
    4  A    between atoms: C_2  and  N_17
    5  A    between atoms: C_4  and  C_24
    6  A    between atoms: C_4  and  C_28
    7  A    between atoms: C_8  and  C_14
    8  A    between atoms: C_8  and  N_17
    9  A    between atoms: C_10  and  N_33
   10  A    between atoms: C_12  and  C_29
   11  A    between atoms: C_14  and  C_35
   12  A    between atoms: C_16  and  C_27
   13  A    between atoms: C_16  and  N_33
   14  A    between atoms: O_26  and  C_28
   15  A    between atoms: O_26  and  C_31
                            x       y       z     vdW  Elec       q    Type
                         _______ _______ _______ _____ _____    ______ ____

>  <TORSDO>
F 15

$$$$
=
 OpenBabel11042417593D

 36 40  0  0  1  0  0  0  0  0999 V2000
  184.5620  179.6910  144.6580 C   0  0  0  0  0  1  0  0  0  0  0  0
  185.8940  177.8580  143.8010 C   0  0  2  0  0  3  0  0  0  0  0  0
  184.7960  178.1130  142.8160 N   0  0  1  0  0  0  0  0  0  0  0  0
  188.2640  177.0090  143.7130 C   0  0  0  0  0  3  0  0  0  0  0  0
  185.4590  179.2210  143.5310 C   0  0  1  0  0  3  0  0  0  0  0  0
  189.0910  176.4440  142.5930 C   0  0  2  0  0  0  0  0  0  0  0  0
  187.1700  177.4800  143.1250 C   0  0  0  0  0  0  0  0  0  0  0  0
  190.5710  174.6150  141.5360 C   0  0  0  0  0  1  0  0  0  0  0  0
  185.1520  178.3460  141.3960 C   0  0  1  0  0  3  0  0  0  0  0  0
  187.2150  177.1960  141.7190 C   0  0  0  0  0  0  0  0  0  0  0  0
  190.2510  175.4820  142.7440 C   0  0  1  0  0  0  0  0  0  0  0  0
  190.5130  176.9680  142.5150 C   0  0  0  0  0  2  0  0  0  0  0  0
  186.2580  177.5080  140.9170 N   0  0  0  0  0  0  0  0  0  0  0  0
  188.3790  176.5430  141.3690 O   0  0  0  0  0  0  0  0  0  0  0  0
  183.9250  178.1350  140.5260 C   0  0  0  0  0  2  0  0  0  0  0  0
  182.6610  178.2900  141.3490 C   0  0  0  0  0  2  0  0  0  0  0  0
  181.5500  178.2160  140.5090 O   0  0  0  0  0  0  0  0  0  0  0  0
  179.3080  177.9190  141.2530 C   0  0  0  0  0  2  0  0  0  0  0  0
  178.1190  178.8490  141.2220 C   0  0  0  0  0  2  0  0  0  0  0  0
  180.0810  180.1020  140.5220 C   0  0  0  0  0  2  0  0  0  0  0  0
  178.5670  180.0460  140.4100 C   0  0  0  0  0  2  0  0  0  0  0  0
  180.5190  178.8280  141.2230 C   0  0  0  0  0  3  0  0  0  0  0  0
  190.5710  175.0040  144.1650 C   0  0  2  0  0  3  0  0  0  0  0  0
  192.0420  174.6370  144.3460 C   0  0  0  0  0  2  0  0  0  0  0  0
  192.7620  175.7270  145.1140 C   0  0  0  0  0  2  0  0  0  0  0  0
  193.0710  175.2380  146.5130 C   0  0  0  0  0  2  0  0  0  0  0  0
  191.8130  175.2920  147.3550 C   0  0  0  0  0  2  0  0  0  0  0  0
  191.5430  177.1700  148.5700 O   0  0  0  0  0  1  0  0  0  0  0  0
  191.2830  176.6450  147.3490 N   0  0  0  0  0  0  0  0  0  0  0  0
  189.8360  176.5250  147.2400 C   0  0  0  0  0  2  0  0  0  0  0  0
  189.1850  177.9000  147.2980 C   0  0  0  0  0  2  0  0  0  0  0  0
  187.2520  176.4170  147.1640 N   0  0  0  0  0  1  0  0  0  0  0  0
  187.6800  177.8060  147.0960 C   0  0  0  0  0  2  0  0  0  0  0  0
  189.6610  173.9480  144.6220 N   0  0  0  0  0  2  0  0  0  0  0  0
  190.3270  172.6490  144.6320 C   0  0  0  0  0  2  0  0  0  0  0  0
  189.6910  171.7490  143.5930 C   0  0  0  0  0  1  0  0  0  0  0  0
  2  7  1  6  0  0  0
  3  5  1  0  0  0  0
  3  2  1  0  0  0  0
  5  2  1  0  0  0  0
  5  1  1  0  0  0  0
  6 11  1  0  0  0  0
  6  4  1  0  0  0  0
  7  4  2  0  0  0  0
  8 11  1  0  0  0  0
  9  3  1  0  0  0  0
 10  7  1  0  0  0  0
 11 23  1  0  0  0  0
 12  6  1  0  0  0  0
 12 11  1  0  0  0  0
 13  9  1  0  0  0  0
 13 10  2  0  0  0  0
 14 10  1  0  0  0  0
 14  6  1  0  0  0  0
 15 16  1  0  0  0  0
 15  9  1  0  0  0  0
 17 22  1  0  0  0  0
 17 16  1  0  0  0  0
 19 18  1  0  0  0  0
 20 22  1  0  0  0  0
 21 20  1  0  0  0  0
 21 19  1  0  0  0  0
 22 18  1  0  0  0  0
 23 24  1  0  0  0  0
 23 34  1  0  0  0  0
 24 25  1  0  0  0  0
 25 26  1  0  0  0  0
 26 27  1  0  0  0  0
 29 27  1  0  0  0  0
 29 28  1  0  0  0  0
 30 31  1  0  0  0  0
 30 29  1  0  0  0  0
 33 32  1  0  0  0  0
 33 31  1  0  0  0  0
 34 35  1  0  0  0  0
 36 35  1  0  0  0  0
M  END
>  <MODEL>
9

>  <REMARK>
 VINA RESULT:      -6.2      2.820      4.019
  Name = 
  15 active torsions:
  status: ('A' for Active; 'I' for Inactive)
    1  A    between atoms: C_1  and  C_16
    2  A    between atoms: C_1  and  C_29
    3  A    between atoms: C_2  and  C_12
    4  A    between atoms: C_2  and  N_17
    5  A    between atoms: C_4  and  C_24
    6  A    between atoms: C_4  and  C_28
    7  A    between atoms: C_8  and  C_14
    8  A    between atoms: C_8  and  N_17
    9  A    between atoms: C_10  and  N_33
   10  A    between atoms: C_12  and  C_29
   11  A    between atoms: C_14  and  C_35
   12  A    between atoms: C_16  and  C_27
   13  A    between atoms: C_16  and  N_33
   14  A    between atoms: O_26  and  C_28
   15  A    between atoms: O_26  and  C_31
                            x       y       z     vdW  Elec       q    Type
                         _______ _______ _______ _____ _____    ______ ____

>  <TORSDO>
F 15

$$$$
