=
 OpenBabel11042414373D

 46 48  0  0  1  0  0  0  0  0999 V2000
  187.3040  177.1420  140.6670 C   0  0  0  0  0  0  0  0  0  0  0  0
  187.6420  175.9850  141.4000 C   0  0  0  0  0  2  0  0  0  0  0  0
  189.2780  177.2940  142.5920 C   0  0  0  0  0  0  0  0  0  0  0  0
  190.2750  177.1580  143.6920 C   0  0  0  0  0  3  0  0  0  0  0  0
  188.9600  178.4160  141.8380 C   0  0  0  0  0  3  0  0  0  0  0  0
  189.1950  175.1060  143.2510 C   0  0  0  0  0  0  0  0  0  0  0  0
  187.9890  178.3100  140.8860 N   0  0  0  0  0  0  0  0  0  0  0  0
  188.6470  176.1030  142.3580 C   0  0  0  0  0  0  0  0  0  0  0  0
  190.1240  175.6910  144.0170 C   0  0  0  0  0  0  0  0  0  0  0  0
  186.3900  176.3530  138.4130 N   0  0  0  0  0  2  0  0  0  0  0  0
  186.2540  177.1070  139.6250 C   0  0  0  0  0  0  0  0  0  0  0  0
  185.1980  177.7660  139.8090 O   0  0  0  0  0  0  0  0  0  0  0  0
  187.9980  175.3260  136.8510 C   0  0  0  0  0  0  0  0  0  0  0  0
  187.3660  175.9870  135.6780 C   0  0  0  0  0  1  0  0  0  0  0  0
  187.4760  175.5070  138.1650 N   0  0  0  0  0  2  0  0  0  0  0  0
  189.0080  174.5950  136.6800 O   0  0  0  0  0  0  0  0  0  0  0  0
  188.8830  173.6410  143.2170 C   0  0  0  0  0  2  0  0  0  0  0  0
  190.8660  172.0610  142.8320 C   0  0  2  0  0  3  0  0  0  0  0  0
  189.6580  171.5410  142.2990 O   0  0  0  0  0  0  0  0  0  0  0  0
  189.8900  173.3970  140.7910 C   0  0  0  0  0  1  0  0  0  0  0  0
  189.8130  172.9370  142.2380 C   0  0  1  0  0  0  0  0  0  0  0  0
  191.9760  171.8830  141.8990 N   0  0  0  0  0  2  0  0  0  0  0  0
  193.1580  171.7350  142.6380 N   0  0  0  0  0  2  0  0  0  0  0  0
  193.2270  172.8320  143.5070 N   0  0  0  0  0  2  0  0  0  0  0  0
  194.5790  173.1930  143.6090 N   0  0  0  0  0  2  0  0  0  0  0  0
  194.8000  174.2940  142.6720 C   0  0  0  0  0  2  0  0  0  0  0  0
  196.1210  174.9080  142.8390 N   0  0  0  0  0  0  0  0  0  0  0  0
  196.8060  174.2770  143.9600 C   0  0  0  0  0  1  0  0  0  0  0  0
  195.9770  176.3210  143.1500 C   0  0  0  0  0  1  0  0  0  0  0  0
  190.8620  174.9920  145.1130 C   0  0  1  0  0  3  0  0  0  0  0  0
  192.1740  175.7030  145.4240 C   0  0  0  0  0  2  0  0  0  0  0  0
  194.1670  175.6310  146.3630 C   0  0  0  0  0  1  0  0  0  0  0  0
  193.0290  174.8630  146.1370 O   0  0  0  0  0  0  0  0  0  0  0  0
  189.9770  174.9160  146.3460 C   0  0  0  0  0  2  0  0  0  0  0  0
  190.2040  176.1280  147.2250 C   0  0  0  0  0  2  0  0  0  0  0  0
  189.2500  177.2050  146.8440 C   0  0  0  0  0  3  0  0  0  0  0  0
  187.9520  176.9360  146.7340 C   0  0  0  0  0  3  0  0  0  0  0  0
  186.9730  178.0010  146.3320 C   0  0  2  0  0  3  0  0  0  0  0  0
  187.0620  179.1510  148.5620 O   0  0  0  0  0  1  0  0  0  0  0  0
  186.3060  178.5890  147.5410 C   0  0  0  0  0  0  0  0  0  0  0  0
  185.0560  178.5510  147.6360 O   0  0  0  0  0  0  0  0  0  0  0  0
  185.9830  177.4920  145.2730 C   0  0  2  0  0  3  0  0  0  0  0  0
  186.2020  176.0190  144.9860 C   0  0  0  0  0  1  0  0  0  0  0  0
  186.0160  178.3260  143.9910 C   0  0  0  0  0  2  0  0  0  0  0  0
  185.4210  180.5820  144.2890 O   0  0  0  0  0  0  0  0  0  0  0  0
  185.0330  179.4500  144.0530 C   0  0  0  0  0  3  0  0  0  0  0  0
  1  7  2  0  0  0  0
  1  2  1  0  0  0  0
  2  8  1  0  0  0  0
  3  4  1  0  0  0  0
  4  9  2  0  0  0  0
  5  3  2  0  0  0  0
  6  9  1  0  0  0  0
  7  5  1  0  0  0  0
  8  3  1  0  0  0  0
  8  6  2  0  0  0  0
  9 30  1  0  0  0  0
 10 11  1  0  0  0  0
 11 12  2  0  0  0  0
 11  1  1  0  0  0  0
 13 15  1  0  0  0  0
 14 13  1  0  0  0  0
 15 10  1  0  0  0  0
 16 13  2  0  0  0  0
 17  6  1  0  0  0  0
 18 22  1  6  0  0  0
 19 18  1  0  0  0  0
 21 20  1  6  0  0  0
 21 19  1  0  0  0  0
 21 18  1  0  0  0  0
 21 17  1  0  0  0  0
 22 23  1  0  0  0  0
 23 24  1  0  0  0  0
 24 25  1  0  0  0  0
 26 27  1  0  0  0  0
 26 25  1  0  0  0  0
 27 29  1  0  0  0  0
 27 28  1  0  0  0  0
 30 31  1  1  0  0  0
 30 34  1  0  0  0  0
 31 33  1  0  0  0  0
 33 32  1  0  0  0  0
 34 35  1  0  0  0  0
 36 35  1  0  0  0  0
 37 36  2  0  0  0  0
 38 37  1  1  0  0  0
 38 40  1  0  0  0  0
 40 41  2  0  0  0  0
 40 39  1  0  0  0  0
 42 43  1  6  0  0  0
 42 38  1  0  0  0  0
 44 46  1  0  0  0  0
 44 42  1  0  0  0  0
 46 45  2  0  0  0  0
M  END
>  <MODEL>
1

>  <REMARK>
 VINA RESULT:      -5.4      0.000      0.000
  Name = 
  21 active torsions:
  status: ('A' for Active; 'I' for Inactive)
    1  A    between atoms: C_1  and  C_33
    2  A    between atoms: C_1  and  C_41
    3  A    between atoms: N_2  and  C_4
    4  A    between atoms: C_4  and  N_38
    5  A    between atoms: C_6  and  N_28
    6  A    between atoms: N_8  and  N_16
    7  A    between atoms: C_9  and  C_34
    8  A    between atoms: N_10  and  N_19
    9  A    between atoms: N_10  and  N_38
   10  A    between atoms: C_11  and  C_27
   11  A    between atoms: C_12  and  C_20
   12  A    between atoms: C_12  and  C_21
   13  A    between atoms: C_15  and  C_20
   14  A    between atoms: C_15  and  C_40
   15  A    between atoms: C_15  and  C_42
   16  A    between atoms: N_19  and  N_28
   17  A    between atoms: C_24  and  C_25
   18  A    between atoms: C_24  and  C_27
   19  A    between atoms: C_25  and  C_26
   20  A    between atoms: C_25  and  C_46
   21  A    between atoms: C_26  and  O_45
                            x       y       z     vdW  Elec       q    Type
                         _______ _______ _______ _____ _____    ______ ____

>  <TORSDO>
F 21

$$$$
=
 OpenBabel11042414373D

 46 48  0  0  1  0  0  0  0  0999 V2000
  194.7250  173.6550  144.7520 C   0  0  0  0  0  0  0  0  0  0  0  0
  193.3610  173.5760  145.1040 C   0  0  0  0  0  2  0  0  0  0  0  0
  192.8380  174.8120  143.1020 C   0  0  0  0  0  0  0  0  0  0  0  0
  191.6600  175.3280  142.3470 C   0  0  0  0  0  3  0  0  0  0  0  0
  194.1860  174.9140  142.7880 C   0  0  0  0  0  3  0  0  0  0  0  0
  191.0000  174.2530  144.3430 C   0  0  0  0  0  0  0  0  0  0  0  0
  195.0980  174.3420  143.6260 N   0  0  0  0  0  0  0  0  0  0  0  0
  192.4410  174.1770  144.2470 C   0  0  0  0  0  0  0  0  0  0  0  0
  190.5390  174.9060  143.2690 C   0  0  0  0  0  0  0  0  0  0  0  0
  195.8630  171.6390  145.8380 N   0  0  0  0  0  2  0  0  0  0  0  0
  195.7710  173.0510  145.6070 C   0  0  0  0  0  0  0  0  0  0  0  0
  196.6150  173.8070  146.1550 O   0  0  0  0  0  0  0  0  0  0  0  0
  194.6490  169.4930  145.8210 C   0  0  0  0  0  0  0  0  0  0  0  0
  195.1510  169.1340  147.1730 C   0  0  0  0  0  1  0  0  0  0  0  0
  195.0410  170.7110  145.1910 N   0  0  0  0  0  2  0  0  0  0  0  0
  193.8670  168.7090  145.2220 O   0  0  0  0  0  0  0  0  0  0  0  0
  190.1810  173.8120  145.5170 C   0  0  0  0  0  2  0  0  0  0  0  0
  188.5660  175.5160  146.5480 C   0  0  2  0  0  3  0  0  0  0  0  0
  189.1020  174.6330  147.5200 O   0  0  0  0  0  0  0  0  0  0  0  0
  191.1420  175.7800  146.9850 C   0  0  0  0  0  1  0  0  0  0  0  0
  189.9580  174.9840  146.4620 C   0  0  1  0  0  0  0  0  0  0  0  0
  188.5680  176.8960  147.0270 N   0  0  0  0  0  2  0  0  0  0  0  0
  187.3410  177.4850  146.6940 N   0  0  0  0  0  2  0  0  0  0  0  0
  186.3430  176.6760  147.2540 N   0  0  0  0  0  2  0  0  0  0  0  0
  185.1810  176.8680  146.4920 N   0  0  0  0  0  2  0  0  0  0  0  0
  185.6060  177.3220  145.1680 C   0  0  0  0  0  2  0  0  0  0  0  0
  184.7300  178.3690  144.6330 N   0  0  0  0  0  0  0  0  0  0  0  0
  185.5460  179.4700  144.1360 C   0  0  0  0  0  1  0  0  0  0  0  0
  183.8790  178.8920  145.6900 C   0  0  0  0  0  1  0  0  0  0  0  0
  189.0880  175.1190  142.9810 C   0  0  1  0  0  3  0  0  0  0  0  0
  188.8810  176.3620  142.1230 C   0  0  0  0  0  2  0  0  0  0  0  0
  187.3910  177.7750  141.3230 C   0  0  0  0  0  1  0  0  0  0  0  0
  187.6590  176.9640  142.4210 O   0  0  0  0  0  0  0  0  0  0  0  0
  188.5250  173.8840  142.2970 C   0  0  0  0  0  2  0  0  0  0  0  0
  188.4740  174.0970  140.7980 C   0  0  0  0  0  2  0  0  0  0  0  0
  189.6410  173.4310  140.1600 C   0  0  0  0  0  3  0  0  0  0  0  0
  190.1800  172.3520  140.7220 C   0  0  0  0  0  3  0  0  0  0  0  0
  191.3700  171.6730  140.1080 C   0  0  2  0  0  3  0  0  0  0  0  0
  191.1760  171.0810  137.6760 O   0  0  0  0  0  0  0  0  0  0  0  0
  190.9410  170.7500  139.0050 C   0  0  0  0  0  0  0  0  0  0  0  0
  190.3470  169.6820  139.2890 O   0  0  0  0  0  1  0  0  0  0  0  0
  192.2460  170.9930  141.1700 C   0  0  2  0  0  3  0  0  0  0  0  0
  191.5820  171.0340  142.5340 C   0  0  0  0  0  1  0  0  0  0  0  0
  193.6640  171.5670  141.2180 C   0  0  0  0  0  2  0  0  0  0  0  0
  195.4390  170.2180  141.9670 O   0  0  0  0  0  0  0  0  0  0  0  0
  194.6870  170.4920  141.0460 C   0  0  0  0  0  3  0  0  0  0  0  0
  1  2  1  0  0  0  0
  1 11  1  0  0  0  0
  3  8  1  0  0  0  0
  4  3  1  0  0  0  0
  4  9  2  0  0  0  0
  5  3  2  0  0  0  0
  5  7  1  0  0  0  0
  6 17  1  0  0  0  0
  7  1  2  0  0  0  0
  8  6  2  0  0  0  0
  8  2  1  0  0  0  0
  9  6  1  0  0  0  0
 11 10  1  0  0  0  0
 11 12  2  0  0  0  0
 13 14  1  0  0  0  0
 15 13  1  0  0  0  0
 15 10  1  0  0  0  0
 16 13  2  0  0  0  0
 17 21  1  0  0  0  0
 18 22  1  1  0  0  0
 18 19  1  0  0  0  0
 21 18  1  0  0  0  0
 21 20  1  1  0  0  0
 21 19  1  0  0  0  0
 23 22  1  0  0  0  0
 23 24  1  0  0  0  0
 25 24  1  0  0  0  0
 26 25  1  0  0  0  0
 27 26  1  0  0  0  0
 27 29  1  0  0  0  0
 28 27  1  0  0  0  0
 30 31  1  6  0  0  0
 30  9  1  0  0  0  0
 31 33  1  0  0  0  0
 32 33  1  0  0  0  0
 34 30  1  0  0  0  0
 35 34  1  0  0  0  0
 36 37  2  0  0  0  0
 36 35  1  0  0  0  0
 38 37  1  1  0  0  0
 38 42  1  0  0  0  0
 39 40  2  0  0  0  0
 40 41  1  0  0  0  0
 40 38  1  0  0  0  0
 42 44  1  0  0  0  0
 42 43  1  1  0  0  0
 46 44  1  0  0  0  0
 46 45  2  0  0  0  0
M  END
>  <MODEL>
2

>  <REMARK>
 VINA RESULT:      -5.4      3.370      9.478
  Name = 
  21 active torsions:
  status: ('A' for Active; 'I' for Inactive)
    1  A    between atoms: C_1  and  C_33
    2  A    between atoms: C_1  and  C_41
    3  A    between atoms: N_2  and  C_4
    4  A    between atoms: C_4  and  N_38
    5  A    between atoms: C_6  and  N_28
    6  A    between atoms: N_8  and  N_16
    7  A    between atoms: C_9  and  C_34
    8  A    between atoms: N_10  and  N_19
    9  A    between atoms: N_10  and  N_38
   10  A    between atoms: C_11  and  C_27
   11  A    between atoms: C_12  and  C_20
   12  A    between atoms: C_12  and  C_21
   13  A    between atoms: C_15  and  C_20
   14  A    between atoms: C_15  and  C_40
   15  A    between atoms: C_15  and  C_42
   16  A    between atoms: N_19  and  N_28
   17  A    between atoms: C_24  and  C_25
   18  A    between atoms: C_24  and  C_27
   19  A    between atoms: C_25  and  C_26
   20  A    between atoms: C_25  and  C_46
   21  A    between atoms: C_26  and  O_45
                            x       y       z     vdW  Elec       q    Type
                         _______ _______ _______ _____ _____    ______ ____

>  <TORSDO>
F 21

$$$$
=
 OpenBabel11042414373D

 46 48  0  0  1  0  0  0  0  0999 V2000
  196.1990  172.0140  144.9250 C   0  0  0  0  0  0  0  0  0  0  0  0
  194.8210  172.2390  144.7230 C   0  0  0  0  0  3  0  0  0  0  0  0
  195.0580  174.3380  145.8840 C   0  0  0  0  0  0  0  0  0  0  0  0
  194.2510  175.5280  146.2800 C   0  0  0  0  0  2  0  0  0  0  0  0
  196.4050  174.0860  146.1080 C   0  0  0  0  0  3  0  0  0  0  0  0
  192.9260  173.9190  145.1700 C   0  0  0  0  0  0  0  0  0  0  0  0
  196.9400  172.9240  145.6320 N   0  0  0  0  0  0  0  0  0  0  0  0
  194.2840  173.4220  145.2270 C   0  0  0  0  0  0  0  0  0  0  0  0
  192.8910  175.1180  145.7660 C   0  0  0  0  0  0  0  0  0  0  0  0
  196.5130  169.4760  144.9150 N   0  0  0  0  0  2  0  0  0  0  0  0
  196.8520  170.7820  144.4290 C   0  0  0  0  0  0  0  0  0  0  0  0
  197.7420  170.8830  143.5460 O   0  0  0  0  0  0  0  0  0  0  0  0
  195.7120  168.8680  147.1660 C   0  0  0  0  0  0  0  0  0  0  0  0
  197.0960  168.6330  147.6550 C   0  0  0  0  0  1  0  0  0  0  0  0
  195.4660  169.2510  145.8140 N   0  0  0  0  0  2  0  0  0  0  0  0
  194.7430  168.7250  147.9560 O   0  0  0  0  0  0  0  0  0  0  0  0
  191.7400  173.1560  144.6670 C   0  0  0  0  0  2  0  0  0  0  0  0
  190.7170  172.3750  142.4490 C   0  0  2  0  0  3  0  0  0  0  0  0
  190.2910  173.6820  142.8020 O   0  0  0  0  0  0  0  0  0  0  0  0
  192.6020  174.2030  142.4050 C   0  0  0  0  0  1  0  0  0  0  0  0
  191.6060  173.3380  143.1620 C   0  0  1  0  0  0  0  0  0  0  0  0
  191.0680  172.2960  141.0330 N   0  0  0  0  0  2  0  0  0  0  0  0
  189.9550  171.8280  140.3240 N   0  0  0  0  0  2  0  0  0  0  0  0
  188.9540  172.7990  140.4620 N   0  0  0  0  0  2  0  0  0  0  0  0
  188.0440  172.6060  139.4100 N   0  0  0  0  0  2  0  0  0  0  0  0
  188.8080  172.6820  138.1650 C   0  0  0  0  0  2  0  0  0  0  0  0
  189.1550  174.0620  137.8110 N   0  0  0  0  0  0  0  0  0  0  0  0
  187.9440  174.7810  137.4330 C   0  0  0  0  0  1  0  0  0  0  0  0
  190.0480  174.0710  136.6640 C   0  0  0  0  0  1  0  0  0  0  0  0
  191.6700  175.9770  145.8400 C   0  0  1  0  0  3  0  0  0  0  0  0
  191.6130  176.7260  147.1660 C   0  0  0  0  0  2  0  0  0  0  0  0
  190.1420  175.1150  147.4800 C   0  0  0  0  0  1  0  0  0  0  0  0
  191.0490  175.9250  148.1570 O   0  0  0  0  0  0  0  0  0  0  0  0
  191.6620  176.9420  144.6660 C   0  0  0  0  0  2  0  0  0  0  0  0
  190.4420  177.8350  144.7360 C   0  0  0  0  0  2  0  0  0  0  0  0
  189.2130  177.0160  144.5470 C   0  0  0  0  0  3  0  0  0  0  0  0
  188.0310  177.6130  144.4160 C   0  0  0  0  0  3  0  0  0  0  0  0
  186.7750  176.8080  144.2430 C   0  0  2  0  0  3  0  0  0  0  0  0
  187.1680  175.0340  142.5110 O   0  0  0  0  0  1  0  0  0  0  0  0
  186.6680  176.2880  142.8390 C   0  0  0  0  0  0  0  0  0  0  0  0
  186.1430  177.0040  141.9540 O   0  0  0  0  0  0  0  0  0  0  0  0
  185.5340  177.5870  144.7030 C   0  0  2  0  0  3  0  0  0  0  0  0
  185.7690  179.0840  144.6240 C   0  0  0  0  0  1  0  0  0  0  0  0
  185.0590  177.1660  146.0950 C   0  0  0  0  0  2  0  0  0  0  0  0
  186.0810  178.1840  147.9530 O   0  0  0  0  0  0  0  0  0  0  0  0
  185.2310  178.2740  147.0820 C   0  0  0  0  0  3  0  0  0  0  0  0
  1  7  1  0  0  0  0
  2  1  2  0  0  0  0
  2  8  1  0  0  0  0
  3  5  1  0  0  0  0
  3  4  1  0  0  0  0
  6  8  1  0  0  0  0
  6  9  2  0  0  0  0
  7  5  2  0  0  0  0
  8  3  2  0  0  0  0
  9 30  1  0  0  0  0
  9  4  1  0  0  0  0
 10 15  1  0  0  0  0
 11 10  1  0  0  0  0
 11  1  1  0  0  0  0
 12 11  2  0  0  0  0
 13 14  1  0  0  0  0
 13 16  2  0  0  0  0
 15 13  1  0  0  0  0
 17  6  1  0  0  0  0
 18 22  1  6  0  0  0
 18 19  1  0  0  0  0
 18 21  1  0  0  0  0
 19 21  1  0  0  0  0
 21 20  1  6  0  0  0
 21 17  1  0  0  0  0
 23 24  1  0  0  0  0
 23 22  1  0  0  0  0
 25 24  1  0  0  0  0
 26 25  1  0  0  0  0
 27 26  1  0  0  0  0
 28 27  1  0  0  0  0
 29 27  1  0  0  0  0
 30 34  1  6  0  0  0
 30 31  1  0  0  0  0
 31 33  1  0  0  0  0
 32 33  1  0  0  0  0
 34 35  1  0  0  0  0
 36 35  1  0  0  0  0
 37 36  2  0  0  0  0
 38 37  1  6  0  0  0
 38 42  1  0  0  0  0
 39 40  1  0  0  0  0
 40 38  1  0  0  0  0
 41 40  2  0  0  0  0
 42 43  1  1  0  0  0
 42 44  1  0  0  0  0
 44 46  1  0  0  0  0
 46 45  2  0  0  0  0
M  END
>  <MODEL>
3

>  <REMARK>
 VINA RESULT:      -5.4      2.940      7.702
  Name = 
  21 active torsions:
  status: ('A' for Active; 'I' for Inactive)
    1  A    between atoms: C_1  and  C_33
    2  A    between atoms: C_1  and  C_41
    3  A    between atoms: N_2  and  C_4
    4  A    between atoms: C_4  and  N_38
    5  A    between atoms: C_6  and  N_28
    6  A    between atoms: N_8  and  N_16
    7  A    between atoms: C_9  and  C_34
    8  A    between atoms: N_10  and  N_19
    9  A    between atoms: N_10  and  N_38
   10  A    between atoms: C_11  and  C_27
   11  A    between atoms: C_12  and  C_20
   12  A    between atoms: C_12  and  C_21
   13  A    between atoms: C_15  and  C_20
   14  A    between atoms: C_15  and  C_40
   15  A    between atoms: C_15  and  C_42
   16  A    between atoms: N_19  and  N_28
   17  A    between atoms: C_24  and  C_25
   18  A    between atoms: C_24  and  C_27
   19  A    between atoms: C_25  and  C_26
   20  A    between atoms: C_25  and  C_46
   21  A    between atoms: C_26  and  O_45
                            x       y       z     vdW  Elec       q    Type
                         _______ _______ _______ _____ _____    ______ ____

>  <TORSDO>
F 21

$$$$
=
 OpenBabel11042414373D

 46 48  0  0  1  0  0  0  0  0999 V2000
  187.2800  177.0610  140.5960 C   0  0  0  0  0  0  0  0  0  0  0  0
  187.6030  175.8530  141.2490 C   0  0  0  0  0  2  0  0  0  0  0  0
  189.1340  177.0890  142.6420 C   0  0  0  0  0  0  0  0  0  0  0  0
  190.0680  176.8800  143.7850 C   0  0  0  0  0  3  0  0  0  0  0  0
  188.8340  178.2630  141.9650 C   0  0  0  0  0  3  0  0  0  0  0  0
  189.0650  174.8510  143.1120 C   0  0  0  0  0  0  0  0  0  0  0  0
  187.9220  178.2190  140.9510 N   0  0  0  0  0  0  0  0  0  0  0  0
  188.5460  175.9100  142.2730 C   0  0  0  0  0  0  0  0  0  0  0  0
  189.9340  175.3880  143.9780 C   0  0  0  0  0  0  0  0  0  0  0  0
  186.4740  176.3660  138.2700 N   0  0  0  0  0  2  0  0  0  0  0  0
  186.2940  177.0930  139.4930 C   0  0  0  0  0  0  0  0  0  0  0  0
  185.2530  177.7870  139.6330 O   0  0  0  0  0  0  0  0  0  0  0  0
  188.0650  175.2400  136.7600 C   0  0  0  0  0  0  0  0  0  0  0  0
  187.4540  175.8670  135.5580 C   0  0  0  0  0  1  0  0  0  0  0  0
  187.5410  175.4860  138.0630 N   0  0  0  0  0  2  0  0  0  0  0  0
  189.0580  174.4790  136.6250 O   0  0  0  0  0  0  0  0  0  0  0  0
  188.7920  173.3890  142.9380 C   0  0  0  0  0  2  0  0  0  0  0  0
  190.2900  171.3520  142.5110 C   0  0  2  0  0  3  0  0  0  0  0  0
  189.4460  171.6350  141.4060 O   0  0  0  0  0  0  0  0  0  0  0  0
  190.8170  173.6020  141.2620 C   0  0  0  0  0  1  0  0  0  0  0  0
  189.9110  172.7450  142.1320 C   0  0  1  0  0  0  0  0  0  0  0  0
  191.6510  171.0500  142.0750 N   0  0  0  0  0  2  0  0  0  0  0  0
  191.6200  169.8850  141.2970 N   0  0  0  0  0  2  0  0  0  0  0  0
  192.3380  170.1650  140.1260 N   0  0  0  0  0  2  0  0  0  0  0  0
  191.5130  169.8210  139.0440 N   0  0  0  0  0  2  0  0  0  0  0  0
  191.1120  171.0710  138.3980 C   0  0  0  0  0  2  0  0  0  0  0  0
  191.1850  170.9860  136.9350 N   0  0  0  0  0  0  0  0  0  0  0  0
  189.8360  171.0240  136.3840 C   0  0  0  0  0  1  0  0  0  0  0  0
  191.7870  169.7230  136.5400 C   0  0  0  0  0  1  0  0  0  0  0  0
  190.6230  174.6140  145.0550 C   0  0  1  0  0  3  0  0  0  0  0  0
  191.9600  175.2530  145.4120 C   0  0  0  0  0  2  0  0  0  0  0  0
  192.8340  173.3020  144.8740 C   0  0  0  0  0  1  0  0  0  0  0  0
  192.9920  174.6710  144.6770 O   0  0  0  0  0  0  0  0  0  0  0  0
  189.7160  174.5290  146.2720 C   0  0  0  0  0  2  0  0  0  0  0  0
  190.0780  175.6110  147.2670 C   0  0  0  0  0  2  0  0  0  0  0  0
  189.2630  176.8270  146.9980 C   0  0  0  0  0  3  0  0  0  0  0  0
  187.9510  176.7180  146.8050 C   0  0  0  0  0  3  0  0  0  0  0  0
  187.1090  177.9270  146.5140 C   0  0  2  0  0  3  0  0  0  0  0  0
  187.2600  179.2050  148.6700 O   0  0  0  0  0  1  0  0  0  0  0  0
  186.4980  178.4620  147.7760 C   0  0  0  0  0  0  0  0  0  0  0  0
  185.2950  178.2170  148.0320 O   0  0  0  0  0  0  0  0  0  0  0  0
  186.0820  177.6510  145.4060 C   0  0  2  0  0  3  0  0  0  0  0  0
  186.2240  176.2380  144.8700 C   0  0  0  0  0  1  0  0  0  0  0  0
  186.1390  178.6860  144.2820 C   0  0  0  0  0  2  0  0  0  0  0  0
  183.8830  178.7830  143.6250 O   0  0  0  0  0  0  0  0  0  0  0  0
  185.0230  178.4880  143.3080 C   0  0  0  0  0  3  0  0  0  0  0  0
  1  7  2  0  0  0  0
  1  2  1  0  0  0  0
  2  8  1  0  0  0  0
  3  4  1  0  0  0  0
  4  9  2  0  0  0  0
  5  3  2  0  0  0  0
  6  9  1  0  0  0  0
  7  5  1  0  0  0  0
  8  3  1  0  0  0  0
  8  6  2  0  0  0  0
  9 30  1  0  0  0  0
 10 11  1  0  0  0  0
 11 12  2  0  0  0  0
 11  1  1  0  0  0  0
 13 15  1  0  0  0  0
 14 13  1  0  0  0  0
 15 10  1  0  0  0  0
 16 13  2  0  0  0  0
 17  6  1  0  0  0  0
 18 22  1  6  0  0  0
 19 21  1  0  0  0  0
 19 18  1  0  0  0  0
 21 20  1  6  0  0  0
 21 18  1  0  0  0  0
 21 17  1  0  0  0  0
 23 22  1  0  0  0  0
 24 23  1  0  0  0  0
 25 24  1  0  0  0  0
 26 25  1  0  0  0  0
 27 26  1  0  0  0  0
 28 27  1  0  0  0  0
 29 27  1  0  0  0  0
 30 31  1  1  0  0  0
 30 34  1  0  0  0  0
 33 32  1  0  0  0  0
 33 31  1  0  0  0  0
 34 35  1  0  0  0  0
 36 35  1  0  0  0  0
 37 36  2  0  0  0  0
 38 37  1  1  0  0  0
 38 40  1  0  0  0  0
 40 41  2  0  0  0  0
 40 39  1  0  0  0  0
 42 43  1  6  0  0  0
 42 38  1  0  0  0  0
 44 42  1  0  0  0  0
 46 45  2  0  0  0  0
 46 44  1  0  0  0  0
M  END
>  <MODEL>
4

>  <REMARK>
 VINA RESULT:      -5.3      1.759      3.067
  Name = 
  21 active torsions:
  status: ('A' for Active; 'I' for Inactive)
    1  A    between atoms: C_1  and  C_33
    2  A    between atoms: C_1  and  C_41
    3  A    between atoms: N_2  and  C_4
    4  A    between atoms: C_4  and  N_38
    5  A    between atoms: C_6  and  N_28
    6  A    between atoms: N_8  and  N_16
    7  A    between atoms: C_9  and  C_34
    8  A    between atoms: N_10  and  N_19
    9  A    between atoms: N_10  and  N_38
   10  A    between atoms: C_11  and  C_27
   11  A    between atoms: C_12  and  C_20
   12  A    between atoms: C_12  and  C_21
   13  A    between atoms: C_15  and  C_20
   14  A    between atoms: C_15  and  C_40
   15  A    between atoms: C_15  and  C_42
   16  A    between atoms: N_19  and  N_28
   17  A    between atoms: C_24  and  C_25
   18  A    between atoms: C_24  and  C_27
   19  A    between atoms: C_25  and  C_26
   20  A    between atoms: C_25  and  C_46
   21  A    between atoms: C_26  and  O_45
                            x       y       z     vdW  Elec       q    Type
                         _______ _______ _______ _____ _____    ______ ____

>  <TORSDO>
F 21

$$$$
=
 OpenBabel11042414373D

 46 48  0  0  1  0  0  0  0  0999 V2000
  191.7640  175.5300  144.2180 C   0  0  0  0  0  0  0  0  0  0  0  0
  190.5300  175.1800  143.6330 C   0  0  0  0  0  3  0  0  0  0  0  0
  190.3010  177.4650  142.9010 C   0  0  0  0  0  0  0  0  0  0  0  0
  189.3740  178.3310  142.1180 C   0  0  0  0  0  3  0  0  0  0  0  0
  191.5000  177.8030  143.5140 C   0  0  0  0  0  3  0  0  0  0  0  0
  188.5480  176.1260  142.2950 C   0  0  0  0  0  0  0  0  0  0  0  0
  192.1970  176.8290  144.1670 N   0  0  0  0  0  0  0  0  0  0  0  0
  189.8200  176.1870  142.9810 C   0  0  1  0  0  3  0  0  0  0  0  0
  188.2790  177.3400  141.7970 C   0  0  0  0  0  0  0  0  0  0  0  0
  193.6530  174.8860  145.8180 N   0  0  0  0  0  2  0  0  0  0  0  0
  192.5820  174.5260  144.9360 C   0  0  0  0  0  0  0  0  0  0  0  0
  192.3260  173.3050  144.7650 O   0  0  0  0  0  0  0  0  0  0  0  0
  194.9260  176.9650  145.4470 C   0  0  0  0  0  0  0  0  0  0  0  0
  195.7260  176.3450  144.3570 C   0  0  0  0  0  1  0  0  0  0  0  0
  193.9430  176.2120  146.1550 N   0  0  0  0  0  2  0  0  0  0  0  0
  195.1200  178.1710  145.7490 O   0  0  0  0  0  0  0  0  0  0  0  0
  187.6230  174.9480  142.2770 C   0  0  0  0  0  2  0  0  0  0  0  0
  188.5510  172.5590  142.3620 C   0  0  2  0  0  3  0  0  0  0  0  0
  187.4310  172.6660  141.4980 O   0  0  0  0  0  0  0  0  0  0  0  0
  188.9510  174.0020  140.2040 C   0  0  0  0  0  1  0  0  0  0  0  0
  188.2820  173.7830  141.5520 C   0  0  1  0  0  0  0  0  0  0  0  0
  189.6140  171.7610  141.7560 N   0  0  0  0  0  2  0  0  0  0  0  0
  190.4470  171.2830  142.7760 N   0  0  0  0  0  2  0  0  0  0  0  0
  191.4450  170.5200  142.1540 N   0  0  0  0  0  2  0  0  0  0  0  0
  192.3740  171.4200  141.6100 N   0  0  0  0  0  2  0  0  0  0  0  0
  192.7670  170.8920  140.3030 C   0  0  0  0  0  2  0  0  0  0  0  0
  192.3250  171.7530  139.2020 N   0  0  0  0  0  0  0  0  0  0  0  0
  193.1500  171.4960  138.0290 C   0  0  0  0  0  1  0  0  0  0  0  0
  192.4980  173.1510  139.5640 C   0  0  0  0  0  1  0  0  0  0  0  0
  187.0810  177.6520  140.9610 C   0  0  1  0  0  3  0  0  0  0  0  0
  187.1030  176.8560  139.6610 C   0  0  0  0  0  2  0  0  0  0  0  0
  186.0990  176.3310  137.7700 C   0  0  0  0  0  1  0  0  0  0  0  0
  185.9210  177.0500  138.9480 O   0  0  0  0  0  0  0  0  0  0  0  0
  185.8210  177.3600  141.7580 C   0  0  0  0  0  2  0  0  0  0  0  0
  185.6430  178.3960  142.8480 C   0  0  0  0  0  2  0  0  0  0  0  0
  185.6510  177.7280  144.1780 C   0  0  0  0  0  3  0  0  0  0  0  0
  186.6610  177.9350  145.0190 C   0  0  0  0  0  3  0  0  0  0  0  0
  186.7020  177.2580  146.3580 C   0  0  2  0  0  3  0  0  0  0  0  0
  185.6930  179.4240  147.1290 O   0  0  0  0  0  0  0  0  0  0  0  0
  186.0260  178.1020  147.3990 C   0  0  0  0  0  0  0  0  0  0  0  0
  185.7810  177.6120  148.5270 O   0  0  0  0  0  1  0  0  0  0  0  0
  188.1310  176.8420  146.7410 C   0  0  2  0  0  3  0  0  0  0  0  0
  189.1470  177.8420  146.2230 C   0  0  0  0  0  1  0  0  0  0  0  0
  188.4660  175.4170  146.2970 C   0  0  0  0  0  2  0  0  0  0  0  0
  190.3490  174.9950  147.6410 O   0  0  0  0  0  0  0  0  0  0  0  0
  189.2040  174.6780  147.3650 C   0  0  0  0  0  3  0  0  0  0  0  0
  1 11  1  0  0  0  0
  2  1  2  0  0  0  0
  3  8  1  0  0  0  0
  3  5  1  0  0  0  0
  4  3  2  0  0  0  0
  5  7  2  0  0  0  0
  6  8  1  0  0  0  0
  7  1  1  0  0  0  0
  8  2  1  6  0  0  0
  9  4  1  0  0  0  0
  9  6  2  0  0  0  0
 10 15  1  0  0  0  0
 11 10  1  0  0  0  0
 12 11  2  0  0  0  0
 13 16  2  0  0  0  0
 13 15  1  0  0  0  0
 14 13  1  0  0  0  0
 17  6  1  0  0  0  0
 18 22  1  6  0  0  0
 19 21  1  0  0  0  0
 19 18  1  0  0  0  0
 21 20  1  6  0  0  0
 21 17  1  0  0  0  0
 21 18  1  0  0  0  0
 22 23  1  0  0  0  0
 24 23  1  0  0  0  0
 25 24  1  0  0  0  0
 26 25  1  0  0  0  0
 27 29  1  0  0  0  0
 27 26  1  0  0  0  0
 28 27  1  0  0  0  0
 30 31  1  6  0  0  0
 30 34  1  0  0  0  0
 30  9  1  0  0  0  0
 32 33  1  0  0  0  0
 33 31  1  0  0  0  0
 34 35  1  0  0  0  0
 35 36  1  0  0  0  0
 36 37  2  0  0  0  0
 38 37  1  6  0  0  0
 38 42  1  0  0  0  0
 38 40  1  0  0  0  0
 39 40  2  0  0  0  0
 40 41  1  0  0  0  0
 42 43  1  6  0  0  0
 44 42  1  0  0  0  0
 44 46  1  0  0  0  0
 46 45  2  0  0  0  0
M  END
>  <MODEL>
5

>  <REMARK>
 VINA RESULT:      -5.3      2.341      6.137
  Name = 
  21 active torsions:
  status: ('A' for Active; 'I' for Inactive)
    1  A    between atoms: C_1  and  C_33
    2  A    between atoms: C_1  and  C_41
    3  A    between atoms: N_2  and  C_4
    4  A    between atoms: C_4  and  N_38
    5  A    between atoms: C_6  and  N_28
    6  A    between atoms: N_8  and  N_16
    7  A    between atoms: C_9  and  C_34
    8  A    between atoms: N_10  and  N_19
    9  A    between atoms: N_10  and  N_38
   10  A    between atoms: C_11  and  C_27
   11  A    between atoms: C_12  and  C_20
   12  A    between atoms: C_12  and  C_21
   13  A    between atoms: C_15  and  C_20
   14  A    between atoms: C_15  and  C_40
   15  A    between atoms: C_15  and  C_42
   16  A    between atoms: N_19  and  N_28
   17  A    between atoms: C_24  and  C_25
   18  A    between atoms: C_24  and  C_27
   19  A    between atoms: C_25  and  C_26
   20  A    between atoms: C_25  and  C_46
   21  A    between atoms: C_26  and  O_45
                            x       y       z     vdW  Elec       q    Type
                         _______ _______ _______ _____ _____    ______ ____

>  <TORSDO>
F 21

$$$$
=
 OpenBabel11042414373D

 46 48  0  0  1  0  0  0  0  0999 V2000
  196.0970  172.0860  144.6310 C   0  0  0  0  0  0  0  0  0  0  0  0
  194.6990  172.2310  144.5080 C   0  0  0  0  0  3  0  0  0  0  0  0
  194.8840  174.3600  145.6240 C   0  0  0  0  0  0  0  0  0  0  0  0
  194.0350  175.5090  146.0510 C   0  0  0  0  0  2  0  0  0  0  0  0
  196.2540  174.1860  145.7720 C   0  0  0  0  0  3  0  0  0  0  0  0
  192.7410  173.8100  145.0420 C   0  0  0  0  0  0  0  0  0  0  0  0
  196.8250  173.0480  145.2810 N   0  0  0  0  0  0  0  0  0  0  0  0
  194.1260  173.3900  145.0260 C   0  0  0  0  0  0  0  0  0  0  0  0
  192.6730  175.0150  145.6220 C   0  0  0  0  0  0  0  0  0  0  0  0
  197.4880  170.8700  142.8630 N   0  0  0  0  0  2  0  0  0  0  0  0
  196.7890  170.8840  144.1150 C   0  0  0  0  0  0  0  0  0  0  0  0
  196.7640  169.8310  144.8030 O   0  0  0  0  0  0  0  0  0  0  0  0
  196.7780  172.3310  141.0090 C   0  0  0  0  0  0  0  0  0  0  0  0
  195.6640  171.4160  140.6410 C   0  0  0  0  0  1  0  0  0  0  0  0
  197.6630  172.0160  142.0810 N   0  0  0  0  0  2  0  0  0  0  0  0
  196.9410  173.3980  140.3630 O   0  0  0  0  0  0  0  0  0  0  0  0
  191.5730  172.9740  144.6200 C   0  0  0  0  0  2  0  0  0  0  0  0
  189.8990  172.7100  142.6950 C   0  0  2  0  0  3  0  0  0  0  0  0
  189.8880  174.0210  143.2360 O   0  0  0  0  0  0  0  0  0  0  0  0
  192.0940  174.0950  142.2910 C   0  0  0  0  0  1  0  0  0  0  0  0
  191.1320  173.3690  143.2170 C   0  0  1  0  0  0  0  0  0  0  0  0
  189.8760  172.7390  141.2350 N   0  0  0  0  0  2  0  0  0  0  0  0
  188.5420  172.6920  140.8100 N   0  0  0  0  0  2  0  0  0  0  0  0
  188.4720  173.4340  139.6230 N   0  0  0  0  0  2  0  0  0  0  0  0
  189.4240  172.8950  138.7430 N   0  0  0  0  0  2  0  0  0  0  0  0
  189.5520  173.8310  137.6260 C   0  0  0  0  0  2  0  0  0  0  0  0
  190.9530  174.1200  137.3030 N   0  0  0  0  0  0  0  0  0  0  0  0
  191.3050  173.4550  136.0540 C   0  0  0  0  0  1  0  0  0  0  0  0
  191.8210  173.5910  138.3430 C   0  0  0  0  0  1  0  0  0  0  0  0
  191.4120  175.8060  145.7570 C   0  0  1  0  0  3  0  0  0  0  0  0
  191.2580  176.3470  147.1740 C   0  0  0  0  0  2  0  0  0  0  0  0
  189.5290  175.0080  147.4530 C   0  0  0  0  0  1  0  0  0  0  0  0
  190.7490  175.3620  148.0200 O   0  0  0  0  0  0  0  0  0  0  0  0
  191.4150  176.9340  144.7390 C   0  0  0  0  0  2  0  0  0  0  0  0
  190.2220  177.8390  144.9620 C   0  0  0  0  0  2  0  0  0  0  0  0
  188.9670  177.0810  144.7080 C   0  0  0  0  0  3  0  0  0  0  0  0
  187.8140  177.7310  144.5740 C   0  0  0  0  0  3  0  0  0  0  0  0
  186.5310  176.9870  144.3360 C   0  0  2  0  0  3  0  0  0  0  0  0
  186.8560  175.3580  142.4530 O   0  0  0  0  0  1  0  0  0  0  0  0
  186.4060  176.5970  142.8920 C   0  0  0  0  0  0  0  0  0  0  0  0
  185.9100  177.4080  142.0740 O   0  0  0  0  0  0  0  0  0  0  0  0
  185.3170  177.7640  144.8680 C   0  0  2  0  0  3  0  0  0  0  0  0
  185.5870  179.2570  144.8790 C   0  0  0  0  0  1  0  0  0  0  0  0
  184.8560  177.2650  146.2390 C   0  0  0  0  0  2  0  0  0  0  0  0
  186.4880  177.5160  147.9140 O   0  0  0  0  0  0  0  0  0  0  0  0
  185.5340  178.0140  147.3400 C   0  0  0  0  0  3  0  0  0  0  0  0
  1  7  1  0  0  0  0
  2  1  2  0  0  0  0
  2  8  1  0  0  0  0
  3  5  1  0  0  0  0
  3  4  1  0  0  0  0
  6  9  2  0  0  0  0
  7  5  2  0  0  0  0
  8  6  1  0  0  0  0
  8  3  2  0  0  0  0
  9 30  1  0  0  0  0
  9  4  1  0  0  0  0
 10 11  1  0  0  0  0
 11  1  1  0  0  0  0
 11 12  2  0  0  0  0
 13 15  1  0  0  0  0
 14 13  1  0  0  0  0
 15 10  1  0  0  0  0
 16 13  2  0  0  0  0
 17  6  1  0  0  0  0
 18 22  1  6  0  0  0
 18 21  1  0  0  0  0
 18 19  1  0  0  0  0
 21 20  1  6  0  0  0
 21 19  1  0  0  0  0
 21 17  1  0  0  0  0
 23 22  1  0  0  0  0
 24 23  1  0  0  0  0
 25 24  1  0  0  0  0
 26 25  1  0  0  0  0
 27 26  1  0  0  0  0
 27 29  1  0  0  0  0
 28 27  1  0  0  0  0
 30 34  1  6  0  0  0
 30 31  1  0  0  0  0
 31 33  1  0  0  0  0
 32 33  1  0  0  0  0
 34 35  1  0  0  0  0
 36 35  1  0  0  0  0
 37 36  2  0  0  0  0
 38 37  1  6  0  0  0
 38 42  1  0  0  0  0
 39 40  1  0  0  0  0
 40 38  1  0  0  0  0
 41 40  2  0  0  0  0
 42 43  1  1  0  0  0
 42 44  1  0  0  0  0
 44 46  1  0  0  0  0
 46 45  2  0  0  0  0
M  END
>  <MODEL>
6

>  <REMARK>
 VINA RESULT:      -5.2      2.769      6.876
  Name = 
  21 active torsions:
  status: ('A' for Active; 'I' for Inactive)
    1  A    between atoms: C_1  and  C_33
    2  A    between atoms: C_1  and  C_41
    3  A    between atoms: N_2  and  C_4
    4  A    between atoms: C_4  and  N_38
    5  A    between atoms: C_6  and  N_28
    6  A    between atoms: N_8  and  N_16
    7  A    between atoms: C_9  and  C_34
    8  A    between atoms: N_10  and  N_19
    9  A    between atoms: N_10  and  N_38
   10  A    between atoms: C_11  and  C_27
   11  A    between atoms: C_12  and  C_20
   12  A    between atoms: C_12  and  C_21
   13  A    between atoms: C_15  and  C_20
   14  A    between atoms: C_15  and  C_40
   15  A    between atoms: C_15  and  C_42
   16  A    between atoms: N_19  and  N_28
   17  A    between atoms: C_24  and  C_25
   18  A    between atoms: C_24  and  C_27
   19  A    between atoms: C_25  and  C_26
   20  A    between atoms: C_25  and  C_46
   21  A    between atoms: C_26  and  O_45
                            x       y       z     vdW  Elec       q    Type
                         _______ _______ _______ _____ _____    ______ ____

>  <TORSDO>
F 21

$$$$
=
 OpenBabel11042414373D

 46 48  0  0  1  0  0  0  0  0999 V2000
  187.4140  177.2130  140.7980 C   0  0  0  0  0  0  0  0  0  0  0  0
  187.6650  175.9520  141.3780 C   0  0  0  0  0  2  0  0  0  0  0  0
  189.3470  176.9890  142.7570 C   0  0  0  0  0  0  0  0  0  0  0  0
  190.3080  176.6490  143.8450 C   0  0  0  0  0  3  0  0  0  0  0  0
  189.1160  178.2170  142.1510 C   0  0  0  0  0  3  0  0  0  0  0  0
  189.1170  174.7430  143.1230 C   0  0  0  0  0  0  0  0  0  0  0  0
  188.1620  178.2970  141.1790 N   0  0  0  0  0  0  0  0  0  0  0  0
  188.6510  175.8810  142.3590 C   0  0  0  0  0  0  0  0  0  0  0  0
  190.0610  175.1640  143.9730 C   0  0  0  0  0  0  0  0  0  0  0  0
  185.0530  177.8200  140.0240 N   0  0  0  0  0  0  0  0  0  0  0  0
  186.3890  177.3800  139.7440 C   0  0  0  0  0  0  0  0  0  0  0  0
  186.7010  177.1250  138.5520 O   0  0  0  0  0  0  0  0  0  0  0  0
  183.2630  178.3230  141.6430 C   0  0  0  0  0  0  0  0  0  0  0  0
  182.2020  178.0450  140.6390 C   0  0  0  0  0  1  0  0  0  0  0  0
  184.6430  178.2300  141.2970 N   0  0  0  0  0  0  0  0  0  0  0  0
  182.9380  178.6460  142.8150 O   0  0  0  0  0  0  0  0  0  0  0  0
  188.7190  173.3180  142.8910 C   0  0  0  0  0  2  0  0  0  0  0  0
  189.1290  172.6100  140.4610 C   0  0  2  0  0  3  0  0  0  0  0  0
  190.0380  173.6140  140.8850 O   0  0  0  0  0  0  0  0  0  0  0  0
  190.8330  171.8520  142.3110 C   0  0  0  0  0  1  0  0  0  0  0  0
  189.6420  172.6830  141.8610 C   0  0  1  0  0  0  0  0  0  0  0  0
  189.8130  171.5580  139.7140 N   0  0  0  0  0  2  0  0  0  0  0  0
  189.7920  171.8930  138.3540 N   0  0  0  0  0  2  0  0  0  0  0  0
  191.1190  172.1510  137.9830 N   0  0  0  0  0  2  0  0  0  0  0  0
  191.9390  171.3740  138.8160 N   0  0  0  0  0  2  0  0  0  0  0  0
  193.1540  172.1500  139.0640 C   0  0  0  0  0  2  0  0  0  0  0  0
  194.3700  171.3530  138.8680 N   0  0  0  0  0  0  0  0  0  0  0  0
  195.0790  171.8390  137.6910 C   0  0  0  0  0  1  0  0  0  0  0  0
  194.0180  169.9620  138.6280 C   0  0  0  0  0  1  0  0  0  0  0  0
  190.7300  174.2850  144.9790 C   0  0  1  0  0  3  0  0  0  0  0  0
  191.9010  175.0040  145.6380 C   0  0  0  0  0  2  0  0  0  0  0  0
  193.8550  175.7240  144.9150 C   0  0  0  0  0  1  0  0  0  0  0  0
  193.1100  174.5630  145.1010 O   0  0  0  0  0  0  0  0  0  0  0  0
  189.7100  173.8400  146.0150 C   0  0  0  0  0  2  0  0  0  0  0  0
  189.6480  174.8440  147.1470 C   0  0  0  0  0  2  0  0  0  0  0  0
  188.4570  175.7190  146.9710 C   0  0  0  0  0  3  0  0  0  0  0  0
  188.6170  177.0160  146.7190 C   0  0  0  0  0  3  0  0  0  0  0  0
  187.4310  177.9230  146.5570 C   0  0  2  0  0  3  0  0  0  0  0  0
  185.9360  177.1540  148.4210 O   0  0  0  0  0  0  0  0  0  0  0  0
  186.7470  178.1410  147.8750 C   0  0  0  0  0  0  0  0  0  0  0  0
  186.8930  179.2330  148.4740 O   0  0  0  0  0  1  0  0  0  0  0  0
  186.4870  177.4310  145.4500 C   0  0  2  0  0  3  0  0  0  0  0  0
  186.3950  178.4410  144.3220 C   0  0  0  0  0  1  0  0  0  0  0  0
  185.1020  177.0570  145.9840 C   0  0  0  0  0  2  0  0  0  0  0  0
  183.9600  179.0440  146.5130 O   0  0  0  0  0  0  0  0  0  0  0  0
  184.1080  178.1390  145.7090 C   0  0  0  0  0  3  0  0  0  0  0  0
  1  7  2  0  0  0  0
  1  2  1  0  0  0  0
  2  8  1  0  0  0  0
  3  4  1  0  0  0  0
  4  9  2  0  0  0  0
  5  3  2  0  0  0  0
  6  9  1  0  0  0  0
  7  5  1  0  0  0  0
  8  3  1  0  0  0  0
  8  6  2  0  0  0  0
  9 30  1  0  0  0  0
 10 15  2  0  0  0  0
 11 10  1  0  0  0  0
 11  1  1  0  0  0  0
 12 11  2  0  0  0  0
 13 16  2  0  0  0  0
 14 13  1  0  0  0  0
 15 13  1  0  0  0  0
 17  6  1  0  0  0  0
 18 22  1  6  0  0  0
 18 19  1  0  0  0  0
 18 21  1  0  0  0  0
 19 21  1  0  0  0  0
 21 20  1  1  0  0  0
 21 17  1  0  0  0  0
 23 22  1  0  0  0  0
 24 23  1  0  0  0  0
 24 25  1  0  0  0  0
 25 26  1  0  0  0  0
 27 26  1  0  0  0  0
 28 27  1  0  0  0  0
 29 27  1  0  0  0  0
 30 31  1  1  0  0  0
 30 34  1  0  0  0  0
 32 33  1  0  0  0  0
 33 31  1  0  0  0  0
 34 35  1  0  0  0  0
 36 35  1  0  0  0  0
 37 36  2  0  0  0  0
 38 37  1  1  0  0  0
 38 40  1  0  0  0  0
 40 39  2  0  0  0  0
 40 41  1  0  0  0  0
 42 43  1  6  0  0  0
 42 44  1  0  0  0  0
 42 38  1  0  0  0  0
 46 44  1  0  0  0  0
 46 45  2  0  0  0  0
M  END
>  <MODEL>
7

>  <REMARK>
 VINA RESULT:      -5.1      2.319      3.556
  Name = 
  21 active torsions:
  status: ('A' for Active; 'I' for Inactive)
    1  A    between atoms: C_1  and  C_33
    2  A    between atoms: C_1  and  C_41
    3  A    between atoms: N_2  and  C_4
    4  A    between atoms: C_4  and  N_38
    5  A    between atoms: C_6  and  N_28
    6  A    between atoms: N_8  and  N_16
    7  A    between atoms: C_9  and  C_34
    8  A    between atoms: N_10  and  N_19
    9  A    between atoms: N_10  and  N_38
   10  A    between atoms: C_11  and  C_27
   11  A    between atoms: C_12  and  C_20
   12  A    between atoms: C_12  and  C_21
   13  A    between atoms: C_15  and  C_20
   14  A    between atoms: C_15  and  C_40
   15  A    between atoms: C_15  and  C_42
   16  A    between atoms: N_19  and  N_28
   17  A    between atoms: C_24  and  C_25
   18  A    between atoms: C_24  and  C_27
   19  A    between atoms: C_25  and  C_26
   20  A    between atoms: C_25  and  C_46
   21  A    between atoms: C_26  and  O_45
                            x       y       z     vdW  Elec       q    Type
                         _______ _______ _______ _____ _____    ______ ____

>  <TORSDO>
F 21

$$$$
=
 OpenBabel11042414373D

 46 48  0  0  1  0  0  0  0  0999 V2000
  188.5480  176.2760  142.8250 C   0  0  0  0  0  0  0  0  0  0  0  0
  189.5300  175.3260  143.1750 C   0  0  0  0  0  2  0  0  0  0  0  0
  191.1710  177.0900  143.1090 C   0  0  0  0  0  0  0  0  0  0  0  0
  192.6260  177.3130  143.3480 C   0  0  0  0  0  3  0  0  0  0  0  0
  190.2000  178.0070  142.7280 C   0  0  0  0  0  3  0  0  0  0  0  0
  192.0410  175.0450  143.6500 C   0  0  0  0  0  0  0  0  0  0  0  0
  188.9140  177.5750  142.5850 N   0  0  0  0  0  0  0  0  0  0  0  0
  190.8420  175.7760  143.3030 C   0  0  0  0  0  0  0  0  0  0  0  0
  193.0660  175.9060  143.6800 C   0  0  0  0  0  0  0  0  0  0  0  0
  186.0480  176.8170  142.7930 N   0  0  0  0  0  2  0  0  0  0  0  0
  187.1300  175.8850  142.6610 C   0  0  0  0  0  0  0  0  0  0  0  0
  186.8610  174.6850  142.3940 O   0  0  0  0  0  0  0  0  0  0  0  0
  185.5010  178.9280  143.9430 C   0  0  0  0  0  0  0  0  0  0  0  0
  184.4300  178.2790  144.7440 C   0  0  0  0  0  1  0  0  0  0  0  0
  186.2500  178.1880  142.9810 N   0  0  0  0  0  2  0  0  0  0  0  0
  185.7490  180.1500  144.1160 O   0  0  0  0  0  0  0  0  0  0  0  0
  192.1420  173.5580  143.7990 C   0  0  0  0  0  2  0  0  0  0  0  0
  191.3060  172.3590  141.6920 C   0  0  2  0  0  3  0  0  0  0  0  0
  191.8600  173.6320  141.3970 O   0  0  0  0  0  0  0  0  0  0  0  0
  193.8930  172.5620  142.0980 C   0  0  0  0  0  1  0  0  0  0  0  0
  192.4600  172.9230  142.4530 C   0  0  1  0  0  0  0  0  0  0  0  0
  191.7590  171.3510  140.7370 N   0  0  0  0  0  2  0  0  0  0  0  0
  190.6350  170.7180  140.1920 N   0  0  0  0  0  2  0  0  0  0  0  0
  190.7100  170.8910  138.8030 N   0  0  0  0  0  2  0  0  0  0  0  0
  190.3310  172.2140  138.5310 N   0  0  0  0  0  2  0  0  0  0  0  0
  188.8850  172.2960  138.7360 C   0  0  0  0  0  2  0  0  0  0  0  0
  188.3100  173.5130  138.1540 N   0  0  0  0  0  0  0  0  0  0  0  0
  189.2010  174.0170  137.1160 C   0  0  0  0  0  1  0  0  0  0  0  0
  188.1950  174.5440  139.1730 C   0  0  0  0  0  1  0  0  0  0  0  0
  194.4590  175.5310  144.0710 C   0  0  1  0  0  3  0  0  0  0  0  0
  195.4480  175.8840  142.9660 C   0  0  0  0  0  2  0  0  0  0  0  0
  196.0180  175.4440  140.8830 C   0  0  0  0  0  1  0  0  0  0  0  0
  194.9110  175.5810  141.7150 O   0  0  0  0  0  0  0  0  0  0  0  0
  194.8210  176.2310  145.3710 C   0  0  0  0  0  2  0  0  0  0  0  0
  194.0350  175.6330  146.5200 C   0  0  0  0  0  2  0  0  0  0  0  0
  192.8620  176.4970  146.8240 C   0  0  0  0  0  3  0  0  0  0  0  0
  191.6460  175.9630  146.9060 C   0  0  0  0  0  3  0  0  0  0  0  0
  190.4450  176.8160  147.1930 C   0  0  2  0  0  3  0  0  0  0  0  0
  191.5700  177.2420  149.3970 O   0  0  0  0  0  1  0  0  0  0  0  0
  190.6700  177.6510  148.4200 C   0  0  0  0  0  0  0  0  0  0  0  0
  190.0220  178.7140  148.5720 O   0  0  0  0  0  0  0  0  0  0  0  0
  189.1560  175.9830  147.2470 C   0  0  2  0  0  3  0  0  0  0  0  0
  189.4220  174.5410  146.8590 C   0  0  0  0  0  1  0  0  0  0  0  0
  188.0280  176.5910  146.4110 C   0  0  0  0  0  2  0  0  0  0  0  0
  185.9670  177.0200  147.4600 O   0  0  0  0  0  0  0  0  0  0  0  0
  187.1070  177.4050  147.2600 C   0  0  0  0  0  3  0  0  0  0  0  0
  1  2  1  0  0  0  0
  2  8  1  0  0  0  0
  3  8  1  0  0  0  0
  3  4  1  0  0  0  0
  4  9  2  0  0  0  0
  5  3  2  0  0  0  0
  6  9  1  0  0  0  0
  6 17  1  0  0  0  0
  7  5  1  0  0  0  0
  7  1  2  0  0  0  0
  8  6  2  0  0  0  0
  9 30  1  0  0  0  0
 10 15  1  0  0  0  0
 11 10  1  0  0  0  0
 11  1  1  0  0  0  0
 12 11  2  0  0  0  0
 13 16  2  0  0  0  0
 13 14  1  0  0  0  0
 15 13  1  0  0  0  0
 18 22  1  6  0  0  0
 18 21  1  0  0  0  0
 19 18  1  0  0  0  0
 19 21  1  0  0  0  0
 21 20  1  6  0  0  0
 21 17  1  0  0  0  0
 23 22  1  0  0  0  0
 24 23  1  0  0  0  0
 25 26  1  0  0  0  0
 25 24  1  0  0  0  0
 27 26  1  0  0  0  0
 27 29  1  0  0  0  0
 28 27  1  0  0  0  0
 30 31  1  6  0  0  0
 30 34  1  0  0  0  0
 32 33  1  0  0  0  0
 33 31  1  0  0  0  0
 34 35  1  0  0  0  0
 35 36  1  0  0  0  0
 36 37  2  0  0  0  0
 38 37  1  1  0  0  0
 38 42  1  0  0  0  0
 38 40  1  0  0  0  0
 40 41  2  0  0  0  0
 40 39  1  0  0  0  0
 42 43  1  6  0  0  0
 44 42  1  0  0  0  0
 44 46  1  0  0  0  0
 46 45  2  0  0  0  0
M  END
>  <MODEL>
8

>  <REMARK>
 VINA RESULT:      -5.0      2.402      5.089
  Name = 
  21 active torsions:
  status: ('A' for Active; 'I' for Inactive)
    1  A    between atoms: C_1  and  C_33
    2  A    between atoms: C_1  and  C_41
    3  A    between atoms: N_2  and  C_4
    4  A    between atoms: C_4  and  N_38
    5  A    between atoms: C_6  and  N_28
    6  A    between atoms: N_8  and  N_16
    7  A    between atoms: C_9  and  C_34
    8  A    between atoms: N_10  and  N_19
    9  A    between atoms: N_10  and  N_38
   10  A    between atoms: C_11  and  C_27
   11  A    between atoms: C_12  and  C_20
   12  A    between atoms: C_12  and  C_21
   13  A    between atoms: C_15  and  C_20
   14  A    between atoms: C_15  and  C_40
   15  A    between atoms: C_15  and  C_42
   16  A    between atoms: N_19  and  N_28
   17  A    between atoms: C_24  and  C_25
   18  A    between atoms: C_24  and  C_27
   19  A    between atoms: C_25  and  C_26
   20  A    between atoms: C_25  and  C_46
   21  A    between atoms: C_26  and  O_45
                            x       y       z     vdW  Elec       q    Type
                         _______ _______ _______ _____ _____    ______ ____

>  <TORSDO>
F 21

$$$$
=
 OpenBabel11042414373D

 46 48  0  0  1  0  0  0  0  0999 V2000
  185.8120  178.1870  145.4450 C   0  0  0  0  0  0  0  0  0  0  0  0
  186.7970  177.7560  144.5330 C   0  0  0  0  0  3  0  0  0  0  0  0
  188.3060  177.4750  146.3920 C   0  0  0  0  0  0  0  0  0  0  0  0
  189.6920  177.0120  146.6840 C   0  0  0  0  0  2  0  0  0  0  0  0
  187.3370  177.9370  147.2740 C   0  0  0  0  0  3  0  0  0  0  0  0
  189.2290  176.9360  144.3700 C   0  0  0  0  0  0  0  0  0  0  0  0
  186.1180  178.2920  146.7770 N   0  0  0  0  0  0  0  0  0  0  0  0
  188.0440  177.4100  145.0510 C   0  0  0  0  0  0  0  0  0  0  0  0
  190.1780  176.7050  145.2860 C   0  0  0  0  0  0  0  0  0  0  0  0
  184.1450  178.7830  143.5990 N   0  0  0  0  0  2  0  0  0  0  0  0
  184.4620  178.5810  144.9830 C   0  0  0  0  0  0  0  0  0  0  0  0
  183.5540  178.7440  145.8380 O   0  0  0  0  0  0  0  0  0  0  0  0
  184.6210  178.2960  141.2290 C   0  0  0  0  0  0  0  0  0  0  0  0
  183.1740  178.2680  140.8870 C   0  0  0  0  0  1  0  0  0  0  0  0
  185.0540  178.5230  142.5690 N   0  0  0  0  0  2  0  0  0  0  0  0
  185.4750  178.1160  140.3230 O   0  0  0  0  0  0  0  0  0  0  0  0
  189.4100  176.8640  142.8850 C   0  0  0  0  0  2  0  0  0  0  0  0
  189.6830  174.6140  141.6870 C   0  0  2  0  0  3  0  0  0  0  0  0
  189.2400  174.4550  143.0250 O   0  0  0  0  0  0  0  0  0  0  0  0
  187.2630  175.5130  142.1660 C   0  0  0  0  0  1  0  0  0  0  0  0
  188.7700  175.5930  142.3460 C   0  0  1  0  0  0  0  0  0  0  0  0
  188.9410  173.7460  140.7760 N   0  0  0  0  0  2  0  0  0  0  0  0
  189.8460  173.1670  139.8770 N   0  0  0  0  0  2  0  0  0  0  0  0
  190.2480  171.9480  140.4400 N   0  0  0  0  0  2  0  0  0  0  0  0
  191.6470  171.8930  140.3470 N   0  0  0  0  0  2  0  0  0  0  0  0
  192.1600  171.7420  141.7090 C   0  0  0  0  0  2  0  0  0  0  0  0
  191.7630  170.4660  142.3130 N   0  0  0  0  0  0  0  0  0  0  0  0
  192.0430  170.5030  143.7430 C   0  0  0  0  0  1  0  0  0  0  0  0
  192.5440  169.3810  141.7390 C   0  0  0  0  0  1  0  0  0  0  0  0
  191.5230  176.1380  144.9700 C   0  0  1  0  0  3  0  0  0  0  0  0
  192.5840  177.2330  144.9480 C   0  0  0  0  0  2  0  0  0  0  0  0
  194.6290  177.3690  145.7580 C   0  0  0  0  0  1  0  0  0  0  0  0
  193.8570  176.6780  144.8290 O   0  0  0  0  0  0  0  0  0  0  0  0
  191.8680  175.0630  145.9870 C   0  0  0  0  0  2  0  0  0  0  0  0
  192.2480  173.7790  145.2800 C   0  0  0  0  0  2  0  0  0  0  0  0
  193.6010  173.3470  145.7250 C   0  0  0  0  0  3  0  0  0  0  0  0
  194.6280  173.4050  144.8810 C   0  0  0  0  0  3  0  0  0  0  0  0
  195.9980  172.9570  145.3000 C   0  0  2  0  0  3  0  0  0  0  0  0
  196.8620  175.0570  144.2280 O   0  0  0  0  0  0  0  0  0  0  0  0
  196.9730  174.0960  145.2260 C   0  0  0  0  0  0  0  0  0  0  0  0
  197.9070  174.1640  146.0600 O   0  0  0  0  0  1  0  0  0  0  0  0
  196.4510  171.7120  144.5220 C   0  0  2  0  0  3  0  0  0  0  0  0
  195.5190  171.4270  143.3600 C   0  0  0  0  0  1  0  0  0  0  0  0
  196.6180  170.4870  145.4230 C   0  0  0  0  0  2  0  0  0  0  0  0
  194.5880  170.0030  146.5070 O   0  0  0  0  0  0  0  0  0  0  0  0
  195.3290  169.7470  145.5720 C   0  0  0  0  0  3  0  0  0  0  0  0
  1  7  1  0  0  0  0
  2  8  1  0  0  0  0
  2  1  2  0  0  0  0
  3  4  1  0  0  0  0
  3  5  1  0  0  0  0
  6  8  1  0  0  0  0
  6  9  2  0  0  0  0
  7  5  2  0  0  0  0
  8  3  2  0  0  0  0
  9  4  1  0  0  0  0
 10 11  1  0  0  0  0
 11  1  1  0  0  0  0
 11 12  2  0  0  0  0
 13 15  1  0  0  0  0
 14 13  1  0  0  0  0
 15 10  1  0  0  0  0
 16 13  2  0  0  0  0
 17  6  1  0  0  0  0
 18 22  1  6  0  0  0
 18 21  1  0  0  0  0
 18 19  1  0  0  0  0
 21 20  1  6  0  0  0
 21 17  1  0  0  0  0
 21 19  1  0  0  0  0
 23 24  1  0  0  0  0
 23 22  1  0  0  0  0
 25 24  1  0  0  0  0
 25 26  1  0  0  0  0
 26 27  1  0  0  0  0
 27 28  1  0  0  0  0
 29 27  1  0  0  0  0
 30 31  1  1  0  0  0
 30  9  1  0  0  0  0
 30 34  1  0  0  0  0
 33 31  1  0  0  0  0
 33 32  1  0  0  0  0
 35 36  1  0  0  0  0
 35 34  1  0  0  0  0
 37 36  2  0  0  0  0
 38 37  1  6  0  0  0
 39 40  2  0  0  0  0
 40 38  1  0  0  0  0
 40 41  1  0  0  0  0
 42 43  1  6  0  0  0
 42 38  1  0  0  0  0
 42 44  1  0  0  0  0
 44 46  1  0  0  0  0
 46 45  2  0  0  0  0
M  END
>  <MODEL>
9

>  <REMARK>
 VINA RESULT:      -5.0      2.721      6.961
  Name = 
  21 active torsions:
  status: ('A' for Active; 'I' for Inactive)
    1  A    between atoms: C_1  and  C_33
    2  A    between atoms: C_1  and  C_41
    3  A    between atoms: N_2  and  C_4
    4  A    between atoms: C_4  and  N_38
    5  A    between atoms: C_6  and  N_28
    6  A    between atoms: N_8  and  N_16
    7  A    between atoms: C_9  and  C_34
    8  A    between atoms: N_10  and  N_19
    9  A    between atoms: N_10  and  N_38
   10  A    between atoms: C_11  and  C_27
   11  A    between atoms: C_12  and  C_20
   12  A    between atoms: C_12  and  C_21
   13  A    between atoms: C_15  and  C_20
   14  A    between atoms: C_15  and  C_40
   15  A    between atoms: C_15  and  C_42
   16  A    between atoms: N_19  and  N_28
   17  A    between atoms: C_24  and  C_25
   18  A    between atoms: C_24  and  C_27
   19  A    between atoms: C_25  and  C_26
   20  A    between atoms: C_25  and  C_46
   21  A    between atoms: C_26  and  O_45
                            x       y       z     vdW  Elec       q    Type
                         _______ _______ _______ _____ _____    ______ ____

>  <TORSDO>
F 21

$$$$
