=
 OpenBabel11042417213D

 26 27  0  0  1  0  0  0  0  0999 V2000
  185.3970  177.9490  141.2330 C   0  0  0  0  0  0  0  0  0  0  0  0
  186.6470  177.6700  140.8320 C   0  0  0  0  0  3  0  0  0  0  0  0
  190.2310  173.8730  144.0560 C   0  0  0  0  0  3  0  0  0  0  0  0
  189.1280  174.2590  143.2890 C   0  0  0  0  0  3  0  0  0  0  0  0
  191.2080  174.8170  144.4060 C   0  0  0  0  0  0  0  0  0  0  0  0
  192.3850  174.3980  145.2110 C   0  0  0  0  0  1  0  0  0  0  0  0
  189.0030  175.5870  142.8610 C   0  0  0  0  0  0  0  0  0  0  0  0
  187.8000  177.2450  141.6500 C   0  0  0  0  0  0  0  0  0  0  0  0
  189.9980  176.5290  143.1960 C   0  0  0  0  0  0  0  0  0  0  0  0
  189.8660  177.8470  142.7560 C   0  0  0  0  0  3  0  0  0  0  0  0
  187.9380  175.9680  142.1070 N   0  0  0  0  0  0  0  0  0  0  0  0
  188.7630  178.2060  141.9760 C   0  0  0  0  0  3  0  0  0  0  0  0
  191.0940  176.1440  143.9730 C   0  0  0  0  0  3  0  0  0  0  0  0
  184.4260  178.3980  140.2800 N   0  0  0  0  0  2  0  0  0  0  0  0
  181.8980  178.1270  140.5990 N   0  0  0  0  0  0  0  0  0  0  0  0
  183.0400  178.2510  140.4520 C   0  0  0  0  0  0  0  0  0  0  0  0
  184.8710  177.8150  142.9490 S   0  0  0  0  0  0  0  0  0  0  0  0
  185.5080  179.4620  143.4100 C   0  0  0  0  0  2  0  0  0  0  0  0
  185.9900  179.4760  144.7820 N   0  0  0  0  0  2  0  0  0  0  0  0
  185.9540  178.1160  145.2780 C   0  0  0  0  0  2  0  0  0  0  0  0
  187.3640  177.6300  145.5030 C   0  0  0  0  0  2  0  0  0  0  0  0
  186.4030  176.6470  147.5640 C   0  0  0  0  0  1  0  0  0  0  0  0
  187.3420  176.4110  146.3990 C   0  0  2  0  0  3  0  0  0  0  0  0
  189.0600  174.8050  147.2680 O   0  0  0  0  0  1  0  0  0  0  0  0
  189.5590  177.0280  146.9850 O   0  0  0  0  0  0  0  0  0  0  0  0
  188.7130  176.1010  146.8920 C   0  0  0  0  0  0  0  0  0  0  0  0
  1 17  1  0  0  0  0
  2  1  2  0  0  0  0
  2  8  1  0  0  0  0
  3  5  1  0  0  0  0
  4  3  2  0  0  0  0
  5  6  1  0  0  0  0
  7  9  1  0  0  0  0
  7  4  1  0  0  0  0
  8 12  2  0  0  0  0
  8 11  1  0  0  0  0
  9 13  1  0  0  0  0
 10  9  2  0  0  0  0
 11  7  2  0  0  0  0
 12 10  1  0  0  0  0
 13  5  2  0  0  0  0
 14 16  1  0  0  0  0
 14  1  1  0  0  0  0
 16 15  3  0  0  0  0
 17 18  1  0  0  0  0
 18 19  1  0  0  0  0
 19 20  1  0  0  0  0
 20 21  1  0  0  0  0
 21 23  1  0  0  0  0
 23 26  1  0  0  0  0
 23 22  1  1  0  0  0
 26 25  2  0  0  0  0
 26 24  1  0  0  0  0
M  END
>  <MODEL>
1

>  <REMARK>
 VINA RESULT:      -6.0      0.000      0.000
  Name = 
  10 active torsions:
  status: ('A' for Active; 'I' for Inactive)
    1  A    between atoms: N_5  and  C_7
    2  A    between atoms: N_5  and  C_14
    3  A    between atoms: C_7  and  S_20
    4  A    between atoms: N_8  and  C_9
    5  A    between atoms: N_8  and  C_25
    6  A    between atoms: C_9  and  S_20
    7  A    between atoms: C_12  and  C_13
    8  A    between atoms: C_22  and  C_26
    9  A    between atoms: C_24  and  C_25
   10  A    between atoms: C_24  and  C_26
                            x       y       z     vdW  Elec       q    Type
                         _______ _______ _______ _____ _____    ______ ____

>  <TORSDO>
F 10

$$$$
=
 OpenBabel11042417213D

 26 27  0  0  1  0  0  0  0  0999 V2000
  186.4780  177.8260  141.4140 C   0  0  0  0  0  0  0  0  0  0  0  0
  187.4160  176.9180  141.1000 C   0  0  0  0  0  3  0  0  0  0  0  0
  192.5410  176.7910  144.4710 C   0  0  0  0  0  3  0  0  0  0  0  0
  191.5580  177.3460  143.6470 C   0  0  0  0  0  3  0  0  0  0  0  0
  192.4720  175.4380  144.8360 C   0  0  0  0  0  0  0  0  0  0  0  0
  193.5140  174.8580  145.7230 C   0  0  0  0  0  1  0  0  0  0  0  0
  190.4960  176.5520  143.1940 C   0  0  0  0  0  0  0  0  0  0  0  0
  188.4680  176.3500  141.9640 C   0  0  0  0  0  0  0  0  0  0  0  0
  190.4170  175.1970  143.5790 C   0  0  0  0  0  0  0  0  0  0  0  0
  189.3490  174.4210  143.1280 C   0  0  0  0  0  3  0  0  0  0  0  0
  189.5310  177.0860  142.4000 N   0  0  0  0  0  0  0  0  0  0  0  0
  188.3690  175.0000  142.3190 C   0  0  0  0  0  3  0  0  0  0  0  0
  191.4080  174.6420  144.3930 C   0  0  0  0  0  3  0  0  0  0  0  0
  185.5700  178.2900  140.4070 N   0  0  0  0  0  2  0  0  0  0  0  0
  183.0220  178.2910  140.6800 N   0  0  0  0  0  0  0  0  0  0  0  0
  184.1740  178.2880  140.5570 C   0  0  0  0  0  0  0  0  0  0  0  0
  186.3160  178.5310  143.0620 S   0  0  0  0  0  0  0  0  0  0  0  0
  185.4540  177.0730  143.7440 C   0  0  0  0  0  2  0  0  0  0  0  0
  185.8880  176.7920  145.1020 N   0  0  0  0  0  2  0  0  0  0  0  0
  187.2720  177.2050  145.2200 C   0  0  0  0  0  2  0  0  0  0  0  0
  187.7260  177.0220  146.6470 C   0  0  0  0  0  2  0  0  0  0  0  0
  188.9430  174.9300  147.1730 C   0  0  0  0  0  1  0  0  0  0  0  0
  189.0810  176.3490  146.6630 C   0  0  2  0  0  3  0  0  0  0  0  0
  189.6960  178.3710  148.0110 O   0  0  0  0  0  1  0  0  0  0  0  0
  191.1650  176.6240  147.7680 O   0  0  0  0  0  0  0  0  0  0  0  0
  190.0340  177.1150  147.5140 C   0  0  0  0  0  0  0  0  0  0  0  0
  1 17  1  0  0  0  0
  2  1  2  0  0  0  0
  2  8  1  0  0  0  0
  3  5  1  0  0  0  0
  4  3  2  0  0  0  0
  5  6  1  0  0  0  0
  7  9  1  0  0  0  0
  7  4  1  0  0  0  0
  8 12  2  0  0  0  0
  8 11  1  0  0  0  0
  9 13  1  0  0  0  0
 10  9  2  0  0  0  0
 11  7  2  0  0  0  0
 12 10  1  0  0  0  0
 13  5  2  0  0  0  0
 14 16  1  0  0  0  0
 14  1  1  0  0  0  0
 16 15  3  0  0  0  0
 17 18  1  0  0  0  0
 18 19  1  0  0  0  0
 19 20  1  0  0  0  0
 20 21  1  0  0  0  0
 21 23  1  0  0  0  0
 23 22  1  1  0  0  0
 23 26  1  0  0  0  0
 26 25  2  0  0  0  0
 26 24  1  0  0  0  0
M  END
>  <MODEL>
2

>  <REMARK>
 VINA RESULT:      -5.7      1.448      2.224
  Name = 
  10 active torsions:
  status: ('A' for Active; 'I' for Inactive)
    1  A    between atoms: N_5  and  C_7
    2  A    between atoms: N_5  and  C_14
    3  A    between atoms: C_7  and  S_20
    4  A    between atoms: N_8  and  C_9
    5  A    between atoms: N_8  and  C_25
    6  A    between atoms: C_9  and  S_20
    7  A    between atoms: C_12  and  C_13
    8  A    between atoms: C_22  and  C_26
    9  A    between atoms: C_24  and  C_25
   10  A    between atoms: C_24  and  C_26
                            x       y       z     vdW  Elec       q    Type
                         _______ _______ _______ _____ _____    ______ ____

>  <TORSDO>
F 10

$$$$
=
 OpenBabel11042417213D

 26 27  0  0  1  0  0  0  0  0999 V2000
  194.0420  175.2620  145.0360 C   0  0  0  0  0  0  0  0  0  0  0  0
  193.3350  176.0560  145.8560 C   0  0  0  0  0  3  0  0  0  0  0  0
  187.4890  177.7550  145.0890 C   0  0  0  0  0  3  0  0  0  0  0  0
  188.8690  177.7550  144.8630 C   0  0  0  0  0  3  0  0  0  0  0  0
  186.9390  176.9210  146.0740 C   0  0  0  0  0  0  0  0  0  0  0  0
  185.4700  176.9150  146.3000 C   0  0  0  0  0  1  0  0  0  0  0  0
  189.7010  176.9140  145.6130 C   0  0  0  0  0  0  0  0  0  0  0  0
  191.8780  176.0760  146.0850 C   0  0  0  0  0  0  0  0  0  0  0  0
  189.1430  176.0610  146.5880 C   0  0  0  0  0  0  0  0  0  0  0  0
  189.9820  175.2220  147.3220 C   0  0  0  0  0  3  0  0  0  0  0  0
  191.0420  176.9020  145.3930 N   0  0  0  0  0  0  0  0  0  0  0  0
  191.3560  175.2270  147.0680 C   0  0  0  0  0  3  0  0  0  0  0  0
  187.7650  176.0710  146.8210 C   0  0  0  0  0  3  0  0  0  0  0  0
  195.4590  175.4370  144.9190 N   0  0  0  0  0  2  0  0  0  0  0  0
  196.5680  176.8380  143.0830 N   0  0  0  0  0  0  0  0  0  0  0  0
  196.0680  176.2060  143.9150 C   0  0  0  0  0  0  0  0  0  0  0  0
  193.2800  173.9790  144.0280 S   0  0  0  0  0  0  0  0  0  0  0  0
  192.7700  175.1340  142.7100 C   0  0  0  0  0  2  0  0  0  0  0  0
  191.3250  175.1460  142.5510 N   0  0  0  0  0  2  0  0  0  0  0  0
  190.7970  173.9660  143.2040 C   0  0  0  0  0  2  0  0  0  0  0  0
  189.2980  174.0890  143.3180 C   0  0  0  0  0  2  0  0  0  0  0  0
  187.4260  175.4340  142.4110 C   0  0  0  0  0  1  0  0  0  0  0  0
  188.7520  174.7780  142.0870 C   0  0  2  0  0  3  0  0  0  0  0  0
  189.1080  174.0720  139.7080 O   0  0  0  0  0  0  0  0  0  0  0  0
  187.9590  172.7330  141.1770 O   0  0  0  0  0  1  0  0  0  0  0  0
  188.5890  173.8030  140.9720 C   0  0  0  0  0  0  0  0  0  0  0  0
  1  2  2  0  0  0  0
  2  8  1  0  0  0  0
  3  5  1  0  0  0  0
  4  3  2  0  0  0  0
  4  7  1  0  0  0  0
  5  6  1  0  0  0  0
  5 13  2  0  0  0  0
  7  9  1  0  0  0  0
  8 12  2  0  0  0  0
  9 13  1  0  0  0  0
  9 10  2  0  0  0  0
 11  7  2  0  0  0  0
 11  8  1  0  0  0  0
 12 10  1  0  0  0  0
 14  1  1  0  0  0  0
 15 16  3  0  0  0  0
 16 14  1  0  0  0  0
 17  1  1  0  0  0  0
 18 17  1  0  0  0  0
 19 18  1  0  0  0  0
 19 20  1  0  0  0  0
 20 21  1  0  0  0  0
 23 22  1  1  0  0  0
 23 21  1  0  0  0  0
 24 26  2  0  0  0  0
 26 25  1  0  0  0  0
 26 23  1  0  0  0  0
M  END
>  <MODEL>
3

>  <REMARK>
 VINA RESULT:      -5.7      4.373      7.597
  Name = 
  10 active torsions:
  status: ('A' for Active; 'I' for Inactive)
    1  A    between atoms: N_5  and  C_7
    2  A    between atoms: N_5  and  C_14
    3  A    between atoms: C_7  and  S_20
    4  A    between atoms: N_8  and  C_9
    5  A    between atoms: N_8  and  C_25
    6  A    between atoms: C_9  and  S_20
    7  A    between atoms: C_12  and  C_13
    8  A    between atoms: C_22  and  C_26
    9  A    between atoms: C_24  and  C_25
   10  A    between atoms: C_24  and  C_26
                            x       y       z     vdW  Elec       q    Type
                         _______ _______ _______ _____ _____    ______ ____

>  <TORSDO>
F 10

$$$$
=
 OpenBabel11042417213D

 26 27  0  0  1  0  0  0  0  0999 V2000
  194.0200  175.9010  144.4180 C   0  0  0  0  0  0  0  0  0  0  0  0
  193.2770  176.8110  145.0690 C   0  0  0  0  0  3  0  0  0  0  0  0
  187.3710  176.3740  146.6760 C   0  0  0  0  0  3  0  0  0  0  0  0
  188.7480  176.1470  146.7630 C   0  0  0  0  0  3  0  0  0  0  0  0
  186.8510  177.1440  145.6250 C   0  0  0  0  0  0  0  0  0  0  0  0
  185.3880  177.3940  145.5450 C   0  0  0  0  0  1  0  0  0  0  0  0
  189.6100  176.6970  145.8050 C   0  0  0  0  0  0  0  0  0  0  0  0
  191.8200  177.0330  144.9900 C   0  0  0  0  0  0  0  0  0  0  0  0
  189.0870  177.4890  144.7620 C   0  0  0  0  0  0  0  0  0  0  0  0
  189.9570  178.0380  143.8200 C   0  0  0  0  0  3  0  0  0  0  0  0
  190.9500  176.4880  145.8880 N   0  0  0  0  0  0  0  0  0  0  0  0
  191.3310  177.8120  143.9360 C   0  0  0  0  0  3  0  0  0  0  0  0
  187.7090  177.7050  144.6700 C   0  0  0  0  0  3  0  0  0  0  0  0
  195.4410  175.8810  144.5970 N   0  0  0  0  0  2  0  0  0  0  0  0
  197.0990  176.8370  142.8940 N   0  0  0  0  0  0  0  0  0  0  0  0
  196.3510  176.4070  143.6660 C   0  0  0  0  0  0  0  0  0  0  0  0
  193.3120  174.6960  143.2840 S   0  0  0  0  0  0  0  0  0  0  0  0
  192.7640  173.5710  144.6130 C   0  0  0  0  0  2  0  0  0  0  0  0
  191.3460  173.2720  144.4980 N   0  0  0  0  0  2  0  0  0  0  0  0
  190.8550  173.9100  143.2940 C   0  0  0  0  0  2  0  0  0  0  0  0
  189.3520  174.0180  143.3670 C   0  0  0  0  0  2  0  0  0  0  0  0
  187.4160  175.1650  142.3300 C   0  0  0  0  0  1  0  0  0  0  0  0
  188.8310  174.6750  142.1070 C   0  0  2  0  0  3  0  0  0  0  0  0
  189.8570  173.8260  139.9820 O   0  0  0  0  0  0  0  0  0  0  0  0
  188.0010  172.8170  140.8810 O   0  0  0  0  0  1  0  0  0  0  0  0
  188.8750  173.7190  140.9640 C   0  0  0  0  0  0  0  0  0  0  0  0
  1 14  1  0  0  0  0
  1  2  2  0  0  0  0
  3  4  1  0  0  0  0
  5  3  2  0  0  0  0
  6  5  1  0  0  0  0
  7 11  1  0  0  0  0
  7  4  2  0  0  0  0
  8  2  1  0  0  0  0
  8 11  2  0  0  0  0
  9  7  1  0  0  0  0
 10 12  2  0  0  0  0
 10  9  1  0  0  0  0
 12  8  1  0  0  0  0
 13  9  2  0  0  0  0
 13  5  1  0  0  0  0
 15 16  3  0  0  0  0
 16 14  1  0  0  0  0
 17  1  1  0  0  0  0
 17 18  1  0  0  0  0
 19 18  1  0  0  0  0
 20 21  1  0  0  0  0
 20 19  1  0  0  0  0
 23 22  1  1  0  0  0
 23 21  1  0  0  0  0
 24 26  2  0  0  0  0
 25 26  1  0  0  0  0
 26 23  1  0  0  0  0
M  END
>  <MODEL>
4

>  <REMARK>
 VINA RESULT:      -5.6      4.478      7.470
  Name = 
  10 active torsions:
  status: ('A' for Active; 'I' for Inactive)
    1  A    between atoms: N_5  and  C_7
    2  A    between atoms: N_5  and  C_14
    3  A    between atoms: C_7  and  S_20
    4  A    between atoms: N_8  and  C_9
    5  A    between atoms: N_8  and  C_25
    6  A    between atoms: C_9  and  S_20
    7  A    between atoms: C_12  and  C_13
    8  A    between atoms: C_22  and  C_26
    9  A    between atoms: C_24  and  C_25
   10  A    between atoms: C_24  and  C_26
                            x       y       z     vdW  Elec       q    Type
                         _______ _______ _______ _____ _____    ______ ____

>  <TORSDO>
F 10

$$$$
=
 OpenBabel11042417213D

 26 27  0  0  1  0  0  0  0  0999 V2000
  194.3370  175.3970  143.5530 C   0  0  0  0  0  0  0  0  0  0  0  0
  193.5450  176.1810  142.8040 C   0  0  0  0  0  3  0  0  0  0  0  0
  187.4630  175.4420  142.4650 C   0  0  0  0  0  3  0  0  0  0  0  0
  188.8100  175.1270  142.2630 C   0  0  0  0  0  3  0  0  0  0  0  0
  187.1100  176.6330  143.1170 C   0  0  0  0  0  0  0  0  0  0  0  0
  185.6770  176.9560  143.3400 C   0  0  0  0  0  1  0  0  0  0  0  0
  189.8090  175.9950  142.7230 C   0  0  0  0  0  0  0  0  0  0  0  0
  192.1180  176.5000  142.9990 C   0  0  0  0  0  0  0  0  0  0  0  0
  189.4520  177.1810  143.3980 C   0  0  0  0  0  0  0  0  0  0  0  0
  190.4560  178.0330  143.8580 C   0  0  0  0  0  3  0  0  0  0  0  0
  191.1210  175.6910  142.5390 N   0  0  0  0  0  0  0  0  0  0  0  0
  191.7950  177.6900  143.6610 C   0  0  0  0  0  3  0  0  0  0  0  0
  188.1040  177.5010  143.5870 C   0  0  0  0  0  3  0  0  0  0  0  0
  195.6960  175.1730  143.1610 N   0  0  0  0  0  2  0  0  0  0  0  0
  197.5080  174.3000  144.7480 N   0  0  0  0  0  0  0  0  0  0  0  0
  196.6880  174.6920  144.0310 C   0  0  0  0  0  0  0  0  0  0  0  0
  193.7580  174.5690  145.0430 S   0  0  0  0  0  0  0  0  0  0  0  0
  194.0870  176.0010  146.1250 C   0  0  0  0  0  2  0  0  0  0  0  0
  192.8960  176.3880  146.8640 N   0  0  0  0  0  2  0  0  0  0  0  0
  191.8800  175.3840  146.6230 C   0  0  0  0  0  2  0  0  0  0  0  0
  190.8460  175.4490  147.7200 C   0  0  0  0  0  2  0  0  0  0  0  0
  189.6840  174.2840  145.8700 C   0  0  0  0  0  1  0  0  0  0  0  0
  189.4980  175.0390  147.1690 C   0  0  2  0  0  3  0  0  0  0  0  0
  189.1560  177.5200  147.0750 O   0  0  0  0  0  1  0  0  0  0  0  0
  187.4170  176.0740  146.6840 O   0  0  0  0  0  0  0  0  0  0  0  0
  188.6350  176.2340  146.9560 C   0  0  0  0  0  0  0  0  0  0  0  0
  1 17  1  0  0  0  0
  2  8  1  0  0  0  0
  2  1  2  0  0  0  0
  3  5  1  0  0  0  0
  4  3  2  0  0  0  0
  4  7  1  0  0  0  0
  5  6  1  0  0  0  0
  5 13  2  0  0  0  0
  7  9  1  0  0  0  0
  8 12  2  0  0  0  0
  9 13  1  0  0  0  0
  9 10  2  0  0  0  0
 11  7  2  0  0  0  0
 11  8  1  0  0  0  0
 12 10  1  0  0  0  0
 14  1  1  0  0  0  0
 14 16  1  0  0  0  0
 16 15  3  0  0  0  0
 17 18  1  0  0  0  0
 18 19  1  0  0  0  0
 20 19  1  0  0  0  0
 20 21  1  0  0  0  0
 23 22  1  6  0  0  0
 23 21  1  0  0  0  0
 25 26  2  0  0  0  0
 26 24  1  0  0  0  0
 26 23  1  0  0  0  0
M  END
>  <MODEL>
5

>  <REMARK>
 VINA RESULT:      -5.6      3.916      7.021
  Name = 
  10 active torsions:
  status: ('A' for Active; 'I' for Inactive)
    1  A    between atoms: N_5  and  C_7
    2  A    between atoms: N_5  and  C_14
    3  A    between atoms: C_7  and  S_20
    4  A    between atoms: N_8  and  C_9
    5  A    between atoms: N_8  and  C_25
    6  A    between atoms: C_9  and  S_20
    7  A    between atoms: C_12  and  C_13
    8  A    between atoms: C_22  and  C_26
    9  A    between atoms: C_24  and  C_25
   10  A    between atoms: C_24  and  C_26
                            x       y       z     vdW  Elec       q    Type
                         _______ _______ _______ _____ _____    ______ ____

>  <TORSDO>
F 10

$$$$
=
 OpenBabel11042417213D

 26 27  0  0  1  0  0  0  0  0999 V2000
  186.0360  177.4960  144.2890 C   0  0  0  0  0  0  0  0  0  0  0  0
  186.8990  177.8270  145.2640 C   0  0  0  0  0  3  0  0  0  0  0  0
  192.9480  176.8800  144.8630 C   0  0  0  0  0  3  0  0  0  0  0  0
  191.7130  177.4560  144.5510 C   0  0  0  0  0  3  0  0  0  0  0  0
  193.0270  175.8700  145.8340 C   0  0  0  0  0  0  0  0  0  0  0  0
  194.3440  175.2710  146.1710 C   0  0  0  0  0  1  0  0  0  0  0  0
  190.5550  177.0320  145.2160 C   0  0  0  0  0  0  0  0  0  0  0  0
  188.2100  177.2250  145.5730 C   0  0  0  0  0  0  0  0  0  0  0  0
  190.6400  176.0320  146.2070 C   0  0  0  0  0  0  0  0  0  0  0  0
  189.4810  175.6250  146.8680 C   0  0  0  0  0  3  0  0  0  0  0  0
  189.3520  177.5940  144.9250 N   0  0  0  0  0  0  0  0  0  0  0  0
  188.2600  176.2260  146.5510 C   0  0  0  0  0  3  0  0  0  0  0  0
  191.8740  175.4480  146.5090 C   0  0  0  0  0  3  0  0  0  0  0  0
  184.7800  178.1760  144.1870 N   0  0  0  0  0  2  0  0  0  0  0  0
  183.3710  178.2400  142.0480 N   0  0  0  0  0  0  0  0  0  0  0  0
  184.0080  178.2140  143.0150 C   0  0  0  0  0  0  0  0  0  0  0  0
  186.3700  176.1910  143.0950 S   0  0  0  0  0  0  0  0  0  0  0  0
  187.3040  177.2810  141.9670 C   0  0  0  0  0  2  0  0  0  0  0  0
  188.5560  176.6670  141.5580 N   0  0  0  0  0  2  0  0  0  0  0  0
  188.6880  175.4120  142.2680 C   0  0  0  0  0  2  0  0  0  0  0  0
  190.1340  174.9830  142.2570 C   0  0  0  0  0  2  0  0  0  0  0  0
  191.7830  173.4870  143.3410 C   0  0  0  0  0  1  0  0  0  0  0  0
  190.3090  173.7740  143.1500 C   0  0  2  0  0  3  0  0  0  0  0  0
  189.8590  172.2040  141.2480 O   0  0  0  0  0  0  0  0  0  0  0  0
  188.8030  171.9420  143.2690 O   0  0  0  0  0  1  0  0  0  0  0  0
  189.6210  172.5890  142.5650 C   0  0  0  0  0  0  0  0  0  0  0  0
  1  2  2  0  0  0  0
  2  8  1  0  0  0  0
  3  5  1  0  0  0  0
  4  3  2  0  0  0  0
  4  7  1  0  0  0  0
  5  6  1  0  0  0  0
  5 13  2  0  0  0  0
  7  9  1  0  0  0  0
  8 12  2  0  0  0  0
  9 13  1  0  0  0  0
  9 10  2  0  0  0  0
 11  7  2  0  0  0  0
 11  8  1  0  0  0  0
 12 10  1  0  0  0  0
 14  1  1  0  0  0  0
 15 16  3  0  0  0  0
 16 14  1  0  0  0  0
 17  1  1  0  0  0  0
 18 17  1  0  0  0  0
 19 18  1  0  0  0  0
 19 20  1  0  0  0  0
 21 20  1  0  0  0  0
 21 23  1  0  0  0  0
 23 22  1  6  0  0  0
 24 26  2  0  0  0  0
 26 23  1  0  0  0  0
 26 25  1  0  0  0  0
M  END
>  <MODEL>
6

>  <REMARK>
 VINA RESULT:      -5.6      2.303      4.362
  Name = 
  10 active torsions:
  status: ('A' for Active; 'I' for Inactive)
    1  A    between atoms: N_5  and  C_7
    2  A    between atoms: N_5  and  C_14
    3  A    between atoms: C_7  and  S_20
    4  A    between atoms: N_8  and  C_9
    5  A    between atoms: N_8  and  C_25
    6  A    between atoms: C_9  and  S_20
    7  A    between atoms: C_12  and  C_13
    8  A    between atoms: C_22  and  C_26
    9  A    between atoms: C_24  and  C_25
   10  A    between atoms: C_24  and  C_26
                            x       y       z     vdW  Elec       q    Type
                         _______ _______ _______ _____ _____    ______ ____

>  <TORSDO>
F 10

$$$$
=
 OpenBabel11042417213D

 26 27  0  0  1  0  0  0  0  0999 V2000
  192.6410  175.5890  145.8920 C   0  0  0  0  0  0  0  0  0  0  0  0
  192.6380  176.2830  144.7420 C   0  0  0  0  0  3  0  0  0  0  0  0
  187.7260  175.7240  141.1080 C   0  0  0  0  0  3  0  0  0  0  0  0
  188.8210  175.2970  141.8640 C   0  0  0  0  0  3  0  0  0  0  0  0
  187.4410  177.0930  140.9940 C   0  0  0  0  0  0  0  0  0  0  0  0
  186.2670  177.5400  140.2000 C   0  0  0  0  0  1  0  0  0  0  0  0
  189.6290  176.2360  142.5170 C   0  0  0  0  0  0  0  0  0  0  0  0
  191.4820  176.7140  143.9330 C   0  0  0  0  0  0  0  0  0  0  0  0
  189.3290  177.6110  142.4180 C   0  0  0  0  0  0  0  0  0  0  0  0
  190.1370  178.5360  143.0810 C   0  0  0  0  0  3  0  0  0  0  0  0
  190.6910  175.8280  143.2610 N   0  0  0  0  0  0  0  0  0  0  0  0
  191.2170  178.0850  143.8440 C   0  0  0  0  0  3  0  0  0  0  0  0
  188.2400  178.0360  141.6520 C   0  0  0  0  0  3  0  0  0  0  0  0
  193.8850  175.2230  146.5010 N   0  0  0  0  0  2  0  0  0  0  0  0
  196.0410  174.8030  145.1820 N   0  0  0  0  0  0  0  0  0  0  0  0
  195.0680  174.9950  145.7800 C   0  0  0  0  0  0  0  0  0  0  0  0
  191.1300  175.0560  146.7120 S   0  0  0  0  0  0  0  0  0  0  0  0
  190.9640  176.5880  147.6900 C   0  0  0  0  0  2  0  0  0  0  0  0
  189.9300  177.4520  147.1440 N   0  0  0  0  0  2  0  0  0  0  0  0
  188.9070  176.6060  146.5630 C   0  0  0  0  0  2  0  0  0  0  0  0
  187.9450  177.4600  145.7740 C   0  0  0  0  0  2  0  0  0  0  0  0
  186.0000  176.7910  144.3940 C   0  0  0  0  0  1  0  0  0  0  0  0
  186.5720  176.8240  145.7960 C   0  0  2  0  0  3  0  0  0  0  0  0
  186.1730  178.3000  147.7830 O   0  0  0  0  0  1  0  0  0  0  0  0
  184.4220  177.5320  146.5130 O   0  0  0  0  0  0  0  0  0  0  0  0
  185.6650  177.5740  146.7090 C   0  0  0  0  0  0  0  0  0  0  0  0
  1 14  1  0  0  0  0
  1 17  1  0  0  0  0
  2  1  2  0  0  0  0
  3  4  1  0  0  0  0
  4  7  2  0  0  0  0
  5  3  2  0  0  0  0
  5 13  1  0  0  0  0
  6  5  1  0  0  0  0
  7 11  1  0  0  0  0
  8  2  1  0  0  0  0
  9  7  1  0  0  0  0
  9 10  1  0  0  0  0
 10 12  2  0  0  0  0
 11  8  2  0  0  0  0
 12  8  1  0  0  0  0
 13  9  2  0  0  0  0
 15 16  3  0  0  0  0
 16 14  1  0  0  0  0
 17 18  1  0  0  0  0
 19 18  1  0  0  0  0
 20 19  1  0  0  0  0
 21 23  1  0  0  0  0
 21 20  1  0  0  0  0
 23 22  1  6  0  0  0
 23 26  1  0  0  0  0
 25 26  2  0  0  0  0
 26 24  1  0  0  0  0
M  END
>  <MODEL>
7

>  <REMARK>
 VINA RESULT:      -5.6      3.526      6.494
  Name = 
  10 active torsions:
  status: ('A' for Active; 'I' for Inactive)
    1  A    between atoms: N_5  and  C_7
    2  A    between atoms: N_5  and  C_14
    3  A    between atoms: C_7  and  S_20
    4  A    between atoms: N_8  and  C_9
    5  A    between atoms: N_8  and  C_25
    6  A    between atoms: C_9  and  S_20
    7  A    between atoms: C_12  and  C_13
    8  A    between atoms: C_22  and  C_26
    9  A    between atoms: C_24  and  C_25
   10  A    between atoms: C_24  and  C_26
                            x       y       z     vdW  Elec       q    Type
                         _______ _______ _______ _____ _____    ______ ____

>  <TORSDO>
F 10

$$$$
=
 OpenBabel11042417213D

 26 27  0  0  1  0  0  0  0  0999 V2000
  192.0430  176.0330  142.4660 C   0  0  0  0  0  0  0  0  0  0  0  0
  191.5530  177.1330  143.0600 C   0  0  0  0  0  3  0  0  0  0  0  0
  186.8020  177.5650  146.9180 C   0  0  0  0  0  3  0  0  0  0  0  0
  188.1150  177.2990  146.5210 C   0  0  0  0  0  3  0  0  0  0  0  0
  185.8540  177.9910  145.9750 C   0  0  0  0  0  0  0  0  0  0  0  0
  184.4630  178.2850  146.4060 C   0  0  0  0  0  1  0  0  0  0  0  0
  188.4890  177.4680  145.1810 C   0  0  0  0  0  0  0  0  0  0  0  0
  190.1700  177.4010  143.4980 C   0  0  0  0  0  0  0  0  0  0  0  0
  187.5390  177.9160  144.2380 C   0  0  0  0  0  0  0  0  0  0  0  0
  187.9260  178.0880  142.9090 C   0  0  0  0  0  3  0  0  0  0  0  0
  189.7660  177.2200  144.7880 N   0  0  0  0  0  0  0  0  0  0  0  0
  189.2480  177.8320  142.5370 C   0  0  0  0  0  3  0  0  0  0  0  0
  186.2230  178.1700  144.6360 C   0  0  0  0  0  3  0  0  0  0  0  0
  193.4200  175.9900  142.0700 N   0  0  0  0  0  2  0  0  0  0  0  0
  195.3730  176.3060  143.6980 N   0  0  0  0  0  0  0  0  0  0  0  0
  194.4920  176.1620  142.9600 C   0  0  0  0  0  0  0  0  0  0  0  0
  191.0330  174.5880  142.1050 S   0  0  0  0  0  0  0  0  0  0  0  0
  191.9320  173.5060  143.2680 C   0  0  0  0  0  2  0  0  0  0  0  0
  191.8180  173.9910  144.6340 N   0  0  0  0  0  2  0  0  0  0  0  0
  193.1270  173.8990  145.2470 C   0  0  0  0  0  2  0  0  0  0  0  0
  193.0560  174.4410  146.6530 C   0  0  0  0  0  2  0  0  0  0  0  0
  193.8130  176.7910  146.8560 C   0  0  0  0  0  1  0  0  0  0  0  0
  192.6200  175.8890  146.6150 C   0  0  2  0  0  3  0  0  0  0  0  0
  191.5650  177.3160  148.3860 O   0  0  0  0  0  1  0  0  0  0  0  0
  190.6710  175.2770  147.8260 O   0  0  0  0  0  0  0  0  0  0  0  0
  191.5640  176.1430  147.6340 C   0  0  0  0  0  0  0  0  0  0  0  0
  1  2  2  0  0  0  0
  2  8  1  0  0  0  0
  4  3  1  0  0  0  0
  5  6  1  0  0  0  0
  5  3  2  0  0  0  0
  7  4  2  0  0  0  0
  8 11  2  0  0  0  0
  9 13  2  0  0  0  0
  9  7  1  0  0  0  0
 10  9  1  0  0  0  0
 11  7  1  0  0  0  0
 12 10  2  0  0  0  0
 12  8  1  0  0  0  0
 13  5  1  0  0  0  0
 14  1  1  0  0  0  0
 14 16  1  0  0  0  0
 16 15  3  0  0  0  0
 17  1  1  0  0  0  0
 17 18  1  0  0  0  0
 18 19  1  0  0  0  0
 19 20  1  0  0  0  0
 20 21  1  0  0  0  0
 23 21  1  0  0  0  0
 23 22  1  1  0  0  0
 23 26  1  0  0  0  0
 26 25  2  0  0  0  0
 26 24  1  0  0  0  0
M  END
>  <MODEL>
8

>  <REMARK>
 VINA RESULT:      -5.4      3.398      6.697
  Name = 
  10 active torsions:
  status: ('A' for Active; 'I' for Inactive)
    1  A    between atoms: N_5  and  C_7
    2  A    between atoms: N_5  and  C_14
    3  A    between atoms: C_7  and  S_20
    4  A    between atoms: N_8  and  C_9
    5  A    between atoms: N_8  and  C_25
    6  A    between atoms: C_9  and  S_20
    7  A    between atoms: C_12  and  C_13
    8  A    between atoms: C_22  and  C_26
    9  A    between atoms: C_24  and  C_25
   10  A    between atoms: C_24  and  C_26
                            x       y       z     vdW  Elec       q    Type
                         _______ _______ _______ _____ _____    ______ ____

>  <TORSDO>
F 10

$$$$
=
 OpenBabel11042417213D

 26 27  0  0  1  0  0  0  0  0999 V2000
  190.3220  176.9500  142.9480 C   0  0  0  0  0  0  0  0  0  0  0  0
  189.5440  177.9910  142.6150 C   0  0  0  0  0  3  0  0  0  0  0  0
  183.4730  178.6890  143.1780 C   0  0  0  0  0  3  0  0  0  0  0  0
  184.8110  178.6940  143.5820 C   0  0  0  0  0  3  0  0  0  0  0  0
  183.1350  178.2900  141.8760 C   0  0  0  0  0  0  0  0  0  0  0  0
  181.7120  178.2990  141.4470 C   0  0  0  0  0  1  0  0  0  0  0  0
  185.8160  178.3120  142.6840 C   0  0  0  0  0  0  0  0  0  0  0  0
  188.1250  177.9850  142.2090 C   0  0  0  0  0  0  0  0  0  0  0  0
  185.4750  177.9320  141.3690 C   0  0  0  0  0  0  0  0  0  0  0  0
  186.4850  177.5620  140.4810 C   0  0  0  0  0  3  0  0  0  0  0  0
  187.1200  178.3230  143.0670 N   0  0  0  0  0  0  0  0  0  0  0  0
  187.8170  177.5910  140.9020 C   0  0  0  0  0  3  0  0  0  0  0  0
  184.1350  177.9160  140.9700 C   0  0  0  0  0  3  0  0  0  0  0  0
  191.7030  177.1650  143.2660 N   0  0  0  0  0  2  0  0  0  0  0  0
  192.9670  175.8610  145.0730 N   0  0  0  0  0  0  0  0  0  0  0  0
  192.3930  176.4500  144.2580 C   0  0  0  0  0  0  0  0  0  0  0  0
  189.7180  175.2550  142.9870 S   0  0  0  0  0  0  0  0  0  0  0  0
  188.6710  175.5230  144.4580 C   0  0  0  0  0  2  0  0  0  0  0  0
  189.4620  175.5020  145.6780 N   0  0  0  0  0  2  0  0  0  0  0  0
  188.5730  175.7840  146.7870 C   0  0  0  0  0  2  0  0  0  0  0  0
  187.7870  177.0360  146.4890 C   0  0  0  0  0  2  0  0  0  0  0  0
  185.4150  176.4150  146.1380 C   0  0  0  0  0  1  0  0  0  0  0  0
  186.4230  176.9430  147.1370 C   0  0  2  0  0  3  0  0  0  0  0  0
  184.6980  178.7350  147.4480 O   0  0  0  0  0  0  0  0  0  0  0  0
  186.8300  178.9980  148.2560 O   0  0  0  0  0  1  0  0  0  0  0  0
  185.9970  178.2750  147.6500 C   0  0  0  0  0  0  0  0  0  0  0  0
  1 17  1  0  0  0  0
  1 14  1  0  0  0  0
  2  1  2  0  0  0  0
  3  4  1  0  0  0  0
  5  3  2  0  0  0  0
  6  5  1  0  0  0  0
  7 11  1  0  0  0  0
  7  4  2  0  0  0  0
  8  2  1  0  0  0  0
  8 11  2  0  0  0  0
  9  7  1  0  0  0  0
 10 12  2  0  0  0  0
 10  9  1  0  0  0  0
 12  8  1  0  0  0  0
 13  9  2  0  0  0  0
 13  5  1  0  0  0  0
 14 16  1  0  0  0  0
 16 15  3  0  0  0  0
 17 18  1  0  0  0  0
 18 19  1  0  0  0  0
 19 20  1  0  0  0  0
 21 20  1  0  0  0  0
 21 23  1  0  0  0  0
 23 22  1  6  0  0  0
 23 26  1  0  0  0  0
 24 26  2  0  0  0  0
 26 25  1  0  0  0  0
M  END
>  <MODEL>
9

>  <REMARK>
 VINA RESULT:      -5.3      2.551      6.166
  Name = 
  10 active torsions:
  status: ('A' for Active; 'I' for Inactive)
    1  A    between atoms: N_5  and  C_7
    2  A    between atoms: N_5  and  C_14
    3  A    between atoms: C_7  and  S_20
    4  A    between atoms: N_8  and  C_9
    5  A    between atoms: N_8  and  C_25
    6  A    between atoms: C_9  and  S_20
    7  A    between atoms: C_12  and  C_13
    8  A    between atoms: C_22  and  C_26
    9  A    between atoms: C_24  and  C_25
   10  A    between atoms: C_24  and  C_26
                            x       y       z     vdW  Elec       q    Type
                         _______ _______ _______ _____ _____    ______ ____

>  <TORSDO>
F 10

$$$$
