=
 OpenBabel11042415493D

 50 57  0  0  1  0  0  0  0  0999 V2000
  190.0780  174.4300  146.5990 C   0  0  0  0  0  2  0  0  0  0  0  0
  191.1960  175.2430  147.2500 C   0  0  0  0  0  2  0  0  0  0  0  0
  191.8660  175.9390  144.2820 O   0  0  0  0  0  0  0  0  0  0  0  0
  190.2450  177.3680  146.4590 C   0  0  0  0  0  2  0  0  0  0  0  0
  192.2650  176.4420  145.3680 C   0  0  0  0  0  0  0  0  0  0  0  0
  191.3920  176.4720  146.4940 N   0  0  0  0  0  0  0  0  0  0  0  0
  189.0070  176.6380  145.9870 C   0  0  0  0  0  0  0  0  0  0  0  0
  188.9440  175.2980  146.1030 C   0  0  0  0  0  3  0  0  0  0  0  0
  187.7190  177.7710  144.0500 C   0  0  0  0  0  0  0  0  0  0  0  0
  186.8590  177.8870  146.2970 C   0  0  0  0  0  0  0  0  0  0  0  0
  185.6800  178.9960  144.5590 N   0  0  0  0  0  0  0  0  0  0  0  0
  186.7520  177.7240  147.5940 O   0  0  0  0  0  0  0  0  0  0  0  0
  185.0150  178.9630  146.9220 C   0  0  0  0  0  3  0  0  0  0  0  0
  187.8610  177.4170  145.4310 C   0  0  0  0  0  0  0  0  0  0  0  0
  186.6150  178.5800  143.6590 C   0  0  0  0  0  3  0  0  0  0  0  0
  185.8170  178.6350  145.8550 C   0  0  0  0  0  0  0  0  0  0  0  0
  185.6610  178.3500  148.0020 C   0  0  0  0  0  3  0  0  0  0  0  0
  188.2140  177.3080  141.5790 C   0  0  0  0  0  2  0  0  0  0  0  0
  188.4170  175.9930  142.3150 C   0  0  1  0  0  0  0  0  0  0  0  0
  188.7420  177.2990  143.0240 C   0  0  2  0  0  3  0  0  0  0  0  0
  187.2470  175.3430  142.7340 O   0  0  0  0  0  1  0  0  0  0  0  0
  189.6250  175.1530  141.9070 C   0  0  0  0  0  2  0  0  0  0  0  0
  190.5800  170.8050  141.4530 C   0  0  0  0  0  0  0  0  0  0  0  0
  191.1180  170.1800  139.1280 C   0  0  0  0  0  1  0  0  0  0  0  0
  190.9380  172.5380  139.8770 C   0  0  0  0  0  2  0  0  0  0  0  0
  189.6540  171.8900  141.8410 C   0  0  0  0  0  2  0  0  0  0  0  0
  188.4550  174.4980  139.9320 O   0  0  0  0  0  0  0  0  0  0  0  0
  190.6160  169.7160  142.0080 O   0  0  0  0  0  0  0  0  0  0  0  0
  191.4130  171.1420  140.2620 C   0  0  1  0  0  3  0  0  0  0  0  0
  189.8800  172.8870  140.8140 N   0  0  0  0  0  0  0  0  0  0  0  0
  189.2710  174.1740  140.8350 C   0  0  0  0  0  0  0  0  0  0  0  0
  193.6740  176.9310  145.5070 C   0  0  1  0  0  3  0  0  0  0  0  0
  193.9290  177.2800  146.8910 N   0  0  0  0  0  1  0  0  0  0  0  0
  194.6790  175.8780  145.0650 C   0  0  0  0  0  2  0  0  0  0  0  0
  195.2670  176.2120  143.7010 C   0  0  0  0  0  2  0  0  0  0  0  0
  196.7000  175.7200  143.6000 C   0  0  0  0  0  2  0  0  0  0  0  0
  196.7260  174.2020  143.7180 C   0  0  0  0  0  2  0  0  0  0  0  0
  195.8860  173.6020  142.7630 O   0  0  0  0  0  0  0  0  0  0  0  0
  193.9400  172.4850  145.5310 C   0  0  0  0  0  2  0  0  0  0  0  0
  193.1230  173.6720  142.3660 O   0  0  0  0  0  1  0  0  0  0  0  0
  193.5210  170.0000  144.2420 C   0  0  2  0  0  3  0  0  0  0  0  0
  192.4350  170.8910  144.4040 O   0  0  0  0  0  0  0  0  0  0  0  0
  192.9030  172.2350  144.4300 C   0  0  2  0  0  3  0  0  0  0  0  0
  194.4760  171.5680  142.4460 C   0  0  1  0  0  0  0  0  0  0  0  0
  194.1640  170.1190  142.8550 C   0  0  0  0  0  2  0  0  0  0  0  0
  193.0540  168.5730  144.4600 C   0  0  0  0  0  1  0  0  0  0  0  0
  195.3050  172.3140  144.8730 C   0  0  0  0  0  2  0  0  0  0  0  0
  193.5930  172.5980  143.1220 C   0  0  1  0  0  0  0  0  0  0  0  0
  195.0920  172.6130  143.3920 C   0  0  1  0  0  0  0  0  0  0  0  0
  194.6410  171.8070  141.0800 O   0  0  0  0  0  1  0  0  0  0  0  0
  1  2  1  0  0  0  0
  3  5  2  0  0  0  0
  4  6  1  0  0  0  0
  5 32  1  0  0  0  0
  5  6  1  0  0  0  0
  6  2  1  0  0  0  0
  7  8  2  0  0  0  0
  7  4  1  0  0  0  0
  8  1  1  0  0  0  0
  9 14  1  0  0  0  0
 10 12  1  0  0  0  0
 11 16  2  0  0  0  0
 12 17  1  0  0  0  0
 13 17  2  0  0  0  0
 14  7  1  0  0  0  0
 14 10  2  0  0  0  0
 15  9  2  0  0  0  0
 15 11  1  0  0  0  0
 16 10  1  0  0  0  0
 16 13  1  0  0  0  0
 18 19  1  0  0  0  0
 18 20  1  0  0  0  0
 19 21  1  1  0  0  0
 19 20  1  0  0  0  0
 20  9  1  1  0  0  0
 22 19  1  0  0  0  0
 23 26  1  0  0  0  0
 23 28  2  0  0  0  0
 25 29  1  0  0  0  0
 25 30  1  0  0  0  0
 27 31  2  0  0  0  0
 29 24  1  6  0  0  0
 29 23  1  0  0  0  0
 30 31  1  0  0  0  0
 30 26  1  0  0  0  0
 31 22  1  0  0  0  0
 32 33  1  1  0  0  0
 34 32  1  0  0  0  0
 35 34  1  0  0  0  0
 36 35  1  0  0  0  0
 36 37  1  0  0  0  0
 38 37  1  0  0  0  0
 41 42  1  0  0  0  0
 41 46  1  6  0  0  0
 42 43  1  0  0  0  0
 43 39  1  1  0  0  0
 44 50  1  6  0  0  0
 44 45  1  0  0  0  0
 44 48  1  0  0  0  0
 44 49  1  0  0  0  0
 45 41  1  0  0  0  0
 47 39  1  0  0  0  0
 48 40  1  6  0  0  0
 48 49  1  0  0  0  0
 48 43  1  0  0  0  0
 49 38  1  6  0  0  0
 49 47  1  0  0  0  0
M  END
>  <MODEL>
1

>  <REMARK>
 VINA RESULT:      -8.0      0.000      0.000
  Name = 
  11 active torsions:
  status: ('A' for Active; 'I' for Inactive)
    1  A    between atoms: C_1  and  C_25
    2  A    between atoms: C_3  and  C_43
    3  A    between atoms: C_3  and  C_44
    4  A    between atoms: C_9  and  C_33
    5  A    between atoms: C_12  and  C_28
    6  A    between atoms: C_12  and  C_34
    7  A    between atoms: C_24  and  C_49
    8  A    between atoms: C_28  and  C_43
    9  A    between atoms: C_33  and  C_48
   10  A    between atoms: C_34  and  O_36
   11  A    between atoms: O_36  and  C_40
                            x       y       z     vdW  Elec       q    Type
                         _______ _______ _______ _____ _____    ______ ____

>  <TORSDO>
F 11

$$$$
=
 OpenBabel11042415493D

 50 57  0  0  1  0  0  0  0  0999 V2000
  187.9750  178.1580  141.3850 C   0  0  0  0  0  2  0  0  0  0  0  0
  187.3950  176.9820  140.6010 C   0  0  0  0  0  2  0  0  0  0  0  0
  189.7290  175.4350  141.9810 O   0  0  0  0  0  0  0  0  0  0  0  0
  186.7600  175.7960  142.6600 C   0  0  0  0  0  2  0  0  0  0  0  0
  188.7150  175.0280  141.3510 C   0  0  0  0  0  0  0  0  0  0  0  0
  187.5030  175.7740  141.4080 N   0  0  0  0  0  0  0  0  0  0  0  0
  187.1160  177.0200  143.4740 C   0  0  0  0  0  0  0  0  0  0  0  0
  187.6310  178.0990  142.8560 C   0  0  0  0  0  3  0  0  0  0  0  0
  187.6890  176.3670  145.9110 C   0  0  0  0  0  0  0  0  0  0  0  0
  185.7160  177.6680  145.4460 C   0  0  0  0  0  0  0  0  0  0  0  0
  186.1700  177.0350  147.6900 N   0  0  0  0  0  0  0  0  0  0  0  0
  184.7890  178.3240  144.7900 O   0  0  0  0  0  0  0  0  0  0  0  0
  184.2330  178.3550  146.9560 C   0  0  0  0  0  3  0  0  0  0  0  0
  186.8590  177.0240  144.9450 C   0  0  0  0  0  0  0  0  0  0  0  0
  187.2940  176.3850  147.2790 C   0  0  0  0  0  3  0  0  0  0  0  0
  185.4090  177.6690  146.7680 C   0  0  0  0  0  0  0  0  0  0  0  0
  183.8880  178.7510  145.6590 C   0  0  0  0  0  3  0  0  0  0  0  0
  189.8200  175.1540  146.6520 C   0  0  0  0  0  2  0  0  0  0  0  0
  190.2680  176.3500  145.8280 C   0  0  1  0  0  0  0  0  0  0  0  0
  188.9620  175.6530  145.4770 C   0  0  2  0  0  3  0  0  0  0  0  0
  190.1470  177.6000  146.4530 O   0  0  0  0  0  1  0  0  0  0  0  0
  191.4140  176.1220  144.8460 C   0  0  0  0  0  2  0  0  0  0  0  0
  194.8850  173.5430  143.6930 C   0  0  0  0  0  0  0  0  0  0  0  0
  195.7930  172.2540  145.5900 C   0  0  0  0  0  1  0  0  0  0  0  0
  193.6370  173.4750  145.7060 C   0  0  0  0  0  2  0  0  0  0  0  0
  194.2440  174.8710  143.8060 C   0  0  0  0  0  2  0  0  0  0  0  0
  192.9920  176.4370  146.6090 O   0  0  0  0  0  0  0  0  0  0  0  0
  195.6700  173.2450  142.8030 O   0  0  0  0  0  0  0  0  0  0  0  0
  194.5420  172.6280  144.8190 C   0  0  1  0  0  3  0  0  0  0  0  0
  193.5480  174.7830  145.0740 N   0  0  0  0  0  0  0  0  0  0  0  0
  192.6900  175.8100  145.5600 C   0  0  0  0  0  0  0  0  0  0  0  0
  188.8000  173.8130  140.4780 C   0  0  1  0  0  3  0  0  0  0  0  0
  187.8310  172.8310  140.9230 N   0  0  0  0  0  1  0  0  0  0  0  0
  188.5330  174.1510  139.0190 C   0  0  0  0  0  2  0  0  0  0  0  0
  188.9600  173.0150  138.1000 C   0  0  0  0  0  2  0  0  0  0  0  0
  190.4660  173.0260  137.9000 C   0  0  0  0  0  2  0  0  0  0  0  0
  191.0120  171.6170  138.0780 C   0  0  0  0  0  2  0  0  0  0  0  0
  192.1580  171.6130  138.8940 O   0  0  0  0  0  0  0  0  0  0  0  0
  191.1020  169.4480  141.5210 C   0  0  0  0  0  2  0  0  0  0  0  0
  194.1370  170.9620  140.7530 O   0  0  0  0  0  1  0  0  0  0  0  0
  190.9320  171.6570  143.2820 C   0  0  2  0  0  3  0  0  0  0  0  0
  191.9400  170.6850  143.4820 O   0  0  0  0  0  0  0  0  0  0  0  0
  192.2960  170.0860  142.2410 C   0  0  2  0  0  3  0  0  0  0  0  0
  192.2200  172.4990  141.2260 C   0  0  1  0  0  0  0  0  0  0  0  0
  191.4480  172.8730  142.5020 C   0  0  0  0  0  2  0  0  0  0  0  0
  190.3830  172.1130  144.6210 C   0  0  0  0  0  1  0  0  0  0  0  0
  190.5830  170.5000  140.5470 C   0  0  0  0  0  2  0  0  0  0  0  0
  192.8540  171.1230  141.2760 C   0  0  1  0  0  0  0  0  0  0  0  0
  191.7720  171.4060  140.2410 C   0  0  1  0  0  0  0  0  0  0  0  0
  193.0770  173.4730  140.7100 O   0  0  0  0  0  1  0  0  0  0  0  0
  1  8  1  0  0  0  0
  2  1  1  0  0  0  0
  2  6  1  0  0  0  0
  4  7  1  0  0  0  0
  5  6  1  0  0  0  0
  5  3  2  0  0  0  0
  6  4  1  0  0  0  0
  7 14  1  0  0  0  0
  8  7  2  0  0  0  0
  9 15  1  0  0  0  0
 10 16  2  0  0  0  0
 12 10  1  0  0  0  0
 12 17  1  0  0  0  0
 14 10  1  0  0  0  0
 14  9  2  0  0  0  0
 15 11  2  0  0  0  0
 16 13  1  0  0  0  0
 16 11  1  0  0  0  0
 17 13  2  0  0  0  0
 19 21  1  1  0  0  0
 19 18  1  0  0  0  0
 20 19  1  0  0  0  0
 20  9  1  1  0  0  0
 20 18  1  0  0  0  0
 22 31  1  0  0  0  0
 22 19  1  0  0  0  0
 23 26  1  0  0  0  0
 23 29  1  0  0  0  0
 26 30  1  0  0  0  0
 28 23  2  0  0  0  0
 29 24  1  1  0  0  0
 29 25  1  0  0  0  0
 30 31  1  0  0  0  0
 30 25  1  0  0  0  0
 31 27  2  0  0  0  0
 32 33  1  1  0  0  0
 32  5  1  0  0  0  0
 34 32  1  0  0  0  0
 35 34  1  0  0  0  0
 36 37  1  0  0  0  0
 36 35  1  0  0  0  0
 37 38  1  0  0  0  0
 41 42  1  0  0  0  0
 41 46  1  1  0  0  0
 43 39  1  6  0  0  0
 43 42  1  0  0  0  0
 44 50  1  6  0  0  0
 44 48  1  0  0  0  0
 44 45  1  0  0  0  0
 45 41  1  0  0  0  0
 47 39  1  0  0  0  0
 48 40  1  6  0  0  0
 48 43  1  0  0  0  0
 49 38  1  6  0  0  0
 49 47  1  0  0  0  0
 49 44  1  0  0  0  0
 49 48  1  0  0  0  0
M  END
>  <MODEL>
2

>  <REMARK>
 VINA RESULT:      -7.8      1.870      5.435
  Name = 
  11 active torsions:
  status: ('A' for Active; 'I' for Inactive)
    1  A    between atoms: C_1  and  C_25
    2  A    between atoms: C_3  and  C_43
    3  A    between atoms: C_3  and  C_44
    4  A    between atoms: C_9  and  C_33
    5  A    between atoms: C_12  and  C_28
    6  A    between atoms: C_12  and  C_34
    7  A    between atoms: C_24  and  C_49
    8  A    between atoms: C_28  and  C_43
    9  A    between atoms: C_33  and  C_48
   10  A    between atoms: C_34  and  O_36
   11  A    between atoms: O_36  and  C_40
                            x       y       z     vdW  Elec       q    Type
                         _______ _______ _______ _____ _____    ______ ____

>  <TORSDO>
F 11

$$$$
=
 OpenBabel11042415493D

 50 57  0  0  1  0  0  0  0  0999 V2000
  189.6060  174.6380  146.9130 C   0  0  0  0  0  2  0  0  0  0  0  0
  190.7290  175.5400  147.4220 C   0  0  0  0  0  2  0  0  0  0  0  0
  191.4360  175.6880  144.3850 O   0  0  0  0  0  0  0  0  0  0  0  0
  189.8150  177.5020  146.2530 C   0  0  0  0  0  2  0  0  0  0  0  0
  191.8320  176.3720  145.3680 C   0  0  0  0  0  0  0  0  0  0  0  0
  190.9490  176.6120  146.4610 N   0  0  0  0  0  0  0  0  0  0  0  0
  188.5720  176.7140  145.9050 C   0  0  0  0  0  0  0  0  0  0  0  0
  188.4890  175.4170  146.2570 C   0  0  0  0  0  3  0  0  0  0  0  0
  187.3650  177.5830  143.7880 C   0  0  0  0  0  0  0  0  0  0  0  0
  186.3880  177.9380  145.9610 C   0  0  0  0  0  0  0  0  0  0  0  0
  185.2810  178.8090  144.0480 N   0  0  0  0  0  0  0  0  0  0  0  0
  186.2170  177.9250  147.2610 O   0  0  0  0  0  0  0  0  0  0  0  0
  184.4950  179.0350  146.3640 C   0  0  0  0  0  3  0  0  0  0  0  0
  187.4410  177.3960  145.2060 C   0  0  0  0  0  0  0  0  0  0  0  0
  186.2680  178.3150  143.2510 C   0  0  0  0  0  3  0  0  0  0  0  0
  185.3570  178.6050  145.3840 C   0  0  0  0  0  0  0  0  0  0  0  0
  185.0960  178.5680  147.5390 C   0  0  0  0  0  3  0  0  0  0  0  0
  188.0380  176.9660  141.3940 C   0  0  0  0  0  2  0  0  0  0  0  0
  188.1300  175.6880  142.2120 C   0  0  1  0  0  0  0  0  0  0  0  0
  188.4470  177.0200  142.8750 C   0  0  2  0  0  3  0  0  0  0  0  0
  186.9060  175.1030  142.5670 O   0  0  0  0  0  1  0  0  0  0  0  0
  189.3330  174.7860  141.9500 C   0  0  0  0  0  2  0  0  0  0  0  0
  191.1270  173.5240  138.0490 C   0  0  0  0  0  0  0  0  0  0  0  0
  189.4350  172.8140  136.4010 C   0  0  0  0  0  1  0  0  0  0  0  0
  188.8470  173.9660  138.5180 C   0  0  0  0  0  2  0  0  0  0  0  0
  190.9890  173.3800  139.5140 C   0  0  0  0  0  2  0  0  0  0  0  0
  188.1460  172.7970  141.3740 O   0  0  0  0  0  0  0  0  0  0  0  0
  192.1640  173.2950  137.4420 O   0  0  0  0  0  0  0  0  0  0  0  0
  189.8520  173.8990  137.3740 C   0  0  1  0  0  3  0  0  0  0  0  0
  189.5740  173.6050  139.7270 N   0  0  0  0  0  0  0  0  0  0  0  0
  188.9850  173.6680  141.0210 C   0  0  0  0  0  0  0  0  0  0  0  0
  193.2470  176.8610  145.4340 C   0  0  1  0  0  3  0  0  0  0  0  0
  193.8490  176.4290  146.6800 N   0  0  0  0  0  1  0  0  0  0  0  0
  194.0760  176.3360  144.2710 C   0  0  0  0  0  2  0  0  0  0  0  0
  195.3940  175.7460  144.7540 C   0  0  0  0  0  2  0  0  0  0  0  0
  196.2670  175.3530  143.5750 C   0  0  0  0  0  2  0  0  0  0  0  0
  196.3390  173.8360  143.4790 C   0  0  0  0  0  2  0  0  0  0  0  0
  195.5710  173.2240  144.4860 O   0  0  0  0  0  0  0  0  0  0  0  0
  194.7880  170.3540  142.5240 C   0  0  0  0  0  2  0  0  0  0  0  0
  194.7080  171.0010  145.9390 O   0  0  0  0  0  1  0  0  0  0  0  0
  192.0280  170.9220  142.7830 C   0  0  2  0  0  3  0  0  0  0  0  0
  192.5680  169.7860  143.4300 O   0  0  0  0  0  0  0  0  0  0  0  0
  193.9360  170.0090  143.7500 C   0  0  2  0  0  3  0  0  0  0  0  0
  193.2130  172.4090  144.5090 C   0  0  1  0  0  0  0  0  0  0  0  0
  191.9210  172.1280  143.7250 C   0  0  0  0  0  2  0  0  0  0  0  0
  190.6540  170.5940  142.2270 C   0  0  0  0  0  1  0  0  0  0  0  0
  194.8420  171.8770  142.4600 C   0  0  0  0  0  2  0  0  0  0  0  0
  194.0880  171.1860  144.7040 C   0  0  1  0  0  0  0  0  0  0  0  0
  194.6200  172.3600  143.8910 C   0  0  1  0  0  0  0  0  0  0  0  0
  193.0820  173.1730  145.6710 O   0  0  0  0  0  1  0  0  0  0  0  0
  1  2  1  0  0  0  0
  3  5  2  0  0  0  0
  4  6  1  0  0  0  0
  5 32  1  0  0  0  0
  5  6  1  0  0  0  0
  6  2  1  0  0  0  0
  7  4  1  0  0  0  0
  7  8  2  0  0  0  0
  8  1  1  0  0  0  0
  9 14  1  0  0  0  0
 10 12  1  0  0  0  0
 11 16  2  0  0  0  0
 12 17  1  0  0  0  0
 13 17  2  0  0  0  0
 14  7  1  0  0  0  0
 14 10  2  0  0  0  0
 15  9  2  0  0  0  0
 15 11  1  0  0  0  0
 16 10  1  0  0  0  0
 16 13  1  0  0  0  0
 18 19  1  0  0  0  0
 18 20  1  0  0  0  0
 19 21  1  1  0  0  0
 19 20  1  0  0  0  0
 20  9  1  1  0  0  0
 22 19  1  0  0  0  0
 23 26  1  0  0  0  0
 25 30  1  0  0  0  0
 26 30  1  0  0  0  0
 28 23  2  0  0  0  0
 29 24  1  6  0  0  0
 29 23  1  0  0  0  0
 29 25  1  0  0  0  0
 30 31  1  0  0  0  0
 31 27  2  0  0  0  0
 31 22  1  0  0  0  0
 32 33  1  1  0  0  0
 34 35  1  0  0  0  0
 34 32  1  0  0  0  0
 36 35  1  0  0  0  0
 37 36  1  0  0  0  0
 37 38  1  0  0  0  0
 41 46  1  1  0  0  0
 41 42  1  0  0  0  0
 41 45  1  0  0  0  0
 42 43  1  0  0  0  0
 43 39  1  6  0  0  0
 43 48  1  0  0  0  0
 44 48  1  0  0  0  0
 44 50  1  1  0  0  0
 45 44  1  0  0  0  0
 47 39  1  0  0  0  0
 47 49  1  0  0  0  0
 48 40  1  1  0  0  0
 49 38  1  1  0  0  0
 49 44  1  0  0  0  0
 49 48  1  0  0  0  0
M  END
>  <MODEL>
3

>  <REMARK>
 VINA RESULT:      -7.6      1.437      2.230
  Name = 
  11 active torsions:
  status: ('A' for Active; 'I' for Inactive)
    1  A    between atoms: C_1  and  C_25
    2  A    between atoms: C_3  and  C_43
    3  A    between atoms: C_3  and  C_44
    4  A    between atoms: C_9  and  C_33
    5  A    between atoms: C_12  and  C_28
    6  A    between atoms: C_12  and  C_34
    7  A    between atoms: C_24  and  C_49
    8  A    between atoms: C_28  and  C_43
    9  A    between atoms: C_33  and  C_48
   10  A    between atoms: C_34  and  O_36
   11  A    between atoms: O_36  and  C_40
                            x       y       z     vdW  Elec       q    Type
                         _______ _______ _______ _____ _____    ______ ____

>  <TORSDO>
F 11

$$$$
=
 OpenBabel11042415493D

 50 57  0  0  1  0  0  0  0  0999 V2000
  188.3620  178.3050  141.5160 C   0  0  0  0  0  2  0  0  0  0  0  0
  187.5570  177.3570  140.6270 C   0  0  0  0  0  2  0  0  0  0  0  0
  189.4770  175.2250  141.8560 O   0  0  0  0  0  0  0  0  0  0  0  0
  186.6430  176.1550  142.5680 C   0  0  0  0  0  2  0  0  0  0  0  0
  188.4120  175.1040  141.1920 C   0  0  0  0  0  0  0  0  0  0  0  0
  187.3870  176.0870  141.3190 N   0  0  0  0  0  0  0  0  0  0  0  0
  187.2390  177.1950  143.4920 C   0  0  0  0  0  0  0  0  0  0  0  0
  187.9860  178.1890  142.9760 C   0  0  0  0  0  3  0  0  0  0  0  0
  187.8100  176.4690  145.9080 C   0  0  0  0  0  0  0  0  0  0  0  0
  185.7770  177.6820  145.4660 C   0  0  0  0  0  0  0  0  0  0  0  0
  186.2320  176.9780  147.6880 N   0  0  0  0  0  0  0  0  0  0  0  0
  184.8260  178.3150  144.8230 O   0  0  0  0  0  0  0  0  0  0  0  0
  184.2380  178.2220  146.9790 C   0  0  0  0  0  3  0  0  0  0  0  0
  186.9610  177.1220  144.9570 C   0  0  0  0  0  0  0  0  0  0  0  0
  187.3960  176.4070  147.2690 C   0  0  0  0  0  3  0  0  0  0  0  0
  185.4520  177.6090  146.7810 C   0  0  0  0  0  0  0  0  0  0  0  0
  183.8910  178.6560  145.6940 C   0  0  0  0  0  3  0  0  0  0  0  0
  189.8320  175.0410  146.5720 C   0  0  0  0  0  2  0  0  0  0  0  0
  190.3800  176.3890  146.1330 C   0  0  1  0  0  0  0  0  0  0  0  0
  189.1270  175.8430  145.4650 C   0  0  2  0  0  3  0  0  0  0  0  0
  190.1850  177.4480  147.0310 O   0  0  0  0  0  1  0  0  0  0  0  0
  191.6390  176.3730  145.2700 C   0  0  0  0  0  2  0  0  0  0  0  0
  195.8550  175.3270  144.1930 C   0  0  0  0  0  0  0  0  0  0  0  0
  196.9510  173.9030  145.8840 C   0  0  0  0  0  1  0  0  0  0  0  0
  194.5130  174.3630  145.8910 C   0  0  0  0  0  2  0  0  0  0  0  0
  194.8070  176.3280  144.4850 C   0  0  0  0  0  2  0  0  0  0  0  0
  192.8520  176.6550  147.3060 O   0  0  0  0  0  0  0  0  0  0  0  0
  196.7740  175.5190  143.4100 O   0  0  0  0  0  0  0  0  0  0  0  0
  195.7250  174.0860  145.0100 C   0  0  1  0  0  3  0  0  0  0  0  0
  194.0610  175.7070  145.5610 N   0  0  0  0  0  0  0  0  0  0  0  0
  192.8730  176.2700  146.1070 C   0  0  0  0  0  0  0  0  0  0  0  0
  188.2500  173.9840  140.2110 C   0  0  1  0  0  3  0  0  0  0  0  0
  189.1450  174.1920  139.0890 N   0  0  0  0  0  1  0  0  0  0  0  0
  188.5520  172.6350  140.8460 C   0  0  0  0  0  2  0  0  0  0  0  0
  188.1620  172.6160  142.3170 C   0  0  0  0  0  2  0  0  0  0  0  0
  189.2050  171.8760  143.1380 C   0  0  0  0  0  2  0  0  0  0  0  0
  190.1440  171.1240  142.2060 C   0  0  0  0  0  2  0  0  0  0  0  0
  191.4020  170.9230  142.8020 O   0  0  0  0  0  0  0  0  0  0  0  0
  192.2400  173.4810  140.4680 C   0  0  0  0  0  2  0  0  0  0  0  0
  192.1180  173.3700  143.9410 O   0  0  0  0  0  1  0  0  0  0  0  0
  194.9910  173.0520  140.9750 C   0  0  2  0  0  3  0  0  0  0  0  0
  194.3850  174.2550  141.4050 O   0  0  0  0  0  0  0  0  0  0  0  0
  193.0040  174.0390  141.6740 C   0  0  2  0  0  3  0  0  0  0  0  0
  193.7340  171.8100  142.8380 C   0  0  1  0  0  0  0  0  0  0  0  0
  195.0670  172.0090  142.0970 C   0  0  0  0  0  2  0  0  0  0  0  0
  196.3890  173.3350  140.4560 C   0  0  0  0  0  1  0  0  0  0  0  0
  192.2260  171.9660  140.6380 C   0  0  0  0  0  2  0  0  0  0  0  0
  192.8190  173.0170  142.7880 C   0  0  1  0  0  0  0  0  0  0  0  0
  192.3680  171.7160  142.1370 C   0  0  1  0  0  0  0  0  0  0  0  0
  193.8090  171.2380  144.1100 O   0  0  0  0  0  1  0  0  0  0  0  0
  1  8  1  0  0  0  0
  2  6  1  0  0  0  0
  2  1  1  0  0  0  0
  4  7  1  0  0  0  0
  5  6  1  0  0  0  0
  5  3  2  0  0  0  0
  6  4  1  0  0  0  0
  7 14  1  0  0  0  0
  8  7  2  0  0  0  0
  9 15  1  0  0  0  0
 10 16  2  0  0  0  0
 12 10  1  0  0  0  0
 12 17  1  0  0  0  0
 14 10  1  0  0  0  0
 14  9  2  0  0  0  0
 15 11  2  0  0  0  0
 16 13  1  0  0  0  0
 16 11  1  0  0  0  0
 17 13  2  0  0  0  0
 19 18  1  0  0  0  0
 19 21  1  1  0  0  0
 20  9  1  1  0  0  0
 20 19  1  0  0  0  0
 20 18  1  0  0  0  0
 22 31  1  0  0  0  0
 22 19  1  0  0  0  0
 23 26  1  0  0  0  0
 23 29  1  0  0  0  0
 26 30  1  0  0  0  0
 28 23  2  0  0  0  0
 29 24  1  1  0  0  0
 29 25  1  0  0  0  0
 30 25  1  0  0  0  0
 30 31  1  0  0  0  0
 31 27  2  0  0  0  0
 32 33  1  6  0  0  0
 32 34  1  0  0  0  0
 32  5  1  0  0  0  0
 34 35  1  0  0  0  0
 35 36  1  0  0  0  0
 37 38  1  0  0  0  0
 37 36  1  0  0  0  0
 39 47  1  0  0  0  0
 41 46  1  1  0  0  0
 41 42  1  0  0  0  0
 41 45  1  0  0  0  0
 42 43  1  0  0  0  0
 43 39  1  6  0  0  0
 43 48  1  0  0  0  0
 44 50  1  1  0  0  0
 45 44  1  0  0  0  0
 47 49  1  0  0  0  0
 48 44  1  0  0  0  0
 48 40  1  1  0  0  0
 49 48  1  0  0  0  0
 49 38  1  1  0  0  0
 49 44  1  0  0  0  0
M  END
>  <MODEL>
4

>  <REMARK>
 VINA RESULT:      -7.6      1.867      5.680
  Name = 
  11 active torsions:
  status: ('A' for Active; 'I' for Inactive)
    1  A    between atoms: C_1  and  C_25
    2  A    between atoms: C_3  and  C_43
    3  A    between atoms: C_3  and  C_44
    4  A    between atoms: C_9  and  C_33
    5  A    between atoms: C_12  and  C_28
    6  A    between atoms: C_12  and  C_34
    7  A    between atoms: C_24  and  C_49
    8  A    between atoms: C_28  and  C_43
    9  A    between atoms: C_33  and  C_48
   10  A    between atoms: C_34  and  O_36
   11  A    between atoms: O_36  and  C_40
                            x       y       z     vdW  Elec       q    Type
                         _______ _______ _______ _____ _____    ______ ____

>  <TORSDO>
F 11

$$$$
=
 OpenBabel11042415493D

 50 57  0  0  1  0  0  0  0  0999 V2000
  193.4870  171.0210  144.7340 C   0  0  0  0  0  2  0  0  0  0  0  0
  193.0170  171.1120  143.2830 C   0  0  0  0  0  2  0  0  0  0  0  0
  190.2850  171.7850  144.6370 O   0  0  0  0  0  0  0  0  0  0  0  0
  192.5400  173.5170  143.4860 C   0  0  0  0  0  2  0  0  0  0  0  0
  190.6730  171.8920  143.4420 C   0  0  0  0  0  0  0  0  0  0  0  0
  192.0400  172.1870  143.1670 N   0  0  0  0  0  0  0  0  0  0  0  0
  193.1970  173.5310  144.8480 C   0  0  0  0  0  0  0  0  0  0  0  0
  193.6570  172.3800  145.3740 C   0  0  0  0  0  3  0  0  0  0  0  0
  194.5070  175.6730  145.4740 C   0  0  0  0  0  0  0  0  0  0  0  0
  192.3470  175.2540  146.4550 C   0  0  0  0  0  0  0  0  0  0  0  0
  193.5450  177.1990  147.1050 N   0  0  0  0  0  0  0  0  0  0  0  0
  191.2090  174.6700  146.7460 O   0  0  0  0  0  0  0  0  0  0  0  0
  191.3350  176.5470  147.9550 C   0  0  0  0  0  3  0  0  0  0  0  0
  193.3550  174.8260  145.5740 C   0  0  0  0  0  0  0  0  0  0  0  0
  194.5660  176.8480  146.2740 C   0  0  0  0  0  3  0  0  0  0  0  0
  192.4550  176.4000  147.1730 C   0  0  0  0  0  0  0  0  0  0  0  0
  190.5770  175.4150  147.6360 C   0  0  0  0  0  3  0  0  0  0  0  0
  196.4040  176.5320  143.9820 C   0  0  0  0  0  2  0  0  0  0  0  0
  195.4770  175.7310  143.0830 C   0  0  1  0  0  0  0  0  0  0  0  0
  195.6510  175.3110  144.5340 C   0  0  2  0  0  3  0  0  0  0  0  0
  194.2570  176.3450  142.7640 O   0  0  0  0  0  1  0  0  0  0  0  0
  196.1340  174.8140  142.0540 C   0  0  0  0  0  2  0  0  0  0  0  0
  193.4490  174.0330  138.5610 C   0  0  0  0  0  0  0  0  0  0  0  0
  194.6510  174.0500  136.4060 C   0  0  0  0  0  1  0  0  0  0  0  0
  195.8190  174.0290  138.5950 C   0  0  0  0  0  2  0  0  0  0  0  0
  193.8290  174.8350  139.7440 C   0  0  0  0  0  2  0  0  0  0  0  0
  196.8180  176.4130  140.4200 O   0  0  0  0  0  0  0  0  0  0  0  0
  192.2940  173.8820  138.1890 O   0  0  0  0  0  0  0  0  0  0  0  0
  194.6230  173.4930  137.8160 C   0  0  1  0  0  3  0  0  0  0  0  0
  195.2770  174.8400  139.6760 N   0  0  0  0  0  0  0  0  0  0  0  0
  196.0980  175.4150  140.6870 C   0  0  0  0  0  0  0  0  0  0  0  0
  189.7270  171.6290  142.3090 C   0  0  1  0  0  3  0  0  0  0  0  0
  188.3740  171.9360  142.7310 N   0  0  0  0  0  1  0  0  0  0  0  0
  190.0710  172.4670  141.0870 C   0  0  0  0  0  2  0  0  0  0  0  0
  188.9590  172.4110  140.0480 C   0  0  0  0  0  2  0  0  0  0  0  0
  188.5470  173.8120  139.6300 C   0  0  0  0  0  2  0  0  0  0  0  0
  188.9280  174.8010  140.7220 C   0  0  0  0  0  2  0  0  0  0  0  0
  187.8260  175.5850  141.1070 O   0  0  0  0  0  0  0  0  0  0  0  0
  189.9080  176.2440  143.9230 C   0  0  0  0  0  2  0  0  0  0  0  0
  188.2640  178.2910  141.6430 O   0  0  0  0  0  1  0  0  0  0  0  0
  187.6250  176.8600  145.4760 C   0  0  2  0  0  3  0  0  0  0  0  0
  188.5250  177.8920  145.1250 O   0  0  0  0  0  0  0  0  0  0  0  0
  189.1660  177.5850  143.8920 C   0  0  2  0  0  3  0  0  0  0  0  0
  186.8180  176.8010  143.0390 C   0  0  1  0  0  0  0  0  0  0  0  0
  186.4230  176.7920  144.5260 C   0  0  0  0  0  2  0  0  0  0  0  0
  187.1320  177.0670  146.8970 C   0  0  0  0  0  1  0  0  0  0  0  0
  188.9400  175.2100  143.3580 C   0  0  0  0  0  2  0  0  0  0  0  0
  188.1500  177.4690  142.7640 C   0  0  1  0  0  0  0  0  0  0  0  0
  187.9850  175.9860  142.4560 C   0  0  1  0  0  0  0  0  0  0  0  0
  185.8240  177.1790  142.1350 O   0  0  0  0  0  1  0  0  0  0  0  0
  1  8  1  0  0  0  0
  2  1  1  0  0  0  0
  4  7  1  0  0  0  0
  5  3  2  0  0  0  0
  6  2  1  0  0  0  0
  6  5  1  0  0  0  0
  6  4  1  0  0  0  0
  7  8  2  0  0  0  0
  7 14  1  0  0  0  0
  9 14  2  0  0  0  0
  9 15  1  0  0  0  0
 10 12  1  0  0  0  0
 10 16  2  0  0  0  0
 11 16  1  0  0  0  0
 12 17  1  0  0  0  0
 14 10  1  0  0  0  0
 15 11  2  0  0  0  0
 16 13  1  0  0  0  0
 17 13  2  0  0  0  0
 18 20  1  0  0  0  0
 19 21  1  6  0  0  0
 19 18  1  0  0  0  0
 19 20  1  0  0  0  0
 20  9  1  1  0  0  0
 22 19  1  0  0  0  0
 23 26  1  0  0  0  0
 25 30  1  0  0  0  0
 27 31  2  0  0  0  0
 28 23  2  0  0  0  0
 29 24  1  6  0  0  0
 29 23  1  0  0  0  0
 29 25  1  0  0  0  0
 30 26  1  0  0  0  0
 30 31  1  0  0  0  0
 31 22  1  0  0  0  0
 32 33  1  1  0  0  0
 32  5  1  0  0  0  0
 34 32  1  0  0  0  0
 35 34  1  0  0  0  0
 36 35  1  0  0  0  0
 36 37  1  0  0  0  0
 37 38  1  0  0  0  0
 41 46  1  1  0  0  0
 42 41  1  0  0  0  0
 43 39  1  1  0  0  0
 43 42  1  0  0  0  0
 44 50  1  6  0  0  0
 44 45  1  0  0  0  0
 45 41  1  0  0  0  0
 47 39  1  0  0  0  0
 48 40  1  6  0  0  0
 48 44  1  0  0  0  0
 48 43  1  0  0  0  0
 49 38  1  6  0  0  0
 49 48  1  0  0  0  0
 49 44  1  0  0  0  0
 49 47  1  0  0  0  0
M  END
>  <MODEL>
5

>  <REMARK>
 VINA RESULT:      -7.4      2.408      7.196
  Name = 
  11 active torsions:
  status: ('A' for Active; 'I' for Inactive)
    1  A    between atoms: C_1  and  C_25
    2  A    between atoms: C_3  and  C_43
    3  A    between atoms: C_3  and  C_44
    4  A    between atoms: C_9  and  C_33
    5  A    between atoms: C_12  and  C_28
    6  A    between atoms: C_12  and  C_34
    7  A    between atoms: C_24  and  C_49
    8  A    between atoms: C_28  and  C_43
    9  A    between atoms: C_33  and  C_48
   10  A    between atoms: C_34  and  O_36
   11  A    between atoms: O_36  and  C_40
                            x       y       z     vdW  Elec       q    Type
                         _______ _______ _______ _____ _____    ______ ____

>  <TORSDO>
F 11

$$$$
=
 OpenBabel11042415493D

 50 57  0  0  1  0  0  0  0  0999 V2000
  189.8620  175.0830  147.3790 C   0  0  0  0  0  2  0  0  0  0  0  0
  190.9440  176.1610  147.3610 C   0  0  0  0  0  2  0  0  0  0  0  0
  191.2460  175.2350  144.3950 O   0  0  0  0  0  0  0  0  0  0  0  0
  189.7000  177.5220  145.7330 C   0  0  0  0  0  2  0  0  0  0  0  0
  191.6920  176.2460  145.0030 C   0  0  0  0  0  0  0  0  0  0  0  0
  190.9340  176.8220  146.0630 N   0  0  0  0  0  0  0  0  0  0  0  0
  188.5070  176.6020  145.8780 C   0  0  0  0  0  0  0  0  0  0  0  0
  188.5990  175.5180  146.6700 C   0  0  0  0  0  3  0  0  0  0  0  0
  186.9780  176.6210  143.7910 C   0  0  0  0  0  0  0  0  0  0  0  0
  186.2220  177.6250  145.8450 C   0  0  0  0  0  0  0  0  0  0  0  0
  184.8140  177.7220  143.9350 N   0  0  0  0  0  0  0  0  0  0  0  0
  186.2030  178.0420  147.0890 O   0  0  0  0  0  0  0  0  0  0  0  0
  184.2780  178.6660  146.1380 C   0  0  0  0  0  3  0  0  0  0  0  0
  187.2360  176.9300  145.1660 C   0  0  0  0  0  0  0  0  0  0  0  0
  185.7530  177.0520  143.2090 C   0  0  0  0  0  3  0  0  0  0  0  0
  185.0640  177.9870  145.2380 C   0  0  0  0  0  0  0  0  0  0  0  0
  185.0570  178.6650  147.3010 C   0  0  0  0  0  3  0  0  0  0  0  0
  189.0370  176.7590  142.2710 C   0  0  0  0  0  2  0  0  0  0  0  0
  187.9470  176.0750  141.4620 C   0  0  1  0  0  0  0  0  0  0  0  0
  188.0050  175.8550  142.9660 C   0  0  2  0  0  3  0  0  0  0  0  0
  186.9150  176.9070  141.0040 O   0  0  0  0  0  1  0  0  0  0  0  0
  188.3670  174.8800  140.6100 C   0  0  0  0  0  2  0  0  0  0  0  0
  191.9070  172.4670  141.9040 C   0  0  0  0  0  0  0  0  0  0  0  0
  191.4950  170.0360  141.8120 C   0  0  0  0  0  1  0  0  0  0  0  0
  189.9570  171.6980  140.7990 C   0  0  0  0  0  2  0  0  0  0  0  0
  190.8710  173.4870  142.1740 C   0  0  0  0  0  2  0  0  0  0  0  0
  187.4410  173.1850  142.0130 O   0  0  0  0  0  0  0  0  0  0  0  0
  193.0310  172.5010  142.3850 O   0  0  0  0  0  0  0  0  0  0  0  0
  191.4180  171.3450  141.0510 C   0  0  1  0  0  3  0  0  0  0  0  0
  189.7000  172.9340  141.5240 N   0  0  0  0  0  0  0  0  0  0  0  0
  188.4630  173.6340  141.4290 C   0  0  0  0  0  0  0  0  0  0  0  0
  193.0480  176.7930  144.6760 C   0  0  1  0  0  3  0  0  0  0  0  0
  193.9590  176.5110  145.7700 N   0  0  0  0  0  1  0  0  0  0  0  0
  193.6040  176.1860  143.3960 C   0  0  0  0  0  2  0  0  0  0  0  0
  195.1180  176.0410  143.4650 C   0  0  0  0  0  2  0  0  0  0  0  0
  195.6490  175.3790  142.2050 C   0  0  0  0  0  2  0  0  0  0  0  0
  196.2210  174.0110  142.5520 C   0  0  0  0  0  2  0  0  0  0  0  0
  196.4320  173.8830  143.9360 O   0  0  0  0  0  0  0  0  0  0  0  0
  197.7340  170.5890  144.3290 C   0  0  0  0  0  2  0  0  0  0  0  0
  197.0250  173.1550  146.5660 O   0  0  0  0  0  1  0  0  0  0  0  0
  195.2030  169.6870  145.2190 C   0  0  2  0  0  3  0  0  0  0  0  0
  196.2810  169.7470  146.1330 O   0  0  0  0  0  0  0  0  0  0  0  0
  197.1910  170.7710  145.7500 C   0  0  2  0  0  3  0  0  0  0  0  0
  195.0880  172.2520  145.2640 C   0  0  1  0  0  0  0  0  0  0  0  0
  194.3060  170.9290  145.3010 C   0  0  0  0  0  2  0  0  0  0  0  0
  194.3710  168.4460  145.4830 C   0  0  0  0  0  1  0  0  0  0  0  0
  196.8400  171.4290  143.4230 C   0  0  0  0  0  2  0  0  0  0  0  0
  196.5140  172.1350  145.7630 C   0  0  1  0  0  0  0  0  0  0  0  0
  196.2650  172.5280  144.3120 C   0  0  1  0  0  0  0  0  0  0  0  0
  194.4290  173.3780  145.7630 O   0  0  0  0  0  1  0  0  0  0  0  0
  2  1  1  0  0  0  0
  3  5  2  0  0  0  0
  4  7  1  0  0  0  0
  4  6  1  0  0  0  0
  5  6  1  0  0  0  0
  6  2  1  0  0  0  0
  7  8  2  0  0  0  0
  8  1  1  0  0  0  0
  9 14  1  0  0  0  0
 10 12  1  0  0  0  0
 11 16  2  0  0  0  0
 12 17  1  0  0  0  0
 13 17  2  0  0  0  0
 14 10  2  0  0  0  0
 14  7  1  0  0  0  0
 15  9  2  0  0  0  0
 15 11  1  0  0  0  0
 16 10  1  0  0  0  0
 16 13  1  0  0  0  0
 18 20  1  0  0  0  0
 19 21  1  6  0  0  0
 19 18  1  0  0  0  0
 19 20  1  0  0  0  0
 20  9  1  1  0  0  0
 22 31  1  0  0  0  0
 22 19  1  0  0  0  0
 23 26  1  0  0  0  0
 23 28  2  0  0  0  0
 25 29  1  0  0  0  0
 25 30  1  0  0  0  0
 29 24  1  1  0  0  0
 29 23  1  0  0  0  0
 30 26  1  0  0  0  0
 31 30  1  0  0  0  0
 31 27  2  0  0  0  0
 32  5  1  0  0  0  0
 32 33  1  1  0  0  0
 34 35  1  0  0  0  0
 34 32  1  0  0  0  0
 36 37  1  0  0  0  0
 36 35  1  0  0  0  0
 37 38  1  0  0  0  0
 41 45  1  0  0  0  0
 41 46  1  1  0  0  0
 41 42  1  0  0  0  0
 43 39  1  6  0  0  0
 43 48  1  0  0  0  0
 43 42  1  0  0  0  0
 44 45  1  0  0  0  0
 44 48  1  0  0  0  0
 44 50  1  1  0  0  0
 47 49  1  0  0  0  0
 47 39  1  0  0  0  0
 48 40  1  1  0  0  0
 49 38  1  6  0  0  0
 49 44  1  0  0  0  0
 49 48  1  0  0  0  0
M  END
>  <MODEL>
6

>  <REMARK>
 VINA RESULT:      -7.2      1.674      2.247
  Name = 
  11 active torsions:
  status: ('A' for Active; 'I' for Inactive)
    1  A    between atoms: C_1  and  C_25
    2  A    between atoms: C_3  and  C_43
    3  A    between atoms: C_3  and  C_44
    4  A    between atoms: C_9  and  C_33
    5  A    between atoms: C_12  and  C_28
    6  A    between atoms: C_12  and  C_34
    7  A    between atoms: C_24  and  C_49
    8  A    between atoms: C_28  and  C_43
    9  A    between atoms: C_33  and  C_48
   10  A    between atoms: C_34  and  O_36
   11  A    between atoms: O_36  and  C_40
                            x       y       z     vdW  Elec       q    Type
                         _______ _______ _______ _____ _____    ______ ____

>  <TORSDO>
F 11

$$$$
=
 OpenBabel11042415493D

 50 57  0  0  1  0  0  0  0  0999 V2000
  191.1460  172.4990  144.4620 C   0  0  0  0  0  2  0  0  0  0  0  0
  190.6910  171.7120  143.2340 C   0  0  0  0  0  2  0  0  0  0  0  0
  192.3950  173.8520  141.7320 O   0  0  0  0  0  0  0  0  0  0  0  0
  192.9890  171.0070  142.7120 C   0  0  0  0  0  2  0  0  0  0  0  0
  191.8980  172.7590  141.3450 C   0  0  0  0  0  0  0  0  0  0  0  0
  191.7760  171.6760  142.2640 N   0  0  0  0  0  0  0  0  0  0  0  0
  193.4630  171.5830  144.0290 C   0  0  0  0  0  0  0  0  0  0  0  0
  192.5870  172.2230  144.8250 C   0  0  0  0  0  3  0  0  0  0  0  0
  195.9140  172.3830  144.2470 C   0  0  0  0  0  0  0  0  0  0  0  0
  195.2920  170.1870  145.0160 C   0  0  0  0  0  0  0  0  0  0  0  0
  197.5650  170.8580  145.1750 N   0  0  0  0  0  0  0  0  0  0  0  0
  194.5710  169.1250  145.2870 O   0  0  0  0  0  0  0  0  0  0  0  0
  196.6790  168.6800  145.8860 C   0  0  0  0  0  3  0  0  0  0  0  0
  194.8870  171.4020  144.4400 C   0  0  0  0  0  0  0  0  0  0  0  0
  197.2490  172.0600  144.6170 C   0  0  0  0  0  3  0  0  0  0  0  0
  196.5810  169.9500  145.3700 C   0  0  0  0  0  0  0  0  0  0  0  0
  195.3640  168.2060  145.8100 C   0  0  0  0  0  3  0  0  0  0  0  0
  196.6260  174.8260  143.9500 C   0  0  0  0  0  2  0  0  0  0  0  0
  195.2710  174.8520  144.6390 C   0  0  1  0  0  0  0  0  0  0  0  0
  195.5790  173.7420  143.6450 C   0  0  2  0  0  3  0  0  0  0  0  0
  195.2680  174.4800  145.9910 O   0  0  0  0  0  1  0  0  0  0  0  0
  194.2720  175.9010  144.1570 C   0  0  0  0  0  2  0  0  0  0  0  0
  190.6630  175.5860  146.7840 C   0  0  0  0  0  0  0  0  0  0  0  0
  189.6370  177.7770  147.2690 C   0  0  0  0  0  1  0  0  0  0  0  0
  191.3870  177.4670  145.5380 C   0  0  0  0  0  2  0  0  0  0  0  0
  192.1040  175.3670  146.5380 C   0  0  0  0  0  2  0  0  0  0  0  0
  194.5380  177.6710  145.7350 O   0  0  0  0  0  0  0  0  0  0  0  0
  189.9720  174.8430  147.4660 O   0  0  0  0  0  0  0  0  0  0  0  0
  190.1510  176.8520  146.1830 C   0  0  1  0  0  3  0  0  0  0  0  0
  192.4940  176.5680  145.8280 N   0  0  0  0  0  0  0  0  0  0  0  0
  193.7960  176.7590  145.2840 C   0  0  0  0  0  0  0  0  0  0  0  0
  191.3610  172.6180  139.9540 C   0  0  1  0  0  3  0  0  0  0  0  0
  190.9410  171.2470  139.7350 N   0  0  0  0  0  1  0  0  0  0  0  0
  190.1790  173.5450  139.7130 C   0  0  0  0  0  2  0  0  0  0  0  0
  188.8560  172.8170  139.9060 C   0  0  0  0  0  2  0  0  0  0  0  0
  188.1650  173.2900  141.1740 C   0  0  0  0  0  2  0  0  0  0  0  0
  188.6330  174.6990  141.5110 C   0  0  0  0  0  2  0  0  0  0  0  0
  187.8400  175.6670  140.8700 O   0  0  0  0  0  0  0  0  0  0  0  0
  187.2360  176.5730  144.2640 C   0  0  0  0  0  2  0  0  0  0  0  0
  188.7200  178.2190  141.5840 O   0  0  0  0  0  1  0  0  0  0  0  0
  185.0270  178.1480  143.4570 C   0  0  2  0  0  3  0  0  0  0  0  0
  186.1880  178.7820  143.9560 O   0  0  0  0  0  0  0  0  0  0  0  0
  187.3360  177.9880  143.6830 C   0  0  2  0  0  3  0  0  0  0  0  0
  186.3130  177.5930  141.3050 C   0  0  1  0  0  0  0  0  0  0  0  0
  185.0030  178.1070  141.9240 C   0  0  0  0  0  2  0  0  0  0  0  0
  183.7890  178.8670  143.9610 C   0  0  0  0  0  1  0  0  0  0  0  0
  186.7010  175.6910  143.1400 C   0  0  0  0  0  2  0  0  0  0  0  0
  187.5300  177.8060  142.1840 C   0  0  1  0  0  0  0  0  0  0  0  0
  187.1010  176.3850  141.8420 C   0  0  1  0  0  0  0  0  0  0  0  0
  186.5430  177.9280  139.9690 O   0  0  0  0  0  1  0  0  0  0  0  0
  1  8  1  0  0  0  0
  2  1  1  0  0  0  0
  4  7  1  0  0  0  0
  5  3  2  0  0  0  0
  5  6  1  0  0  0  0
  6  4  1  0  0  0  0
  6  2  1  0  0  0  0
  7 14  1  0  0  0  0
  7  8  2  0  0  0  0
  9 14  2  0  0  0  0
  9 15  1  0  0  0  0
 10 12  1  0  0  0  0
 10 16  2  0  0  0  0
 11 16  1  0  0  0  0
 12 17  1  0  0  0  0
 14 10  1  0  0  0  0
 15 11  2  0  0  0  0
 16 13  1  0  0  0  0
 17 13  2  0  0  0  0
 18 19  1  0  0  0  0
 19 21  1  1  0  0  0
 20 18  1  0  0  0  0
 20  9  1  1  0  0  0
 20 19  1  0  0  0  0
 22 19  1  0  0  0  0
 22 31  1  0  0  0  0
 23 28  2  0  0  0  0
 25 30  1  0  0  0  0
 25 29  1  0  0  0  0
 26 23  1  0  0  0  0
 29 23  1  0  0  0  0
 29 24  1  1  0  0  0
 30 26  1  0  0  0  0
 31 27  2  0  0  0  0
 31 30  1  0  0  0  0
 32 33  1  1  0  0  0
 32  5  1  0  0  0  0
 34 35  1  0  0  0  0
 34 32  1  0  0  0  0
 35 36  1  0  0  0  0
 36 37  1  0  0  0  0
 38 37  1  0  0  0  0
 41 42  1  0  0  0  0
 41 46  1  6  0  0  0
 43 42  1  0  0  0  0
 43 39  1  1  0  0  0
 44 50  1  6  0  0  0
 44 49  1  0  0  0  0
 44 45  1  0  0  0  0
 44 48  1  0  0  0  0
 45 41  1  0  0  0  0
 47 39  1  0  0  0  0
 48 40  1  6  0  0  0
 48 43  1  0  0  0  0
 49 38  1  6  0  0  0
 49 48  1  0  0  0  0
 49 47  1  0  0  0  0
M  END
>  <MODEL>
7

>  <REMARK>
 VINA RESULT:      -7.2      2.287      9.248
  Name = 
  11 active torsions:
  status: ('A' for Active; 'I' for Inactive)
    1  A    between atoms: C_1  and  C_25
    2  A    between atoms: C_3  and  C_43
    3  A    between atoms: C_3  and  C_44
    4  A    between atoms: C_9  and  C_33
    5  A    between atoms: C_12  and  C_28
    6  A    between atoms: C_12  and  C_34
    7  A    between atoms: C_24  and  C_49
    8  A    between atoms: C_28  and  C_43
    9  A    between atoms: C_33  and  C_48
   10  A    between atoms: C_34  and  O_36
   11  A    between atoms: O_36  and  C_40
                            x       y       z     vdW  Elec       q    Type
                         _______ _______ _______ _____ _____    ______ ____

>  <TORSDO>
F 11

$$$$
=
 OpenBabel11042415493D

 50 57  0  0  1  0  0  0  0  0999 V2000
  185.7580  176.7870  146.7000 C   0  0  0  0  0  2  0  0  0  0  0  0
  186.9510  177.5970  147.2070 C   0  0  0  0  0  2  0  0  0  0  0  0
  188.5540  175.1410  146.1370 O   0  0  0  0  0  0  0  0  0  0  0  0
  187.8520  177.8750  144.9350 C   0  0  0  0  0  2  0  0  0  0  0  0
  188.9300  176.2890  146.5010 C   0  0  0  0  0  0  0  0  0  0  0  0
  188.0730  177.4090  146.2970 N   0  0  0  0  0  0  0  0  0  0  0  0
  186.5880  177.2740  144.3610 C   0  0  0  0  0  0  0  0  0  0  0  0
  185.6310  176.8240  145.1940 C   0  0  0  0  0  3  0  0  0  0  0  0
  187.3790  176.7000  141.9650 C   0  0  0  0  0  0  0  0  0  0  0  0
  185.2370  177.7480  142.3070 C   0  0  0  0  0  0  0  0  0  0  0  0
  185.9530  177.2970  140.0870 N   0  0  0  0  0  0  0  0  0  0  0  0
  184.2050  178.2950  142.9030 O   0  0  0  0  0  0  0  0  0  0  0  0
  183.8220  178.3530  140.7000 C   0  0  0  0  0  3  0  0  0  0  0  0
  186.4060  177.2220  142.8800 C   0  0  0  0  0  0  0  0  0  0  0  0
  187.1150  176.7740  140.5680 C   0  0  0  0  0  3  0  0  0  0  0  0
  185.0360  177.7660  140.9650 C   0  0  0  0  0  0  0  0  0  0  0  0
  183.3380  178.6660  141.9760 C   0  0  0  0  0  3  0  0  0  0  0  0
  189.4340  175.2690  141.4270 C   0  0  0  0  0  2  0  0  0  0  0  0
  188.7090  174.5720  142.5670 C   0  0  1  0  0  0  0  0  0  0  0  0
  188.6760  176.0910  142.4830 C   0  0  2  0  0  3  0  0  0  0  0  0
  187.5210  173.9130  142.2200 O   0  0  0  0  0  1  0  0  0  0  0  0
  189.5730  173.9990  143.6870 C   0  0  0  0  0  2  0  0  0  0  0  0
  193.7250  172.3320  143.7670 C   0  0  0  0  0  0  0  0  0  0  0  0
  194.2080  170.8700  141.8390 C   0  0  0  0  0  1  0  0  0  0  0  0
  192.1900  172.3080  141.9620 C   0  0  0  0  0  2  0  0  0  0  0  0
  192.3910  172.5040  144.3800 C   0  0  0  0  0  2  0  0  0  0  0  0
  189.2960  171.7050  143.0890 O   0  0  0  0  0  0  0  0  0  0  0  0
  194.7580  172.2240  144.4130 O   0  0  0  0  0  0  0  0  0  0  0  0
  193.6780  172.2210  142.2800 C   0  0  1  0  0  3  0  0  0  0  0  0
  191.5010  172.4250  143.2390 N   0  0  0  0  0  0  0  0  0  0  0  0
  190.0980  172.6450  143.3330 C   0  0  0  0  0  0  0  0  0  0  0  0
  190.2320  176.4700  147.2200 C   0  0  1  0  0  3  0  0  0  0  0  0
  190.5220  175.2810  147.9980 N   0  0  0  0  0  1  0  0  0  0  0  0
  191.3770  176.7240  146.2510 C   0  0  0  0  0  2  0  0  0  0  0  0
  192.7230  176.4230  146.8950 C   0  0  0  0  0  2  0  0  0  0  0  0
  193.5200  175.4520  146.0410 C   0  0  0  0  0  2  0  0  0  0  0  0
  193.7670  176.0670  144.6700 C   0  0  0  0  0  2  0  0  0  0  0  0
  195.1390  176.2790  144.4460 O   0  0  0  0  0  0  0  0  0  0  0  0
  194.9420  176.4080  140.8900 C   0  0  0  0  0  2  0  0  0  0  0  0
  197.3970  177.3230  143.1770 O   0  0  0  0  0  1  0  0  0  0  0  0
  196.5700  174.1010  140.7080 C   0  0  2  0  0  3  0  0  0  0  0  0
  197.0840  175.3490  140.2850 O   0  0  0  0  0  0  0  0  0  0  0  0
  196.4690  176.4040  141.0160 C   0  0  2  0  0  3  0  0  0  0  0  0
  196.7610  174.9020  143.1410 C   0  0  1  0  0  0  0  0  0  0  0  0
  196.9950  173.7570  142.1420 C   0  0  0  0  0  2  0  0  0  0  0  0
  197.0380  173.0050  139.7680 C   0  0  0  0  0  1  0  0  0  0  0  0
  194.4150  175.6390  142.0970 C   0  0  0  0  0  2  0  0  0  0  0  0
  196.7610  176.2790  142.5050 C   0  0  1  0  0  0  0  0  0  0  0  0
  195.4900  175.7680  143.1720 C   0  0  1  0  0  0  0  0  0  0  0  0
  197.4960  174.8530  144.3270 O   0  0  0  0  0  1  0  0  0  0  0  0
  1  2  1  0  0  0  0
  3  5  2  0  0  0  0
  4  6  1  0  0  0  0
  5 32  1  0  0  0  0
  6  5  1  0  0  0  0
  6  2  1  0  0  0  0
  7  4  1  0  0  0  0
  7  8  2  0  0  0  0
  8  1  1  0  0  0  0
  9 14  1  0  0  0  0
 10 14  2  0  0  0  0
 10 12  1  0  0  0  0
 11 15  1  0  0  0  0
 11 16  2  0  0  0  0
 13 16  1  0  0  0  0
 13 17  2  0  0  0  0
 14  7  1  0  0  0  0
 15  9  2  0  0  0  0
 16 10  1  0  0  0  0
 17 12  1  0  0  0  0
 18 20  1  0  0  0  0
 18 19  1  0  0  0  0
 19 21  1  6  0  0  0
 19 22  1  0  0  0  0
 20  9  1  6  0  0  0
 20 19  1  0  0  0  0
 23 26  1  0  0  0  0
 23 28  2  0  0  0  0
 25 29  1  0  0  0  0
 25 30  1  0  0  0  0
 27 31  2  0  0  0  0
 29 24  1  1  0  0  0
 29 23  1  0  0  0  0
 30 31  1  0  0  0  0
 30 26  1  0  0  0  0
 31 22  1  0  0  0  0
 32 33  1  6  0  0  0
 34 35  1  0  0  0  0
 34 32  1  0  0  0  0
 36 35  1  0  0  0  0
 37 36  1  0  0  0  0
 38 37  1  0  0  0  0
 39 47  1  0  0  0  0
 41 46  1  6  0  0  0
 41 45  1  0  0  0  0
 42 41  1  0  0  0  0
 42 43  1  0  0  0  0
 43 39  1  1  0  0  0
 43 48  1  0  0  0  0
 44 49  1  0  0  0  0
 44 50  1  1  0  0  0
 45 44  1  0  0  0  0
 47 49  1  0  0  0  0
 48 44  1  0  0  0  0
 48 49  1  0  0  0  0
 48 40  1  1  0  0  0
 49 38  1  1  0  0  0
M  END
>  <MODEL>
8

>  <REMARK>
 VINA RESULT:      -7.0      2.331      4.381
  Name = 
  11 active torsions:
  status: ('A' for Active; 'I' for Inactive)
    1  A    between atoms: C_1  and  C_25
    2  A    between atoms: C_3  and  C_43
    3  A    between atoms: C_3  and  C_44
    4  A    between atoms: C_9  and  C_33
    5  A    between atoms: C_12  and  C_28
    6  A    between atoms: C_12  and  C_34
    7  A    between atoms: C_24  and  C_49
    8  A    between atoms: C_28  and  C_43
    9  A    between atoms: C_33  and  C_48
   10  A    between atoms: C_34  and  O_36
   11  A    between atoms: O_36  and  C_40
                            x       y       z     vdW  Elec       q    Type
                         _______ _______ _______ _____ _____    ______ ____

>  <TORSDO>
F 11

$$$$
=
 OpenBabel11042415493D

 50 57  0  0  1  0  0  0  0  0999 V2000
  188.1920  177.9200  141.4670 C   0  0  0  0  0  2  0  0  0  0  0  0
  187.4600  176.8370  140.6760 C   0  0  0  0  0  2  0  0  0  0  0  0
  189.5970  174.9910  142.0070 O   0  0  0  0  0  0  0  0  0  0  0  0
  186.7040  175.7110  142.7280 C   0  0  0  0  0  2  0  0  0  0  0  0
  188.5330  174.7220  141.3850 C   0  0  0  0  0  0  0  0  0  0  0  0
  187.4240  175.6140  141.4660 N   0  0  0  0  0  0  0  0  0  0  0  0
  187.2200  176.8700  143.5530 C   0  0  0  0  0  0  0  0  0  0  0  0
  187.8600  177.8840  142.9410 C   0  0  0  0  0  3  0  0  0  0  0  0
  187.8070  176.2110  145.9850 C   0  0  0  0  0  0  0  0  0  0  0  0
  185.8620  177.5610  145.5400 C   0  0  0  0  0  0  0  0  0  0  0  0
  186.3290  176.9240  147.7800 N   0  0  0  0  0  0  0  0  0  0  0  0
  184.9440  178.2380  144.8930 O   0  0  0  0  0  0  0  0  0  0  0  0
  184.4170  178.2900  147.0660 C   0  0  0  0  0  3  0  0  0  0  0  0
  186.9820  176.8860  145.0270 C   0  0  0  0  0  0  0  0  0  0  0  0
  187.4310  176.2440  147.3570 C   0  0  0  0  0  3  0  0  0  0  0  0
  185.5730  177.5740  146.8650 C   0  0  0  0  0  0  0  0  0  0  0  0
  184.0660  178.6910  145.7710 C   0  0  0  0  0  3  0  0  0  0  0  0
  190.1150  175.3120  146.6430 C   0  0  0  0  0  2  0  0  0  0  0  0
  190.3390  176.2780  145.4910 C   0  0  1  0  0  0  0  0  0  0  0  0
  189.0560  175.4620  145.5370 C   0  0  2  0  0  3  0  0  0  0  0  0
  190.2110  177.6400  145.8040 O   0  0  0  0  0  1  0  0  0  0  0  0
  191.3430  175.8560  144.4210 C   0  0  0  0  0  2  0  0  0  0  0  0
  195.1350  175.7070  142.0510 C   0  0  0  0  0  0  0  0  0  0  0  0
  197.1300  175.3380  143.4550 C   0  0  0  0  0  1  0  0  0  0  0  0
  194.8170  175.0760  144.3120 C   0  0  0  0  0  2  0  0  0  0  0  0
  193.9150  176.4150  142.4900 C   0  0  0  0  0  2  0  0  0  0  0  0
  192.8820  177.1650  145.6920 O   0  0  0  0  0  0  0  0  0  0  0  0
  195.6440  175.8560  140.9480 O   0  0  0  0  0  0  0  0  0  0  0  0
  195.7340  174.8520  143.1160 C   0  0  1  0  0  3  0  0  0  0  0  0
  193.8080  176.0350  143.8840 N   0  0  0  0  0  0  0  0  0  0  0  0
  192.7050  176.4020  144.7060 C   0  0  0  0  0  0  0  0  0  0  0  0
  188.4550  173.5190  140.4960 C   0  0  1  0  0  3  0  0  0  0  0  0
  188.6130  173.9290  139.1140 N   0  0  0  0  0  1  0  0  0  0  0  0
  189.5310  172.4980  140.8380 C   0  0  0  0  0  2  0  0  0  0  0  0
  190.2380  171.9980  139.5860 C   0  0  0  0  0  2  0  0  0  0  0  0
  191.0110  170.7250  139.8810 C   0  0  0  0  0  2  0  0  0  0  0  0
  191.4900  170.7450  141.3260 C   0  0  0  0  0  2  0  0  0  0  0  0
  192.6930  170.0300  141.4750 O   0  0  0  0  0  0  0  0  0  0  0  0
  192.8450  172.0080  144.4350 C   0  0  0  0  0  2  0  0  0  0  0  0
  192.7600  168.5800  143.8600 O   0  0  0  0  0  1  0  0  0  0  0  0
  195.6150  171.4730  144.6590 C   0  0  2  0  0  3  0  0  0  0  0  0
  194.7210  170.9180  145.6040 O   0  0  0  0  0  0  0  0  0  0  0  0
  193.4420  170.7200  145.0120 C   0  0  2  0  0  3  0  0  0  0  0  0
  194.7200  169.8150  142.9140 C   0  0  1  0  0  0  0  0  0  0  0  0
  195.9560  170.4840  143.5370 C   0  0  0  0  0  2  0  0  0  0  0  0
  196.8930  171.9090  145.3520 C   0  0  0  0  0  1  0  0  0  0  0  0
  193.2190  172.0240  142.9570 C   0  0  0  0  0  2  0  0  0  0  0  0
  193.5270  169.7450  143.8450 C   0  0  1  0  0  0  0  0  0  0  0  0
  193.4230  170.5640  142.5650 C   0  0  1  0  0  0  0  0  0  0  0  0
  194.9410  168.6210  142.2240 O   0  0  0  0  0  1  0  0  0  0  0  0
  1  8  1  0  0  0  0
  2  6  1  0  0  0  0
  2  1  1  0  0  0  0
  4  7  1  0  0  0  0
  5  6  1  0  0  0  0
  5  3  2  0  0  0  0
  6  4  1  0  0  0  0
  7 14  1  0  0  0  0
  8  7  2  0  0  0  0
  9 15  1  0  0  0  0
 10 16  2  0  0  0  0
 12 10  1  0  0  0  0
 12 17  1  0  0  0  0
 14 10  1  0  0  0  0
 14  9  2  0  0  0  0
 15 11  2  0  0  0  0
 16 13  1  0  0  0  0
 16 11  1  0  0  0  0
 17 13  2  0  0  0  0
 19 20  1  0  0  0  0
 19 21  1  1  0  0  0
 19 18  1  0  0  0  0
 20  9  1  1  0  0  0
 20 18  1  0  0  0  0
 22 31  1  0  0  0  0
 22 19  1  0  0  0  0
 23 26  1  0  0  0  0
 23 29  1  0  0  0  0
 26 30  1  0  0  0  0
 28 23  2  0  0  0  0
 29 24  1  1  0  0  0
 29 25  1  0  0  0  0
 30 25  1  0  0  0  0
 30 31  1  0  0  0  0
 31 27  2  0  0  0  0
 32 33  1  6  0  0  0
 32 34  1  0  0  0  0
 32  5  1  0  0  0  0
 35 36  1  0  0  0  0
 35 34  1  0  0  0  0
 36 37  1  0  0  0  0
 37 38  1  0  0  0  0
 41 46  1  1  0  0  0
 41 42  1  0  0  0  0
 43 39  1  6  0  0  0
 43 42  1  0  0  0  0
 44 50  1  6  0  0  0
 44 45  1  0  0  0  0
 44 48  1  0  0  0  0
 45 41  1  0  0  0  0
 47 39  1  0  0  0  0
 48 40  1  1  0  0  0
 48 43  1  0  0  0  0
 49 38  1  6  0  0  0
 49 44  1  0  0  0  0
 49 47  1  0  0  0  0
 49 48  1  0  0  0  0
M  END
>  <MODEL>
9

>  <REMARK>
 VINA RESULT:      -7.0      1.815      5.244
  Name = 
  11 active torsions:
  status: ('A' for Active; 'I' for Inactive)
    1  A    between atoms: C_1  and  C_25
    2  A    between atoms: C_3  and  C_43
    3  A    between atoms: C_3  and  C_44
    4  A    between atoms: C_9  and  C_33
    5  A    between atoms: C_12  and  C_28
    6  A    between atoms: C_12  and  C_34
    7  A    between atoms: C_24  and  C_49
    8  A    between atoms: C_28  and  C_43
    9  A    between atoms: C_33  and  C_48
   10  A    between atoms: C_34  and  O_36
   11  A    between atoms: O_36  and  C_40
                            x       y       z     vdW  Elec       q    Type
                         _______ _______ _______ _____ _____    ______ ____

>  <TORSDO>
F 11

$$$$
