=
 OpenBabel11042417263D

 29 32  0  0  1  0  0  0  0  0999 V2000
  191.5510  174.1600  145.2820 C   0  0  1  0  0  3  0  0  0  0  0  0
  193.5190  175.2760  144.1490 C   0  0  0  0  0  3  0  0  0  0  0  0
  194.5890  176.1140  144.1940 N   0  0  0  0  0  0  0  0  0  0  0  0
  194.1800  176.5960  146.4950 C   0  0  0  0  0  3  0  0  0  0  0  0
  192.7390  175.0710  145.2930 C   0  0  0  0  0  0  0  0  0  0  0  0
  194.9320  176.7710  145.3340 C   0  0  0  0  0  3  0  0  0  0  0  0
  193.0790  175.7420  146.4690 C   0  0  0  0  0  3  0  0  0  0  0  0
  190.2960  174.8840  145.6750 C   0  0  0  0  0  0  0  0  0  0  0  0
  188.4280  176.2370  145.4660 C   0  0  0  0  0  0  0  0  0  0  0  0
  189.5890  175.7370  144.8530 C   0  0  0  0  0  3  0  0  0  0  0  0
  188.2040  175.7780  146.7630 C   0  0  0  0  0  3  0  0  0  0  0  0
  189.4720  174.7400  147.1330 S   0  0  0  0  0  0  0  0  0  0  0  0
  183.7560  178.9690  145.5700 C   0  0  0  0  0  3  0  0  0  0  0  0
  185.5130  177.4120  146.3710 C   0  0  0  0  0  3  0  0  0  0  0  0
  185.7790  178.4960  144.2090 C   0  0  0  0  0  0  0  0  0  0  0  0
  187.4970  177.1460  144.7820 C   0  0  0  0  0  0  0  0  0  0  0  0
  184.4950  179.2670  144.2750 C   0  0  0  0  0  3  0  0  0  0  0  0
  186.2040  177.6120  145.2550 C   0  0  1  0  0  3  0  0  0  0  0  0
  186.6710  178.5490  143.2760 N   0  0  0  0  0  0  0  0  0  0  0  0
  184.2210  178.1280  146.5180 C   0  0  0  0  0  3  0  0  0  0  0  0
  187.7370  177.7040  143.6340 N   0  0  0  0  0  0  0  0  0  0  0  0
  191.4180  173.4500  143.9710 C   0  0  0  0  0  3  0  0  0  0  0  0
  190.4270  172.5900  143.7550 C   0  0  0  0  0  3  0  0  0  0  0  0
  190.2800  171.9040  142.5090 N   0  0  0  0  0  2  0  0  0  0  0  0
  190.5700  173.3910  140.5960 C   0  0  0  0  0  1  0  0  0  0  0  0
  189.6160  172.4770  141.3450 C   0  0  2  0  0  3  0  0  0  0  0  0
  187.3590  172.6250  142.0890 O   0  0  0  0  0  1  0  0  0  0  0  0
  188.4400  174.6320  141.8240 O   0  0  0  0  0  0  0  0  0  0  0  0
  188.4110  173.2430  141.7730 C   0  0  0  0  0  0  0  0  0  0  0  0
  1 22  1  6  0  0  0
  1  5  1  0  0  0  0
  1  8  1  0  0  0  0
  2  3  2  0  0  0  0
  2  5  1  0  0  0  0
  3  6  1  0  0  0  0
  5  7  2  0  0  0  0
  6  4  2  0  0  0  0
  7  4  1  0  0  0  0
  8 12  1  0  0  0  0
  9 11  2  0  0  0  0
 10  9  1  0  0  0  0
 10  8  2  0  0  0  0
 11 12  1  0  0  0  0
 13 20  1  0  0  0  0
 14 20  2  0  0  0  0
 15 17  1  0  0  0  0
 15 18  1  0  0  0  0
 16 18  1  0  0  0  0
 16  9  1  0  0  0  0
 17 13  2  0  0  0  0
 18 14  1  1  0  0  0
 19 21  1  0  0  0  0
 19 15  2  0  0  0  0
 21 16  2  0  0  0  0
 23 22  2  0  0  0  0
 24 23  1  0  0  0  0
 26 25  1  1  0  0  0
 26 29  1  0  0  0  0
 26 24  1  0  0  0  0
 29 28  2  0  0  0  0
 29 27  1  0  0  0  0
M  END
>  <MODEL>
1

>  <REMARK>
 VINA RESULT:      -7.2      0.000      0.000
  Name = 
  7 active torsions:
  status: ('A' for Active; 'I' for Inactive)
    1  A    between atoms: C_2  and  C_11
    2  A    between atoms: C_4  and  C_11
    3  A    between atoms: C_10  and  C_13
    4  A    between atoms: C_11  and  C_15
    5  A    between atoms: C_16  and  N_26
    6  A    between atoms: CA_18  and  C_25
    7  A    between atoms: CA_18  and  N_26
                            x       y       z     vdW  Elec       q    Type
                         _______ _______ _______ _____ _____    ______ ____

>  <TORSDO>
F 7

$$$$
=
 OpenBabel11042417263D

 29 32  0  0  1  0  0  0  0  0999 V2000
  191.2000  174.8170  144.9010 C   0  0  1  0  0  3  0  0  0  0  0  0
  193.2940  176.0620  144.2170 C   0  0  0  0  0  3  0  0  0  0  0  0
  194.3820  176.8110  144.5400 N   0  0  0  0  0  0  0  0  0  0  0  0
  193.7890  176.7680  146.8510 C   0  0  0  0  0  3  0  0  0  0  0  0
  192.4110  175.6380  145.2170 C   0  0  0  0  0  0  0  0  0  0  0  0
  194.6450  177.1680  145.8260 C   0  0  0  0  0  3  0  0  0  0  0  0
  192.6680  176.0000  146.5400 C   0  0  0  0  0  3  0  0  0  0  0  0
  190.0030  175.2740  145.6810 C   0  0  0  0  0  0  0  0  0  0  0  0
  188.0860  176.4690  146.1940 C   0  0  0  0  0  0  0  0  0  0  0  0
  189.1500  176.2870  145.2940 C   0  0  0  0  0  3  0  0  0  0  0  0
  188.0830  175.6020  147.2840 C   0  0  0  0  0  3  0  0  0  0  0  0
  189.4250  174.6030  147.1100 S   0  0  0  0  0  0  0  0  0  0  0  0
  184.2170  178.4740  142.9830 C   0  0  0  0  0  3  0  0  0  0  0  0
  186.1000  177.0050  143.6510 C   0  0  0  0  0  3  0  0  0  0  0  0
  185.3360  178.7310  145.1850 C   0  0  0  0  0  0  0  0  0  0  0  0
  187.0320  177.4730  145.9840 C   0  0  0  0  0  0  0  0  0  0  0  0
  184.2500  179.2490  144.2910 C   0  0  0  0  0  2  0  0  0  0  0  0
  186.1970  177.6490  144.8070 C   0  0  0  0  0  0  0  0  0  0  0  0
  185.6100  179.1260  146.3840 N   0  0  0  0  0  0  0  0  0  0  0  0
  185.0570  177.4560  142.6970 C   0  0  0  0  0  3  0  0  0  0  0  0
  186.6700  178.3440  146.8770 N   0  0  0  0  0  0  0  0  0  0  0  0
  190.9420  174.7690  143.4270 C   0  0  0  0  0  3  0  0  0  0  0  0
  190.3980  173.6950  142.8610 C   0  0  0  0  0  3  0  0  0  0  0  0
  190.1380  173.6300  141.4560 N   0  0  0  0  0  2  0  0  0  0  0  0
  187.8420  174.3980  141.7540 C   0  0  0  0  0  1  0  0  0  0  0  0
  189.0270  174.3130  140.8080 C   0  0  2  0  0  3  0  0  0  0  0  0
  188.8350  172.3440  139.4840 O   0  0  0  0  0  1  0  0  0  0  0  0
  188.0540  174.2660  138.5050 O   0  0  0  0  0  0  0  0  0  0  0  0
  188.6360  173.5850  139.5690 C   0  0  0  0  0  0  0  0  0  0  0  0
  1 22  1  6  0  0  0
  1  5  1  0  0  0  0
  1  8  1  0  0  0  0
  2  3  2  0  0  0  0
  2  5  1  0  0  0  0
  3  6  1  0  0  0  0
  5  7  2  0  0  0  0
  6  4  2  0  0  0  0
  7  4  1  0  0  0  0
  8 12  1  0  0  0  0
  9 11  2  0  0  0  0
 10  8  2  0  0  0  0
 10  9  1  0  0  0  0
 12 11  1  0  0  0  0
 13 17  1  0  0  0  0
 14 18  2  0  0  0  0
 15 19  2  0  0  0  0
 16  9  1  0  0  0  0
 16 21  2  0  0  0  0
 17 15  1  0  0  0  0
 18 15  1  0  0  0  0
 18 16  1  0  0  0  0
 19 21  1  0  0  0  0
 20 13  2  0  0  0  0
 20 14  1  0  0  0  0
 23 22  2  0  0  0  0
 24 23  1  0  0  0  0
 26 24  1  0  0  0  0
 26 25  1  1  0  0  0
 27 29  1  0  0  0  0
 28 29  2  0  0  0  0
 29 26  1  0  0  0  0
M  END
>  <MODEL>
2

>  <REMARK>
 VINA RESULT:      -7.2      1.638      1.950
  Name = 
  7 active torsions:
  status: ('A' for Active; 'I' for Inactive)
    1  A    between atoms: C_2  and  C_11
    2  A    between atoms: C_4  and  C_11
    3  A    between atoms: C_10  and  C_13
    4  A    between atoms: C_11  and  C_15
    5  A    between atoms: C_16  and  N_26
    6  A    between atoms: CA_18  and  C_25
    7  A    between atoms: CA_18  and  N_26
                            x       y       z     vdW  Elec       q    Type
                         _______ _______ _______ _____ _____    ______ ____

>  <TORSDO>
F 7

$$$$
=
 OpenBabel11042417263D

 29 32  0  0  1  0  0  0  0  0999 V2000
  191.0080  174.7250  143.8360 C   0  0  1  0  0  3  0  0  0  0  0  0
  191.9290  176.1030  145.7480 C   0  0  0  0  0  3  0  0  0  0  0  0
  191.9070  176.4710  147.0570 N   0  0  0  0  0  0  0  0  0  0  0  0
  190.0890  174.9900  147.4970 C   0  0  0  0  0  3  0  0  0  0  0  0
  191.0190  175.1530  145.2710 C   0  0  0  0  0  0  0  0  0  0  0  0
  191.0140  175.9380  147.9330 C   0  0  0  0  0  3  0  0  0  0  0  0
  190.0950  174.6000  146.1590 C   0  0  0  0  0  3  0  0  0  0  0  0
  189.7400  175.1330  143.1470 C   0  0  0  0  0  0  0  0  0  0  0  0
  187.7600  176.2730  142.7630 C   0  0  0  0  0  0  0  0  0  0  0  0
  188.8330  176.0480  143.6420 C   0  0  0  0  0  3  0  0  0  0  0  0
  187.8140  175.5520  141.5720 C   0  0  0  0  0  3  0  0  0  0  0  0
  189.2200  174.6320  141.6290 S   0  0  0  0  0  0  0  0  0  0  0  0
  184.1950  178.2200  146.3410 C   0  0  0  0  0  3  0  0  0  0  0  0
  185.9690  176.7270  145.4620 C   0  0  0  0  0  3  0  0  0  0  0  0
  185.0500  178.4570  144.0210 C   0  0  0  0  0  0  0  0  0  0  0  0
  186.6780  177.2250  143.0580 C   0  0  0  0  0  0  0  0  0  0  0  0
  184.0920  179.0000  145.0390 C   0  0  0  0  0  3  0  0  0  0  0  0
  185.9210  177.3520  144.2930 C   0  0  1  0  0  3  0  0  0  0  0  0
  185.2580  178.9120  142.8300 N   0  0  0  0  0  0  0  0  0  0  0  0
  185.0480  177.1900  146.5290 C   0  0  0  0  0  3  0  0  0  0  0  0
  186.2700  178.1400  142.2320 N   0  0  0  0  0  0  0  0  0  0  0  0
  192.2320  175.1980  143.1160 C   0  0  0  0  0  3  0  0  0  0  0  0
  193.2600  174.3810  142.9030 C   0  0  0  0  0  3  0  0  0  0  0  0
  194.4360  174.8110  142.2120 N   0  0  0  0  0  2  0  0  0  0  0  0
  195.9680  176.4320  141.2230 C   0  0  0  0  0  1  0  0  0  0  0  0
  195.0360  176.1280  142.3830 C   0  0  2  0  0  3  0  0  0  0  0  0
  196.9030  175.5970  143.7620 O   0  0  0  0  0  0  0  0  0  0  0  0
  195.2740  176.8680  144.7600 O   0  0  0  0  0  1  0  0  0  0  0  0
  195.7900  176.1810  143.6660 C   0  0  0  0  0  0  0  0  0  0  0  0
  1 22  1  6  0  0  0
  1  5  1  0  0  0  0
  2  3  1  0  0  0  0
  3  6  2  0  0  0  0
  4  6  1  0  0  0  0
  5  2  2  0  0  0  0
  5  7  1  0  0  0  0
  7  4  2  0  0  0  0
  8 10  2  0  0  0  0
  8  1  1  0  0  0  0
  9 16  1  0  0  0  0
  9 10  1  0  0  0  0
 11 12  1  0  0  0  0
 11  9  2  0  0  0  0
 12  8  1  0  0  0  0
 13 20  1  0  0  0  0
 14 20  2  0  0  0  0
 15 18  1  0  0  0  0
 15 17  1  0  0  0  0
 16 18  1  0  0  0  0
 17 13  2  0  0  0  0
 18 14  1  1  0  0  0
 19 15  2  0  0  0  0
 21 19  1  0  0  0  0
 21 16  2  0  0  0  0
 23 22  2  0  0  0  0
 24 26  1  0  0  0  0
 24 23  1  0  0  0  0
 26 25  1  6  0  0  0
 26 29  1  0  0  0  0
 29 27  2  0  0  0  0
 29 28  1  0  0  0  0
M  END
>  <MODEL>
3

>  <REMARK>
 VINA RESULT:      -7.1      3.121      4.260
  Name = 
  7 active torsions:
  status: ('A' for Active; 'I' for Inactive)
    1  A    between atoms: C_2  and  C_11
    2  A    between atoms: C_4  and  C_11
    3  A    between atoms: C_10  and  C_13
    4  A    between atoms: C_11  and  C_15
    5  A    between atoms: C_16  and  N_26
    6  A    between atoms: CA_18  and  C_25
    7  A    between atoms: CA_18  and  N_26
                            x       y       z     vdW  Elec       q    Type
                         _______ _______ _______ _____ _____    ______ ____

>  <TORSDO>
F 7

$$$$
=
 OpenBabel11042417263D

 29 32  0  0  1  0  0  0  0  0999 V2000
  191.2640  175.2890  143.6110 C   0  0  1  0  0  3  0  0  0  0  0  0
  189.8170  174.5600  141.6670 C   0  0  0  0  0  3  0  0  0  0  0  0
  189.0220  173.6340  141.0690 N   0  0  0  0  0  0  0  0  0  0  0  0
  189.2920  172.1370  142.9070 C   0  0  0  0  0  3  0  0  0  0  0  0
  190.3790  174.2970  142.9220 C   0  0  0  0  0  0  0  0  0  0  0  0
  188.7500  172.4390  141.6590 C   0  0  0  0  0  3  0  0  0  0  0  0
  190.1100  173.0740  143.5370 C   0  0  0  0  0  3  0  0  0  0  0  0
  190.5590  175.9580  144.7540 C   0  0  0  0  0  0  0  0  0  0  0  0
  188.8130  176.8270  146.0040 C   0  0  0  0  0  0  0  0  0  0  0  0
  189.2080  176.2390  144.7900 C   0  0  0  0  0  3  0  0  0  0  0  0
  189.8360  177.0050  146.9330 C   0  0  0  0  0  3  0  0  0  0  0  0
  191.2410  176.4160  146.2210 S   0  0  0  0  0  0  0  0  0  0  0  0
  184.3200  179.4080  144.4360 C   0  0  0  0  0  3  0  0  0  0  0  0
  186.6830  178.6630  144.3320 C   0  0  0  0  0  3  0  0  0  0  0  0
  185.3100  178.0000  146.2260 C   0  0  0  0  0  0  0  0  0  0  0  0
  187.4180  177.1940  146.2910 C   0  0  0  0  0  0  0  0  0  0  0  0
  184.0680  178.6970  145.7560 C   0  0  0  0  0  2  0  0  0  0  0  0
  186.5390  178.0330  145.4910 C   0  0  0  0  0  0  0  0  0  0  0  0
  185.4360  177.2630  147.2800 N   0  0  0  0  0  0  0  0  0  0  0  0
  185.5080  179.3900  143.7920 C   0  0  0  0  0  3  0  0  0  0  0  0
  186.7510  176.7670  147.3190 N   0  0  0  0  0  0  0  0  0  0  0  0
  192.5630  174.6690  144.0220 C   0  0  0  0  0  3  0  0  0  0  0  0
  193.6130  174.6740  143.2040 C   0  0  0  0  0  3  0  0  0  0  0  0
  194.8650  174.0920  143.5780 N   0  0  0  0  0  2  0  0  0  0  0  0
  195.8000  174.6080  145.7720 C   0  0  0  0  0  1  0  0  0  0  0  0
  195.9180  174.8200  144.2730 C   0  0  2  0  0  3  0  0  0  0  0  0
  195.2580  177.0530  144.7670 O   0  0  0  0  0  1  0  0  0  0  0  0
  196.3600  176.7730  142.7740 O   0  0  0  0  0  0  0  0  0  0  0  0
  195.8260  176.2730  143.9570 C   0  0  0  0  0  0  0  0  0  0  0  0
  1 22  1  1  0  0  0
  1  8  1  0  0  0  0
  2  5  1  0  0  0  0
  3  6  1  0  0  0  0
  3  2  2  0  0  0  0
  4  7  1  0  0  0  0
  5  7  2  0  0  0  0
  5  1  1  0  0  0  0
  6  4  2  0  0  0  0
  8 10  2  0  0  0  0
  8 12  1  0  0  0  0
  9 16  1  0  0  0  0
  9 11  2  0  0  0  0
 10  9  1  0  0  0  0
 12 11  1  0  0  0  0
 13 17  1  0  0  0  0
 14 18  2  0  0  0  0
 15 19  2  0  0  0  0
 16 21  2  0  0  0  0
 17 15  1  0  0  0  0
 18 15  1  0  0  0  0
 18 16  1  0  0  0  0
 19 21  1  0  0  0  0
 20 14  1  0  0  0  0
 20 13  2  0  0  0  0
 23 24  1  0  0  0  0
 23 22  2  0  0  0  0
 24 26  1  0  0  0  0
 26 25  1  1  0  0  0
 28 29  2  0  0  0  0
 29 26  1  0  0  0  0
 29 27  1  0  0  0  0
M  END
>  <MODEL>
4

>  <REMARK>
 VINA RESULT:      -7.1      2.899      4.890
  Name = 
  7 active torsions:
  status: ('A' for Active; 'I' for Inactive)
    1  A    between atoms: C_2  and  C_11
    2  A    between atoms: C_4  and  C_11
    3  A    between atoms: C_10  and  C_13
    4  A    between atoms: C_11  and  C_15
    5  A    between atoms: C_16  and  N_26
    6  A    between atoms: CA_18  and  C_25
    7  A    between atoms: CA_18  and  N_26
                            x       y       z     vdW  Elec       q    Type
                         _______ _______ _______ _____ _____    ______ ____

>  <TORSDO>
F 7

$$$$
=
 OpenBabel11042417263D

 29 32  0  0  1  0  0  0  0  0999 V2000
  190.8400  174.1670  145.3630 C   0  0  1  0  0  3  0  0  0  0  0  0
  192.6040  175.2280  143.8910 C   0  0  0  0  0  3  0  0  0  0  0  0
  193.9090  175.4340  143.5740 N   0  0  0  0  0  0  0  0  0  0  0  0
  194.6220  174.0490  145.3810 C   0  0  0  0  0  3  0  0  0  0  0  0
  192.2660  174.4140  144.9780 C   0  0  0  0  0  0  0  0  0  0  0  0
  194.9160  174.8650  144.2900 C   0  0  0  0  0  3  0  0  0  0  0  0
  193.2890  173.8260  145.7230 C   0  0  0  0  0  3  0  0  0  0  0  0
  190.2110  175.3870  145.9670 C   0  0  0  0  0  0  0  0  0  0  0  0
  188.5560  176.8970  146.5590 C   0  0  0  0  0  0  0  0  0  0  0  0
  188.8770  175.7250  145.8530 C   0  0  0  0  0  3  0  0  0  0  0  0
  189.6210  177.4830  147.2410 C   0  0  0  0  0  3  0  0  0  0  0  0
  190.9680  176.5200  146.9520 S   0  0  0  0  0  0  0  0  0  0  0  0
  184.4580  179.2800  143.9470 C   0  0  0  0  0  3  0  0  0  0  0  0
  186.7330  178.3440  144.2620 C   0  0  0  0  0  3  0  0  0  0  0  0
  185.1870  178.3690  146.1390 C   0  0  0  0  0  0  0  0  0  0  0  0
  187.1920  177.4440  146.6100 C   0  0  0  0  0  0  0  0  0  0  0  0
  184.0550  179.0010  145.3870 C   0  0  0  0  0  2  0  0  0  0  0  0
  186.4550  178.0870  145.5340 C   0  0  0  0  0  0  0  0  0  0  0  0
  185.1720  177.9580  147.3640 N   0  0  0  0  0  0  0  0  0  0  0  0
  185.6730  178.9800  143.4400 C   0  0  0  0  0  3  0  0  0  0  0  0
  186.4240  177.3870  147.6550 N   0  0  0  0  0  0  0  0  0  0  0  0
  190.0500  173.6220  144.2140 C   0  0  0  0  0  3  0  0  0  0  0  0
  190.2000  172.3620  143.8170 C   0  0  0  0  0  3  0  0  0  0  0  0
  189.4520  171.8200  142.7240 N   0  0  0  0  0  2  0  0  0  0  0  0
  191.4090  172.0670  141.2880 C   0  0  0  0  0  1  0  0  0  0  0  0
  189.9070  171.8500  141.3410 C   0  0  2  0  0  3  0  0  0  0  0  0
  189.6210  174.1270  140.7050 O   0  0  0  0  0  1  0  0  0  0  0  0
  188.1110  172.6570  139.7970 O   0  0  0  0  0  0  0  0  0  0  0  0
  189.2110  172.9400  140.6010 C   0  0  0  0  0  0  0  0  0  0  0  0
  1 22  1  6  0  0  0
  1  8  1  0  0  0  0
  2  5  1  0  0  0  0
  3  2  2  0  0  0  0
  3  6  1  0  0  0  0
  4  7  1  0  0  0  0
  5  1  1  0  0  0  0
  5  7  2  0  0  0  0
  6  4  2  0  0  0  0
  8 12  1  0  0  0  0
  9 16  1  0  0  0  0
  9 11  2  0  0  0  0
 10  8  2  0  0  0  0
 10  9  1  0  0  0  0
 12 11  1  0  0  0  0
 13 17  1  0  0  0  0
 14 18  2  0  0  0  0
 15 19  2  0  0  0  0
 16 21  2  0  0  0  0
 17 15  1  0  0  0  0
 18 15  1  0  0  0  0
 18 16  1  0  0  0  0
 19 21  1  0  0  0  0
 20 13  2  0  0  0  0
 20 14  1  0  0  0  0
 23 22  2  0  0  0  0
 24 23  1  0  0  0  0
 26 25  1  1  0  0  0
 26 24  1  0  0  0  0
 28 29  2  0  0  0  0
 29 27  1  0  0  0  0
 29 26  1  0  0  0  0
M  END
>  <MODEL>
5

>  <REMARK>
 VINA RESULT:      -7.0      1.752      2.112
  Name = 
  7 active torsions:
  status: ('A' for Active; 'I' for Inactive)
    1  A    between atoms: C_2  and  C_11
    2  A    between atoms: C_4  and  C_11
    3  A    between atoms: C_10  and  C_13
    4  A    between atoms: C_11  and  C_15
    5  A    between atoms: C_16  and  N_26
    6  A    between atoms: CA_18  and  C_25
    7  A    between atoms: CA_18  and  N_26
                            x       y       z     vdW  Elec       q    Type
                         _______ _______ _______ _____ _____    ______ ____

>  <TORSDO>
F 7

$$$$
=
 OpenBabel11042417263D

 29 32  0  0  1  0  0  0  0  0999 V2000
  188.0460  177.3890  144.2810 C   0  0  1  0  0  3  0  0  0  0  0  0
  186.2460  179.0070  145.0190 C   0  0  0  0  0  3  0  0  0  0  0  0
  185.1130  179.2730  145.7230 N   0  0  0  0  0  0  0  0  0  0  0  0
  185.0140  177.0250  146.5160 C   0  0  0  0  0  3  0  0  0  0  0  0
  186.8030  177.7230  145.0460 C   0  0  0  0  0  0  0  0  0  0  0  0
  184.4930  178.3170  146.4640 C   0  0  0  0  0  3  0  0  0  0  0  0
  186.1740  176.7320  145.8010 C   0  0  0  0  0  3  0  0  0  0  0  0
  189.2000  177.1070  145.1970 C   0  0  0  0  0  0  0  0  0  0  0  0
  191.3740  176.6580  145.8580 C   0  0  0  0  0  0  0  0  0  0  0  0
  190.4880  176.8360  144.7820 C   0  0  0  0  0  3  0  0  0  0  0  0
  190.8030  176.7980  147.1210 C   0  0  0  0  0  3  0  0  0  0  0  0
  189.1760  177.1470  146.8780 S   0  0  0  0  0  0  0  0  0  0  0  0
  195.3320  172.9950  145.3840 C   0  0  0  0  0  3  0  0  0  0  0  0
  193.0300  173.8390  145.7570 C   0  0  0  0  0  3  0  0  0  0  0  0
  194.8330  175.4280  145.3870 C   0  0  0  0  0  0  0  0  0  0  0  0
  192.8070  176.3830  145.6690 C   0  0  0  0  0  0  0  0  0  0  0  0
  195.9070  174.3940  145.2270 C   0  0  0  0  0  3  0  0  0  0  0  0
  193.4660  175.0880  145.6490 C   0  0  1  0  0  3  0  0  0  0  0  0
  194.9620  176.7080  145.2660 N   0  0  0  0  0  0  0  0  0  0  0  0
  194.0260  172.7470  145.6230 C   0  0  0  0  0  3  0  0  0  0  0  0
  193.7000  177.3000  145.4470 N   0  0  0  0  0  0  0  0  0  0  0  0
  187.8050  176.2810  143.3040 C   0  0  0  0  0  3  0  0  0  0  0  0
  188.0050  176.4610  142.0010 C   0  0  0  0  0  3  0  0  0  0  0  0
  187.7850  175.4150  141.0510 N   0  0  0  0  0  2  0  0  0  0  0  0
  188.5870  173.9450  139.2760 C   0  0  0  0  0  1  0  0  0  0  0  0
  188.7850  174.4130  140.7060 C   0  0  2  0  0  3  0  0  0  0  0  0
  189.7370  172.7210  142.0850 O   0  0  0  0  0  1  0  0  0  0  0  0
  187.4440  172.7560  142.0140 O   0  0  0  0  0  0  0  0  0  0  0  0
  188.6860  173.2540  141.6370 C   0  0  0  0  0  0  0  0  0  0  0  0
  1 22  1  1  0  0  0
  1  5  1  0  0  0  0
  1  8  1  0  0  0  0
  2  5  2  0  0  0  0
  2  3  1  0  0  0  0
  3  6  2  0  0  0  0
  5  7  1  0  0  0  0
  6  4  1  0  0  0  0
  7  4  2  0  0  0  0
  8 12  1  0  0  0  0
  9 11  2  0  0  0  0
 10  8  2  0  0  0  0
 10  9  1  0  0  0  0
 12 11  1  0  0  0  0
 13 20  1  0  0  0  0
 15 18  1  0  0  0  0
 16  9  1  0  0  0  0
 17 13  2  0  0  0  0
 17 15  1  0  0  0  0
 18 16  1  0  0  0  0
 18 14  1  6  0  0  0
 19 15  2  0  0  0  0
 19 21  1  0  0  0  0
 20 14  2  0  0  0  0
 21 16  2  0  0  0  0
 23 22  2  0  0  0  0
 24 23  1  0  0  0  0
 26 25  1  6  0  0  0
 26 24  1  0  0  0  0
 26 29  1  0  0  0  0
 29 28  2  0  0  0  0
 29 27  1  0  0  0  0
M  END
>  <MODEL>
6

>  <REMARK>
 VINA RESULT:      -7.0      1.909      6.990
  Name = 
  7 active torsions:
  status: ('A' for Active; 'I' for Inactive)
    1  A    between atoms: C_2  and  C_11
    2  A    between atoms: C_4  and  C_11
    3  A    between atoms: C_10  and  C_13
    4  A    between atoms: C_11  and  C_15
    5  A    between atoms: C_16  and  N_26
    6  A    between atoms: CA_18  and  C_25
    7  A    between atoms: CA_18  and  N_26
                            x       y       z     vdW  Elec       q    Type
                         _______ _______ _______ _____ _____    ______ ____

>  <TORSDO>
F 7

$$$$
=
 OpenBabel11042417263D

 29 32  0  0  1  0  0  0  0  0999 V2000
  185.8060  178.3920  143.3700 C   0  0  1  0  0  3  0  0  0  0  0  0
  185.6040  179.4520  145.6590 C   0  0  0  0  0  3  0  0  0  0  0  0
  185.4040  179.3410  146.9990 N   0  0  0  0  0  0  0  0  0  0  0  0
  185.1730  176.9730  146.8200 C   0  0  0  0  0  3  0  0  0  0  0  0
  185.5950  178.3100  144.8510 C   0  0  0  0  0  0  0  0  0  0  0  0
  185.1920  178.1350  147.5910 C   0  0  0  0  0  3  0  0  0  0  0  0
  185.3750  177.0660  145.4440 C   0  0  0  0  0  3  0  0  0  0  0  0
  187.0660  177.6940  142.9520 C   0  0  0  0  0  0  0  0  0  0  0  0
  189.2530  176.9350  143.0570 C   0  0  0  0  0  0  0  0  0  0  0  0
  188.2510  177.7160  143.6590 C   0  0  0  0  0  3  0  0  0  0  0  0
  188.8680  176.2860  141.8860 C   0  0  0  0  0  3  0  0  0  0  0  0
  187.2610  176.6980  141.6120 S   0  0  0  0  0  0  0  0  0  0  0  0
  192.2870  175.8050  147.3950 C   0  0  0  0  0  3  0  0  0  0  0  0
  190.2130  176.2230  146.1010 C   0  0  0  0  0  3  0  0  0  0  0  0
  192.3660  176.4030  144.9860 C   0  0  0  0  0  0  0  0  0  0  0  0
  190.5950  176.7810  143.6370 C   0  0  0  0  0  0  0  0  0  0  0  0
  193.1840  176.0560  146.1930 C   0  0  0  0  0  3  0  0  0  0  0  0
  190.9350  176.4730  145.0160 C   0  0  1  0  0  3  0  0  0  0  0  0
  192.8010  176.6280  143.7900 N   0  0  0  0  0  0  0  0  0  0  0  0
  190.9400  175.8800  147.3490 C   0  0  0  0  0  3  0  0  0  0  0  0
  191.6970  176.8670  142.9540 N   0  0  0  0  0  0  0  0  0  0  0  0
  184.6050  177.9080  142.6200 C   0  0  0  0  0  2  0  0  0  0  0  0
  183.5350  178.6840  142.4660 C   0  0  0  0  0  3  0  0  0  0  0  0
  182.3790  178.2430  141.7480 N   0  0  0  0  0  0  0  0  0  0  0  0
  180.7420  179.4140  143.1280 C   0  0  0  0  0  1  0  0  0  0  0  0
  181.1170  178.9720  141.7240 C   0  0  2  0  0  3  0  0  0  0  0  0
  179.2490  177.5110  141.9360 O   0  0  0  0  0  1  0  0  0  0  0  0
  179.9090  177.9560  139.7840 O   0  0  0  0  0  0  0  0  0  0  0  0
  180.0420  178.1080  141.1600 C   0  0  0  0  0  0  0  0  0  0  0  0
  1 22  1  6  0  0  0
  1  5  1  0  0  0  0
  2  3  1  0  0  0  0
  3  6  2  0  0  0  0
  4  6  1  0  0  0  0
  5  7  1  0  0  0  0
  5  2  2  0  0  0  0
  7  4  2  0  0  0  0
  8  1  1  0  0  0  0
  8 10  2  0  0  0  0
  9 16  1  0  0  0  0
  9 10  1  0  0  0  0
 11  9  2  0  0  0  0
 12 11  1  0  0  0  0
 12  8  1  0  0  0  0
 14 20  2  0  0  0  0
 15 18  1  0  0  0  0
 15 17  1  0  0  0  0
 16 18  1  0  0  0  0
 17 13  2  0  0  0  0
 18 14  1  6  0  0  0
 19 15  2  0  0  0  0
 20 13  1  0  0  0  0
 21 16  2  0  0  0  0
 21 19  1  0  0  0  0
 23 22  1  0  0  0  0
 24 23  2  0  0  0  0
 26 24  1  0  0  0  0
 26 25  1  1  0  0  0
 28 29  2  0  0  0  0
 29 26  1  0  0  0  0
 29 27  1  0  0  0  0
M  END
>  <MODEL>
7

>  <REMARK>
 VINA RESULT:      -6.9      3.652      7.933
  Name = 
  7 active torsions:
  status: ('A' for Active; 'I' for Inactive)
    1  A    between atoms: C_2  and  C_11
    2  A    between atoms: C_4  and  C_11
    3  A    between atoms: C_10  and  C_13
    4  A    between atoms: C_11  and  C_15
    5  A    between atoms: C_16  and  N_26
    6  A    between atoms: CA_18  and  C_25
    7  A    between atoms: CA_18  and  N_26
                            x       y       z     vdW  Elec       q    Type
                         _______ _______ _______ _____ _____    ______ ____

>  <TORSDO>
F 7

$$$$
=
 OpenBabel11042417263D

 29 32  0  0  1  0  0  0  0  0999 V2000
  191.8270  174.5560  143.8690 C   0  0  1  0  0  3  0  0  0  0  0  0
  194.3130  174.7680  143.4490 C   0  0  0  0  0  3  0  0  0  0  0  0
  195.5740  174.9880  143.9070 N   0  0  0  0  0  0  0  0  0  0  0  0
  194.7720  175.2640  146.1370 C   0  0  0  0  0  3  0  0  0  0  0  0
  193.2310  174.7890  144.3350 C   0  0  0  0  0  0  0  0  0  0  0  0
  195.8230  175.2330  145.2210 C   0  0  0  0  0  3  0  0  0  0  0  0
  193.4710  175.0420  145.6860 C   0  0  0  0  0  3  0  0  0  0  0  0
  190.9360  175.7190  144.1930 C   0  0  0  0  0  0  0  0  0  0  0  0
  189.1470  176.8860  145.0890 C   0  0  0  0  0  0  0  0  0  0  0  0
  189.7470  175.6310  144.8890 C   0  0  0  0  0  3  0  0  0  0  0  0
  189.8540  177.9670  144.5670 C   0  0  0  0  0  3  0  0  0  0  0  0
  191.2400  177.3380  143.8550 S   0  0  0  0  0  0  0  0  0  0  0  0
  184.1840  179.0390  145.2830 C   0  0  0  0  0  3  0  0  0  0  0  0
  186.4510  178.5980  144.3800 C   0  0  0  0  0  3  0  0  0  0  0  0
  185.8010  177.6000  146.5010 C   0  0  0  0  0  0  0  0  0  0  0  0
  187.8850  177.0530  145.8260 C   0  0  0  0  0  0  0  0  0  0  0  0
  184.4200  178.1820  146.5170 C   0  0  0  0  0  2  0  0  0  0  0  0
  186.7320  177.8500  145.4400 C   0  0  0  0  0  0  0  0  0  0  0  0
  186.3130  176.7890  147.3670 N   0  0  0  0  0  0  0  0  0  0  0  0
  185.1080  179.2240  144.3160 C   0  0  0  0  0  3  0  0  0  0  0  0
  187.6120  176.4540  146.9450 N   0  0  0  0  0  0  0  0  0  0  0  0
  191.7870  174.1890  142.4180 C   0  0  0  0  0  3  0  0  0  0  0  0
  190.6340  174.1340  141.7570 C   0  0  0  0  0  3  0  0  0  0  0  0
  190.5740  173.7900  140.3700 N   0  0  0  0  0  2  0  0  0  0  0  0
  188.2820  173.0410  140.7450 C   0  0  0  0  0  1  0  0  0  0  0  0
  189.3830  173.2570  139.7210 C   0  0  2  0  0  3  0  0  0  0  0  0
  189.5540  171.8670  137.7970 O   0  0  0  0  0  0  0  0  0  0  0  0
  190.1700  170.8840  139.7760 O   0  0  0  0  0  1  0  0  0  0  0  0
  189.7050  171.9710  139.0430 C   0  0  0  0  0  0  0  0  0  0  0  0
  1 22  1  6  0  0  0
  1  8  1  0  0  0  0
  1  5  1  0  0  0  0
  2  3  2  0  0  0  0
  2  5  1  0  0  0  0
  3  6  1  0  0  0  0
  5  7  2  0  0  0  0
  6  4  2  0  0  0  0
  7  4  1  0  0  0  0
  8 10  2  0  0  0  0
  9 16  1  0  0  0  0
 10  9  1  0  0  0  0
 11  9  2  0  0  0  0
 12  8  1  0  0  0  0
 12 11  1  0  0  0  0
 13 17  1  0  0  0  0
 14 18  2  0  0  0  0
 15 17  1  0  0  0  0
 15 19  2  0  0  0  0
 16 21  2  0  0  0  0
 18 16  1  0  0  0  0
 18 15  1  0  0  0  0
 20 14  1  0  0  0  0
 20 13  2  0  0  0  0
 21 19  1  0  0  0  0
 23 22  2  0  0  0  0
 24 23  1  0  0  0  0
 26 24  1  0  0  0  0
 26 25  1  1  0  0  0
 27 29  2  0  0  0  0
 29 26  1  0  0  0  0
 29 28  1  0  0  0  0
M  END
>  <MODEL>
8

>  <REMARK>
 VINA RESULT:      -6.8      2.154      2.581
  Name = 
  7 active torsions:
  status: ('A' for Active; 'I' for Inactive)
    1  A    between atoms: C_2  and  C_11
    2  A    between atoms: C_4  and  C_11
    3  A    between atoms: C_10  and  C_13
    4  A    between atoms: C_11  and  C_15
    5  A    between atoms: C_16  and  N_26
    6  A    between atoms: CA_18  and  C_25
    7  A    between atoms: CA_18  and  N_26
                            x       y       z     vdW  Elec       q    Type
                         _______ _______ _______ _____ _____    ______ ____

>  <TORSDO>
F 7

$$$$
=
 OpenBabel11042417263D

 29 32  0  0  1  0  0  0  0  0999 V2000
  190.7190  174.8610  142.1030 C   0  0  1  0  0  3  0  0  0  0  0  0
  191.1910  173.0620  140.3870 C   0  0  0  0  0  3  0  0  0  0  0  0
  191.1740  171.7560  140.0090 N   0  0  0  0  0  0  0  0  0  0  0  0
  190.2160  171.1110  142.0970 C   0  0  0  0  0  3  0  0  0  0  0  0
  190.7130  173.4340  141.6490 C   0  0  0  0  0  0  0  0  0  0  0  0
  190.6990  170.7820  140.8310 C   0  0  0  0  0  3  0  0  0  0  0  0
  190.2260  172.4450  142.5030 C   0  0  0  0  0  3  0  0  0  0  0  0
  189.3430  175.4570  142.0730 C   0  0  0  0  0  0  0  0  0  0  0  0
  187.5460  176.7760  142.7030 C   0  0  0  0  0  0  0  0  0  0  0  0
  188.8490  176.3460  143.0070 C   0  0  0  0  0  3  0  0  0  0  0  0
  187.0080  176.2450  141.5320 C   0  0  0  0  0  3  0  0  0  0  0  0
  188.1810  175.2320  140.8800 S   0  0  0  0  0  0  0  0  0  0  0  0
  185.7380  178.1840  147.6070 C   0  0  0  0  0  3  0  0  0  0  0  0
  186.8240  176.7580  145.8930 C   0  0  0  0  0  3  0  0  0  0  0  0
  185.8430  178.8810  145.2260 C   0  0  0  0  0  0  0  0  0  0  0  0
  186.8160  177.7450  143.5350 C   0  0  0  0  0  0  0  0  0  0  0  0
  185.3790  179.2640  146.5990 C   0  0  0  0  0  3  0  0  0  0  0  0
  186.5270  177.6510  144.9570 C   0  0  1  0  0  3  0  0  0  0  0  0
  185.7460  179.5870  144.1480 N   0  0  0  0  0  0  0  0  0  0  0  0
  186.3940  177.0490  147.2830 C   0  0  0  0  0  3  0  0  0  0  0  0
  186.3490  178.8740  143.0960 N   0  0  0  0  0  0  0  0  0  0  0  0
  191.3800  175.0060  143.4390 C   0  0  0  0  0  3  0  0  0  0  0  0
  192.6510  175.3830  143.5370 C   0  0  0  0  0  3  0  0  0  0  0  0
  193.3000  175.5320  144.8030 N   0  0  0  0  0  2  0  0  0  0  0  0
  194.1960  176.8950  146.6180 C   0  0  0  0  0  1  0  0  0  0  0  0
  192.9860  176.5930  145.7510 C   0  0  2  0  0  3  0  0  0  0  0  0
  191.9940  175.2860  147.4750 O   0  0  0  0  0  1  0  0  0  0  0  0
  190.5950  176.7900  146.4550 O   0  0  0  0  0  0  0  0  0  0  0  0
  191.8380  176.1860  146.6080 C   0  0  0  0  0  0  0  0  0  0  0  0
  1 22  1  1  0  0  0
  2  5  1  0  0  0  0
  3  2  2  0  0  0  0
  3  6  1  0  0  0  0
  4  7  1  0  0  0  0
  5  1  1  0  0  0  0
  5  7  2  0  0  0  0
  6  4  2  0  0  0  0
  8  1  1  0  0  0  0
  8 10  2  0  0  0  0
  9 10  1  0  0  0  0
  9 16  1  0  0  0  0
 11  9  2  0  0  0  0
 12 11  1  0  0  0  0
 12  8  1  0  0  0  0
 14 20  2  0  0  0  0
 15 17  1  0  0  0  0
 16 18  1  0  0  0  0
 17 13  2  0  0  0  0
 18 15  1  0  0  0  0
 18 14  1  1  0  0  0
 19 15  2  0  0  0  0
 20 13  1  0  0  0  0
 21 16  2  0  0  0  0
 21 19  1  0  0  0  0
 22 23  2  0  0  0  0
 23 24  1  0  0  0  0
 24 26  1  0  0  0  0
 26 29  1  0  0  0  0
 26 25  1  1  0  0  0
 28 29  2  0  0  0  0
 29 27  1  0  0  0  0
M  END
>  <MODEL>
9

>  <REMARK>
 VINA RESULT:      -6.7      2.547      4.890
  Name = 
  7 active torsions:
  status: ('A' for Active; 'I' for Inactive)
    1  A    between atoms: C_2  and  C_11
    2  A    between atoms: C_4  and  C_11
    3  A    between atoms: C_10  and  C_13
    4  A    between atoms: C_11  and  C_15
    5  A    between atoms: C_16  and  N_26
    6  A    between atoms: CA_18  and  C_25
    7  A    between atoms: CA_18  and  N_26
                            x       y       z     vdW  Elec       q    Type
                         _______ _______ _______ _____ _____    ______ ____

>  <TORSDO>
F 7

$$$$
