=
 OpenBabel11042418263D

 28 33  0  0  1  0  0  0  0  0999 V2000
  187.6090  177.1860  145.6680 C   0  0  0  0  0  0  0  0  0  0  0  0
  187.5230  176.4700  142.7010 N   0  0  0  0  0  0  0  0  0  0  0  0
  187.5810  177.6400  146.9910 C   0  0  0  0  0  3  0  0  0  0  0  0
  188.5020  175.5550  143.1510 C   0  0  0  0  0  0  0  0  0  0  0  0
  186.7270  178.6430  147.4070 C   0  0  0  0  0  0  0  0  0  0  0  0
  188.9340  175.4180  144.3850 C   0  0  0  0  0  3  0  0  0  0  0  0
  186.7350  179.1720  149.0750 Cl  0  0  0  0  0  0  0  0  0  0  0  0
  184.5160  178.4320  140.5640 C   0  0  0  0  0  1  0  0  0  0  0  0
  188.5060  176.2080  145.5260 C   0  0  0  0  0  3  0  0  0  0  0  0
  186.7020  177.7470  144.6920 C   0  0  0  0  0  0  0  0  0  0  0  0
  189.5110  172.0960  142.1800 C   0  0  0  0  0  3  0  0  0  0  0  0
  186.5710  177.2880  143.4030 C   0  0  0  0  0  0  0  0  0  0  0  0
  188.9590  174.7830  141.9740 C   0  0  1  0  0  0  0  0  0  0  0  0
  185.8770  178.8390  145.1580 C   0  0  0  0  0  0  0  0  0  0  0  0
  185.7470  178.0480  141.2360 N   0  0  0  0  0  0  0  0  0  0  0  0
  190.9170  171.8260  141.9950 C   0  0  0  0  0  0  0  0  0  0  0  0
  191.3550  170.4740  142.0760 N   0  0  0  0  0  1  0  0  0  0  0  0
  190.3040  174.4520  141.8050 C   0  0  0  0  0  0  0  0  0  0  0  0
  191.6200  174.1920  141.6320 C   0  0  0  0  0  3  0  0  0  0  0  0
  184.9110  179.9210  144.1480 Cl  0  0  0  0  0  0  0  0  0  0  0  0
  191.8720  172.8310  141.7420 N   0  0  0  0  0  0  0  0  0  0  0  0
  186.3380  176.9340  140.4780 C   0  0  1  0  0  3  0  0  0  0  0  0
  186.9230  177.4400  139.2430 N   0  0  0  0  0  1  0  0  0  0  0  0
  185.3510  177.5930  142.5700 C   0  0  0  0  0  2  0  0  0  0  0  0
  189.2870  173.4310  142.0700 C   0  0  0  0  0  0  0  0  0  0  0  0
  188.1800  175.2670  140.8120 C   0  0  0  0  0  3  0  0  0  0  0  0
  187.3960  176.2390  141.2880 C   0  0  0  0  0  0  0  0  0  0  0  0
  185.9000  179.2520  146.4880 C   0  0  0  0  0  3  0  0  0  0  0  0
  1  3  1  0  0  0  0
  2  4  1  0  0  0  0
  2 12  1  0  0  0  0
  3  5  2  0  0  0  0
  4  6  2  0  0  0  0
  5  7  1  0  0  0  0
  6  9  1  0  0  0  0
  8 15  1  0  0  0  0
  9  1  2  0  0  0  0
 10 14  1  0  0  0  0
 10  1  1  0  0  0  0
 12 10  2  0  0  0  0
 13 26  1  6  0  0  0
 13 25  1  0  0  0  0
 13  4  1  0  0  0  0
 14 28  2  0  0  0  0
 15 24  1  0  0  0  0
 16 17  1  0  0  0  0
 16 11  2  0  0  0  0
 18 13  1  0  0  0  0
 18 25  2  0  0  0  0
 19 21  2  0  0  0  0
 19 18  1  0  0  0  0
 20 14  1  0  0  0  0
 21 16  1  0  0  0  0
 22 23  1  6  0  0  0
 22 15  1  0  0  0  0
 22 27  1  0  0  0  0
 24 12  1  0  0  0  0
 25 11  1  0  0  0  0
 26 27  2  0  0  0  0
 27  2  1  0  0  0  0
 28  5  1  0  0  0  0
M  END
>  <MODEL>
1

>  <REMARK>
 VINA RESULT:      -8.1      0.000      0.000
  Name = 
  0 active torsions:
  status: ('A' for Active; 'I' for Inactive)
                            x       y       z     vdW  Elec       q    Type
                         _______ _______ _______ _____ _____    ______ ____

>  <TORSDO>
F 0

$$$$
=
 OpenBabel11042418263D

 28 33  0  0  1  0  0  0  0  0999 V2000
  189.3040  176.6110  145.5480 C   0  0  0  0  0  0  0  0  0  0  0  0
  190.8020  174.9600  143.4610 N   0  0  0  0  0  0  0  0  0  0  0  0
  188.5150  177.3900  146.4010 C   0  0  0  0  0  3  0  0  0  0  0  0
  191.8410  175.1900  144.3910 C   0  0  0  0  0  0  0  0  0  0  0  0
  187.1780  177.6300  146.1520 C   0  0  0  0  0  0  0  0  0  0  0  0
  191.7450  175.8580  145.5200 C   0  0  0  0  0  3  0  0  0  0  0  0
  186.2380  178.6120  147.2530 Cl  0  0  0  0  0  0  0  0  0  0  0  0
  188.3610  173.4200  140.4390 C   0  0  0  0  0  1  0  0  0  0  0  0
  190.5510  176.5190  146.0140 C   0  0  0  0  0  3  0  0  0  0  0  0
  188.7160  176.0000  144.3770 C   0  0  0  0  0  0  0  0  0  0  0  0
  194.8200  173.2560  145.5330 C   0  0  0  0  0  3  0  0  0  0  0  0
  189.3760  175.1260  143.5460 C   0  0  0  0  0  0  0  0  0  0  0  0
  193.0620  174.5460  143.8580 C   0  0  1  0  0  0  0  0  0  0  0  0
  187.3330  176.3360  144.1210 C   0  0  0  0  0  0  0  0  0  0  0  0
  189.2180  174.2440  141.2770 N   0  0  0  0  0  0  0  0  0  0  0  0
  196.0890  173.9420  145.6040 C   0  0  0  0  0  0  0  0  0  0  0  0
  197.1030  173.3910  146.4360 N   0  0  0  0  0  1  0  0  0  0  0  0
  194.3100  175.1580  143.9710 C   0  0  0  0  0  0  0  0  0  0  0  0
  195.5010  175.7960  144.0400 C   0  0  0  0  0  3  0  0  0  0  0  0
  186.4380  176.0100  142.6330 Cl  0  0  0  0  0  0  0  0  0  0  0  0
  196.3690  175.1260  144.8920 N   0  0  0  0  0  0  0  0  0  0  0  0
  190.5540  173.6270  141.2870 C   0  0  1  0  0  3  0  0  0  0  0  0
  191.2140  173.8700  140.0110 N   0  0  0  0  0  1  0  0  0  0  0  0
  188.6330  174.1970  142.6180 C   0  0  0  0  0  2  0  0  0  0  0  0
  193.9870  173.9280  144.6970 C   0  0  0  0  0  0  0  0  0  0  0  0
  192.6840  173.8990  142.5810 C   0  0  0  0  0  3  0  0  0  0  0  0
  191.3920  174.1890  142.4020 C   0  0  0  0  0  0  0  0  0  0  0  0
  186.6020  177.1250  145.0070 C   0  0  0  0  0  3  0  0  0  0  0  0
  1  9  2  0  0  0  0
  1  3  1  0  0  0  0
  2 12  1  0  0  0  0
  2  4  1  0  0  0  0
  4  6  2  0  0  0  0
  5  3  2  0  0  0  0
  5  7  1  0  0  0  0
  6  9  1  0  0  0  0
  8 15  1  0  0  0  0
 10  1  1  0  0  0  0
 11 16  1  0  0  0  0
 12 10  2  0  0  0  0
 13 26  1  6  0  0  0
 13 18  1  0  0  0  0
 13  4  1  0  0  0  0
 13 25  1  0  0  0  0
 14 10  1  0  0  0  0
 14 28  2  0  0  0  0
 15 22  1  0  0  0  0
 15 24  1  0  0  0  0
 16 17  1  0  0  0  0
 18 19  2  0  0  0  0
 18 25  1  0  0  0  0
 19 21  1  0  0  0  0
 20 14  1  0  0  0  0
 21 16  2  0  0  0  0
 22 23  1  6  0  0  0
 22 27  1  0  0  0  0
 24 12  1  0  0  0  0
 25 11  2  0  0  0  0
 27 26  2  0  0  0  0
 27  2  1  0  0  0  0
 28  5  1  0  0  0  0
M  END
>  <MODEL>
2

>  <REMARK>
 VINA RESULT:      -7.9      3.218      4.550
  Name = 
  0 active torsions:
  status: ('A' for Active; 'I' for Inactive)
                            x       y       z     vdW  Elec       q    Type
                         _______ _______ _______ _____ _____    ______ ____

>  <TORSDO>
F 0

$$$$
=
 OpenBabel11042418263D

 28 33  0  0  1  0  0  0  0  0999 V2000
  189.0680  173.6310  141.2370 C   0  0  0  0  0  0  0  0  0  0  0  0
  190.0170  175.5070  143.4510 N   0  0  0  0  0  0  0  0  0  0  0  0
  188.7740  172.7620  140.1800 C   0  0  0  0  0  3  0  0  0  0  0  0
  188.6340  175.8020  143.4490 C   0  0  0  0  0  0  0  0  0  0  0  0
  189.7400  171.9780  139.5820 C   0  0  0  0  0  0  0  0  0  0  0  0
  187.7210  175.2570  142.6760 C   0  0  0  0  0  3  0  0  0  0  0  0
  189.3160  170.9090  138.2630 Cl  0  0  0  0  0  0  0  0  0  0  0  0
  194.0340  175.0160  144.4900 C   0  0  0  0  0  1  0  0  0  0  0  0
  187.9660  174.2620  141.6460 C   0  0  0  0  0  3  0  0  0  0  0  0
  190.4140  173.7050  141.7590 C   0  0  0  0  0  0  0  0  0  0  0  0
  186.1540  176.7910  146.0550 C   0  0  0  0  0  3  0  0  0  0  0  0
  190.7760  174.4350  142.8650 C   0  0  0  0  0  0  0  0  0  0  0  0
  188.4030  176.8440  144.4730 C   0  0  1  0  0  0  0  0  0  0  0  0
  191.4030  172.9180  141.0560 C   0  0  0  0  0  0  0  0  0  0  0  0
  192.7730  175.4030  143.8780 N   0  0  0  0  0  0  0  0  0  0  0  0
  185.2760  177.9010  145.7700 C   0  0  0  0  0  0  0  0  0  0  0  0
  184.0660  178.0060  146.5120 N   0  0  0  0  0  1  0  0  0  0  0  0
  187.5110  177.8930  144.2490 C   0  0  0  0  0  0  0  0  0  0  0  0
  186.6860  178.9320  143.9870 C   0  0  0  0  0  3  0  0  0  0  0  0
  193.1560  173.0330  141.2470 Cl  0  0  0  0  0  0  0  0  0  0  0  0
  185.5590  178.8810  144.7970 N   0  0  0  0  0  0  0  0  0  0  0  0
  192.0360  176.2180  144.8580 C   0  0  1  0  0  3  0  0  0  0  0  0
  192.6410  177.5410  144.9460 N   0  0  0  0  0  1  0  0  0  0  0  0
  192.0520  174.1550  143.6190 C   0  0  0  0  0  2  0  0  0  0  0  0
  187.2470  176.8590  145.2520 C   0  0  0  0  0  0  0  0  0  0  0  0
  189.7130  177.1280  145.1020 C   0  0  0  0  0  3  0  0  0  0  0  0
  190.5920  176.3510  144.4620 C   0  0  0  0  0  0  0  0  0  0  0  0
  191.0480  172.0770  140.0040 C   0  0  0  0  0  3  0  0  0  0  0  0
  1  9  2  0  0  0  0
  1 10  1  0  0  0  0
  2 27  1  0  0  0  0
  3  1  1  0  0  0  0
  4  2  1  0  0  0  0
  4 13  1  0  0  0  0
  5 28  1  0  0  0  0
  5  3  2  0  0  0  0
  6  4  2  0  0  0  0
  7  5  1  0  0  0  0
  9  6  1  0  0  0  0
 10 12  2  0  0  0  0
 12  2  1  0  0  0  0
 12 24  1  0  0  0  0
 13 26  1  1  0  0  0
 13 25  1  0  0  0  0
 14 20  1  0  0  0  0
 14 10  1  0  0  0  0
 15  8  1  0  0  0  0
 15 22  1  0  0  0  0
 16 11  1  0  0  0  0
 16 17  1  0  0  0  0
 18 13  1  0  0  0  0
 18 25  1  0  0  0  0
 19 18  2  0  0  0  0
 19 21  1  0  0  0  0
 21 16  2  0  0  0  0
 22 23  1  6  0  0  0
 24 15  1  0  0  0  0
 25 11  2  0  0  0  0
 27 22  1  0  0  0  0
 27 26  2  0  0  0  0
 28 14  2  0  0  0  0
M  END
>  <MODEL>
3

>  <REMARK>
 VINA RESULT:      -7.5      3.888      7.786
  Name = 
  0 active torsions:
  status: ('A' for Active; 'I' for Inactive)
                            x       y       z     vdW  Elec       q    Type
                         _______ _______ _______ _____ _____    ______ ____

>  <TORSDO>
F 0

$$$$
=
 OpenBabel11042418263D

 28 33  0  0  1  0  0  0  0  0999 V2000
  186.3450  176.8220  143.4420 C   0  0  0  0  0  0  0  0  0  0  0  0
  188.9860  175.7330  144.5200 N   0  0  0  0  0  0  0  0  0  0  0  0
  185.1070  177.3680  143.0850 C   0  0  0  0  0  3  0  0  0  0  0  0
  188.8960  175.0140  143.3070 C   0  0  0  0  0  0  0  0  0  0  0  0
  184.4680  178.3130  143.8620 C   0  0  0  0  0  0  0  0  0  0  0  0
  187.9340  175.1050  142.4150 C   0  0  0  0  0  3  0  0  0  0  0  0
  182.9200  178.9610  143.3680 Cl  0  0  0  0  0  0  0  0  0  0  0  0
  190.3270  177.6480  147.9830 C   0  0  0  0  0  1  0  0  0  0  0  0
  186.7540  175.9450  142.5230 C   0  0  0  0  0  3  0  0  0  0  0  0
  187.0120  177.2680  144.6440 C   0  0  0  0  0  0  0  0  0  0  0  0
  191.3680  173.7170  140.8310 C   0  0  0  0  0  3  0  0  0  0  0  0
  188.2780  176.8820  145.0160 C   0  0  0  0  0  0  0  0  0  0  0  0
  190.0820  174.1330  143.2260 C   0  0  1  0  0  0  0  0  0  0  0  0
  186.2730  178.2070  145.4600 C   0  0  0  0  0  0  0  0  0  0  0  0
  189.6760  176.7830  147.0130 N   0  0  0  0  0  0  0  0  0  0  0  0
  191.2250  172.3530  140.3800 C   0  0  0  0  0  0  0  0  0  0  0  0
  191.8380  171.9860  139.1490 N   0  0  0  0  0  1  0  0  0  0  0  0
  189.9830  172.8310  142.7330 C   0  0  0  0  0  0  0  0  0  0  0  0
  189.8530  171.5550  142.3060 C   0  0  0  0  0  3  0  0  0  0  0  0
  186.6710  178.6930  147.1110 Cl  0  0  0  0  0  0  0  0  0  0  0  0
  190.5090  171.3710  141.0960 N   0  0  0  0  0  0  0  0  0  0  0  0
  190.7170  175.9450  146.3970 C   0  0  1  0  0  3  0  0  0  0  0  0
  191.1400  174.9180  147.3410 N   0  0  0  0  0  1  0  0  0  0  0  0
  189.0910  177.6750  146.0100 C   0  0  0  0  0  2  0  0  0  0  0  0
  190.7190  173.8740  142.0130 C   0  0  0  0  0  0  0  0  0  0  0  0
  190.8930  174.3890  144.4390 C   0  0  0  0  0  3  0  0  0  0  0  0
  190.2050  175.2940  145.1430 C   0  0  0  0  0  0  0  0  0  0  0  0
  185.0390  178.7080  145.0520 C   0  0  0  0  0  3  0  0  0  0  0  0
  1 10  1  0  0  0  0
  2 12  1  0  0  0  0
  2 27  1  0  0  0  0
  3  1  1  0  0  0  0
  3  5  2  0  0  0  0
  4  2  1  0  0  0  0
  5 28  1  0  0  0  0
  6  9  1  0  0  0  0
  6  4  2  0  0  0  0
  7  5  1  0  0  0  0
  9  1  2  0  0  0  0
 10 12  2  0  0  0  0
 10 14  1  0  0  0  0
 11 25  1  0  0  0  0
 12 24  1  0  0  0  0
 13  4  1  0  0  0  0
 13 26  1  1  0  0  0
 14 20  1  0  0  0  0
 15  8  1  0  0  0  0
 16 11  2  0  0  0  0
 16 21  1  0  0  0  0
 17 16  1  0  0  0  0
 18 13  1  0  0  0  0
 19 18  1  0  0  0  0
 21 19  2  0  0  0  0
 22 15  1  0  0  0  0
 22 23  1  1  0  0  0
 24 15  1  0  0  0  0
 25 18  2  0  0  0  0
 25 13  1  0  0  0  0
 26 27  2  0  0  0  0
 27 22  1  0  0  0  0
 28 14  2  0  0  0  0
M  END
>  <MODEL>
4

>  <REMARK>
 VINA RESULT:      -7.5      2.127      4.397
  Name = 
  0 active torsions:
  status: ('A' for Active; 'I' for Inactive)
                            x       y       z     vdW  Elec       q    Type
                         _______ _______ _______ _____ _____    ______ ____

>  <TORSDO>
F 0

$$$$
=
 OpenBabel11042418263D

 28 33  0  0  1  0  0  0  0  0999 V2000
  189.5670  172.7300  142.2770 C   0  0  0  0  0  0  0  0  0  0  0  0
  189.6760  175.6770  143.0710 N   0  0  0  0  0  0  0  0  0  0  0  0
  189.6630  171.3780  141.9300 C   0  0  0  0  0  3  0  0  0  0  0  0
  188.3910  175.6230  142.4840 C   0  0  0  0  0  0  0  0  0  0  0  0
  190.7710  170.6150  142.2430 C   0  0  0  0  0  0  0  0  0  0  0  0
  187.8120  174.5610  141.9690 C   0  0  0  0  0  3  0  0  0  0  0  0
  190.8380  168.9280  141.7830 Cl  0  0  0  0  0  0  0  0  0  0  0  0
  193.0420  176.7080  145.3220 C   0  0  0  0  0  1  0  0  0  0  0  0
  188.3990  173.2360  141.8760 C   0  0  0  0  0  3  0  0  0  0  0  0
  190.6350  173.3650  143.0170 C   0  0  0  0  0  0  0  0  0  0  0  0
  185.1500  177.3690  143.0910 C   0  0  0  0  0  3  0  0  0  0  0  0
  190.5820  174.6480  143.5050 C   0  0  0  0  0  0  0  0  0  0  0  0
  187.8190  176.9860  142.5490 C   0  0  1  0  0  0  0  0  0  0  0  0
  191.8010  172.5450  143.2610 C   0  0  0  0  0  0  0  0  0  0  0  0
  192.0910  176.4090  144.2630 N   0  0  0  0  0  0  0  0  0  0  0  0
  184.4480  177.9120  141.9520 C   0  0  0  0  0  0  0  0  0  0  0  0
  183.0530  178.1640  142.0830 N   0  0  0  0  0  1  0  0  0  0  0  0
  187.0810  177.5110  141.4870 C   0  0  0  0  0  0  0  0  0  0  0  0
  186.4180  178.0210  140.4240 C   0  0  0  0  0  3  0  0  0  0  0  0
  193.3680  173.1090  143.8500 Cl  0  0  0  0  0  0  0  0  0  0  0  0
  185.0750  178.2030  140.7230 N   0  0  0  0  0  0  0  0  0  0  0  0
  191.0610  177.4590  144.2820 C   0  0  1  0  0  3  0  0  0  0  0  0
  191.6090  178.6910  143.7290 N   0  0  0  0  0  1  0  0  0  0  0  0
  191.4980  175.1160  144.6090 C   0  0  0  0  0  2  0  0  0  0  0  0
  186.4600  177.1980  142.7770 C   0  0  0  0  0  0  0  0  0  0  0  0
  188.8180  177.8410  143.2300 C   0  0  0  0  0  3  0  0  0  0  0  0
  189.8580  177.0420  143.4830 C   0  0  0  0  0  0  0  0  0  0  0  0
  191.8400  171.2050  142.8820 C   0  0  0  0  0  3  0  0  0  0  0  0
  1 10  1  0  0  0  0
  2 27  1  0  0  0  0
  2 12  1  0  0  0  0
  3  5  2  0  0  0  0
  3  1  1  0  0  0  0
  4 13  1  0  0  0  0
  4  2  1  0  0  0  0
  5 28  1  0  0  0  0
  6  4  2  0  0  0  0
  7  5  1  0  0  0  0
  9  6  1  0  0  0  0
  9  1  2  0  0  0  0
 10 14  1  0  0  0  0
 10 12  2  0  0  0  0
 12 24  1  0  0  0  0
 13 25  1  0  0  0  0
 13 26  1  1  0  0  0
 14 20  1  0  0  0  0
 15 22  1  0  0  0  0
 15 24  1  0  0  0  0
 15  8  1  0  0  0  0
 16 17  1  0  0  0  0
 16 11  2  0  0  0  0
 18 13  1  0  0  0  0
 18 25  2  0  0  0  0
 19 21  2  0  0  0  0
 19 18  1  0  0  0  0
 21 16  1  0  0  0  0
 22 23  1  6  0  0  0
 25 11  1  0  0  0  0
 26 27  2  0  0  0  0
 27 22  1  0  0  0  0
 28 14  2  0  0  0  0
M  END
>  <MODEL>
5

>  <REMARK>
 VINA RESULT:      -7.5      3.747      7.365
  Name = 
  0 active torsions:
  status: ('A' for Active; 'I' for Inactive)
                            x       y       z     vdW  Elec       q    Type
                         _______ _______ _______ _____ _____    ______ ____

>  <TORSDO>
F 0

$$$$
=
 OpenBabel11042418263D

 28 33  0  0  1  0  0  0  0  0999 V2000
  192.4460  176.1350  143.4570 C   0  0  0  0  0  0  0  0  0  0  0  0
  189.6860  175.1420  142.6110 N   0  0  0  0  0  0  0  0  0  0  0  0
  193.7610  176.4560  143.8110 C   0  0  0  0  0  3  0  0  0  0  0  0
  189.3220  176.2900  143.3510 C   0  0  0  0  0  0  0  0  0  0  0  0
  194.8420  175.7140  143.3770 C   0  0  0  0  0  0  0  0  0  0  0  0
  190.1420  177.1260  143.9480 C   0  0  0  0  0  3  0  0  0  0  0  0
  196.4660  176.1610  143.8510 Cl  0  0  0  0  0  0  0  0  0  0  0  0
  189.7790  171.9200  139.9510 C   0  0  0  0  0  1  0  0  0  0  0  0
  191.5900  177.0090  143.9890 C   0  0  0  0  0  3  0  0  0  0  0  0
  192.1860  175.0130  142.5840 C   0  0  0  0  0  0  0  0  0  0  0  0
  186.5780  178.8080  143.1150 C   0  0  0  0  0  3  0  0  0  0  0  0
  190.9460  174.6910  142.0850 C   0  0  0  0  0  0  0  0  0  0  0  0
  187.8450  176.3760  143.3350 C   0  0  1  0  0  0  0  0  0  0  0  0
  193.3410  174.2260  142.2120 C   0  0  0  0  0  0  0  0  0  0  0  0
  189.7710  172.7820  141.1230 N   0  0  0  0  0  0  0  0  0  0  0  0
  185.8620  179.1460  144.3220 C   0  0  0  0  0  0  0  0  0  0  0  0
  185.1560  180.3810  144.3590 N   0  0  0  0  0  1  0  0  0  0  0  0
  187.1320  176.7640  144.4700 C   0  0  0  0  0  0  0  0  0  0  0  0
  186.4580  177.0850  145.5980 C   0  0  0  0  0  3  0  0  0  0  0  0
  193.3170  172.6430  141.4280 Cl  0  0  0  0  0  0  0  0  0  0  0  0
  185.8300  178.3160  145.4620 N   0  0  0  0  0  0  0  0  0  0  0  0
  188.4370  173.3950  141.2130 C   0  0  1  0  0  3  0  0  0  0  0  0
  187.4740  172.4050  141.6760 N   0  0  0  0  0  1  0  0  0  0  0  0
  190.7810  173.8110  140.8710 C   0  0  0  0  0  2  0  0  0  0  0  0
  187.1860  177.6030  143.2710 C   0  0  0  0  0  0  0  0  0  0  0  0
  187.3550  175.2380  142.5240 C   0  0  0  0  0  3  0  0  0  0  0  0
  188.4500  174.5640  142.1590 C   0  0  0  0  0  0  0  0  0  0  0  0
  194.6270  174.5940  142.6040 C   0  0  0  0  0  3  0  0  0  0  0  0
  1  3  1  0  0  0  0
  1  9  2  0  0  0  0
  2  4  1  0  0  0  0
  4  6  2  0  0  0  0
  5  3  2  0  0  0  0
  5  7  1  0  0  0  0
  6  9  1  0  0  0  0
  8 15  1  0  0  0  0
 10  1  1  0  0  0  0
 11 25  2  0  0  0  0
 11 16  1  0  0  0  0
 12 10  2  0  0  0  0
 12  2  1  0  0  0  0
 13 26  1  6  0  0  0
 13  4  1  0  0  0  0
 13 18  1  0  0  0  0
 14 10  1  0  0  0  0
 14 28  2  0  0  0  0
 15 22  1  0  0  0  0
 16 17  1  0  0  0  0
 16 21  2  0  0  0  0
 18 19  2  0  0  0  0
 20 14  1  0  0  0  0
 21 19  1  0  0  0  0
 22 23  1  1  0  0  0
 22 27  1  0  0  0  0
 24 15  1  0  0  0  0
 24 12  1  0  0  0  0
 25 13  1  0  0  0  0
 25 18  1  0  0  0  0
 27 26  2  0  0  0  0
 27  2  1  0  0  0  0
 28  5  1  0  0  0  0
M  END
>  <MODEL>
6

>  <REMARK>
 VINA RESULT:      -7.5      3.814      7.088
  Name = 
  0 active torsions:
  status: ('A' for Active; 'I' for Inactive)
                            x       y       z     vdW  Elec       q    Type
                         _______ _______ _______ _____ _____    ______ ____

>  <TORSDO>
F 0

$$$$
=
 OpenBabel11042418263D

 28 33  0  0  1  0  0  0  0  0999 V2000
  187.6060  176.1470  143.3620 C   0  0  0  0  0  0  0  0  0  0  0  0
  190.4030  174.9270  143.4620 N   0  0  0  0  0  0  0  0  0  0  0  0
  186.3390  176.7330  143.4590 C   0  0  0  0  0  3  0  0  0  0  0  0
  189.9380  174.3860  142.2410 C   0  0  0  0  0  0  0  0  0  0  0  0
  185.9890  177.5560  144.5120 C   0  0  0  0  0  0  0  0  0  0  0  0
  188.7630  174.5990  141.6900 C   0  0  0  0  0  3  0  0  0  0  0  0
  184.3900  178.2630  144.5840 Cl  0  0  0  0  0  0  0  0  0  0  0  0
  192.7610  176.3350  146.6110 C   0  0  0  0  0  1  0  0  0  0  0  0
  187.6980  175.4110  142.2520 C   0  0  0  0  0  3  0  0  0  0  0  0
  188.6090  176.4210  144.3660 C   0  0  0  0  0  0  0  0  0  0  0  0
  191.5360  173.4630  138.9980 C   0  0  0  0  0  3  0  0  0  0  0  0
  189.9120  175.9900  144.2950 C   0  0  0  0  0  0  0  0  0  0  0  0
  191.0160  173.5300  141.6980 C   0  0  1  0  0  0  0  0  0  0  0  0
  188.1740  177.2310  145.4820 C   0  0  0  0  0  0  0  0  0  0  0  0
  191.8240  175.6140  145.7630 N   0  0  0  0  0  0  0  0  0  0  0  0
  191.2170  172.1770  138.4260 C   0  0  0  0  0  0  0  0  0  0  0  0
  191.4340  171.9910  137.0320 N   0  0  0  0  0  1  0  0  0  0  0  0
  190.7290  172.3120  141.0810 C   0  0  0  0  0  0  0  0  0  0  0  0
  190.4330  171.1080  140.5410 C   0  0  0  0  0  3  0  0  0  0  0  0
  189.0510  177.4790  146.9960 Cl  0  0  0  0  0  0  0  0  0  0  0  0
  190.7030  171.1010  139.1790 N   0  0  0  0  0  0  0  0  0  0  0  0
  192.6100  174.8760  144.7620 C   0  0  1  0  0  3  0  0  0  0  0  0
  193.2480  173.7270  145.3910 N   0  0  0  0  0  1  0  0  0  0  0  0
  191.0080  176.6370  145.1070 C   0  0  0  0  0  2  0  0  0  0  0  0
  191.2640  173.4480  140.3290 C   0  0  0  0  0  0  0  0  0  0  0  0
  192.1520  173.6150  142.6440 C   0  0  0  0  0  3  0  0  0  0  0  0
  191.7320  174.4080  143.6350 C   0  0  0  0  0  0  0  0  0  0  0  0
  186.8950  177.7810  145.5250 C   0  0  0  0  0  3  0  0  0  0  0  0
  1  3  1  0  0  0  0
  1 10  1  0  0  0  0
  2 27  1  0  0  0  0
  2 12  1  0  0  0  0
  3  5  2  0  0  0  0
  4  2  1  0  0  0  0
  5  7  1  0  0  0  0
  5 28  1  0  0  0  0
  6  4  2  0  0  0  0
  6  9  1  0  0  0  0
  9  1  2  0  0  0  0
 10 14  1  0  0  0  0
 11 25  1  0  0  0  0
 12 10  2  0  0  0  0
 12 24  1  0  0  0  0
 13  4  1  0  0  0  0
 13 26  1  1  0  0  0
 14 28  2  0  0  0  0
 14 20  1  0  0  0  0
 15  8  1  0  0  0  0
 16 11  2  0  0  0  0
 16 21  1  0  0  0  0
 17 16  1  0  0  0  0
 18 13  1  0  0  0  0
 19 18  1  0  0  0  0
 21 19  2  0  0  0  0
 22 23  1  1  0  0  0
 22 15  1  0  0  0  0
 24 15  1  0  0  0  0
 25 18  2  0  0  0  0
 25 13  1  0  0  0  0
 26 27  2  0  0  0  0
 27 22  1  0  0  0  0
M  END
>  <MODEL>
7

>  <REMARK>
 VINA RESULT:      -7.4      2.502      4.886
  Name = 
  0 active torsions:
  status: ('A' for Active; 'I' for Inactive)
                            x       y       z     vdW  Elec       q    Type
                         _______ _______ _______ _____ _____    ______ ____

>  <TORSDO>
F 0

$$$$
=
 OpenBabel11042418263D

 28 33  0  0  1  0  0  0  0  0999 V2000
  187.6400  176.9590  141.7300 C   0  0  0  0  0  0  0  0  0  0  0  0
  187.7540  177.1610  144.7750 N   0  0  0  0  0  0  0  0  0  0  0  0
  187.4420  176.8770  140.3480 C   0  0  0  0  0  3  0  0  0  0  0  0
  189.0420  176.6430  144.5110 C   0  0  0  0  0  0  0  0  0  0  0  0
  186.2700  177.2910  139.7470 C   0  0  0  0  0  0  0  0  0  0  0  0
  189.5450  176.3670  143.3270 C   0  0  0  0  0  3  0  0  0  0  0  0
  186.0760  177.1660  138.0120 Cl  0  0  0  0  0  0  0  0  0  0  0  0
  184.4340  179.0410  146.4790 C   0  0  0  0  0  1  0  0  0  0  0  0
  188.8540  176.5110  142.0580 C   0  0  0  0  0  3  0  0  0  0  0  0
  186.6110  177.5200  142.5760 C   0  0  0  0  0  0  0  0  0  0  0  0
  192.4010  177.0210  146.0920 C   0  0  0  0  0  3  0  0  0  0  0  0
  186.7570  177.7520  143.9230 C   0  0  0  0  0  0  0  0  0  0  0  0
  189.7220  176.4640  145.8120 C   0  0  1  0  0  0  0  0  0  0  0  0
  185.3770  177.8750  141.9110 C   0  0  0  0  0  0  0  0  0  0  0  0
  185.3800  178.0960  145.9070 N   0  0  0  0  0  0  0  0  0  0  0  0
  193.1690  175.8260  146.3460 C   0  0  0  0  0  0  0  0  0  0  0  0
  194.5770  175.9570  146.5130 N   0  0  0  0  0  1  0  0  0  0  0  0
  190.5240  175.3490  146.0610 C   0  0  0  0  0  0  0  0  0  0  0  0
  191.2490  174.2330  146.3000 C   0  0  0  0  0  3  0  0  0  0  0  0
  183.8490  178.2850  142.6970 Cl  0  0  0  0  0  0  0  0  0  0  0  0
  192.5960  174.5410  146.4360 N   0  0  0  0  0  0  0  0  0  0  0  0
  186.4920  177.9490  146.8600 C   0  0  1  0  0  3  0  0  0  0  0  0
  186.0580  177.1480  147.9970 N   0  0  0  0  0  1  0  0  0  0  0  0
  185.8590  178.7090  144.6670 C   0  0  0  0  0  2  0  0  0  0  0  0
  191.0880  176.6970  145.9620 C   0  0  0  0  0  0  0  0  0  0  0  0
  188.7810  176.9280  146.8570 C   0  0  0  0  0  3  0  0  0  0  0  0
  187.6740  177.2920  146.2040 C   0  0  0  0  0  0  0  0  0  0  0  0
  185.2380  177.7630  140.5290 C   0  0  0  0  0  3  0  0  0  0  0  0
  1  9  2  0  0  0  0
  1 10  1  0  0  0  0
  2 27  1  0  0  0  0
  3  1  1  0  0  0  0
  4  2  1  0  0  0  0
  4 13  1  0  0  0  0
  5  3  2  0  0  0  0
  5 28  1  0  0  0  0
  6  4  2  0  0  0  0
  7  5  1  0  0  0  0
  9  6  1  0  0  0  0
 10 12  2  0  0  0  0
 11 16  1  0  0  0  0
 12 24  1  0  0  0  0
 12  2  1  0  0  0  0
 13 25  1  0  0  0  0
 13 18  1  0  0  0  0
 13 26  1  1  0  0  0
 14 10  1  0  0  0  0
 14 20  1  0  0  0  0
 15  8  1  0  0  0  0
 15 22  1  0  0  0  0
 16 21  2  0  0  0  0
 16 17  1  0  0  0  0
 18 19  2  0  0  0  0
 19 21  1  0  0  0  0
 22 23  1  1  0  0  0
 24 15  1  0  0  0  0
 25 18  1  0  0  0  0
 25 11  2  0  0  0  0
 27 26  2  0  0  0  0
 27 22  1  0  0  0  0
 28 14  2  0  0  0  0
M  END
>  <MODEL>
8

>  <REMARK>
 VINA RESULT:      -7.4      3.066      5.479
  Name = 
  0 active torsions:
  status: ('A' for Active; 'I' for Inactive)
                            x       y       z     vdW  Elec       q    Type
                         _______ _______ _______ _____ _____    ______ ____

>  <TORSDO>
F 0

$$$$
=
 OpenBabel11042418263D

 28 33  0  0  1  0  0  0  0  0999 V2000
  186.3800  177.0530  141.9910 C   0  0  0  0  0  0  0  0  0  0  0  0
  188.3270  176.0030  144.0960 N   0  0  0  0  0  0  0  0  0  0  0  0
  185.3880  177.5410  141.1340 C   0  0  0  0  0  3  0  0  0  0  0  0
  189.0060  175.6230  142.9160 C   0  0  0  0  0  0  0  0  0  0  0  0
  184.2550  178.1750  141.6050 C   0  0  0  0  0  0  0  0  0  0  0  0
  188.6100  175.8440  141.6820 C   0  0  0  0  0  3  0  0  0  0  0  0
  183.0450  178.7650  140.4880 Cl  0  0  0  0  0  0  0  0  0  0  0  0
  187.3340  177.0690  148.0130 C   0  0  0  0  0  1  0  0  0  0  0  0
  187.3720  176.4970  141.2930 C   0  0  0  0  0  3  0  0  0  0  0  0
  186.2550  177.2350  143.4200 C   0  0  0  0  0  0  0  0  0  0  0  0
  192.5920  175.2900  141.9380 C   0  0  0  0  0  3  0  0  0  0  0  0
  187.2280  176.9000  144.3310 C   0  0  0  0  0  0  0  0  0  0  0  0
  190.2440  174.9240  143.3240 C   0  0  1  0  0  0  0  0  0  0  0  0
  185.0220  177.8430  143.8690 C   0  0  0  0  0  0  0  0  0  0  0  0
  187.4550  176.4260  146.7140 N   0  0  0  0  0  0  0  0  0  0  0  0
  193.0000  174.0860  141.2550 C   0  0  0  0  0  0  0  0  0  0  0  0
  194.2000  174.1230  140.4910 N   0  0  0  0  0  1  0  0  0  0  0  0
  190.6970  173.7960  142.6400 C   0  0  0  0  0  0  0  0  0  0  0  0
  191.0840  172.6700  141.9980 C   0  0  0  0  0  3  0  0  0  0  0  0
  184.4410  177.9160  145.5360 Cl  0  0  0  0  0  0  0  0  0  0  0  0
  192.2690  172.8810  141.3060 N   0  0  0  0  0  0  0  0  0  0  0  0
  188.8230  175.8940  146.6070 C   0  0  1  0  0  3  0  0  0  0  0  0
  188.9510  174.7050  147.4410 N   0  0  0  0  0  1  0  0  0  0  0  0
  187.2490  177.4840  145.7220 C   0  0  0  0  0  2  0  0  0  0  0  0
  191.4320  175.0620  142.6070 C   0  0  0  0  0  0  0  0  0  0  0  0
  190.2780  174.9360  144.8050 C   0  0  0  0  0  3  0  0  0  0  0  0
  189.1500  175.5460  145.1820 C   0  0  0  0  0  0  0  0  0  0  0  0
  184.0670  178.3010  142.9650 C   0  0  0  0  0  3  0  0  0  0  0  0
  1 10  1  0  0  0  0
  2 12  1  0  0  0  0
  2 27  1  0  0  0  0
  3  5  2  0  0  0  0
  3  1  1  0  0  0  0
  4 13  1  0  0  0  0
  4  2  1  0  0  0  0
  5 28  1  0  0  0  0
  6  4  2  0  0  0  0
  7  5  1  0  0  0  0
  9  6  1  0  0  0  0
  9  1  2  0  0  0  0
 10 14  1  0  0  0  0
 10 12  2  0  0  0  0
 11 25  1  0  0  0  0
 12 24  1  0  0  0  0
 13 26  1  1  0  0  0
 14 20  1  0  0  0  0
 15  8  1  0  0  0  0
 16 21  1  0  0  0  0
 16 11  2  0  0  0  0
 17 16  1  0  0  0  0
 18 13  1  0  0  0  0
 19 18  1  0  0  0  0
 21 19  2  0  0  0  0
 22 15  1  0  0  0  0
 22 23  1  1  0  0  0
 24 15  1  0  0  0  0
 25 18  2  0  0  0  0
 25 13  1  0  0  0  0
 26 27  2  0  0  0  0
 27 22  1  0  0  0  0
 28 14  2  0  0  0  0
M  END
>  <MODEL>
9

>  <REMARK>
 VINA RESULT:      -7.3      2.034      4.581
  Name = 
  0 active torsions:
  status: ('A' for Active; 'I' for Inactive)
                            x       y       z     vdW  Elec       q    Type
                         _______ _______ _______ _____ _____    ______ ____

>  <TORSDO>
F 0

$$$$
