=
 OpenBabel11042416023D

 43 44  0  0  1  0  0  0  0  0999 V2000
  188.9600  174.7360  142.6770 C   0  0  2  0  0  3  0  0  0  0  0  0
  189.8400  173.0570  139.4850 C   0  0  1  0  0  3  0  0  0  0  0  0
  187.9630  172.7910  140.9600 O   0  0  0  0  0  1  0  0  0  0  0  0
  190.8560  173.5870  141.4340 C   0  0  0  0  0  2  0  0  0  0  0  0
  189.6270  174.4710  141.3160 C   0  0  1  0  0  3  0  0  0  0  0  0
  188.7700  173.7380  140.3200 C   0  0  1  0  0  3  0  0  0  0  0  0
  190.9560  172.7650  140.2930 O   0  0  0  0  0  0  0  0  0  0  0  0
  189.3560  171.8430  138.6880 C   0  0  0  0  0  2  0  0  0  0  0  0
  191.1850  171.0720  137.3670 O   0  0  0  0  0  1  0  0  0  0  0  0
  189.9780  171.7690  137.3020 C   0  0  2  0  0  3  0  0  0  0  0  0
  190.2240  173.1710  136.7810 C   0  0  0  0  0  2  0  0  0  0  0  0
  189.4070  173.4210  135.6800 O   0  0  0  0  0  0  0  0  0  0  0  0
  189.1110  174.7830  135.7590 C   0  0  0  0  0  1  0  0  0  0  0  0
  188.1790  176.0190  142.6490 C   0  0  0  0  0  3  0  0  0  0  0  0
  186.9660  176.0990  143.2010 C   0  0  0  0  0  3  0  0  0  0  0  0
  186.1720  177.3770  143.1970 C   0  0  2  0  0  3  0  0  0  0  0  0
  186.6310  178.2450  142.0250 C   0  0  0  0  0  2  0  0  0  0  0  0
  184.3300  178.3500  141.2390 N   0  0  0  0  0  1  0  0  0  0  0  0
  185.7000  178.0960  140.8330 C   0  0  0  0  0  2  0  0  0  0  0  0
  186.2830  178.1250  144.5410 C   0  0  1  0  0  3  0  0  0  0  0  0
  184.1160  178.4710  145.7910 N   0  0  0  0  0  1  0  0  0  0  0  0
  185.0570  178.9380  144.8330 C   0  0  0  0  0  0  0  0  0  0  0  0
  184.8530  180.0280  144.2360 O   0  0  0  0  0  0  0  0  0  0  0  0
  186.5460  177.1630  145.6950 C   0  0  0  0  0  2  0  0  0  0  0  0
  187.4040  177.7560  146.6220 O   0  0  0  0  0  1  0  0  0  0  0  0
  190.3920  175.9110  144.3350 C   0  0  0  0  0  3  0  0  0  0  0  0
  189.9710  174.7650  143.7940 C   0  0  0  0  0  3  0  0  0  0  0  0
  191.3790  175.9170  145.4590 C   0  0  1  0  0  3  0  0  0  0  0  0
  192.5380  176.8100  145.1150 C   0  0  0  0  0  3  0  0  0  0  0  0
  194.2870  176.0870  143.3180 C   0  0  0  0  0  0  0  0  0  0  0  0
  193.4140  176.4510  144.2140 C   0  0  0  0  0  0  0  0  0  0  0  0
  193.8740  175.8060  142.0240 O   0  0  0  0  0  1  0  0  0  0  0  0
  195.7180  175.9240  143.6950 C   0  0  0  0  0  2  0  0  0  0  0  0
  196.1690  174.6300  143.3150 O   0  0  0  0  0  0  0  0  0  0  0  0
  195.7230  171.6170  145.5550 C   0  0  0  0  0  0  0  0  0  0  0  0
  197.6330  173.6700  144.8140 O   0  0  0  0  0  0  0  0  0  0  0  0
  196.5010  173.6590  144.2580 C   0  0  0  0  0  0  0  0  0  0  0  0
  194.6430  170.6190  145.7700 C   0  0  0  0  0  1  0  0  0  0  0  0
  195.5360  172.6540  144.5860 N   0  0  0  0  0  2  0  0  0  0  0  0
  196.7780  171.5460  146.2390 O   0  0  0  0  0  0  0  0  0  0  0  0
  191.1410  175.4290  147.9770 C   0  0  0  0  0  2  0  0  0  0  0  0
  189.8470  175.0510  147.2840 C   0  0  0  0  0  2  0  0  0  0  0  0
  190.6520  176.2380  146.7860 C   0  0  0  0  0  3  0  0  0  0  0  0
  1 14  1  6  0  0  0
  1 27  1  0  0  0  0
  2  8  1  1  0  0  0
  2  7  1  0  0  0  0
  2  6  1  0  0  0  0
  5  4  1  0  0  0  0
  5  1  1  1  0  0  0
  6  3  1  1  0  0  0
  6  5  1  0  0  0  0
  7  4  1  0  0  0  0
 10  9  1  1  0  0  0
 10  8  1  0  0  0  0
 11 10  1  0  0  0  0
 12 13  1  0  0  0  0
 12 11  1  0  0  0  0
 14 15  2  0  0  0  0
 16 17  1  6  0  0  0
 16 15  1  0  0  0  0
 16 20  1  0  0  0  0
 19 18  1  0  0  0  0
 19 17  1  0  0  0  0
 20 22  1  0  0  0  0
 20 24  1  1  0  0  0
 22 21  1  0  0  0  0
 23 22  2  0  0  0  0
 24 25  1  0  0  0  0
 27 26  2  0  0  0  0
 28 26  1  6  0  0  0
 28 43  1  0  0  0  0
 29 28  1  0  0  0  0
 30 33  1  0  0  0  0
 30 31  2  0  0  0  0
 31 29  2  0  0  0  0
 32 30  1  0  0  0  0
 34 33  1  0  0  0  0
 34 37  1  0  0  0  0
 35 38  1  0  0  0  0
 35 40  2  0  0  0  0
 37 39  1  0  0  0  0
 37 36  2  0  0  0  0
 39 35  1  0  0  0  0
 42 41  1  0  0  0  0
 43 42  1  0  0  0  0
 43 41  1  0  0  0  0
M  END
>  <MODEL>
1

>  <REMARK>
 VINA RESULT:      -6.0      0.000      0.000
  Name = 
  19 active torsions:
  status: ('A' for Active; 'I' for Inactive)
    1  A    between atoms: C_1  and  C_36
    2  A    between atoms: C_2  and  C_18
    3  A    between atoms: C_2  and  O_31
    4  A    between atoms: O_3  and  C_11
    5  A    between atoms: C_7  and  C_20
    6  A    between atoms: C_7  and  C_33
    7  A    between atoms: C_7  and  C_35
    8  A    between atoms: C_9  and  C_29
    9  A    between atoms: C_11  and  C_32
   10  A    between atoms: C_12  and  C_27
   11  A    between atoms: C_14  and  C_15
   12  A    between atoms: C_14  and  C_24
   13  A    between atoms: C_15  and  C_29
   14  A    between atoms: C_15  and  C_40
   15  A    between atoms: C_16  and  C_27
   16  A    between atoms: C_19  and  O_31
   17  A    between atoms: C_27  and  C_43
   18  A    between atoms: C_28  and  C_29
   19  A    between atoms: C_32  and  C_36
                            x       y       z     vdW  Elec       q    Type
                         _______ _______ _______ _____ _____    ______ ____

>  <TORSDO>
F 19

$$$$
=
 OpenBabel11042416023D

 43 44  0  0  1  0  0  0  0  0999 V2000
  189.6270  174.3210  142.9100 C   0  0  2  0  0  3  0  0  0  0  0  0
  192.7990  175.7630  144.1900 C   0  0  1  0  0  3  0  0  0  0  0  0
  191.2530  174.2010  145.1590 O   0  0  0  0  0  1  0  0  0  0  0  0
  190.9010  176.5000  143.2060 C   0  0  0  0  0  2  0  0  0  0  0  0
  191.0010  175.0120  142.9240 C   0  0  1  0  0  3  0  0  0  0  0  0
  191.9470  174.5230  143.9880 C   0  0  1  0  0  3  0  0  0  0  0  0
  192.0220  176.9140  143.9550 O   0  0  0  0  0  0  0  0  0  0  0  0
  193.5450  175.8180  145.5260 C   0  0  0  0  0  2  0  0  0  0  0  0
  194.8500  177.8080  145.6750 O   0  0  0  0  0  1  0  0  0  0  0  0
  194.9250  176.4440  145.3970 C   0  0  2  0  0  3  0  0  0  0  0  0
  195.4470  176.2360  143.9890 C   0  0  0  0  0  2  0  0  0  0  0  0
  196.1280  175.0220  143.9060 O   0  0  0  0  0  0  0  0  0  0  0  0
  196.2740  174.7880  142.5380 C   0  0  0  0  0  1  0  0  0  0  0  0
  189.4630  173.4810  141.6760 C   0  0  0  0  0  3  0  0  0  0  0  0
  190.3550  173.5320  140.6840 C   0  0  0  0  0  3  0  0  0  0  0  0
  190.2160  172.6880  139.4450 C   0  0  2  0  0  3  0  0  0  0  0  0
  188.7450  172.6440  139.0340 C   0  0  0  0  0  2  0  0  0  0  0  0
  187.8550  174.6400  137.9660 N   0  0  0  0  0  1  0  0  0  0  0  0
  188.5190  173.3740  137.7200 C   0  0  0  0  0  2  0  0  0  0  0  0
  190.7970  171.2740  139.6480 C   0  0  1  0  0  3  0  0  0  0  0  0
  190.0580  169.2540  138.3250 N   0  0  0  0  0  1  0  0  0  0  0  0
  190.7840  170.4750  138.3790 C   0  0  0  0  0  0  0  0  0  0  0  0
  191.4110  170.8740  137.3630 O   0  0  0  0  0  0  0  0  0  0  0  0
  192.2170  171.3270  140.2040 C   0  0  0  0  0  2  0  0  0  0  0  0
  192.5690  170.0830  140.7280 O   0  0  0  0  0  1  0  0  0  0  0  0
  187.4980  175.3460  142.1340 C   0  0  0  0  0  3  0  0  0  0  0  0
  188.5040  175.3210  143.0130 C   0  0  0  0  0  3  0  0  0  0  0  0
  186.3800  176.3310  142.2680 C   0  0  1  0  0  3  0  0  0  0  0  0
  185.9980  176.4760  143.7140 C   0  0  0  0  0  3  0  0  0  0  0  0
  184.8810  178.6690  144.5830 C   0  0  0  0  0  0  0  0  0  0  0  0
  185.4370  177.5730  144.1510 C   0  0  0  0  0  0  0  0  0  0  0  0
  183.6850  179.1040  144.0270 O   0  0  0  0  0  1  0  0  0  0  0  0
  185.5510  179.4800  145.6340 C   0  0  0  0  0  2  0  0  0  0  0  0
  185.5430  178.7700  146.8660 O   0  0  0  0  0  0  0  0  0  0  0  0
  188.7180  176.7210  147.0090 C   0  0  0  0  0  0  0  0  0  0  0  0
  185.8570  176.5640  147.4600 O   0  0  0  0  0  0  0  0  0  0  0  0
  186.3570  177.6580  147.0810 C   0  0  0  0  0  0  0  0  0  0  0  0
  190.1590  177.0000  146.7780 C   0  0  0  0  0  1  0  0  0  0  0  0
  187.7660  177.7800  146.8620 N   0  0  0  0  0  2  0  0  0  0  0  0
  188.3540  175.5540  147.3140 O   0  0  0  0  0  0  0  0  0  0  0  0
  185.6850  178.1490  140.5810 C   0  0  0  0  0  2  0  0  0  0  0  0
  186.9010  177.4240  140.0400 C   0  0  0  0  0  2  0  0  0  0  0  0
  186.7540  177.6410  141.5350 C   0  0  0  0  0  3  0  0  0  0  0  0
  1 14  1  6  0  0  0
  1 27  1  0  0  0  0
  2  8  1  1  0  0  0
  4  7  1  0  0  0  0
  5  1  1  1  0  0  0
  5  4  1  0  0  0  0
  5  6  1  0  0  0  0
  6  2  1  0  0  0  0
  6  3  1  1  0  0  0
  7  2  1  0  0  0  0
 10  8  1  0  0  0  0
 10  9  1  6  0  0  0
 11 10  1  0  0  0  0
 12 11  1  0  0  0  0
 13 12  1  0  0  0  0
 15 14  2  0  0  0  0
 16 17  1  1  0  0  0
 16 20  1  0  0  0  0
 16 15  1  0  0  0  0
 19 18  1  0  0  0  0
 19 17  1  0  0  0  0
 20 24  1  6  0  0  0
 21 22  1  0  0  0  0
 22 20  1  0  0  0  0
 23 22  2  0  0  0  0
 24 25  1  0  0  0  0
 26 27  2  0  0  0  0
 28 26  1  1  0  0  0
 28 29  1  0  0  0  0
 29 31  2  0  0  0  0
 30 33  1  0  0  0  0
 31 30  2  0  0  0  0
 32 30  1  0  0  0  0
 33 34  1  0  0  0  0
 34 37  1  0  0  0  0
 35 40  2  0  0  0  0
 37 36  2  0  0  0  0
 38 35  1  0  0  0  0
 39 35  1  0  0  0  0
 39 37  1  0  0  0  0
 41 43  1  0  0  0  0
 42 41  1  0  0  0  0
 42 43  1  0  0  0  0
 43 28  1  0  0  0  0
M  END
>  <MODEL>
2

>  <REMARK>
 VINA RESULT:      -6.0      2.733      8.650
  Name = 
  19 active torsions:
  status: ('A' for Active; 'I' for Inactive)
    1  A    between atoms: C_1  and  C_36
    2  A    between atoms: C_2  and  C_18
    3  A    between atoms: C_2  and  O_31
    4  A    between atoms: O_3  and  C_11
    5  A    between atoms: C_7  and  C_20
    6  A    between atoms: C_7  and  C_33
    7  A    between atoms: C_7  and  C_35
    8  A    between atoms: C_9  and  C_29
    9  A    between atoms: C_11  and  C_32
   10  A    between atoms: C_12  and  C_27
   11  A    between atoms: C_14  and  C_15
   12  A    between atoms: C_14  and  C_24
   13  A    between atoms: C_15  and  C_29
   14  A    between atoms: C_15  and  C_40
   15  A    between atoms: C_16  and  C_27
   16  A    between atoms: C_19  and  O_31
   17  A    between atoms: C_27  and  C_43
   18  A    between atoms: C_28  and  C_29
   19  A    between atoms: C_32  and  C_36
                            x       y       z     vdW  Elec       q    Type
                         _______ _______ _______ _____ _____    ______ ____

>  <TORSDO>
F 19

$$$$
=
 OpenBabel11042416023D

 43 44  0  0  1  0  0  0  0  0999 V2000
  191.1480  173.2530  144.7930 C   0  0  2  0  0  3  0  0  0  0  0  0
  189.0750  176.0830  146.0080 C   0  0  1  0  0  3  0  0  0  0  0  0
  189.1750  173.7780  146.6780 O   0  0  0  0  0  1  0  0  0  0  0  0
  189.6710  175.1730  144.0260 C   0  0  0  0  0  2  0  0  0  0  0  0
  190.6760  174.6940  145.0570 C   0  0  1  0  0  3  0  0  0  0  0  0
  189.9540  174.8970  146.3620 C   0  0  1  0  0  3  0  0  0  0  0  0
  188.7350  176.0300  144.6430 O   0  0  0  0  0  0  0  0  0  0  0  0
  187.8540  176.2680  146.9130 C   0  0  0  0  0  2  0  0  0  0  0  0
  187.0180  178.3560  147.7060 O   0  0  0  0  0  1  0  0  0  0  0  0
  187.0710  177.5300  146.5840 C   0  0  2  0  0  3  0  0  0  0  0  0
  185.6650  177.1570  146.1560 C   0  0  0  0  0  2  0  0  0  0  0  0
  184.7320  177.8890  146.8900 O   0  0  0  0  0  0  0  0  0  0  0  0
  184.0570  178.6580  145.9410 C   0  0  0  0  0  1  0  0  0  0  0  0
  192.6410  173.1480  144.9180 C   0  0  0  0  0  3  0  0  0  0  0  0
  193.4430  174.0930  144.4210 C   0  0  0  0  0  3  0  0  0  0  0  0
  194.9400  174.0130  144.5480 C   0  0  2  0  0  3  0  0  0  0  0  0
  195.2990  172.9060  145.5380 C   0  0  0  0  0  2  0  0  0  0  0  0
  197.4810  171.8790  145.2130 N   0  0  0  0  0  1  0  0  0  0  0  0
  196.0760  171.7910  144.8590 C   0  0  0  0  0  2  0  0  0  0  0  0
  195.5530  175.3680  144.9560 C   0  0  1  0  0  3  0  0  0  0  0  0
  197.5180  174.9910  143.4150 N   0  0  0  0  0  1  0  0  0  0  0  0
  196.5320  175.8710  143.9380 C   0  0  0  0  0  0  0  0  0  0  0  0
  196.4900  177.0660  143.5440 O   0  0  0  0  0  0  0  0  0  0  0  0
  194.4740  176.4210  145.1930 C   0  0  0  0  0  2  0  0  0  0  0  0
  194.4560  176.7890  146.5390 O   0  0  0  0  0  1  0  0  0  0  0  0
  191.5150  172.0700  142.6370 C   0  0  0  0  0  3  0  0  0  0  0  0
  190.7020  172.7630  143.4390 C   0  0  0  0  0  3  0  0  0  0  0  0
  191.0460  171.5730  141.3060 C   0  0  1  0  0  3  0  0  0  0  0  0
  189.5570  171.7490  141.1920 C   0  0  0  0  0  3  0  0  0  0  0  0
  188.5500  173.9100  140.1310 C   0  0  0  0  0  0  0  0  0  0  0  0
  189.0510  172.8300  140.6600 C   0  0  0  0  0  0  0  0  0  0  0  0
  188.8830  174.2630  138.8310 O   0  0  0  0  0  1  0  0  0  0  0  0
  187.6640  174.7920  140.9380 C   0  0  0  0  0  2  0  0  0  0  0  0
  188.0110  176.1530  140.7140 O   0  0  0  0  0  0  0  0  0  0  0  0
  185.3360  178.2960  142.3130 C   0  0  0  0  0  0  0  0  0  0  0  0
  188.2110  178.0340  142.0330 O   0  0  0  0  0  0  0  0  0  0  0  0
  187.4630  177.1880  141.4710 C   0  0  0  0  0  0  0  0  0  0  0  0
  183.8530  178.2420  142.3870 C   0  0  0  0  0  1  0  0  0  0  0  0
  186.0400  177.2740  141.5980 N   0  0  0  0  0  2  0  0  0  0  0  0
  185.9510  179.2470  142.8650 O   0  0  0  0  0  0  0  0  0  0  0  0
  192.4420  171.2330  139.1690 C   0  0  0  0  0  2  0  0  0  0  0  0
  193.3420  171.7890  140.2550 C   0  0  0  0  0  2  0  0  0  0  0  0
  191.8890  172.2210  140.1840 C   0  0  0  0  0  3  0  0  0  0  0  0
  1 27  1  6  0  0  0
  1 14  1  0  0  0  0
  2  6  1  0  0  0  0
  2  8  1  1  0  0  0
  4  7  1  0  0  0  0
  4  5  1  0  0  0  0
  5  1  1  6  0  0  0
  5  6  1  0  0  0  0
  6  3  1  6  0  0  0
  7  2  1  0  0  0  0
 10  8  1  0  0  0  0
 10  9  1  1  0  0  0
 11 10  1  0  0  0  0
 11 12  1  0  0  0  0
 13 12  1  0  0  0  0
 15 14  2  0  0  0  0
 16 15  1  1  0  0  0
 16 20  1  0  0  0  0
 16 17  1  0  0  0  0
 19 18  1  0  0  0  0
 19 17  1  0  0  0  0
 20 24  1  6  0  0  0
 21 22  1  0  0  0  0
 22 20  1  0  0  0  0
 23 22  2  0  0  0  0
 24 25  1  0  0  0  0
 26 27  2  0  0  0  0
 28 29  1  6  0  0  0
 28 26  1  0  0  0  0
 30 31  2  0  0  0  0
 30 33  1  0  0  0  0
 31 29  2  0  0  0  0
 32 30  1  0  0  0  0
 34 33  1  0  0  0  0
 34 37  1  0  0  0  0
 35 38  1  0  0  0  0
 35 40  2  0  0  0  0
 37 39  1  0  0  0  0
 37 36  2  0  0  0  0
 39 35  1  0  0  0  0
 41 43  1  0  0  0  0
 41 42  1  0  0  0  0
 43 42  1  0  0  0  0
 43 28  1  0  0  0  0
M  END
>  <MODEL>
3

>  <REMARK>
 VINA RESULT:      -5.7      2.448      9.519
  Name = 
  19 active torsions:
  status: ('A' for Active; 'I' for Inactive)
    1  A    between atoms: C_1  and  C_36
    2  A    between atoms: C_2  and  C_18
    3  A    between atoms: C_2  and  O_31
    4  A    between atoms: O_3  and  C_11
    5  A    between atoms: C_7  and  C_20
    6  A    between atoms: C_7  and  C_33
    7  A    between atoms: C_7  and  C_35
    8  A    between atoms: C_9  and  C_29
    9  A    between atoms: C_11  and  C_32
   10  A    between atoms: C_12  and  C_27
   11  A    between atoms: C_14  and  C_15
   12  A    between atoms: C_14  and  C_24
   13  A    between atoms: C_15  and  C_29
   14  A    between atoms: C_15  and  C_40
   15  A    between atoms: C_16  and  C_27
   16  A    between atoms: C_19  and  O_31
   17  A    between atoms: C_27  and  C_43
   18  A    between atoms: C_28  and  C_29
   19  A    between atoms: C_32  and  C_36
                            x       y       z     vdW  Elec       q    Type
                         _______ _______ _______ _____ _____    ______ ____

>  <TORSDO>
F 19

$$$$
=
 OpenBabel11042416023D

 43 44  0  0  1  0  0  0  0  0999 V2000
  189.8460  175.2260  144.2540 C   0  0  2  0  0  3  0  0  0  0  0  0
  193.3580  176.3260  143.7690 C   0  0  1  0  0  3  0  0  0  0  0  0
  192.4200  174.4940  145.0060 O   0  0  0  0  0  1  0  0  0  0  0  0
  191.3710  177.2590  144.3100 C   0  0  0  0  0  2  0  0  0  0  0  0
  191.0730  175.9270  143.6450 C   0  0  1  0  0  3  0  0  0  0  0  0
  192.3690  175.1750  143.7850 C   0  0  1  0  0  3  0  0  0  0  0  0
  192.7650  177.4680  144.3410 O   0  0  0  0  0  0  0  0  0  0  0  0
  194.7270  176.0050  144.3760 C   0  0  0  0  0  2  0  0  0  0  0  0
  196.7380  177.0950  143.7030 O   0  0  0  0  0  1  0  0  0  0  0  0
  195.8500  176.0770  143.3540 C   0  0  2  0  0  3  0  0  0  0  0  0
  195.2690  176.3530  141.9810 C   0  0  0  0  0  2  0  0  0  0  0  0
  195.8200  175.4790  141.0450 O   0  0  0  0  0  0  0  0  0  0  0  0
  194.7260  174.9860  140.3310 C   0  0  0  0  0  1  0  0  0  0  0  0
  189.6200  173.8880  143.6120 C   0  0  0  0  0  3  0  0  0  0  0  0
  189.7180  173.7330  142.2890 C   0  0  0  0  0  3  0  0  0  0  0  0
  189.5090  172.3980  141.6270 C   0  0  2  0  0  3  0  0  0  0  0  0
  190.1050  171.3030  142.5110 C   0  0  0  0  0  2  0  0  0  0  0  0
  192.0660  170.8720  143.8850 N   0  0  0  0  0  1  0  0  0  0  0  0
  191.6110  171.4590  142.6380 C   0  0  0  0  0  2  0  0  0  0  0  0
  190.0970  172.3680  140.2020 C   0  0  1  0  0  3  0  0  0  0  0  0
  189.4790  173.4190  137.9910 N   0  0  0  0  0  1  0  0  0  0  0  0
  189.0760  172.7280  139.1650 C   0  0  0  0  0  0  0  0  0  0  0  0
  187.8640  172.4250  139.3260 O   0  0  0  0  0  0  0  0  0  0  0  0
  191.3030  173.2950  140.0750 C   0  0  0  0  0  2  0  0  0  0  0  0
  192.3400  172.6380  139.4110 O   0  0  0  0  0  1  0  0  0  0  0  0
  187.7990  176.2930  145.1790 C   0  0  0  0  0  3  0  0  0  0  0  0
  188.6080  176.0770  144.1380 C   0  0  0  0  0  3  0  0  0  0  0  0
  186.5870  177.1590  145.0490 C   0  0  1  0  0  3  0  0  0  0  0  0
  185.7440  176.6870  143.8970 C   0  0  0  0  0  3  0  0  0  0  0  0
  185.9930  177.7670  141.5350 C   0  0  0  0  0  0  0  0  0  0  0  0
  185.8690  177.2250  142.7130 C   0  0  0  0  0  0  0  0  0  0  0  0
  187.2230  177.7480  140.8910 O   0  0  0  0  0  1  0  0  0  0  0  0
  184.8330  178.4520  140.9030 C   0  0  0  0  0  2  0  0  0  0  0  0
  183.6420  178.1220  141.6060 O   0  0  0  0  0  0  0  0  0  0  0  0
  179.9080  178.5110  141.1490 C   0  0  0  0  0  0  0  0  0  0  0  0
  182.3060  177.5930  139.8020 O   0  0  0  0  0  0  0  0  0  0  0  0
  182.4030  178.0620  140.9680 C   0  0  0  0  0  0  0  0  0  0  0  0
  178.8030  179.0720  141.9690 C   0  0  0  0  0  1  0  0  0  0  0  0
  181.2450  178.5390  141.6610 N   0  0  0  0  0  2  0  0  0  0  0  0
  179.6500  178.0050  140.0250 O   0  0  0  0  0  0  0  0  0  0  0  0
  185.3700  178.6480  146.7620 C   0  0  0  0  0  2  0  0  0  0  0  0
  186.6420  178.1180  147.3950 C   0  0  0  0  0  2  0  0  0  0  0  0
  185.8690  177.2540  146.4150 C   0  0  0  0  0  3  0  0  0  0  0  0
  1 14  1  6  0  0  0
  2  6  1  0  0  0  0
  2  7  1  0  0  0  0
  2  8  1  1  0  0  0
  4  7  1  0  0  0  0
  5  6  1  0  0  0  0
  5  1  1  1  0  0  0
  5  4  1  0  0  0  0
  6  3  1  1  0  0  0
 10  9  1  1  0  0  0
 10  8  1  0  0  0  0
 11 10  1  0  0  0  0
 12 11  1  0  0  0  0
 13 12  1  0  0  0  0
 15 14  2  0  0  0  0
 16 15  1  1  0  0  0
 16 17  1  0  0  0  0
 17 19  1  0  0  0  0
 19 18  1  0  0  0  0
 20 24  1  1  0  0  0
 20 16  1  0  0  0  0
 21 22  1  0  0  0  0
 22 23  2  0  0  0  0
 22 20  1  0  0  0  0
 25 24  1  0  0  0  0
 27  1  1  0  0  0  0
 27 26  2  0  0  0  0
 28 29  1  6  0  0  0
 28 26  1  0  0  0  0
 28 43  1  0  0  0  0
 30 31  2  0  0  0  0
 31 29  2  0  0  0  0
 32 30  1  0  0  0  0
 33 30  1  0  0  0  0
 33 34  1  0  0  0  0
 35 39  1  0  0  0  0
 35 38  1  0  0  0  0
 36 37  2  0  0  0  0
 37 34  1  0  0  0  0
 37 39  1  0  0  0  0
 40 35  2  0  0  0  0
 41 42  1  0  0  0  0
 43 41  1  0  0  0  0
 43 42  1  0  0  0  0
M  END
>  <MODEL>
4

>  <REMARK>
 VINA RESULT:      -5.6      3.029      9.580
  Name = 
  19 active torsions:
  status: ('A' for Active; 'I' for Inactive)
    1  A    between atoms: C_1  and  C_36
    2  A    between atoms: C_2  and  C_18
    3  A    between atoms: C_2  and  O_31
    4  A    between atoms: O_3  and  C_11
    5  A    between atoms: C_7  and  C_20
    6  A    between atoms: C_7  and  C_33
    7  A    between atoms: C_7  and  C_35
    8  A    between atoms: C_9  and  C_29
    9  A    between atoms: C_11  and  C_32
   10  A    between atoms: C_12  and  C_27
   11  A    between atoms: C_14  and  C_15
   12  A    between atoms: C_14  and  C_24
   13  A    between atoms: C_15  and  C_29
   14  A    between atoms: C_15  and  C_40
   15  A    between atoms: C_16  and  C_27
   16  A    between atoms: C_19  and  O_31
   17  A    between atoms: C_27  and  C_43
   18  A    between atoms: C_28  and  C_29
   19  A    between atoms: C_32  and  C_36
                            x       y       z     vdW  Elec       q    Type
                         _______ _______ _______ _____ _____    ______ ____

>  <TORSDO>
F 19

$$$$
=
 OpenBabel11042416023D

 43 44  0  0  1  0  0  0  0  0999 V2000
  191.5360  173.8990  142.5950 C   0  0  2  0  0  3  0  0  0  0  0  0
  191.0570  171.3240  139.9640 C   0  0  1  0  0  3  0  0  0  0  0  0
  192.4000  173.3140  140.0190 O   0  0  0  0  0  1  0  0  0  0  0  0
  189.7690  172.5710  141.3410 C   0  0  0  0  0  2  0  0  0  0  0  0
  191.1690  172.5620  141.9260 C   0  0  1  0  0  3  0  0  0  0  0  0
  192.0300  172.1810  140.7520 C   0  0  1  0  0  3  0  0  0  0  0  0
  189.7440  171.7890  140.1670 O   0  0  0  0  0  0  0  0  0  0  0  0
  191.4020  171.1600  138.4810 C   0  0  0  0  0  2  0  0  0  0  0  0
  191.5610  169.0850  137.3180 O   0  0  0  0  0  1  0  0  0  0  0  0
  190.6510  170.0080  137.8320 C   0  0  2  0  0  3  0  0  0  0  0  0
  189.7750  170.5400  136.7140 C   0  0  0  0  0  2  0  0  0  0  0  0
  189.9550  171.9160  136.5800 O   0  0  0  0  0  0  0  0  0  0  0  0
  189.9060  172.1490  135.2050 C   0  0  0  0  0  1  0  0  0  0  0  0
  192.2130  173.6690  143.9150 C   0  0  0  0  0  3  0  0  0  0  0  0
  193.2630  174.4040  144.2880 C   0  0  0  0  0  3  0  0  0  0  0  0
  193.9480  174.2000  145.6130 C   0  0  2  0  0  3  0  0  0  0  0  0
  193.7590  175.4510  146.4700 C   0  0  0  0  0  2  0  0  0  0  0  0
  194.7410  177.5430  145.7100 N   0  0  0  0  0  1  0  0  0  0  0  0
  193.5740  176.6870  145.6060 C   0  0  0  0  0  2  0  0  0  0  0  0
  195.4380  173.8450  145.4380 C   0  0  1  0  0  3  0  0  0  0  0  0
  197.0330  171.9130  145.7580 N   0  0  0  0  0  1  0  0  0  0  0  0
  195.6960  172.3830  145.6520 C   0  0  0  0  0  0  0  0  0  0  0  0
  194.7390  171.5690  145.7360 O   0  0  0  0  0  0  0  0  0  0  0  0
  195.9540  174.2590  144.0640 C   0  0  0  0  0  2  0  0  0  0  0  0
  197.1320  174.9950  144.2000 O   0  0  0  0  0  1  0  0  0  0  0  0
  189.8630  175.1040  143.9850 C   0  0  0  0  0  3  0  0  0  0  0  0
  190.3260  174.7790  142.7740 C   0  0  0  0  0  3  0  0  0  0  0  0
  188.6740  175.9980  144.1420 C   0  0  1  0  0  3  0  0  0  0  0  0
  187.5930  175.5810  143.1850 C   0  0  0  0  0  3  0  0  0  0  0  0
  186.5420  177.3050  141.5310 C   0  0  0  0  0  0  0  0  0  0  0  0
  187.0660  176.4420  142.3550 C   0  0  0  0  0  0  0  0  0  0  0  0
  187.3510  177.9750  140.6240 O   0  0  0  0  0  1  0  0  0  0  0  0
  185.0870  177.6090  141.5980 C   0  0  0  0  0  2  0  0  0  0  0  0
  184.8910  178.8810  142.2030 O   0  0  0  0  0  0  0  0  0  0  0  0
  185.0720  178.1210  145.9030 C   0  0  0  0  0  0  0  0  0  0  0  0
  185.5640  180.2160  143.9590 O   0  0  0  0  0  0  0  0  0  0  0  0
  185.1380  179.0980  143.5580 C   0  0  0  0  0  0  0  0  0  0  0  0
  184.8130  176.9230  146.7430 C   0  0  0  0  0  1  0  0  0  0  0  0
  184.8970  178.0350  144.4850 N   0  0  0  0  0  2  0  0  0  0  0  0
  185.4260  179.1980  146.4520 O   0  0  0  0  0  0  0  0  0  0  0  0
  188.7620  177.2990  146.3630 C   0  0  0  0  0  2  0  0  0  0  0  0
  189.4750  175.9740  146.5470 C   0  0  0  0  0  2  0  0  0  0  0  0
  188.2670  176.0610  145.6330 C   0  0  0  0  0  3  0  0  0  0  0  0
  1 27  1  1  0  0  0
  1 14  1  0  0  0  0
  2  8  1  6  0  0  0
  2  7  1  0  0  0  0
  2  6  1  0  0  0  0
  4  5  1  0  0  0  0
  5  1  1  6  0  0  0
  6  3  1  6  0  0  0
  6  5  1  0  0  0  0
  7  4  1  0  0  0  0
 10  9  1  6  0  0  0
 10  8  1  0  0  0  0
 11 10  1  0  0  0  0
 12 11  1  0  0  0  0
 13 12  1  0  0  0  0
 14 15  2  0  0  0  0
 16 15  1  6  0  0  0
 16 17  1  0  0  0  0
 19 18  1  0  0  0  0
 19 17  1  0  0  0  0
 20 24  1  6  0  0  0
 20 16  1  0  0  0  0
 20 22  1  0  0  0  0
 22 23  2  0  0  0  0
 22 21  1  0  0  0  0
 24 25  1  0  0  0  0
 26 28  1  0  0  0  0
 27 26  2  0  0  0  0
 28 29  1  6  0  0  0
 28 43  1  0  0  0  0
 30 33  1  0  0  0  0
 30 31  2  0  0  0  0
 31 29  2  0  0  0  0
 32 30  1  0  0  0  0
 33 34  1  0  0  0  0
 34 37  1  0  0  0  0
 35 40  2  0  0  0  0
 35 38  1  0  0  0  0
 37 36  2  0  0  0  0
 37 39  1  0  0  0  0
 39 35  1  0  0  0  0
 41 42  1  0  0  0  0
 43 41  1  0  0  0  0
 43 42  1  0  0  0  0
M  END
>  <MODEL>
5

>  <REMARK>
 VINA RESULT:      -5.6      1.972      8.115
  Name = 
  19 active torsions:
  status: ('A' for Active; 'I' for Inactive)
    1  A    between atoms: C_1  and  C_36
    2  A    between atoms: C_2  and  C_18
    3  A    between atoms: C_2  and  O_31
    4  A    between atoms: O_3  and  C_11
    5  A    between atoms: C_7  and  C_20
    6  A    between atoms: C_7  and  C_33
    7  A    between atoms: C_7  and  C_35
    8  A    between atoms: C_9  and  C_29
    9  A    between atoms: C_11  and  C_32
   10  A    between atoms: C_12  and  C_27
   11  A    between atoms: C_14  and  C_15
   12  A    between atoms: C_14  and  C_24
   13  A    between atoms: C_15  and  C_29
   14  A    between atoms: C_15  and  C_40
   15  A    between atoms: C_16  and  C_27
   16  A    between atoms: C_19  and  O_31
   17  A    between atoms: C_27  and  C_43
   18  A    between atoms: C_28  and  C_29
   19  A    between atoms: C_32  and  C_36
                            x       y       z     vdW  Elec       q    Type
                         _______ _______ _______ _____ _____    ______ ____

>  <TORSDO>
F 19

$$$$
=
 OpenBabel11042416023D

 43 44  0  0  1  0  0  0  0  0999 V2000
  188.6250  175.0220  143.1030 C   0  0  2  0  0  3  0  0  0  0  0  0
  186.6650  178.1260  142.5510 C   0  0  1  0  0  3  0  0  0  0  0  0
  185.9870  175.8960  143.1330 O   0  0  0  0  0  1  0  0  0  0  0  0
  188.3170  176.9820  141.5150 C   0  0  0  0  0  2  0  0  0  0  0  0
  188.2900  176.5170  142.9590 C   0  0  1  0  0  3  0  0  0  0  0  0
  186.9110  176.9070  143.4200 C   0  0  1  0  0  3  0  0  0  0  0  0
  187.3320  177.9720  141.3210 O   0  0  0  0  0  0  0  0  0  0  0  0
  185.1910  178.5040  142.3790 C   0  0  0  0  0  2  0  0  0  0  0  0
  183.1380  179.0000  143.4860 O   0  0  0  0  0  1  0  0  0  0  0  0
  184.4880  178.7300  143.7090 C   0  0  2  0  0  3  0  0  0  0  0  0
  185.1320  179.8980  144.4300 C   0  0  0  0  0  2  0  0  0  0  0  0
  185.7840  179.4500  145.5780 O   0  0  0  0  0  0  0  0  0  0  0  0
  184.8090  178.7520  146.2920 C   0  0  0  0  0  1  0  0  0  0  0  0
  189.4710  174.7770  144.3200 C   0  0  0  0  0  3  0  0  0  0  0  0
  190.3100  175.7110  144.7750 C   0  0  0  0  0  3  0  0  0  0  0  0
  191.1570  175.4910  145.9990 C   0  0  2  0  0  3  0  0  0  0  0  0
  190.3740  175.9390  147.2330 C   0  0  0  0  0  2  0  0  0  0  0  0
  188.4270  177.3860  147.0520 N   0  0  0  0  0  1  0  0  0  0  0  0
  189.8780  177.3670  147.0810 C   0  0  0  0  0  2  0  0  0  0  0  0
  192.5170  176.2090  145.8920 C   0  0  1  0  0  3  0  0  0  0  0  0
  193.4830  173.8770  145.9270 N   0  0  0  0  0  1  0  0  0  0  0  0
  193.6650  175.2730  146.1200 C   0  0  0  0  0  0  0  0  0  0  0  0
  194.7880  175.7120  146.4840 O   0  0  0  0  0  0  0  0  0  0  0  0
  192.6790  176.8990  144.5400 C   0  0  0  0  0  2  0  0  0  0  0  0
  193.5210  176.1450  143.7210 O   0  0  0  0  0  1  0  0  0  0  0  0
  188.9160  173.3610  141.2760 C   0  0  0  0  0  3  0  0  0  0  0  0
  189.3130  174.4880  141.8730 C   0  0  0  0  0  3  0  0  0  0  0  0
  189.5980  172.8600  140.0420 C   0  0  1  0  0  3  0  0  0  0  0  0
  190.3150  171.5740  140.3420 C   0  0  0  0  0  3  0  0  0  0  0  0
  191.7260  171.3150  142.5220 C   0  0  0  0  0  0  0  0  0  0  0  0
  191.0210  171.4410  141.4340 C   0  0  0  0  0  0  0  0  0  0  0  0
  191.1250  171.4910  143.7610 O   0  0  0  0  0  1  0  0  0  0  0  0
  193.1850  171.0330  142.4350 C   0  0  0  0  0  2  0  0  0  0  0  0
  193.9070  172.0210  143.1590 O   0  0  0  0  0  0  0  0  0  0  0  0
  194.9100  174.5140  140.4980 C   0  0  0  0  0  0  0  0  0  0  0  0
  195.7790  173.3600  143.0130 O   0  0  0  0  0  0  0  0  0  0  0  0
  194.6810  172.9870  142.5170 C   0  0  0  0  0  0  0  0  0  0  0  0
  194.2850  175.0280  139.2520 C   0  0  0  0  0  1  0  0  0  0  0  0
  194.2110  173.5430  141.2850 N   0  0  0  0  0  2  0  0  0  0  0  0
  196.0510  174.9270  140.8350 O   0  0  0  0  0  0  0  0  0  0  0  0
  189.1030  173.4010  137.5730 C   0  0  0  0  0  2  0  0  0  0  0  0
  188.1570  174.2020  138.4450 C   0  0  0  0  0  2  0  0  0  0  0  0
  188.5850  172.8110  138.8740 C   0  0  0  0  0  3  0  0  0  0  0  0
  1 27  1  6  0  0  0
  1 14  1  0  0  0  0
  2  8  1  6  0  0  0
  2  6  1  0  0  0  0
  4  5  1  0  0  0  0
  5  1  1  6  0  0  0
  5  6  1  0  0  0  0
  6  3  1  6  0  0  0
  7  4  1  0  0  0  0
  7  2  1  0  0  0  0
  8 10  1  0  0  0  0
 10  9  1  6  0  0  0
 10 11  1  0  0  0  0
 11 12  1  0  0  0  0
 12 13  1  0  0  0  0
 14 15  2  0  0  0  0
 16 15  1  6  0  0  0
 16 17  1  0  0  0  0
 18 19  1  0  0  0  0
 19 17  1  0  0  0  0
 20 24  1  6  0  0  0
 20 16  1  0  0  0  0
 20 22  1  0  0  0  0
 21 22  1  0  0  0  0
 22 23  2  0  0  0  0
 25 24  1  0  0  0  0
 26 27  2  0  0  0  0
 28 29  1  1  0  0  0
 28 26  1  0  0  0  0
 29 31  2  0  0  0  0
 30 32  1  0  0  0  0
 31 30  2  0  0  0  0
 33 30  1  0  0  0  0
 33 34  1  0  0  0  0
 35 40  2  0  0  0  0
 35 39  1  0  0  0  0
 37 36  2  0  0  0  0
 37 34  1  0  0  0  0
 38 35  1  0  0  0  0
 39 37  1  0  0  0  0
 41 42  1  0  0  0  0
 41 43  1  0  0  0  0
 42 43  1  0  0  0  0
 43 28  1  0  0  0  0
M  END
>  <MODEL>
6

>  <REMARK>
 VINA RESULT:      -5.6      2.777      7.319
  Name = 
  19 active torsions:
  status: ('A' for Active; 'I' for Inactive)
    1  A    between atoms: C_1  and  C_36
    2  A    between atoms: C_2  and  C_18
    3  A    between atoms: C_2  and  O_31
    4  A    between atoms: O_3  and  C_11
    5  A    between atoms: C_7  and  C_20
    6  A    between atoms: C_7  and  C_33
    7  A    between atoms: C_7  and  C_35
    8  A    between atoms: C_9  and  C_29
    9  A    between atoms: C_11  and  C_32
   10  A    between atoms: C_12  and  C_27
   11  A    between atoms: C_14  and  C_15
   12  A    between atoms: C_14  and  C_24
   13  A    between atoms: C_15  and  C_29
   14  A    between atoms: C_15  and  C_40
   15  A    between atoms: C_16  and  C_27
   16  A    between atoms: C_19  and  O_31
   17  A    between atoms: C_27  and  C_43
   18  A    between atoms: C_28  and  C_29
   19  A    between atoms: C_32  and  C_36
                            x       y       z     vdW  Elec       q    Type
                         _______ _______ _______ _____ _____    ______ ____

>  <TORSDO>
F 19

$$$$
=
 OpenBabel11042416023D

 43 44  0  0  1  0  0  0  0  0999 V2000
  190.0100  174.2690  143.3710 C   0  0  2  0  0  3  0  0  0  0  0  0
  189.9600  173.2000  139.8170 C   0  0  1  0  0  3  0  0  0  0  0  0
  188.7090  172.4480  141.7240 O   0  0  0  0  0  1  0  0  0  0  0  0
  191.4990  173.6070  141.4210 C   0  0  0  0  0  2  0  0  0  0  0  0
  190.2170  174.2990  141.8470 C   0  0  1  0  0  3  0  0  0  0  0  0
  189.1600  173.5860  141.0470 C   0  0  1  0  0  3  0  0  0  0  0  0
  191.3030  172.9750  140.1760 O   0  0  0  0  0  0  0  0  0  0  0  0
  189.3670  172.0460  139.0030 C   0  0  0  0  0  2  0  0  0  0  0  0
  190.7270  171.4730  137.1290 O   0  0  0  0  0  1  0  0  0  0  0  0
  189.6020  172.2060  137.5080 C   0  0  2  0  0  3  0  0  0  0  0  0
  189.8120  173.6710  137.1820 C   0  0  0  0  0  2  0  0  0  0  0  0
  190.6760  173.8000  136.0960 O   0  0  0  0  0  0  0  0  0  0  0  0
  191.5930  174.7780  136.4840 C   0  0  0  0  0  1  0  0  0  0  0  0
  189.4420  175.5710  143.8600 C   0  0  0  0  0  3  0  0  0  0  0  0
  188.1530  175.8700  143.6840 C   0  0  0  0  0  3  0  0  0  0  0  0
  187.5600  177.1620  144.1780 C   0  0  2  0  0  3  0  0  0  0  0  0
  186.6200  176.8650  145.3460 C   0  0  0  0  0  2  0  0  0  0  0  0
  185.7420  178.8840  146.3810 N   0  0  0  0  0  1  0  0  0  0  0  0
  186.7900  177.8830  146.4610 C   0  0  0  0  0  2  0  0  0  0  0  0
  186.8470  177.9330  143.0500 C   0  0  1  0  0  3  0  0  0  0  0  0
  187.1000  177.3690  140.6010 N   0  0  0  0  0  1  0  0  0  0  0  0
  187.6470  177.9400  141.7820 C   0  0  0  0  0  0  0  0  0  0  0  0
  188.8010  178.4440  141.7550 O   0  0  0  0  0  0  0  0  0  0  0  0
  185.4580  177.3630  142.7750 C   0  0  0  0  0  2  0  0  0  0  0  0
  184.5010  178.3730  142.8760 O   0  0  0  0  0  1  0  0  0  0  0  0
  191.7690  174.7440  145.0630 C   0  0  0  0  0  3  0  0  0  0  0  0
  191.2910  173.9530  144.0980 C   0  0  0  0  0  3  0  0  0  0  0  0
  193.0310  174.4000  145.7890 C   0  0  1  0  0  3  0  0  0  0  0  0
  193.4190  172.9780  145.4910 C   0  0  0  0  0  3  0  0  0  0  0  0
  195.9270  172.3140  145.2140 C   0  0  0  0  0  0  0  0  0  0  0  0
  194.6750  172.6430  145.3540 C   0  0  0  0  0  0  0  0  0  0  0  0
  196.8230  172.5420  146.2500 O   0  0  0  0  0  1  0  0  0  0  0  0
  196.4080  171.7420  143.9270 C   0  0  0  0  0  2  0  0  0  0  0  0
  195.7370  170.5150  143.6680 O   0  0  0  0  0  0  0  0  0  0  0  0
  192.5580  170.0110  141.6830 C   0  0  0  0  0  0  0  0  0  0  0  0
  195.4300  170.2870  141.3940 O   0  0  0  0  0  0  0  0  0  0  0  0
  194.9250  170.3420  142.5470 C   0  0  0  0  0  0  0  0  0  0  0  0
  191.1120  169.9390  142.0160 C   0  0  0  0  0  1  0  0  0  0  0  0
  193.5100  170.2240  142.7300 N   0  0  0  0  0  2  0  0  0  0  0  0
  192.9260  169.8660  140.4860 O   0  0  0  0  0  0  0  0  0  0  0  0
  194.2530  176.5270  146.5730 C   0  0  0  0  0  2  0  0  0  0  0  0
  193.4940  176.8440  145.2990 C   0  0  0  0  0  2  0  0  0  0  0  0
  194.1080  175.4690  145.4910 C   0  0  0  0  0  3  0  0  0  0  0  0
  1 14  1  1  0  0  0
  1 27  1  0  0  0  0
  2  8  1  1  0  0  0
  2  7  1  0  0  0  0
  2  6  1  0  0  0  0
  4  5  1  0  0  0  0
  5  1  1  1  0  0  0
  6  3  1  1  0  0  0
  6  5  1  0  0  0  0
  7  4  1  0  0  0  0
 10  9  1  1  0  0  0
 10  8  1  0  0  0  0
 11 10  1  0  0  0  0
 12 13  1  0  0  0  0
 12 11  1  0  0  0  0
 15 14  2  0  0  0  0
 16 15  1  6  0  0  0
 16 17  1  0  0  0  0
 17 19  1  0  0  0  0
 18 19  1  0  0  0  0
 20 24  1  6  0  0  0
 20 16  1  0  0  0  0
 21 22  1  0  0  0  0
 22 20  1  0  0  0  0
 23 22  2  0  0  0  0
 24 25  1  0  0  0  0
 27 26  2  0  0  0  0
 28 26  1  6  0  0  0
 29 28  1  0  0  0  0
 30 31  2  0  0  0  0
 30 32  1  0  0  0  0
 31 29  2  0  0  0  0
 33 30  1  0  0  0  0
 34 33  1  0  0  0  0
 35 38  1  0  0  0  0
 35 39  1  0  0  0  0
 36 37  2  0  0  0  0
 37 39  1  0  0  0  0
 37 34  1  0  0  0  0
 40 35  2  0  0  0  0
 42 43  1  0  0  0  0
 42 41  1  0  0  0  0
 43 28  1  0  0  0  0
 43 41  1  0  0  0  0
M  END
>  <MODEL>
7

>  <REMARK>
 VINA RESULT:      -5.5      2.111      3.607
  Name = 
  19 active torsions:
  status: ('A' for Active; 'I' for Inactive)
    1  A    between atoms: C_1  and  C_36
    2  A    between atoms: C_2  and  C_18
    3  A    between atoms: C_2  and  O_31
    4  A    between atoms: O_3  and  C_11
    5  A    between atoms: C_7  and  C_20
    6  A    between atoms: C_7  and  C_33
    7  A    between atoms: C_7  and  C_35
    8  A    between atoms: C_9  and  C_29
    9  A    between atoms: C_11  and  C_32
   10  A    between atoms: C_12  and  C_27
   11  A    between atoms: C_14  and  C_15
   12  A    between atoms: C_14  and  C_24
   13  A    between atoms: C_15  and  C_29
   14  A    between atoms: C_15  and  C_40
   15  A    between atoms: C_16  and  C_27
   16  A    between atoms: C_19  and  O_31
   17  A    between atoms: C_27  and  C_43
   18  A    between atoms: C_28  and  C_29
   19  A    between atoms: C_32  and  C_36
                            x       y       z     vdW  Elec       q    Type
                         _______ _______ _______ _____ _____    ______ ____

>  <TORSDO>
F 19

$$$$
=
 OpenBabel11042416023D

 43 44  0  0  1  0  0  0  0  0999 V2000
  189.9120  175.3520  143.8400 C   0  0  2  0  0  3  0  0  0  0  0  0
  193.0120  175.0350  145.8560 C   0  0  1  0  0  3  0  0  0  0  0  0
  192.3790  176.5940  144.1430 O   0  0  0  0  0  1  0  0  0  0  0  0
  191.6550  173.6890  144.6490 C   0  0  0  0  0  2  0  0  0  0  0  0
  190.8640  174.9420  144.9770 C   0  0  1  0  0  3  0  0  0  0  0  0
  191.9350  175.9490  145.3020 C   0  0  1  0  0  3  0  0  0  0  0  0
  192.9400  173.7800  145.2220 O   0  0  0  0  0  0  0  0  0  0  0  0
  194.4260  175.6240  145.8370 C   0  0  0  0  0  2  0  0  0  0  0  0
  196.1170  173.9560  146.0380 O   0  0  0  0  0  1  0  0  0  0  0  0
  195.4210  174.7310  145.1120 C   0  0  2  0  0  3  0  0  0  0  0  0
  196.3930  175.5880  144.3260 C   0  0  0  0  0  2  0  0  0  0  0  0
  196.4480  175.1570  143.0010 O   0  0  0  0  0  0  0  0  0  0  0  0
  196.7940  176.2950  142.2710 C   0  0  0  0  0  1  0  0  0  0  0  0
  188.6230  175.8930  144.3890 C   0  0  0  0  0  3  0  0  0  0  0  0
  188.1920  177.1130  144.0580 C   0  0  0  0  0  3  0  0  0  0  0  0
  186.8970  177.6700  144.5860 C   0  0  2  0  0  3  0  0  0  0  0  0
  186.2190  176.6130  145.4580 C   0  0  0  0  0  2  0  0  0  0  0  0
  186.5150  178.3110  147.1740 N   0  0  0  0  0  1  0  0  0  0  0  0
  185.6600  177.2260  146.7310 C   0  0  0  0  0  2  0  0  0  0  0  0
  185.9750  178.1530  143.4490 C   0  0  1  0  0  3  0  0  0  0  0  0
  183.6410  179.0020  143.9010 N   0  0  0  0  0  1  0  0  0  0  0  0
  185.0430  179.2350  143.9040 C   0  0  0  0  0  0  0  0  0  0  0  0
  185.4900  180.3490  144.2870 O   0  0  0  0  0  0  0  0  0  0  0  0
  186.7790  178.6420  142.2480 C   0  0  0  0  0  2  0  0  0  0  0  0
  186.1170  178.3080  141.0650 O   0  0  0  0  0  1  0  0  0  0  0  0
  189.8770  174.2850  141.5940 C   0  0  0  0  0  3  0  0  0  0  0  0
  189.6380  174.2010  142.9060 C   0  0  0  0  0  3  0  0  0  0  0  0
  189.6200  173.1240  140.6870 C   0  0  1  0  0  3  0  0  0  0  0  0
  188.5340  173.4710  139.7090 C   0  0  0  0  0  3  0  0  0  0  0  0
  189.0320  173.5850  137.1500 C   0  0  0  0  0  0  0  0  0  0  0  0
  188.7810  173.5270  138.4260 C   0  0  0  0  0  0  0  0  0  0  0  0
  189.5300  172.4680  136.4910 O   0  0  0  0  0  1  0  0  0  0  0  0
  188.8360  174.8600  136.4080 C   0  0  0  0  0  2  0  0  0  0  0  0
  189.7350  174.9180  135.3080 O   0  0  0  0  0  0  0  0  0  0  0  0
  192.7530  177.1050  134.6710 C   0  0  0  0  0  0  0  0  0  0  0  0
  189.8570  177.1630  134.7980 O   0  0  0  0  0  0  0  0  0  0  0  0
  190.4550  176.0730  135.0050 C   0  0  0  0  0  0  0  0  0  0  0  0
  194.2200  176.8750  134.5990 C   0  0  0  0  0  1  0  0  0  0  0  0
  191.8830  176.0000  134.9380 N   0  0  0  0  0  2  0  0  0  0  0  0
  192.3000  178.2690  134.5130 O   0  0  0  0  0  0  0  0  0  0  0  0
  191.1350  171.1340  140.0710 C   0  0  0  0  0  2  0  0  0  0  0  0
  191.8460  171.9830  141.1060 C   0  0  0  0  0  2  0  0  0  0  0  0
  190.9550  172.6430  140.0690 C   0  0  0  0  0  3  0  0  0  0  0  0
  1 27  1  6  0  0  0
  1 14  1  0  0  0  0
  2  8  1  6  0  0  0
  4  5  1  0  0  0  0
  4  7  1  0  0  0  0
  5  1  1  6  0  0  0
  5  6  1  0  0  0  0
  6  3  1  6  0  0  0
  6  2  1  0  0  0  0
  7  2  1  0  0  0  0
 10  8  1  0  0  0  0
 10  9  1  1  0  0  0
 11 10  1  0  0  0  0
 12 11  1  0  0  0  0
 13 12  1  0  0  0  0
 15 14  2  0  0  0  0
 16 15  1  6  0  0  0
 16 17  1  0  0  0  0
 17 19  1  0  0  0  0
 19 18  1  0  0  0  0
 20 24  1  6  0  0  0
 20 22  1  0  0  0  0
 20 16  1  0  0  0  0
 21 22  1  0  0  0  0
 22 23  2  0  0  0  0
 25 24  1  0  0  0  0
 26 27  2  0  0  0  0
 28 29  1  6  0  0  0
 28 26  1  0  0  0  0
 30 31  2  0  0  0  0
 31 29  2  0  0  0  0
 32 30  1  0  0  0  0
 33 30  1  0  0  0  0
 34 33  1  0  0  0  0
 35 39  1  0  0  0  0
 36 37  2  0  0  0  0
 37 34  1  0  0  0  0
 38 35  1  0  0  0  0
 39 37  1  0  0  0  0
 40 35  2  0  0  0  0
 41 42  1  0  0  0  0
 43 41  1  0  0  0  0
 43 28  1  0  0  0  0
 43 42  1  0  0  0  0
M  END
>  <MODEL>
8

>  <REMARK>
 VINA RESULT:      -5.4      2.708      7.771
  Name = 
  19 active torsions:
  status: ('A' for Active; 'I' for Inactive)
    1  A    between atoms: C_1  and  C_36
    2  A    between atoms: C_2  and  C_18
    3  A    between atoms: C_2  and  O_31
    4  A    between atoms: O_3  and  C_11
    5  A    between atoms: C_7  and  C_20
    6  A    between atoms: C_7  and  C_33
    7  A    between atoms: C_7  and  C_35
    8  A    between atoms: C_9  and  C_29
    9  A    between atoms: C_11  and  C_32
   10  A    between atoms: C_12  and  C_27
   11  A    between atoms: C_14  and  C_15
   12  A    between atoms: C_14  and  C_24
   13  A    between atoms: C_15  and  C_29
   14  A    between atoms: C_15  and  C_40
   15  A    between atoms: C_16  and  C_27
   16  A    between atoms: C_19  and  O_31
   17  A    between atoms: C_27  and  C_43
   18  A    between atoms: C_28  and  C_29
   19  A    between atoms: C_32  and  C_36
                            x       y       z     vdW  Elec       q    Type
                         _______ _______ _______ _____ _____    ______ ____

>  <TORSDO>
F 19

$$$$
=
 OpenBabel11042416023D

 43 44  0  0  1  0  0  0  0  0999 V2000
  190.2650  173.9490  142.1970 C   0  0  2  0  0  3  0  0  0  0  0  0
  192.7240  175.7120  144.3470 C   0  0  1  0  0  3  0  0  0  0  0  0
  191.8730  173.4670  144.4110 O   0  0  0  0  0  1  0  0  0  0  0  0
  190.6670  176.0980  143.4920 C   0  0  0  0  0  2  0  0  0  0  0  0
  191.2950  174.9930  142.6630 C   0  0  1  0  0  3  0  0  0  0  0  0
  192.3770  174.4600  143.5630 C   0  0  1  0  0  3  0  0  0  0  0  0
  191.5770  176.5180  144.4840 O   0  0  0  0  0  0  0  0  0  0  0  0
  193.4280  175.4580  145.6830 C   0  0  0  0  0  2  0  0  0  0  0  0
  194.7440  177.4060  146.0870 O   0  0  0  0  0  1  0  0  0  0  0  0
  194.8240  176.0600  145.7300 C   0  0  2  0  0  3  0  0  0  0  0  0
  195.4780  175.9300  144.3680 C   0  0  0  0  0  2  0  0  0  0  0  0
  195.8700  174.6100  144.1500 O   0  0  0  0  0  0  0  0  0  0  0  0
  197.1790  174.5430  144.6320 C   0  0  0  0  0  1  0  0  0  0  0  0
  190.5590  173.4940  140.7960 C   0  0  0  0  0  3  0  0  0  0  0  0
  189.8550  172.5130  140.2280 C   0  0  0  0  0  3  0  0  0  0  0  0
  190.1240  172.0510  138.8210 C   0  0  2  0  0  3  0  0  0  0  0  0
  191.6180  171.7680  138.6670 C   0  0  0  0  0  2  0  0  0  0  0  0
  193.1830  170.4890  140.0210 N   0  0  0  0  0  1  0  0  0  0  0  0
  191.9780  170.3980  139.2170 C   0  0  0  0  0  2  0  0  0  0  0  0
  189.6240  173.0700  137.7780 C   0  0  1  0  0  3  0  0  0  0  0  0
  189.3680  171.2050  136.0950 N   0  0  0  0  0  1  0  0  0  0  0  0
  189.7440  172.5460  136.3790 C   0  0  0  0  0  0  0  0  0  0  0  0
  190.1780  173.2820  135.4530 O   0  0  0  0  0  0  0  0  0  0  0  0
  188.1790  173.4820  138.0470 C   0  0  0  0  0  2  0  0  0  0  0  0
  187.9730  174.7950  137.6230 O   0  0  0  0  0  1  0  0  0  0  0  0
  188.4180  175.4540  141.4860 C   0  0  0  0  0  3  0  0  0  0  0  0
  188.8580  174.4800  142.2880 C   0  0  0  0  0  3  0  0  0  0  0  0
  187.0100  175.9520  141.5770 C   0  0  1  0  0  3  0  0  0  0  0  0
  186.4540  175.6630  142.9440 C   0  0  0  0  0  3  0  0  0  0  0  0
  185.5610  177.5950  144.4530 C   0  0  0  0  0  0  0  0  0  0  0  0
  186.0050  176.6290  143.7010 C   0  0  0  0  0  0  0  0  0  0  0  0
  184.5330  178.4100  143.9990 O   0  0  0  0  0  1  0  0  0  0  0  0
  186.1890  177.8580  145.7760 C   0  0  0  0  0  2  0  0  0  0  0  0
  187.6040  177.8910  145.6360 O   0  0  0  0  0  0  0  0  0  0  0  0
  190.5030  176.5910  147.6870 C   0  0  0  0  0  0  0  0  0  0  0  0
  188.1870  175.7250  146.1720 O   0  0  0  0  0  0  0  0  0  0  0  0
  188.4280  176.9590  146.2660 C   0  0  0  0  0  0  0  0  0  0  0  0
  191.6080  177.2170  148.4580 C   0  0  0  0  0  1  0  0  0  0  0  0
  189.5540  177.4270  147.0170 N   0  0  0  0  0  2  0  0  0  0  0  0
  190.4270  175.3350  147.6200 O   0  0  0  0  0  0  0  0  0  0  0  0
  185.5980  177.8670  140.5910 C   0  0  0  0  0  2  0  0  0  0  0  0
  186.7250  177.5490  139.6290 C   0  0  0  0  0  2  0  0  0  0  0  0
  186.9520  177.4300  141.1250 C   0  0  0  0  0  3  0  0  0  0  0  0
  1 14  1  6  0  0  0
  1 27  1  0  0  0  0
  2  7  1  0  0  0  0
  2  8  1  1  0  0  0
  4  7  1  0  0  0  0
  5  1  1  1  0  0  0
  5  4  1  0  0  0  0
  5  6  1  0  0  0  0
  6  2  1  0  0  0  0
  6  3  1  1  0  0  0
  8 10  1  0  0  0  0
 10  9  1  6  0  0  0
 11 10  1  0  0  0  0
 12 11  1  0  0  0  0
 12 13  1  0  0  0  0
 15 14  2  0  0  0  0
 16 17  1  1  0  0  0
 16 15  1  0  0  0  0
 17 19  1  0  0  0  0
 19 18  1  0  0  0  0
 20 24  1  1  0  0  0
 20 16  1  0  0  0  0
 21 22  1  0  0  0  0
 22 20  1  0  0  0  0
 23 22  2  0  0  0  0
 25 24  1  0  0  0  0
 26 27  2  0  0  0  0
 28 26  1  1  0  0  0
 28 29  1  0  0  0  0
 29 31  2  0  0  0  0
 30 33  1  0  0  0  0
 31 30  2  0  0  0  0
 32 30  1  0  0  0  0
 34 33  1  0  0  0  0
 34 37  1  0  0  0  0
 35 38  1  0  0  0  0
 36 37  2  0  0  0  0
 37 39  1  0  0  0  0
 39 35  1  0  0  0  0
 40 35  2  0  0  0  0
 41 43  1  0  0  0  0
 42 41  1  0  0  0  0
 42 43  1  0  0  0  0
 43 28  1  0  0  0  0
M  END
>  <MODEL>
9

>  <REMARK>
 VINA RESULT:      -5.3      2.676      8.476
  Name = 
  19 active torsions:
  status: ('A' for Active; 'I' for Inactive)
    1  A    between atoms: C_1  and  C_36
    2  A    between atoms: C_2  and  C_18
    3  A    between atoms: C_2  and  O_31
    4  A    between atoms: O_3  and  C_11
    5  A    between atoms: C_7  and  C_20
    6  A    between atoms: C_7  and  C_33
    7  A    between atoms: C_7  and  C_35
    8  A    between atoms: C_9  and  C_29
    9  A    between atoms: C_11  and  C_32
   10  A    between atoms: C_12  and  C_27
   11  A    between atoms: C_14  and  C_15
   12  A    between atoms: C_14  and  C_24
   13  A    between atoms: C_15  and  C_29
   14  A    between atoms: C_15  and  C_40
   15  A    between atoms: C_16  and  C_27
   16  A    between atoms: C_19  and  O_31
   17  A    between atoms: C_27  and  C_43
   18  A    between atoms: C_28  and  C_29
   19  A    between atoms: C_32  and  C_36
                            x       y       z     vdW  Elec       q    Type
                         _______ _______ _______ _____ _____    ______ ____

>  <TORSDO>
F 19

$$$$
