=
 OpenBabel11042418173D

 35 40  0  0  1  0  0  0  0  0999 V2000
  187.4010  176.5960  144.2000 N   0  0  0  0  0  0  0  0  0  0  0  0
  184.6660  177.6830  146.4200 C   0  0  2  0  0  3  0  0  0  0  0  0
  185.8270  178.4770  144.4220 C   0  0  0  0  0  2  0  0  0  0  0  0
  186.0150  176.9730  144.5170 C   0  0  2  0  0  3  0  0  0  0  0  0
  185.3890  178.9520  146.8240 C   0  0  0  0  0  2  0  0  0  0  0  0
  185.6640  176.6380  145.9560 C   0  0  0  0  0  2  0  0  0  0  0  0
  184.7670  178.8480  145.4450 C   0  0  2  0  0  3  0  0  0  0  0  0
  187.5510  176.5580  142.8020 N   0  0  0  0  0  2  0  0  0  0  0  0
  187.6070  175.1550  142.4220 C   0  0  0  0  0  2  0  0  0  0  0  0
  188.8920  174.8750  141.6580 C   0  0  0  0  0  2  0  0  0  0  0  0
  189.9490  172.5840  141.9310 C   0  0  0  0  0  0  0  0  0  0  0  0
  189.7190  173.9210  142.3870 N   0  0  0  0  0  2  0  0  0  0  0  0
  189.3670  172.1600  140.8960 O   0  0  0  0  0  0  0  0  0  0  0  0
  191.6540  172.2240  144.1830 S   0  0  0  0  0  0  0  0  0  0  0  0
  192.4910  169.6310  143.0840 S   0  0  0  0  0  0  0  0  0  0  0  0
  193.1040  171.2040  143.7580 C   0  0  2  0  0  3  0  0  0  0  0  0
  191.2880  170.5520  142.1410 C   0  0  0  0  0  3  0  0  0  0  0  0
  190.8850  171.7080  142.6510 C   0  0  0  0  0  0  0  0  0  0  0  0
  196.3130  171.3540  145.9290 C   0  0  0  0  0  2  0  0  0  0  0  0
  194.0510  170.9880  144.9380 C   0  0  2  0  0  3  0  0  0  0  0  0
  195.4510  171.5590  144.6860 C   0  0  0  0  0  2  0  0  0  0  0  0
  194.8730  169.4040  146.5110 C   0  0  0  0  0  2  0  0  0  0  0  0
  196.3120  169.8830  146.3340 C   0  0  0  0  0  2  0  0  0  0  0  0
  194.1330  169.5630  145.2600 N   0  0  0  0  0  2  0  0  0  0  0  0
  188.3500  177.5870  144.7340 C   0  0  0  0  0  2  0  0  0  0  0  0
  189.3780  176.9970  145.7040 C   0  0  0  0  0  2  0  0  0  0  0  0
  188.8200  175.0720  147.1780 C   0  0  0  0  0  2  0  0  0  0  0  0
  190.2410  174.7900  146.7230 C   0  0  1  0  0  3  0  0  0  0  0  0
  189.2440  175.4780  145.7820 C   0  0  2  0  0  3  0  0  0  0  0  0
  191.1960  175.7340  147.4490 C   0  0  0  0  0  2  0  0  0  0  0  0
  193.4720  176.6550  146.7480 C   0  0  0  0  0  3  0  0  0  0  0  0
  194.5770  176.1370  146.1760 N   0  0  0  0  0  0  0  0  0  0  0  0
  193.0820  174.5330  146.3810 O   0  0  0  0  0  0  0  0  0  0  0  0
  192.5570  175.6340  146.8570 C   0  0  0  0  0  0  0  0  0  0  0  0
  194.2930  174.8320  145.9690 C   0  0  0  0  0  3  0  0  0  0  0  0
  1 25  1  0  0  0  0
  2  6  1  6  0  0  0
  2  5  1  0  0  0  0
  3  4  1  0  0  0  0
  4  1  1  1  0  0  0
  4  6  1  0  0  0  0
  7  3  1  6  0  0  0
  7  2  1  0  0  0  0
  7  5  1  0  0  0  0
  8  1  1  0  0  0  0
  9  8  1  0  0  0  0
 10 12  1  0  0  0  0
 10  9  1  0  0  0  0
 11 12  1  0  0  0  0
 11 18  1  0  0  0  0
 13 11  2  0  0  0  0
 16 15  1  1  0  0  0
 16 14  1  0  0  0  0
 16 20  1  0  0  0  0
 17 18  2  0  0  0  0
 17 15  1  0  0  0  0
 18 14  1  0  0  0  0
 19 23  1  0  0  0  0
 20 21  1  6  0  0  0
 20 24  1  0  0  0  0
 21 19  1  0  0  0  0
 23 22  1  0  0  0  0
 24 22  1  0  0  0  0
 25 26  1  0  0  0  0
 28 27  1  0  0  0  0
 28 30  1  1  0  0  0
 29 26  1  1  0  0  0
 29 28  1  0  0  0  0
 29 27  1  0  0  0  0
 31 34  2  0  0  0  0
 32 31  1  0  0  0  0
 33 34  1  0  0  0  0
 34 30  1  0  0  0  0
 35 32  2  0  0  0  0
 35 33  1  0  0  0  0
M  END
>  <MODEL>
1

>  <REMARK>
 VINA RESULT:      -6.9      0.000      0.000
  Name = 
  12 active torsions:
  status: ('A' for Active; 'I' for Inactive)
    1  A    between atoms: C_5  and  C_17
    2  A    between atoms: C_9  and  C_23
    3  A    between atoms: C_11  and  N_19
    4  A    between atoms: N_13  and  C_15
    5  A    between atoms: C_14  and  C_29
    6  A    between atoms: C_15  and  C_34
    7  A    between atoms: N_19  and  N_28
    8  A    between atoms: N_19  and  C_33
    9  A    between atoms: N_28  and  C_34
   10  A    between atoms: C_29  and  C_31
   11  A    between atoms: C_32  and  C_33
   12  A    between atoms: C_32  and  C_35
                            x       y       z     vdW  Elec       q    Type
                         _______ _______ _______ _____ _____    ______ ____

>  <TORSDO>
F 12

$$$$
=
 OpenBabel11042418173D

 35 40  0  0  1  0  0  0  0  0999 V2000
  187.2670  176.8370  144.3560 N   0  0  0  0  0  0  0  0  0  0  0  0
  184.4880  177.7790  146.5870 C   0  0  2  0  0  3  0  0  0  0  0  0
  185.9130  178.8210  144.8980 C   0  0  0  0  0  2  0  0  0  0  0  0
  185.9130  177.3210  144.6620 C   0  0  2  0  0  3  0  0  0  0  0  0
  185.3160  178.8200  147.3130 C   0  0  0  0  0  2  0  0  0  0  0  0
  185.3940  176.7330  145.9620 C   0  0  0  0  0  2  0  0  0  0  0  0
  184.8150  179.1020  145.9100 C   0  0  2  0  0  3  0  0  0  0  0  0
  187.5180  177.0280  142.9850 N   0  0  0  0  0  2  0  0  0  0  0  0
  187.1480  175.7930  142.3120 C   0  0  0  0  0  2  0  0  0  0  0  0
  188.1360  175.4960  141.1940 C   0  0  0  0  0  2  0  0  0  0  0  0
  190.0980  173.9160  141.5010 C   0  0  0  0  0  0  0  0  0  0  0  0
  189.4440  175.1650  141.7470 N   0  0  0  0  0  2  0  0  0  0  0  0
  189.5130  173.0140  140.8430 O   0  0  0  0  0  0  0  0  0  0  0  0
  192.4540  175.0270  142.6540 S   0  0  0  0  0  0  0  0  0  0  0  0
  193.7560  172.4040  142.4220 S   0  0  0  0  0  0  0  0  0  0  0  0
  193.9480  174.1740  142.0540 C   0  0  2  0  0  3  0  0  0  0  0  0
  192.0660  172.5140  141.8590 C   0  0  0  0  0  3  0  0  0  0  0  0
  191.4660  173.6890  141.9920 C   0  0  0  0  0  0  0  0  0  0  0  0
  196.7480  176.7100  142.9300 C   0  0  0  0  0  2  0  0  0  0  0  0
  195.2390  174.7410  142.6450 C   0  0  2  0  0  3  0  0  0  0  0  0
  195.4750  176.2050  142.2560 C   0  0  0  0  0  2  0  0  0  0  0  0
  197.5620  174.3540  142.9820 C   0  0  0  0  0  2  0  0  0  0  0  0
  197.9180  175.7900  142.6010 C   0  0  0  0  0  2  0  0  0  0  0  0
  196.3800  173.9170  142.2420 N   0  0  0  0  0  2  0  0  0  0  0  0
  188.2790  177.5930  145.1140 C   0  0  0  0  0  2  0  0  0  0  0  0
  188.7800  176.8680  146.3670 C   0  0  0  0  0  2  0  0  0  0  0  0
  189.2230  174.6480  147.4000 C   0  0  0  0  0  2  0  0  0  0  0  0
  190.3550  174.8250  146.4040 C   0  0  1  0  0  3  0  0  0  0  0  0
  188.9550  175.3750  146.0990 C   0  0  2  0  0  3  0  0  0  0  0  0
  191.3440  175.8530  146.9470 C   0  0  0  0  0  2  0  0  0  0  0  0
  193.8300  176.3060  146.5800 C   0  0  0  0  0  3  0  0  0  0  0  0
  194.8850  175.5730  146.1710 N   0  0  0  0  0  0  0  0  0  0  0  0
  193.0960  174.2890  146.1570 O   0  0  0  0  0  0  0  0  0  0  0  0
  192.7310  175.4800  146.5550 C   0  0  0  0  0  0  0  0  0  0  0  0
  194.3870  174.3410  145.9230 C   0  0  0  0  0  3  0  0  0  0  0  0
  1 25  1  0  0  0  0
  2  6  1  6  0  0  0
  2  5  1  0  0  0  0
  4  1  1  1  0  0  0
  4  3  1  0  0  0  0
  4  6  1  0  0  0  0
  7  3  1  6  0  0  0
  7  2  1  0  0  0  0
  7  5  1  0  0  0  0
  8  1  1  0  0  0  0
  9  8  1  0  0  0  0
 10 12  1  0  0  0  0
 10  9  1  0  0  0  0
 11 12  1  0  0  0  0
 11 18  1  0  0  0  0
 13 11  2  0  0  0  0
 16 15  1  1  0  0  0
 16 20  1  0  0  0  0
 16 14  1  0  0  0  0
 17 18  2  0  0  0  0
 17 15  1  0  0  0  0
 18 14  1  0  0  0  0
 20 21  1  6  0  0  0
 21 19  1  0  0  0  0
 23 19  1  0  0  0  0
 23 22  1  0  0  0  0
 24 20  1  0  0  0  0
 24 22  1  0  0  0  0
 25 26  1  0  0  0  0
 28 30  1  1  0  0  0
 28 27  1  0  0  0  0
 29 26  1  1  0  0  0
 29 28  1  0  0  0  0
 29 27  1  0  0  0  0
 32 31  1  0  0  0  0
 33 34  1  0  0  0  0
 34 31  2  0  0  0  0
 34 30  1  0  0  0  0
 35 33  1  0  0  0  0
 35 32  2  0  0  0  0
M  END
>  <MODEL>
2

>  <REMARK>
 VINA RESULT:      -6.8      2.140      2.769
  Name = 
  12 active torsions:
  status: ('A' for Active; 'I' for Inactive)
    1  A    between atoms: C_5  and  C_17
    2  A    between atoms: C_9  and  C_23
    3  A    between atoms: C_11  and  N_19
    4  A    between atoms: N_13  and  C_15
    5  A    between atoms: C_14  and  C_29
    6  A    between atoms: C_15  and  C_34
    7  A    between atoms: N_19  and  N_28
    8  A    between atoms: N_19  and  C_33
    9  A    between atoms: N_28  and  C_34
   10  A    between atoms: C_29  and  C_31
   11  A    between atoms: C_32  and  C_33
   12  A    between atoms: C_32  and  C_35
                            x       y       z     vdW  Elec       q    Type
                         _______ _______ _______ _____ _____    ______ ____

>  <TORSDO>
F 12

$$$$
=
 OpenBabel11042418173D

 35 40  0  0  1  0  0  0  0  0999 V2000
  194.5440  174.3320  142.7720 N   0  0  0  0  0  0  0  0  0  0  0  0
  197.5630  173.7800  144.8150 C   0  0  2  0  0  3  0  0  0  0  0  0
  195.4610  172.6410  144.3100 C   0  0  0  0  0  2  0  0  0  0  0  0
  195.7600  173.6130  143.1820 C   0  0  2  0  0  3  0  0  0  0  0  0
  196.7780  173.7420  146.1100 C   0  0  0  0  0  2  0  0  0  0  0  0
  196.7960  174.5600  143.7610 C   0  0  0  0  0  2  0  0  0  0  0  0
  196.7180  172.5620  145.1600 C   0  0  2  0  0  3  0  0  0  0  0  0
  193.4210  173.6080  143.2080 N   0  0  0  0  0  2  0  0  0  0  0  0
  192.6170  173.3230  142.0300 C   0  0  0  0  0  2  0  0  0  0  0  0
  191.2340  172.8470  142.4470 C   0  0  0  0  0  2  0  0  0  0  0  0
  189.4890  174.4240  141.4960 C   0  0  0  0  0  0  0  0  0  0  0  0
  190.3230  173.9790  142.5690 N   0  0  0  0  0  2  0  0  0  0  0  0
  189.5740  173.8820  140.3610 O   0  0  0  0  0  0  0  0  0  0  0  0
  188.0690  176.0320  143.3690 S   0  0  0  0  0  0  0  0  0  0  0  0
  186.6060  177.2660  141.1410 S   0  0  0  0  0  0  0  0  0  0  0  0
  186.4060  176.4520  142.7540 C   0  0  2  0  0  3  0  0  0  0  0  0
  187.8240  176.0330  140.7170 C   0  0  0  0  0  3  0  0  0  0  0  0
  188.5080  175.4970  141.7190 C   0  0  0  0  0  0  0  0  0  0  0  0
  185.0670  179.5950  144.5880 C   0  0  0  0  0  2  0  0  0  0  0  0
  185.6050  177.3120  143.7310 C   0  0  2  0  0  3  0  0  0  0  0  0
  185.9460  178.8030  143.6240 C   0  0  0  0  0  2  0  0  0  0  0  0
  184.8830  177.5390  145.9860 C   0  0  0  0  0  2  0  0  0  0  0  0
  185.1960  179.0340  146.0000 C   0  0  0  0  0  2  0  0  0  0  0  0
  185.8130  176.8400  145.1010 N   0  0  0  0  0  2  0  0  0  0  0  0
  194.4930  175.6690  143.3860 C   0  0  0  0  0  2  0  0  0  0  0  0
  193.2740  175.8870  144.2880 C   0  0  0  0  0  2  0  0  0  0  0  0
  194.3570  175.9730  146.5270 C   0  0  0  0  0  2  0  0  0  0  0  0
  192.9280  176.4130  146.7900 C   0  0  1  0  0  3  0  0  0  0  0  0
  193.6270  176.7810  145.4750 C   0  0  2  0  0  3  0  0  0  0  0  0
  192.0070  175.1990  146.7090 C   0  0  0  0  0  2  0  0  0  0  0  0
  189.5020  174.8060  147.0130 C   0  0  0  0  0  3  0  0  0  0  0  0
  188.4120  175.5970  147.0830 N   0  0  0  0  0  0  0  0  0  0  0  0
  190.1820  176.8740  146.7890 O   0  0  0  0  0  0  0  0  0  0  0  0
  190.5870  175.6300  146.8240 C   0  0  0  0  0  0  0  0  0  0  0  0
  188.8780  176.8580  146.9410 C   0  0  0  0  0  3  0  0  0  0  0  0
  1  8  1  0  0  0  0
  1 25  1  0  0  0  0
  2  6  1  6  0  0  0
  2  7  1  0  0  0  0
  2  5  1  0  0  0  0
  4  1  1  1  0  0  0
  4  6  1  0  0  0  0
  4  3  1  0  0  0  0
  7  3  1  6  0  0  0
  7  5  1  0  0  0  0
  9 10  1  0  0  0  0
  9  8  1  0  0  0  0
 10 12  1  0  0  0  0
 11 18  1  0  0  0  0
 11 12  1  0  0  0  0
 13 11  2  0  0  0  0
 16 15  1  6  0  0  0
 16 14  1  0  0  0  0
 16 20  1  0  0  0  0
 17 15  1  0  0  0  0
 17 18  2  0  0  0  0
 18 14  1  0  0  0  0
 19 23  1  0  0  0  0
 20 21  1  1  0  0  0
 20 24  1  0  0  0  0
 21 19  1  0  0  0  0
 22 23  1  0  0  0  0
 24 22  1  0  0  0  0
 25 26  1  0  0  0  0
 27 28  1  0  0  0  0
 28 30  1  6  0  0  0
 29 26  1  6  0  0  0
 29 27  1  0  0  0  0
 29 28  1  0  0  0  0
 30 34  1  0  0  0  0
 31 32  1  0  0  0  0
 33 34  1  0  0  0  0
 33 35  1  0  0  0  0
 34 31  2  0  0  0  0
 35 32  2  0  0  0  0
M  END
>  <MODEL>
3

>  <REMARK>
 VINA RESULT:      -6.7      2.528      8.432
  Name = 
  12 active torsions:
  status: ('A' for Active; 'I' for Inactive)
    1  A    between atoms: C_5  and  C_17
    2  A    between atoms: C_9  and  C_23
    3  A    between atoms: C_11  and  N_19
    4  A    between atoms: N_13  and  C_15
    5  A    between atoms: C_14  and  C_29
    6  A    between atoms: C_15  and  C_34
    7  A    between atoms: N_19  and  N_28
    8  A    between atoms: N_19  and  C_33
    9  A    between atoms: N_28  and  C_34
   10  A    between atoms: C_29  and  C_31
   11  A    between atoms: C_32  and  C_33
   12  A    between atoms: C_32  and  C_35
                            x       y       z     vdW  Elec       q    Type
                         _______ _______ _______ _____ _____    ______ ____

>  <TORSDO>
F 12

$$$$
=
 OpenBabel11042418173D

 35 40  0  0  1  0  0  0  0  0999 V2000
  188.6170  176.8480  144.8240 N   0  0  0  0  0  0  0  0  0  0  0  0
  186.1640  177.2960  147.5390 C   0  0  2  0  0  3  0  0  0  0  0  0
  186.1750  176.8180  145.1440 C   0  0  0  0  0  2  0  0  0  0  0  0
  187.5260  176.4240  145.7150 C   0  0  2  0  0  3  0  0  0  0  0  0
  185.5130  178.4870  146.8650 C   0  0  0  0  0  2  0  0  0  0  0  0
  187.5940  177.1370  147.0530 C   0  0  0  0  0  2  0  0  0  0  0  0
  185.2640  177.0900  146.3280 C   0  0  2  0  0  3  0  0  0  0  0  0
  188.1060  177.7620  143.8850 N   0  0  0  0  0  2  0  0  0  0  0  0
  188.9110  177.6240  142.6810 C   0  0  0  0  0  2  0  0  0  0  0  0
  188.7600  176.2210  142.1140 C   0  0  0  0  0  2  0  0  0  0  0  0
  190.2190  174.2740  142.8350 C   0  0  0  0  0  0  0  0  0  0  0  0
  190.0370  175.5180  142.1530 N   0  0  0  0  0  2  0  0  0  0  0  0
  189.2720  173.7730  143.5020 O   0  0  0  0  0  0  0  0  0  0  0  0
  191.8320  172.1050  143.7300 S   0  0  0  0  0  0  0  0  0  0  0  0
  194.0280  173.0970  142.0500 S   0  0  0  0  0  0  0  0  0  0  0  0
  193.5990  172.5510  143.7300 C   0  0  2  0  0  3  0  0  0  0  0  0
  192.5030  174.0220  142.0060 C   0  0  0  0  0  3  0  0  0  0  0  0
  191.5000  173.5580  142.7390 C   0  0  0  0  0  0  0  0  0  0  0  0
  195.5080  170.1790  146.1300 C   0  0  0  0  0  2  0  0  0  0  0  0
  194.5040  171.4160  144.2080 C   0  0  2  0  0  3  0  0  0  0  0  0
  194.6400  171.3700  145.7340 C   0  0  0  0  0  2  0  0  0  0  0  0
  196.5940  170.3240  143.8910 C   0  0  0  0  0  2  0  0  0  0  0  0
  196.8430  170.2330  145.3950 C   0  0  0  0  0  2  0  0  0  0  0  0
  195.8220  171.5270  143.5830 N   0  0  0  0  0  2  0  0  0  0  0  0
  189.6830  177.5220  145.5840 C   0  0  0  0  0  2  0  0  0  0  0  0
  191.0610  176.8740  145.4220 C   0  0  0  0  0  2  0  0  0  0  0  0
  191.3650  175.7750  147.6340 C   0  0  0  0  0  2  0  0  0  0  0  0
  192.4860  175.2090  146.7820 C   0  0  1  0  0  3  0  0  0  0  0  0
  191.1240  175.5370  146.1580 C   0  0  2  0  0  3  0  0  0  0  0  0
  193.5570  176.2790  146.5880 C   0  0  0  0  0  2  0  0  0  0  0  0
  195.0140  176.1060  144.4980 C   0  0  0  0  0  3  0  0  0  0  0  0
  196.1000  175.3880  144.1470 N   0  0  0  0  0  0  0  0  0  0  0  0
  195.5300  174.8320  146.2000 O   0  0  0  0  0  0  0  0  0  0  0  0
  194.6810  175.7330  145.7790 C   0  0  0  0  0  0  0  0  0  0  0  0
  196.3810  174.6200  145.2220 C   0  0  0  0  0  3  0  0  0  0  0  0
  1 25  1  0  0  0  0
  2  5  1  6  0  0  0
  3  4  1  0  0  0  0
  4  1  1  6  0  0  0
  4  6  1  0  0  0  0
  6  2  1  0  0  0  0
  7  3  1  6  0  0  0
  7  5  1  0  0  0  0
  7  2  1  0  0  0  0
  8  1  1  0  0  0  0
  9  8  1  0  0  0  0
 10 12  1  0  0  0  0
 10  9  1  0  0  0  0
 11 13  2  0  0  0  0
 12 11  1  0  0  0  0
 16 15  1  6  0  0  0
 16 14  1  0  0  0  0
 16 20  1  0  0  0  0
 17 15  1  0  0  0  0
 17 18  2  0  0  0  0
 18 11  1  0  0  0  0
 18 14  1  0  0  0  0
 20 21  1  1  0  0  0
 21 19  1  0  0  0  0
 22 23  1  0  0  0  0
 23 19  1  0  0  0  0
 24 22  1  0  0  0  0
 24 20  1  0  0  0  0
 26 25  1  0  0  0  0
 28 30  1  6  0  0  0
 28 27  1  0  0  0  0
 29 26  1  6  0  0  0
 29 28  1  0  0  0  0
 29 27  1  0  0  0  0
 31 34  2  0  0  0  0
 32 31  1  0  0  0  0
 32 35  2  0  0  0  0
 34 33  1  0  0  0  0
 34 30  1  0  0  0  0
 35 33  1  0  0  0  0
M  END
>  <MODEL>
4

>  <REMARK>
 VINA RESULT:      -6.6      1.771      2.218
  Name = 
  12 active torsions:
  status: ('A' for Active; 'I' for Inactive)
    1  A    between atoms: C_5  and  C_17
    2  A    between atoms: C_9  and  C_23
    3  A    between atoms: C_11  and  N_19
    4  A    between atoms: N_13  and  C_15
    5  A    between atoms: C_14  and  C_29
    6  A    between atoms: C_15  and  C_34
    7  A    between atoms: N_19  and  N_28
    8  A    between atoms: N_19  and  C_33
    9  A    between atoms: N_28  and  C_34
   10  A    between atoms: C_29  and  C_31
   11  A    between atoms: C_32  and  C_33
   12  A    between atoms: C_32  and  C_35
                            x       y       z     vdW  Elec       q    Type
                         _______ _______ _______ _____ _____    ______ ____

>  <TORSDO>
F 12

$$$$
=
 OpenBabel11042418173D

 35 40  0  0  1  0  0  0  0  0999 V2000
  193.6620  173.7180  143.2230 N   0  0  0  0  0  0  0  0  0  0  0  0
  195.9770  176.2750  141.9230 C   0  0  2  0  0  3  0  0  0  0  0  0
  196.0770  174.2000  143.2080 C   0  0  0  0  0  2  0  0  0  0  0  0
  194.7860  174.2040  142.4090 C   0  0  2  0  0  3  0  0  0  0  0  0
  196.4640  176.6550  143.3070 C   0  0  0  0  0  2  0  0  0  0  0  0
  194.5930  175.6550  142.0070 C   0  0  0  0  0  2  0  0  0  0  0  0
  196.9180  175.3500  142.6820 C   0  0  2  0  0  3  0  0  0  0  0  0
  193.1570  172.5410  142.6420 N   0  0  0  0  0  2  0  0  0  0  0  0
  191.7120  172.6920  142.5680 C   0  0  0  0  0  2  0  0  0  0  0  0
  191.3200  173.2700  141.2170 C   0  0  0  0  0  2  0  0  0  0  0  0
  189.0220  174.3450  141.1920 C   0  0  0  0  0  0  0  0  0  0  0  0
  190.4370  174.4160  141.3920 N   0  0  0  0  0  2  0  0  0  0  0  0
  188.4940  173.2790  140.7750 O   0  0  0  0  0  0  0  0  0  0  0  0
  187.7670  175.9480  143.1830 S   0  0  0  0  0  0  0  0  0  0  0  0
  186.5080  177.5360  141.0560 S   0  0  0  0  0  0  0  0  0  0  0  0
  186.1790  176.6170  142.5900 C   0  0  2  0  0  3  0  0  0  0  0  0
  187.5780  176.2040  140.5380 C   0  0  0  0  0  3  0  0  0  0  0  0
  188.1730  175.5070  141.4970 C   0  0  0  0  0  0  0  0  0  0  0  0
  185.0860  179.7580  144.5840 C   0  0  0  0  0  2  0  0  0  0  0  0
  185.4680  177.4820  143.6300 C   0  0  2  0  0  3  0  0  0  0  0  0
  185.8800  178.9570  143.5560 C   0  0  0  0  0  2  0  0  0  0  0  0
  184.8570  177.6660  145.9220 C   0  0  0  0  0  2  0  0  0  0  0  0
  185.2470  179.1420  145.9700 C   0  0  0  0  0  2  0  0  0  0  0  0
  185.7100  176.9530  144.9730 N   0  0  0  0  0  2  0  0  0  0  0  0
  194.1030  173.3990  144.5910 C   0  0  0  0  0  2  0  0  0  0  0  0
  193.3690  174.1900  145.6770 C   0  0  0  0  0  2  0  0  0  0  0  0
  194.1370  176.3690  146.6010 C   0  0  0  0  0  2  0  0  0  0  0  0
  192.6490  176.5680  146.3750 C   0  0  1  0  0  3  0  0  0  0  0  0
  193.4720  175.6920  145.4210 C   0  0  2  0  0  3  0  0  0  0  0  0
  191.8740  175.8000  147.4430 C   0  0  0  0  0  2  0  0  0  0  0  0
  189.4770  174.9680  147.1540 C   0  0  0  0  0  3  0  0  0  0  0  0
  188.2760  175.5560  146.9820 N   0  0  0  0  0  0  0  0  0  0  0  0
  189.8090  177.1310  147.1230 O   0  0  0  0  0  0  0  0  0  0  0  0
  190.4110  175.9750  147.2330 C   0  0  0  0  0  0  0  0  0  0  0  0
  188.5280  176.8830  146.9690 C   0  0  0  0  0  3  0  0  0  0  0  0
  1 25  1  0  0  0  0
  2  6  1  1  0  0  0
  2  7  1  0  0  0  0
  2  5  1  0  0  0  0
  4  3  1  0  0  0  0
  4  1  1  1  0  0  0
  6  4  1  0  0  0  0
  7  3  1  1  0  0  0
  7  5  1  0  0  0  0
  8  1  1  0  0  0  0
  9  8  1  0  0  0  0
 10 12  1  0  0  0  0
 10  9  1  0  0  0  0
 11 12  1  0  0  0  0
 11 18  1  0  0  0  0
 13 11  2  0  0  0  0
 16 15  1  6  0  0  0
 16 14  1  0  0  0  0
 16 20  1  0  0  0  0
 17 15  1  0  0  0  0
 17 18  2  0  0  0  0
 18 14  1  0  0  0  0
 19 23  1  0  0  0  0
 20 21  1  1  0  0  0
 20 24  1  0  0  0  0
 21 19  1  0  0  0  0
 22 23  1  0  0  0  0
 24 22  1  0  0  0  0
 25 26  1  0  0  0  0
 28 27  1  0  0  0  0
 28 30  1  1  0  0  0
 29 26  1  1  0  0  0
 29 28  1  0  0  0  0
 29 27  1  0  0  0  0
 31 34  2  0  0  0  0
 32 31  1  0  0  0  0
 33 34  1  0  0  0  0
 34 30  1  0  0  0  0
 35 32  2  0  0  0  0
 35 33  1  0  0  0  0
M  END
>  <MODEL>
5

>  <REMARK>
 VINA RESULT:      -6.6      2.845      8.292
  Name = 
  12 active torsions:
  status: ('A' for Active; 'I' for Inactive)
    1  A    between atoms: C_5  and  C_17
    2  A    between atoms: C_9  and  C_23
    3  A    between atoms: C_11  and  N_19
    4  A    between atoms: N_13  and  C_15
    5  A    between atoms: C_14  and  C_29
    6  A    between atoms: C_15  and  C_34
    7  A    between atoms: N_19  and  N_28
    8  A    between atoms: N_19  and  C_33
    9  A    between atoms: N_28  and  C_34
   10  A    between atoms: C_29  and  C_31
   11  A    between atoms: C_32  and  C_33
   12  A    between atoms: C_32  and  C_35
                            x       y       z     vdW  Elec       q    Type
                         _______ _______ _______ _____ _____    ______ ____

>  <TORSDO>
F 12

$$$$
=
 OpenBabel11042418173D

 35 40  0  0  1  0  0  0  0  0999 V2000
  193.6440  172.6210  143.6040 N   0  0  0  0  0  0  0  0  0  0  0  0
  197.1550  172.6590  144.7250 C   0  0  2  0  0  3  0  0  0  0  0  0
  195.0140  171.7300  145.4460 C   0  0  0  0  0  2  0  0  0  0  0  0
  194.9340  172.0110  143.9560 C   0  0  2  0  0  3  0  0  0  0  0  0
  196.8150  173.3410  146.0350 C   0  0  0  0  0  2  0  0  0  0  0  0
  196.0890  172.9590  143.6870 C   0  0  0  0  0  2  0  0  0  0  0  0
  196.4740  171.8770  145.8390 C   0  0  2  0  0  3  0  0  0  0  0  0
  193.0670  171.8870  142.5520 N   0  0  0  0  0  2  0  0  0  0  0  0
  192.6820  172.8470  141.5290 C   0  0  0  0  0  2  0  0  0  0  0  0
  191.2940  172.5150  141.0030 C   0  0  0  0  0  2  0  0  0  0  0  0
  189.1760  173.7090  141.7320 C   0  0  0  0  0  0  0  0  0  0  0  0
  190.4360  173.6930  141.0550 N   0  0  0  0  0  2  0  0  0  0  0  0
  188.7260  172.6530  142.2560 O   0  0  0  0  0  0  0  0  0  0  0  0
  187.9060  175.6020  143.4380 S   0  0  0  0  0  0  0  0  0  0  0  0
  186.9840  177.0640  141.0630 S   0  0  0  0  0  0  0  0  0  0  0  0
  186.4420  176.3360  142.6380 C   0  0  2  0  0  3  0  0  0  0  0  0
  187.9690  175.6040  140.7750 C   0  0  0  0  0  3  0  0  0  0  0  0
  188.4130  174.9600  141.8460 C   0  0  0  0  0  0  0  0  0  0  0  0
  185.4800  179.7390  144.2270 C   0  0  0  0  0  2  0  0  0  0  0  0
  185.7260  177.3570  143.5210 C   0  0  2  0  0  3  0  0  0  0  0  0
  186.2840  178.7760  143.3590 C   0  0  0  0  0  2  0  0  0  0  0  0
  184.9280  177.8160  145.7140 C   0  0  0  0  0  2  0  0  0  0  0  0
  185.4530  179.2500  145.6710 C   0  0  0  0  0  2  0  0  0  0  0  0
  185.7910  176.9420  144.9230 N   0  0  0  0  0  2  0  0  0  0  0  0
  192.7170  172.5860  144.7480 C   0  0  0  0  0  2  0  0  0  0  0  0
  192.1800  173.9620  145.1500 C   0  0  0  0  0  2  0  0  0  0  0  0
  192.6830  176.0720  146.3700 C   0  0  0  0  0  2  0  0  0  0  0  0
  193.9570  175.7780  145.6000 C   0  0  1  0  0  3  0  0  0  0  0  0
  193.1060  174.6330  146.1640 C   0  0  2  0  0  3  0  0  0  0  0  0
  193.7300  176.0800  144.1210 C   0  0  0  0  0  2  0  0  0  0  0  0
  195.2430  176.3120  142.0770 C   0  0  0  0  0  3  0  0  0  0  0  0
  196.5570  176.5370  141.8830 N   0  0  0  0  0  0  0  0  0  0  0  0
  196.1720  176.4880  144.0500 O   0  0  0  0  0  0  0  0  0  0  0  0
  195.0350  176.2810  143.4360 C   0  0  0  0  0  0  0  0  0  0  0  0
  197.0880  176.6390  143.1210 C   0  0  0  0  0  3  0  0  0  0  0  0
  1 25  1  0  0  0  0
  2  6  1  6  0  0  0
  2  7  1  0  0  0  0
  2  5  1  0  0  0  0
  4  1  1  1  0  0  0
  4  3  1  0  0  0  0
  6  4  1  0  0  0  0
  7  3  1  6  0  0  0
  7  5  1  0  0  0  0
  8  1  1  0  0  0  0
  9  8  1  0  0  0  0
 10 12  1  0  0  0  0
 10  9  1  0  0  0  0
 11 18  1  0  0  0  0
 11 13  2  0  0  0  0
 12 11  1  0  0  0  0
 16 15  1  6  0  0  0
 16 14  1  0  0  0  0
 16 20  1  0  0  0  0
 17 15  1  0  0  0  0
 17 18  2  0  0  0  0
 18 14  1  0  0  0  0
 19 23  1  0  0  0  0
 20 21  1  1  0  0  0
 20 24  1  0  0  0  0
 21 19  1  0  0  0  0
 23 22  1  0  0  0  0
 24 22  1  0  0  0  0
 25 26  1  0  0  0  0
 28 30  1  6  0  0  0
 28 29  1  0  0  0  0
 28 27  1  0  0  0  0
 29 26  1  6  0  0  0
 29 27  1  0  0  0  0
 31 34  2  0  0  0  0
 32 31  1  0  0  0  0
 32 35  2  0  0  0  0
 34 33  1  0  0  0  0
 34 30  1  0  0  0  0
 35 33  1  0  0  0  0
M  END
>  <MODEL>
6

>  <REMARK>
 VINA RESULT:      -6.4      2.698      8.399
  Name = 
  12 active torsions:
  status: ('A' for Active; 'I' for Inactive)
    1  A    between atoms: C_5  and  C_17
    2  A    between atoms: C_9  and  C_23
    3  A    between atoms: C_11  and  N_19
    4  A    between atoms: N_13  and  C_15
    5  A    between atoms: C_14  and  C_29
    6  A    between atoms: C_15  and  C_34
    7  A    between atoms: N_19  and  N_28
    8  A    between atoms: N_19  and  C_33
    9  A    between atoms: N_28  and  C_34
   10  A    between atoms: C_29  and  C_31
   11  A    between atoms: C_32  and  C_33
   12  A    between atoms: C_32  and  C_35
                            x       y       z     vdW  Elec       q    Type
                         _______ _______ _______ _____ _____    ______ ____

>  <TORSDO>
F 12

$$$$
=
 OpenBabel11042418173D

 35 40  0  0  1  0  0  0  0  0999 V2000
  188.0690  175.6020  142.3150 N   0  0  0  0  0  0  0  0  0  0  0  0
  185.2370  177.8250  143.1070 C   0  0  2  0  0  3  0  0  0  0  0  0
  187.2500  177.8470  141.7220 C   0  0  0  0  0  2  0  0  0  0  0  0
  186.8760  176.4010  141.9970 C   0  0  2  0  0  3  0  0  0  0  0  0
  186.1370  178.9010  143.6810 C   0  0  0  0  0  2  0  0  0  0  0  0
  185.9260  176.4740  143.1790 C   0  0  0  0  0  2  0  0  0  0  0  0
  186.0760  178.6950  142.1800 C   0  0  2  0  0  3  0  0  0  0  0  0
  188.6580  175.1700  141.1130 N   0  0  0  0  0  2  0  0  0  0  0  0
  188.4810  173.7270  141.0500 C   0  0  0  0  0  2  0  0  0  0  0  0
  189.5680  173.1090  140.1840 C   0  0  0  0  0  2  0  0  0  0  0  0
  192.0320  173.6560  139.9310 C   0  0  0  0  0  0  0  0  0  0  0  0
  190.8840  173.3910  140.7430 N   0  0  0  0  0  2  0  0  0  0  0  0
  191.9510  173.5790  138.6750 O   0  0  0  0  0  0  0  0  0  0  0  0
  193.7870  173.4210  142.1620 S   0  0  0  0  0  0  0  0  0  0  0  0
  195.5640  175.4040  140.9220 S   0  0  0  0  0  0  0  0  0  0  0  0
  194.6920  174.9750  142.4580 C   0  0  2  0  0  3  0  0  0  0  0  0
  194.0930  174.9650  140.0130 C   0  0  0  0  0  3  0  0  0  0  0  0
  193.3050  174.0470  140.5560 C   0  0  0  0  0  0  0  0  0  0  0  0
  197.7710  173.9990  144.6030 C   0  0  0  0  0  2  0  0  0  0  0  0
  195.6440  174.8960  143.6510 C   0  0  2  0  0  3  0  0  0  0  0  0
  196.8440  173.9780  143.3910 C   0  0  0  0  0  2  0  0  0  0  0  0
  195.7950  174.5890  146.0050 C   0  0  0  0  0  2  0  0  0  0  0  0
  196.9920  173.6500  145.8670 C   0  0  0  0  0  2  0  0  0  0  0  0
  194.9170  174.4580  144.8440 N   0  0  0  0  0  2  0  0  0  0  0  0
  189.0620  176.4070  143.0460 C   0  0  0  0  0  2  0  0  0  0  0  0
  189.3940  175.8610  144.4380 C   0  0  0  0  0  2  0  0  0  0  0  0
  190.0680  176.4320  146.7650 C   0  0  0  0  0  2  0  0  0  0  0  0
  188.8170  177.2590  146.5290 C   0  0  1  0  0  3  0  0  0  0  0  0
  189.8010  176.9910  145.3830 C   0  0  2  0  0  3  0  0  0  0  0  0
  187.5970  176.3420  146.5560 C   0  0  0  0  0  2  0  0  0  0  0  0
  186.3090  178.3920  147.3670 C   0  0  0  0  0  3  0  0  0  0  0  0
  185.0120  178.7600  147.3850 N   0  0  0  0  0  0  0  0  0  0  0  0
  185.1560  176.7600  146.4760 O   0  0  0  0  0  0  0  0  0  0  0  0
  186.3650  177.1400  146.8010 C   0  0  0  0  0  0  0  0  0  0  0  0
  184.3420  177.7280  146.8280 C   0  0  0  0  0  3  0  0  0  0  0  0
  1 25  1  0  0  0  0
  2  6  1  1  0  0  0
  2  5  1  0  0  0  0
  3  4  1  0  0  0  0
  4  1  1  1  0  0  0
  4  6  1  0  0  0  0
  7  3  1  1  0  0  0
  7  2  1  0  0  0  0
  7  5  1  0  0  0  0
  8  1  1  0  0  0  0
  9  8  1  0  0  0  0
 10 12  1  0  0  0  0
 10  9  1  0  0  0  0
 11 18  1  0  0  0  0
 11 12  1  0  0  0  0
 13 11  2  0  0  0  0
 14 16  1  0  0  0  0
 16 15  1  6  0  0  0
 16 20  1  0  0  0  0
 17 18  2  0  0  0  0
 17 15  1  0  0  0  0
 18 14  1  0  0  0  0
 19 23  1  0  0  0  0
 20 21  1  6  0  0  0
 20 24  1  0  0  0  0
 21 19  1  0  0  0  0
 23 22  1  0  0  0  0
 24 22  1  0  0  0  0
 25 26  1  0  0  0  0
 28 30  1  6  0  0  0
 28 27  1  0  0  0  0
 29 26  1  6  0  0  0
 29 28  1  0  0  0  0
 29 27  1  0  0  0  0
 30 34  1  0  0  0  0
 31 32  1  0  0  0  0
 33 34  1  0  0  0  0
 33 35  1  0  0  0  0
 34 31  2  0  0  0  0
 35 32  2  0  0  0  0
M  END
>  <MODEL>
7

>  <REMARK>
 VINA RESULT:      -6.3      2.948      4.618
  Name = 
  12 active torsions:
  status: ('A' for Active; 'I' for Inactive)
    1  A    between atoms: C_5  and  C_17
    2  A    between atoms: C_9  and  C_23
    3  A    between atoms: C_11  and  N_19
    4  A    between atoms: N_13  and  C_15
    5  A    between atoms: C_14  and  C_29
    6  A    between atoms: C_15  and  C_34
    7  A    between atoms: N_19  and  N_28
    8  A    between atoms: N_19  and  C_33
    9  A    between atoms: N_28  and  C_34
   10  A    between atoms: C_29  and  C_31
   11  A    between atoms: C_32  and  C_33
   12  A    between atoms: C_32  and  C_35
                            x       y       z     vdW  Elec       q    Type
                         _______ _______ _______ _____ _____    ______ ____

>  <TORSDO>
F 12

$$$$
=
 OpenBabel11042418173D

 35 40  0  0  1  0  0  0  0  0999 V2000
  186.8620  177.6140  143.8260 N   0  0  0  0  0  0  0  0  0  0  0  0
  184.5100  177.4160  146.6570 C   0  0  2  0  0  3  0  0  0  0  0  0
  185.0370  178.9360  144.8190 C   0  0  0  0  0  2  0  0  0  0  0  0
  185.5310  177.5490  144.4470 C   0  0  2  0  0  3  0  0  0  0  0  0
  185.0420  178.6840  147.2940 C   0  0  0  0  0  2  0  0  0  0  0  0
  185.5690  176.7950  145.7640 C   0  0  0  0  0  2  0  0  0  0  0  0
  184.1700  178.7720  146.0560 C   0  0  2  0  0  3  0  0  0  0  0  0
  186.8760  178.6670  142.8930 N   0  0  0  0  0  2  0  0  0  0  0  0
  187.5650  178.1740  141.7110 C   0  0  0  0  0  2  0  0  0  0  0  0
  186.7940  177.0090  141.1090 C   0  0  0  0  0  2  0  0  0  0  0  0
  188.1720  174.8800  141.1950 C   0  0  0  0  0  0  0  0  0  0  0  0
  187.7120  176.0480  140.5090 N   0  0  0  0  0  2  0  0  0  0  0  0
  187.8460  174.6820  142.3970 O   0  0  0  0  0  0  0  0  0  0  0  0
  188.8120  173.5850  138.7410 S   0  0  0  0  0  0  0  0  0  0  0  0
  190.7330  171.8920  140.1820 S   0  0  0  0  0  0  0  0  0  0  0  0
  189.3350  171.8610  139.0200 C   0  0  2  0  0  3  0  0  0  0  0  0
  189.8490  173.1040  141.1480 C   0  0  0  0  0  3  0  0  0  0  0  0
  189.0040  173.8910  140.4940 C   0  0  0  0  0  0  0  0  0  0  0  0
  191.2910  169.6650  136.4930 C   0  0  0  0  0  2  0  0  0  0  0  0
  189.6840  171.1250  137.7270 C   0  0  2  0  0  3  0  0  0  0  0  0
  191.0440  170.4200  137.7960 C   0  0  0  0  0  2  0  0  0  0  0  0
  189.7810  171.2900  135.3560 C   0  0  0  0  0  2  0  0  0  0  0  0
  191.1450  170.6070  135.3030 C   0  0  0  0  0  2  0  0  0  0  0  0
  189.6490  172.0530  136.5960 N   0  0  0  0  0  2  0  0  0  0  0  0
  187.9000  177.8850  144.8350 C   0  0  0  0  0  2  0  0  0  0  0  0
  189.0670  176.8940  144.8020 C   0  0  0  0  0  2  0  0  0  0  0  0
  190.4910  176.7960  146.8410 C   0  0  0  0  0  2  0  0  0  0  0  0
  190.5280  175.3800  146.2950 C   0  0  1  0  0  3  0  0  0  0  0  0
  189.2590  176.2320  146.1650 C   0  0  2  0  0  3  0  0  0  0  0  0
  191.4090  175.3460  145.0500 C   0  0  0  0  0  2  0  0  0  0  0  0
  193.7230  174.9030  146.0350 C   0  0  0  0  0  3  0  0  0  0  0  0
  194.8650  175.6100  146.1480 N   0  0  0  0  0  0  0  0  0  0  0  0
  193.3650  176.8650  145.1370 O   0  0  0  0  0  0  0  0  0  0  0  0
  192.8070  175.7130  145.4060 C   0  0  0  0  0  0  0  0  0  0  0  0
  194.5990  176.8080  145.5830 C   0  0  0  0  0  3  0  0  0  0  0  0
  1 25  1  0  0  0  0
  2  6  1  6  0  0  0
  2  5  1  0  0  0  0
  4  1  1  1  0  0  0
  4  3  1  0  0  0  0
  4  6  1  0  0  0  0
  7  3  1  6  0  0  0
  7  2  1  0  0  0  0
  7  5  1  0  0  0  0
  8  1  1  0  0  0  0
  9  8  1  0  0  0  0
 10  9  1  0  0  0  0
 11 13  2  0  0  0  0
 12 10  1  0  0  0  0
 12 11  1  0  0  0  0
 14 18  1  0  0  0  0
 15 17  1  0  0  0  0
 16 14  1  6  0  0  0
 16 15  1  0  0  0  0
 18 17  2  0  0  0  0
 18 11  1  0  0  0  0
 19 21  1  0  0  0  0
 20 21  1  1  0  0  0
 20 16  1  0  0  0  0
 22 24  1  0  0  0  0
 23 22  1  0  0  0  0
 23 19  1  0  0  0  0
 24 20  1  0  0  0  0
 26 25  1  0  0  0  0
 28 30  1  6  0  0  0
 28 27  1  0  0  0  0
 29 26  1  6  0  0  0
 29 28  1  0  0  0  0
 29 27  1  0  0  0  0
 30 34  1  0  0  0  0
 31 32  1  0  0  0  0
 33 34  1  0  0  0  0
 33 35  1  0  0  0  0
 34 31  2  0  0  0  0
 35 32  2  0  0  0  0
M  END
>  <MODEL>
8

>  <REMARK>
 VINA RESULT:      -6.3      3.080      4.981
  Name = 
  12 active torsions:
  status: ('A' for Active; 'I' for Inactive)
    1  A    between atoms: C_5  and  C_17
    2  A    between atoms: C_9  and  C_23
    3  A    between atoms: C_11  and  N_19
    4  A    between atoms: N_13  and  C_15
    5  A    between atoms: C_14  and  C_29
    6  A    between atoms: C_15  and  C_34
    7  A    between atoms: N_19  and  N_28
    8  A    between atoms: N_19  and  C_33
    9  A    between atoms: N_28  and  C_34
   10  A    between atoms: C_29  and  C_31
   11  A    between atoms: C_32  and  C_33
   12  A    between atoms: C_32  and  C_35
                            x       y       z     vdW  Elec       q    Type
                         _______ _______ _______ _____ _____    ______ ____

>  <TORSDO>
F 12

$$$$
=
 OpenBabel11042418173D

 35 40  0  0  1  0  0  0  0  0999 V2000
  188.1770  176.0220  142.6170 N   0  0  0  0  0  0  0  0  0  0  0  0
  185.6020  178.2940  141.2760 C   0  0  2  0  0  3  0  0  0  0  0  0
  186.9070  178.0110  143.3220 C   0  0  0  0  0  2  0  0  0  0  0  0
  187.6460  177.3240  142.1870 C   0  0  2  0  0  3  0  0  0  0  0  0
  184.6110  177.9460  142.3680 C   0  0  0  0  0  2  0  0  0  0  0  0
  186.6010  177.1640  141.0970 C   0  0  0  0  0  2  0  0  0  0  0  0
  185.7990  178.8330  142.6860 C   0  0  2  0  0  3  0  0  0  0  0  0
  188.2780  175.1810  141.4940 N   0  0  0  0  0  2  0  0  0  0  0  0
  188.1550  173.8150  141.9780 C   0  0  0  0  0  2  0  0  0  0  0  0
  189.1290  172.9120  141.2370 C   0  0  0  0  0  2  0  0  0  0  0  0
  191.4830  173.2540  142.1220 C   0  0  0  0  0  0  0  0  0  0  0  0
  190.2410  172.5430  142.1040 N   0  0  0  0  0  2  0  0  0  0  0  0
  191.6820  174.2000  141.3130 O   0  0  0  0  0  0  0  0  0  0  0  0
  193.6410  171.5350  142.8240 S   0  0  0  0  0  0  0  0  0  0  0  0
  193.8560  172.9230  145.4040 S   0  0  0  0  0  0  0  0  0  0  0  0
  193.7280  171.2840  144.6270 C   0  0  2  0  0  3  0  0  0  0  0  0
  192.5990  173.5070  144.2800 C   0  0  0  0  0  3  0  0  0  0  0  0
  192.5220  172.9030  143.1020 C   0  0  0  0  0  0  0  0  0  0  0  0
  195.7300  168.6580  146.6600 C   0  0  0  0  0  2  0  0  0  0  0  0
  194.8720  170.3630  145.0500 C   0  0  2  0  0  3  0  0  0  0  0  0
  194.5670  169.5940  146.3400 C   0  0  0  0  0  2  0  0  0  0  0  0
  197.2200  170.2050  145.3940 C   0  0  0  0  0  2  0  0  0  0  0  0
  197.0380  169.4400  146.7030 C   0  0  0  0  0  2  0  0  0  0  0  0
  196.1080  171.1320  145.1950 N   0  0  0  0  0  2  0  0  0  0  0  0
  189.5230  176.1710  143.1980 C   0  0  0  0  0  2  0  0  0  0  0  0
  189.5900  175.8370  144.6910 C   0  0  0  0  0  2  0  0  0  0  0  0
  190.1960  176.6930  146.9480 C   0  0  0  0  0  2  0  0  0  0  0  0
  188.8940  177.4020  146.6210 C   0  0  1  0  0  3  0  0  0  0  0  0
  189.9070  177.0840  145.5140 C   0  0  2  0  0  3  0  0  0  0  0  0
  187.7400  176.4100  146.7390 C   0  0  0  0  0  2  0  0  0  0  0  0
  186.2210  178.3360  147.4470 C   0  0  0  0  0  3  0  0  0  0  0  0
  184.9270  178.6560  147.2460 N   0  0  0  0  0  0  0  0  0  0  0  0
  185.3390  176.7470  146.2280 O   0  0  0  0  0  0  0  0  0  0  0  0
  186.4460  177.1400  146.8060 C   0  0  0  0  0  0  0  0  0  0  0  0
  184.4250  177.6520  146.4930 C   0  0  0  0  0  3  0  0  0  0  0  0
  1 25  1  0  0  0  0
  2  6  1  1  0  0  0
  2  5  1  0  0  0  0
  2  7  1  0  0  0  0
  4  1  1  1  0  0  0
  4  3  1  0  0  0  0
  6  4  1  0  0  0  0
  7  5  1  1  0  0  0
  7  3  1  0  0  0  0
  8  9  1  0  0  0  0
  8  1  1  0  0  0  0
 10  9  1  0  0  0  0
 10 12  1  0  0  0  0
 11 18  1  0  0  0  0
 12 11  1  0  0  0  0
 13 11  2  0  0  0  0
 14 18  1  0  0  0  0
 16 14  1  6  0  0  0
 16 20  1  0  0  0  0
 16 15  1  0  0  0  0
 17 15  1  0  0  0  0
 18 17  2  0  0  0  0
 19 23  1  0  0  0  0
 20 24  1  0  0  0  0
 20 21  1  1  0  0  0
 21 19  1  0  0  0  0
 22 23  1  0  0  0  0
 24 22  1  0  0  0  0
 25 26  1  0  0  0  0
 28 30  1  6  0  0  0
 28 27  1  0  0  0  0
 29 26  1  6  0  0  0
 29 28  1  0  0  0  0
 29 27  1  0  0  0  0
 30 34  1  0  0  0  0
 32 31  1  0  0  0  0
 33 35  1  0  0  0  0
 33 34  1  0  0  0  0
 34 31  2  0  0  0  0
 35 32  2  0  0  0  0
M  END
>  <MODEL>
9

>  <REMARK>
 VINA RESULT:      -6.2      2.327      4.148
  Name = 
  12 active torsions:
  status: ('A' for Active; 'I' for Inactive)
    1  A    between atoms: C_5  and  C_17
    2  A    between atoms: C_9  and  C_23
    3  A    between atoms: C_11  and  N_19
    4  A    between atoms: N_13  and  C_15
    5  A    between atoms: C_14  and  C_29
    6  A    between atoms: C_15  and  C_34
    7  A    between atoms: N_19  and  N_28
    8  A    between atoms: N_19  and  C_33
    9  A    between atoms: N_28  and  C_34
   10  A    between atoms: C_29  and  C_31
   11  A    between atoms: C_32  and  C_33
   12  A    between atoms: C_32  and  C_35
                            x       y       z     vdW  Elec       q    Type
                         _______ _______ _______ _____ _____    ______ ____

>  <TORSDO>
F 12

$$$$
