=
 OpenBabel11042418523D

 26 28  0  0  1  0  0  0  0  0999 V2000
  186.9420  178.0630  143.6820 C   0  0  2  0  0  3  0  0  0  0  0  0
  185.8830  178.1910  140.0950 C   0  0  0  0  0  2  0  0  0  0  0  0
  186.5510  176.9970  142.6260 C   0  0  2  0  0  0  0  0  0  0  0  0
  186.7580  175.5860  143.1560 C   0  0  0  0  0  1  0  0  0  0  0  0
  187.4300  177.1720  141.3700 C   0  0  0  0  0  2  0  0  0  0  0  0
  184.8400  178.2570  141.2220 C   0  0  2  0  0  3  0  0  0  0  0  0
  185.0660  177.1460  142.2540 C   0  0  0  0  0  2  0  0  0  0  0  0
  186.6790  177.0340  140.1890 O   0  0  0  0  0  0  0  0  0  0  0  0
  183.5030  178.1500  140.6590 N   0  0  0  0  0  2  0  0  0  0  0  0
  182.3220  178.4370  141.4160 C   0  0  0  0  0  0  0  0  0  0  0  0
  182.4110  178.8260  142.6110 O   0  0  0  0  0  0  0  0  0  0  0  0
  180.2510  179.3380  140.4900 C   0  0  0  0  0  2  0  0  0  0  0  0
  180.9940  178.2890  140.8130 C   0  0  0  0  0  3  0  0  0  0  0  0
  188.1130  177.7140  144.5620 C   0  0  0  0  0  0  0  0  0  0  0  0
  189.0420  177.0250  146.6950 C   0  0  0  0  0  3  0  0  0  0  0  0
  190.3290  177.0700  146.1520 C   0  0  0  0  0  3  0  0  0  0  0  0
  187.9370  177.3480  145.9050 C   0  0  0  0  0  3  0  0  0  0  0  0
  189.4030  177.7590  144.0230 C   0  0  0  0  0  3  0  0  0  0  0  0
  190.5160  177.4500  144.8160 C   0  0  0  0  0  0  0  0  0  0  0  0
  191.7940  177.4630  142.8140 O   0  0  0  0  0  0  0  0  0  0  0  0
  192.1270  176.2400  143.4180 C   0  0  0  0  0  2  0  0  0  0  0  0
  191.8870  177.4630  144.2200 C   0  0  2  0  0  3  0  0  0  0  0  0
  185.8030  178.6960  144.4400 C   0  0  0  0  0  0  0  0  0  0  0  0
  185.5570  180.1540  144.2450 C   0  0  0  0  0  1  0  0  0  0  0  0
  185.0520  177.9790  145.2790 C   0  0  0  0  0  3  0  0  0  0  0  0
  183.9790  178.5630  146.0130 N   0  0  0  0  0  1  0  0  0  0  0  0
  1 23  1  1  0  0  0
  1 14  1  0  0  0  0
  2  8  1  0  0  0  0
  2  6  1  0  0  0  0
  3  4  1  1  0  0  0
  3  1  1  0  0  0  0
  5  3  1  0  0  0  0
  6  9  1  6  0  0  0
  6  7  1  0  0  0  0
  7  3  1  0  0  0  0
  8  5  1  0  0  0  0
  9 10  1  0  0  0  0
 10 11  2  0  0  0  0
 12 13  2  0  0  0  0
 13 10  1  0  0  0  0
 14 17  1  0  0  0  0
 16 15  1  0  0  0  0
 17 15  2  0  0  0  0
 18 14  2  0  0  0  0
 18 19  1  0  0  0  0
 19 16  2  0  0  0  0
 20 21  1  0  0  0  0
 20 22  1  0  0  0  0
 21 22  1  0  0  0  0
 22 19  1  1  0  0  0
 23 25  2  0  0  0  0
 24 23  1  0  0  0  0
 25 26  1  0  0  0  0
M  END
>  <MODEL>
1

>  <REMARK>
 VINA RESULT:      -7.0      0.000      0.000
  Name = 
  6 active torsions:
  status: ('A' for Active; 'I' for Inactive)
    1  A    between atoms: C_4  and  C_25
    2  A    between atoms: C_5  and  C_25
    3  A    between atoms: C_6  and  C_25
    4  A    between atoms: N_10  and  C_12
    5  A    between atoms: C_15  and  C_18
    6  A    between atoms: C_22  and  C_24
                            x       y       z     vdW  Elec       q    Type
                         _______ _______ _______ _____ _____    ______ ____

>  <TORSDO>
F 6

$$$$
=
 OpenBabel11042418523D

 26 28  0  0  1  0  0  0  0  0999 V2000
  189.5540  176.3740  145.2870 C   0  0  2  0  0  3  0  0  0  0  0  0
  192.7650  176.6990  147.1810 C   0  0  0  0  0  2  0  0  0  0  0  0
  190.1970  175.6110  146.4750 C   0  0  2  0  0  0  0  0  0  0  0  0
  189.2430  174.5780  147.0540 C   0  0  0  0  0  1  0  0  0  0  0  0
  190.5560  176.6140  147.5930 C   0  0  0  0  0  2  0  0  0  0  0  0
  192.6790  175.8020  145.9360 C   0  0  2  0  0  3  0  0  0  0  0  0
  191.4620  174.8740  146.0030 C   0  0  0  0  0  2  0  0  0  0  0  0
  191.8150  176.3330  148.1530 O   0  0  0  0  0  0  0  0  0  0  0  0
  193.8980  175.0190  145.8110 N   0  0  0  0  0  2  0  0  0  0  0  0
  195.0650  175.5090  145.1420 C   0  0  0  0  0  0  0  0  0  0  0  0
  195.0780  176.6710  144.6550 O   0  0  0  0  0  0  0  0  0  0  0  0
  196.6410  173.8460  145.9830 C   0  0  0  0  0  2  0  0  0  0  0  0
  196.2610  174.6710  145.0170 C   0  0  0  0  0  3  0  0  0  0  0  0
  188.1590  176.8910  145.5180 C   0  0  0  0  0  0  0  0  0  0  0  0
  186.1030  176.9700  146.8040 C   0  0  0  0  0  3  0  0  0  0  0  0
  185.5710  177.8950  145.9010 C   0  0  0  0  0  3  0  0  0  0  0  0
  187.3920  176.4670  146.6130 C   0  0  0  0  0  3  0  0  0  0  0  0
  187.6230  177.8170  144.6160 C   0  0  0  0  0  3  0  0  0  0  0  0
  186.3250  178.3130  144.7960 C   0  0  0  0  0  0  0  0  0  0  0  0
  184.3670  179.2600  143.8410 O   0  0  0  0  0  0  0  0  0  0  0  0
  185.0270  178.6770  142.7470 C   0  0  0  0  0  2  0  0  0  0  0  0
  185.7740  179.3300  143.8480 C   0  0  2  0  0  3  0  0  0  0  0  0
  189.7350  175.7530  143.9240 C   0  0  0  0  0  0  0  0  0  0  0  0
  190.6130  176.4560  142.9450 C   0  0  0  0  0  1  0  0  0  0  0  0
  189.1070  174.6220  143.5960 C   0  0  0  0  0  3  0  0  0  0  0  0
  189.2550  174.0270  142.3090 N   0  0  0  0  0  1  0  0  0  0  0  0
  1 23  1  6  0  0  0
  1 14  1  0  0  0  0
  1  3  1  0  0  0  0
  2  8  1  0  0  0  0
  3  4  1  1  0  0  0
  3  5  1  0  0  0  0
  5  8  1  0  0  0  0
  6  9  1  1  0  0  0
  6  7  1  0  0  0  0
  6  2  1  0  0  0  0
  7  3  1  0  0  0  0
 10  9  1  0  0  0  0
 11 10  2  0  0  0  0
 13 10  1  0  0  0  0
 13 12  2  0  0  0  0
 14 17  1  0  0  0  0
 16 15  1  0  0  0  0
 17 15  2  0  0  0  0
 18 19  1  0  0  0  0
 18 14  2  0  0  0  0
 19 16  2  0  0  0  0
 20 22  1  0  0  0  0
 21 20  1  0  0  0  0
 21 22  1  0  0  0  0
 22 19  1  1  0  0  0
 24 23  1  0  0  0  0
 25 23  2  0  0  0  0
 26 25  1  0  0  0  0
M  END
>  <MODEL>
2

>  <REMARK>
 VINA RESULT:      -6.9      3.602      8.587
  Name = 
  6 active torsions:
  status: ('A' for Active; 'I' for Inactive)
    1  A    between atoms: C_4  and  C_25
    2  A    between atoms: C_5  and  C_25
    3  A    between atoms: C_6  and  C_25
    4  A    between atoms: N_10  and  C_12
    5  A    between atoms: C_15  and  C_18
    6  A    between atoms: C_22  and  C_24
                            x       y       z     vdW  Elec       q    Type
                         _______ _______ _______ _____ _____    ______ ____

>  <TORSDO>
F 6

$$$$
=
 OpenBabel11042418523D

 26 28  0  0  1  0  0  0  0  0999 V2000
  189.0910  176.1060  145.0650 C   0  0  2  0  0  3  0  0  0  0  0  0
  192.0970  177.2480  143.1520 C   0  0  0  0  0  2  0  0  0  0  0  0
  190.2560  177.0870  145.3570 C   0  0  2  0  0  0  0  0  0  0  0  0
  190.0500  177.8200  146.6730 C   0  0  0  0  0  1  0  0  0  0  0  0
  190.3350  178.1380  144.2290 C   0  0  0  0  0  2  0  0  0  0  0  0
  192.1740  176.0170  144.0680 C   0  0  2  0  0  3  0  0  0  0  0  0
  191.5830  176.3150  145.4500 C   0  0  0  0  0  2  0  0  0  0  0  0
  191.6660  178.3910  143.8510 O   0  0  0  0  0  0  0  0  0  0  0  0
  193.5580  175.5900  144.1990 N   0  0  0  0  0  2  0  0  0  0  0  0
  193.9240  174.2360  144.4890 C   0  0  0  0  0  0  0  0  0  0  0  0
  193.0360  173.3510  144.6160 O   0  0  0  0  0  0  0  0  0  0  0  0
  196.0060  174.0990  145.7560 C   0  0  0  0  0  2  0  0  0  0  0  0
  195.3320  173.8590  144.6390 C   0  0  0  0  0  3  0  0  0  0  0  0
  187.7050  176.6490  145.2900 C   0  0  0  0  0  0  0  0  0  0  0  0
  185.7230  176.9250  146.6620 C   0  0  0  0  0  3  0  0  0  0  0  0
  185.1290  177.6910  145.6550 C   0  0  0  0  0  3  0  0  0  0  0  0
  187.0050  176.4030  146.4810 C   0  0  0  0  0  3  0  0  0  0  0  0
  187.1070  177.4160  144.2840 C   0  0  0  0  0  3  0  0  0  0  0  0
  185.8150  177.9290  144.4560 C   0  0  0  0  0  0  0  0  0  0  0  0
  183.7960  178.6600  143.4400 O   0  0  0  0  0  0  0  0  0  0  0  0
  184.4500  177.9500  142.4190 C   0  0  0  0  0  2  0  0  0  0  0  0
  185.1990  178.7800  143.3910 C   0  0  2  0  0  3  0  0  0  0  0  0
  189.2640  174.6990  145.5800 C   0  0  0  0  0  0  0  0  0  0  0  0
  189.2270  174.4840  147.0560 C   0  0  0  0  0  1  0  0  0  0  0  0
  189.4680  173.6800  144.7420 C   0  0  0  0  0  3  0  0  0  0  0  0
  189.6450  172.3460  145.2110 N   0  0  0  0  0  1  0  0  0  0  0  0
  1 14  1  0  0  0  0
  1  3  1  0  0  0  0
  1 23  1  1  0  0  0
  2  8  1  0  0  0  0
  2  6  1  0  0  0  0
  3  7  1  0  0  0  0
  3  4  1  1  0  0  0
  5  3  1  0  0  0  0
  6  9  1  1  0  0  0
  6  7  1  0  0  0  0
  8  5  1  0  0  0  0
  9 10  1  0  0  0  0
 10 11  2  0  0  0  0
 10 13  1  0  0  0  0
 13 12  2  0  0  0  0
 14 17  1  0  0  0  0
 16 15  1  0  0  0  0
 17 15  2  0  0  0  0
 18 19  1  0  0  0  0
 18 14  2  0  0  0  0
 19 16  2  0  0  0  0
 21 22  1  0  0  0  0
 21 20  1  0  0  0  0
 22 20  1  0  0  0  0
 22 19  1  1  0  0  0
 23 24  1  0  0  0  0
 25 26  1  0  0  0  0
 25 23  2  0  0  0  0
M  END
>  <MODEL>
3

>  <REMARK>
 VINA RESULT:      -6.8      3.396      8.080
  Name = 
  6 active torsions:
  status: ('A' for Active; 'I' for Inactive)
    1  A    between atoms: C_4  and  C_25
    2  A    between atoms: C_5  and  C_25
    3  A    between atoms: C_6  and  C_25
    4  A    between atoms: N_10  and  C_12
    5  A    between atoms: C_15  and  C_18
    6  A    between atoms: C_22  and  C_24
                            x       y       z     vdW  Elec       q    Type
                         _______ _______ _______ _____ _____    ______ ____

>  <TORSDO>
F 6

$$$$
=
 OpenBabel11042418523D

 26 28  0  0  1  0  0  0  0  0999 V2000
  188.9970  175.9760  144.4890 C   0  0  2  0  0  3  0  0  0  0  0  0
  191.7250  173.9890  142.8720 C   0  0  0  0  0  2  0  0  0  0  0  0
  190.0770  176.2830  143.4200 C   0  0  2  0  0  0  0  0  0  0  0  0
  189.8980  177.6740  142.8320 C   0  0  0  0  0  1  0  0  0  0  0  0
  189.9680  175.2580  142.2710 C   0  0  0  0  0  2  0  0  0  0  0  0
  191.9910  174.7770  144.1650 C   0  0  2  0  0  3  0  0  0  0  0  0
  191.4770  176.2160  144.0540 C   0  0  0  0  0  2  0  0  0  0  0  0
  191.2360  174.8200  141.8470 O   0  0  0  0  0  0  0  0  0  0  0  0
  193.4170  174.7770  144.4530 N   0  0  0  0  0  2  0  0  0  0  0  0
  193.9370  175.0000  145.7680 C   0  0  0  0  0  0  0  0  0  0  0  0
  193.1560  175.1810  146.7400 O   0  0  0  0  0  0  0  0  0  0  0  0
  196.1580  173.9890  145.6890 C   0  0  0  0  0  2  0  0  0  0  0  0
  195.3840  175.0180  146.0050 C   0  0  0  0  0  3  0  0  0  0  0  0
  187.6530  176.6180  144.2670 C   0  0  0  0  0  0  0  0  0  0  0  0
  185.6080  176.8900  142.9890 C   0  0  0  0  0  3  0  0  0  0  0  0
  185.1580  177.8420  143.9080 C   0  0  0  0  0  3  0  0  0  0  0  0
  186.8520  176.2810  143.1650 C   0  0  0  0  0  3  0  0  0  0  0  0
  187.1990  177.5720  145.1840 C   0  0  0  0  0  3  0  0  0  0  0  0
  185.9580  178.1960  145.0030 C   0  0  0  0  0  0  0  0  0  0  0  0
  186.0300  178.9070  147.2690 O   0  0  0  0  0  0  0  0  0  0  0  0
  184.6950  178.5120  147.0820 C   0  0  0  0  0  2  0  0  0  0  0  0
  185.4640  179.1870  146.0090 C   0  0  2  0  0  3  0  0  0  0  0  0
  189.4490  176.0370  145.9270 C   0  0  0  0  0  0  0  0  0  0  0  0
  189.2120  174.8410  146.7870 C   0  0  0  0  0  1  0  0  0  0  0  0
  190.0210  177.1370  146.4210 C   0  0  0  0  0  3  0  0  0  0  0  0
  190.4430  177.2170  147.7800 N   0  0  0  0  0  1  0  0  0  0  0  0
  1 23  1  1  0  0  0
  2  6  1  0  0  0  0
  3  4  1  6  0  0  0
  3  7  1  0  0  0  0
  3  1  1  0  0  0  0
  5  3  1  0  0  0  0
  6  9  1  6  0  0  0
  7  6  1  0  0  0  0
  8  5  1  0  0  0  0
  8  2  1  0  0  0  0
  9 10  1  0  0  0  0
 10 13  1  0  0  0  0
 10 11  2  0  0  0  0
 12 13  2  0  0  0  0
 14  1  1  0  0  0  0
 14 18  1  0  0  0  0
 15 17  1  0  0  0  0
 15 16  2  0  0  0  0
 16 19  1  0  0  0  0
 17 14  2  0  0  0  0
 19 18  2  0  0  0  0
 21 20  1  0  0  0  0
 22 19  1  6  0  0  0
 22 21  1  0  0  0  0
 22 20  1  0  0  0  0
 23 25  2  0  0  0  0
 23 24  1  0  0  0  0
 25 26  1  0  0  0  0
M  END
>  <MODEL>
4

>  <REMARK>
 VINA RESULT:      -6.7      3.610      7.989
  Name = 
  6 active torsions:
  status: ('A' for Active; 'I' for Inactive)
    1  A    between atoms: C_4  and  C_25
    2  A    between atoms: C_5  and  C_25
    3  A    between atoms: C_6  and  C_25
    4  A    between atoms: N_10  and  C_12
    5  A    between atoms: C_15  and  C_18
    6  A    between atoms: C_22  and  C_24
                            x       y       z     vdW  Elec       q    Type
                         _______ _______ _______ _____ _____    ______ ____

>  <TORSDO>
F 6

$$$$
=
 OpenBabel11042418523D

 26 28  0  0  1  0  0  0  0  0999 V2000
  188.5000  176.3370  145.6680 C   0  0  2  0  0  3  0  0  0  0  0  0
  188.0310  175.4030  142.0750 C   0  0  0  0  0  2  0  0  0  0  0  0
  189.1640  176.7740  144.3360 C   0  0  2  0  0  0  0  0  0  0  0  0
  190.1440  177.9170  144.5510 C   0  0  0  0  0  1  0  0  0  0  0  0
  188.0750  177.2530  143.3530 C   0  0  0  0  0  2  0  0  0  0  0  0
  189.0260  174.6350  142.9590 C   0  0  2  0  0  3  0  0  0  0  0  0
  189.9420  175.5950  143.7260 C   0  0  0  0  0  2  0  0  0  0  0  0
  188.3130  176.7820  142.0490 O   0  0  0  0  0  0  0  0  0  0  0  0
  189.8220  173.7380  142.1370 N   0  0  0  0  0  2  0  0  0  0  0  0
  189.8570  172.3220  142.3520 C   0  0  0  0  0  0  0  0  0  0  0  0
  189.1640  171.8000  143.2650 O   0  0  0  0  0  0  0  0  0  0  0  0
  191.1650  171.8670  140.3420 C   0  0  0  0  0  2  0  0  0  0  0  0
  190.6960  171.4610  141.5140 C   0  0  0  0  0  3  0  0  0  0  0  0
  187.5080  177.3070  146.2540 C   0  0  0  0  0  0  0  0  0  0  0  0
  186.8150  178.8550  147.9890 C   0  0  0  0  0  3  0  0  0  0  0  0
  185.6280  179.1060  147.2940 C   0  0  0  0  0  3  0  0  0  0  0  0
  187.7510  177.9570  147.4730 C   0  0  0  0  0  3  0  0  0  0  0  0
  186.3190  177.5600  145.5620 C   0  0  0  0  0  3  0  0  0  0  0  0
  185.3700  178.4500  146.0820 C   0  0  0  0  0  0  0  0  0  0  0  0
  184.2240  178.2140  144.0150 O   0  0  0  0  0  0  0  0  0  0  0  0
  184.4090  179.6010  144.1420 C   0  0  0  0  0  2  0  0  0  0  0  0
  184.1200  178.7440  145.3160 C   0  0  2  0  0  3  0  0  0  0  0  0
  189.4180  175.7360  146.7020 C   0  0  0  0  0  0  0  0  0  0  0  0
  189.0020  174.4580  147.3490 C   0  0  0  0  0  1  0  0  0  0  0  0
  190.5570  176.3410  147.0460 C   0  0  0  0  0  3  0  0  0  0  0  0
  191.4310  175.7940  148.0300 N   0  0  0  0  0  1  0  0  0  0  0  0
  1 14  1  0  0  0  0
  1 23  1  1  0  0  0
  2  6  1  0  0  0  0
  3  4  1  1  0  0  0
  3  1  1  0  0  0  0
  5  3  1  0  0  0  0
  6  9  1  6  0  0  0
  6  7  1  0  0  0  0
  7  3  1  0  0  0  0
  8  2  1  0  0  0  0
  8  5  1  0  0  0  0
  9 10  1  0  0  0  0
 10 11  2  0  0  0  0
 12 13  2  0  0  0  0
 13 10  1  0  0  0  0
 14 17  1  0  0  0  0
 16 15  1  0  0  0  0
 17 15  2  0  0  0  0
 18 19  1  0  0  0  0
 18 14  2  0  0  0  0
 19 16  2  0  0  0  0
 20 21  1  0  0  0  0
 20 22  1  0  0  0  0
 21 22  1  0  0  0  0
 22 19  1  1  0  0  0
 23 25  2  0  0  0  0
 23 24  1  0  0  0  0
 25 26  1  0  0  0  0
M  END
>  <MODEL>
5

>  <REMARK>
 VINA RESULT:      -6.7      3.453      6.674
  Name = 
  6 active torsions:
  status: ('A' for Active; 'I' for Inactive)
    1  A    between atoms: C_4  and  C_25
    2  A    between atoms: C_5  and  C_25
    3  A    between atoms: C_6  and  C_25
    4  A    between atoms: N_10  and  C_12
    5  A    between atoms: C_15  and  C_18
    6  A    between atoms: C_22  and  C_24
                            x       y       z     vdW  Elec       q    Type
                         _______ _______ _______ _____ _____    ______ ____

>  <TORSDO>
F 6

$$$$
=
 OpenBabel11042418523D

 26 28  0  0  1  0  0  0  0  0999 V2000
  188.7960  176.2960  145.4240 C   0  0  2  0  0  3  0  0  0  0  0  0
  190.4130  174.1570  142.8150 C   0  0  0  0  0  2  0  0  0  0  0  0
  189.6300  176.5820  144.1490 C   0  0  2  0  0  0  0  0  0  0  0  0
  189.7000  178.0720  143.8530 C   0  0  0  0  0  1  0  0  0  0  0  0
  188.9750  175.8810  142.9400 C   0  0  0  0  0  2  0  0  0  0  0  0
  191.1850  174.5660  144.0790 C   0  0  2  0  0  3  0  0  0  0  0  0
  191.0690  176.0720  144.3370 C   0  0  0  0  0  2  0  0  0  0  0  0
  189.9370  175.2780  142.1090 O   0  0  0  0  0  0  0  0  0  0  0  0
  192.5830  174.1880  143.9440 N   0  0  0  0  0  2  0  0  0  0  0  0
  193.4640  174.0760  145.0670 C   0  0  0  0  0  0  0  0  0  0  0  0
  193.0360  174.2800  146.2350 O   0  0  0  0  0  0  0  0  0  0  0  0
  195.8150  174.1160  145.7230 C   0  0  0  0  0  2  0  0  0  0  0  0
  194.8730  173.7200  144.8780 C   0  0  0  0  0  3  0  0  0  0  0  0
  187.6420  177.2300  145.6760 C   0  0  0  0  0  0  0  0  0  0  0  0
  186.2070  178.4850  147.1780 C   0  0  0  0  0  3  0  0  0  0  0  0
  185.4900  178.9770  146.0840 C   0  0  0  0  0  3  0  0  0  0  0  0
  187.2780  177.6120  146.9760 C   0  0  0  0  0  3  0  0  0  0  0  0
  186.9210  177.7250  144.5840 C   0  0  0  0  0  3  0  0  0  0  0  0
  185.8360  178.5890  144.7830 C   0  0  0  0  0  0  0  0  0  0  0  0
  183.7080  179.0440  143.8310 O   0  0  0  0  0  0  0  0  0  0  0  0
  184.2710  178.0960  142.9610 C   0  0  0  0  0  2  0  0  0  0  0  0
  185.0950  179.1440  143.6080 C   0  0  2  0  0  3  0  0  0  0  0  0
  189.5790  175.9760  146.6730 C   0  0  0  0  0  0  0  0  0  0  0  0
  189.3110  174.6770  147.3540 C   0  0  0  0  0  1  0  0  0  0  0  0
  190.4680  176.8420  147.1670 C   0  0  0  0  0  3  0  0  0  0  0  0
  191.2080  176.5620  148.3530 N   0  0  0  0  0  1  0  0  0  0  0  0
  1 14  1  0  0  0  0
  1 23  1  1  0  0  0
  2  6  1  0  0  0  0
  3  4  1  6  0  0  0
  3  7  1  0  0  0  0
  3  1  1  0  0  0  0
  5  3  1  0  0  0  0
  6  9  1  6  0  0  0
  6  7  1  0  0  0  0
  8  2  1  0  0  0  0
  8  5  1  0  0  0  0
  9 10  1  0  0  0  0
 10 11  2  0  0  0  0
 13 10  1  0  0  0  0
 13 12  2  0  0  0  0
 14 17  1  0  0  0  0
 16 15  1  0  0  0  0
 17 15  2  0  0  0  0
 18 19  1  0  0  0  0
 18 14  2  0  0  0  0
 19 16  2  0  0  0  0
 21 22  1  0  0  0  0
 21 20  1  0  0  0  0
 22 20  1  0  0  0  0
 22 19  1  1  0  0  0
 23 25  2  0  0  0  0
 23 24  1  0  0  0  0
 25 26  1  0  0  0  0
M  END
>  <MODEL>
6

>  <REMARK>
 VINA RESULT:      -6.7      3.355      7.791
  Name = 
  6 active torsions:
  status: ('A' for Active; 'I' for Inactive)
    1  A    between atoms: C_4  and  C_25
    2  A    between atoms: C_5  and  C_25
    3  A    between atoms: C_6  and  C_25
    4  A    between atoms: N_10  and  C_12
    5  A    between atoms: C_15  and  C_18
    6  A    between atoms: C_22  and  C_24
                            x       y       z     vdW  Elec       q    Type
                         _______ _______ _______ _____ _____    ______ ____

>  <TORSDO>
F 6

$$$$
=
 OpenBabel11042418523D

 26 28  0  0  1  0  0  0  0  0999 V2000
  188.0140  177.1580  144.8790 C   0  0  2  0  0  3  0  0  0  0  0  0
  187.5120  178.5900  141.4590 C   0  0  0  0  0  2  0  0  0  0  0  0
  187.9900  176.5660  143.4470 C   0  0  2  0  0  0  0  0  0  0  0  0
  188.3670  175.0930  143.4470 C   0  0  0  0  0  1  0  0  0  0  0  0
  189.0050  177.3210  142.5620 C   0  0  0  0  0  2  0  0  0  0  0  0
  186.3140  178.0880  142.2800 C   0  0  2  0  0  3  0  0  0  0  0  0
  186.5770  176.6900  142.8500 C   0  0  0  0  0  2  0  0  0  0  0  0
  188.4810  177.5840  141.2840 O   0  0  0  0  0  0  0  0  0  0  0  0
  185.1210  178.0710  141.4480 N   0  0  0  0  0  2  0  0  0  0  0  0
  183.8100  178.3050  141.9740 C   0  0  0  0  0  0  0  0  0  0  0  0
  183.6520  178.5650  143.1970 O   0  0  0  0  0  0  0  0  0  0  0  0
  181.4010  178.3060  141.5820 C   0  0  0  0  0  2  0  0  0  0  0  0
  182.6350  178.2510  141.1000 C   0  0  0  0  0  3  0  0  0  0  0  0
  188.9570  176.4950  145.8470 C   0  0  0  0  0  0  0  0  0  0  0  0
  189.4120  174.9220  147.6380 C   0  0  0  0  0  3  0  0  0  0  0  0
  190.7600  175.2890  147.6210 C   0  0  0  0  0  3  0  0  0  0  0  0
  188.5120  175.5240  146.7570 C   0  0  0  0  0  3  0  0  0  0  0  0
  190.3080  176.8600  145.8340 C   0  0  0  0  0  3  0  0  0  0  0  0
  191.2120  176.2690  146.7270 C   0  0  0  0  0  0  0  0  0  0  0  0
  193.0700  176.7810  145.3390 O   0  0  0  0  0  0  0  0  0  0  0  0
  193.4490  175.5930  145.9840 C   0  0  0  0  0  2  0  0  0  0  0  0
  192.6610  176.6370  146.6790 C   0  0  2  0  0  3  0  0  0  0  0  0
  186.6720  177.4770  145.4890 C   0  0  0  0  0  0  0  0  0  0  0  0
  185.6880  176.3650  145.6370 C   0  0  0  0  0  1  0  0  0  0  0  0
  186.3640  178.7210  145.8620 C   0  0  0  0  0  3  0  0  0  0  0  0
  185.0960  179.0420  146.4290 N   0  0  0  0  0  1  0  0  0  0  0  0
  1 23  1  1  0  0  0
  1 14  1  0  0  0  0
  2  6  1  0  0  0  0
  3  4  1  1  0  0  0
  3  1  1  0  0  0  0
  5  3  1  0  0  0  0
  6  9  1  6  0  0  0
  6  7  1  0  0  0  0
  7  3  1  0  0  0  0
  8  2  1  0  0  0  0
  8  5  1  0  0  0  0
  9 10  1  0  0  0  0
 10 11  2  0  0  0  0
 13 12  2  0  0  0  0
 13 10  1  0  0  0  0
 14 17  1  0  0  0  0
 16 15  1  0  0  0  0
 17 15  2  0  0  0  0
 18 14  2  0  0  0  0
 18 19  1  0  0  0  0
 19 16  2  0  0  0  0
 20 21  1  0  0  0  0
 20 22  1  0  0  0  0
 21 22  1  0  0  0  0
 22 19  1  6  0  0  0
 23 24  1  0  0  0  0
 23 25  2  0  0  0  0
 25 26  1  0  0  0  0
M  END
>  <MODEL>
7

>  <REMARK>
 VINA RESULT:      -6.7      1.675      2.157
  Name = 
  6 active torsions:
  status: ('A' for Active; 'I' for Inactive)
    1  A    between atoms: C_4  and  C_25
    2  A    between atoms: C_5  and  C_25
    3  A    between atoms: C_6  and  C_25
    4  A    between atoms: N_10  and  C_12
    5  A    between atoms: C_15  and  C_18
    6  A    between atoms: C_22  and  C_24
                            x       y       z     vdW  Elec       q    Type
                         _______ _______ _______ _____ _____    ______ ____

>  <TORSDO>
F 6

$$$$
=
 OpenBabel11042418523D

 26 28  0  0  1  0  0  0  0  0999 V2000
  187.6090  177.5420  143.7070 C   0  0  2  0  0  3  0  0  0  0  0  0
  186.3180  177.9350  140.2170 C   0  0  0  0  0  2  0  0  0  0  0  0
  187.1010  176.5600  142.6200 C   0  0  2  0  0  0  0  0  0  0  0  0
  187.2830  175.1130  143.0500 C   0  0  0  0  0  1  0  0  0  0  0  0
  187.9020  176.7790  141.3180 C   0  0  0  0  0  2  0  0  0  0  0  0
  185.3560  177.9710  141.4160 C   0  0  2  0  0  3  0  0  0  0  0  0
  185.6030  176.7910  142.3620 C   0  0  0  0  0  2  0  0  0  0  0  0
  187.0670  176.7440  140.1860 O   0  0  0  0  0  0  0  0  0  0  0  0
  183.9810  177.9520  140.9420 N   0  0  0  0  0  2  0  0  0  0  0  0
  182.8720  178.2990  141.7790 C   0  0  0  0  0  0  0  0  0  0  0  0
  183.0630  178.6650  142.9690 O   0  0  0  0  0  0  0  0  0  0  0  0
  180.5970  179.1580  141.5710 C   0  0  0  0  0  2  0  0  0  0  0  0
  181.5010  178.2390  141.2640 C   0  0  0  0  0  3  0  0  0  0  0  0
  189.0490  177.3810  144.1160 C   0  0  0  0  0  0  0  0  0  0  0  0
  191.3940  177.9760  143.9310 C   0  0  0  0  0  3  0  0  0  0  0  0
  191.7110  177.0420  144.9220 C   0  0  0  0  0  3  0  0  0  0  0  0
  190.0680  178.1440  143.5270 C   0  0  0  0  0  3  0  0  0  0  0  0
  189.3710  176.4470  145.1070 C   0  0  0  0  0  3  0  0  0  0  0  0
  190.7020  176.2640  145.5050 C   0  0  0  0  0  0  0  0  0  0  0  0
  190.0100  175.2980  147.5620 O   0  0  0  0  0  0  0  0  0  0  0  0
  191.1910  175.9850  147.8920 C   0  0  0  0  0  2  0  0  0  0  0  0
  191.0320  175.2910  146.5920 C   0  0  2  0  0  3  0  0  0  0  0  0
  186.6860  177.7720  144.8780 C   0  0  0  0  0  0  0  0  0  0  0  0
  185.9980  179.0910  144.9800 C   0  0  0  0  0  1  0  0  0  0  0  0
  186.5100  176.8310  145.8090 C   0  0  0  0  0  3  0  0  0  0  0  0
  185.6510  177.0340  146.9280 N   0  0  0  0  0  1  0  0  0  0  0  0
  1 14  1  0  0  0  0
  1 23  1  1  0  0  0
  2  6  1  0  0  0  0
  3  4  1  1  0  0  0
  3  1  1  0  0  0  0
  5  3  1  0  0  0  0
  6  9  1  6  0  0  0
  6  7  1  0  0  0  0
  7  3  1  0  0  0  0
  8  2  1  0  0  0  0
  8  5  1  0  0  0  0
  9 10  1  0  0  0  0
 10 11  2  0  0  0  0
 13 12  2  0  0  0  0
 13 10  1  0  0  0  0
 14 18  1  0  0  0  0
 15 16  2  0  0  0  0
 16 19  1  0  0  0  0
 17 15  1  0  0  0  0
 17 14  2  0  0  0  0
 18 19  2  0  0  0  0
 20 21  1  0  0  0  0
 22 19  1  6  0  0  0
 22 20  1  0  0  0  0
 22 21  1  0  0  0  0
 23 24  1  0  0  0  0
 23 25  2  0  0  0  0
 25 26  1  0  0  0  0
M  END
>  <MODEL>
8

>  <REMARK>
 VINA RESULT:      -6.7      1.546      2.119
  Name = 
  6 active torsions:
  status: ('A' for Active; 'I' for Inactive)
    1  A    between atoms: C_4  and  C_25
    2  A    between atoms: C_5  and  C_25
    3  A    between atoms: C_6  and  C_25
    4  A    between atoms: N_10  and  C_12
    5  A    between atoms: C_15  and  C_18
    6  A    between atoms: C_22  and  C_24
                            x       y       z     vdW  Elec       q    Type
                         _______ _______ _______ _____ _____    ______ ____

>  <TORSDO>
F 6

$$$$
=
 OpenBabel11042418523D

 26 28  0  0  1  0  0  0  0  0999 V2000
  189.5180  174.2030  143.8690 C   0  0  2  0  0  3  0  0  0  0  0  0
  189.4110  177.9180  144.3040 C   0  0  0  0  0  2  0  0  0  0  0  0
  189.0030  175.3840  143.0050 C   0  0  2  0  0  0  0  0  0  0  0  0
  188.5460  174.9120  141.6340 C   0  0  0  0  0  1  0  0  0  0  0  0
  190.1410  176.4080  142.8070 C   0  0  0  0  0  2  0  0  0  0  0  0
  188.2450  177.0400  144.7850 C   0  0  2  0  0  3  0  0  0  0  0  0
  187.8050  176.0560  143.6960 C   0  0  0  0  0  2  0  0  0  0  0  0
  189.6750  177.7290  142.9350 O   0  0  0  0  0  0  0  0  0  0  0  0
  187.1260  177.8830  145.1780 N   0  0  0  0  0  2  0  0  0  0  0  0
  186.3860  177.6700  146.3850 C   0  0  0  0  0  0  0  0  0  0  0  0
  186.7080  176.7400  147.1730 O   0  0  0  0  0  0  0  0  0  0  0  0
  184.2080  178.6640  145.9150 C   0  0  0  0  0  2  0  0  0  0  0  0
  185.2490  178.5290  146.7250 C   0  0  0  0  0  3  0  0  0  0  0  0
  190.2330  174.5830  145.1390 C   0  0  0  0  0  0  0  0  0  0  0  0
  190.2620  174.9510  147.5370 C   0  0  0  0  0  3  0  0  0  0  0  0
  191.6160  175.2910  147.4700 C   0  0  0  0  0  3  0  0  0  0  0  0
  189.5710  174.6010  146.3750 C   0  0  0  0  0  3  0  0  0  0  0  0
  191.5880  174.9240  145.0760 C   0  0  0  0  0  3  0  0  0  0  0  0
  192.2820  175.2900  146.2370 C   0  0  0  0  0  0  0  0  0  0  0  0
  193.9980  176.7990  146.8880 O   0  0  0  0  0  0  0  0  0  0  0  0
  193.9590  176.9150  145.4880 C   0  0  0  0  0  2  0  0  0  0  0  0
  193.7400  175.6160  146.1670 C   0  0  2  0  0  3  0  0  0  0  0  0
  190.1960  173.0810  143.1230 C   0  0  0  0  0  0  0  0  0  0  0  0
  191.4640  173.3880  142.3990 C   0  0  0  0  0  1  0  0  0  0  0  0
  189.6660  171.8570  143.0920 C   0  0  0  0  0  3  0  0  0  0  0  0
  190.2860  170.7880  142.3830 N   0  0  0  0  0  1  0  0  0  0  0  0
  1 23  1  6  0  0  0
  1 14  1  0  0  0  0
  2  6  1  0  0  0  0
  3  4  1  6  0  0  0
  3  7  1  0  0  0  0
  3  1  1  0  0  0  0
  5  8  1  0  0  0  0
  5  3  1  0  0  0  0
  6  9  1  6  0  0  0
  7  6  1  0  0  0  0
  8  2  1  0  0  0  0
  9 10  1  0  0  0  0
 10 13  1  0  0  0  0
 10 11  2  0  0  0  0
 12 13  2  0  0  0  0
 14 17  1  0  0  0  0
 16 15  1  0  0  0  0
 17 15  2  0  0  0  0
 18 14  2  0  0  0  0
 18 19  1  0  0  0  0
 19 16  2  0  0  0  0
 21 22  1  0  0  0  0
 21 20  1  0  0  0  0
 22 19  1  1  0  0  0
 22 20  1  0  0  0  0
 24 23  1  0  0  0  0
 25 23  2  0  0  0  0
 26 25  1  0  0  0  0
M  END
>  <MODEL>
9

>  <REMARK>
 VINA RESULT:      -6.5      3.503      5.420
  Name = 
  6 active torsions:
  status: ('A' for Active; 'I' for Inactive)
    1  A    between atoms: C_4  and  C_25
    2  A    between atoms: C_5  and  C_25
    3  A    between atoms: C_6  and  C_25
    4  A    between atoms: N_10  and  C_12
    5  A    between atoms: C_15  and  C_18
    6  A    between atoms: C_22  and  C_24
                            x       y       z     vdW  Elec       q    Type
                         _______ _______ _______ _____ _____    ______ ____

>  <TORSDO>
F 6

$$$$
