=
 OpenBabel11042416173D

 33 35  0  0  1  0  0  0  0  0999 V2000
  189.3690  175.6410  144.3100 C   0  0  0  0  0  0  0  0  0  0  0  0
  185.6580  178.2550  147.9430 C   0  0  0  0  0  1  0  0  0  0  0  0
  186.5370  177.7530  146.8560 C   0  0  0  0  0  0  0  0  0  0  0  0
  189.7340  174.6440  145.0980 C   0  0  0  0  0  0  0  0  0  0  0  0
  187.3510  176.5980  147.0880 N   0  0  0  0  0  2  0  0  0  0  0  0
  189.0620  174.7900  146.4280 C   0  0  2  0  0  3  0  0  0  0  0  0
  188.2500  176.0150  146.1380 C   0  0  0  0  0  0  0  0  0  0  0  0
  188.4310  176.4920  144.9490 N   0  0  0  0  0  0  0  0  0  0  0  0
  186.5530  178.3490  145.7470 O   0  0  0  0  0  0  0  0  0  0  0  0
  190.5900  173.6150  144.7010 O   0  0  0  0  0  0  0  0  0  0  0  0
  190.1230  172.3010  144.4440 C   0  0  0  0  0  1  0  0  0  0  0  0
  190.0860  175.1150  147.5050 C   0  0  0  0  0  2  0  0  0  0  0  0
  191.1620  175.9750  146.9390 C   0  0  0  0  0  3  0  0  0  0  0  0
  192.4330  175.7530  147.2650 C   0  0  0  0  0  3  0  0  0  0  0  0
  195.3520  175.0180  144.1170 C   0  0  0  0  0  0  0  0  0  0  0  0
  194.4910  175.8160  146.0890 C   0  0  0  0  0  0  0  0  0  0  0  0
  193.5030  176.5270  145.3060 C   0  0  0  0  0  0  0  0  0  0  0  0
  193.5120  176.6150  146.7030 C   0  0  1  0  0  3  0  0  0  0  0  0
  194.2700  175.7410  141.8800 C   0  0  0  0  0  1  0  0  0  0  0  0
  195.4600  175.0290  145.5650 C   0  0  0  0  0  3  0  0  0  0  0  0
  193.3320  176.5660  143.9940 N   0  0  0  0  0  0  0  0  0  0  0  0
  194.2980  175.7770  143.3710 C   0  0  0  0  0  0  0  0  0  0  0  0
  197.5760  174.6910  142.9200 N   0  0  0  0  0  2  0  0  0  0  0  0
  196.3230  174.1740  143.3820 C   0  0  0  0  0  0  0  0  0  0  0  0
  196.0590  172.9610  143.1680 O   0  0  0  0  0  0  0  0  0  0  0  0
  197.8850  176.0570  142.9610 N   0  0  0  0  0  1  0  0  0  0  0  0
  189.7840  175.8040  142.8840 C   0  0  0  0  0  2  0  0  0  0  0  0
  188.6020  176.2290  142.0270 C   0  0  0  0  0  2  0  0  0  0  0  0
  188.6650  177.6560  141.7630 N   0  0  0  0  0  2  0  0  0  0  0  0
  187.3740  178.2070  142.1260 C   0  0  0  0  0  2  0  0  0  0  0  0
  186.3130  177.1330  141.9960 C   0  0  0  0  0  2  0  0  0  0  0  0
  184.0940  177.9860  141.7850 O   0  0  0  0  0  1  0  0  0  0  0  0
  185.0440  177.5570  142.7120 C   0  0  0  0  0  2  0  0  0  0  0  0
  1  8  1  0  0  0  0
  1  4  2  0  0  0  0
  3  5  1  0  0  0  0
  3  2  1  0  0  0  0
  4  6  1  0  0  0  0
  6 12  1  1  0  0  0
  7  6  1  0  0  0  0
  7  5  1  0  0  0  0
  8  7  2  0  0  0  0
  9  3  2  0  0  0  0
 10  4  1  0  0  0  0
 11 10  1  0  0  0  0
 13 14  2  0  0  0  0
 13 12  1  0  0  0  0
 15 20  1  0  0  0  0
 16 18  1  0  0  0  0
 17 16  1  0  0  0  0
 17 18  1  0  0  0  0
 18 14  1  1  0  0  0
 19 22  1  0  0  0  0
 20 16  2  0  0  0  0
 21 17  2  0  0  0  0
 22 21  1  0  0  0  0
 22 15  2  0  0  0  0
 23 26  1  0  0  0  0
 23 24  1  0  0  0  0
 24 15  1  0  0  0  0
 25 24  2  0  0  0  0
 27  1  1  0  0  0  0
 28 27  1  0  0  0  0
 29 28  1  0  0  0  0
 29 30  1  0  0  0  0
 31 30  1  0  0  0  0
 31 33  1  0  0  0  0
 32 33  1  0  0  0  0
M  END
>  <MODEL>
1

>  <REMARK>
 VINA RESULT:      -6.6      0.000      0.000
  Name = 
  11 active torsions:
  status: ('A' for Active; 'I' for Inactive)
    1  A    between atoms: O_1  and  C_16
    2  A    between atoms: C_3  and  C_6
    3  A    between atoms: C_5  and  N_12
    4  A    between atoms: C_5  and  C_19
    5  A    between atoms: C_7  and  C_21
    6  A    between atoms: C_11  and  C_15
    7  A    between atoms: N_12  and  C_33
    8  A    between atoms: C_13  and  C_14
    9  A    between atoms: C_15  and  C_20
   10  A    between atoms: C_19  and  C_32
   11  A    between atoms: C_21  and  C_33
                            x       y       z     vdW  Elec       q    Type
                         _______ _______ _______ _____ _____    ______ ____

>  <TORSDO>
F 11

$$$$
=
 OpenBabel11042416173D

 33 35  0  0  1  0  0  0  0  0999 V2000
  188.1280  177.4010  143.7730 C   0  0  0  0  0  0  0  0  0  0  0  0
  183.3640  178.2480  140.5510 C   0  0  0  0  0  1  0  0  0  0  0  0
  184.4490  178.1130  141.5570 C   0  0  0  0  0  0  0  0  0  0  0  0
  188.9480  177.0310  142.8040 C   0  0  0  0  0  0  0  0  0  0  0  0
  185.7370  177.6460  141.1410 N   0  0  0  0  0  2  0  0  0  0  0  0
  188.1980  176.9860  141.5090 C   0  0  2  0  0  3  0  0  0  0  0  0
  186.8650  177.4570  142.0030 C   0  0  0  0  0  0  0  0  0  0  0  0
  186.8300  177.6810  143.2760 N   0  0  0  0  0  0  0  0  0  0  0  0
  184.2200  178.4100  142.7590 O   0  0  0  0  0  0  0  0  0  0  0  0
  190.3060  176.7650  142.9960 O   0  0  0  0  0  0  0  0  0  0  0  0
  191.2810  177.7950  143.0170 C   0  0  0  0  0  1  0  0  0  0  0  0
  188.0720  175.5510  141.0210 C   0  0  0  0  0  2  0  0  0  0  0  0
  188.8580  174.6440  141.9010 C   0  0  0  0  0  3  0  0  0  0  0  0
  188.4100  173.4210  142.1690 C   0  0  0  0  0  3  0  0  0  0  0  0
  192.2080  173.9830  144.2270 C   0  0  0  0  0  0  0  0  0  0  0  0
  190.5420  172.9070  143.0710 C   0  0  0  0  0  0  0  0  0  0  0  0
  189.6530  173.2230  144.1680 C   0  0  0  0  0  0  0  0  0  0  0  0
  189.1940  172.5120  143.0530 C   0  0  1  0  0  3  0  0  0  0  0  0
  191.6820  175.0040  146.5460 C   0  0  0  0  0  1  0  0  0  0  0  0
  191.8490  173.2580  143.0210 C   0  0  0  0  0  3  0  0  0  0  0  0
  189.8950  173.8810  145.2910 N   0  0  0  0  0  0  0  0  0  0  0  0
  191.2310  174.2790  145.3230 C   0  0  0  0  0  0  0  0  0  0  0  0
  194.6430  173.6820  144.9110 N   0  0  0  0  0  2  0  0  0  0  0  0
  193.6040  174.4710  144.3210 C   0  0  0  0  0  0  0  0  0  0  0  0
  193.9010  175.6030  143.8550 O   0  0  0  0  0  0  0  0  0  0  0  0
  194.3800  172.4920  145.6010 N   0  0  0  0  0  1  0  0  0  0  0  0
  188.5250  177.6180  145.1970 C   0  0  0  0  0  2  0  0  0  0  0  0
  187.6980  176.7420  146.1240 C   0  0  0  0  0  2  0  0  0  0  0  0
  187.3010  177.4970  147.3000 N   0  0  0  0  0  2  0  0  0  0  0  0
  185.9680  177.0500  147.6550 C   0  0  0  0  0  2  0  0  0  0  0  0
  185.1010  177.0120  146.4130 C   0  0  0  0  0  2  0  0  0  0  0  0
  184.9800  179.3160  145.8020 O   0  0  0  0  0  1  0  0  0  0  0  0
  184.2410  178.2590  146.3340 C   0  0  0  0  0  2  0  0  0  0  0  0
  1 27  1  0  0  0  0
  2  3  1  0  0  0  0
  3  9  2  0  0  0  0
  4 10  1  0  0  0  0
  4  1  2  0  0  0  0
  5  3  1  0  0  0  0
  5  7  1  0  0  0  0
  6 12  1  1  0  0  0
  6  7  1  0  0  0  0
  6  4  1  0  0  0  0
  7  8  2  0  0  0  0
  8  1  1  0  0  0  0
 10 11  1  0  0  0  0
 12 13  1  0  0  0  0
 13 14  2  0  0  0  0
 15 24  1  0  0  0  0
 15 22  1  0  0  0  0
 16 17  2  0  0  0  0
 17 21  1  0  0  0  0
 18 14  1  6  0  0  0
 18 16  1  0  0  0  0
 18 17  1  0  0  0  0
 20 16  1  0  0  0  0
 20 15  2  0  0  0  0
 21 22  2  0  0  0  0
 22 19  1  0  0  0  0
 23 26  1  0  0  0  0
 24 23  1  0  0  0  0
 25 24  2  0  0  0  0
 27 28  1  0  0  0  0
 28 29  1  0  0  0  0
 29 30  1  0  0  0  0
 31 30  1  0  0  0  0
 32 33  1  0  0  0  0
 33 31  1  0  0  0  0
M  END
>  <MODEL>
2

>  <REMARK>
 VINA RESULT:      -6.6      2.222      4.970
  Name = 
  11 active torsions:
  status: ('A' for Active; 'I' for Inactive)
    1  A    between atoms: O_1  and  C_16
    2  A    between atoms: C_3  and  C_6
    3  A    between atoms: C_5  and  N_12
    4  A    between atoms: C_5  and  C_19
    5  A    between atoms: C_7  and  C_21
    6  A    between atoms: C_11  and  C_15
    7  A    between atoms: N_12  and  C_33
    8  A    between atoms: C_13  and  C_14
    9  A    between atoms: C_15  and  C_20
   10  A    between atoms: C_19  and  C_32
   11  A    between atoms: C_21  and  C_33
                            x       y       z     vdW  Elec       q    Type
                         _______ _______ _______ _____ _____    ______ ____

>  <TORSDO>
F 11

$$$$
=
 OpenBabel11042416173D

 33 35  0  0  1  0  0  0  0  0999 V2000
  187.5370  175.9550  143.1900 C   0  0  0  0  0  0  0  0  0  0  0  0
  184.8600  178.6600  147.5860 C   0  0  0  0  0  1  0  0  0  0  0  0
  185.3350  177.9890  146.3480 C   0  0  0  0  0  0  0  0  0  0  0  0
  188.6930  175.7210  143.7880 C   0  0  0  0  0  0  0  0  0  0  0  0
  186.6760  177.4900  146.2900 N   0  0  0  0  0  2  0  0  0  0  0  0
  188.6690  176.3130  145.1640 C   0  0  2  0  0  3  0  0  0  0  0  0
  187.2660  176.8360  145.1610 C   0  0  0  0  0  0  0  0  0  0  0  0
  186.6380  176.6390  144.0480 N   0  0  0  0  0  0  0  0  0  0  0  0
  184.5530  177.8710  145.3690 O   0  0  0  0  0  0  0  0  0  0  0  0
  189.7360  175.0000  143.2040 O   0  0  0  0  0  0  0  0  0  0  0  0
  190.1680  173.7490  143.7150 C   0  0  0  0  0  1  0  0  0  0  0  0
  189.6380  177.4820  145.2520 C   0  0  0  0  0  2  0  0  0  0  0  0
  190.9540  177.0140  145.7650 C   0  0  0  0  0  3  0  0  0  0  0  0
  191.0080  176.0910  146.7220 C   0  0  0  0  0  3  0  0  0  0  0  0
  194.4590  174.3890  144.6820 C   0  0  0  0  0  0  0  0  0  0  0  0
  192.9000  174.7170  146.3350 C   0  0  0  0  0  0  0  0  0  0  0  0
  193.3490  176.0910  146.4080 C   0  0  0  0  0  0  0  0  0  0  0  0
  192.3250  175.6230  147.2400 C   0  0  1  0  0  3  0  0  0  0  0  0
  195.9790  176.3580  143.9680 C   0  0  0  0  0  1  0  0  0  0  0  0
  193.4080  173.7910  145.4860 C   0  0  0  0  0  3  0  0  0  0  0  0
  194.2880  176.7130  145.7120 N   0  0  0  0  0  0  0  0  0  0  0  0
  194.8690  175.8240  144.8090 C   0  0  0  0  0  0  0  0  0  0  0  0
  194.6640  173.4840  142.3100 N   0  0  0  0  0  2  0  0  0  0  0  0
  195.1040  173.5160  143.6720 C   0  0  0  0  0  0  0  0  0  0  0  0
  196.0800  172.7930  144.0060 O   0  0  0  0  0  0  0  0  0  0  0  0
  193.4910  174.1210  141.8850 N   0  0  0  0  0  1  0  0  0  0  0  0
  187.1600  175.4660  141.8300 C   0  0  0  0  0  2  0  0  0  0  0  0
  187.6280  176.4410  140.7610 C   0  0  0  0  0  2  0  0  0  0  0  0
  187.0970  177.7660  141.0290 N   0  0  0  0  0  2  0  0  0  0  0  0
  185.8440  177.8700  140.3070 C   0  0  0  0  0  2  0  0  0  0  0  0
  184.7340  178.2310  141.2740 C   0  0  0  0  0  2  0  0  0  0  0  0
  182.3580  178.1280  141.4760 O   0  0  0  0  0  1  0  0  0  0  0  0
  183.3980  178.2560  140.5550 C   0  0  0  0  0  2  0  0  0  0  0  0
  1  4  2  0  0  0  0
  1  8  1  0  0  0  0
  3  2  1  0  0  0  0
  4  6  1  0  0  0  0
  5  3  1  0  0  0  0
  6 12  1  6  0  0  0
  7  6  1  0  0  0  0
  7  5  1  0  0  0  0
  8  7  2  0  0  0  0
  9  3  2  0  0  0  0
 10 11  1  0  0  0  0
 10  4  1  0  0  0  0
 12 13  1  0  0  0  0
 13 14  2  0  0  0  0
 15 22  2  0  0  0  0
 15 20  1  0  0  0  0
 16 17  1  0  0  0  0
 16 18  1  0  0  0  0
 17 18  1  0  0  0  0
 18 14  1  6  0  0  0
 19 22  1  0  0  0  0
 20 16  2  0  0  0  0
 21 17  2  0  0  0  0
 22 21  1  0  0  0  0
 23 24  1  0  0  0  0
 24 25  2  0  0  0  0
 24 15  1  0  0  0  0
 26 23  1  0  0  0  0
 27  1  1  0  0  0  0
 28 29  1  0  0  0  0
 28 27  1  0  0  0  0
 30 29  1  0  0  0  0
 30 31  1  0  0  0  0
 33 31  1  0  0  0  0
 33 32  1  0  0  0  0
M  END
>  <MODEL>
3

>  <REMARK>
 VINA RESULT:      -6.5      1.779      2.151
  Name = 
  11 active torsions:
  status: ('A' for Active; 'I' for Inactive)
    1  A    between atoms: O_1  and  C_16
    2  A    between atoms: C_3  and  C_6
    3  A    between atoms: C_5  and  N_12
    4  A    between atoms: C_5  and  C_19
    5  A    between atoms: C_7  and  C_21
    6  A    between atoms: C_11  and  C_15
    7  A    between atoms: N_12  and  C_33
    8  A    between atoms: C_13  and  C_14
    9  A    between atoms: C_15  and  C_20
   10  A    between atoms: C_19  and  C_32
   11  A    between atoms: C_21  and  C_33
                            x       y       z     vdW  Elec       q    Type
                         _______ _______ _______ _____ _____    ______ ____

>  <TORSDO>
F 11

$$$$
=
 OpenBabel11042416173D

 33 35  0  0  1  0  0  0  0  0999 V2000
  186.8910  176.8020  143.3630 C   0  0  0  0  0  0  0  0  0  0  0  0
  191.2550  173.1450  142.1850 C   0  0  0  0  0  1  0  0  0  0  0  0
  190.0510  174.0100  142.2740 C   0  0  0  0  0  0  0  0  0  0  0  0
  187.3630  177.3010  144.4930 C   0  0  0  0  0  0  0  0  0  0  0  0
  189.8820  174.8630  143.4120 N   0  0  0  0  0  2  0  0  0  0  0  0
  188.6560  176.6260  144.8330 C   0  0  2  0  0  3  0  0  0  0  0  0
  188.7690  175.7370  143.6340 C   0  0  0  0  0  0  0  0  0  0  0  0
  187.7720  175.8350  142.8150 N   0  0  0  0  0  0  0  0  0  0  0  0
  189.1960  173.9800  141.3510 O   0  0  0  0  0  0  0  0  0  0  0  0
  186.7390  178.3240  145.2100 O   0  0  0  0  0  0  0  0  0  0  0  0
  185.7760  178.0610  146.2180 C   0  0  0  0  0  1  0  0  0  0  0  0
  188.4910  175.7660  146.0770 C   0  0  0  0  0  2  0  0  0  0  0  0
  189.8180  175.5210  146.7050 C   0  0  0  0  0  3  0  0  0  0  0  0
  190.7640  176.4550  146.6530 C   0  0  0  0  0  3  0  0  0  0  0  0
  194.3720  174.5820  145.0880 C   0  0  0  0  0  0  0  0  0  0  0  0
  192.7530  175.1650  146.6080 C   0  0  0  0  0  0  0  0  0  0  0  0
  193.1070  176.5480  146.3700 C   0  0  0  0  0  0  0  0  0  0  0  0
  192.0950  176.2110  147.2770 C   0  0  1  0  0  3  0  0  0  0  0  0
  195.7750  176.4400  143.9590 C   0  0  0  0  0  1  0  0  0  0  0  0
  193.3420  174.1100  145.9980 C   0  0  0  0  0  3  0  0  0  0  0  0
  194.0200  177.0610  145.5600 N   0  0  0  0  0  0  0  0  0  0  0  0
  194.6820  176.0340  144.8890 C   0  0  0  0  0  0  0  0  0  0  0  0
  196.2740  172.9110  144.8180 N   0  0  0  0  0  2  0  0  0  0  0  0
  195.0980  173.5510  144.3110 C   0  0  0  0  0  0  0  0  0  0  0  0
  194.6680  173.2060  143.1780 O   0  0  0  0  0  0  0  0  0  0  0  0
  196.9200  173.3430  145.9840 N   0  0  0  0  0  1  0  0  0  0  0  0
  185.6520  177.2680  142.6710 C   0  0  0  0  0  2  0  0  0  0  0  0
  185.9980  178.2100  141.5290 C   0  0  0  0  0  2  0  0  0  0  0  0
  184.9050  178.2560  140.5730 N   0  0  0  0  0  2  0  0  0  0  0  0
  183.6750  178.2030  141.3390 C   0  0  0  0  0  2  0  0  0  0  0  0
  182.5080  177.9680  140.4010 C   0  0  0  0  0  2  0  0  0  0  0  0
  180.1490  178.2590  140.1820 O   0  0  0  0  0  1  0  0  0  0  0  0
  181.2580  178.6390  140.9400 C   0  0  0  0  0  2  0  0  0  0  0  0
  1  4  2  0  0  0  0
  2  3  1  0  0  0  0
  3  5  1  0  0  0  0
  4  6  1  0  0  0  0
  4 10  1  0  0  0  0
  5  7  1  0  0  0  0
  6 12  1  1  0  0  0
  7  6  1  0  0  0  0
  8  1  1  0  0  0  0
  8  7  2  0  0  0  0
  9  3  2  0  0  0  0
 10 11  1  0  0  0  0
 12 13  1  0  0  0  0
 14 13  2  0  0  0  0
 15 20  1  0  0  0  0
 16 18  1  0  0  0  0
 17 16  1  0  0  0  0
 17 18  1  0  0  0  0
 18 14  1  6  0  0  0
 19 22  1  0  0  0  0
 20 16  2  0  0  0  0
 21 17  2  0  0  0  0
 22 15  2  0  0  0  0
 22 21  1  0  0  0  0
 23 26  1  0  0  0  0
 24 23  1  0  0  0  0
 24 15  1  0  0  0  0
 25 24  2  0  0  0  0
 27  1  1  0  0  0  0
 28 27  1  0  0  0  0
 29 30  1  0  0  0  0
 29 28  1  0  0  0  0
 31 33  1  0  0  0  0
 31 30  1  0  0  0  0
 32 33  1  0  0  0  0
M  END
>  <MODEL>
4

>  <REMARK>
 VINA RESULT:      -6.4      2.193      3.979
  Name = 
  11 active torsions:
  status: ('A' for Active; 'I' for Inactive)
    1  A    between atoms: O_1  and  C_16
    2  A    between atoms: C_3  and  C_6
    3  A    between atoms: C_5  and  N_12
    4  A    between atoms: C_5  and  C_19
    5  A    between atoms: C_7  and  C_21
    6  A    between atoms: C_11  and  C_15
    7  A    between atoms: N_12  and  C_33
    8  A    between atoms: C_13  and  C_14
    9  A    between atoms: C_15  and  C_20
   10  A    between atoms: C_19  and  C_32
   11  A    between atoms: C_21  and  C_33
                            x       y       z     vdW  Elec       q    Type
                         _______ _______ _______ _____ _____    ______ ____

>  <TORSDO>
F 11

$$$$
=
 OpenBabel11042416173D

 33 35  0  0  1  0  0  0  0  0999 V2000
  189.1990  175.8650  145.4500 C   0  0  0  0  0  0  0  0  0  0  0  0
  184.1170  178.5650  146.2830 C   0  0  0  0  0  1  0  0  0  0  0  0
  185.3580  177.7480  146.2650 C   0  0  0  0  0  0  0  0  0  0  0  0
  189.6280  176.5820  144.4260 C   0  0  0  0  0  0  0  0  0  0  0  0
  186.3440  177.9910  145.2560 N   0  0  0  0  0  2  0  0  0  0  0  0
  188.5830  177.5870  144.0500 C   0  0  2  0  0  3  0  0  0  0  0  0
  187.5760  177.2740  145.1130 C   0  0  0  0  0  0  0  0  0  0  0  0
  187.9240  176.3020  145.8920 N   0  0  0  0  0  0  0  0  0  0  0  0
  185.5250  176.8540  147.1360 O   0  0  0  0  0  0  0  0  0  0  0  0
  190.8840  176.4200  143.8360 O   0  0  0  0  0  0  0  0  0  0  0  0
  191.8210  177.4810  143.7510 C   0  0  0  0  0  1  0  0  0  0  0  0
  187.9920  177.2510  142.6890 C   0  0  0  0  0  2  0  0  0  0  0  0
  188.5870  175.9870  142.1760 C   0  0  0  0  0  3  0  0  0  0  0  0
  187.8060  174.9460  141.8980 C   0  0  0  0  0  3  0  0  0  0  0  0
  191.8380  173.3280  142.2120 C   0  0  0  0  0  0  0  0  0  0  0  0
  189.7940  173.8090  141.2840 C   0  0  0  0  0  0  0  0  0  0  0  0
  189.1880  173.0940  142.3860 C   0  0  0  0  0  0  0  0  0  0  0  0
  188.3990  173.6770  141.3870 C   0  0  1  0  0  3  0  0  0  0  0  0
  191.9410  171.9400  144.3930 C   0  0  0  0  0  1  0  0  0  0  0  0
  191.1280  173.9770  141.1230 C   0  0  0  0  0  3  0  0  0  0  0  0
  189.7560  172.4850  143.4150 N   0  0  0  0  0  0  0  0  0  0  0  0
  191.1420  172.6070  143.3250 C   0  0  0  0  0  0  0  0  0  0  0  0
  194.1460  172.4860  141.5390 N   0  0  0  0  0  2  0  0  0  0  0  0
  193.3150  173.4430  142.2070 C   0  0  0  0  0  0  0  0  0  0  0  0
  193.8670  174.4150  142.7870 O   0  0  0  0  0  0  0  0  0  0  0  0
  193.6390  171.2910  141.0130 N   0  0  0  0  0  1  0  0  0  0  0  0
  189.9890  174.8050  146.1460 C   0  0  0  0  0  2  0  0  0  0  0  0
  190.5370  175.3250  147.4660 C   0  0  0  0  0  2  0  0  0  0  0  0
  191.8600  175.8920  147.2660 N   0  0  0  0  0  2  0  0  0  0  0  0
  192.6050  174.9440  146.4590 C   0  0  0  0  0  2  0  0  0  0  0  0
  194.0250  175.4420  146.2810 C   0  0  0  0  0  2  0  0  0  0  0  0
  194.7730  177.6230  145.6680 O   0  0  0  0  0  1  0  0  0  0  0  0
  194.1220  176.9050  146.6710 C   0  0  0  0  0  2  0  0  0  0  0  0
  1  8  1  0  0  0  0
  1 27  1  0  0  0  0
  3  2  1  0  0  0  0
  3  9  2  0  0  0  0
  4  1  2  0  0  0  0
  5  3  1  0  0  0  0
  6 12  1  6  0  0  0
  6  4  1  0  0  0  0
  6  7  1  0  0  0  0
  7  5  1  0  0  0  0
  7  8  2  0  0  0  0
 10  4  1  0  0  0  0
 11 10  1  0  0  0  0
 13 12  1  0  0  0  0
 14 13  2  0  0  0  0
 15 22  1  0  0  0  0
 16 18  1  0  0  0  0
 16 17  2  0  0  0  0
 17 21  1  0  0  0  0
 18 14  1  1  0  0  0
 18 17  1  0  0  0  0
 20 16  1  0  0  0  0
 20 15  2  0  0  0  0
 22 21  2  0  0  0  0
 22 19  1  0  0  0  0
 23 24  1  0  0  0  0
 24 15  1  0  0  0  0
 24 25  2  0  0  0  0
 26 23  1  0  0  0  0
 27 28  1  0  0  0  0
 29 28  1  0  0  0  0
 30 29  1  0  0  0  0
 31 30  1  0  0  0  0
 31 33  1  0  0  0  0
 32 33  1  0  0  0  0
M  END
>  <MODEL>
5

>  <REMARK>
 VINA RESULT:      -6.3      2.581      5.545
  Name = 
  11 active torsions:
  status: ('A' for Active; 'I' for Inactive)
    1  A    between atoms: O_1  and  C_16
    2  A    between atoms: C_3  and  C_6
    3  A    between atoms: C_5  and  N_12
    4  A    between atoms: C_5  and  C_19
    5  A    between atoms: C_7  and  C_21
    6  A    between atoms: C_11  and  C_15
    7  A    between atoms: N_12  and  C_33
    8  A    between atoms: C_13  and  C_14
    9  A    between atoms: C_15  and  C_20
   10  A    between atoms: C_19  and  C_32
   11  A    between atoms: C_21  and  C_33
                            x       y       z     vdW  Elec       q    Type
                         _______ _______ _______ _____ _____    ______ ____

>  <TORSDO>
F 11

$$$$
=
 OpenBabel11042416173D

 33 35  0  0  1  0  0  0  0  0999 V2000
  188.0830  174.9910  142.8000 C   0  0  0  0  0  0  0  0  0  0  0  0
  184.7410  179.4840  144.3640 C   0  0  0  0  0  1  0  0  0  0  0  0
  185.4280  178.2950  143.7970 C   0  0  0  0  0  0  0  0  0  0  0  0
  188.9980  175.0960  143.7490 C   0  0  0  0  0  0  0  0  0  0  0  0
  186.6560  177.8470  144.3830 N   0  0  0  0  0  2  0  0  0  0  0  0
  188.6950  176.2910  144.6010 C   0  0  2  0  0  3  0  0  0  0  0  0
  187.4270  176.7280  143.9340 C   0  0  0  0  0  0  0  0  0  0  0  0
  187.0930  175.9980  142.9190 N   0  0  0  0  0  0  0  0  0  0  0  0
  184.9220  177.6980  142.8100 O   0  0  0  0  0  0  0  0  0  0  0  0
  190.0490  174.1930  143.9180 O   0  0  0  0  0  0  0  0  0  0  0  0
  189.9890  173.1300  144.8550 C   0  0  0  0  0  1  0  0  0  0  0  0
  189.7560  177.3620  144.4050 C   0  0  0  0  0  2  0  0  0  0  0  0
  191.0070  176.9730  145.1130 C   0  0  0  0  0  3  0  0  0  0  0  0
  190.9760  176.6840  146.4110 C   0  0  0  0  0  3  0  0  0  0  0  0
  194.4640  174.4370  145.0830 C   0  0  0  0  0  0  0  0  0  0  0  0
  192.8150  175.1890  146.4930 C   0  0  0  0  0  0  0  0  0  0  0  0
  193.3300  176.5260  146.2910 C   0  0  0  0  0  0  0  0  0  0  0  0
  192.2280  176.2980  147.1240 C   0  0  1  0  0  3  0  0  0  0  0  0
  196.1320  176.1350  144.0690 C   0  0  0  0  0  1  0  0  0  0  0  0
  193.3290  174.0770  145.9160 C   0  0  0  0  0  3  0  0  0  0  0  0
  194.3470  176.9390  145.5500 N   0  0  0  0  0  0  0  0  0  0  0  0
  194.9400  175.8470  144.9180 C   0  0  0  0  0  0  0  0  0  0  0  0
  196.2280  172.6080  144.9090 N   0  0  0  0  0  2  0  0  0  0  0  0
  195.1280  173.3350  144.3490 C   0  0  0  0  0  0  0  0  0  0  0  0
  194.7110  173.0060  143.2060 O   0  0  0  0  0  0  0  0  0  0  0  0
  196.8650  173.0070  146.0910 N   0  0  0  0  0  1  0  0  0  0  0  0
  188.0140  173.8890  141.7940 C   0  0  0  0  0  2  0  0  0  0  0  0
  188.7280  174.2880  140.5120 C   0  0  0  0  0  2  0  0  0  0  0  0
  189.4590  173.1530  139.9760 N   0  0  0  0  0  2  0  0  0  0  0  0
  189.6020  172.1970  141.0570 C   0  0  0  0  0  2  0  0  0  0  0  0
  190.6940  171.2040  140.7090 C   0  0  0  0  0  2  0  0  0  0  0  0
  191.5390  170.6360  142.8670 O   0  0  0  0  0  1  0  0  0  0  0  0
  190.8030  170.1440  141.7890 C   0  0  0  0  0  2  0  0  0  0  0  0
  1  8  1  0  0  0  0
  1  4  2  0  0  0  0
  3  2  1  0  0  0  0
  3  5  1  0  0  0  0
  4 10  1  0  0  0  0
  4  6  1  0  0  0  0
  6 12  1  6  0  0  0
  7  5  1  0  0  0  0
  7  6  1  0  0  0  0
  8  7  2  0  0  0  0
  9  3  2  0  0  0  0
 10 11  1  0  0  0  0
 12 13  1  0  0  0  0
 13 14  2  0  0  0  0
 15 20  1  0  0  0  0
 16 18  1  0  0  0  0
 17 16  1  0  0  0  0
 17 18  1  0  0  0  0
 18 14  1  6  0  0  0
 19 22  1  0  0  0  0
 20 16  2  0  0  0  0
 21 17  2  0  0  0  0
 22 15  2  0  0  0  0
 22 21  1  0  0  0  0
 23 26  1  0  0  0  0
 24 23  1  0  0  0  0
 24 15  1  0  0  0  0
 25 24  2  0  0  0  0
 27  1  1  0  0  0  0
 28 27  1  0  0  0  0
 29 28  1  0  0  0  0
 29 30  1  0  0  0  0
 31 30  1  0  0  0  0
 31 33  1  0  0  0  0
 33 32  1  0  0  0  0
M  END
>  <MODEL>
6

>  <REMARK>
 VINA RESULT:      -6.3      2.287      3.880
  Name = 
  11 active torsions:
  status: ('A' for Active; 'I' for Inactive)
    1  A    between atoms: O_1  and  C_16
    2  A    between atoms: C_3  and  C_6
    3  A    between atoms: C_5  and  N_12
    4  A    between atoms: C_5  and  C_19
    5  A    between atoms: C_7  and  C_21
    6  A    between atoms: C_11  and  C_15
    7  A    between atoms: N_12  and  C_33
    8  A    between atoms: C_13  and  C_14
    9  A    between atoms: C_15  and  C_20
   10  A    between atoms: C_19  and  C_32
   11  A    between atoms: C_21  and  C_33
                            x       y       z     vdW  Elec       q    Type
                         _______ _______ _______ _____ _____    ______ ____

>  <TORSDO>
F 11

$$$$
=
 OpenBabel11042416173D

 33 35  0  0  1  0  0  0  0  0999 V2000
  186.5910  176.9970  144.8580 C   0  0  0  0  0  0  0  0  0  0  0  0
  190.2540  173.4090  142.1160 C   0  0  0  0  0  1  0  0  0  0  0  0
  189.1680  174.2800  142.6360 C   0  0  0  0  0  0  0  0  0  0  0  0
  187.3930  177.3730  145.8390 C   0  0  0  0  0  0  0  0  0  0  0  0
  189.3770  175.0170  143.8450 N   0  0  0  0  0  2  0  0  0  0  0  0
  188.6980  176.6470  145.7190 C   0  0  2  0  0  3  0  0  0  0  0  0
  188.4160  175.8810  144.4640 C   0  0  0  0  0  0  0  0  0  0  0  0
  187.2290  176.0760  143.9880 N   0  0  0  0  0  0  0  0  0  0  0  0
  188.0800  174.3560  142.0060 O   0  0  0  0  0  0  0  0  0  0  0  0
  187.0520  178.3280  146.7980 O   0  0  0  0  0  0  0  0  0  0  0  0
  186.3010  178.0010  147.9560 C   0  0  0  0  0  1  0  0  0  0  0  0
  188.8660  175.6700  146.8730 C   0  0  0  0  0  2  0  0  0  0  0  0
  190.3120  175.4350  147.1340 C   0  0  0  0  0  3  0  0  0  0  0  0
  191.1860  176.4270  146.9850 C   0  0  0  0  0  3  0  0  0  0  0  0
  194.2590  174.4990  144.5740 C   0  0  0  0  0  0  0  0  0  0  0  0
  193.0970  175.1290  146.4510 C   0  0  0  0  0  0  0  0  0  0  0  0
  193.3720  176.5040  146.0910 C   0  0  0  0  0  0  0  0  0  0  0  0
  192.6360  176.1950  147.2420 C   0  0  1  0  0  3  0  0  0  0  0  0
  195.3080  176.3200  143.0650 C   0  0  0  0  0  1  0  0  0  0  0  0
  193.5080  174.0550  145.7360 C   0  0  0  0  0  3  0  0  0  0  0  0
  194.0370  176.9910  145.0550 N   0  0  0  0  0  0  0  0  0  0  0  0
  194.5010  175.9430  144.2620 C   0  0  0  0  0  0  0  0  0  0  0  0
  196.0480  172.8460  143.8290 N   0  0  0  0  0  2  0  0  0  0  0  0
  194.7580  173.4440  143.6600 C   0  0  0  0  0  0  0  0  0  0  0  0
  194.0280  173.0410  142.7160 O   0  0  0  0  0  0  0  0  0  0  0  0
  196.9910  173.3410  144.7390 N   0  0  0  0  0  1  0  0  0  0  0  0
  185.2250  177.5480  144.6070 C   0  0  0  0  0  2  0  0  0  0  0  0
  185.2380  178.4890  143.4130 C   0  0  0  0  0  2  0  0  0  0  0  0
  184.4340  177.9370  142.3360 N   0  0  0  0  0  2  0  0  0  0  0  0
  185.0750  178.3250  141.0940 C   0  0  0  0  0  2  0  0  0  0  0  0
  186.5800  178.2320  141.2530 C   0  0  0  0  0  2  0  0  0  0  0  0
  186.4840  177.2200  139.0950 O   0  0  0  0  0  1  0  0  0  0  0  0
  187.1430  177.1740  140.3230 C   0  0  0  0  0  2  0  0  0  0  0  0
  1  4  2  0  0  0  0
  2  3  1  0  0  0  0
  3  5  1  0  0  0  0
  4 10  1  0  0  0  0
  5  7  1  0  0  0  0
  6  4  1  0  0  0  0
  6 12  1  1  0  0  0
  7  6  1  0  0  0  0
  8  7  2  0  0  0  0
  8  1  1  0  0  0  0
  9  3  2  0  0  0  0
 10 11  1  0  0  0  0
 12 13  1  0  0  0  0
 14 13  2  0  0  0  0
 15 20  1  0  0  0  0
 16 18  1  0  0  0  0
 17 16  1  0  0  0  0
 17 18  1  0  0  0  0
 18 14  1  6  0  0  0
 19 22  1  0  0  0  0
 20 16  2  0  0  0  0
 21 17  2  0  0  0  0
 22 15  2  0  0  0  0
 22 21  1  0  0  0  0
 23 26  1  0  0  0  0
 24 23  1  0  0  0  0
 24 15  1  0  0  0  0
 25 24  2  0  0  0  0
 27  1  1  0  0  0  0
 28 27  1  0  0  0  0
 29 28  1  0  0  0  0
 30 31  1  0  0  0  0
 30 29  1  0  0  0  0
 32 33  1  0  0  0  0
 33 31  1  0  0  0  0
M  END
>  <MODEL>
7

>  <REMARK>
 VINA RESULT:      -6.3      1.893      3.645
  Name = 
  11 active torsions:
  status: ('A' for Active; 'I' for Inactive)
    1  A    between atoms: O_1  and  C_16
    2  A    between atoms: C_3  and  C_6
    3  A    between atoms: C_5  and  N_12
    4  A    between atoms: C_5  and  C_19
    5  A    between atoms: C_7  and  C_21
    6  A    between atoms: C_11  and  C_15
    7  A    between atoms: N_12  and  C_33
    8  A    between atoms: C_13  and  C_14
    9  A    between atoms: C_15  and  C_20
   10  A    between atoms: C_19  and  C_32
   11  A    between atoms: C_21  and  C_33
                            x       y       z     vdW  Elec       q    Type
                         _______ _______ _______ _____ _____    ______ ____

>  <TORSDO>
F 11

$$$$
=
 OpenBabel11042416173D

 33 35  0  0  1  0  0  0  0  0999 V2000
  187.7600  176.8600  142.4270 C   0  0  0  0  0  0  0  0  0  0  0  0
  190.1760  172.5480  139.3650 C   0  0  0  0  0  1  0  0  0  0  0  0
  189.4030  173.6650  139.9660 C   0  0  0  0  0  0  0  0  0  0  0  0
  188.6300  176.8960  143.4220 C   0  0  0  0  0  0  0  0  0  0  0  0
  189.8170  174.2080  141.2240 N   0  0  0  0  0  2  0  0  0  0  0  0
  189.6520  175.8180  143.2270 C   0  0  2  0  0  3  0  0  0  0  0  0
  189.1610  175.2740  141.9220 C   0  0  0  0  0  0  0  0  0  0  0  0
  188.0940  175.8580  141.4800 N   0  0  0  0  0  0  0  0  0  0  0  0
  188.3960  174.1180  139.3610 O   0  0  0  0  0  0  0  0  0  0  0  0
  188.5880  177.8330  144.4560 O   0  0  0  0  0  0  0  0  0  0  0  0
  188.0040  177.5430  145.7150 C   0  0  0  0  0  1  0  0  0  0  0  0
  189.5030  174.7500  144.3000 C   0  0  0  0  0  2  0  0  0  0  0  0
  190.7620  174.6410  145.0870 C   0  0  0  0  0  3  0  0  0  0  0  0
  191.1660  175.6590  145.8430 C   0  0  0  0  0  3  0  0  0  0  0  0
  195.1940  174.4870  144.6690 C   0  0  0  0  0  0  0  0  0  0  0  0
  193.3220  174.6840  145.9850 C   0  0  0  0  0  0  0  0  0  0  0  0
  193.4820  176.1190  145.9000 C   0  0  0  0  0  0  0  0  0  0  0  0
  192.4280  175.5540  146.6290 C   0  0  1  0  0  3  0  0  0  0  0  0
  196.4200  176.6280  143.8870 C   0  0  0  0  0  1  0  0  0  0  0  0
  194.1440  173.7870  145.3880 C   0  0  0  0  0  3  0  0  0  0  0  0
  194.3990  176.8330  145.2660 N   0  0  0  0  0  0  0  0  0  0  0  0
  195.2940  175.9810  144.6220 C   0  0  0  0  0  0  0  0  0  0  0  0
  196.0020  173.3510  142.5380 N   0  0  0  0  0  2  0  0  0  0  0  0
  196.1670  173.6510  143.9290 C   0  0  0  0  0  0  0  0  0  0  0  0
  197.1830  173.2020  144.5240 O   0  0  0  0  0  0  0  0  0  0  0  0
  194.8290  173.6620  141.8380 N   0  0  0  0  0  1  0  0  0  0  0  0
  186.6300  177.8190  142.2400 C   0  0  0  0  0  2  0  0  0  0  0  0
  185.3180  177.1960  142.6880 C   0  0  0  0  0  2  0  0  0  0  0  0
  184.5080  178.1830  143.3790 N   0  0  0  0  0  2  0  0  0  0  0  0
  185.3870  179.2880  143.7110 C   0  0  0  0  0  2  0  0  0  0  0  0
  185.1070  179.7440  145.1300 C   0  0  0  0  0  2  0  0  0  0  0  0
  184.8290  178.5790  147.1930 O   0  0  0  0  0  1  0  0  0  0  0  0
  184.3480  178.6710  145.8870 C   0  0  0  0  0  2  0  0  0  0  0  0
  1  4  2  0  0  0  0
  2  3  1  0  0  0  0
  3  5  1  0  0  0  0
  4 10  1  0  0  0  0
  5  7  1  0  0  0  0
  6  4  1  0  0  0  0
  6 12  1  1  0  0  0
  7  6  1  0  0  0  0
  8  7  2  0  0  0  0
  8  1  1  0  0  0  0
  9  3  2  0  0  0  0
 10 11  1  0  0  0  0
 12 13  1  0  0  0  0
 13 14  2  0  0  0  0
 15 20  1  0  0  0  0
 16 18  1  0  0  0  0
 17 16  1  0  0  0  0
 17 18  1  0  0  0  0
 18 14  1  6  0  0  0
 19 22  1  0  0  0  0
 20 16  2  0  0  0  0
 21 17  2  0  0  0  0
 22 15  2  0  0  0  0
 22 21  1  0  0  0  0
 23 24  1  0  0  0  0
 24 25  2  0  0  0  0
 24 15  1  0  0  0  0
 26 23  1  0  0  0  0
 27  1  1  0  0  0  0
 27 28  1  0  0  0  0
 28 29  1  0  0  0  0
 29 30  1  0  0  0  0
 30 31  1  0  0  0  0
 31 33  1  0  0  0  0
 33 32  1  0  0  0  0
M  END
>  <MODEL>
8

>  <REMARK>
 VINA RESULT:      -6.3      2.340      4.284
  Name = 
  11 active torsions:
  status: ('A' for Active; 'I' for Inactive)
    1  A    between atoms: O_1  and  C_16
    2  A    between atoms: C_3  and  C_6
    3  A    between atoms: C_5  and  N_12
    4  A    between atoms: C_5  and  C_19
    5  A    between atoms: C_7  and  C_21
    6  A    between atoms: C_11  and  C_15
    7  A    between atoms: N_12  and  C_33
    8  A    between atoms: C_13  and  C_14
    9  A    between atoms: C_15  and  C_20
   10  A    between atoms: C_19  and  C_32
   11  A    between atoms: C_21  and  C_33
                            x       y       z     vdW  Elec       q    Type
                         _______ _______ _______ _____ _____    ______ ____

>  <TORSDO>
F 11

$$$$
=
 OpenBabel11042416173D

 33 35  0  0  1  0  0  0  0  0999 V2000
  191.6730  172.4090  143.7300 C   0  0  0  0  0  0  0  0  0  0  0  0
  196.8010  171.1010  146.1390 C   0  0  0  0  0  1  0  0  0  0  0  0
  195.4840  171.2040  145.4590 C   0  0  0  0  0  0  0  0  0  0  0  0
  191.6780  173.7090  143.9680 C   0  0  0  0  0  0  0  0  0  0  0  0
  194.8220  172.4730  145.4000 N   0  0  0  0  0  2  0  0  0  0  0  0
  192.9130  174.0680  144.7370 C   0  0  2  0  0  3  0  0  0  0  0  0
  193.5480  172.7140  144.7900 C   0  0  0  0  0  0  0  0  0  0  0  0
  192.8450  171.7840  144.2290 N   0  0  0  0  0  0  0  0  0  0  0  0
  194.9690  170.1770  144.9460 O   0  0  0  0  0  0  0  0  0  0  0  0
  190.6850  174.5840  143.5240 O   0  0  0  0  0  0  0  0  0  0  0  0
  190.9360  175.5760  142.5420 C   0  0  0  0  0  1  0  0  0  0  0  0
  192.5480  174.5030  146.1490 C   0  0  0  0  0  2  0  0  0  0  0  0
  191.8840  175.8350  146.1150 C   0  0  0  0  0  3  0  0  0  0  0  0
  190.7310  176.0220  146.7510 C   0  0  0  0  0  3  0  0  0  0  0  0
  187.1070  177.3650  144.7430 C   0  0  0  0  0  0  0  0  0  0  0  0
  189.2440  177.4480  145.5780 C   0  0  0  0  0  0  0  0  0  0  0  0
  188.6820  177.1900  146.8870 C   0  0  0  0  0  0  0  0  0  0  0  0
  190.0620  177.3540  146.7160 C   0  0  1  0  0  3  0  0  0  0  0  0
  185.1320  176.9490  146.3630 C   0  0  0  0  0  1  0  0  0  0  0  0
  188.5150  177.5480  144.4410 C   0  0  0  0  0  3  0  0  0  0  0  0
  187.4220  177.0050  147.2460 N   0  0  0  0  0  0  0  0  0  0  0  0
  186.5970  177.0970  146.1260 C   0  0  0  0  0  0  0  0  0  0  0  0
  185.5130  178.6260  143.2080 N   0  0  0  0  0  2  0  0  0  0  0  0
  186.1670  177.4140  143.5990 C   0  0  0  0  0  0  0  0  0  0  0  0
  185.9440  176.3690  142.9310 O   0  0  0  0  0  0  0  0  0  0  0  0
  185.5670  179.7910  143.9850 N   0  0  0  0  0  1  0  0  0  0  0  0
  190.6350  171.6870  142.9350 C   0  0  0  0  0  2  0  0  0  0  0  0
  191.2450  171.0840  141.6800 C   0  0  0  0  0  2  0  0  0  0  0  0
  190.5420  171.5670  140.5040 N   0  0  0  0  0  2  0  0  0  0  0  0
  189.4220  172.3560  140.9790 C   0  0  0  0  0  2  0  0  0  0  0  0
  188.4980  172.6690  139.8190 C   0  0  0  0  0  2  0  0  0  0  0  0
  188.1890  174.9200  140.5480 O   0  0  0  0  0  1  0  0  0  0  0  0
  188.5840  174.1400  139.4600 C   0  0  0  0  0  2  0  0  0  0  0  0
  1  4  2  0  0  0  0
  1  8  1  0  0  0  0
  3  2  1  0  0  0  0
  4  6  1  0  0  0  0
  5  3  1  0  0  0  0
  6  7  1  0  0  0  0
  6 12  1  1  0  0  0
  7  5  1  0  0  0  0
  8  7  2  0  0  0  0
  9  3  2  0  0  0  0
 10  4  1  0  0  0  0
 11 10  1  0  0  0  0
 13 12  1  0  0  0  0
 13 14  2  0  0  0  0
 15 22  1  0  0  0  0
 16 18  1  0  0  0  0
 16 17  2  0  0  0  0
 17 21  1  0  0  0  0
 18 14  1  6  0  0  0
 18 17  1  0  0  0  0
 20 15  2  0  0  0  0
 20 16  1  0  0  0  0
 22 19  1  0  0  0  0
 22 21  2  0  0  0  0
 23 24  1  0  0  0  0
 23 26  1  0  0  0  0
 24 15  1  0  0  0  0
 25 24  2  0  0  0  0
 27  1  1  0  0  0  0
 28 27  1  0  0  0  0
 29 30  1  0  0  0  0
 29 28  1  0  0  0  0
 31 30  1  0  0  0  0
 33 31  1  0  0  0  0
 33 32  1  0  0  0  0
M  END
>  <MODEL>
9

>  <REMARK>
 VINA RESULT:      -6.2      3.021      7.527
  Name = 
  11 active torsions:
  status: ('A' for Active; 'I' for Inactive)
    1  A    between atoms: O_1  and  C_16
    2  A    between atoms: C_3  and  C_6
    3  A    between atoms: C_5  and  N_12
    4  A    between atoms: C_5  and  C_19
    5  A    between atoms: C_7  and  C_21
    6  A    between atoms: C_11  and  C_15
    7  A    between atoms: N_12  and  C_33
    8  A    between atoms: C_13  and  C_14
    9  A    between atoms: C_15  and  C_20
   10  A    between atoms: C_19  and  C_32
   11  A    between atoms: C_21  and  C_33
                            x       y       z     vdW  Elec       q    Type
                         _______ _______ _______ _____ _____    ______ ____

>  <TORSDO>
F 11

$$$$
