=
 OpenBabel11042418413D

 34 37  0  0  0  0  0  0  0  0999 V2000
  188.4690  176.1010  141.9590 C   0  0  0  0  0  3  0  0  0  0  0  0
  189.8220  177.7670  142.5490 N   0  0  0  0  0  0  0  0  0  0  0  0
  189.6210  176.4620  142.6300 C   0  0  0  0  0  0  0  0  0  0  0  0
  188.0010  177.3310  141.4690 C   0  0  0  0  0  0  0  0  0  0  0  0
  191.5940  176.6110  143.8440 C   0  0  0  0  0  0  0  0  0  0  0  0
  190.5950  175.7490  143.3540 C   0  0  0  0  0  0  0  0  0  0  0  0
  188.8600  178.3660  141.8440 C   0  0  0  0  0  3  0  0  0  0  0  0
  191.2090  178.1840  143.3470 S   0  0  0  0  0  0  0  0  0  0  0  0
  186.6810  176.9610  139.5390 O   0  0  0  0  0  0  0  0  0  0  0  0
  185.7330  178.2770  141.1540 O   0  0  0  0  0  1  0  0  0  0  0  0
  186.7830  177.5060  140.6680 C   0  0  0  0  0  0  0  0  0  0  0  0
  190.6070  174.3350  143.5690 N   0  0  0  0  0  2  0  0  0  0  0  0
  189.7170  173.6610  144.5020 C   0  0  0  0  0  2  0  0  0  0  0  0
  190.2320  173.8220  145.9230 C   0  0  0  0  0  2  0  0  0  0  0  0
  189.3000  174.6950  146.7560 C   0  0  0  0  0  2  0  0  0  0  0  0
  189.8750  176.0880  146.9610 C   0  0  0  0  0  2  0  0  0  0  0  0
  188.9250  177.1400  146.4220 C   0  0  0  0  0  2  0  0  0  0  0  0
  187.7110  176.4580  145.8170 C   0  0  0  0  0  2  0  0  0  0  0  0
  186.5760  177.3710  145.8120 N   0  0  0  0  0  0  0  0  0  0  0  0
  186.2430  178.0530  144.5650 C   0  0  0  0  0  2  0  0  0  0  0  0
  185.6770  177.4470  146.9310 C   0  0  0  0  0  0  0  0  0  0  0  0
  184.5790  178.3090  146.8760 O   0  0  0  0  0  0  0  0  0  0  0  0
  185.4250  179.3130  144.8370 C   0  0  0  0  0  2  0  0  0  0  0  0
  185.8930  176.7780  147.9770 O   0  0  0  0  0  0  0  0  0  0  0  0
  184.1950  178.9380  145.6550 C   0  0  0  0  0  2  0  0  0  0  0  0
  192.8040  176.2290  144.6310 C   0  0  0  0  0  2  0  0  0  0  0  0
  195.1590  175.2070  142.0150 N   0  0  0  0  0  0  0  0  0  0  0  0
  194.2220  176.0530  142.4980 C   0  0  0  0  0  3  0  0  0  0  0  0
  196.3100  173.1680  142.7360 C   0  0  0  0  0  1  0  0  0  0  0  0
  194.5800  174.4600  143.9790 C   0  0  0  0  0  0  0  0  0  0  0  0
  193.8330  175.6010  143.7500 C   0  0  0  0  0  0  0  0  0  0  0  0
  195.3650  174.2560  142.9110 N   0  0  0  0  0  0  0  0  0  0  0  0
  194.5750  173.6250  145.1040 O   0  0  0  0  0  0  0  0  0  0  0  0
  193.7050  172.5110  145.2380 C   0  0  0  0  0  1  0  0  0  0  0  0
  1  3  2  0  0  0  0
  2  3  1  0  0  0  0
  2  8  1  0  0  0  0
  3  6  1  0  0  0  0
  4  7  2  0  0  0  0
  4  1  1  0  0  0  0
  5 26  1  0  0  0  0
  6 12  1  0  0  0  0
  6  5  2  0  0  0  0
  7  2  1  0  0  0  0
  8  5  1  0  0  0  0
  9 11  2  0  0  0  0
 11 10  1  0  0  0  0
 11  4  1  0  0  0  0
 12 13  1  0  0  0  0
 13 14  1  0  0  0  0
 14 15  1  0  0  0  0
 15 16  1  0  0  0  0
 17 16  1  0  0  0  0
 18 17  1  0  0  0  0
 19 18  1  0  0  0  0
 19 21  1  0  0  0  0
 20 23  1  0  0  0  0
 20 19  1  0  0  0  0
 21 24  2  0  0  0  0
 22 21  1  0  0  0  0
 23 25  1  0  0  0  0
 25 22  1  0  0  0  0
 27 28  2  0  0  0  0
 27 32  1  0  0  0  0
 28 31  1  0  0  0  0
 29 32  1  0  0  0  0
 30 33  1  0  0  0  0
 31 30  2  0  0  0  0
 31 26  1  0  0  0  0
 32 30  1  0  0  0  0
 33 34  1  0  0  0  0
M  END
>  <MODEL>
1

>  <REMARK>
 VINA RESULT:      -6.3      0.000      0.000
  Name = 
  12 active torsions:
  status: ('A' for Active; 'I' for Inactive)
    1  A    between atoms: N_1  and  C_14
    2  A    between atoms: O_7  and  C_25
    3  A    between atoms: C_9  and  C_12
    4  A    between atoms: C_10  and  N_13
    5  A    between atoms: C_10  and  C_22
    6  A    between atoms: N_13  and  C_30
    7  A    between atoms: C_14  and  C_15
    8  A    between atoms: C_15  and  C_29
    9  A    between atoms: C_20  and  C_21
   10  A    between atoms: C_20  and  C_26
   11  A    between atoms: C_22  and  C_33
   12  A    between atoms: C_29  and  C_33
                            x       y       z     vdW  Elec       q    Type
                         _______ _______ _______ _____ _____    ______ ____

>  <TORSDO>
F 12

$$$$
=
 OpenBabel11042418413D

 34 37  0  0  0  0  0  0  0  0999 V2000
  183.2350  178.3590  142.5870 C   0  0  0  0  0  3  0  0  0  0  0  0
  184.6610  178.0770  140.9010 N   0  0  0  0  0  0  0  0  0  0  0  0
  184.5500  178.1570  142.2170 C   0  0  0  0  0  0  0  0  0  0  0  0
  182.5700  178.3930  141.3500 C   0  0  0  0  0  0  0  0  0  0  0  0
  186.8410  177.8200  142.0550 C   0  0  0  0  0  0  0  0  0  0  0  0
  185.7560  178.0170  142.9290 C   0  0  0  0  0  0  0  0  0  0  0  0
  183.4750  178.2130  140.3020 C   0  0  0  0  0  3  0  0  0  0  0  0
  186.2380  177.8250  140.4720 S   0  0  0  0  0  0  0  0  0  0  0  0
  180.5440  178.1620  140.1470 O   0  0  0  0  0  0  0  0  0  0  0  0
  180.3880  179.2390  142.1610 O   0  0  0  0  0  1  0  0  0  0  0  0
  181.1240  178.5860  141.1800 C   0  0  0  0  0  0  0  0  0  0  0  0
  185.8940  178.0520  144.3530 N   0  0  0  0  0  2  0  0  0  0  0  0
  185.7520  176.8780  145.1990 C   0  0  0  0  0  2  0  0  0  0  0  0
  186.0410  177.2410  146.6470 C   0  0  0  0  0  2  0  0  0  0  0  0
  187.3040  176.5520  147.1510 C   0  0  0  0  0  2  0  0  0  0  0  0
  188.3800  176.5050  146.0780 C   0  0  0  0  0  2  0  0  0  0  0  0
  189.0200  175.1310  146.0260 C   0  0  0  0  0  2  0  0  0  0  0  0
  189.9060  174.9420  147.2440 C   0  0  0  0  0  2  0  0  0  0  0  0
  191.2760  175.3210  146.9300 N   0  0  0  0  0  0  0  0  0  0  0  0
  191.9480  174.6380  145.8280 C   0  0  0  0  0  2  0  0  0  0  0  0
  191.8870  176.4720  147.5370 C   0  0  0  0  0  0  0  0  0  0  0  0
  193.1920  176.8260  147.1850 O   0  0  0  0  0  0  0  0  0  0  0  0
  193.4640  174.7460  145.9660 C   0  0  0  0  0  2  0  0  0  0  0  0
  191.2760  177.1390  148.4140 O   0  0  0  0  0  0  0  0  0  0  0  0
  193.8480  176.2180  146.0740 C   0  0  0  0  0  2  0  0  0  0  0  0
  188.2700  177.6050  142.4310 C   0  0  0  0  0  2  0  0  0  0  0  0
  188.4240  173.9480  142.2430 N   0  0  0  0  0  0  0  0  0  0  0  0
  187.7280  175.1050  142.2050 C   0  0  0  0  0  3  0  0  0  0  0  0
  190.7500  173.2350  142.5320 C   0  0  0  0  0  1  0  0  0  0  0  0
  189.8600  175.5620  142.5280 C   0  0  0  0  0  0  0  0  0  0  0  0
  188.6180  176.1540  142.3850 C   0  0  0  0  0  0  0  0  0  0  0  0
  189.7010  174.2340  142.4380 N   0  0  0  0  0  0  0  0  0  0  0  0
  191.1010  176.1790  142.7270 O   0  0  0  0  0  0  0  0  0  0  0  0
  191.2530  177.5800  142.9000 C   0  0  0  0  0  1  0  0  0  0  0  0
  2  3  1  0  0  0  0
  3  1  2  0  0  0  0
  3  6  1  0  0  0  0
  4  1  1  0  0  0  0
  5 26  1  0  0  0  0
  5  6  2  0  0  0  0
  6 12  1  0  0  0  0
  7  2  1  0  0  0  0
  7  4  2  0  0  0  0
  8  2  1  0  0  0  0
  8  5  1  0  0  0  0
  9 11  2  0  0  0  0
 11  4  1  0  0  0  0
 11 10  1  0  0  0  0
 12 13  1  0  0  0  0
 13 14  1  0  0  0  0
 14 15  1  0  0  0  0
 16 15  1  0  0  0  0
 17 16  1  0  0  0  0
 17 18  1  0  0  0  0
 19 18  1  0  0  0  0
 19 21  1  0  0  0  0
 20 23  1  0  0  0  0
 20 19  1  0  0  0  0
 21 24  2  0  0  0  0
 22 21  1  0  0  0  0
 23 25  1  0  0  0  0
 25 22  1  0  0  0  0
 27 32  1  0  0  0  0
 28 27  2  0  0  0  0
 28 31  1  0  0  0  0
 30 33  1  0  0  0  0
 31 26  1  0  0  0  0
 31 30  2  0  0  0  0
 32 30  1  0  0  0  0
 32 29  1  0  0  0  0
 33 34  1  0  0  0  0
M  END
>  <MODEL>
2

>  <REMARK>
 VINA RESULT:      -6.1      3.188      5.857
  Name = 
  12 active torsions:
  status: ('A' for Active; 'I' for Inactive)
    1  A    between atoms: N_1  and  C_14
    2  A    between atoms: O_7  and  C_25
    3  A    between atoms: C_9  and  C_12
    4  A    between atoms: C_10  and  N_13
    5  A    between atoms: C_10  and  C_22
    6  A    between atoms: N_13  and  C_30
    7  A    between atoms: C_14  and  C_15
    8  A    between atoms: C_15  and  C_29
    9  A    between atoms: C_20  and  C_21
   10  A    between atoms: C_20  and  C_26
   11  A    between atoms: C_22  and  C_33
   12  A    between atoms: C_29  and  C_33
                            x       y       z     vdW  Elec       q    Type
                         _______ _______ _______ _____ _____    ______ ____

>  <TORSDO>
F 12

$$$$
=
 OpenBabel11042418413D

 34 37  0  0  0  0  0  0  0  0999 V2000
  189.5560  176.4360  143.3140 C   0  0  0  0  0  3  0  0  0  0  0  0
  190.6820  174.6840  142.5290 N   0  0  0  0  0  0  0  0  0  0  0  0
  190.7010  175.6710  143.4100 C   0  0  0  0  0  0  0  0  0  0  0  0
  188.8490  175.8020  142.2780 C   0  0  0  0  0  0  0  0  0  0  0  0
  192.7370  174.6770  143.9180 C   0  0  0  0  0  0  0  0  0  0  0  0
  191.8440  175.7190  144.2300 C   0  0  0  0  0  0  0  0  0  0  0  0
  189.5660  174.7050  141.7970 C   0  0  0  0  0  3  0  0  0  0  0  0
  192.0530  173.7700  142.6610 S   0  0  0  0  0  0  0  0  0  0  0  0
  187.4480  176.8530  140.6850 O   0  0  0  0  0  0  0  0  0  0  0  0
  186.3860  175.9480  142.5000 O   0  0  0  0  0  1  0  0  0  0  0  0
  187.5380  176.2290  141.7740 C   0  0  0  0  0  0  0  0  0  0  0  0
  192.0900  176.6790  145.2620 N   0  0  0  0  0  2  0  0  0  0  0  0
  192.1010  176.3450  146.6780 C   0  0  0  0  0  2  0  0  0  0  0  0
  190.7500  176.6620  147.2990 C   0  0  0  0  0  2  0  0  0  0  0  0
  189.8440  175.4360  147.3130 C   0  0  0  0  0  2  0  0  0  0  0  0
  188.4550  175.7620  146.7880 C   0  0  0  0  0  2  0  0  0  0  0  0
  188.3370  177.2410  146.4770 C   0  0  0  0  0  2  0  0  0  0  0  0
  187.1030  177.8030  147.1590 C   0  0  0  0  0  2  0  0  0  0  0  0
  186.1680  178.3090  146.1640 N   0  0  0  0  0  0  0  0  0  0  0  0
  186.6180  178.4070  144.7790 C   0  0  0  0  0  2  0  0  0  0  0  0
  184.7810  178.5110  146.4820 C   0  0  0  0  0  0  0  0  0  0  0  0
  183.9060  178.9650  145.4910 O   0  0  0  0  0  0  0  0  0  0  0  0
  185.7670  179.4080  144.0010 C   0  0  0  0  0  2  0  0  0  0  0  0
  184.3540  178.3250  147.6530 O   0  0  0  0  0  0  0  0  0  0  0  0
  184.3010  179.0110  144.1220 C   0  0  0  0  0  2  0  0  0  0  0  0
  194.0410  174.3820  144.5830 C   0  0  0  0  0  2  0  0  0  0  0  0
  196.6430  176.6000  143.2640 N   0  0  0  0  0  0  0  0  0  0  0  0
  195.6340  176.3430  144.1250 C   0  0  0  0  0  3  0  0  0  0  0  0
  197.8190  175.4510  141.4480 C   0  0  0  0  0  1  0  0  0  0  0  0
  195.9400  174.5830  142.8330 C   0  0  0  0  0  0  0  0  0  0  0  0
  195.1650  175.0620  143.8730 C   0  0  0  0  0  0  0  0  0  0  0  0
  196.8170  175.5390  142.4940 N   0  0  0  0  0  0  0  0  0  0  0  0
  195.8790  173.3330  142.2040 O   0  0  0  0  0  0  0  0  0  0  0  0
  196.6720  172.2250  142.6020 C   0  0  0  0  0  1  0  0  0  0  0  0
  1  3  2  0  0  0  0
  2  8  1  0  0  0  0
  2  3  1  0  0  0  0
  3  6  1  0  0  0  0
  4  1  1  0  0  0  0
  5  6  2  0  0  0  0
  5 26  1  0  0  0  0
  6 12  1  0  0  0  0
  7  4  2  0  0  0  0
  7  2  1  0  0  0  0
  8  5  1  0  0  0  0
  9 11  2  0  0  0  0
 11  4  1  0  0  0  0
 11 10  1  0  0  0  0
 12 13  1  0  0  0  0
 13 14  1  0  0  0  0
 14 15  1  0  0  0  0
 16 15  1  0  0  0  0
 17 16  1  0  0  0  0
 17 18  1  0  0  0  0
 19 21  1  0  0  0  0
 19 18  1  0  0  0  0
 20 19  1  0  0  0  0
 21 24  2  0  0  0  0
 22 21  1  0  0  0  0
 23 25  1  0  0  0  0
 23 20  1  0  0  0  0
 25 22  1  0  0  0  0
 27 28  2  0  0  0  0
 29 32  1  0  0  0  0
 30 31  2  0  0  0  0
 31 28  1  0  0  0  0
 31 26  1  0  0  0  0
 32 30  1  0  0  0  0
 32 27  1  0  0  0  0
 33 34  1  0  0  0  0
 33 30  1  0  0  0  0
M  END
>  <MODEL>
3

>  <REMARK>
 VINA RESULT:      -6.0      1.782      2.393
  Name = 
  12 active torsions:
  status: ('A' for Active; 'I' for Inactive)
    1  A    between atoms: N_1  and  C_14
    2  A    between atoms: O_7  and  C_25
    3  A    between atoms: C_9  and  C_12
    4  A    between atoms: C_10  and  N_13
    5  A    between atoms: C_10  and  C_22
    6  A    between atoms: N_13  and  C_30
    7  A    between atoms: C_14  and  C_15
    8  A    between atoms: C_15  and  C_29
    9  A    between atoms: C_20  and  C_21
   10  A    between atoms: C_20  and  C_26
   11  A    between atoms: C_22  and  C_33
   12  A    between atoms: C_29  and  C_33
                            x       y       z     vdW  Elec       q    Type
                         _______ _______ _______ _____ _____    ______ ____

>  <TORSDO>
F 12

$$$$
=
 OpenBabel11042418413D

 34 37  0  0  0  0  0  0  0  0999 V2000
  186.7680  176.8800  146.1250 C   0  0  0  0  0  3  0  0  0  0  0  0
  187.5360  177.7170  144.2110 N   0  0  0  0  0  0  0  0  0  0  0  0
  187.7270  176.7900  145.1360 C   0  0  0  0  0  0  0  0  0  0  0  0
  185.9820  177.9620  145.6940 C   0  0  0  0  0  0  0  0  0  0  0  0
  189.4960  176.2780  143.7220 C   0  0  0  0  0  0  0  0  0  0  0  0
  188.8270  175.9410  144.9130 C   0  0  0  0  0  0  0  0  0  0  0  0
  186.4740  178.4760  144.4920 C   0  0  0  0  0  3  0  0  0  0  0  0
  188.6840  177.5930  143.0280 S   0  0  0  0  0  0  0  0  0  0  0  0
  184.8120  178.5740  147.6590 O   0  0  0  0  0  1  0  0  0  0  0  0
  183.6760  178.8630  145.6930 O   0  0  0  0  0  0  0  0  0  0  0  0
  184.8050  178.4780  146.4040 C   0  0  0  0  0  0  0  0  0  0  0  0
  189.2300  174.8580  145.7580 N   0  0  0  0  0  2  0  0  0  0  0  0
  189.5650  175.0230  147.1630 C   0  0  0  0  0  2  0  0  0  0  0  0
  190.5210  176.1920  147.3380 C   0  0  0  0  0  2  0  0  0  0  0  0
  191.9680  175.7180  147.4210 C   0  0  0  0  0  2  0  0  0  0  0  0
  192.7350  176.0410  146.1480 C   0  0  0  0  0  2  0  0  0  0  0  0
  194.1940  176.3140  146.4620 C   0  0  0  0  0  2  0  0  0  0  0  0
  194.9720  176.4400  145.1640 C   0  0  0  0  0  2  0  0  0  0  0  0
  195.5140  175.1440  144.7790 N   0  0  0  0  0  0  0  0  0  0  0  0
  196.0800  174.2930  145.8210 C   0  0  0  0  0  2  0  0  0  0  0  0
  195.3150  174.6180  143.4560 C   0  0  0  0  0  0  0  0  0  0  0  0
  195.8200  173.3560  143.1320 O   0  0  0  0  0  0  0  0  0  0  0  0
  197.0450  173.2710  145.2240 C   0  0  0  0  0  2  0  0  0  0  0  0
  194.7300  175.3000  142.5720 O   0  0  0  0  0  0  0  0  0  0  0  0
  196.3210  172.4810  144.1410 C   0  0  0  0  0  2  0  0  0  0  0  0
  190.6870  175.5950  143.1360 C   0  0  0  0  0  2  0  0  0  0  0  0
  189.1650  172.6730  141.5280 N   0  0  0  0  0  0  0  0  0  0  0  0
  189.1480  173.9830  141.8590 C   0  0  0  0  0  3  0  0  0  0  0  0
  190.6440  170.7430  141.8270 C   0  0  0  0  0  1  0  0  0  0  0  0
  191.0040  173.0740  142.6290 C   0  0  0  0  0  0  0  0  0  0  0  0
  190.3090  174.2680  142.5640 C   0  0  0  0  0  0  0  0  0  0  0  0
  190.2820  172.1380  141.9950 N   0  0  0  0  0  0  0  0  0  0  0  0
  192.2440  172.8190  143.2260 O   0  0  0  0  0  0  0  0  0  0  0  0
  192.4050  172.6070  144.6200 C   0  0  0  0  0  1  0  0  0  0  0  0
  2  7  1  0  0  0  0
  2  3  1  0  0  0  0
  3  1  2  0  0  0  0
  4  1  1  0  0  0  0
  4 11  1  0  0  0  0
  5  6  2  0  0  0  0
  6  3  1  0  0  0  0
  6 12  1  0  0  0  0
  7  4  2  0  0  0  0
  8  5  1  0  0  0  0
  8  2  1  0  0  0  0
 10 11  2  0  0  0  0
 11  9  1  0  0  0  0
 12 13  1  0  0  0  0
 13 14  1  0  0  0  0
 14 15  1  0  0  0  0
 16 17  1  0  0  0  0
 16 15  1  0  0  0  0
 18 17  1  0  0  0  0
 19 18  1  0  0  0  0
 19 20  1  0  0  0  0
 21 19  1  0  0  0  0
 22 21  1  0  0  0  0
 22 25  1  0  0  0  0
 23 20  1  0  0  0  0
 24 21  2  0  0  0  0
 25 23  1  0  0  0  0
 26  5  1  0  0  0  0
 27 28  2  0  0  0  0
 27 32  1  0  0  0  0
 28 31  1  0  0  0  0
 29 32  1  0  0  0  0
 30 33  1  0  0  0  0
 31 30  2  0  0  0  0
 31 26  1  0  0  0  0
 32 30  1  0  0  0  0
 33 34  1  0  0  0  0
M  END
>  <MODEL>
4

>  <REMARK>
 VINA RESULT:      -6.0      2.407      6.622
  Name = 
  12 active torsions:
  status: ('A' for Active; 'I' for Inactive)
    1  A    between atoms: N_1  and  C_14
    2  A    between atoms: O_7  and  C_25
    3  A    between atoms: C_9  and  C_12
    4  A    between atoms: C_10  and  N_13
    5  A    between atoms: C_10  and  C_22
    6  A    between atoms: N_13  and  C_30
    7  A    between atoms: C_14  and  C_15
    8  A    between atoms: C_15  and  C_29
    9  A    between atoms: C_20  and  C_21
   10  A    between atoms: C_20  and  C_26
   11  A    between atoms: C_22  and  C_33
   12  A    between atoms: C_29  and  C_33
                            x       y       z     vdW  Elec       q    Type
                         _______ _______ _______ _____ _____    ______ ____

>  <TORSDO>
F 12

$$$$
=
 OpenBabel11042418413D

 34 37  0  0  0  0  0  0  0  0999 V2000
  189.8080  174.8890  143.1410 C   0  0  0  0  0  3  0  0  0  0  0  0
  191.3650  173.3500  143.5470 N   0  0  0  0  0  0  0  0  0  0  0  0
  190.9690  174.5830  143.8220 C   0  0  0  0  0  0  0  0  0  0  0  0
  189.5500  173.7070  142.4270 C   0  0  0  0  0  0  0  0  0  0  0  0
  192.8790  174.4990  145.1400 C   0  0  0  0  0  0  0  0  0  0  0  0
  191.7900  175.2870  144.7230 C   0  0  0  0  0  0  0  0  0  0  0  0
  190.5330  172.7500  142.6920 C   0  0  0  0  0  3  0  0  0  0  0  0
  192.7500  172.9930  144.3760 S   0  0  0  0  0  0  0  0  0  0  0  0
  187.5200  172.6540  141.8150 O   0  0  0  0  0  1  0  0  0  0  0  0
  188.2950  174.2420  140.3600 O   0  0  0  0  0  0  0  0  0  0  0  0
  188.4060  173.5020  141.5300 C   0  0  0  0  0  0  0  0  0  0  0  0
  191.5670  176.6230  145.1850 N   0  0  0  0  0  2  0  0  0  0  0  0
  190.5950  176.9620  146.2120 C   0  0  0  0  0  2  0  0  0  0  0  0
  189.3070  177.4510  145.5690 C   0  0  0  0  0  2  0  0  0  0  0  0
  188.1220  176.5760  145.9620 C   0  0  0  0  0  2  0  0  0  0  0  0
  186.9100  177.4130  146.3380 C   0  0  0  0  0  2  0  0  0  0  0  0
  186.4280  178.2180  145.1460 C   0  0  0  0  0  2  0  0  0  0  0  0
  185.4480  177.3850  144.3400 C   0  0  0  0  0  2  0  0  0  0  0  0
  185.7220  177.5280  142.9170 N   0  0  0  0  0  0  0  0  0  0  0  0
  186.9890  177.0170  142.4010 C   0  0  0  0  0  2  0  0  0  0  0  0
  184.7020  177.9650  142.0030 C   0  0  0  0  0  0  0  0  0  0  0  0
  184.9920  178.0570  140.6390 O   0  0  0  0  0  0  0  0  0  0  0  0
  187.3490  177.6900  141.0790 C   0  0  0  0  0  2  0  0  0  0  0  0
  183.5650  178.3070  142.4230 O   0  0  0  0  0  0  0  0  0  0  0  0
  186.1940  177.5100  140.1010 C   0  0  0  0  0  2  0  0  0  0  0  0
  193.9480  174.8850  146.1090 C   0  0  0  0  0  2  0  0  0  0  0  0
  197.4010  174.1630  145.1140 N   0  0  0  0  0  0  0  0  0  0  0  0
  196.3460  173.9820  145.9380 C   0  0  0  0  0  3  0  0  0  0  0  0
  197.9360  175.4610  143.1060 C   0  0  0  0  0  1  0  0  0  0  0  0
  195.7840  175.4140  144.3600 C   0  0  0  0  0  0  0  0  0  0  0  0
  195.2980  174.7680  145.4820 C   0  0  0  0  0  0  0  0  0  0  0  0
  197.0530  175.0250  144.1720 N   0  0  0  0  0  0  0  0  0  0  0  0
  195.1220  176.3190  143.5200 O   0  0  0  0  0  0  0  0  0  0  0  0
  194.5340  175.9420  142.2840 C   0  0  0  0  0  1  0  0  0  0  0  0
  1  3  2  0  0  0  0
  2  3  1  0  0  0  0
  2  8  1  0  0  0  0
  3  6  1  0  0  0  0
  4  7  2  0  0  0  0
  4  1  1  0  0  0  0
  5 26  1  0  0  0  0
  6  5  2  0  0  0  0
  6 12  1  0  0  0  0
  7  2  1  0  0  0  0
  8  5  1  0  0  0  0
 10 11  2  0  0  0  0
 11  9  1  0  0  0  0
 11  4  1  0  0  0  0
 12 13  1  0  0  0  0
 14 15  1  0  0  0  0
 14 13  1  0  0  0  0
 15 16  1  0  0  0  0
 17 16  1  0  0  0  0
 18 17  1  0  0  0  0
 19 18  1  0  0  0  0
 20 19  1  0  0  0  0
 21 24  2  0  0  0  0
 21 19  1  0  0  0  0
 22 21  1  0  0  0  0
 23 20  1  0  0  0  0
 25 22  1  0  0  0  0
 25 23  1  0  0  0  0
 27 28  2  0  0  0  0
 29 32  1  0  0  0  0
 30 31  2  0  0  0  0
 31 28  1  0  0  0  0
 31 26  1  0  0  0  0
 32 30  1  0  0  0  0
 32 27  1  0  0  0  0
 33 30  1  0  0  0  0
 34 33  1  0  0  0  0
M  END
>  <MODEL>
5

>  <REMARK>
 VINA RESULT:      -6.0      2.444      3.972
  Name = 
  12 active torsions:
  status: ('A' for Active; 'I' for Inactive)
    1  A    between atoms: N_1  and  C_14
    2  A    between atoms: O_7  and  C_25
    3  A    between atoms: C_9  and  C_12
    4  A    between atoms: C_10  and  N_13
    5  A    between atoms: C_10  and  C_22
    6  A    between atoms: N_13  and  C_30
    7  A    between atoms: C_14  and  C_15
    8  A    between atoms: C_15  and  C_29
    9  A    between atoms: C_20  and  C_21
   10  A    between atoms: C_20  and  C_26
   11  A    between atoms: C_22  and  C_33
   12  A    between atoms: C_29  and  C_33
                            x       y       z     vdW  Elec       q    Type
                         _______ _______ _______ _____ _____    ______ ____

>  <TORSDO>
F 12

$$$$
=
 OpenBabel11042418413D

 34 37  0  0  0  0  0  0  0  0999 V2000
  189.6320  173.4120  142.1610 C   0  0  0  0  0  3  0  0  0  0  0  0
  188.6540  175.3360  141.6160 N   0  0  0  0  0  0  0  0  0  0  0  0
  189.2470  174.6660  142.5910 C   0  0  0  0  0  0  0  0  0  0  0  0
  189.2050  173.4020  140.8220 C   0  0  0  0  0  0  0  0  0  0  0  0
  188.7920  176.6440  143.7190 C   0  0  0  0  0  0  0  0  0  0  0  0
  189.3550  175.3580  143.8120 C   0  0  0  0  0  0  0  0  0  0  0  0
  188.5960  174.6150  140.4940 C   0  0  0  0  0  3  0  0  0  0  0  0
  188.2070  176.8390  142.1410 S   0  0  0  0  0  0  0  0  0  0  0  0
  190.1940  171.3550  140.1610 O   0  0  0  0  0  1  0  0  0  0  0  0
  188.6450  172.2240  138.7170 O   0  0  0  0  0  0  0  0  0  0  0  0
  189.3790  172.2770  139.8960 C   0  0  0  0  0  0  0  0  0  0  0  0
  189.9650  174.8540  145.0050 N   0  0  0  0  0  2  0  0  0  0  0  0
  191.3860  174.5680  145.1170 C   0  0  0  0  0  2  0  0  0  0  0  0
  191.8800  174.9170  146.5130 C   0  0  0  0  0  2  0  0  0  0  0  0
  192.2370  176.3950  146.6220 C   0  0  0  0  0  2  0  0  0  0  0  0
  193.7390  176.6000  146.7320 C   0  0  0  0  0  2  0  0  0  0  0  0
  194.3230  176.9900  145.3870 C   0  0  0  0  0  2  0  0  0  0  0  0
  195.2700  175.9020  144.9160 C   0  0  0  0  0  2  0  0  0  0  0  0
  195.2890  175.8510  143.4610 N   0  0  0  0  0  0  0  0  0  0  0  0
  194.1470  175.2520  142.7750 C   0  0  0  0  0  2  0  0  0  0  0  0
  196.2910  176.5500  142.7040 C   0  0  0  0  0  0  0  0  0  0  0  0
  196.2560  176.5060  141.3080 O   0  0  0  0  0  0  0  0  0  0  0  0
  194.5340  174.7990  141.3690 C   0  0  0  0  0  2  0  0  0  0  0  0
  197.2250  177.1650  143.2850 O   0  0  0  0  0  0  0  0  0  0  0  0
  195.1260  175.9830  140.6130 C   0  0  0  0  0  2  0  0  0  0  0  0
  188.7400  177.6820  144.7910 C   0  0  0  0  0  2  0  0  0  0  0  0
  185.9830  176.8750  147.0680 N   0  0  0  0  0  0  0  0  0  0  0  0
  187.2470  176.6880  146.6290 C   0  0  0  0  0  3  0  0  0  0  0  0
  184.0650  178.3000  146.5270 C   0  0  0  0  0  1  0  0  0  0  0  0
  186.2990  178.2740  145.4260 C   0  0  0  0  0  0  0  0  0  0  0  0
  187.4770  177.5660  145.5800 C   0  0  0  0  0  0  0  0  0  0  0  0
  185.4240  177.8280  146.3400 N   0  0  0  0  0  0  0  0  0  0  0  0
  186.0060  179.2900  144.5090 O   0  0  0  0  0  0  0  0  0  0  0  0
  185.4740  179.0390  143.2170 C   0  0  0  0  0  1  0  0  0  0  0  0
  1  3  2  0  0  0  0
  2  8  1  0  0  0  0
  2  3  1  0  0  0  0
  3  6  1  0  0  0  0
  4  1  1  0  0  0  0
  5  6  2  0  0  0  0
  5 26  1  0  0  0  0
  6 12  1  0  0  0  0
  7  4  2  0  0  0  0
  7  2  1  0  0  0  0
  8  5  1  0  0  0  0
 10 11  2  0  0  0  0
 11  9  1  0  0  0  0
 11  4  1  0  0  0  0
 12 13  1  0  0  0  0
 13 14  1  0  0  0  0
 14 15  1  0  0  0  0
 15 16  1  0  0  0  0
 17 16  1  0  0  0  0
 18 17  1  0  0  0  0
 19 18  1  0  0  0  0
 20 19  1  0  0  0  0
 21 24  2  0  0  0  0
 21 19  1  0  0  0  0
 22 21  1  0  0  0  0
 23 20  1  0  0  0  0
 25 22  1  0  0  0  0
 25 23  1  0  0  0  0
 26 31  1  0  0  0  0
 28 27  2  0  0  0  0
 30 31  2  0  0  0  0
 30 32  1  0  0  0  0
 31 28  1  0  0  0  0
 32 29  1  0  0  0  0
 32 27  1  0  0  0  0
 33 30  1  0  0  0  0
 34 33  1  0  0  0  0
M  END
>  <MODEL>
6

>  <REMARK>
 VINA RESULT:      -5.9      2.708      7.812
  Name = 
  12 active torsions:
  status: ('A' for Active; 'I' for Inactive)
    1  A    between atoms: N_1  and  C_14
    2  A    between atoms: O_7  and  C_25
    3  A    between atoms: C_9  and  C_12
    4  A    between atoms: C_10  and  N_13
    5  A    between atoms: C_10  and  C_22
    6  A    between atoms: N_13  and  C_30
    7  A    between atoms: C_14  and  C_15
    8  A    between atoms: C_15  and  C_29
    9  A    between atoms: C_20  and  C_21
   10  A    between atoms: C_20  and  C_26
   11  A    between atoms: C_22  and  C_33
   12  A    between atoms: C_29  and  C_33
                            x       y       z     vdW  Elec       q    Type
                         _______ _______ _______ _____ _____    ______ ____

>  <TORSDO>
F 12

$$$$
=
 OpenBabel11042418413D

 34 37  0  0  0  0  0  0  0  0999 V2000
  189.8780  174.7620  142.0170 C   0  0  0  0  0  3  0  0  0  0  0  0
  187.6950  174.9900  142.3840 N   0  0  0  0  0  0  0  0  0  0  0  0
  188.8530  175.6290  142.3340 C   0  0  0  0  0  0  0  0  0  0  0  0
  189.2110  173.5320  141.8830 C   0  0  0  0  0  0  0  0  0  0  0  0
  187.4650  177.4110  142.8720 C   0  0  0  0  0  0  0  0  0  0  0  0
  188.7860  177.0090  142.6020 C   0  0  0  0  0  0  0  0  0  0  0  0
  187.8430  173.6910  142.1140 C   0  0  0  0  0  3  0  0  0  0  0  0
  186.4740  176.0420  142.7560 S   0  0  0  0  0  0  0  0  0  0  0  0
  190.3210  171.5200  142.4490 O   0  0  0  0  0  1  0  0  0  0  0  0
  189.9650  171.8650  140.2140 O   0  0  0  0  0  0  0  0  0  0  0  0
  189.8580  172.2600  141.5420 C   0  0  0  0  0  0  0  0  0  0  0  0
  189.8940  177.9150  142.5950 N   0  0  0  0  0  2  0  0  0  0  0  0
  191.0030  177.8290  143.5320 C   0  0  0  0  0  2  0  0  0  0  0  0
  190.4780  177.6780  144.9510 C   0  0  0  0  0  2  0  0  0  0  0  0
  191.3510  176.7340  145.7690 C   0  0  0  0  0  2  0  0  0  0  0  0
  190.9620  175.2810  145.5480 C   0  0  0  0  0  2  0  0  0  0  0  0
  192.1770  174.4560  145.1690 C   0  0  0  0  0  2  0  0  0  0  0  0
  193.3990  175.0040  145.8840 C   0  0  0  0  0  2  0  0  0  0  0  0
  194.4640  175.2670  144.9260 N   0  0  0  0  0  0  0  0  0  0  0  0
  194.7540  174.2510  143.9180 C   0  0  0  0  0  2  0  0  0  0  0  0
  195.0750  176.5640  144.8300 C   0  0  0  0  0  0  0  0  0  0  0  0
  196.0700  176.7890  143.8740 O   0  0  0  0  0  0  0  0  0  0  0  0
  196.1690  174.4190  143.3690 C   0  0  0  0  0  2  0  0  0  0  0  0
  194.7560  177.4880  145.6250 O   0  0  0  0  0  0  0  0  0  0  0  0
  196.3300  175.8400  142.8420 C   0  0  0  0  0  2  0  0  0  0  0  0
  186.9890  178.7940  143.1730 C   0  0  0  0  0  2  0  0  0  0  0  0
  184.0450  179.0280  145.3440 N   0  0  0  0  0  0  0  0  0  0  0  0
  184.6410  179.1720  144.1390 C   0  0  0  0  0  3  0  0  0  0  0  0
  184.6590  178.2840  147.5960 C   0  0  0  0  0  1  0  0  0  0  0  0
  186.1180  178.3980  145.5800 C   0  0  0  0  0  0  0  0  0  0  0  0
  185.9650  178.7780  144.2590 C   0  0  0  0  0  0  0  0  0  0  0  0
  184.9410  178.5640  146.2000 N   0  0  0  0  0  0  0  0  0  0  0  0
  187.2650  177.9110  146.2200 O   0  0  0  0  0  0  0  0  0  0  0  0
  187.4860  176.5320  146.4710 C   0  0  0  0  0  1  0  0  0  0  0  0
  1  3  2  0  0  0  0
  2  8  1  0  0  0  0
  3  2  1  0  0  0  0
  3  6  1  0  0  0  0
  4  1  1  0  0  0  0
  4  7  2  0  0  0  0
  5 26  1  0  0  0  0
  6  5  2  0  0  0  0
  7  2  1  0  0  0  0
  8  5  1  0  0  0  0
 10 11  2  0  0  0  0
 11  4  1  0  0  0  0
 11  9  1  0  0  0  0
 12  6  1  0  0  0  0
 12 13  1  0  0  0  0
 13 14  1  0  0  0  0
 14 15  1  0  0  0  0
 16 15  1  0  0  0  0
 17 16  1  0  0  0  0
 17 18  1  0  0  0  0
 19 18  1  0  0  0  0
 20 19  1  0  0  0  0
 21 19  1  0  0  0  0
 21 24  2  0  0  0  0
 22 21  1  0  0  0  0
 23 20  1  0  0  0  0
 25 23  1  0  0  0  0
 25 22  1  0  0  0  0
 26 31  1  0  0  0  0
 27 32  1  0  0  0  0
 28 31  1  0  0  0  0
 28 27  2  0  0  0  0
 30 32  1  0  0  0  0
 30 33  1  0  0  0  0
 31 30  2  0  0  0  0
 32 29  1  0  0  0  0
 33 34  1  0  0  0  0
M  END
>  <MODEL>
7

>  <REMARK>
 VINA RESULT:      -5.9      2.593      7.798
  Name = 
  12 active torsions:
  status: ('A' for Active; 'I' for Inactive)
    1  A    between atoms: N_1  and  C_14
    2  A    between atoms: O_7  and  C_25
    3  A    between atoms: C_9  and  C_12
    4  A    between atoms: C_10  and  N_13
    5  A    between atoms: C_10  and  C_22
    6  A    between atoms: N_13  and  C_30
    7  A    between atoms: C_14  and  C_15
    8  A    between atoms: C_15  and  C_29
    9  A    between atoms: C_20  and  C_21
   10  A    between atoms: C_20  and  C_26
   11  A    between atoms: C_22  and  C_33
   12  A    between atoms: C_29  and  C_33
                            x       y       z     vdW  Elec       q    Type
                         _______ _______ _______ _____ _____    ______ ____

>  <TORSDO>
F 12

$$$$
=
 OpenBabel11042418413D

 34 37  0  0  0  0  0  0  0  0999 V2000
  190.0620  174.2260  143.9710 C   0  0  0  0  0  3  0  0  0  0  0  0
  191.6780  175.1060  142.7180 N   0  0  0  0  0  0  0  0  0  0  0  0
  191.3390  174.7500  143.9460 C   0  0  0  0  0  0  0  0  0  0  0  0
  189.6700  174.3070  142.6240 C   0  0  0  0  0  0  0  0  0  0  0  0
  193.4830  175.5400  144.3630 C   0  0  0  0  0  0  0  0  0  0  0  0
  192.3250  174.9720  144.9270 C   0  0  0  0  0  0  0  0  0  0  0  0
  190.6940  174.8580  141.8500 C   0  0  0  0  0  3  0  0  0  0  0  0
  193.2120  175.7220  142.7000 S   0  0  0  0  0  0  0  0  0  0  0  0
  187.3210  174.4960  142.4020 O   0  0  0  0  0  1  0  0  0  0  0  0
  188.2920  172.7580  141.2710 O   0  0  0  0  0  0  0  0  0  0  0  0
  188.3710  173.8700  142.1010 C   0  0  0  0  0  0  0  0  0  0  0  0
  192.2030  174.6600  146.3180 N   0  0  0  0  0  2  0  0  0  0  0  0
  191.1240  175.1560  147.1570 C   0  0  0  0  0  2  0  0  0  0  0  0
  191.1770  176.6740  147.2310 C   0  0  0  0  0  2  0  0  0  0  0  0
  189.9100  177.3020  146.6600 C   0  0  0  0  0  2  0  0  0  0  0  0
  190.1000  177.7250  145.2120 C   0  0  0  0  0  2  0  0  0  0  0  0
  188.8020  177.5800  144.4400 C   0  0  0  0  0  2  0  0  0  0  0  0
  187.7870  176.8460  145.2980 C   0  0  0  0  0  2  0  0  0  0  0  0
  186.5620  177.6270  145.4020 N   0  0  0  0  0  0  0  0  0  0  0  0
  186.0530  178.2780  144.1980 C   0  0  0  0  0  2  0  0  0  0  0  0
  185.7570  177.5940  146.5920 C   0  0  0  0  0  0  0  0  0  0  0  0
  184.5700  178.3290  146.6420 O   0  0  0  0  0  0  0  0  0  0  0  0
  185.1280  179.4380  144.5580 C   0  0  0  0  0  2  0  0  0  0  0  0
  186.1320  176.9450  147.6050 O   0  0  0  0  0  0  0  0  0  0  0  0
  184.0190  178.9220  145.4680 C   0  0  0  0  0  2  0  0  0  0  0  0
  194.7480  175.8930  145.0730 C   0  0  0  0  0  2  0  0  0  0  0  0
  197.7050  174.1670  143.7650 N   0  0  0  0  0  0  0  0  0  0  0  0
  196.9490  175.2780  143.9020 C   0  0  0  0  0  3  0  0  0  0  0  0
  197.6550  171.8330  144.5080 C   0  0  0  0  0  1  0  0  0  0  0  0
  195.9960  173.6240  145.0040 C   0  0  0  0  0  0  0  0  0  0  0  0
  195.8500  174.9620  144.6870 C   0  0  0  0  0  0  0  0  0  0  0  0
  197.1240  173.1810  144.4300 N   0  0  0  0  0  0  0  0  0  0  0  0
  195.1590  172.8160  145.7850 O   0  0  0  0  0  0  0  0  0  0  0  0
  194.3110  171.8190  145.2350 C   0  0  0  0  0  1  0  0  0  0  0  0
  2  3  1  0  0  0  0
  3  1  2  0  0  0  0
  3  6  1  0  0  0  0
  4  1  1  0  0  0  0
  5  6  2  0  0  0  0
  5 26  1  0  0  0  0
  6 12  1  0  0  0  0
  7  4  2  0  0  0  0
  7  2  1  0  0  0  0
  8  2  1  0  0  0  0
  8  5  1  0  0  0  0
 10 11  2  0  0  0  0
 11  9  1  0  0  0  0
 11  4  1  0  0  0  0
 12 13  1  0  0  0  0
 13 14  1  0  0  0  0
 15 14  1  0  0  0  0
 16 15  1  0  0  0  0
 17 16  1  0  0  0  0
 17 18  1  0  0  0  0
 18 19  1  0  0  0  0
 19 21  1  0  0  0  0
 20 23  1  0  0  0  0
 20 19  1  0  0  0  0
 21 22  1  0  0  0  0
 21 24  2  0  0  0  0
 23 25  1  0  0  0  0
 25 22  1  0  0  0  0
 27 28  2  0  0  0  0
 27 32  1  0  0  0  0
 28 31  1  0  0  0  0
 30 33  1  0  0  0  0
 31 30  2  0  0  0  0
 31 26  1  0  0  0  0
 32 29  1  0  0  0  0
 32 30  1  0  0  0  0
 34 33  1  0  0  0  0
M  END
>  <MODEL>
8

>  <REMARK>
 VINA RESULT:      -5.8      2.081      2.704
  Name = 
  12 active torsions:
  status: ('A' for Active; 'I' for Inactive)
    1  A    between atoms: N_1  and  C_14
    2  A    between atoms: O_7  and  C_25
    3  A    between atoms: C_9  and  C_12
    4  A    between atoms: C_10  and  N_13
    5  A    between atoms: C_10  and  C_22
    6  A    between atoms: N_13  and  C_30
    7  A    between atoms: C_14  and  C_15
    8  A    between atoms: C_15  and  C_29
    9  A    between atoms: C_20  and  C_21
   10  A    between atoms: C_20  and  C_26
   11  A    between atoms: C_22  and  C_33
   12  A    between atoms: C_29  and  C_33
                            x       y       z     vdW  Elec       q    Type
                         _______ _______ _______ _____ _____    ______ ____

>  <TORSDO>
F 12

$$$$
=
 OpenBabel11042418413D

 34 37  0  0  0  0  0  0  0  0999 V2000
  189.2030  175.3290  145.8890 C   0  0  0  0  0  3  0  0  0  0  0  0
  190.4640  176.6630  144.6300 N   0  0  0  0  0  0  0  0  0  0  0  0
  190.2870  175.4170  145.0380 C   0  0  0  0  0  0  0  0  0  0  0  0
  188.7510  176.6580  145.9490 C   0  0  0  0  0  0  0  0  0  0  0  0
  192.1390  175.1040  143.6740 C   0  0  0  0  0  0  0  0  0  0  0  0
  191.2090  174.4830  144.5270 C   0  0  0  0  0  0  0  0  0  0  0  0
  189.5490  177.4820  145.1530 C   0  0  0  0  0  3  0  0  0  0  0  0
  191.7580  176.7530  143.6040 S   0  0  0  0  0  0  0  0  0  0  0  0
  186.4990  176.5050  146.6640 O   0  0  0  0  0  0  0  0  0  0  0  0
  187.7110  178.2300  147.5550 O   0  0  0  0  0  1  0  0  0  0  0  0
  187.5970  177.1160  146.7330 C   0  0  0  0  0  0  0  0  0  0  0  0
  191.2170  173.0800  144.8080 N   0  0  0  0  0  2  0  0  0  0  0  0
  190.8360  172.0680  143.8350 C   0  0  0  0  0  2  0  0  0  0  0  0
  189.3230  171.9160  143.8070 C   0  0  0  0  0  2  0  0  0  0  0  0
  188.7720  172.1060  142.3980 C   0  0  0  0  0  2  0  0  0  0  0  0
  189.0970  173.4870  141.8520 C   0  0  0  0  0  2  0  0  0  0  0  0
  187.9450  174.4420  142.1000 C   0  0  0  0  0  2  0  0  0  0  0  0
  188.3750  175.8520  141.7390 C   0  0  0  0  0  2  0  0  0  0  0  0
  187.4220  176.8170  142.2710 N   0  0  0  0  0  0  0  0  0  0  0  0
  186.3590  176.3300  143.1460 C   0  0  0  0  0  2  0  0  0  0  0  0
  187.6310  178.2310  142.1190 C   0  0  0  0  0  0  0  0  0  0  0  0
  186.7140  179.1270  142.6730 O   0  0  0  0  0  0  0  0  0  0  0  0
  185.1890  177.3090  143.1770 C   0  0  0  0  0  2  0  0  0  0  0  0
  188.6090  178.6700  141.4560 O   0  0  0  0  0  0  0  0  0  0  0  0
  185.7060  178.6850  143.5800 C   0  0  0  0  0  2  0  0  0  0  0  0
  193.2490  174.4450  142.9230 C   0  0  0  0  0  2  0  0  0  0  0  0
  196.5660  175.2520  144.2570 N   0  0  0  0  0  0  0  0  0  0  0  0
  195.5660  175.4570  143.3720 C   0  0  0  0  0  3  0  0  0  0  0  0
  197.0310  173.7900  146.1670 C   0  0  0  0  0  1  0  0  0  0  0  0
  194.9790  173.8440  144.7550 C   0  0  0  0  0  0  0  0  0  0  0  0
  194.5390  174.5720  143.6650 C   0  0  0  0  0  0  0  0  0  0  0  0
  196.2040  174.2820  145.0810 N   0  0  0  0  0  0  0  0  0  0  0  0
  194.3160  172.8240  145.4480 O   0  0  0  0  0  0  0  0  0  0  0  0
  194.3500  171.4630  145.0450 C   0  0  0  0  0  1  0  0  0  0  0  0
  1  4  1  0  0  0  0
  2  3  1  0  0  0  0
  2  7  1  0  0  0  0
  3  1  2  0  0  0  0
  4 11  1  0  0  0  0
  5  6  2  0  0  0  0
  6 12  1  0  0  0  0
  6  3  1  0  0  0  0
  7  4  2  0  0  0  0
  8  5  1  0  0  0  0
  8  2  1  0  0  0  0
  9 11  2  0  0  0  0
 11 10  1  0  0  0  0
 13 12  1  0  0  0  0
 14 13  1  0  0  0  0
 15 14  1  0  0  0  0
 16 17  1  0  0  0  0
 16 15  1  0  0  0  0
 18 17  1  0  0  0  0
 18 19  1  0  0  0  0
 19 20  1  0  0  0  0
 20 23  1  0  0  0  0
 21 19  1  0  0  0  0
 21 22  1  0  0  0  0
 22 25  1  0  0  0  0
 23 25  1  0  0  0  0
 24 21  2  0  0  0  0
 26 31  1  0  0  0  0
 26  5  1  0  0  0  0
 27 32  1  0  0  0  0
 28 31  1  0  0  0  0
 28 27  2  0  0  0  0
 30 32  1  0  0  0  0
 30 33  1  0  0  0  0
 31 30  2  0  0  0  0
 32 29  1  0  0  0  0
 34 33  1  0  0  0  0
M  END
>  <MODEL>
9

>  <REMARK>
 VINA RESULT:      -5.8      1.874      3.838
  Name = 
  12 active torsions:
  status: ('A' for Active; 'I' for Inactive)
    1  A    between atoms: N_1  and  C_14
    2  A    between atoms: O_7  and  C_25
    3  A    between atoms: C_9  and  C_12
    4  A    between atoms: C_10  and  N_13
    5  A    between atoms: C_10  and  C_22
    6  A    between atoms: N_13  and  C_30
    7  A    between atoms: C_14  and  C_15
    8  A    between atoms: C_15  and  C_29
    9  A    between atoms: C_20  and  C_21
   10  A    between atoms: C_20  and  C_26
   11  A    between atoms: C_22  and  C_33
   12  A    between atoms: C_29  and  C_33
                            x       y       z     vdW  Elec       q    Type
                         _______ _______ _______ _____ _____    ______ ____

>  <TORSDO>
F 12

$$$$
