=
 OpenBabel11042413453D

 30 34  0  0  1  0  0  0  0  0999 V2000
  193.2330  175.3540  145.0300 C   0  0  2  0  0  3  0  0  0  0  0  0
  193.4200  174.3700  143.8820 C   0  0  0  0  0  2  0  0  0  0  0  0
  191.0410  176.3050  145.6500 C   0  0  2  0  0  3  0  0  0  0  0  0
  188.8800  172.9410  140.4120 C   0  0  1  0  0  3  0  0  0  0  0  0
  188.6290  175.0970  142.9840 N   0  0  0  0  0  0  0  0  0  0  0  0
  186.4300  176.4160  144.1830 C   0  0  1  0  0  3  0  0  0  0  0  0
  190.1310  176.2950  146.8800 C   0  0  0  0  0  2  0  0  0  0  0  0
  190.2380  176.3110  144.3780 C   0  0  0  0  0  0  0  0  0  0  0  0
  188.9130  175.6030  144.3310 C   0  0  1  0  0  3  0  0  0  0  0  0
  189.8280  173.6710  141.3450 C   0  0  1  0  0  3  0  0  0  0  0  0
  191.9370  175.1470  145.7010 N   0  0  0  0  0  2  0  0  0  0  0  0
  189.0600  173.7300  142.6470 C   0  0  2  0  0  3  0  0  0  0  0  0
  186.5530  176.5220  142.6740 C   0  0  2  0  0  3  0  0  0  0  0  0
  187.7890  176.4800  144.8740 C   0  0  0  0  0  0  0  0  0  0  0  0
  187.6100  172.8640  141.0060 O   0  0  0  0  0  0  0  0  0  0  0  0
  187.7830  175.8700  142.1170 C   0  0  0  0  0  0  0  0  0  0  0  0
  185.7940  178.6510  143.4860 N   0  0  0  0  0  2  0  0  0  0  0  0
  190.6060  176.9920  143.4360 O   0  0  0  0  0  0  0  0  0  0  0  0
  192.2860  174.4620  142.8790 C   0  0  0  0  0  2  0  0  0  0  0  0
  192.1580  173.1680  142.1570 C   0  0  0  0  0  3  0  0  0  0  0  0
  189.1610  177.4690  146.8280 C   0  0  0  0  0  2  0  0  0  0  0  0
  187.8570  172.8490  142.3860 C   0  0  0  0  0  2  0  0  0  0  0  0
  191.0620  172.8210  141.4780 C   0  0  0  0  0  3  0  0  0  0  0  0
  186.4990  178.0050  142.3820 C   0  0  0  0  0  2  0  0  0  0  0  0
  193.5760  176.7910  144.6260 C   0  0  0  0  0  1  0  0  0  0  0  0
  185.5620  177.6260  144.5050 C   0  0  0  0  0  2  0  0  0  0  0  0
  188.0420  175.9670  140.8880 O   0  0  0  0  0  0  0  0  0  0  0  0
  187.9120  177.1930  146.0220 C   0  0  0  0  0  3  0  0  0  0  0  0
  188.7250  174.1660  138.0430 C   0  0  0  0  0  3  0  0  0  0  0  0
  188.7970  173.6220  139.1150 C   0  0  0  0  0  0  0  0  0  0  0  0
  1 25  1  6  0  0  0
  1 11  1  0  0  0  0
  2  1  1  0  0  0  0
  3 11  1  0  0  0  0
  3  7  1  1  0  0  0
  4 30  1  6  0  0  0
  4 15  1  0  0  0  0
  4 10  1  0  0  0  0
  5  9  1  0  0  0  0
  6 26  1  1  0  0  0
  6 14  1  0  0  0  0
  8  3  1  0  0  0  0
  9  8  1  6  0  0  0
  9 14  1  0  0  0  0
 10 23  1  1  0  0  0
 10 12  1  0  0  0  0
 12 22  1  6  0  0  0
 12  5  1  0  0  0  0
 13 24  1  1  0  0  0
 13  6  1  0  0  0  0
 14 28  2  0  0  0  0
 15 22  1  0  0  0  0
 16 13  1  0  0  0  0
 16  5  1  0  0  0  0
 17 26  1  0  0  0  0
 18  8  2  0  0  0  0
 19  2  1  0  0  0  0
 20 19  1  0  0  0  0
 21  7  1  0  0  0  0
 23 20  2  0  0  0  0
 24 17  1  0  0  0  0
 27 16  2  0  0  0  0
 28 21  1  0  0  0  0
 29 30  3  0  0  0  0
M  END
>  <MODEL>
1

>  <REMARK>
 VINA RESULT:      -7.7      0.000      0.000
  Name = 
  1 active torsions:
  status: ('A' for Active; 'I' for Inactive)
    1  A    between atoms: C_4  and  C_30
                            x       y       z     vdW  Elec       q    Type
                         _______ _______ _______ _____ _____    ______ ____

>  <TORSDO>
F 1

$$$$
=
 OpenBabel11042413453D

 30 34  0  0  1  0  0  0  0  0999 V2000
  194.2100  175.4650  146.2150 C   0  0  2  0  0  3  0  0  0  0  0  0
  194.5210  174.3620  145.2130 C   0  0  0  0  0  2  0  0  0  0  0  0
  191.9480  176.4000  146.5340 C   0  0  2  0  0  3  0  0  0  0  0  0
  190.3370  172.3700  141.5750 C   0  0  1  0  0  3  0  0  0  0  0  0
  189.8080  174.8000  143.8420 N   0  0  0  0  0  0  0  0  0  0  0  0
  187.4790  176.1680  144.6900 C   0  0  1  0  0  3  0  0  0  0  0  0
  190.9360  176.5000  147.6770 C   0  0  0  0  0  2  0  0  0  0  0  0
  191.2580  176.2280  145.2100 C   0  0  0  0  0  0  0  0  0  0  0  0
  189.9610  175.4710  145.1380 C   0  0  1  0  0  3  0  0  0  0  0  0
  191.1820  173.2390  142.4900 C   0  0  1  0  0  3  0  0  0  0  0  0
  192.8660  175.2900  146.7970 N   0  0  0  0  0  2  0  0  0  0  0  0
  190.3030  173.4210  143.7080 C   0  0  2  0  0  3  0  0  0  0  0  0
  187.7280  176.1020  143.1940 C   0  0  2  0  0  3  0  0  0  0  0  0
  188.7710  176.3630  145.4780 C   0  0  0  0  0  0  0  0  0  0  0  0
  189.0240  172.3160  142.0680 O   0  0  0  0  0  0  0  0  0  0  0  0
  189.0190  175.4360  142.8230 C   0  0  0  0  0  0  0  0  0  0  0  0
  186.8450  178.2810  143.6810 N   0  0  0  0  0  2  0  0  0  0  0  0
  191.6860  176.8070  144.2260 O   0  0  0  0  0  0  0  0  0  0  0  0
  193.4760  174.2940  144.1150 C   0  0  0  0  0  2  0  0  0  0  0  0
  193.4460  172.9210  143.5450 C   0  0  0  0  0  3  0  0  0  0  0  0
  189.9420  177.6230  147.4070 C   0  0  0  0  0  2  0  0  0  0  0  0
  189.1520  172.4720  143.4550 C   0  0  0  0  0  2  0  0  0  0  0  0
  192.4220  172.4560  142.8240 C   0  0  0  0  0  3  0  0  0  0  0  0
  187.6600  177.5380  142.7240 C   0  0  0  0  0  2  0  0  0  0  0  0
  194.5470  176.8570  145.6720 C   0  0  0  0  0  1  0  0  0  0  0  0
  186.5530  177.3750  144.7930 C   0  0  0  0  0  2  0  0  0  0  0  0
  189.3800  175.3980  141.6170 O   0  0  0  0  0  0  0  0  0  0  0  0
  188.7750  177.2090  146.5390 C   0  0  0  0  0  3  0  0  0  0  0  0
  190.3750  173.3180  139.0780 C   0  0  0  0  0  3  0  0  0  0  0  0
  190.3480  172.8920  140.2050 C   0  0  0  0  0  0  0  0  0  0  0  0
  1 25  1  6  0  0  0
  1 11  1  0  0  0  0
  2  1  1  0  0  0  0
  3 11  1  0  0  0  0
  3  7  1  1  0  0  0
  4 30  1  6  0  0  0
  4 15  1  0  0  0  0
  4 10  1  0  0  0  0
  5  9  1  0  0  0  0
  6 26  1  6  0  0  0
  6 14  1  0  0  0  0
  8  3  1  0  0  0  0
  9  8  1  6  0  0  0
  9 14  1  0  0  0  0
 10 23  1  1  0  0  0
 10 12  1  0  0  0  0
 12 22  1  6  0  0  0
 12  5  1  0  0  0  0
 13 24  1  1  0  0  0
 13  6  1  0  0  0  0
 14 28  2  0  0  0  0
 15 22  1  0  0  0  0
 16 13  1  0  0  0  0
 16  5  1  0  0  0  0
 17 26  1  0  0  0  0
 18  8  2  0  0  0  0
 19  2  1  0  0  0  0
 20 19  1  0  0  0  0
 21  7  1  0  0  0  0
 23 20  2  0  0  0  0
 24 17  1  0  0  0  0
 27 16  2  0  0  0  0
 28 21  1  0  0  0  0
 29 30  3  0  0  0  0
M  END
>  <MODEL>
2

>  <REMARK>
 VINA RESULT:      -7.6      1.318      1.537
  Name = 
  1 active torsions:
  status: ('A' for Active; 'I' for Inactive)
    1  A    between atoms: C_4  and  C_30
                            x       y       z     vdW  Elec       q    Type
                         _______ _______ _______ _____ _____    ______ ____

>  <TORSDO>
F 1

$$$$
=
 OpenBabel11042413453D

 30 34  0  0  1  0  0  0  0  0999 V2000
  186.9310  177.2180  143.8350 C   0  0  2  0  0  3  0  0  0  0  0  0
  187.5490  177.6170  145.1690 C   0  0  0  0  0  2  0  0  0  0  0  0
  188.0470  175.7140  142.2270 C   0  0  2  0  0  3  0  0  0  0  0  0
  193.0090  175.8970  146.5590 C   0  0  1  0  0  3  0  0  0  0  0  0
  191.5050  175.0980  143.6570 N   0  0  0  0  0  0  0  0  0  0  0  0
  192.2380  173.4010  141.5120 C   0  0  1  0  0  3  0  0  0  0  0  0
  187.7580  174.3530  141.5900 C   0  0  0  0  0  2  0  0  0  0  0  0
  189.5200  175.9020  142.4660 C   0  0  0  0  0  0  0  0  0  0  0  0
  190.3770  174.7140  142.8010 C   0  0  1  0  0  3  0  0  0  0  0  0
  191.7580  176.3120  145.8060 C   0  0  1  0  0  3  0  0  0  0  0  0
  187.2920  175.8340  143.4760 N   0  0  0  0  0  2  0  0  0  0  0  0
  191.3280  175.0350  145.1160 C   0  0  2  0  0  3  0  0  0  0  0  0
  193.2710  174.4150  141.9670 C   0  0  2  0  0  3  0  0  0  0  0  0
  190.8230  173.9700  141.5460 C   0  0  0  0  0  0  0  0  0  0  0  0
  193.4210  174.6300  146.1160 O   0  0  0  0  0  0  0  0  0  0  0  0
  192.7860  175.3330  143.0490 C   0  0  0  0  0  0  0  0  0  0  0  0
  193.3970  174.2830  139.5720 N   0  0  0  0  0  2  0  0  0  0  0  0
  190.0290  176.9910  142.2620 O   0  0  0  0  0  0  0  0  0  0  0  0
  189.0570  177.4520  145.1560 C   0  0  0  0  0  2  0  0  0  0  0  0
  189.5450  177.2560  146.5480 C   0  0  0  0  0  3  0  0  0  0  0  0
  188.5650  174.1870  140.3080 C   0  0  0  0  0  2  0  0  0  0  0  0
  192.2420  173.9880  145.7130 C   0  0  0  0  0  2  0  0  0  0  0  0
  190.7470  176.7460  146.8300 C   0  0  0  0  0  3  0  0  0  0  0  0
  193.6670  175.1580  140.7110 C   0  0  0  0  0  2  0  0  0  0  0  0
  187.1380  178.2830  142.7560 C   0  0  0  0  0  1  0  0  0  0  0  0
  192.7060  173.1020  140.0930 C   0  0  0  0  0  2  0  0  0  0  0  0
  193.5220  176.2750  143.4480 O   0  0  0  0  0  0  0  0  0  0  0  0
  189.9690  173.6760  140.5330 C   0  0  0  0  0  3  0  0  0  0  0  0
  194.9610  177.6840  146.1960 C   0  0  0  0  0  3  0  0  0  0  0  0
  194.0810  176.8790  146.3700 C   0  0  0  0  0  0  0  0  0  0  0  0
  1 25  1  6  0  0  0
  1  2  1  0  0  0  0
  3  7  1  1  0  0  0
  3  8  1  0  0  0  0
  3 11  1  0  0  0  0
  4 30  1  6  0  0  0
  5 12  1  0  0  0  0
  6 26  1  6  0  0  0
  6 14  1  0  0  0  0
  6 13  1  0  0  0  0
  8  9  1  0  0  0  0
  9 14  1  6  0  0  0
  9  5  1  0  0  0  0
 10  4  1  0  0  0  0
 10 23  1  1  0  0  0
 11  1  1  0  0  0  0
 12 22  1  1  0  0  0
 12 10  1  0  0  0  0
 13 24  1  6  0  0  0
 13 16  1  0  0  0  0
 15  4  1  0  0  0  0
 16 27  2  0  0  0  0
 16  5  1  0  0  0  0
 17 26  1  0  0  0  0
 17 24  1  0  0  0  0
 18  8  2  0  0  0  0
 19  2  1  0  0  0  0
 19 20  1  0  0  0  0
 20 23  2  0  0  0  0
 21 28  1  0  0  0  0
 21  7  1  0  0  0  0
 22 15  1  0  0  0  0
 28 14  2  0  0  0  0
 29 30  3  0  0  0  0
M  END
>  <MODEL>
3

>  <REMARK>
 VINA RESULT:      -7.1      2.025      6.586
  Name = 
  1 active torsions:
  status: ('A' for Active; 'I' for Inactive)
    1  A    between atoms: C_4  and  C_30
                            x       y       z     vdW  Elec       q    Type
                         _______ _______ _______ _____ _____    ______ ____

>  <TORSDO>
F 1

$$$$
=
 OpenBabel11042413453D

 30 34  0  0  1  0  0  0  0  0999 V2000
  195.7740  174.8970  142.8160 C   0  0  2  0  0  3  0  0  0  0  0  0
  195.3860  174.0980  141.5790 C   0  0  0  0  0  2  0  0  0  0  0  0
  194.1680  175.5020  144.5910 C   0  0  2  0  0  3  0  0  0  0  0  0
  189.7630  172.6240  140.6240 C   0  0  1  0  0  3  0  0  0  0  0  0
  190.7800  174.3830  143.3060 N   0  0  0  0  0  0  0  0  0  0  0  0
  189.4480  175.2750  145.6410 C   0  0  1  0  0  3  0  0  0  0  0  0
  194.0070  175.2280  146.0870 C   0  0  0  0  0  2  0  0  0  0  0  0
  192.8320  175.5810  143.9050 C   0  0  0  0  0  0  0  0  0  0  0  0
  191.6900  174.7390  144.4000 C   0  0  1  0  0  3  0  0  0  0  0  0
  191.0290  173.3300  141.0740 C   0  0  1  0  0  3  0  0  0  0  0  0
  195.0030  174.4570  143.9940 N   0  0  0  0  0  2  0  0  0  0  0  0
  191.0250  173.1300  142.5740 C   0  0  2  0  0  3  0  0  0  0  0  0
  188.7860  175.5900  144.3120 C   0  0  2  0  0  3  0  0  0  0  0  0
  190.9670  175.4040  145.5680 C   0  0  0  0  0  0  0  0  0  0  0  0
  188.9730  172.3250  141.7450 O   0  0  0  0  0  0  0  0  0  0  0  0
  189.5860  175.1610  143.1180 C   0  0  0  0  0  0  0  0  0  0  0  0
  188.4730  177.4940  145.7410 N   0  0  0  0  0  2  0  0  0  0  0  0
  192.6490  176.4170  143.0360 O   0  0  0  0  0  0  0  0  0  0  0  0
  193.8970  174.1900  141.3000 C   0  0  0  0  0  2  0  0  0  0  0  0
  193.4640  172.9950  140.5280 C   0  0  0  0  0  3  0  0  0  0  0  0
  193.1070  176.2790  146.7230 C   0  0  0  0  0  2  0  0  0  0  0  0
  189.8850  172.1590  142.7960 C   0  0  0  0  0  2  0  0  0  0  0  0
  192.1870  172.6160  140.4320 C   0  0  0  0  0  3  0  0  0  0  0  0
  188.5430  177.0820  144.3420 C   0  0  0  0  0  2  0  0  0  0  0  0
  195.8170  176.4030  142.5470 C   0  0  0  0  0  1  0  0  0  0  0  0
  188.8240  176.3260  146.5510 C   0  0  0  0  0  2  0  0  0  0  0  0
  189.1830  175.4460  141.9590 O   0  0  0  0  0  0  0  0  0  0  0  0
  191.6310  175.9710  146.6070 C   0  0  0  0  0  3  0  0  0  0  0  0
  188.3930  174.1210  138.8870 C   0  0  0  0  0  3  0  0  0  0  0  0
  189.0130  173.4540  139.6750 C   0  0  0  0  0  0  0  0  0  0  0  0
  1 25  1  6  0  0  0
  1 11  1  0  0  0  0
  2  1  1  0  0  0  0
  3  7  1  1  0  0  0
  4 30  1  6  0  0  0
  4 10  1  0  0  0  0
  4 15  1  0  0  0  0
  5  9  1  0  0  0  0
  6 26  1  1  0  0  0
  7 21  1  0  0  0  0
  8  3  1  0  0  0  0
  9  8  1  6  0  0  0
  9 14  1  0  0  0  0
 10 23  1  6  0  0  0
 10 12  1  0  0  0  0
 11  3  1  0  0  0  0
 12 22  1  6  0  0  0
 12  5  1  0  0  0  0
 13 24  1  6  0  0  0
 13  6  1  0  0  0  0
 14  6  1  0  0  0  0
 14 28  2  0  0  0  0
 15 22  1  0  0  0  0
 16  5  1  0  0  0  0
 16 13  1  0  0  0  0
 17 26  1  0  0  0  0
 18  8  2  0  0  0  0
 19  2  1  0  0  0  0
 20 19  1  0  0  0  0
 23 20  2  0  0  0  0
 24 17  1  0  0  0  0
 27 16  2  0  0  0  0
 28 21  1  0  0  0  0
 29 30  3  0  0  0  0
M  END
>  <MODEL>
4

>  <REMARK>
 VINA RESULT:      -7.0      1.874      2.808
  Name = 
  1 active torsions:
  status: ('A' for Active; 'I' for Inactive)
    1  A    between atoms: C_4  and  C_30
                            x       y       z     vdW  Elec       q    Type
                         _______ _______ _______ _____ _____    ______ ____

>  <TORSDO>
F 1

$$$$
=
 OpenBabel11042413453D

 30 34  0  0  1  0  0  0  0  0999 V2000
  188.8050  173.8030  139.5520 C   0  0  2  0  0  3  0  0  0  0  0  0
  190.2980  173.5300  139.4210 C   0  0  0  0  0  2  0  0  0  0  0  0
  187.8140  175.0000  141.4690 C   0  0  2  0  0  3  0  0  0  0  0  0
  193.9880  174.9910  143.7750 C   0  0  1  0  0  3  0  0  0  0  0  0
  190.6690  175.5270  143.9110 N   0  0  0  0  0  0  0  0  0  0  0  0
  189.0120  176.8770  145.7680 C   0  0  1  0  0  3  0  0  0  0  0  0
  187.0160  176.2880  141.6860 C   0  0  0  0  0  2  0  0  0  0  0  0
  188.7400  174.7330  142.6240 C   0  0  0  0  0  0  0  0  0  0  0  0
  189.3530  175.8850  143.3700 C   0  0  1  0  0  3  0  0  0  0  0  0
  192.7630  174.5810  142.9770 C   0  0  1  0  0  3  0  0  0  0  0  0
  188.5580  175.0980  140.2120 N   0  0  0  0  0  2  0  0  0  0  0  0
  191.8570  175.7880  143.0840 C   0  0  2  0  0  3  0  0  0  0  0  0
  189.9790  175.8530  146.3320 C   0  0  2  0  0  3  0  0  0  0  0  0
  188.4090  176.4260  144.4400 C   0  0  0  0  0  0  0  0  0  0  0  0
  193.7000  176.1560  144.5040 O   0  0  0  0  0  0  0  0  0  0  0  0
  190.7650  175.1190  145.2860 C   0  0  0  0  0  0  0  0  0  0  0  0
  187.9320  175.6700  147.5740 N   0  0  0  0  0  2  0  0  0  0  0  0
  188.8870  173.5910  143.0260 O   0  0  0  0  0  0  0  0  0  0  0  0
  190.9940  173.5770  140.7690 C   0  0  0  0  0  2  0  0  0  0  0  0
  192.4300  173.9110  140.5730 C   0  0  0  0  0  3  0  0  0  0  0  0
  186.2650  176.2270  143.0110 C   0  0  0  0  0  2  0  0  0  0  0  0
  192.7370  176.8300  143.7410 C   0  0  0  0  0  2  0  0  0  0  0  0
  193.2110  174.3590  141.5590 C   0  0  0  0  0  3  0  0  0  0  0  0
  189.1240  174.9290  147.1690 C   0  0  0  0  0  2  0  0  0  0  0  0
  188.0390  172.5960  140.0990 C   0  0  0  0  0  1  0  0  0  0  0  0
  187.9680  176.9560  146.8760 C   0  0  0  0  0  2  0  0  0  0  0  0
  191.5360  174.1830  145.6240 O   0  0  0  0  0  0  0  0  0  0  0  0
  187.0930  176.6540  144.2020 C   0  0  0  0  0  3  0  0  0  0  0  0
  194.7570  173.0190  145.4040 C   0  0  0  0  0  3  0  0  0  0  0  0
  194.4070  173.9140  144.6770 C   0  0  0  0  0  0  0  0  0  0  0  0
  1 25  1  1  0  0  0
  1 11  1  0  0  0  0
  2  1  1  0  0  0  0
  2 19  1  0  0  0  0
  3  7  1  1  0  0  0
  3  8  1  0  0  0  0
  4 15  1  0  0  0  0
  4 30  1  1  0  0  0
  5 16  1  0  0  0  0
  6 13  1  0  0  0  0
  6 26  1  1  0  0  0
  7 21  1  0  0  0  0
  8 18  2  0  0  0  0
  9  8  1  1  0  0  0
  9  5  1  0  0  0  0
  9 14  1  0  0  0  0
 10 23  1  6  0  0  0
 10 12  1  0  0  0  0
 10  4  1  0  0  0  0
 11  3  1  0  0  0  0
 12 22  1  1  0  0  0
 12  5  1  0  0  0  0
 13 24  1  6  0  0  0
 14  6  1  0  0  0  0
 16 27  2  0  0  0  0
 16 13  1  0  0  0  0
 20 19  1  0  0  0  0
 20 23  2  0  0  0  0
 21 28  1  0  0  0  0
 22 15  1  0  0  0  0
 24 17  1  0  0  0  0
 26 17  1  0  0  0  0
 28 14  2  0  0  0  0
 30 29  3  0  0  0  0
M  END
>  <MODEL>
5

>  <REMARK>
 VINA RESULT:      -6.9      1.871      5.259
  Name = 
  1 active torsions:
  status: ('A' for Active; 'I' for Inactive)
    1  A    between atoms: C_4  and  C_30
                            x       y       z     vdW  Elec       q    Type
                         _______ _______ _______ _____ _____    ______ ____

>  <TORSDO>
F 1

$$$$
=
 OpenBabel11042413453D

 30 34  0  0  1  0  0  0  0  0999 V2000
  196.5520  174.2640  144.1510 C   0  0  2  0  0  3  0  0  0  0  0  0
  196.0760  174.9160  145.4430 C   0  0  0  0  0  2  0  0  0  0  0  0
  195.0710  173.8580  142.2190 C   0  0  2  0  0  3  0  0  0  0  0  0
  190.3870  176.2540  146.1870 C   0  0  1  0  0  3  0  0  0  0  0  0
  191.5950  174.8130  143.3960 N   0  0  0  0  0  0  0  0  0  0  0  0
  190.4270  174.1860  140.8940 C   0  0  1  0  0  3  0  0  0  0  0  0
  195.0050  174.2990  140.7550 C   0  0  0  0  0  2  0  0  0  0  0  0
  193.6950  173.6970  142.8020 C   0  0  0  0  0  0  0  0  0  0  0  0
  192.5780  174.5860  142.3310 C   0  0  1  0  0  3  0  0  0  0  0  0
  191.6880  175.6080  145.7440 C   0  0  1  0  0  3  0  0  0  0  0  0
  195.8550  174.8310  142.9830 N   0  0  0  0  0  2  0  0  0  0  0  0
  191.7780  175.9760  144.2790 C   0  0  2  0  0  3  0  0  0  0  0  0
  189.6840  173.7210  142.1330 C   0  0  2  0  0  3  0  0  0  0  0  0
  191.9390  174.0550  141.0510 C   0  0  0  0  0  0  0  0  0  0  0  0
  189.6690  176.6750  145.0570 O   0  0  0  0  0  0  0  0  0  0  0  0
  190.4000  174.0150  143.4170 C   0  0  0  0  0  0  0  0  0  0  0  0
  189.4850  171.9890  140.4800 N   0  0  0  0  0  2  0  0  0  0  0  0
  193.4640  172.7680  143.5570 O   0  0  0  0  0  0  0  0  0  0  0  0
  194.5730  174.7890  145.6110 C   0  0  0  0  0  2  0  0  0  0  0  0
  194.0790  175.8870  146.4830 C   0  0  0  0  0  3  0  0  0  0  0  0
  194.1590  173.3230  139.9470 C   0  0  0  0  0  2  0  0  0  0  0  0
  190.6460  176.9620  144.0930 C   0  0  0  0  0  2  0  0  0  0  0  0
  192.7940  176.2490  146.5370 C   0  0  0  0  0  3  0  0  0  0  0  0
  189.4590  172.2410  141.9190 C   0  0  0  0  0  2  0  0  0  0  0  0
  196.5940  172.7370  144.2520 C   0  0  0  0  0  1  0  0  0  0  0  0
  189.8740  173.2430  139.8320 C   0  0  0  0  0  2  0  0  0  0  0  0
  189.9260  173.5990  144.5080 O   0  0  0  0  0  0  0  0  0  0  0  0
  192.6760  173.6120  140.0000 C   0  0  0  0  0  3  0  0  0  0  0  0
  188.9410  174.5410  147.6380 C   0  0  0  0  0  3  0  0  0  0  0  0
  189.5860  175.3200  146.9850 C   0  0  0  0  0  0  0  0  0  0  0  0
  1 25  1  1  0  0  0
  1  2  1  0  0  0  0
  2 19  1  0  0  0  0
  3  7  1  6  0  0  0
  3  8  1  0  0  0  0
  3 11  1  0  0  0  0
  4 30  1  6  0  0  0
  5 16  1  0  0  0  0
  5 12  1  0  0  0  0
  6 26  1  6  0  0  0
  6 14  1  0  0  0  0
  6 13  1  0  0  0  0
  8 18  2  0  0  0  0
  9 14  1  6  0  0  0
  9  8  1  0  0  0  0
  9  5  1  0  0  0  0
 10  4  1  0  0  0  0
 10 23  1  1  0  0  0
 11  1  1  0  0  0  0
 12 22  1  6  0  0  0
 12 10  1  0  0  0  0
 13 24  1  6  0  0  0
 13 16  1  0  0  0  0
 15  4  1  0  0  0  0
 16 27  2  0  0  0  0
 17 24  1  0  0  0  0
 19 20  1  0  0  0  0
 20 23  2  0  0  0  0
 21 28  1  0  0  0  0
 21  7  1  0  0  0  0
 22 15  1  0  0  0  0
 26 17  1  0  0  0  0
 28 14  2  0  0  0  0
 30 29  3  0  0  0  0
M  END
>  <MODEL>
6

>  <REMARK>
 VINA RESULT:      -6.7      2.882      6.025
  Name = 
  1 active torsions:
  status: ('A' for Active; 'I' for Inactive)
    1  A    between atoms: C_4  and  C_30
                            x       y       z     vdW  Elec       q    Type
                         _______ _______ _______ _____ _____    ______ ____

>  <TORSDO>
F 1

$$$$
=
 OpenBabel11042413453D

 30 34  0  0  1  0  0  0  0  0999 V2000
  191.2860  171.9090  140.4670 C   0  0  2  0  0  3  0  0  0  0  0  0
  192.7950  171.7030  140.4520 C   0  0  0  0  0  2  0  0  0  0  0  0
  190.1670  173.5830  141.8960 C   0  0  2  0  0  3  0  0  0  0  0  0
  196.2500  174.6840  144.1780 C   0  0  1  0  0  3  0  0  0  0  0  0
  192.9040  175.0270  144.0890 N   0  0  0  0  0  0  0  0  0  0  0  0
  191.1130  176.7840  145.4010 C   0  0  1  0  0  3  0  0  0  0  0  0
  189.2920  174.8200  141.6840 C   0  0  0  0  0  2  0  0  0  0  0  0
  191.0660  173.7490  143.0890 C   0  0  0  0  0  0  0  0  0  0  0  0
  191.5890  175.1130  143.4430 C   0  0  1  0  0  3  0  0  0  0  0  0
  195.0770  173.9680  143.5320 C   0  0  1  0  0  3  0  0  0  0  0  0
  190.9460  173.3280  140.6820 N   0  0  0  0  0  2  0  0  0  0  0  0
  194.1040  175.0890  143.2390 C   0  0  2  0  0  3  0  0  0  0  0  0
  192.1160  176.0510  146.2730 C   0  0  2  0  0  3  0  0  0  0  0  0
  190.5820  175.9030  144.2740 C   0  0  0  0  0  0  0  0  0  0  0  0
  195.8740  175.9980  144.4980 O   0  0  0  0  0  0  0  0  0  0  0  0
  192.9760  175.0770  145.5230 C   0  0  0  0  0  0  0  0  0  0  0  0
  190.0410  176.1380  147.4790 N   0  0  0  0  0  2  0  0  0  0  0  0
  191.2620  172.8030  143.8330 O   0  0  0  0  0  0  0  0  0  0  0  0
  193.4410  172.2140  141.7260 C   0  0  0  0  0  2  0  0  0  0  0  0
  194.8630  172.5590  141.4560 C   0  0  0  0  0  3  0  0  0  0  0  0
  188.5020  175.1310  142.9490 C   0  0  0  0  0  2  0  0  0  0  0  0
  194.9020  176.3380  143.5470 C   0  0  0  0  0  2  0  0  0  0  0  0
  195.5850  173.3420  142.2620 C   0  0  0  0  0  3  0  0  0  0  0  0
  191.2850  175.3840  147.3460 C   0  0  0  0  0  2  0  0  0  0  0  0
  190.5690  170.8890  141.3560 C   0  0  0  0  0  1  0  0  0  0  0  0
  190.0300  177.1410  146.4120 C   0  0  0  0  0  2  0  0  0  0  0  0
  193.7850  174.3440  146.1510 O   0  0  0  0  0  0  0  0  0  0  0  0
  189.2640  175.9610  143.9570 C   0  0  0  0  0  3  0  0  0  0  0  0
  197.0810  173.3870  146.3600 C   0  0  0  0  0  3  0  0  0  0  0  0
  196.6970  173.9720  145.3790 C   0  0  0  0  0  0  0  0  0  0  0  0
  1 11  1  0  0  0  0
  1 25  1  1  0  0  0
  2  1  1  0  0  0  0
  2 19  1  0  0  0  0
  3  7  1  6  0  0  0
  3  8  1  0  0  0  0
  4 15  1  0  0  0  0
  4 30  1  1  0  0  0
  5 16  1  0  0  0  0
  6 13  1  0  0  0  0
  6 26  1  1  0  0  0
  7 21  1  0  0  0  0
  8 18  2  0  0  0  0
  9  8  1  1  0  0  0
  9  5  1  0  0  0  0
  9 14  1  0  0  0  0
 10 23  1  6  0  0  0
 10  4  1  0  0  0  0
 11  3  1  0  0  0  0
 12 10  1  0  0  0  0
 12 22  1  1  0  0  0
 12  5  1  0  0  0  0
 13 24  1  1  0  0  0
 14  6  1  0  0  0  0
 16 27  2  0  0  0  0
 16 13  1  0  0  0  0
 20 19  1  0  0  0  0
 20 23  2  0  0  0  0
 21 28  1  0  0  0  0
 22 15  1  0  0  0  0
 24 17  1  0  0  0  0
 26 17  1  0  0  0  0
 28 14  2  0  0  0  0
 30 29  3  0  0  0  0
M  END
>  <MODEL>
7

>  <REMARK>
 VINA RESULT:      -6.6      2.746      6.154
  Name = 
  1 active torsions:
  status: ('A' for Active; 'I' for Inactive)
    1  A    between atoms: C_4  and  C_30
                            x       y       z     vdW  Elec       q    Type
                         _______ _______ _______ _____ _____    ______ ____

>  <TORSDO>
F 1

$$$$
=
 OpenBabel11042413453D

 30 34  0  0  1  0  0  0  0  0999 V2000
  189.7170  175.6830  146.4010 C   0  0  2  0  0  3  0  0  0  0  0  0
  190.9630  176.3970  146.9080 C   0  0  0  0  0  2  0  0  0  0  0  0
  189.7940  173.8180  144.7850 C   0  0  2  0  0  3  0  0  0  0  0  0
  196.2700  175.0380  144.7410 C   0  0  1  0  0  3  0  0  0  0  0  0
  193.4260  173.5530  143.7260 N   0  0  0  0  0  0  0  0  0  0  0  0
  192.9050  171.3700  141.9990 C   0  0  1  0  0  3  0  0  0  0  0  0
  189.3860  172.3440  144.7660 C   0  0  0  0  0  2  0  0  0  0  0  0
  191.0390  174.0490  143.9730 C   0  0  0  0  0  0  0  0  0  0  0  0
  192.0880  172.9760  143.8980 C   0  0  1  0  0  3  0  0  0  0  0  0
  194.7780  175.2610  144.9130 C   0  0  1  0  0  3  0  0  0  0  0  0
  189.9830  174.2510  146.1710 N   0  0  0  0  0  2  0  0  0  0  0  0
  194.2160  173.8560  144.9300 C   0  0  2  0  0  3  0  0  0  0  0  0
  193.8210  172.4590  141.4700 C   0  0  2  0  0  3  0  0  0  0  0  0
  191.7570  171.9400  142.8270 C   0  0  0  0  0  0  0  0  0  0  0  0
  196.5030  173.6980  144.3940 O   0  0  0  0  0  0  0  0  0  0  0  0
  193.9860  173.6200  142.4040 C   0  0  0  0  0  0  0  0  0  0  0  0
  192.4360  171.7340  139.6470 N   0  0  0  0  0  2  0  0  0  0  0  0
  191.1310  175.0500  143.2820 O   0  0  0  0  0  0  0  0  0  0  0  0
  192.1330  176.2230  145.9570 C   0  0  0  0  0  2  0  0  0  0  0  0
  193.4070  176.3750  146.7070 C   0  0  0  0  0  3  0  0  0  0  0  0
  189.2230  171.8590  143.3310 C   0  0  0  0  0  2  0  0  0  0  0  0
  195.4510  172.9840  144.9830 C   0  0  0  0  0  2  0  0  0  0  0  0
  194.5810  175.9430  146.2380 C   0  0  0  0  0  3  0  0  0  0  0  0
  193.2200  172.8630  140.1420 C   0  0  0  0  0  2  0  0  0  0  0  0
  189.0320  176.4450  145.2640 C   0  0  0  0  0  1  0  0  0  0  0  0
  192.4180  170.7250  140.7070 C   0  0  0  0  0  2  0  0  0  0  0  0
  194.6510  174.6270  142.0400 O   0  0  0  0  0  0  0  0  0  0  0  0
  190.5160  171.4090  142.6880 C   0  0  0  0  0  3  0  0  0  0  0  0
  197.2800  176.6740  142.8870 C   0  0  0  0  0  3  0  0  0  0  0  0
  196.8170  175.9350  143.7180 C   0  0  0  0  0  0  0  0  0  0  0  0
  1 25  1  6  0  0  0
  1  2  1  0  0  0  0
  3  7  1  1  0  0  0
  3 11  1  0  0  0  0
  4 30  1  6  0  0  0
  4 10  1  0  0  0  0
  5  9  1  0  0  0  0
  5 12  1  0  0  0  0
  6 26  1  6  0  0  0
  6 14  1  0  0  0  0
  8  3  1  0  0  0  0
  9 14  1  6  0  0  0
  9  8  1  0  0  0  0
 10 12  1  0  0  0  0
 10 23  1  1  0  0  0
 11  1  1  0  0  0  0
 12 22  1  6  0  0  0
 13 24  1  6  0  0  0
 13  6  1  0  0  0  0
 13 16  1  0  0  0  0
 15  4  1  0  0  0  0
 15 22  1  0  0  0  0
 16  5  1  0  0  0  0
 17 24  1  0  0  0  0
 17 26  1  0  0  0  0
 18  8  2  0  0  0  0
 19 20  1  0  0  0  0
 19  2  1  0  0  0  0
 21  7  1  0  0  0  0
 23 20  2  0  0  0  0
 27 16  2  0  0  0  0
 28 14  2  0  0  0  0
 28 21  1  0  0  0  0
 29 30  3  0  0  0  0
M  END
>  <MODEL>
8

>  <REMARK>
 VINA RESULT:      -6.6      2.998      6.812
  Name = 
  1 active torsions:
  status: ('A' for Active; 'I' for Inactive)
    1  A    between atoms: C_4  and  C_30
                            x       y       z     vdW  Elec       q    Type
                         _______ _______ _______ _____ _____    ______ ____

>  <TORSDO>
F 1

$$$$
=
 OpenBabel11042413453D

 30 34  0  0  1  0  0  0  0  0999 V2000
  186.6090  177.2080  140.9300 C   0  0  2  0  0  3  0  0  0  0  0  0
  185.5330  178.0110  141.6490 C   0  0  0  0  0  2  0  0  0  0  0  0
  188.3170  175.8760  142.1130 C   0  0  2  0  0  3  0  0  0  0  0  0
  185.5190  178.3810  147.5280 C   0  0  1  0  0  3  0  0  0  0  0  0
  187.8240  176.6490  145.7940 N   0  0  0  0  0  0  0  0  0  0  0  0
  189.9260  174.9210  146.5780 C   0  0  1  0  0  3  0  0  0  0  0  0
  188.7270  174.4040  142.1860 C   0  0  0  0  0  2  0  0  0  0  0  0
  188.5020  176.5590  143.4400 C   0  0  0  0  0  0  0  0  0  0  0  0
  188.3050  175.7830  144.7120 C   0  0  1  0  0  3  0  0  0  0  0  0
  185.9410  178.2380  146.0770 C   0  0  1  0  0  3  0  0  0  0  0  0
  186.9260  175.9700  141.6640 N   0  0  0  0  0  2  0  0  0  0  0  0
  186.3710  176.7910  145.9800 C   0  0  2  0  0  3  0  0  0  0  0  0
  189.8590  176.2740  147.2630 C   0  0  2  0  0  3  0  0  0  0  0  0
  189.5630  175.0100  145.0980 C   0  0  0  0  0  0  0  0  0  0  0  0
  185.9410  177.2520  148.2490 O   0  0  0  0  0  0  0  0  0  0  0  0
  188.7730  177.1660  146.7410 C   0  0  0  0  0  0  0  0  0  0  0  0
  192.1770  175.7680  146.8890 N   0  0  0  0  0  2  0  0  0  0  0  0
  188.9320  177.7000  143.4760 O   0  0  0  0  0  0  0  0  0  0  0  0
  185.9370  178.3320  143.0760 C   0  0  0  0  0  2  0  0  0  0  0  0
  184.7170  178.5480  143.8990 C   0  0  0  0  0  3  0  0  0  0  0  0
  190.1590  174.2790  142.6920 C   0  0  0  0  0  2  0  0  0  0  0  0
  185.9520  176.2090  147.3120 C   0  0  0  0  0  2  0  0  0  0  0  0
  184.7240  178.5030  145.2340 C   0  0  0  0  0  3  0  0  0  0  0  0
  191.2370  176.8700  147.0820 C   0  0  0  0  0  2  0  0  0  0  0  0
  187.7950  178.0760  140.5030 C   0  0  0  0  0  1  0  0  0  0  0  0
  191.3860  174.5410  146.7910 C   0  0  0  0  0  2  0  0  0  0  0  0
  188.6730  178.3470  147.1680 O   0  0  0  0  0  0  0  0  0  0  0  0
  190.2770  174.2860  144.1990 C   0  0  0  0  0  3  0  0  0  0  0  0
  186.5220  180.6140  148.5950 C   0  0  0  0  0  3  0  0  0  0  0  0
  186.0770  179.6020  148.1160 C   0  0  0  0  0  0  0  0  0  0  0  0
  1 25  1  1  0  0  0
  1  2  1  0  0  0  0
  1 11  1  0  0  0  0
  2 19  1  0  0  0  0
  3  7  1  1  0  0  0
  3  8  1  0  0  0  0
  4 30  1  1  0  0  0
  4 15  1  0  0  0  0
  5 12  1  0  0  0  0
  5 16  1  0  0  0  0
  6 26  1  6  0  0  0
  6 13  1  0  0  0  0
  7 21  1  0  0  0  0
  8 18  2  0  0  0  0
  9  8  1  6  0  0  0
  9 14  1  0  0  0  0
  9  5  1  0  0  0  0
 10 23  1  6  0  0  0
 10  4  1  0  0  0  0
 11  3  1  0  0  0  0
 12 10  1  0  0  0  0
 12 22  1  1  0  0  0
 13 24  1  6  0  0  0
 14  6  1  0  0  0  0
 16 27  2  0  0  0  0
 16 13  1  0  0  0  0
 17 24  1  0  0  0  0
 19 20  1  0  0  0  0
 20 23  2  0  0  0  0
 21 28  1  0  0  0  0
 22 15  1  0  0  0  0
 26 17  1  0  0  0  0
 28 14  2  0  0  0  0
 30 29  3  0  0  0  0
M  END
>  <MODEL>
9

>  <REMARK>
 VINA RESULT:      -6.6      2.407      6.918
  Name = 
  1 active torsions:
  status: ('A' for Active; 'I' for Inactive)
    1  A    between atoms: C_4  and  C_30
                            x       y       z     vdW  Elec       q    Type
                         _______ _______ _______ _____ _____    ______ ____

>  <TORSDO>
F 1

$$$$
