=
 OpenBabel11042414533D

 32 34  0  0  1  0  0  0  0  0999 V2000
  184.9180  178.1870  145.4890 C   0  0  0  0  0  0  0  0  0  0  0  0
  185.4950  176.8170  145.2690 C   0  0  0  0  0  2  0  0  0  0  0  0
  190.1500  175.5310  147.3380 N   0  0  0  0  0  0  0  0  0  0  0  0
  184.6070  178.9480  144.4830 N   0  0  0  0  0  0  0  0  0  0  0  0
  186.9750  177.5160  142.5420 N   0  0  0  0  0  0  0  0  0  0  0  0
  189.9700  176.9230  146.9220 C   0  0  0  0  0  2  0  0  0  0  0  0
  186.2860  178.7890  142.7310 C   0  0  0  0  0  2  0  0  0  0  0  0
  186.9390  176.8920  144.8970 C   0  0  0  0  0  0  0  0  0  0  0  0
  189.0490  175.0130  143.8690 N   0  0  0  0  0  0  0  0  0  0  0  0
  184.8230  178.5800  143.0900 C   0  0  0  0  0  2  0  0  0  0  0  0
  187.8280  176.9010  145.8370 N   0  0  0  0  0  0  0  0  0  0  0  0
  187.3330  176.7000  143.4920 C   0  0  0  0  0  0  0  0  0  0  0  0
  189.7870  175.6410  144.9750 C   0  0  2  0  0  3  0  0  0  0  0  0
  188.0580  175.4660  143.1560 C   0  0  0  0  0  0  0  0  0  0  0  0
  189.9790  174.7050  146.1420 C   0  0  0  0  0  2  0  0  0  0  0  0
  189.2640  176.9280  145.5840 C   0  0  2  0  0  3  0  0  0  0  0  0
  185.7480  179.2060  147.5800 C   0  0  0  0  0  1  0  0  0  0  0  0
  184.7020  178.6690  146.7820 O   0  0  0  0  0  0  0  0  0  0  0  0
  191.5330  175.3950  147.7670 C   0  0  0  0  0  2  0  0  0  0  0  0
  194.5860  176.0450  145.9880 C   0  0  0  0  0  3  0  0  0  0  0  0
  192.3410  176.5240  147.2310 C   0  0  0  0  0  3  0  0  0  0  0  0
  193.4620  176.2860  146.6100 C   0  0  0  0  0  0  0  0  0  0  0  0
  193.9390  173.7170  145.4440 C   0  0  0  0  0  1  0  0  0  0  0  0
  194.9730  174.7230  145.5880 N   0  0  0  0  0  0  0  0  0  0  0  0
  196.9770  173.5170  146.2920 C   0  0  0  0  0  1  0  0  0  0  0  0
  196.3390  174.3770  145.2150 C   0  0  0  0  0  2  0  0  0  0  0  0
  187.6050  174.6610  141.9790 C   0  0  0  0  0  2  0  0  0  0  0  0
  188.3370  173.3270  141.9060 C   0  0  0  0  0  2  0  0  0  0  0  0
  190.2590  173.1830  140.5110 O   0  0  0  0  0  0  0  0  0  0  0  0
  189.0020  173.1480  140.5770 C   0  0  0  0  0  0  0  0  0  0  0  0
  188.2650  172.9200  139.4130 O   0  0  0  0  0  0  0  0  0  0  0  0
  188.2840  173.8160  138.3130 C   0  0  0  0  0  1  0  0  0  0  0  0
  1 18  1  0  0  0  0
  2  1  1  0  0  0  0
  3 19  1  0  0  0  0
  4  1  2  0  0  0  0
  5  7  1  0  0  0  0
  5 12  2  0  0  0  0
  6  3  1  0  0  0  0
  7 10  1  0  0  0  0
  8  2  1  0  0  0  0
  8 11  2  0  0  0  0
  9 13  1  0  0  0  0
 10  4  1  0  0  0  0
 12  8  1  0  0  0  0
 13 16  1  0  0  0  0
 13 15  1  1  0  0  0
 14 12  1  0  0  0  0
 14  9  2  0  0  0  0
 15  3  1  0  0  0  0
 16 11  1  0  0  0  0
 16  6  1  1  0  0  0
 18 17  1  0  0  0  0
 20 22  2  0  0  0  0
 21 19  1  0  0  0  0
 22 21  2  0  0  0  0
 23 24  1  0  0  0  0
 24 20  1  0  0  0  0
 26 24  1  0  0  0  0
 26 25  1  0  0  0  0
 27 14  1  0  0  0  0
 28 27  1  0  0  0  0
 29 30  2  0  0  0  0
 30 28  1  0  0  0  0
 31 30  1  0  0  0  0
 32 31  1  0  0  0  0
M  END
>  <MODEL>
1

>  <REMARK>
 VINA RESULT:      -7.0      0.000      0.000
  Name = 
  9 active torsions:
  status: ('A' for Active; 'I' for Inactive)
    1  A    between atoms: C_3  and  O_15
    2  A    between atoms: C_5  and  N_28
    3  A    between atoms: N_6  and  C_13
    4  A    between atoms: C_9  and  N_28
    5  A    between atoms: C_13  and  C_17
    6  A    between atoms: C_14  and  C_25
    7  A    between atoms: C_14  and  C_31
    8  A    between atoms: O_18  and  C_31
    9  A    between atoms: C_25  and  C_29
                            x       y       z     vdW  Elec       q    Type
                         _______ _______ _______ _____ _____    ______ ____

>  <TORSDO>
F 9

$$$$
=
 OpenBabel11042414533D

 32 34  0  0  1  0  0  0  0  0999 V2000
  186.0130  178.2960  143.5530 C   0  0  0  0  0  0  0  0  0  0  0  0
  186.7400  176.9860  143.6700 C   0  0  0  0  0  2  0  0  0  0  0  0
  191.9110  176.8890  144.6000 N   0  0  0  0  0  0  0  0  0  0  0  0
  185.3400  178.5910  142.4820 N   0  0  0  0  0  0  0  0  0  0  0  0
  187.3600  176.6750  140.5660 N   0  0  0  0  0  0  0  0  0  0  0  0
  191.4010  178.0010  143.7940 C   0  0  0  0  0  2  0  0  0  0  0  0
  186.5350  177.8770  140.4890 C   0  0  0  0  0  2  0  0  0  0  0  0
  188.0130  177.0030  142.8910 C   0  0  0  0  0  0  0  0  0  0  0  0
  190.0890  175.0100  142.0180 N   0  0  0  0  0  0  0  0  0  0  0  0
  185.2630  177.7300  141.3090 C   0  0  0  0  0  2  0  0  0  0  0  0
  189.0930  177.4290  143.4630 N   0  0  0  0  0  0  0  0  0  0  0  0
  188.0740  176.3120  141.5930 C   0  0  0  0  0  0  0  0  0  0  0  0
  190.9610  176.0600  142.5660 C   0  0  2  0  0  3  0  0  0  0  0  0
  188.8910  175.0910  141.5150 C   0  0  0  0  0  0  0  0  0  0  0  0
  191.5900  175.6590  143.8760 C   0  0  0  0  0  2  0  0  0  0  0  0
  190.3960  177.4470  142.8090 C   0  0  2  0  0  3  0  0  0  0  0  0
  185.7900  178.8610  145.9470 C   0  0  0  0  0  1  0  0  0  0  0  0
  186.0460  179.2230  144.5980 O   0  0  0  0  0  0  0  0  0  0  0  0
  193.3590  177.0170  144.6250 C   0  0  0  0  0  2  0  0  0  0  0  0
  192.1830  176.5500  147.9870 C   0  0  0  0  0  3  0  0  0  0  0  0
  193.8640  176.7690  146.0020 C   0  0  0  0  0  3  0  0  0  0  0  0
  193.0260  176.6600  146.9940 C   0  0  0  0  0  0  0  0  0  0  0  0
  189.9780  177.6380  147.6930 C   0  0  0  0  0  1  0  0  0  0  0  0
  190.7700  176.4270  147.7830 N   0  0  0  0  0  0  0  0  0  0  0  0
  188.8640  175.3400  146.7090 C   0  0  0  0  0  1  0  0  0  0  0  0
  190.1120  175.1470  147.5520 C   0  0  0  0  0  2  0  0  0  0  0  0
  188.3030  173.8690  140.8830 C   0  0  0  0  0  2  0  0  0  0  0  0
  187.8340  172.8720  141.9360 C   0  0  0  0  0  2  0  0  0  0  0  0
  189.8150  171.6090  141.5610 O   0  0  0  0  0  0  0  0  0  0  0  0
  188.9630  172.0050  142.3990 C   0  0  0  0  0  0  0  0  0  0  0  0
  189.1070  171.6420  143.7400 O   0  0  0  0  0  0  0  0  0  0  0  0
  189.8210  172.4420  144.6710 C   0  0  0  0  0  1  0  0  0  0  0  0
  1  2  1  0  0  0  0
  1 18  1  0  0  0  0
  3 19  1  0  0  0  0
  4  1  2  0  0  0  0
  5 12  2  0  0  0  0
  6  3  1  0  0  0  0
  7  5  1  0  0  0  0
  7 10  1  0  0  0  0
  8 11  2  0  0  0  0
  8  2  1  0  0  0  0
  9 13  1  0  0  0  0
 10  4  1  0  0  0  0
 12  8  1  0  0  0  0
 13 16  1  0  0  0  0
 13 15  1  1  0  0  0
 14 12  1  0  0  0  0
 14  9  2  0  0  0  0
 15  3  1  0  0  0  0
 16 11  1  0  0  0  0
 16  6  1  1  0  0  0
 18 17  1  0  0  0  0
 19 21  1  0  0  0  0
 21 22  2  0  0  0  0
 22 20  2  0  0  0  0
 23 24  1  0  0  0  0
 24 20  1  0  0  0  0
 25 26  1  0  0  0  0
 26 24  1  0  0  0  0
 27 14  1  0  0  0  0
 27 28  1  0  0  0  0
 28 30  1  0  0  0  0
 29 30  2  0  0  0  0
 30 31  1  0  0  0  0
 31 32  1  0  0  0  0
M  END
>  <MODEL>
2

>  <REMARK>
 VINA RESULT:      -6.6      2.087      3.521
  Name = 
  9 active torsions:
  status: ('A' for Active; 'I' for Inactive)
    1  A    between atoms: C_3  and  O_15
    2  A    between atoms: C_5  and  N_28
    3  A    between atoms: N_6  and  C_13
    4  A    between atoms: C_9  and  N_28
    5  A    between atoms: C_13  and  C_17
    6  A    between atoms: C_14  and  C_25
    7  A    between atoms: C_14  and  C_31
    8  A    between atoms: O_18  and  C_31
    9  A    between atoms: C_25  and  C_29
                            x       y       z     vdW  Elec       q    Type
                         _______ _______ _______ _____ _____    ______ ____

>  <TORSDO>
F 9

$$$$
=
 OpenBabel11042414533D

 32 34  0  0  1  0  0  0  0  0999 V2000
  185.7760  178.2410  144.6060 C   0  0  0  0  0  0  0  0  0  0  0  0
  186.4960  176.9230  144.6390 C   0  0  0  0  0  2  0  0  0  0  0  0
  191.7180  176.7600  145.1960 N   0  0  0  0  0  0  0  0  0  0  0  0
  185.0310  178.5680  143.5930 N   0  0  0  0  0  0  0  0  0  0  0  0
  186.8920  176.6820  141.4920 N   0  0  0  0  0  0  0  0  0  0  0  0
  191.1650  177.8950  144.4550 C   0  0  0  0  0  2  0  0  0  0  0  0
  186.0750  177.8920  141.5030 C   0  0  0  0  0  2  0  0  0  0  0  0
  187.7110  176.9480  143.7720 C   0  0  0  0  0  0  0  0  0  0  0  0
  189.7000  174.9600  142.7070 N   0  0  0  0  0  0  0  0  0  0  0  0
  184.8640  177.7360  142.4080 C   0  0  0  0  0  2  0  0  0  0  0  0
  188.8330  177.3500  144.2760 N   0  0  0  0  0  0  0  0  0  0  0  0
  187.6730  176.2880  142.4570 C   0  0  0  0  0  0  0  0  0  0  0  0
  190.6190  175.9890  143.2160 C   0  0  2  0  0  3  0  0  0  0  0  0
  188.4700  175.0630  142.2920 C   0  0  0  0  0  0  0  0  0  0  0  0
  191.3350  175.5500  144.4680 C   0  0  0  0  0  2  0  0  0  0  0  0
  190.0870  177.3730  143.5310 C   0  0  2  0  0  3  0  0  0  0  0  0
  185.2550  178.9320  146.9190 C   0  0  0  0  0  1  0  0  0  0  0  0
  185.8920  179.1420  145.6670 O   0  0  0  0  0  0  0  0  0  0  0  0
  193.1660  176.8740  145.1210 C   0  0  0  0  0  2  0  0  0  0  0  0
  195.9270  174.6990  145.8620 C   0  0  0  0  0  3  0  0  0  0  0  0
  193.7900  176.1440  146.2580 C   0  0  0  0  0  3  0  0  0  0  0  0
  194.8570  175.4220  146.0610 C   0  0  0  0  0  0  0  0  0  0  0  0
  197.9410  174.0530  144.5720 C   0  0  0  0  0  1  0  0  0  0  0  0
  196.6730  174.7540  144.6390 N   0  0  0  0  0  0  0  0  0  0  0  0
  196.7860  176.7640  143.2540 C   0  0  0  0  0  1  0  0  0  0  0  0
  196.1650  175.3890  143.4290 C   0  0  0  0  0  2  0  0  0  0  0  0
  187.8260  173.8620  141.6750 C   0  0  0  0  0  2  0  0  0  0  0  0
  188.8130  172.7060  141.5530 C   0  0  0  0  0  2  0  0  0  0  0  0
  190.5630  172.6640  139.9430 O   0  0  0  0  0  0  0  0  0  0  0  0
  189.3250  172.5790  140.1530 C   0  0  0  0  0  0  0  0  0  0  0  0
  188.4660  172.3450  139.0760 O   0  0  0  0  0  0  0  0  0  0  0  0
  188.3490  173.2470  137.9870 C   0  0  0  0  0  1  0  0  0  0  0  0
  1  2  1  0  0  0  0
  1 18  1  0  0  0  0
  4  1  2  0  0  0  0
  5  7  1  0  0  0  0
  5 12  2  0  0  0  0
  6  3  1  0  0  0  0
  7 10  1  0  0  0  0
  8 11  2  0  0  0  0
  8  2  1  0  0  0  0
  9 13  1  0  0  0  0
 10  4  1  0  0  0  0
 12  8  1  0  0  0  0
 13 16  1  0  0  0  0
 13 15  1  1  0  0  0
 14 12  1  0  0  0  0
 14  9  2  0  0  0  0
 15  3  1  0  0  0  0
 16 11  1  0  0  0  0
 16  6  1  1  0  0  0
 18 17  1  0  0  0  0
 19  3  1  0  0  0  0
 19 21  1  0  0  0  0
 20 22  2  0  0  0  0
 22 21  2  0  0  0  0
 23 24  1  0  0  0  0
 24 20  1  0  0  0  0
 25 26  1  0  0  0  0
 26 24  1  0  0  0  0
 27 14  1  0  0  0  0
 28 27  1  0  0  0  0
 29 30  2  0  0  0  0
 30 28  1  0  0  0  0
 31 30  1  0  0  0  0
 32 31  1  0  0  0  0
M  END
>  <MODEL>
3

>  <REMARK>
 VINA RESULT:      -6.6      1.550      1.970
  Name = 
  9 active torsions:
  status: ('A' for Active; 'I' for Inactive)
    1  A    between atoms: C_3  and  O_15
    2  A    between atoms: C_5  and  N_28
    3  A    between atoms: N_6  and  C_13
    4  A    between atoms: C_9  and  N_28
    5  A    between atoms: C_13  and  C_17
    6  A    between atoms: C_14  and  C_25
    7  A    between atoms: C_14  and  C_31
    8  A    between atoms: O_18  and  C_31
    9  A    between atoms: C_25  and  C_29
                            x       y       z     vdW  Elec       q    Type
                         _______ _______ _______ _____ _____    ______ ____

>  <TORSDO>
F 9

$$$$
=
 OpenBabel11042414533D

 32 34  0  0  1  0  0  0  0  0999 V2000
  186.0150  178.3710  143.5670 C   0  0  0  0  0  0  0  0  0  0  0  0
  186.6870  177.0330  143.6990 C   0  0  0  0  0  2  0  0  0  0  0  0
  191.8590  176.7300  144.5710 N   0  0  0  0  0  0  0  0  0  0  0  0
  185.3420  178.6760  142.4990 N   0  0  0  0  0  0  0  0  0  0  0  0
  187.2540  176.6400  140.5950 N   0  0  0  0  0  0  0  0  0  0  0  0
  191.3880  177.8480  143.7500 C   0  0  0  0  0  2  0  0  0  0  0  0
  186.4800  177.8740  140.5050 C   0  0  0  0  0  2  0  0  0  0  0  0
  187.9490  176.9810  142.9050 C   0  0  0  0  0  0  0  0  0  0  0  0
  189.9270  174.8850  142.0460 N   0  0  0  0  0  0  0  0  0  0  0  0
  185.2140  177.7970  141.3420 C   0  0  0  0  0  2  0  0  0  0  0  0
  189.0530  177.3700  143.4570 N   0  0  0  0  0  0  0  0  0  0  0  0
  187.9640  176.2640  141.6200 C   0  0  0  0  0  0  0  0  0  0  0  0
  190.8500  175.9060  142.5640 C   0  0  2  0  0  3  0  0  0  0  0  0
  188.7270  175.0090  141.5550 C   0  0  0  0  0  0  0  0  0  0  0  0
  191.4770  175.5010  143.8740 C   0  0  0  0  0  2  0  0  0  0  0  0
  190.3480  177.3200  142.7880 C   0  0  2  0  0  3  0  0  0  0  0  0
  185.7760  179.0060  145.9420 C   0  0  0  0  0  1  0  0  0  0  0  0
  186.1010  179.3150  144.5940 O   0  0  0  0  0  0  0  0  0  0  0  0
  193.3110  176.7950  144.5770 C   0  0  0  0  0  2  0  0  0  0  0  0
  192.1520  176.4670  147.9610 C   0  0  0  0  0  3  0  0  0  0  0  0
  193.8210  176.5760  145.9570 C   0  0  0  0  0  3  0  0  0  0  0  0
  192.9890  176.5210  146.9580 C   0  0  0  0  0  0  0  0  0  0  0  0
  189.9710  177.6070  147.6850 C   0  0  0  0  0  1  0  0  0  0  0  0
  190.7340  176.3770  147.7720 N   0  0  0  0  0  0  0  0  0  0  0  0
  188.7430  175.3450  146.8040 C   0  0  0  0  0  1  0  0  0  0  0  0
  190.0430  175.1120  147.5530 C   0  0  0  0  0  2  0  0  0  0  0  0
  188.0800  173.8020  140.9530 C   0  0  0  0  0  2  0  0  0  0  0  0
  189.0050  173.1170  139.9540 C   0  0  0  0  0  2  0  0  0  0  0  0
  190.1110  173.9230  138.0090 O   0  0  0  0  0  0  0  0  0  0  0  0
  189.0310  173.8520  138.6510 C   0  0  0  0  0  0  0  0  0  0  0  0
  187.8810  174.4410  138.1180 O   0  0  0  0  0  0  0  0  0  0  0  0
  187.8430  174.9840  136.8070 C   0  0  0  0  0  1  0  0  0  0  0  0
  1  2  1  0  0  0  0
  1 18  1  0  0  0  0
  3 19  1  0  0  0  0
  4  1  2  0  0  0  0
  5 12  2  0  0  0  0
  6  3  1  0  0  0  0
  7  5  1  0  0  0  0
  7 10  1  0  0  0  0
  8 11  2  0  0  0  0
  8  2  1  0  0  0  0
  9 13  1  0  0  0  0
 10  4  1  0  0  0  0
 12  8  1  0  0  0  0
 13 16  1  0  0  0  0
 13 15  1  1  0  0  0
 14 12  1  0  0  0  0
 14  9  2  0  0  0  0
 15  3  1  0  0  0  0
 16 11  1  0  0  0  0
 16  6  1  1  0  0  0
 18 17  1  0  0  0  0
 19 21  1  0  0  0  0
 21 22  2  0  0  0  0
 22 20  2  0  0  0  0
 23 24  1  0  0  0  0
 24 20  1  0  0  0  0
 25 26  1  0  0  0  0
 26 24  1  0  0  0  0
 27 14  1  0  0  0  0
 28 27  1  0  0  0  0
 29 30  2  0  0  0  0
 30 28  1  0  0  0  0
 31 30  1  0  0  0  0
 32 31  1  0  0  0  0
M  END
>  <MODEL>
4

>  <REMARK>
 VINA RESULT:      -6.5      1.999      3.278
  Name = 
  9 active torsions:
  status: ('A' for Active; 'I' for Inactive)
    1  A    between atoms: C_3  and  O_15
    2  A    between atoms: C_5  and  N_28
    3  A    between atoms: N_6  and  C_13
    4  A    between atoms: C_9  and  N_28
    5  A    between atoms: C_13  and  C_17
    6  A    between atoms: C_14  and  C_25
    7  A    between atoms: C_14  and  C_31
    8  A    between atoms: O_18  and  C_31
    9  A    between atoms: C_25  and  C_29
                            x       y       z     vdW  Elec       q    Type
                         _______ _______ _______ _____ _____    ______ ____

>  <TORSDO>
F 9

$$$$
=
 OpenBabel11042414533D

 32 34  0  0  1  0  0  0  0  0999 V2000
  184.9890  178.3800  142.8600 C   0  0  0  0  0  0  0  0  0  0  0  0
  186.4900  178.3330  142.7940 C   0  0  0  0  0  2  0  0  0  0  0  0
  188.9300  174.1450  140.7670 N   0  0  0  0  0  0  0  0  0  0  0  0
  184.3770  178.5510  143.9930 N   0  0  0  0  0  0  0  0  0  0  0  0
  186.9090  177.0910  145.6920 N   0  0  0  0  0  0  0  0  0  0  0  0
  187.6750  173.9010  141.4790 C   0  0  0  0  0  2  0  0  0  0  0  0
  185.4630  177.2800  145.7590 C   0  0  0  0  0  2  0  0  0  0  0  0
  187.0100  177.0130  143.2580 C   0  0  0  0  0  0  0  0  0  0  0  0
  189.6810  175.8180  143.9520 N   0  0  0  0  0  0  0  0  0  0  0  0
  185.0610  178.6640  145.2750 C   0  0  0  0  0  2  0  0  0  0  0  0
  187.1380  176.0530  142.4000 N   0  0  0  0  0  0  0  0  0  0  0  0
  187.5980  176.9020  144.6030 C   0  0  0  0  0  0  0  0  0  0  0  0
  189.1570  174.7690  143.0650 C   0  0  2  0  0  3  0  0  0  0  0  0
  189.0500  176.6870  144.6900 C   0  0  0  0  0  0  0  0  0  0  0  0
  189.8550  174.7450  141.7290 C   0  0  0  0  0  2  0  0  0  0  0  0
  187.6760  174.7400  142.7380 C   0  0  2  0  0  3  0  0  0  0  0  0
  184.7910  178.2870  140.4000 C   0  0  0  0  0  1  0  0  0  0  0  0
  184.2220  178.2430  141.7010 O   0  0  0  0  0  0  0  0  0  0  0  0
  189.4660  172.8430  140.4010 C   0  0  0  0  0  2  0  0  0  0  0  0
  190.5610  173.7930  137.1140 C   0  0  0  0  0  3  0  0  0  0  0  0
  190.7090  173.0150  139.6010 C   0  0  0  0  0  3  0  0  0  0  0  0
  190.6360  173.4030  138.3600 C   0  0  0  0  0  0  0  0  0  0  0  0
  189.2830  174.4580  135.0990 C   0  0  0  0  0  1  0  0  0  0  0  0
  189.3460  174.2900  136.5380 N   0  0  0  0  0  0  0  0  0  0  0  0
  187.3430  175.6760  136.7260 C   0  0  0  0  0  1  0  0  0  0  0  0
  188.1380  174.5260  137.3200 C   0  0  0  0  0  2  0  0  0  0  0  0
  189.8510  177.5400  145.6220 C   0  0  0  0  0  2  0  0  0  0  0  0
  191.1100  176.8190  146.0880 C   0  0  0  0  0  2  0  0  0  0  0  0
  191.1920  176.8840  148.4650 O   0  0  0  0  0  0  0  0  0  0  0  0
  190.9130  176.2080  147.4410 C   0  0  0  0  0  0  0  0  0  0  0  0
  190.4050  174.9160  147.5950 O   0  0  0  0  0  0  0  0  0  0  0  0
  189.0120  174.6440  147.6130 C   0  0  0  0  0  1  0  0  0  0  0  0
  1  4  2  0  0  0  0
  2  1  1  0  0  0  0
  2  8  1  0  0  0  0
  3  6  1  0  0  0  0
  3 15  1  0  0  0  0
  4 10  1  0  0  0  0
  5  7  1  0  0  0  0
  8 12  1  0  0  0  0
  9 14  2  0  0  0  0
 10  7  1  0  0  0  0
 11 16  1  0  0  0  0
 11  8  2  0  0  0  0
 12 14  1  0  0  0  0
 12  5  2  0  0  0  0
 13 15  1  6  0  0  0
 13  9  1  0  0  0  0
 14 27  1  0  0  0  0
 16  6  1  6  0  0  0
 16 13  1  0  0  0  0
 17 18  1  0  0  0  0
 18  1  1  0  0  0  0
 19  3  1  0  0  0  0
 20 22  2  0  0  0  0
 21 19  1  0  0  0  0
 22 21  2  0  0  0  0
 23 24  1  0  0  0  0
 24 20  1  0  0  0  0
 24 26  1  0  0  0  0
 25 26  1  0  0  0  0
 27 28  1  0  0  0  0
 28 30  1  0  0  0  0
 30 31  1  0  0  0  0
 30 29  2  0  0  0  0
 31 32  1  0  0  0  0
M  END
>  <MODEL>
5

>  <REMARK>
 VINA RESULT:      -6.3      3.145      6.906
  Name = 
  9 active torsions:
  status: ('A' for Active; 'I' for Inactive)
    1  A    between atoms: C_3  and  O_15
    2  A    between atoms: C_5  and  N_28
    3  A    between atoms: N_6  and  C_13
    4  A    between atoms: C_9  and  N_28
    5  A    between atoms: C_13  and  C_17
    6  A    between atoms: C_14  and  C_25
    7  A    between atoms: C_14  and  C_31
    8  A    between atoms: O_18  and  C_31
    9  A    between atoms: C_25  and  C_29
                            x       y       z     vdW  Elec       q    Type
                         _______ _______ _______ _____ _____    ______ ____

>  <TORSDO>
F 9

$$$$
=
 OpenBabel11042414533D

 32 34  0  0  1  0  0  0  0  0999 V2000
  185.6120  177.7660  146.4030 C   0  0  0  0  0  0  0  0  0  0  0  0
  186.0740  176.8630  145.2940 C   0  0  0  0  0  2  0  0  0  0  0  0
  191.1850  176.4680  144.1400 N   0  0  0  0  0  0  0  0  0  0  0  0
  184.7530  178.7130  146.1770 N   0  0  0  0  0  0  0  0  0  0  0  0
  185.7840  179.0160  142.9710 N   0  0  0  0  0  0  0  0  0  0  0  0
  190.7090  177.7690  144.6140 C   0  0  0  0  0  2  0  0  0  0  0  0
  185.2190  179.8110  144.0570 C   0  0  0  0  0  2  0  0  0  0  0  0
  187.0760  177.5440  144.4230 C   0  0  0  0  0  0  0  0  0  0  0  0
  188.4190  177.0220  141.7830 N   0  0  0  0  0  0  0  0  0  0  0  0
  184.2040  179.0130  144.8600 C   0  0  0  0  0  2  0  0  0  0  0  0
  188.3290  177.4750  144.7350 N   0  0  0  0  0  0  0  0  0  0  0  0
  186.6570  178.0590  143.1090 C   0  0  0  0  0  0  0  0  0  0  0  0
  189.5910  177.3690  142.6000 C   0  0  2  0  0  3  0  0  0  0  0  0
  187.1700  177.3670  141.9170 C   0  0  0  0  0  0  0  0  0  0  0  0
  190.4510  176.1700  142.9100 C   0  0  0  0  0  2  0  0  0  0  0  0
  189.3930  178.0670  143.9320 C   0  0  2  0  0  3  0  0  0  0  0  0
  186.9280  178.5690  148.3330 C   0  0  0  0  0  1  0  0  0  0  0  0
  186.0990  177.6030  147.7020 O   0  0  0  0  0  0  0  0  0  0  0  0
  192.5840  176.6350  143.7840 C   0  0  0  0  0  2  0  0  0  0  0  0
  194.9350  175.6170  146.3040 C   0  0  0  0  0  3  0  0  0  0  0  0
  193.3400  177.1760  144.9470 C   0  0  0  0  0  3  0  0  0  0  0  0
  194.1360  176.3990  145.6250 C   0  0  0  0  0  0  0  0  0  0  0  0
  194.2480  173.4120  145.4090 C   0  0  0  0  0  1  0  0  0  0  0  0
  195.3000  174.3100  145.8440 N   0  0  0  0  0  0  0  0  0  0  0  0
  196.8350  172.4240  146.0850 C   0  0  0  0  0  1  0  0  0  0  0  0
  196.6860  173.8830  145.6900 C   0  0  0  0  0  2  0  0  0  0  0  0
  186.2100  176.9880  140.8350 C   0  0  0  0  0  2  0  0  0  0  0  0
  186.6860  177.4820  139.4740 C   0  0  0  0  0  2  0  0  0  0  0  0
  187.5640  175.3340  138.9520 O   0  0  0  0  0  0  0  0  0  0  0  0
  186.9290  176.3390  138.5390 C   0  0  0  0  0  0  0  0  0  0  0  0
  186.4490  176.3500  137.2270 O   0  0  0  0  0  0  0  0  0  0  0  0
  187.2590  175.9900  136.1180 C   0  0  0  0  0  1  0  0  0  0  0  0
  1 18  1  0  0  0  0
  2  1  1  0  0  0  0
  3  6  1  0  0  0  0
  4  1  2  0  0  0  0
  5 12  2  0  0  0  0
  5  7  1  0  0  0  0
  7 10  1  0  0  0  0
  8 11  2  0  0  0  0
  8  2  1  0  0  0  0
  9 14  2  0  0  0  0
  9 13  1  0  0  0  0
 10  4  1  0  0  0  0
 12  8  1  0  0  0  0
 13 15  1  1  0  0  0
 13 16  1  0  0  0  0
 14 12  1  0  0  0  0
 15  3  1  0  0  0  0
 16  6  1  1  0  0  0
 16 11  1  0  0  0  0
 18 17  1  0  0  0  0
 19  3  1  0  0  0  0
 19 21  1  0  0  0  0
 21 22  2  0  0  0  0
 22 20  2  0  0  0  0
 23 24  1  0  0  0  0
 24 20  1  0  0  0  0
 26 24  1  0  0  0  0
 26 25  1  0  0  0  0
 27 14  1  0  0  0  0
 28 27  1  0  0  0  0
 30 29  2  0  0  0  0
 30 28  1  0  0  0  0
 31 30  1  0  0  0  0
 32 31  1  0  0  0  0
M  END
>  <MODEL>
6

>  <REMARK>
 VINA RESULT:      -6.3      2.254      2.585
  Name = 
  9 active torsions:
  status: ('A' for Active; 'I' for Inactive)
    1  A    between atoms: C_3  and  O_15
    2  A    between atoms: C_5  and  N_28
    3  A    between atoms: N_6  and  C_13
    4  A    between atoms: C_9  and  N_28
    5  A    between atoms: C_13  and  C_17
    6  A    between atoms: C_14  and  C_25
    7  A    between atoms: C_14  and  C_31
    8  A    between atoms: O_18  and  C_31
    9  A    between atoms: C_25  and  C_29
                            x       y       z     vdW  Elec       q    Type
                         _______ _______ _______ _____ _____    ______ ____

>  <TORSDO>
F 9

$$$$
=
 OpenBabel11042414533D

 32 34  0  0  1  0  0  0  0  0999 V2000
  190.5230  172.8150  141.6080 C   0  0  0  0  0  0  0  0  0  0  0  0
  190.3640  173.5830  142.8910 C   0  0  0  0  0  2  0  0  0  0  0  0
  187.0790  177.6750  143.1480 N   0  0  0  0  0  0  0  0  0  0  0  0
  191.6890  172.6850  141.0500 N   0  0  0  0  0  0  0  0  0  0  0  0
  192.7500  175.6170  142.3560 N   0  0  0  0  0  0  0  0  0  0  0  0
  187.7580  177.4480  141.8710 C   0  0  0  0  0  2  0  0  0  0  0  0
  192.9480  174.7610  141.1900 C   0  0  0  0  0  2  0  0  0  0  0  0
  190.3970  175.0550  142.6470 C   0  0  0  0  0  0  0  0  0  0  0  0
  190.5670  177.5590  144.3030 N   0  0  0  0  0  0  0  0  0  0  0  0
  192.9090  173.2890  141.5700 C   0  0  0  0  0  2  0  0  0  0  0  0
  189.2910  175.6690  142.3720 N   0  0  0  0  0  0  0  0  0  0  0  0
  191.6170  175.8130  142.9680 C   0  0  0  0  0  0  0  0  0  0  0  0
  189.4440  177.9140  143.4220 C   0  0  2  0  0  3  0  0  0  0  0  0
  191.5580  176.7370  144.1100 C   0  0  0  0  0  0  0  0  0  0  0  0
  188.1220  177.9090  144.1480 C   0  0  0  0  0  2  0  0  0  0  0  0
  189.2030  177.1090  142.1590 C   0  0  2  0  0  3  0  0  0  0  0  0
  188.5690  172.9360  140.1030 C   0  0  0  0  0  1  0  0  0  0  0  0
  189.4180  172.2230  140.9920 O   0  0  0  0  0  0  0  0  0  0  0  0
  186.3230  178.9090  143.0090 C   0  0  0  0  0  2  0  0  0  0  0  0
  184.4670  178.0510  145.9630 C   0  0  0  0  0  3  0  0  0  0  0  0
  184.9260  178.7010  143.4770 C   0  0  0  0  0  3  0  0  0  0  0  0
  184.6960  178.3760  144.7180 C   0  0  0  0  0  0  0  0  0  0  0  0
  185.9370  179.4090  147.4220 C   0  0  0  0  0  1  0  0  0  0  0  0
  185.4860  178.1070  146.9700 N   0  0  0  0  0  0  0  0  0  0  0  0
  187.2500  176.4180  146.9220 C   0  0  0  0  0  1  0  0  0  0  0  0
  186.0070  176.9200  147.6360 C   0  0  0  0  0  2  0  0  0  0  0  0
  192.6520  176.6940  145.1290 C   0  0  0  0  0  2  0  0  0  0  0  0
  192.6370  175.3800  145.9030 C   0  0  0  0  0  2  0  0  0  0  0  0
  190.4610  174.5660  146.4170 O   0  0  0  0  0  0  0  0  0  0  0  0
  191.4280  175.2850  146.7810 C   0  0  0  0  0  0  0  0  0  0  0  0
  191.3560  175.9550  148.0050 O   0  0  0  0  0  0  0  0  0  0  0  0
  190.8010  177.2550  148.1290 C   0  0  0  0  0  1  0  0  0  0  0  0
  1  2  1  0  0  0  0
  3 15  1  0  0  0  0
  4 10  1  0  0  0  0
  4  1  2  0  0  0  0
  5 12  2  0  0  0  0
  6  3  1  0  0  0  0
  7 10  1  0  0  0  0
  7  5  1  0  0  0  0
  8  2  1  0  0  0  0
  8 12  1  0  0  0  0
 11  8  2  0  0  0  0
 12 14  1  0  0  0  0
 13 15  1  1  0  0  0
 13  9  1  0  0  0  0
 14  9  2  0  0  0  0
 14 27  1  0  0  0  0
 16  6  1  1  0  0  0
 16 11  1  0  0  0  0
 16 13  1  0  0  0  0
 17 18  1  0  0  0  0
 18  1  1  0  0  0  0
 19  3  1  0  0  0  0
 19 21  1  0  0  0  0
 20 24  1  0  0  0  0
 21 22  2  0  0  0  0
 22 20  2  0  0  0  0
 24 23  1  0  0  0  0
 24 26  1  0  0  0  0
 25 26  1  0  0  0  0
 27 28  1  0  0  0  0
 28 30  1  0  0  0  0
 29 30  2  0  0  0  0
 30 31  1  0  0  0  0
 31 32  1  0  0  0  0
M  END
>  <MODEL>
7

>  <REMARK>
 VINA RESULT:      -6.3      2.775      7.737
  Name = 
  9 active torsions:
  status: ('A' for Active; 'I' for Inactive)
    1  A    between atoms: C_3  and  O_15
    2  A    between atoms: C_5  and  N_28
    3  A    between atoms: N_6  and  C_13
    4  A    between atoms: C_9  and  N_28
    5  A    between atoms: C_13  and  C_17
    6  A    between atoms: C_14  and  C_25
    7  A    between atoms: C_14  and  C_31
    8  A    between atoms: O_18  and  C_31
    9  A    between atoms: C_25  and  C_29
                            x       y       z     vdW  Elec       q    Type
                         _______ _______ _______ _____ _____    ______ ____

>  <TORSDO>
F 9

$$$$
=
 OpenBabel11042414533D

 32 34  0  0  1  0  0  0  0  0999 V2000
  185.7620  178.4680  142.0250 C   0  0  0  0  0  0  0  0  0  0  0  0
  187.2370  178.2830  142.2500 C   0  0  0  0  0  2  0  0  0  0  0  0
  189.5800  173.7670  140.9400 N   0  0  0  0  0  0  0  0  0  0  0  0
  184.9700  178.7690  143.0090 N   0  0  0  0  0  0  0  0  0  0  0  0
  186.9820  177.2080  145.2330 N   0  0  0  0  0  0  0  0  0  0  0  0
  188.1960  173.6850  141.4090 C   0  0  0  0  0  2  0  0  0  0  0  0
  185.5750  177.5280  145.0110 C   0  0  0  0  0  2  0  0  0  0  0  0
  187.5260  176.9570  142.8710 C   0  0  0  0  0  0  0  0  0  0  0  0
  189.8870  175.5790  144.1230 N   0  0  0  0  0  0  0  0  0  0  0  0
  185.4110  178.9070  144.3920 C   0  0  0  0  0  2  0  0  0  0  0  0
  187.7150  175.9330  142.1020 N   0  0  0  0  0  0  0  0  0  0  0  0
  187.8390  176.8850  144.3070 C   0  0  0  0  0  0  0  0  0  0  0  0
  189.4350  174.5220  143.2050 C   0  0  2  0  0  3  0  0  0  0  0  0
  189.2200  176.5480  144.6820 C   0  0  0  0  0  0  0  0  0  0  0  0
  190.3640  174.3470  142.0310 C   0  0  0  0  0  2  0  0  0  0  0  0
  188.0470  174.6030  142.6010 C   0  0  2  0  0  3  0  0  0  0  0  0
  183.8130  178.2920  140.5180 C   0  0  0  0  0  1  0  0  0  0  0  0
  185.2150  178.3220  140.7480 O   0  0  0  0  0  0  0  0  0  0  0  0
  190.0410  172.4020  140.7490 C   0  0  0  0  0  2  0  0  0  0  0  0
  191.6740  172.8450  137.5790 C   0  0  0  0  0  3  0  0  0  0  0  0
  191.3980  172.4070  140.1380 C   0  0  0  0  0  3  0  0  0  0  0  0
  191.5370  172.6260  138.8610 C   0  0  0  0  0  0  0  0  0  0  0  0
  190.7730  174.5450  136.0190 C   0  0  0  0  0  1  0  0  0  0  0  0
  190.5930  173.3130  136.7620 N   0  0  0  0  0  0  0  0  0  0  0  0
  189.6910  171.1660  136.0230 C   0  0  0  0  0  1  0  0  0  0  0  0
  189.3670  172.5500  136.5580 C   0  0  0  0  0  2  0  0  0  0  0  0
  189.9150  177.3870  145.7070 C   0  0  0  0  0  2  0  0  0  0  0  0
  190.0190  176.6590  147.0420 C   0  0  0  0  0  2  0  0  0  0  0  0
  191.5260  177.3000  148.7670 O   0  0  0  0  0  0  0  0  0  0  0  0
  191.3910  176.7910  147.6230 C   0  0  0  0  0  0  0  0  0  0  0  0
  192.5240  176.3420  146.9390 O   0  0  0  0  0  0  0  0  0  0  0  0
  192.6680  174.9980  146.5070 C   0  0  0  0  0  1  0  0  0  0  0  0
  1  2  1  0  0  0  0
  1  4  2  0  0  0  0
  2  8  1  0  0  0  0
  3  6  1  0  0  0  0
  3 15  1  0  0  0  0
  4 10  1  0  0  0  0
  7  5  1  0  0  0  0
  8 12  1  0  0  0  0
  9 14  2  0  0  0  0
 10  7  1  0  0  0  0
 11 16  1  0  0  0  0
 11  8  2  0  0  0  0
 12 14  1  0  0  0  0
 12  5  2  0  0  0  0
 13 15  1  6  0  0  0
 13  9  1  0  0  0  0
 14 27  1  0  0  0  0
 16  6  1  6  0  0  0
 16 13  1  0  0  0  0
 17 18  1  0  0  0  0
 18  1  1  0  0  0  0
 19  3  1  0  0  0  0
 20 22  2  0  0  0  0
 21 19  1  0  0  0  0
 22 21  2  0  0  0  0
 23 24  1  0  0  0  0
 24 20  1  0  0  0  0
 25 26  1  0  0  0  0
 26 24  1  0  0  0  0
 27 28  1  0  0  0  0
 28 30  1  0  0  0  0
 30 29  2  0  0  0  0
 31 30  1  0  0  0  0
 32 31  1  0  0  0  0
M  END
>  <MODEL>
8

>  <REMARK>
 VINA RESULT:      -6.1      3.115      6.780
  Name = 
  9 active torsions:
  status: ('A' for Active; 'I' for Inactive)
    1  A    between atoms: C_3  and  O_15
    2  A    between atoms: C_5  and  N_28
    3  A    between atoms: N_6  and  C_13
    4  A    between atoms: C_9  and  N_28
    5  A    between atoms: C_13  and  C_17
    6  A    between atoms: C_14  and  C_25
    7  A    between atoms: C_14  and  C_31
    8  A    between atoms: O_18  and  C_31
    9  A    between atoms: C_25  and  C_29
                            x       y       z     vdW  Elec       q    Type
                         _______ _______ _______ _____ _____    ______ ____

>  <TORSDO>
F 9

$$$$
=
 OpenBabel11042414533D

 32 34  0  0  1  0  0  0  0  0999 V2000
  185.2080  178.3150  142.9080 C   0  0  0  0  0  0  0  0  0  0  0  0
  186.7040  178.2970  143.0470 C   0  0  0  0  0  2  0  0  0  0  0  0
  189.5180  174.3680  140.9870 N   0  0  0  0  0  0  0  0  0  0  0  0
  184.4410  178.3630  143.9550 N   0  0  0  0  0  0  0  0  0  0  0  0
  186.7570  176.7800  145.8420 N   0  0  0  0  0  0  0  0  0  0  0  0
  188.1840  174.0360  141.4900 C   0  0  0  0  0  2  0  0  0  0  0  0
  185.3110  176.9390  145.7250 C   0  0  0  0  0  2  0  0  0  0  0  0
  187.1930  176.9460  143.4500 C   0  0  0  0  0  0  0  0  0  0  0  0
  189.7760  175.7280  144.3920 N   0  0  0  0  0  0  0  0  0  0  0  0
  184.9390  178.3590  145.3250 C   0  0  0  0  0  2  0  0  0  0  0  0
  187.4650  176.0770  142.5300 N   0  0  0  0  0  0  0  0  0  0  0  0
  187.5940  176.7100  144.8470 C   0  0  0  0  0  0  0  0  0  0  0  0
  189.4090  174.7640  143.3440 C   0  0  2  0  0  3  0  0  0  0  0  0
  189.0260  176.5090  145.1140 C   0  0  0  0  0  0  0  0  0  0  0  0
  190.2840  174.8840  142.1220 C   0  0  0  0  0  2  0  0  0  0  0  0
  187.9890  174.7450  142.8110 C   0  0  2  0  0  3  0  0  0  0  0  0
  185.3650  178.1450  140.4490 C   0  0  0  0  0  1  0  0  0  0  0  0
  184.6110  178.2820  141.6450 O   0  0  0  0  0  0  0  0  0  0  0  0
  190.1360  173.1170  140.5760 C   0  0  0  0  0  2  0  0  0  0  0  0
  193.1930  174.1640  139.0050 C   0  0  0  0  0  3  0  0  0  0  0  0
  190.7490  173.2750  139.2290 C   0  0  0  0  0  3  0  0  0  0  0  0
  191.9680  173.7190  139.1160 C   0  0  0  0  0  0  0  0  0  0  0  0
  194.9170  175.4660  140.2160 C   0  0  0  0  0  1  0  0  0  0  0  0
  194.0660  174.2940  140.1330 N   0  0  0  0  0  0  0  0  0  0  0  0
  193.8840  174.1100  142.5620 C   0  0  0  0  0  1  0  0  0  0  0  0
  194.0570  173.3610  141.2530 C   0  0  0  0  0  2  0  0  0  0  0  0
  189.6660  177.2780  146.2260 C   0  0  0  0  0  2  0  0  0  0  0  0
  190.1770  176.3470  147.3200 C   0  0  0  0  0  2  0  0  0  0  0  0
  191.5690  177.5160  148.8550 O   0  0  0  0  0  0  0  0  0  0  0  0
  191.5140  176.7930  147.8270 C   0  0  0  0  0  0  0  0  0  0  0  0
  192.7010  176.4060  147.2010 O   0  0  0  0  0  0  0  0  0  0  0  0
  192.8020  175.2220  146.4250 C   0  0  0  0  0  1  0  0  0  0  0  0
  1  2  1  0  0  0  0
  1  4  2  0  0  0  0
  2  8  1  0  0  0  0
  3  6  1  0  0  0  0
  3 15  1  0  0  0  0
  4 10  1  0  0  0  0
  7  5  1  0  0  0  0
  8 12  1  0  0  0  0
  9 14  2  0  0  0  0
 10  7  1  0  0  0  0
 11 16  1  0  0  0  0
 11  8  2  0  0  0  0
 12 14  1  0  0  0  0
 12  5  2  0  0  0  0
 13 15  1  6  0  0  0
 13  9  1  0  0  0  0
 14 27  1  0  0  0  0
 16  6  1  6  0  0  0
 16 13  1  0  0  0  0
 17 18  1  0  0  0  0
 18  1  1  0  0  0  0
 19  3  1  0  0  0  0
 20 22  2  0  0  0  0
 20 24  1  0  0  0  0
 21 19  1  0  0  0  0
 22 21  2  0  0  0  0
 24 23  1  0  0  0  0
 24 26  1  0  0  0  0
 26 25  1  0  0  0  0
 27 28  1  0  0  0  0
 28 30  1  0  0  0  0
 30 29  2  0  0  0  0
 31 30  1  0  0  0  0
 32 31  1  0  0  0  0
M  END
>  <MODEL>
9

>  <REMARK>
 VINA RESULT:      -6.1      3.066      5.705
  Name = 
  9 active torsions:
  status: ('A' for Active; 'I' for Inactive)
    1  A    between atoms: C_3  and  O_15
    2  A    between atoms: C_5  and  N_28
    3  A    between atoms: N_6  and  C_13
    4  A    between atoms: C_9  and  N_28
    5  A    between atoms: C_13  and  C_17
    6  A    between atoms: C_14  and  C_25
    7  A    between atoms: C_14  and  C_31
    8  A    between atoms: O_18  and  C_31
    9  A    between atoms: C_25  and  C_29
                            x       y       z     vdW  Elec       q    Type
                         _______ _______ _______ _____ _____    ______ ____

>  <TORSDO>
F 9

$$$$
