=
 OpenBabel11042418553D

 31 36  0  0  1  0  0  0  0  0999 V2000
  187.7720  175.1670  141.4600 C   0  0  0  0  0  3  0  0  0  0  0  0
  193.2000  173.6640  143.7640 C   0  0  2  0  0  3  0  0  0  0  0  0
  191.1180  175.7750  147.7670 C   0  0  0  0  0  2  0  0  0  0  0  0
  191.6310  175.6590  143.4250 C   0  0  1  0  0  3  0  0  0  0  0  0
  188.9570  174.4870  141.0330 O   0  0  0  0  0  0  0  0  0  0  0  0
  190.4890  176.8460  146.8850 C   0  0  0  0  0  2  0  0  0  0  0  0
  186.6630  176.1590  143.5420 C   0  0  0  0  0  3  0  0  0  0  0  0
  192.6420  174.4770  141.4330 C   0  0  0  0  0  0  0  0  0  0  0  0
  186.6890  176.7680  144.7300 C   0  0  0  0  0  0  0  0  0  0  0  0
  194.3710  172.9670  143.2550 N   0  0  0  0  0  1  0  0  0  0  0  0
  190.3600  176.3370  145.4780 C   0  0  2  0  0  3  0  0  0  0  0  0
  192.4370  175.3010  147.1670 C   0  0  0  0  0  2  0  0  0  0  0  0
  192.8400  174.8600  142.8760 C   0  0  2  0  0  3  0  0  0  0  0  0
  190.3060  175.3410  142.7830 C   0  0  0  0  0  0  0  0  0  0  0  0
  193.6900  174.3020  140.6400 C   0  0  0  0  0  2  0  0  0  0  0  0
  193.4870  174.1610  145.1740 C   0  0  2  0  0  3  0  0  0  0  0  0
  187.8850  175.7030  142.8610 C   0  0  0  0  0  0  0  0  0  0  0  0
  191.3590  174.3050  140.9140 O   0  0  0  0  0  0  0  0  0  0  0  0
  189.0840  175.8220  143.4550 C   0  0  1  0  0  3  0  0  0  0  0  0
  189.1930  176.4150  144.8090 C   0  0  0  0  0  0  0  0  0  0  0  0
  192.1960  174.7030  145.7780 C   0  0  2  0  0  3  0  0  0  0  0  0
  191.4930  175.6540  144.8980 N   0  0  1  0  0  0  0  0  0  0  0  0
  190.2150  174.7210  141.5990 C   0  0  0  0  0  0  0  0  0  0  0  0
  187.9930  177.0940  145.4210 C   0  0  0  0  0  3  0  0  0  0  0  0
  195.5410  174.5920  145.8980 C   0  0  0  0  0  1  0  0  0  0  0  0
  194.4900  175.1430  145.1640 O   0  0  0  0  0  0  0  0  0  0  0  0
  185.4460  177.1670  145.3130 N   0  0  0  0  0  2  0  0  0  0  0  0
  185.5130  179.7870  144.1750 C   0  0  0  0  0  1  0  0  0  0  0  0
  185.6900  179.3420  146.8080 O   0  0  0  0  0  0  0  0  0  0  0  0
  183.5150  178.9320  145.7350 O   0  0  0  0  0  0  0  0  0  0  0  0
  185.0050  178.8210  145.5770 S   0  0  0  0  0  0  0  0  0  0  0  0
  1 17  2  0  0  0  0
  2 10  1  6  0  0  0
  2 16  1  0  0  0  0
  4 14  1  6  0  0  0
  4 22  1  0  0  0  0
  5  1  1  0  0  0  0
  5 23  1  0  0  0  0
  6  3  1  0  0  0  0
  7  9  2  0  0  0  0
  9 27  1  0  0  0  0
  9 24  1  0  0  0  0
 11  6  1  1  0  0  0
 12  3  1  0  0  0  0
 13  8  1  6  0  0  0
 13  4  1  0  0  0  0
 13  2  1  0  0  0  0
 15  8  2  0  0  0  0
 16 26  1  6  0  0  0
 16 21  1  0  0  0  0
 17 19  1  0  0  0  0
 17  7  1  0  0  0  0
 18  8  1  0  0  0  0
 18 23  1  0  0  0  0
 19 14  1  1  0  0  0
 19 20  1  0  0  0  0
 20 24  2  0  0  0  0
 20 11  1  0  0  0  0
 21 12  1  1  0  0  0
 22 11  1  0  0  0  0
 22 21  1  0  0  0  0
 23 14  2  0  0  0  0
 26 25  1  0  0  0  0
 27 31  1  0  0  0  0
 28 31  1  0  0  0  0
 31 30  2  0  0  0  0
 31 29  2  0  0  0  0
M  END
>  <MODEL>
1

>  <REMARK>
 VINA RESULT:      -7.6      0.000      0.000
  Name = 
  3 active torsions:
  status: ('A' for Active; 'I' for Inactive)
    1  A    between atoms: N_1  and  C_13
    2  A    between atoms: N_1  and  S_24
    3  A    between atoms: C_20  and  O_30
                            x       y       z     vdW  Elec       q    Type
                         _______ _______ _______ _____ _____    ______ ____

>  <TORSDO>
F 3

$$$$
=
 OpenBabel11042418553D

 31 36  0  0  1  0  0  0  0  0999 V2000
  190.7000  176.8060  146.9800 C   0  0  0  0  0  3  0  0  0  0  0  0
  193.0080  173.2710  142.5980 C   0  0  2  0  0  3  0  0  0  0  0  0
  188.6750  174.5370  140.4930 C   0  0  0  0  0  2  0  0  0  0  0  0
  190.9490  173.5490  144.0950 C   0  0  1  0  0  3  0  0  0  0  0  0
  191.9080  176.0820  146.7240 O   0  0  0  0  0  0  0  0  0  0  0  0
  187.9730  174.4070  141.8390 C   0  0  0  0  0  2  0  0  0  0  0  0
  188.5200  177.5410  145.8590 C   0  0  0  0  0  3  0  0  0  0  0  0
  193.2000  173.0070  145.1070 C   0  0  0  0  0  0  0  0  0  0  0  0
  187.5040  177.3770  145.0080 C   0  0  0  0  0  0  0  0  0  0  0  0
  194.2610  172.5560  142.4130 N   0  0  0  0  0  1  0  0  0  0  0  0
  188.9680  174.5760  142.9500 C   0  0  2  0  0  3  0  0  0  0  0  0
  189.8500  173.5700  140.4110 C   0  0  0  0  0  2  0  0  0  0  0  0
  192.3170  172.8480  143.8980 C   0  0  2  0  0  3  0  0  0  0  0  0
  190.9680  174.7480  145.0080 C   0  0  0  0  0  0  0  0  0  0  0  0
  194.1190  172.0930  145.3880 C   0  0  0  0  0  2  0  0  0  0  0  0
  192.0840  172.9730  141.4250 C   0  0  2  0  0  3  0  0  0  0  0  0
  189.6800  176.6360  145.8880 C   0  0  0  0  0  0  0  0  0  0  0  0
  193.0630  174.1140  145.9460 O   0  0  0  0  0  0  0  0  0  0  0  0
  189.7920  175.6390  144.9950 C   0  0  1  0  0  3  0  0  0  0  0  0
  188.7460  175.4360  143.9630 C   0  0  0  0  0  0  0  0  0  0  0  0
  190.8640  173.8830  141.5160 C   0  0  2  0  0  3  0  0  0  0  0  0
  190.2270  173.8760  142.8460 N   0  0  1  0  0  0  0  0  0  0  0  0
  191.9650  174.9730  145.8740 C   0  0  0  0  0  0  0  0  0  0  0  0
  187.4490  176.2000  144.0620 C   0  0  0  0  0  3  0  0  0  0  0  0
  192.1870  171.1210  140.2060 C   0  0  0  0  0  1  0  0  0  0  0  0
  191.7060  171.6220  141.4160 O   0  0  0  0  0  0  0  0  0  0  0  0
  186.4260  178.3150  145.0540 N   0  0  0  0  0  2  0  0  0  0  0  0
  185.6530  179.0410  147.7070 C   0  0  0  0  0  1  0  0  0  0  0  0
  184.8160  176.7970  146.5130 O   0  0  0  0  0  0  0  0  0  0  0  0
  183.9220  178.9270  145.6700 O   0  0  0  0  0  0  0  0  0  0  0  0
  185.1400  178.2320  146.2110 S   0  0  0  0  0  0  0  0  0  0  0  0
  2 10  1  6  0  0  0
  2 13  1  0  0  0  0
  3  6  1  0  0  0  0
  4 14  1  6  0  0  0
  5  1  1  0  0  0  0
  7 17  1  0  0  0  0
  8 15  2  0  0  0  0
  8 18  1  0  0  0  0
  9 27  1  0  0  0  0
  9  7  2  0  0  0  0
 11  6  1  6  0  0  0
 11 20  1  0  0  0  0
 12  3  1  0  0  0  0
 13  4  1  0  0  0  0
 13  8  1  1  0  0  0
 14 23  2  0  0  0  0
 16 26  1  1  0  0  0
 16 21  1  0  0  0  0
 16  2  1  0  0  0  0
 17  1  2  0  0  0  0
 19 20  1  6  0  0  0
 19 14  1  0  0  0  0
 19 17  1  0  0  0  0
 20 24  2  0  0  0  0
 21 12  1  6  0  0  0
 21 22  1  0  0  0  0
 22 11  1  0  0  0  0
 22  4  1  0  0  0  0
 23 18  1  0  0  0  0
 23  5  1  0  0  0  0
 24  9  1  0  0  0  0
 25 26  1  0  0  0  0
 27 31  1  0  0  0  0
 30 31  2  0  0  0  0
 31 29  2  0  0  0  0
 31 28  1  0  0  0  0
M  END
>  <MODEL>
2

>  <REMARK>
 VINA RESULT:      -7.2      1.788      4.234
  Name = 
  3 active torsions:
  status: ('A' for Active; 'I' for Inactive)
    1  A    between atoms: N_1  and  C_13
    2  A    between atoms: N_1  and  S_24
    3  A    between atoms: C_20  and  O_30
                            x       y       z     vdW  Elec       q    Type
                         _______ _______ _______ _____ _____    ______ ____

>  <TORSDO>
F 3

$$$$
=
 OpenBabel11042418553D

 31 36  0  0  1  0  0  0  0  0999 V2000
  188.2430  175.0980  139.8940 C   0  0  0  0  0  3  0  0  0  0  0  0
  186.2660  178.8620  144.2490 C   0  0  2  0  0  3  0  0  0  0  0  0
  189.7410  176.3530  146.7880 C   0  0  0  0  0  2  0  0  0  0  0  0
  186.6160  176.3780  143.7290 C   0  0  1  0  0  3  0  0  0  0  0  0
  187.3120  176.1770  140.0250 O   0  0  0  0  0  0  0  0  0  0  0  0
  189.3270  175.0610  146.0950 C   0  0  0  0  0  2  0  0  0  0  0  0
  190.0990  173.8790  141.1670 C   0  0  0  0  0  2  0  0  0  0  0  0
  184.9410  177.7360  142.4100 C   0  0  0  0  0  0  0  0  0  0  0  0
  190.6750  173.4160  142.2790 C   0  0  0  0  0  0  0  0  0  0  0  0
  185.2970  179.9450  144.3040 N   0  0  0  0  0  1  0  0  0  0  0  0
  188.6550  175.3760  144.7900 C   0  0  2  0  0  3  0  0  0  0  0  0
  188.5450  177.2880  146.9270 C   0  0  0  0  0  2  0  0  0  0  0  0
  185.6210  177.5670  143.7430 C   0  0  2  0  0  3  0  0  0  0  0  0
  187.2370  176.0770  142.3900 C   0  0  0  0  0  0  0  0  0  0  0  0
  183.7320  178.2750  142.3420 C   0  0  0  0  0  2  0  0  0  0  0  0
  186.8300  178.6240  145.6430 C   0  0  2  0  0  3  0  0  0  0  0  0
  188.9150  174.7530  141.1960 C   0  0  0  0  0  0  0  0  0  0  0  0
  185.5710  177.3270  141.2350 O   0  0  0  0  0  0  0  0  0  0  0  0
  188.4080  175.1800  142.3630 C   0  0  0  0  0  0  0  0  0  0  0  0
  189.0360  174.7780  143.6450 C   0  0  0  0  0  0  0  0  0  0  0  0
  187.9900  177.6390  145.5440 C   0  0  2  0  0  3  0  0  0  0  0  0
  187.6620  176.4250  144.7730 N   0  0  1  0  0  0  0  0  0  0  0  0
  186.7120  176.5230  141.2410 C   0  0  0  0  0  0  0  0  0  0  0  0
  190.0980  173.7060  143.6460 C   0  0  0  0  0  3  0  0  0  0  0  0
  185.7410  179.1090  147.5150 C   0  0  0  0  0  1  0  0  0  0  0  0
  185.8360  178.1460  146.5100 O   0  0  0  0  0  0  0  0  0  0  0  0
  191.8270  172.5800  142.1460 N   0  0  0  0  0  2  0  0  0  0  0  0
  193.1450  170.0950  141.6460 C   0  0  0  0  0  1  0  0  0  0  0  0
  190.5180  170.2750  142.1220 O   0  0  0  0  0  0  0  0  0  0  0  0
  192.0410  170.7040  144.0050 O   0  0  0  0  0  0  0  0  0  0  0  0
  191.8260  170.8910  142.5300 S   0  0  0  0  0  0  0  0  0  0  0  0
  1  5  1  0  0  0  0
  1 17  2  0  0  0  0
  2 10  1  1  0  0  0
  2 16  1  0  0  0  0
  3 12  1  0  0  0  0
  4 14  1  6  0  0  0
  4 13  1  0  0  0  0
  4 22  1  0  0  0  0
  5 23  1  0  0  0  0
  6  3  1  0  0  0  0
  7 17  1  0  0  0  0
  7  9  1  0  0  0  0
  9 24  2  0  0  0  0
 11  6  1  6  0  0  0
 13  8  1  6  0  0  0
 13  2  1  0  0  0  0
 15  8  2  0  0  0  0
 16 26  1  1  0  0  0
 17 19  1  0  0  0  0
 18 23  1  0  0  0  0
 18  8  1  0  0  0  0
 19 14  1  0  0  0  0
 19 20  2  0  0  0  0
 20 24  1  0  0  0  0
 20 11  1  0  0  0  0
 21 16  1  0  0  0  0
 21 12  1  1  0  0  0
 22 11  1  0  0  0  0
 22 21  1  0  0  0  0
 23 14  2  0  0  0  0
 26 25  1  0  0  0  0
 27  9  1  0  0  0  0
 27 31  1  0  0  0  0
 28 31  1  0  0  0  0
 29 31  2  0  0  0  0
 31 30  2  0  0  0  0
M  END
>  <MODEL>
3

>  <REMARK>
 VINA RESULT:      -7.1      3.271      7.203
  Name = 
  3 active torsions:
  status: ('A' for Active; 'I' for Inactive)
    1  A    between atoms: N_1  and  C_13
    2  A    between atoms: N_1  and  S_24
    3  A    between atoms: C_20  and  O_30
                            x       y       z     vdW  Elec       q    Type
                         _______ _______ _______ _____ _____    ______ ____

>  <TORSDO>
F 3

$$$$
=
 OpenBabel11042418553D

 31 36  0  0  1  0  0  0  0  0999 V2000
  189.9850  172.3110  142.4210 C   0  0  0  0  0  3  0  0  0  0  0  0
  186.9100  176.3690  145.7560 C   0  0  2  0  0  3  0  0  0  0  0  0
  185.2520  177.5530  141.2110 C   0  0  0  0  0  2  0  0  0  0  0  0
  188.5220  176.1870  143.7740 C   0  0  1  0  0  3  0  0  0  0  0  0
  189.8160  172.6410  143.8040 O   0  0  0  0  0  0  0  0  0  0  0  0
  186.6480  177.3420  140.6370 C   0  0  0  0  0  2  0  0  0  0  0  0
  189.0570  172.8490  140.0980 C   0  0  0  0  0  2  0  0  0  0  0  0
  189.2660  175.5070  146.0910 C   0  0  0  0  0  0  0  0  0  0  0  0
  188.5140  173.6650  139.1910 C   0  0  0  0  0  0  0  0  0  0  0  0
  186.7960  176.6480  147.1790 N   0  0  0  0  0  1  0  0  0  0  0  0
  187.4300  176.4210  141.5280 C   0  0  2  0  0  3  0  0  0  0  0  0
  185.3380  178.0300  142.6560 C   0  0  0  0  0  2  0  0  0  0  0  0
  188.3720  176.4220  145.2980 C   0  0  2  0  0  3  0  0  0  0  0  0
  188.9050  174.7860  143.3750 C   0  0  0  0  0  0  0  0  0  0  0  0
  189.7070  175.8740  147.2860 C   0  0  0  0  0  2  0  0  0  0  0  0
  186.1070  177.4010  144.9770 C   0  0  2  0  0  3  0  0  0  0  0  0
  189.2240  173.2340  141.5080 C   0  0  0  0  0  0  0  0  0  0  0  0
  189.6430  174.2650  145.5790 O   0  0  0  0  0  0  0  0  0  0  0  0
  188.7610  174.4120  141.9550 C   0  0  0  0  0  0  0  0  0  0  0  0
  188.0730  175.3460  141.0320 C   0  0  0  0  0  0  0  0  0  0  0  0
  186.0590  176.9830  143.5110 C   0  0  2  0  0  3  0  0  0  0  0  0
  187.3830  176.6530  142.9530 N   0  0  1  0  0  0  0  0  0  0  0  0
  189.4430  173.9170  144.2420 C   0  0  0  0  0  0  0  0  0  0  0  0
  188.0980  175.0750  139.5480 C   0  0  0  0  0  3  0  0  0  0  0  0
  185.6670  179.4460  145.7200 C   0  0  0  0  0  1  0  0  0  0  0  0
  186.6660  178.6800  145.1190 O   0  0  0  0  0  0  0  0  0  0  0  0
  188.3890  173.1960  137.8470 N   0  0  0  0  0  2  0  0  0  0  0  0
  188.7720  175.0450  135.7030 C   0  0  0  0  0  1  0  0  0  0  0  0
  189.6460  172.5170  135.6150 O   0  0  0  0  0  0  0  0  0  0  0  0
  190.7950  174.0580  137.1490 O   0  0  0  0  0  0  0  0  0  0  0  0
  189.4660  173.6600  136.5720 S   0  0  0  0  0  0  0  0  0  0  0  0
  1  5  1  0  0  0  0
  2 10  1  1  0  0  0
  3 12  1  0  0  0  0
  4 14  1  1  0  0  0
  4 13  1  0  0  0  0
  5 23  1  0  0  0  0
  6  3  1  0  0  0  0
  7 17  1  0  0  0  0
  8 15  2  0  0  0  0
  9 24  2  0  0  0  0
  9  7  1  0  0  0  0
 11  6  1  1  0  0  0
 11 22  1  0  0  0  0
 13  2  1  0  0  0  0
 13  8  1  1  0  0  0
 14 23  2  0  0  0  0
 16 26  1  6  0  0  0
 16  2  1  0  0  0  0
 17 19  1  0  0  0  0
 17  1  2  0  0  0  0
 18  8  1  0  0  0  0
 19 14  1  0  0  0  0
 20 11  1  0  0  0  0
 20 19  2  0  0  0  0
 21 12  1  6  0  0  0
 21 16  1  0  0  0  0
 22 21  1  0  0  0  0
 22  4  1  0  0  0  0
 23 18  1  0  0  0  0
 24 20  1  0  0  0  0
 26 25  1  0  0  0  0
 27  9  1  0  0  0  0
 28 31  1  0  0  0  0
 29 31  2  0  0  0  0
 31 30  2  0  0  0  0
 31 27  1  0  0  0  0
M  END
>  <MODEL>
4

>  <REMARK>
 VINA RESULT:      -7.1      3.781      7.388
  Name = 
  3 active torsions:
  status: ('A' for Active; 'I' for Inactive)
    1  A    between atoms: N_1  and  C_13
    2  A    between atoms: N_1  and  S_24
    3  A    between atoms: C_20  and  O_30
                            x       y       z     vdW  Elec       q    Type
                         _______ _______ _______ _____ _____    ______ ____

>  <TORSDO>
F 3

$$$$
=
 OpenBabel11042418553D

 31 36  0  0  1  0  0  0  0  0999 V2000
  192.5820  177.0970  147.4960 C   0  0  0  0  0  3  0  0  0  0  0  0
  194.9410  173.4100  143.2670 C   0  0  2  0  0  3  0  0  0  0  0  0
  190.1230  172.2110  142.8680 C   0  0  0  0  0  2  0  0  0  0  0  0
  193.4980  173.3970  145.3830 C   0  0  1  0  0  3  0  0  0  0  0  0
  193.8620  176.8280  146.9150 O   0  0  0  0  0  0  0  0  0  0  0  0
  189.9680  172.2910  144.3820 C   0  0  0  0  0  2  0  0  0  0  0  0
  190.0960  176.5570  147.2210 C   0  0  0  0  0  3  0  0  0  0  0  0
  195.9250  174.0930  145.4970 C   0  0  0  0  0  0  0  0  0  0  0  0
  189.0800  175.7570  146.8890 C   0  0  0  0  0  0  0  0  0  0  0  0
  196.2750  173.1890  142.7310 N   0  0  0  0  0  1  0  0  0  0  0  0
  191.0370  173.1760  144.9560 C   0  0  2  0  0  3  0  0  0  0  0  0
  191.5370  171.7770  142.5010 C   0  0  0  0  0  2  0  0  0  0  0  0
  194.9190  173.2250  144.7880 C   0  0  2  0  0  3  0  0  0  0  0  0
  193.2120  174.7490  145.9820 C   0  0  0  0  0  0  0  0  0  0  0  0
  197.1990  173.7320  145.5480 C   0  0  0  0  0  2  0  0  0  0  0  0
  193.9750  172.4200  142.6320 C   0  0  2  0  0  3  0  0  0  0  0  0
  191.4990  176.2080  146.9480 C   0  0  0  0  0  0  0  0  0  0  0  0
  195.5300  175.2840  146.1080 O   0  0  0  0  0  0  0  0  0  0  0  0
  191.8070  175.0860  146.2790 C   0  0  1  0  0  3  0  0  0  0  0  0
  190.7340  174.1790  145.8020 C   0  0  0  0  0  0  0  0  0  0  0  0
  192.5520  172.7910  143.0360 C   0  0  2  0  0  3  0  0  0  0  0  0
  192.3910  172.9970  144.4870 N   0  0  1  0  0  0  0  0  0  0  0  0
  194.1880  175.6010  146.3250 C   0  0  0  0  0  0  0  0  0  0  0  0
  189.3160  174.3980  146.2700 C   0  0  0  0  0  3  0  0  0  0  0  0
  194.6280  170.4550  141.8320 C   0  0  0  0  0  1  0  0  0  0  0  0
  194.2820  171.1060  143.0170 O   0  0  0  0  0  0  0  0  0  0  0  0
  187.7510  176.1900  147.1900 N   0  0  0  0  0  2  0  0  0  0  0  0
  187.7620  177.5440  144.6740 C   0  0  0  0  0  1  0  0  0  0  0  0
  186.4790  178.4860  146.8250 O   0  0  0  0  0  0  0  0  0  0  0  0
  185.5510  176.4820  145.7430 O   0  0  0  0  0  0  0  0  0  0  0  0
  186.8140  177.1940  146.1350 S   0  0  0  0  0  0  0  0  0  0  0  0
  2 10  1  6  0  0  0
  2 13  1  0  0  0  0
  3  6  1  0  0  0  0
  4 14  1  6  0  0  0
  5  1  1  0  0  0  0
  8 15  2  0  0  0  0
  8 18  1  0  0  0  0
  9 27  1  0  0  0  0
  9  7  2  0  0  0  0
 11  6  1  6  0  0  0
 11 20  1  0  0  0  0
 12  3  1  0  0  0  0
 13  4  1  0  0  0  0
 13  8  1  1  0  0  0
 14 19  1  0  0  0  0
 14 23  2  0  0  0  0
 16 26  1  1  0  0  0
 16 21  1  0  0  0  0
 16  2  1  0  0  0  0
 17  7  1  0  0  0  0
 17  1  2  0  0  0  0
 18 23  1  0  0  0  0
 19 20  1  6  0  0  0
 19 17  1  0  0  0  0
 20 24  2  0  0  0  0
 21 12  1  1  0  0  0
 21 22  1  0  0  0  0
 22 11  1  0  0  0  0
 22  4  1  0  0  0  0
 23  5  1  0  0  0  0
 24  9  1  0  0  0  0
 25 26  1  0  0  0  0
 28 31  1  0  0  0  0
 30 31  2  0  0  0  0
 31 29  2  0  0  0  0
 31 27  1  0  0  0  0
M  END
>  <MODEL>
5

>  <REMARK>
 VINA RESULT:      -6.9      2.571      4.612
  Name = 
  3 active torsions:
  status: ('A' for Active; 'I' for Inactive)
    1  A    between atoms: N_1  and  C_13
    2  A    between atoms: N_1  and  S_24
    3  A    between atoms: C_20  and  O_30
                            x       y       z     vdW  Elec       q    Type
                         _______ _______ _______ _____ _____    ______ ____

>  <TORSDO>
F 3

$$$$
=
 OpenBabel11042418553D

 31 36  0  0  1  0  0  0  0  0999 V2000
  191.3460  176.8760  147.8750 C   0  0  0  0  0  3  0  0  0  0  0  0
  187.4110  175.9480  143.3260 C   0  0  2  0  0  3  0  0  0  0  0  0
  191.5470  174.0610  141.2880 C   0  0  0  0  0  2  0  0  0  0  0  0
  189.6600  177.0530  143.8600 C   0  0  1  0  0  3  0  0  0  0  0  0
  189.9490  177.0590  147.6240 O   0  0  0  0  0  0  0  0  0  0  0  0
  192.3710  175.1890  141.8970 C   0  0  0  0  0  2  0  0  0  0  0  0
  193.4470  175.8140  146.8700 C   0  0  0  0  0  3  0  0  0  0  0  0
  187.5350  177.8960  144.9380 C   0  0  0  0  0  0  0  0  0  0  0  0
  194.2190  175.4370  145.8480 C   0  0  0  0  0  0  0  0  0  0  0  0
  185.9850  176.1710  143.1440 N   0  0  0  0  0  1  0  0  0  0  0  0
  191.6600  175.7500  143.0950 C   0  0  2  0  0  3  0  0  0  0  0  0
  190.1310  174.5410  140.9880 C   0  0  0  0  0  2  0  0  0  0  0  0
  188.1280  177.2450  143.7170 C   0  0  2  0  0  3  0  0  0  0  0  0
  190.1540  176.8690  145.2710 C   0  0  0  0  0  0  0  0  0  0  0  0
  186.4320  178.6250  144.8360 C   0  0  0  0  0  2  0  0  0  0  0  0
  188.0060  175.4240  142.0260 C   0  0  2  0  0  3  0  0  0  0  0  0
  192.0830  176.3310  146.6810 C   0  0  0  0  0  0  0  0  0  0  0  0
  188.1350  177.7400  146.1880 O   0  0  0  0  0  0  0  0  0  0  0  0
  191.5310  176.3750  145.4570 C   0  0  1  0  0  3  0  0  0  0  0  0
  192.2910  175.9000  144.2760 C   0  0  0  0  0  0  0  0  0  0  0  0
  189.4470  174.9960  142.2810 C   0  0  2  0  0  3  0  0  0  0  0  0
  190.2460  176.0190  142.9800 N   0  0  1  0  0  0  0  0  0  0  0  0
  189.4210  177.2170  146.3370 C   0  0  0  0  0  0  0  0  0  0  0  0
  193.7600  175.5860  144.4160 C   0  0  0  0  0  3  0  0  0  0  0  0
  187.4400  175.7270  139.9010 C   0  0  0  0  0  1  0  0  0  0  0  0
  187.9400  176.3980  141.0180 O   0  0  0  0  0  0  0  0  0  0  0  0
  195.5280  174.9410  146.1370 N   0  0  0  0  0  2  0  0  0  0  0  0
  194.8030  172.2790  145.3940 C   0  0  0  0  0  1  0  0  0  0  0  0
  197.1880  172.8960  146.4380 O   0  0  0  0  0  0  0  0  0  0  0  0
  196.7240  173.6620  144.1470 O   0  0  0  0  0  0  0  0  0  0  0  0
  196.1380  173.4440  145.5140 S   0  0  0  0  0  0  0  0  0  0  0  0
  2 10  1  6  0  0  0
  2 13  1  0  0  0  0
  3  6  1  0  0  0  0
  4 14  1  1  0  0  0
  5  1  1  0  0  0  0
  8 18  1  0  0  0  0
  9 27  1  0  0  0  0
  9  7  2  0  0  0  0
 11  6  1  1  0  0  0
 11 20  1  0  0  0  0
 12  3  1  0  0  0  0
 13  4  1  0  0  0  0
 13  8  1  1  0  0  0
 14 19  1  0  0  0  0
 14 23  2  0  0  0  0
 15  8  2  0  0  0  0
 16 26  1  6  0  0  0
 16 21  1  0  0  0  0
 16  2  1  0  0  0  0
 17  7  1  0  0  0  0
 17  1  2  0  0  0  0
 18 23  1  0  0  0  0
 19 20  1  1  0  0  0
 19 17  1  0  0  0  0
 20 24  2  0  0  0  0
 21 12  1  6  0  0  0
 21 22  1  0  0  0  0
 22 11  1  0  0  0  0
 22  4  1  0  0  0  0
 23  5  1  0  0  0  0
 24  9  1  0  0  0  0
 25 26  1  0  0  0  0
 28 31  1  0  0  0  0
 30 31  2  0  0  0  0
 31 27  1  0  0  0  0
 31 29  2  0  0  0  0
M  END
>  <MODEL>
6

>  <REMARK>
 VINA RESULT:      -6.9      2.976      7.700
  Name = 
  3 active torsions:
  status: ('A' for Active; 'I' for Inactive)
    1  A    between atoms: N_1  and  C_13
    2  A    between atoms: N_1  and  S_24
    3  A    between atoms: C_20  and  O_30
                            x       y       z     vdW  Elec       q    Type
                         _______ _______ _______ _____ _____    ______ ____

>  <TORSDO>
F 3

$$$$
=
 OpenBabel11042418553D

 31 36  0  0  1  0  0  0  0  0999 V2000
  189.2010  174.9170  147.5410 C   0  0  0  0  0  3  0  0  0  0  0  0
  185.2830  177.4590  143.6390 C   0  0  2  0  0  3  0  0  0  0  0  0
  188.1910  174.9760  140.4470 C   0  0  0  0  0  2  0  0  0  0  0  0
  187.7850  177.2630  144.1520 C   0  0  1  0  0  3  0  0  0  0  0  0
  188.0260  175.7320  147.5940 O   0  0  0  0  0  0  0  0  0  0  0  0
  189.4220  175.3500  141.2640 C   0  0  0  0  0  2  0  0  0  0  0  0
  190.6340  173.5580  145.9120 C   0  0  0  0  0  3  0  0  0  0  0  0
  186.2340  178.4210  145.7770 C   0  0  0  0  0  0  0  0  0  0  0  0
  191.1700  173.3160  144.7130 C   0  0  0  0  0  0  0  0  0  0  0  0
  184.0980  178.2920  143.7750 N   0  0  0  0  0  1  0  0  0  0  0  0
  189.0200  175.6540  142.6780 C   0  0  2  0  0  3  0  0  0  0  0  0
  187.1290  176.0630  140.5590 C   0  0  0  0  0  2  0  0  0  0  0  0
  186.4910  178.0990  144.3290 C   0  0  2  0  0  3  0  0  0  0  0  0
  188.1410  176.3770  145.3170 C   0  0  0  0  0  0  0  0  0  0  0  0
  185.5620  179.5150  146.1080 C   0  0  0  0  0  2  0  0  0  0  0  0
  185.5960  177.2710  142.1610 C   0  0  2  0  0  3  0  0  0  0  0  0
  189.6330  174.6150  146.1310 C   0  0  0  0  0  0  0  0  0  0  0  0
  186.6990  177.5770  146.7860 O   0  0  0  0  0  0  0  0  0  0  0  0
  189.1630  175.3360  145.1010 C   0  0  1  0  0  3  0  0  0  0  0  0
  189.6460  175.0770  143.7230 C   0  0  0  0  0  0  0  0  0  0  0  0
  186.7050  176.2330  142.0210 C   0  0  2  0  0  3  0  0  0  0  0  0
  187.8660  176.4960  142.8900 N   0  0  1  0  0  0  0  0  0  0  0  0
  187.6270  176.5630  146.5410 C   0  0  0  0  0  0  0  0  0  0  0  0
  190.8300  174.1670  143.5110 C   0  0  0  0  0  3  0  0  0  0  0  0
  185.0710  178.6660  140.5170 C   0  0  0  0  0  1  0  0  0  0  0  0
  185.9680  178.4880  141.5700 O   0  0  0  0  0  0  0  0  0  0  0  0
  192.1290  172.2620  144.6020 N   0  0  0  0  0  2  0  0  0  0  0  0
  194.6520  172.6040  143.3060 C   0  0  0  0  0  1  0  0  0  0  0  0
  194.3790  171.3160  145.6350 O   0  0  0  0  0  0  0  0  0  0  0  0
  194.0550  173.7540  145.6460 O   0  0  0  0  0  0  0  0  0  0  0  0
  193.8250  172.4860  144.8730 S   0  0  0  0  0  0  0  0  0  0  0  0
  1  5  1  0  0  0  0
  2 10  1  6  0  0  0
  2 13  1  0  0  0  0
  3 12  1  0  0  0  0
  3  6  1  0  0  0  0
  4 13  1  0  0  0  0
  4 14  1  1  0  0  0
  7 17  1  0  0  0  0
  8 15  2  0  0  0  0
  8 18  1  0  0  0  0
  9  7  2  0  0  0  0
 11  6  1  6  0  0  0
 11 22  1  0  0  0  0
 11 20  1  0  0  0  0
 13  8  1  1  0  0  0
 14 23  2  0  0  0  0
 16 26  1  1  0  0  0
 16  2  1  0  0  0  0
 17  1  2  0  0  0  0
 19 20  1  6  0  0  0
 19 14  1  0  0  0  0
 19 17  1  0  0  0  0
 21 12  1  6  0  0  0
 21 16  1  0  0  0  0
 21 22  1  0  0  0  0
 22  4  1  0  0  0  0
 23 18  1  0  0  0  0
 23  5  1  0  0  0  0
 24 20  2  0  0  0  0
 24  9  1  0  0  0  0
 25 26  1  0  0  0  0
 27  9  1  0  0  0  0
 27 31  1  0  0  0  0
 28 31  1  0  0  0  0
 31 29  2  0  0  0  0
 31 30  2  0  0  0  0
M  END
>  <MODEL>
7

>  <REMARK>
 VINA RESULT:      -6.8      3.139      7.953
  Name = 
  3 active torsions:
  status: ('A' for Active; 'I' for Inactive)
    1  A    between atoms: N_1  and  C_13
    2  A    between atoms: N_1  and  S_24
    3  A    between atoms: C_20  and  O_30
                            x       y       z     vdW  Elec       q    Type
                         _______ _______ _______ _____ _____    ______ ____

>  <TORSDO>
F 3

$$$$
=
 OpenBabel11042418553D

 31 36  0  0  1  0  0  0  0  0999 V2000
  190.0350  177.6080  145.3740 C   0  0  0  0  0  3  0  0  0  0  0  0
  192.8530  172.9260  142.6940 C   0  0  2  0  0  3  0  0  0  0  0  0
  188.5980  172.9710  140.1020 C   0  0  0  0  0  2  0  0  0  0  0  0
  190.6840  173.5570  143.9020 C   0  0  1  0  0  3  0  0  0  0  0  0
  191.3010  176.9440  145.4500 O   0  0  0  0  0  0  0  0  0  0  0  0
  187.8170  173.2820  141.3740 C   0  0  0  0  0  2  0  0  0  0  0  0
  187.8930  177.6980  143.9760 C   0  0  0  0  0  3  0  0  0  0  0  0
  192.8920  173.6110  145.1300 C   0  0  0  0  0  0  0  0  0  0  0  0
  186.9490  177.1520  143.2060 C   0  0  0  0  0  0  0  0  0  0  0  0
  194.1580  172.3010  142.8340 N   0  0  0  0  0  1  0  0  0  0  0  0
  188.7230  173.9270  142.3830 C   0  0  2  0  0  3  0  0  0  0  0  0
  189.8360  172.1430  140.4280 C   0  0  0  0  0  2  0  0  0  0  0  0
  192.1040  172.9490  144.0310 C   0  0  2  0  0  3  0  0  0  0  0  0
  190.5650  175.0030  144.3090 C   0  0  0  0  0  0  0  0  0  0  0  0
  193.8460  172.9420  145.7620 C   0  0  0  0  0  2  0  0  0  0  0  0
  192.0310  172.1460  141.6770 C   0  0  2  0  0  3  0  0  0  0  0  0
  189.1030  176.9660  144.3810 C   0  0  0  0  0  0  0  0  0  0  0  0
  192.6290  174.9310  145.4970 O   0  0  0  0  0  0  0  0  0  0  0  0
  189.3390  175.7260  143.9230 C   0  0  1  0  0  3  0  0  0  0  0  0
  188.3800  175.0740  142.9990 C   0  0  0  0  0  0  0  0  0  0  0  0
  190.7510  172.9210  141.3800 C   0  0  2  0  0  3  0  0  0  0  0  0
  190.0280  173.3450  142.5930 N   0  0  1  0  0  0  0  0  0  0  0  0
  191.4850  175.6100  145.0700 C   0  0  0  0  0  0  0  0  0  0  0  0
  187.0320  175.7100  142.7580 C   0  0  0  0  0  3  0  0  0  0  0  0
  192.3640  169.9930  141.2520 C   0  0  0  0  0  1  0  0  0  0  0  0
  191.7410  170.8580  142.1520 O   0  0  0  0  0  0  0  0  0  0  0  0
  185.8130  177.9470  142.8610 N   0  0  0  0  0  2  0  0  0  0  0  0
  184.8250  177.9110  145.5420 C   0  0  0  0  0  1  0  0  0  0  0  0
  183.4800  179.0230  143.5140 O   0  0  0  0  0  0  0  0  0  0  0  0
  185.5190  180.1660  144.2810 O   0  0  0  0  0  0  0  0  0  0  0  0
  184.8800  178.8300  144.0240 S   0  0  0  0  0  0  0  0  0  0  0  0
  1  5  1  0  0  0  0
  2 10  1  1  0  0  0
  2 13  1  0  0  0  0
  3 12  1  0  0  0  0
  3  6  1  0  0  0  0
  4 13  1  0  0  0  0
  4 14  1  6  0  0  0
  7 17  1  0  0  0  0
  8 18  1  0  0  0  0
  8 15  2  0  0  0  0
  9  7  2  0  0  0  0
 11  6  1  6  0  0  0
 11 22  1  0  0  0  0
 11 20  1  0  0  0  0
 13  8  1  1  0  0  0
 14 23  2  0  0  0  0
 16 26  1  1  0  0  0
 16  2  1  0  0  0  0
 17  1  2  0  0  0  0
 19 20  1  6  0  0  0
 19 14  1  0  0  0  0
 19 17  1  0  0  0  0
 21 12  1  6  0  0  0
 21 16  1  0  0  0  0
 21 22  1  0  0  0  0
 22  4  1  0  0  0  0
 23  5  1  0  0  0  0
 23 18  1  0  0  0  0
 24 20  2  0  0  0  0
 24  9  1  0  0  0  0
 25 26  1  0  0  0  0
 27  9  1  0  0  0  0
 27 31  1  0  0  0  0
 29 31  2  0  0  0  0
 31 30  2  0  0  0  0
 31 28  1  0  0  0  0
M  END
>  <MODEL>
8

>  <REMARK>
 VINA RESULT:      -6.8      2.165      4.277
  Name = 
  3 active torsions:
  status: ('A' for Active; 'I' for Inactive)
    1  A    between atoms: N_1  and  C_13
    2  A    between atoms: N_1  and  S_24
    3  A    between atoms: C_20  and  O_30
                            x       y       z     vdW  Elec       q    Type
                         _______ _______ _______ _____ _____    ______ ____

>  <TORSDO>
F 3

$$$$
=
 OpenBabel11042418553D

 31 36  0  0  1  0  0  0  0  0999 V2000
  191.4420  174.0530  141.5180 C   0  0  0  0  0  3  0  0  0  0  0  0
  187.9190  177.7820  144.7920 C   0  0  2  0  0  3  0  0  0  0  0  0
  191.4700  176.7880  148.1410 C   0  0  0  0  0  2  0  0  0  0  0  0
  188.9610  175.4430  144.8210 C   0  0  1  0  0  3  0  0  0  0  0  0
  190.2600  174.8370  141.3290 O   0  0  0  0  0  0  0  0  0  0  0  0
  191.5100  175.3360  147.6810 C   0  0  0  0  0  2  0  0  0  0  0  0
  193.3210  173.6220  143.2020 C   0  0  0  0  0  2  0  0  0  0  0  0
  187.2270  176.0470  143.0850 C   0  0  0  0  0  0  0  0  0  0  0  0
  193.8130  173.5270  144.4390 C   0  0  0  0  0  0  0  0  0  0  0  0
  186.7110  178.5480  144.5240 N   0  0  0  0  0  1  0  0  0  0  0  0
  190.9940  175.2340  146.2740 C   0  0  2  0  0  3  0  0  0  0  0  0
  190.0710  177.3650  147.9610 C   0  0  0  0  0  2  0  0  0  0  0  0
  187.7100  176.2950  144.4890 C   0  0  2  0  0  3  0  0  0  0  0  0
  189.8410  175.1100  143.6440 C   0  0  0  0  0  0  0  0  0  0  0  0
  185.9470  176.2110  142.7800 C   0  0  0  0  0  2  0  0  0  0  0  0
  188.2980  177.9430  146.2570 C   0  0  2  0  0  3  0  0  0  0  0  0
  191.9660  174.1260  142.9270 C   0  0  0  0  0  0  0  0  0  0  0  0
  188.1170  175.6420  142.0890 O   0  0  0  0  0  0  0  0  0  0  0  0
  191.1900  174.5810  143.9240 C   0  0  0  0  0  0  0  0  0  0  0  0
  191.6900  174.5850  145.3200 C   0  0  0  0  0  0  0  0  0  0  0  0
  189.6700  177.3150  146.4830 C   0  0  2  0  0  3  0  0  0  0  0  0
  189.7850  175.9490  145.9410 N   0  0  1  0  0  0  0  0  0  0  0  0
  189.4090  175.1980  142.3800 C   0  0  0  0  0  0  0  0  0  0  0  0
  192.9740  173.8660  145.6500 C   0  0  0  0  0  3  0  0  0  0  0  0
  186.6910  178.4300  147.7080 C   0  0  0  0  0  1  0  0  0  0  0  0
  187.3330  177.3570  147.0910 O   0  0  0  0  0  0  0  0  0  0  0  0
  195.1440  173.0320  144.6010 N   0  0  0  0  0  2  0  0  0  0  0  0
  197.7120  173.8470  143.6510 C   0  0  0  0  0  1  0  0  0  0  0  0
  197.1170  173.6660  146.2530 O   0  0  0  0  0  0  0  0  0  0  0  0
  196.0670  175.4880  144.9770 O   0  0  0  0  0  0  0  0  0  0  0  0
  196.5040  174.0510  144.9370 S   0  0  0  0  0  0  0  0  0  0  0  0
  1 17  2  0  0  0  0
  2 10  1  1  0  0  0
  2 16  1  0  0  0  0
  4 14  1  6  0  0  0
  4 22  1  0  0  0  0
  5  1  1  0  0  0  0
  5 23  1  0  0  0  0
  6  3  1  0  0  0  0
  7  9  1  0  0  0  0
  9 27  1  0  0  0  0
  9 24  2  0  0  0  0
 11  6  1  6  0  0  0
 12  3  1  0  0  0  0
 13  8  1  6  0  0  0
 13  2  1  0  0  0  0
 13  4  1  0  0  0  0
 14 19  1  0  0  0  0
 15  8  2  0  0  0  0
 16 21  1  0  0  0  0
 16 26  1  1  0  0  0
 17  7  1  0  0  0  0
 17 19  1  0  0  0  0
 18 23  1  0  0  0  0
 18  8  1  0  0  0  0
 19 20  2  0  0  0  0
 20 24  1  0  0  0  0
 20 11  1  0  0  0  0
 21 12  1  1  0  0  0
 22 11  1  0  0  0  0
 22 21  1  0  0  0  0
 23 14  2  0  0  0  0
 26 25  1  0  0  0  0
 27 31  1  0  0  0  0
 28 31  1  0  0  0  0
 31 30  2  0  0  0  0
 31 29  2  0  0  0  0
M  END
>  <MODEL>
9

>  <REMARK>
 VINA RESULT:      -6.7      2.796      6.990
  Name = 
  3 active torsions:
  status: ('A' for Active; 'I' for Inactive)
    1  A    between atoms: N_1  and  C_13
    2  A    between atoms: N_1  and  S_24
    3  A    between atoms: C_20  and  O_30
                            x       y       z     vdW  Elec       q    Type
                         _______ _______ _______ _____ _____    ______ ____

>  <TORSDO>
F 3

$$$$
