=
 OpenBabel11042415093D

 27 31  0  0  1  0  0  0  0  0999 V2000
  190.0870  170.7740  142.2310 O   0  0  0  0  0  0  0  0  0  0  0  0
  189.4690  175.3610  143.1180 N   0  0  0  0  0  0  0  0  0  0  0  0
  189.0780  176.2980  145.1370 C   0  0  0  0  0  0  0  0  0  0  0  0
  186.2410  177.0810  143.8900 N   0  0  0  0  0  0  0  0  0  0  0  0
  186.3340  178.2780  147.4330 N   0  0  0  0  0  0  0  0  0  0  0  0
  185.2190  177.1840  142.8480 C   0  0  0  0  0  1  0  0  0  0  0  0
  190.2550  172.3330  139.7980 N   0  0  0  0  0  1  0  0  0  0  0  0
  188.5290  176.0620  143.9230 C   0  0  0  0  0  0  0  0  0  0  0  0
  189.6230  171.5820  144.4540 C   0  0  0  0  0  2  0  0  0  0  0  0
  190.5560  173.5700  140.5010 C   0  0  1  0  0  3  0  0  0  0  0  0
  189.9570  172.9440  145.0680 C   0  0  0  0  0  2  0  0  0  0  0  0
  187.3210  176.4340  143.4340 N   0  0  0  0  0  0  0  0  0  0  0  0
  184.2380  178.8000  146.4740 C   0  0  0  0  0  3  0  0  0  0  0  0
  190.6680  175.1380  143.9240 C   0  0  1  0  0  3  0  0  0  0  0  0
  189.2600  174.2650  140.9480 C   0  0  1  0  0  3  0  0  0  0  0  0
  190.3980  175.7810  145.2080 N   0  0  0  0  0  0  0  0  0  0  0  0
  189.5510  175.5640  141.6790 C   0  0  0  0  0  2  0  0  0  0  0  0
  188.3520  177.0850  146.4060 S   0  0  0  0  0  0  0  0  0  0  0  0
  186.7870  177.6870  146.2910 C   0  0  0  0  0  0  0  0  0  0  0  0
  185.1010  178.8260  147.5510 C   0  0  0  0  0  3  0  0  0  0  0  0
  184.6670  178.2100  145.2930 C   0  0  0  0  0  3  0  0  0  0  0  0
  188.3920  174.5820  139.7440 C   0  0  0  0  0  1  0  0  0  0  0  0
  185.9490  177.6260  145.1360 C   0  0  0  0  0  0  0  0  0  0  0  0
  190.9520  173.6370  144.1200 C   0  0  2  0  0  3  0  0  0  0  0  0
  191.5510  173.2890  141.6360 C   0  0  0  0  0  2  0  0  0  0  0  0
  190.8790  172.8950  142.8730 N   0  0  0  0  0  0  0  0  0  0  0  0
  190.1850  171.6840  143.0950 C   0  0  0  0  0  0  0  0  0  0  0  0
  1 27  2  0  0  0  0
  2  8  1  0  0  0  0
  2 14  1  0  0  0  0
  3 16  2  0  0  0  0
  3 18  1  0  0  0  0
  4 23  1  0  0  0  0
  5 20  1  0  0  0  0
  6  4  1  0  0  0  0
  8  3  1  0  0  0  0
  9 11  1  0  0  0  0
 10  7  1  1  0  0  0
 10 15  1  0  0  0  0
 10 25  1  0  0  0  0
 12  4  1  0  0  0  0
 12  8  2  0  0  0  0
 13 20  2  0  0  0  0
 14 24  1  0  0  0  0
 14 16  1  1  0  0  0
 15 22  1  6  0  0  0
 15 17  1  0  0  0  0
 17  2  1  0  0  0  0
 19 18  1  0  0  0  0
 19  5  2  0  0  0  0
 21 13  1  0  0  0  0
 23 21  2  0  0  0  0
 23 19  1  0  0  0  0
 24 11  1  1  0  0  0
 25 26  1  0  0  0  0
 26 27  1  0  0  0  0
 26 24  1  0  0  0  0
 27  9  1  0  0  0  0
M  END
>  <MODEL>
1

>  <REMARK>
 VINA RESULT:      -7.4      0.000      0.000
  Name = 
  0 active torsions:
  status: ('A' for Active; 'I' for Inactive)
                            x       y       z     vdW  Elec       q    Type
                         _______ _______ _______ _____ _____    ______ ____

>  <TORSDO>
F 0

$$$$
=
 OpenBabel11042415093D

 27 31  0  0  1  0  0  0  0  0999 V2000
  194.4080  176.3730  144.2480 O   0  0  0  0  0  0  0  0  0  0  0  0
  189.8860  175.2030  144.8760 N   0  0  0  0  0  0  0  0  0  0  0  0
  188.2070  175.4820  143.3890 C   0  0  0  0  0  0  0  0  0  0  0  0
  187.0390  177.5310  145.5480 N   0  0  0  0  0  0  0  0  0  0  0  0
  184.7400  177.5020  142.5960 N   0  0  0  0  0  0  0  0  0  0  0  0
  186.9900  178.2510  146.8200 C   0  0  0  0  0  1  0  0  0  0  0  0
  193.9890  175.2180  146.8680 N   0  0  0  0  0  1  0  0  0  0  0  0
  188.6720  175.8880  144.5940 C   0  0  0  0  0  0  0  0  0  0  0  0
  192.7430  176.8020  142.5580 C   0  0  0  0  0  2  0  0  0  0  0  0
  192.7560  174.5510  146.4810 C   0  0  1  0  0  3  0  0  0  0  0  0
  191.4430  176.0420  142.2780 C   0  0  0  0  0  2  0  0  0  0  0  0
  188.1260  176.7520  145.4840 N   0  0  0  0  0  0  0  0  0  0  0  0
  183.9400  179.0320  144.2100 C   0  0  0  0  0  3  0  0  0  0  0  0
  190.1840  174.3350  143.7370 C   0  0  1  0  0  3  0  0  0  0  0  0
  191.5590  175.5060  146.6260 C   0  0  1  0  0  3  0  0  0  0  0  0
  189.0680  174.5130  142.8110 N   0  0  0  0  0  0  0  0  0  0  0  0
  190.2580  174.8270  146.2320 C   0  0  0  0  0  2  0  0  0  0  0  0
  186.8200  176.0110  142.6440 S   0  0  0  0  0  0  0  0  0  0  0  0
  185.8190  177.1590  143.3550 C   0  0  0  0  0  0  0  0  0  0  0  0
  183.8120  178.4080  142.9850 C   0  0  0  0  0  3  0  0  0  0  0  0
  185.0260  178.7050  145.0110 C   0  0  0  0  0  3  0  0  0  0  0  0
  191.4330  175.9760  148.0630 C   0  0  0  0  0  1  0  0  0  0  0  0
  186.0150  177.7630  144.6350 C   0  0  0  0  0  0  0  0  0  0  0  0
  191.5140  174.7190  143.0620 C   0  0  2  0  0  3  0  0  0  0  0  0
  192.9170  173.9420  145.0810 C   0  0  0  0  0  2  0  0  0  0  0  0
  192.5890  174.8960  144.0230 N   0  0  0  0  0  0  0  0  0  0  0  0
  193.3340  176.0470  143.6780 C   0  0  0  0  0  0  0  0  0  0  0  0
  2 17  1  0  0  0  0
  3  8  1  0  0  0  0
  4  6  1  0  0  0  0
  5 20  2  0  0  0  0
  5 19  1  0  0  0  0
  8  2  1  0  0  0  0
  8 12  2  0  0  0  0
  9 27  1  0  0  0  0
 10 15  1  0  0  0  0
 10  7  1  6  0  0  0
 11  9  1  0  0  0  0
 12  4  1  0  0  0  0
 13 21  2  0  0  0  0
 14 16  1  6  0  0  0
 14  2  1  0  0  0  0
 15 22  1  1  0  0  0
 16  3  2  0  0  0  0
 17 15  1  0  0  0  0
 18 19  1  0  0  0  0
 18  3  1  0  0  0  0
 19 23  2  0  0  0  0
 20 13  1  0  0  0  0
 23 21  1  0  0  0  0
 23  4  1  0  0  0  0
 24 11  1  1  0  0  0
 24 14  1  0  0  0  0
 24 26  1  0  0  0  0
 25 10  1  0  0  0  0
 26 25  1  0  0  0  0
 27 26  1  0  0  0  0
 27  1  2  0  0  0  0
M  END
>  <MODEL>
2

>  <REMARK>
 VINA RESULT:      -7.2      2.607      4.527
  Name = 
  0 active torsions:
  status: ('A' for Active; 'I' for Inactive)
                            x       y       z     vdW  Elec       q    Type
                         _______ _______ _______ _____ _____    ______ ____

>  <TORSDO>
F 0

$$$$
=
 OpenBabel11042415093D

 27 31  0  0  1  0  0  0  0  0999 V2000
  192.0650  173.6960  145.7460 O   0  0  0  0  0  0  0  0  0  0  0  0
  189.5560  177.5330  144.6560 N   0  0  0  0  0  0  0  0  0  0  0  0
  187.3450  177.8390  145.0120 C   0  0  0  0  0  0  0  0  0  0  0  0
  187.1470  177.9080  141.8220 N   0  0  0  0  0  0  0  0  0  0  0  0
  183.6960  178.2840  143.2180 N   0  0  0  0  0  0  0  0  0  0  0  0
  187.6520  177.8950  140.4490 C   0  0  0  0  0  1  0  0  0  0  0  0
  193.7320  175.7070  144.5020 N   0  0  0  0  0  1  0  0  0  0  0  0
  188.2820  177.7020  144.0450 C   0  0  0  0  0  0  0  0  0  0  0  0
  189.6920  173.8140  146.1540 C   0  0  0  0  0  2  0  0  0  0  0  0
  192.8220  176.7940  144.8210 C   0  0  1  0  0  3  0  0  0  0  0  0
  188.8280  175.0470  146.4370 C   0  0  0  0  0  2  0  0  0  0  0  0
  188.1490  177.7580  142.6980 N   0  0  0  0  0  0  0  0  0  0  0  0
  183.6020  178.2910  140.8570 C   0  0  0  0  0  3  0  0  0  0  0  0
  189.3610  177.5440  146.1050 C   0  0  1  0  0  3  0  0  0  0  0  0
  191.7330  176.9200  143.7420 C   0  0  1  0  0  3  0  0  0  0  0  0
  187.9310  177.7750  146.3030 N   0  0  0  0  0  0  0  0  0  0  0  0
  190.7730  178.0550  144.0530 C   0  0  0  0  0  2  0  0  0  0  0  0
  185.7160  178.0580  144.7750 S   0  0  0  0  0  0  0  0  0  0  0  0
  185.0510  178.1300  143.2330 C   0  0  0  0  0  0  0  0  0  0  0  0
  182.9670  178.3640  142.0810 C   0  0  0  0  0  3  0  0  0  0  0  0
  184.9810  178.1380  140.8330 C   0  0  0  0  0  3  0  0  0  0  0  0
  192.3640  177.1880  142.3880 C   0  0  0  0  0  1  0  0  0  0  0  0
  185.7750  178.0490  142.0040 C   0  0  0  0  0  0  0  0  0  0  0  0
  189.7870  176.2110  146.7470 C   0  0  2  0  0  3  0  0  0  0  0  0
  192.2840  176.6150  146.2480 C   0  0  0  0  0  2  0  0  0  0  0  0
  191.0920  175.7700  146.2860 N   0  0  0  0  0  0  0  0  0  0  0  0
  191.0470  174.3810  146.0250 C   0  0  0  0  0  0  0  0  0  0  0  0
  1 27  2  0  0  0  0
  2 14  1  0  0  0  0
  3 16  2  0  0  0  0
  4 23  1  0  0  0  0
  4 12  1  0  0  0  0
  5 19  1  0  0  0  0
  6  4  1  0  0  0  0
  8  2  1  0  0  0  0
  8  3  1  0  0  0  0
  9 11  1  0  0  0  0
 10  7  1  6  0  0  0
 10 25  1  0  0  0  0
 12  8  2  0  0  0  0
 13 20  1  0  0  0  0
 14 16  1  6  0  0  0
 14 24  1  0  0  0  0
 15 22  1  6  0  0  0
 15 17  1  0  0  0  0
 15 10  1  0  0  0  0
 17  2  1  0  0  0  0
 18  3  1  0  0  0  0
 19 18  1  0  0  0  0
 20  5  2  0  0  0  0
 21 13  2  0  0  0  0
 21 23  1  0  0  0  0
 23 19  2  0  0  0  0
 24 11  1  6  0  0  0
 25 26  1  0  0  0  0
 26 24  1  0  0  0  0
 27  9  1  0  0  0  0
 27 26  1  0  0  0  0
M  END
>  <MODEL>
3

>  <REMARK>
 VINA RESULT:      -7.1      3.127      4.184
  Name = 
  0 active torsions:
  status: ('A' for Active; 'I' for Inactive)
                            x       y       z     vdW  Elec       q    Type
                         _______ _______ _______ _____ _____    ______ ____

>  <TORSDO>
F 0

$$$$
=
 OpenBabel11042415093D

 27 31  0  0  1  0  0  0  0  0999 V2000
  183.8680  178.1530  142.6990 O   0  0  0  0  0  0  0  0  0  0  0  0
  188.2410  177.3230  144.2470 N   0  0  0  0  0  0  0  0  0  0  0  0
  189.9910  176.6090  143.0090 C   0  0  0  0  0  0  0  0  0  0  0  0
  189.8190  173.9830  144.8240 N   0  0  0  0  0  0  0  0  0  0  0  0
  192.5720  173.5090  142.3350 N   0  0  0  0  0  0  0  0  0  0  0  0
  189.3160  173.1320  145.9020 C   0  0  0  0  0  1  0  0  0  0  0  0
  184.0770  178.6640  145.5400 N   0  0  0  0  0  1  0  0  0  0  0  0
  189.1530  176.2570  144.0120 C   0  0  0  0  0  0  0  0  0  0  0  0
  185.5970  177.3390  141.2300 C   0  0  0  0  0  2  0  0  0  0  0  0
  185.5210  178.8320  145.4980 C   0  0  1  0  0  3  0  0  0  0  0  0
  187.1110  177.5490  141.3230 C   0  0  0  0  0  2  0  0  0  0  0  0
  189.1330  175.1320  144.7670 N   0  0  0  0  0  0  0  0  0  0  0  0
  192.3770  171.5760  143.6810 C   0  0  0  0  0  3  0  0  0  0  0  0
  188.5410  178.3880  143.2920 C   0  0  1  0  0  3  0  0  0  0  0  0
  186.2240  177.4690  145.6140 C   0  0  1  0  0  3  0  0  0  0  0  0
  189.6940  177.9120  142.5300 N   0  0  0  0  0  0  0  0  0  0  0  0
  187.7350  177.6210  145.5790 C   0  0  0  0  0  2  0  0  0  0  0  0
  191.2210  175.6820  142.3880 S   0  0  0  0  0  0  0  0  0  0  0  0
  191.5490  174.1420  142.9760 C   0  0  0  0  0  0  0  0  0  0  0  0
  192.9940  172.2630  142.6550 C   0  0  0  0  0  3  0  0  0  0  0  0
  191.3340  172.1920  144.3590 C   0  0  0  0  0  3  0  0  0  0  0  0
  185.8450  176.7910  146.9170 C   0  0  0  0  0  1  0  0  0  0  0  0
  190.8660  173.4940  144.0500 C   0  0  0  0  0  0  0  0  0  0  0  0
  187.3510  178.6660  142.3550 C   0  0  2  0  0  3  0  0  0  0  0  0
  185.9100  179.6450  144.2560 C   0  0  0  0  0  2  0  0  0  0  0  0
  186.0990  178.7990  143.0800 N   0  0  0  0  0  0  0  0  0  0  0  0
  185.0850  178.1010  142.3840 C   0  0  0  0  0  0  0  0  0  0  0  0
  2 17  1  0  0  0  0
  3  8  1  0  0  0  0
  4  6  1  0  0  0  0
  5 20  2  0  0  0  0
  5 19  1  0  0  0  0
  8  2  1  0  0  0  0
  8 12  2  0  0  0  0
  9 11  1  0  0  0  0
  9 27  1  0  0  0  0
 10  7  1  6  0  0  0
 10 15  1  0  0  0  0
 12  4  1  0  0  0  0
 13 21  2  0  0  0  0
 14 16  1  6  0  0  0
 14  2  1  0  0  0  0
 15 22  1  1  0  0  0
 16  3  2  0  0  0  0
 17 15  1  0  0  0  0
 18 19  1  0  0  0  0
 18  3  1  0  0  0  0
 19 23  2  0  0  0  0
 20 13  1  0  0  0  0
 23 21  1  0  0  0  0
 23  4  1  0  0  0  0
 24 11  1  6  0  0  0
 24 26  1  0  0  0  0
 24 14  1  0  0  0  0
 25 10  1  0  0  0  0
 26 25  1  0  0  0  0
 27  1  2  0  0  0  0
 27 26  1  0  0  0  0
M  END
>  <MODEL>
4

>  <REMARK>
 VINA RESULT:      -6.8      2.815      7.229
  Name = 
  0 active torsions:
  status: ('A' for Active; 'I' for Inactive)
                            x       y       z     vdW  Elec       q    Type
                         _______ _______ _______ _____ _____    ______ ____

>  <TORSDO>
F 0

$$$$
=
 OpenBabel11042415093D

 27 31  0  0  1  0  0  0  0  0999 V2000
  195.5090  172.0200  143.6720 O   0  0  0  0  0  0  0  0  0  0  0  0
  192.8330  175.8930  143.4340 N   0  0  0  0  0  0  0  0  0  0  0  0
  191.4380  176.6620  145.0370 C   0  0  0  0  0  0  0  0  0  0  0  0
  189.1340  176.0340  142.9110 N   0  0  0  0  0  0  0  0  0  0  0  0
  187.5280  177.3300  146.0310 N   0  0  0  0  0  0  0  0  0  0  0  0
  188.5790  175.6170  141.6230 C   0  0  0  0  0  1  0  0  0  0  0  0
  195.8490  173.3620  141.1310 N   0  0  0  0  0  1  0  0  0  0  0  0
  191.4780  176.1420  143.7880 C   0  0  0  0  0  0  0  0  0  0  0  0
  194.0340  172.6520  145.4710 C   0  0  0  0  0  2  0  0  0  0  0  0
  195.3680  174.6390  141.6340 C   0  0  1  0  0  3  0  0  0  0  0  0
  193.5600  174.0510  145.8760 C   0  0  0  0  0  2  0  0  0  0  0  0
  190.4680  175.9120  142.9150 N   0  0  0  0  0  0  0  0  0  0  0  0
  185.8620  176.8140  144.4360 C   0  0  0  0  0  3  0  0  0  0  0  0
  193.6690  176.2690  144.5740 C   0  0  1  0  0  3  0  0  0  0  0  0
  193.8340  174.7070  141.5510 C   0  0  1  0  0  3  0  0  0  0  0  0
  192.7440  176.7910  145.5780 N   0  0  0  0  0  0  0  0  0  0  0  0
  193.3100  176.0360  142.0670 C   0  0  0  0  0  2  0  0  0  0  0  0
  190.0720  177.1080  145.8700 S   0  0  0  0  0  0  0  0  0  0  0  0
  188.5380  176.9440  145.2020 C   0  0  0  0  0  0  0  0  0  0  0  0
  186.2190  177.2780  145.6860 C   0  0  0  0  0  3  0  0  0  0  0  0
  186.8660  176.4160  143.5640 C   0  0  0  0  0  3  0  0  0  0  0  0
  193.3780  174.5410  140.1140 C   0  0  0  0  0  1  0  0  0  0  0  0
  188.2440  176.4560  143.8920 C   0  0  0  0  0  0  0  0  0  0  0  0
  194.4480  175.0640  145.1310 C   0  0  2  0  0  3  0  0  0  0  0  0
  195.9410  174.8890  143.0360 C   0  0  0  0  0  2  0  0  0  0  0  0
  195.1090  174.3030  144.0850 N   0  0  0  0  0  0  0  0  0  0  0  0
  194.9320  172.9220  144.3330 C   0  0  0  0  0  0  0  0  0  0  0  0
  1 27  2  0  0  0  0
  2  8  1  0  0  0  0
  2 14  1  0  0  0  0
  3 16  2  0  0  0  0
  3 18  1  0  0  0  0
  4 12  1  0  0  0  0
  4 23  1  0  0  0  0
  6  4  1  0  0  0  0
  8  3  1  0  0  0  0
  9 11  1  0  0  0  0
 10  7  1  1  0  0  0
 10 25  1  0  0  0  0
 12  8  2  0  0  0  0
 13 20  2  0  0  0  0
 14 24  1  0  0  0  0
 14 16  1  1  0  0  0
 15 22  1  6  0  0  0
 15 10  1  0  0  0  0
 15 17  1  0  0  0  0
 17  2  1  0  0  0  0
 19 18  1  0  0  0  0
 19  5  2  0  0  0  0
 20  5  1  0  0  0  0
 21 23  2  0  0  0  0
 21 13  1  0  0  0  0
 23 19  1  0  0  0  0
 24 11  1  6  0  0  0
 25 26  1  0  0  0  0
 26 27  1  0  0  0  0
 26 24  1  0  0  0  0
 27  9  1  0  0  0  0
M  END
>  <MODEL>
5

>  <REMARK>
 VINA RESULT:      -6.8      3.044      3.874
  Name = 
  0 active torsions:
  status: ('A' for Active; 'I' for Inactive)
                            x       y       z     vdW  Elec       q    Type
                         _______ _______ _______ _____ _____    ______ ____

>  <TORSDO>
F 0

$$$$
=
 OpenBabel11042415093D

 27 31  0  0  1  0  0  0  0  0999 V2000
  195.6160  171.9920  142.2450 O   0  0  0  0  0  0  0  0  0  0  0  0
  193.5990  175.5200  144.6310 N   0  0  0  0  0  0  0  0  0  0  0  0
  191.9180  175.3390  146.1310 C   0  0  0  0  0  0  0  0  0  0  0  0
  190.2340  177.0210  143.9960 N   0  0  0  0  0  0  0  0  0  0  0  0
  187.9960  176.2200  146.8850 N   0  0  0  0  0  0  0  0  0  0  0  0
  190.0100  177.7770  142.7640 C   0  0  0  0  0  1  0  0  0  0  0  0
  196.8050  174.5340  141.5400 N   0  0  0  0  0  1  0  0  0  0  0  0
  192.2390  175.8310  144.9110 C   0  0  0  0  0  0  0  0  0  0  0  0
  193.7880  171.6070  143.7700 C   0  0  0  0  0  2  0  0  0  0  0  0
  196.3620  175.1860  142.7620 C   0  0  1  0  0  3  0  0  0  0  0  0
  193.3930  172.4070  145.0140 C   0  0  0  0  0  2  0  0  0  0  0  0
  191.4900  176.5590  144.0480 N   0  0  0  0  0  0  0  0  0  0  0  0
  186.7870  177.4340  145.2570 C   0  0  0  0  0  3  0  0  0  0  0  0
  194.1250  174.7590  145.7630 C   0  0  1  0  0  3  0  0  0  0  0  0
  194.9300  175.7230  142.5960 C   0  0  1  0  0  3  0  0  0  0  0  0
  193.0290  174.6870  146.7260 N   0  0  0  0  0  0  0  0  0  0  0  0
  194.4490  176.4150  143.8600 C   0  0  0  0  0  2  0  0  0  0  0  0
  190.4400  175.4590  146.8780 S   0  0  0  0  0  0  0  0  0  0  0  0
  189.1420  176.2390  146.1480 C   0  0  0  0  0  0  0  0  0  0  0  0
  186.8380  176.7900  146.4780 C   0  0  0  0  0  3  0  0  0  0  0  0
  187.9370  177.4760  144.4810 C   0  0  0  0  0  3  0  0  0  0  0  0
  194.8730  176.7220  141.4560 C   0  0  0  0  0  1  0  0  0  0  0  0
  189.1650  176.8880  144.8750 C   0  0  0  0  0  0  0  0  0  0  0  0
  194.5690  173.3460  145.3410 C   0  0  2  0  0  3  0  0  0  0  0  0
  196.5500  174.2350  143.9520 C   0  0  0  0  0  2  0  0  0  0  0  0
  195.3960  173.3610  144.1470 N   0  0  0  0  0  0  0  0  0  0  0  0
  194.9920  172.3110  143.2900 C   0  0  0  0  0  0  0  0  0  0  0  0
  1 27  2  0  0  0  0
  2  8  1  0  0  0  0
  2 14  1  0  0  0  0
  3 16  2  0  0  0  0
  3 18  1  0  0  0  0
  4 12  1  0  0  0  0
  4 23  1  0  0  0  0
  6  4  1  0  0  0  0
  8  3  1  0  0  0  0
  9 11  1  0  0  0  0
 10  7  1  6  0  0  0
 10 25  1  0  0  0  0
 12  8  2  0  0  0  0
 13 20  2  0  0  0  0
 14 16  1  1  0  0  0
 15 22  1  6  0  0  0
 15 10  1  0  0  0  0
 15 17  1  0  0  0  0
 17  2  1  0  0  0  0
 19 18  1  0  0  0  0
 19  5  2  0  0  0  0
 20  5  1  0  0  0  0
 21 23  2  0  0  0  0
 21 13  1  0  0  0  0
 23 19  1  0  0  0  0
 24 11  1  6  0  0  0
 24 14  1  0  0  0  0
 25 26  1  0  0  0  0
 26 24  1  0  0  0  0
 27  9  1  0  0  0  0
 27 26  1  0  0  0  0
M  END
>  <MODEL>
6

>  <REMARK>
 VINA RESULT:      -6.7      3.544      4.522
  Name = 
  0 active torsions:
  status: ('A' for Active; 'I' for Inactive)
                            x       y       z     vdW  Elec       q    Type
                         _______ _______ _______ _____ _____    ______ ____

>  <TORSDO>
F 0

$$$$
=
 OpenBabel11042415093D

 27 31  0  0  1  0  0  0  0  0999 V2000
  196.5530  175.5680  142.0990 O   0  0  0  0  0  0  0  0  0  0  0  0
  192.3820  174.3370  143.9160 N   0  0  0  0  0  0  0  0  0  0  0  0
  190.3990  174.3100  142.8320 C   0  0  0  0  0  0  0  0  0  0  0  0
  189.5900  176.6300  144.8780 N   0  0  0  0  0  0  0  0  0  0  0  0
  186.7030  176.0400  142.5730 N   0  0  0  0  0  0  0  0  0  0  0  0
  189.7700  177.5410  146.0080 C   0  0  0  0  0  1  0  0  0  0  0  0
  196.8120  174.8300  144.8850 N   0  0  0  0  0  1  0  0  0  0  0  0
  191.0880  174.9210  143.8240 C   0  0  0  0  0  0  0  0  0  0  0  0
  194.5270  175.6570  140.7940 C   0  0  0  0  0  2  0  0  0  0  0  0
  195.5770  174.0620  144.8940 C   0  0  1  0  0  3  0  0  0  0  0  0
  193.2580  174.8110  140.9350 C   0  0  0  0  0  2  0  0  0  0  0  0
  190.6910  175.8930  144.6810 N   0  0  0  0  0  0  0  0  0  0  0  0
  186.1690  177.7760  144.0850 C   0  0  0  0  0  3  0  0  0  0  0  0
  192.4840  173.3120  142.8790 C   0  0  1  0  0  3  0  0  0  0  0  0
  194.3740  174.9800  145.1700 C   0  0  1  0  0  3  0  0  0  0  0  0
  191.1800  173.2960  142.2190 N   0  0  0  0  0  0  0  0  0  0  0  0
  193.0730  174.1970  145.1900 C   0  0  0  0  0  2  0  0  0  0  0  0
  188.8460  174.6580  142.3580 S   0  0  0  0  0  0  0  0  0  0  0  0
  187.9460  175.8660  143.1040 C   0  0  0  0  0  0  0  0  0  0  0  0
  185.8190  176.9600  143.0280 C   0  0  0  0  0  3  0  0  0  0  0  0
  187.4260  177.6230  144.6540 C   0  0  0  0  0  3  0  0  0  0  0  0
  194.5360  175.6680  146.5130 C   0  0  0  0  0  1  0  0  0  0  0  0
  188.3750  176.6730  144.2020 C   0  0  0  0  0  0  0  0  0  0  0  0
  193.5990  173.6340  141.8670 C   0  0  2  0  0  3  0  0  0  0  0  0
  195.4690  173.2450  143.5990 C   0  0  0  0  0  2  0  0  0  0  0  0
  194.8440  174.0040  142.5180 N   0  0  0  0  0  0  0  0  0  0  0  0
  195.4060  175.1140  141.8460 C   0  0  0  0  0  0  0  0  0  0  0  0
  2 17  1  0  0  0  0
  3  8  1  0  0  0  0
  4  6  1  0  0  0  0
  5 20  2  0  0  0  0
  5 19  1  0  0  0  0
  8  2  1  0  0  0  0
  8 12  2  0  0  0  0
  9 11  1  0  0  0  0
  9 27  1  0  0  0  0
 10  7  1  6  0  0  0
 10 15  1  0  0  0  0
 12  4  1  0  0  0  0
 13 21  2  0  0  0  0
 14 16  1  6  0  0  0
 14  2  1  0  0  0  0
 15 17  1  0  0  0  0
 15 22  1  1  0  0  0
 16  3  2  0  0  0  0
 18  3  1  0  0  0  0
 18 19  1  0  0  0  0
 19 23  2  0  0  0  0
 20 13  1  0  0  0  0
 23 21  1  0  0  0  0
 23  4  1  0  0  0  0
 24 11  1  6  0  0  0
 24 26  1  0  0  0  0
 24 14  1  0  0  0  0
 25 10  1  0  0  0  0
 26 25  1  0  0  0  0
 27  1  2  0  0  0  0
 27 26  1  0  0  0  0
M  END
>  <MODEL>
7

>  <REMARK>
 VINA RESULT:      -6.7      3.312      5.239
  Name = 
  0 active torsions:
  status: ('A' for Active; 'I' for Inactive)
                            x       y       z     vdW  Elec       q    Type
                         _______ _______ _______ _____ _____    ______ ____

>  <TORSDO>
F 0

$$$$
=
 OpenBabel11042415093D

 27 31  0  0  1  0  0  0  0  0999 V2000
  185.9630  176.4150  143.9070 O   0  0  0  0  0  0  0  0  0  0  0  0
  190.6230  176.4280  144.6150 N   0  0  0  0  0  0  0  0  0  0  0  0
  192.2240  176.4670  143.0200 C   0  0  0  0  0  0  0  0  0  0  0  0
  192.9730  173.5630  144.1260 N   0  0  0  0  0  0  0  0  0  0  0  0
  195.2470  174.3490  141.2610 N   0  0  0  0  0  0  0  0  0  0  0  0
  192.8810  172.4030  145.0130 C   0  0  0  0  0  1  0  0  0  0  0  0
  186.5840  176.3500  146.7330 N   0  0  0  0  0  1  0  0  0  0  0  0
  191.6850  175.7080  144.0030 C   0  0  0  0  0  0  0  0  0  0  0  0
  187.5230  176.4020  142.0690 C   0  0  0  0  0  2  0  0  0  0  0  0
  187.9220  176.8880  146.5470 C   0  0  1  0  0  3  0  0  0  0  0  0
  188.9440  176.9700  142.0130 C   0  0  0  0  0  2  0  0  0  0  0  0
  192.0540  174.4820  144.4480 N   0  0  0  0  0  0  0  0  0  0  0  0
  195.7360  172.1920  142.0930 C   0  0  0  0  0  3  0  0  0  0  0  0
  190.4990  177.7120  143.9260 C   0  0  1  0  0  3  0  0  0  0  0  0
  188.9160  175.7590  146.2250 C   0  0  1  0  0  3  0  0  0  0  0  0
  191.5640  177.7210  142.9260 N   0  0  0  0  0  0  0  0  0  0  0  0
  190.3230  176.2980  146.0330 C   0  0  0  0  0  2  0  0  0  0  0  0
  193.4880  176.0410  142.0320 S   0  0  0  0  0  0  0  0  0  0  0  0
  194.2500  174.5480  142.1680 C   0  0  0  0  0  0  0  0  0  0  0  0
  195.9850  173.2160  141.2000 C   0  0  0  0  0  3  0  0  0  0  0  0
  194.7300  172.3620  143.0340 C   0  0  0  0  0  3  0  0  0  0  0  0
  188.9440  174.7470  147.3540 C   0  0  0  0  0  1  0  0  0  0  0  0
  193.9380  173.5340  143.1240 C   0  0  0  0  0  0  0  0  0  0  0  0
  189.1230  177.8660  143.2520 C   0  0  2  0  0  3  0  0  0  0  0  0
  187.8840  178.0170  145.5080 C   0  0  0  0  0  2  0  0  0  0  0  0
  188.0300  177.5170  144.1430 N   0  0  0  0  0  0  0  0  0  0  0  0
  187.0810  176.7450  143.4330 C   0  0  0  0  0  0  0  0  0  0  0  0
  2 17  1  0  0  0  0
  3  8  1  0  0  0  0
  4 12  1  0  0  0  0
  4  6  1  0  0  0  0
  5 19  1  0  0  0  0
  8 12  2  0  0  0  0
  8  2  1  0  0  0  0
  9 27  1  0  0  0  0
 10  7  1  6  0  0  0
 11  9  1  0  0  0  0
 13 21  2  0  0  0  0
 14 16  1  6  0  0  0
 14  2  1  0  0  0  0
 15 10  1  0  0  0  0
 15 22  1  1  0  0  0
 16  3  2  0  0  0  0
 17 15  1  0  0  0  0
 18 19  1  0  0  0  0
 18  3  1  0  0  0  0
 19 23  2  0  0  0  0
 20  5  2  0  0  0  0
 20 13  1  0  0  0  0
 21 23  1  0  0  0  0
 23  4  1  0  0  0  0
 24 11  1  6  0  0  0
 24 14  1  0  0  0  0
 24 26  1  0  0  0  0
 25 10  1  0  0  0  0
 26 25  1  0  0  0  0
 27  1  2  0  0  0  0
 27 26  1  0  0  0  0
M  END
>  <MODEL>
8

>  <REMARK>
 VINA RESULT:      -6.6      3.236      7.654
  Name = 
  0 active torsions:
  status: ('A' for Active; 'I' for Inactive)
                            x       y       z     vdW  Elec       q    Type
                         _______ _______ _______ _____ _____    ______ ____

>  <TORSDO>
F 0

$$$$
=
 OpenBabel11042415093D

 27 31  0  0  1  0  0  0  0  0999 V2000
  193.7900  176.9540  146.5140 O   0  0  0  0  0  0  0  0  0  0  0  0
  189.8470  175.1960  144.6230 N   0  0  0  0  0  0  0  0  0  0  0  0
  189.6250  174.3200  142.5520 C   0  0  0  0  0  0  0  0  0  0  0  0
  187.6890  176.8110  142.0330 N   0  0  0  0  0  0  0  0  0  0  0  0
  187.9150  174.8240  138.8710 N   0  0  0  0  0  0  0  0  0  0  0  0
  186.9390  178.0180  142.3800 C   0  0  0  0  0  1  0  0  0  0  0  0
  191.5780  177.1380  148.3710 N   0  0  0  0  0  1  0  0  0  0  0  0
  189.2480  175.3520  143.3430 C   0  0  0  0  0  0  0  0  0  0  0  0
  193.7360  176.1100  144.2560 C   0  0  0  0  0  2  0  0  0  0  0  0
  190.8110  176.0960  147.7060 C   0  0  1  0  0  3  0  0  0  0  0  0
  192.8340  175.0260  143.6590 C   0  0  0  0  0  2  0  0  0  0  0  0
  188.4040  176.3800  143.0800 N   0  0  0  0  0  0  0  0  0  0  0  0
  186.5210  176.7020  138.5300 C   0  0  0  0  0  3  0  0  0  0  0  0
  190.6690  173.9870  144.5880 C   0  0  1  0  0  3  0  0  0  0  0  0
  189.9890  176.6880  146.5490 C   0  0  1  0  0  3  0  0  0  0  0  0
  190.4800  173.4280  143.2510 N   0  0  0  0  0  0  0  0  0  0  0  0
  189.1740  175.6180  145.8430 C   0  0  0  0  0  2  0  0  0  0  0  0
  189.1740  174.0810  140.9720 S   0  0  0  0  0  0  0  0  0  0  0  0
  188.1600  175.1550  140.1700 C   0  0  0  0  0  0  0  0  0  0  0  0
  187.1250  175.5560  138.0510 C   0  0  0  0  0  3  0  0  0  0  0  0
  186.7460  177.0680  139.8510 C   0  0  0  0  0  3  0  0  0  0  0  0
  189.0340  177.7460  147.0710 C   0  0  0  0  0  1  0  0  0  0  0  0
  187.5670  176.3260  140.7350 C   0  0  0  0  0  0  0  0  0  0  0  0
  192.1560  174.3020  144.8370 C   0  0  2  0  0  3  0  0  0  0  0  0
  191.7450  174.9480  147.2990 C   0  0  0  0  0  2  0  0  0  0  0  0
  192.3500  175.1670  145.9870 N   0  0  0  0  0  0  0  0  0  0  0  0
  193.3160  176.1510  145.6690 C   0  0  0  0  0  0  0  0  0  0  0  0
  2 17  1  0  0  0  0
  3 16  2  0  0  0  0
  3  8  1  0  0  0  0
  4  6  1  0  0  0  0
  4 12  1  0  0  0  0
  5 19  1  0  0  0  0
  8  2  1  0  0  0  0
  9 27  1  0  0  0  0
 10  7  1  6  0  0  0
 11  9  1  0  0  0  0
 12  8  2  0  0  0  0
 13 21  2  0  0  0  0
 14 16  1  6  0  0  0
 14  2  1  0  0  0  0
 14 24  1  0  0  0  0
 15 22  1  1  0  0  0
 15 10  1  0  0  0  0
 17 15  1  0  0  0  0
 18  3  1  0  0  0  0
 19 23  2  0  0  0  0
 19 18  1  0  0  0  0
 20 13  1  0  0  0  0
 20  5  2  0  0  0  0
 21 23  1  0  0  0  0
 23  4  1  0  0  0  0
 24 11  1  6  0  0  0
 24 26  1  0  0  0  0
 25 10  1  0  0  0  0
 26 25  1  0  0  0  0
 27 26  1  0  0  0  0
 27  1  2  0  0  0  0
M  END
>  <MODEL>
9

>  <REMARK>
 VINA RESULT:      -6.6      3.164      5.885
  Name = 
  0 active torsions:
  status: ('A' for Active; 'I' for Inactive)
                            x       y       z     vdW  Elec       q    Type
                         _______ _______ _______ _____ _____    ______ ____

>  <TORSDO>
F 0

$$$$
