=
 OpenBabel11042418113D

 25 26  0  0  1  0  0  0  0  0999 V2000
  187.1430  177.7480  147.0870 C   0  0  0  0  0  2  0  0  0  0  0  0
  188.6120  176.7730  145.2030 C   0  0  2  0  0  3  0  0  0  0  0  0
  185.3510  179.2880  147.2950 O   0  0  0  0  0  1  0  0  0  0  0  0
  186.6120  177.8190  144.0410 C   0  0  1  0  0  3  0  0  0  0  0  0
  188.1220  177.8260  144.2020 C   0  0  0  0  0  2  0  0  0  0  0  0
  187.6860  176.4900  146.4020 C   0  0  0  0  0  2  0  0  0  0  0  0
  185.8170  178.2440  146.4910 C   0  0  1  0  0  0  0  0  0  0  0  0
  186.0140  178.7370  145.0770 C   0  0  0  0  0  0  0  0  0  0  0  0
  185.7540  179.8980  144.7910 O   0  0  0  0  0  0  0  0  0  0  0  0
  184.7740  177.1360  146.5090 C   0  0  0  0  0  1  0  0  0  0  0  0
  190.3390  176.6250  146.9650 N   0  0  0  0  0  1  0  0  0  0  0  0
  190.0670  177.0440  145.5980 C   0  0  1  0  0  3  0  0  0  0  0  0
  191.2470  175.0700  144.6600 N   0  0  0  0  0  0  0  0  0  0  0  0
  192.1060  174.4840  143.7860 C   0  0  0  0  0  3  0  0  0  0  0  0
  192.7660  175.2400  142.8690 N   0  0  0  0  0  0  0  0  0  0  0  0
  191.0350  176.4160  144.6420 C   0  0  0  0  0  0  0  0  0  0  0  0
  191.7030  177.2040  143.6990 C   0  0  0  0  0  0  0  0  0  0  0  0
  192.5800  176.5840  142.8110 C   0  0  0  0  0  3  0  0  0  0  0  0
  191.5110  178.5460  143.6400 F   0  0  0  0  0  0  0  0  0  0  0  0
  186.2330  178.2110  142.6170 C   0  0  0  0  0  2  0  0  0  0  0  0
  184.1790  178.2670  141.1380 C   0  0  0  0  0  0  0  0  0  0  0  0
  184.8120  177.9910  142.3890 N   0  0  0  0  0  2  0  0  0  0  0  0
  184.8370  178.7460  140.1760 O   0  0  0  0  0  0  0  0  0  0  0  0
  182.7380  177.9480  140.9560 C   0  0  0  0  0  2  0  0  0  0  0  0
  181.9550  178.6310  141.9710 N   0  0  0  0  0  1  0  0  0  0  0  0
  2 12  1  1  0  0  0
  2  6  1  0  0  0  0
  4 20  1  6  0  0  0
  4  5  1  0  0  0  0
  4  8  1  0  0  0  0
  5  2  1  0  0  0  0
  6  1  1  0  0  0  0
  7 10  1  1  0  0  0
  7  1  1  0  0  0  0
  7  3  1  0  0  0  0
  8  7  1  0  0  0  0
  9  8  2  0  0  0  0
 12 11  1  1  0  0  0
 14 13  2  0  0  0  0
 15 14  1  0  0  0  0
 16 13  1  0  0  0  0
 16 12  1  0  0  0  0
 17 16  2  0  0  0  0
 18 15  2  0  0  0  0
 18 17  1  0  0  0  0
 19 17  1  0  0  0  0
 21 22  1  0  0  0  0
 22 20  1  0  0  0  0
 23 21  2  0  0  0  0
 24 21  1  0  0  0  0
 24 25  1  0  0  0  0
M  END
>  <MODEL>
1

>  <REMARK>
 VINA RESULT:      -7.0      0.000      0.000
  Name = 
  5 active torsions:
  status: ('A' for Active; 'I' for Inactive)
    1  A    between atoms: C_3  and  C_14
    2  A    between atoms: C_4  and  C_13
    3  A    between atoms: C_7  and  C_15
    4  A    between atoms: C_12  and  C_14
    5  A    between atoms: C_15  and  N_17
                            x       y       z     vdW  Elec       q    Type
                         _______ _______ _______ _____ _____    ______ ____

>  <TORSDO>
F 5

$$$$
=
 OpenBabel11042418113D

 25 26  0  0  1  0  0  0  0  0999 V2000
  185.2910  178.3580  142.6830 C   0  0  0  0  0  2  0  0  0  0  0  0
  187.5160  177.0850  142.9770 C   0  0  2  0  0  3  0  0  0  0  0  0
  183.4600  179.0240  144.0370 O   0  0  0  0  0  1  0  0  0  0  0  0
  186.7700  177.7110  145.3220 C   0  0  1  0  0  3  0  0  0  0  0  0
  187.1060  176.5790  144.3660 C   0  0  0  0  0  2  0  0  0  0  0  0
  186.8090  178.3610  142.4810 C   0  0  0  0  0  2  0  0  0  0  0  0
  184.8550  178.9350  144.0380 C   0  0  1  0  0  0  0  0  0  0  0  0
  185.3080  178.0470  145.1730 C   0  0  0  0  0  0  0  0  0  0  0  0
  184.4840  177.5460  145.9260 O   0  0  0  0  0  0  0  0  0  0  0  0
  185.4140  180.3380  144.2280 C   0  0  0  0  0  1  0  0  0  0  0  0
  187.4330  176.4300  140.5940 N   0  0  0  0  0  1  0  0  0  0  0  0
  187.5000  175.9370  141.9620 C   0  0  1  0  0  3  0  0  0  0  0  0
  189.9230  175.5100  142.3040 N   0  0  0  0  0  0  0  0  0  0  0  0
  190.9850  174.6840  142.4890 C   0  0  0  0  0  3  0  0  0  0  0  0
  190.8040  173.3380  142.5210 N   0  0  0  0  0  0  0  0  0  0  0  0
  188.6650  175.0120  142.1410 C   0  0  0  0  0  0  0  0  0  0  0  0
  188.4640  173.6280  142.1790 C   0  0  0  0  0  0  0  0  0  0  0  0
  189.5670  172.7980  142.3710 C   0  0  0  0  0  3  0  0  0  0  0  0
  187.2270  173.0920  142.0350 F   0  0  0  0  0  0  0  0  0  0  0  0
  187.1440  177.3220  146.7480 C   0  0  0  0  0  2  0  0  0  0  0  0
  189.4270  176.2420  146.9330 C   0  0  0  0  0  0  0  0  0  0  0  0
  188.0130  176.1530  146.7460 N   0  0  0  0  0  2  0  0  0  0  0  0
  189.9870  177.3610  147.0800 O   0  0  0  0  0  0  0  0  0  0  0  0
  190.2400  174.9990  146.9920 C   0  0  0  0  0  2  0  0  0  0  0  0
  189.8310  174.0970  145.9310 N   0  0  0  0  0  1  0  0  0  0  0  0
  1  7  1  0  0  0  0
  2 12  1  6  0  0  0
  2  5  1  0  0  0  0
  3  7  1  0  0  0  0
  4 20  1  1  0  0  0
  5  4  1  0  0  0  0
  6  1  1  0  0  0  0
  6  2  1  0  0  0  0
  7 10  1  1  0  0  0
  7  8  1  0  0  0  0
  8  4  1  0  0  0  0
  8  9  2  0  0  0  0
 12 11  1  6  0  0  0
 12 16  1  0  0  0  0
 13 14  1  0  0  0  0
 14 15  2  0  0  0  0
 16 17  1  0  0  0  0
 16 13  2  0  0  0  0
 17 18  2  0  0  0  0
 18 15  1  0  0  0  0
 19 17  1  0  0  0  0
 21 24  1  0  0  0  0
 21 23  2  0  0  0  0
 22 20  1  0  0  0  0
 22 21  1  0  0  0  0
 25 24  1  0  0  0  0
M  END
>  <MODEL>
2

>  <REMARK>
 VINA RESULT:      -6.9      2.850      5.271
  Name = 
  5 active torsions:
  status: ('A' for Active; 'I' for Inactive)
    1  A    between atoms: C_3  and  C_14
    2  A    between atoms: C_4  and  C_13
    3  A    between atoms: C_7  and  C_15
    4  A    between atoms: C_12  and  C_14
    5  A    between atoms: C_15  and  N_17
                            x       y       z     vdW  Elec       q    Type
                         _______ _______ _______ _____ _____    ______ ____

>  <TORSDO>
F 5

$$$$
=
 OpenBabel11042418113D

 25 26  0  0  1  0  0  0  0  0999 V2000
  187.3440  177.7780  146.9270 C   0  0  0  0  0  2  0  0  0  0  0  0
  189.0640  176.2800  145.7190 C   0  0  2  0  0  3  0  0  0  0  0  0
  185.5020  179.1540  146.3440 O   0  0  0  0  0  1  0  0  0  0  0  0
  187.2020  176.6770  144.0400 C   0  0  1  0  0  3  0  0  0  0  0  0
  188.6780  176.8510  144.3480 C   0  0  0  0  0  2  0  0  0  0  0  0
  188.0010  176.3970  146.8280 C   0  0  0  0  0  2  0  0  0  0  0  0
  186.0930  177.9230  146.0480 C   0  0  1  0  0  0  0  0  0  0  0  0
  186.4550  177.8690  144.5830 C   0  0  0  0  0  0  0  0  0  0  0  0
  186.2050  178.8200  143.8540 O   0  0  0  0  0  0  0  0  0  0  0  0
  185.0830  176.8300  146.3690 C   0  0  0  0  0  1  0  0  0  0  0  0
  190.6440  176.6820  147.5770 N   0  0  0  0  0  1  0  0  0  0  0  0
  190.4500  176.7800  146.1380 C   0  0  1  0  0  3  0  0  0  0  0  0
  191.8180  174.7660  145.6500 N   0  0  0  0  0  0  0  0  0  0  0  0
  192.7970  174.1100  144.9740 C   0  0  0  0  0  3  0  0  0  0  0  0
  193.5200  174.7590  144.0240 N   0  0  0  0  0  0  0  0  0  0  0  0
  191.5480  176.0780  145.3990 C   0  0  0  0  0  0  0  0  0  0  0  0
  192.2810  176.7550  144.4190 C   0  0  0  0  0  0  0  0  0  0  0  0
  193.2800  176.0640  143.7360 C   0  0  0  0  0  3  0  0  0  0  0  0
  192.0350  178.0570  144.1300 F   0  0  0  0  0  0  0  0  0  0  0  0
  186.9970  176.4860  142.5410 C   0  0  0  0  0  2  0  0  0  0  0  0
  188.3770  174.5520  141.6640 C   0  0  0  0  0  0  0  0  0  0  0  0
  188.2020  175.9460  141.9270 N   0  0  0  0  0  2  0  0  0  0  0  0
  187.4870  173.7210  141.9870 O   0  0  0  0  0  0  0  0  0  0  0  0
  189.6040  174.0830  140.9680 C   0  0  0  0  0  2  0  0  0  0  0  0
  190.7620  174.3080  141.8150 N   0  0  0  0  0  1  0  0  0  0  0  0
  2 12  1  1  0  0  0
  2  6  1  0  0  0  0
  4 20  1  6  0  0  0
  4  5  1  0  0  0  0
  4  8  1  0  0  0  0
  5  2  1  0  0  0  0
  6  1  1  0  0  0  0
  7  3  1  0  0  0  0
  7 10  1  1  0  0  0
  7  1  1  0  0  0  0
  8  7  1  0  0  0  0
  9  8  2  0  0  0  0
 12 11  1  1  0  0  0
 14 13  2  0  0  0  0
 15 14  1  0  0  0  0
 16 13  1  0  0  0  0
 16 12  1  0  0  0  0
 17 16  2  0  0  0  0
 18 15  2  0  0  0  0
 18 17  1  0  0  0  0
 19 17  1  0  0  0  0
 21 22  1  0  0  0  0
 21 23  2  0  0  0  0
 22 20  1  0  0  0  0
 24 21  1  0  0  0  0
 24 25  1  0  0  0  0
M  END
>  <MODEL>
3

>  <REMARK>
 VINA RESULT:      -6.7      2.328      3.256
  Name = 
  5 active torsions:
  status: ('A' for Active; 'I' for Inactive)
    1  A    between atoms: C_3  and  C_14
    2  A    between atoms: C_4  and  C_13
    3  A    between atoms: C_7  and  C_15
    4  A    between atoms: C_12  and  C_14
    5  A    between atoms: C_15  and  N_17
                            x       y       z     vdW  Elec       q    Type
                         _______ _______ _______ _____ _____    ______ ____

>  <TORSDO>
F 5

$$$$
=
 OpenBabel11042418113D

 25 26  0  0  1  0  0  0  0  0999 V2000
  185.3290  177.5320  144.2740 C   0  0  0  0  0  2  0  0  0  0  0  0
  187.6960  177.0680  143.3590 C   0  0  2  0  0  3  0  0  0  0  0  0
  184.2360  177.5560  146.3800 O   0  0  0  0  0  1  0  0  0  0  0  0
  187.9830  177.4160  145.8570 C   0  0  1  0  0  3  0  0  0  0  0  0
  188.1500  176.4580  144.6910 C   0  0  0  0  0  2  0  0  0  0  0  0
  186.5000  178.0380  143.4270 C   0  0  0  0  0  2  0  0  0  0  0  0
  185.4270  177.9340  145.7530 C   0  0  1  0  0  0  0  0  0  0  0  0
  186.5950  177.2480  146.4210 C   0  0  0  0  0  0  0  0  0  0  0  0
  186.4060  176.5030  147.3730 O   0  0  0  0  0  0  0  0  0  0  0  0
  185.5700  179.4430  145.8900 C   0  0  0  0  0  1  0  0  0  0  0  0
  187.2380  176.5440  140.9870 N   0  0  0  0  0  1  0  0  0  0  0  0
  187.5470  175.9790  142.2920 C   0  0  1  0  0  3  0  0  0  0  0  0
  190.0050  175.6270  142.2750 N   0  0  0  0  0  0  0  0  0  0  0  0
  191.1080  174.8350  142.2330 C   0  0  0  0  0  3  0  0  0  0  0  0
  190.9740  173.4860  142.1410 N   0  0  0  0  0  0  0  0  0  0  0  0
  188.7530  175.0930  142.2200 C   0  0  0  0  0  0  0  0  0  0  0  0
  188.6010  173.7050  142.1330 C   0  0  0  0  0  0  0  0  0  0  0  0
  189.7450  172.9100  142.0910 C   0  0  0  0  0  3  0  0  0  0  0  0
  187.3730  173.1320  142.0890 F   0  0  0  0  0  0  0  0  0  0  0  0
  189.0740  177.1750  146.8950 C   0  0  0  0  0  2  0  0  0  0  0  0
  191.5080  176.4800  146.9690 C   0  0  0  0  0  0  0  0  0  0  0  0
  190.2900  176.6940  146.2530 N   0  0  0  0  0  2  0  0  0  0  0  0
  191.5830  176.7330  148.2010 O   0  0  0  0  0  0  0  0  0  0  0  0
  192.6890  175.9180  146.2610 C   0  0  0  0  0  2  0  0  0  0  0  0
  192.8900  176.6260  145.0090 N   0  0  0  0  0  1  0  0  0  0  0  0
  1  7  1  0  0  0  0
  2 12  1  6  0  0  0
  2  6  1  0  0  0  0
  2  5  1  0  0  0  0
  4  8  1  0  0  0  0
  4 20  1  1  0  0  0
  5  4  1  0  0  0  0
  6  1  1  0  0  0  0
  7 10  1  1  0  0  0
  7  3  1  0  0  0  0
  7  8  1  0  0  0  0
  8  9  2  0  0  0  0
 12 11  1  6  0  0  0
 14 13  1  0  0  0  0
 15 14  2  0  0  0  0
 16 13  2  0  0  0  0
 16 12  1  0  0  0  0
 17 16  1  0  0  0  0
 18 17  2  0  0  0  0
 18 15  1  0  0  0  0
 19 17  1  0  0  0  0
 21 23  2  0  0  0  0
 22 20  1  0  0  0  0
 22 21  1  0  0  0  0
 24 21  1  0  0  0  0
 25 24  1  0  0  0  0
M  END
>  <MODEL>
4

>  <REMARK>
 VINA RESULT:      -6.4      2.988      5.670
  Name = 
  5 active torsions:
  status: ('A' for Active; 'I' for Inactive)
    1  A    between atoms: C_3  and  C_14
    2  A    between atoms: C_4  and  C_13
    3  A    between atoms: C_7  and  C_15
    4  A    between atoms: C_12  and  C_14
    5  A    between atoms: C_15  and  N_17
                            x       y       z     vdW  Elec       q    Type
                         _______ _______ _______ _____ _____    ______ ____

>  <TORSDO>
F 5

$$$$
=
 OpenBabel11042418113D

 25 26  0  0  1  0  0  0  0  0999 V2000
  191.0270  175.6500  145.5030 C   0  0  0  0  0  2  0  0  0  0  0  0
  188.9640  177.1270  145.0370 C   0  0  2  0  0  3  0  0  0  0  0  0
  192.0230  173.6940  144.6030 O   0  0  0  0  0  1  0  0  0  0  0  0
  189.2800  175.7140  142.9520 C   0  0  1  0  0  3  0  0  0  0  0  0
  188.3550  176.0760  144.1010 C   0  0  0  0  0  2  0  0  0  0  0  0
  190.4900  177.0600  145.2360 C   0  0  0  0  0  2  0  0  0  0  0  0
  191.4050  174.8880  144.2240 C   0  0  1  0  0  0  0  0  0  0  0  0
  190.1780  174.5870  143.3950 C   0  0  0  0  0  0  0  0  0  0  0  0
  189.8770  173.4280  143.1440 O   0  0  0  0  0  0  0  0  0  0  0  0
  192.4000  175.6890  143.3970 C   0  0  0  0  0  1  0  0  0  0  0  0
  188.9170  177.9020  147.3840 N   0  0  0  0  0  1  0  0  0  0  0  0
  188.1740  177.2010  146.3470 C   0  0  1  0  0  3  0  0  0  0  0  0
  186.6000  178.6970  145.1420 N   0  0  0  0  0  0  0  0  0  0  0  0
  185.3710  179.2410  144.9410 C   0  0  0  0  0  3  0  0  0  0  0  0
  184.3350  178.9000  145.7500 N   0  0  0  0  0  0  0  0  0  0  0  0
  186.8190  177.8110  146.1540 C   0  0  0  0  0  0  0  0  0  0  0  0
  185.7580  177.4460  146.9900 C   0  0  0  0  0  0  0  0  0  0  0  0
  184.5060  178.0150  146.7660 C   0  0  0  0  0  3  0  0  0  0  0  0
  185.9310  176.5580  148.0000 F   0  0  0  0  0  0  0  0  0  0  0  0
  188.4640  175.3650  141.7110 C   0  0  0  0  0  2  0  0  0  0  0  0
  187.1480  177.5050  141.4030 C   0  0  0  0  0  0  0  0  0  0  0  0
  187.2130  176.1090  141.6990 N   0  0  0  0  0  2  0  0  0  0  0  0
  188.1970  178.1620  141.1650 O   0  0  0  0  0  0  0  0  0  0  0  0
  185.8250  178.1820  141.3370 C   0  0  0  0  0  2  0  0  0  0  0  0
  185.1530  177.8220  140.1010 N   0  0  0  0  0  1  0  0  0  0  0  0
  2  6  1  0  0  0  0
  2 12  1  1  0  0  0
  4 20  1  6  0  0  0
  4  8  1  0  0  0  0
  4  5  1  0  0  0  0
  5  2  1  0  0  0  0
  6  1  1  0  0  0  0
  7 10  1  6  0  0  0
  7  3  1  0  0  0  0
  7  1  1  0  0  0  0
  8  7  1  0  0  0  0
  9  8  2  0  0  0  0
 12 11  1  1  0  0  0
 13 16  1  0  0  0  0
 14 13  2  0  0  0  0
 14 15  1  0  0  0  0
 15 18  2  0  0  0  0
 16 12  1  0  0  0  0
 16 17  2  0  0  0  0
 17 19  1  0  0  0  0
 18 17  1  0  0  0  0
 21 22  1  0  0  0  0
 22 20  1  0  0  0  0
 23 21  2  0  0  0  0
 24 21  1  0  0  0  0
 25 24  1  0  0  0  0
M  END
>  <MODEL>
5

>  <REMARK>
 VINA RESULT:      -6.3      3.382      5.753
  Name = 
  5 active torsions:
  status: ('A' for Active; 'I' for Inactive)
    1  A    between atoms: C_3  and  C_14
    2  A    between atoms: C_4  and  C_13
    3  A    between atoms: C_7  and  C_15
    4  A    between atoms: C_12  and  C_14
    5  A    between atoms: C_15  and  N_17
                            x       y       z     vdW  Elec       q    Type
                         _______ _______ _______ _____ _____    ______ ____

>  <TORSDO>
F 5

$$$$
=
 OpenBabel11042418113D

 25 26  0  0  1  0  0  0  0  0999 V2000
  190.7190  176.6800  146.3300 C   0  0  0  0  0  2  0  0  0  0  0  0
  188.8450  176.8070  144.5610 C   0  0  2  0  0  3  0  0  0  0  0  0
  192.5540  175.2670  146.8430 O   0  0  0  0  0  1  0  0  0  0  0  0
  190.5660  175.1940  143.6220 C   0  0  1  0  0  3  0  0  0  0  0  0
  189.1300  175.3790  144.0790 C   0  0  0  0  0  2  0  0  0  0  0  0
  190.0050  177.5290  145.2730 C   0  0  0  0  0  2  0  0  0  0  0  0
  191.8940  175.8660  145.7670 C   0  0  1  0  0  0  0  0  0  0  0  0
  191.4030  174.8020  144.8140 C   0  0  0  0  0  0  0  0  0  0  0  0
  191.6230  173.6210  145.0460 O   0  0  0  0  0  0  0  0  0  0  0  0
  192.8850  176.7750  145.0560 C   0  0  0  0  0  1  0  0  0  0  0  0
  187.6990  177.4000  146.6690 N   0  0  0  0  0  1  0  0  0  0  0  0
  187.5210  176.8600  145.3290 C   0  0  1  0  0  3  0  0  0  0  0  0
  186.1940  178.9140  144.8990 N   0  0  0  0  0  0  0  0  0  0  0  0
  185.2560  179.6200  144.2160 C   0  0  0  0  0  3  0  0  0  0  0  0
  184.5760  179.0390  143.1940 N   0  0  0  0  0  0  0  0  0  0  0  0
  186.4670  177.6170  144.5820 C   0  0  0  0  0  0  0  0  0  0  0  0
  185.7790  177.0090  143.5270 C   0  0  0  0  0  0  0  0  0  0  0  0
  184.8210  177.7510  142.8390 C   0  0  0  0  0  3  0  0  0  0  0  0
  186.0300  175.7250  143.1710 F   0  0  0  0  0  0  0  0  0  0  0  0
  190.6310  174.1700  142.4940 C   0  0  0  0  0  2  0  0  0  0  0  0
  189.5690  173.7580  140.2320 C   0  0  0  0  0  0  0  0  0  0  0  0
  189.6850  174.5120  141.4400 N   0  0  0  0  0  2  0  0  0  0  0  0
  190.3170  172.7660  140.0190 O   0  0  0  0  0  0  0  0  0  0  0  0
  188.5300  174.1240  139.2340 C   0  0  0  0  0  2  0  0  0  0  0  0
  188.2450  172.9820  138.3840 N   0  0  0  0  0  1  0  0  0  0  0  0
  2  6  1  0  0  0  0
  2 12  1  1  0  0  0
  4 20  1  6  0  0  0
  4  5  1  0  0  0  0
  4  8  1  0  0  0  0
  5  2  1  0  0  0  0
  6  1  1  0  0  0  0
  7 10  1  6  0  0  0
  7  1  1  0  0  0  0
  7  3  1  0  0  0  0
  8  9  2  0  0  0  0
  8  7  1  0  0  0  0
 12 11  1  1  0  0  0
 14 13  2  0  0  0  0
 15 14  1  0  0  0  0
 16 13  1  0  0  0  0
 16 12  1  0  0  0  0
 17 16  2  0  0  0  0
 18 15  2  0  0  0  0
 18 17  1  0  0  0  0
 19 17  1  0  0  0  0
 21 22  1  0  0  0  0
 22 20  1  0  0  0  0
 23 21  2  0  0  0  0
 24 21  1  0  0  0  0
 25 24  1  0  0  0  0
M  END
>  <MODEL>
6

>  <REMARK>
 VINA RESULT:      -6.2      4.012      6.454
  Name = 
  5 active torsions:
  status: ('A' for Active; 'I' for Inactive)
    1  A    between atoms: C_3  and  C_14
    2  A    between atoms: C_4  and  C_13
    3  A    between atoms: C_7  and  C_15
    4  A    between atoms: C_12  and  C_14
    5  A    between atoms: C_15  and  N_17
                            x       y       z     vdW  Elec       q    Type
                         _______ _______ _______ _____ _____    ______ ____

>  <TORSDO>
F 5

$$$$
=
 OpenBabel11042418113D

 25 26  0  0  1  0  0  0  0  0999 V2000
  188.2510  175.4050  141.3460 C   0  0  0  0  0  2  0  0  0  0  0  0
  187.6860  176.2030  143.7340 C   0  0  2  0  0  3  0  0  0  0  0  0
  189.9480  174.1380  140.2770 O   0  0  0  0  0  1  0  0  0  0  0  0
  189.4110  174.3630  144.0180 C   0  0  1  0  0  3  0  0  0  0  0  0
  189.0810  175.8270  144.2480 C   0  0  0  0  0  2  0  0  0  0  0  0
  187.2070  175.4710  142.4660 C   0  0  0  0  0  2  0  0  0  0  0  0
  189.1550  174.1660  141.4270 C   0  0  1  0  0  0  0  0  0  0  0  0
  190.0360  174.2210  142.6530 C   0  0  0  0  0  0  0  0  0  0  0  0
  191.2540  174.2220  142.5340 O   0  0  0  0  0  0  0  0  0  0  0  0
  188.3200  172.8930  141.4510 C   0  0  0  0  0  1  0  0  0  0  0  0
  187.5580  178.2030  142.2860 N   0  0  0  0  0  1  0  0  0  0  0  0
  187.5330  177.7260  143.6610 C   0  0  1  0  0  3  0  0  0  0  0  0
  185.1830  178.5290  143.6680 N   0  0  0  0  0  0  0  0  0  0  0  0
  184.0540  178.9420  144.3000 C   0  0  0  0  0  3  0  0  0  0  0  0
  184.0250  179.0290  145.6560 N   0  0  0  0  0  0  0  0  0  0  0  0
  186.3030  178.2030  144.3720 C   0  0  0  0  0  0  0  0  0  0  0  0
  186.2850  178.2820  145.7690 C   0  0  0  0  0  0  0  0  0  0  0  0
  185.1160  178.7070  146.3970 C   0  0  0  0  0  3  0  0  0  0  0  0
  187.3740  177.9530  146.5070 F   0  0  0  0  0  0  0  0  0  0  0  0
  190.3110  173.8450  145.1350 C   0  0  0  0  0  2  0  0  0  0  0  0
  192.2500  175.1220  146.1450 C   0  0  0  0  0  0  0  0  0  0  0  0
  190.8510  174.9540  145.9090 N   0  0  0  0  0  2  0  0  0  0  0  0
  193.0810  174.2820  145.7070 O   0  0  0  0  0  0  0  0  0  0  0  0
  192.7340  176.3190  146.8820 C   0  0  0  0  0  2  0  0  0  0  0  0
  194.1240  176.5710  146.5470 N   0  0  0  0  0  1  0  0  0  0  0  0
  1  7  1  0  0  0  0
  1  6  1  0  0  0  0
  2 12  1  6  0  0  0
  2  5  1  0  0  0  0
  3  7  1  0  0  0  0
  4  5  1  0  0  0  0
  4 20  1  1  0  0  0
  6  2  1  0  0  0  0
  7 10  1  1  0  0  0
  7  8  1  0  0  0  0
  8  4  1  0  0  0  0
  9  8  2  0  0  0  0
 12 11  1  6  0  0  0
 12 16  1  0  0  0  0
 13 14  2  0  0  0  0
 13 16  1  0  0  0  0
 14 15  1  0  0  0  0
 15 18  2  0  0  0  0
 16 17  2  0  0  0  0
 17 18  1  0  0  0  0
 17 19  1  0  0  0  0
 20 22  1  0  0  0  0
 21 24  1  0  0  0  0
 22 21  1  0  0  0  0
 23 21  2  0  0  0  0
 25 24  1  0  0  0  0
M  END
>  <MODEL>
7

>  <REMARK>
 VINA RESULT:      -6.2      3.828      7.657
  Name = 
  5 active torsions:
  status: ('A' for Active; 'I' for Inactive)
    1  A    between atoms: C_3  and  C_14
    2  A    between atoms: C_4  and  C_13
    3  A    between atoms: C_7  and  C_15
    4  A    between atoms: C_12  and  C_14
    5  A    between atoms: C_15  and  N_17
                            x       y       z     vdW  Elec       q    Type
                         _______ _______ _______ _____ _____    ______ ____

>  <TORSDO>
F 5

$$$$
=
 OpenBabel11042418113D

 25 26  0  0  1  0  0  0  0  0999 V2000
  188.2610  176.2270  146.2880 C   0  0  0  0  0  2  0  0  0  0  0  0
  188.4440  177.1530  143.8860 C   0  0  2  0  0  3  0  0  0  0  0  0
  189.3070  174.5560  147.6070 O   0  0  0  0  0  1  0  0  0  0  0  0
  190.5720  175.8240  144.2720 C   0  0  1  0  0  3  0  0  0  0  0  0
  189.3120  175.9700  143.4390 C   0  0  0  0  0  2  0  0  0  0  0  0
  188.4390  177.4600  145.3960 C   0  0  0  0  0  2  0  0  0  0  0  0
  189.5890  175.5590  146.6760 C   0  0  1  0  0  0  0  0  0  0  0  0
  190.2620  174.9560  145.4650 C   0  0  0  0  0  0  0  0  0  0  0  0
  190.4900  173.7550  145.4250 O   0  0  0  0  0  0  0  0  0  0  0  0
  190.5220  176.5630  147.3360 C   0  0  0  0  0  1  0  0  0  0  0  0
  186.6600  175.6720  143.0280 N   0  0  0  0  0  1  0  0  0  0  0  0
  187.0440  177.0550  143.2720 C   0  0  1  0  0  3  0  0  0  0  0  0
  185.3930  177.1080  145.1260 N   0  0  0  0  0  0  0  0  0  0  0  0
  184.4740  177.7390  145.9020 C   0  0  0  0  0  3  0  0  0  0  0  0
  184.1640  179.0410  145.6680 N   0  0  0  0  0  0  0  0  0  0  0  0
  186.0150  177.7580  144.1030 C   0  0  0  0  0  0  0  0  0  0  0  0
  185.7100  179.1010  143.8560 C   0  0  0  0  0  0  0  0  0  0  0  0
  184.7640  179.7300  144.6640 C   0  0  0  0  0  3  0  0  0  0  0  0
  186.3150  179.7880  142.8560 F   0  0  0  0  0  0  0  0  0  0  0  0
  191.7060  175.2680  143.4170 C   0  0  0  0  0  2  0  0  0  0  0  0
  193.9200  175.5720  144.6090 C   0  0  0  0  0  0  0  0  0  0  0  0
  192.9380  176.0040  143.6640 N   0  0  0  0  0  2  0  0  0  0  0  0
  193.7360  174.5320  145.2970 O   0  0  0  0  0  0  0  0  0  0  0  0
  195.1870  176.3360  144.7540 C   0  0  0  0  0  2  0  0  0  0  0  0
  195.8590  176.4160  143.4700 N   0  0  0  0  0  1  0  0  0  0  0  0
  1  7  1  0  0  0  0
  2 12  1  1  0  0  0
  2  6  1  0  0  0  0
  4 20  1  6  0  0  0
  4  8  1  0  0  0  0
  5  2  1  0  0  0  0
  5  4  1  0  0  0  0
  6  1  1  0  0  0  0
  7 10  1  1  0  0  0
  7  3  1  0  0  0  0
  8  7  1  0  0  0  0
  9  8  2  0  0  0  0
 12 11  1  1  0  0  0
 12 16  1  0  0  0  0
 13 14  1  0  0  0  0
 15 14  2  0  0  0  0
 16 13  2  0  0  0  0
 17 16  1  0  0  0  0
 17 18  2  0  0  0  0
 18 15  1  0  0  0  0
 19 17  1  0  0  0  0
 20 22  1  0  0  0  0
 21 24  1  0  0  0  0
 21 23  2  0  0  0  0
 22 21  1  0  0  0  0
 25 24  1  0  0  0  0
M  END
>  <MODEL>
8

>  <REMARK>
 VINA RESULT:      -6.1      3.496      7.387
  Name = 
  5 active torsions:
  status: ('A' for Active; 'I' for Inactive)
    1  A    between atoms: C_3  and  C_14
    2  A    between atoms: C_4  and  C_13
    3  A    between atoms: C_7  and  C_15
    4  A    between atoms: C_12  and  C_14
    5  A    between atoms: C_15  and  N_17
                            x       y       z     vdW  Elec       q    Type
                         _______ _______ _______ _____ _____    ______ ____

>  <TORSDO>
F 5

$$$$
=
 OpenBabel11042418113D

 25 26  0  0  1  0  0  0  0  0999 V2000
  186.3510  176.0810  143.0050 C   0  0  0  0  0  2  0  0  0  0  0  0
  188.7370  175.1810  142.6050 C   0  0  2  0  0  3  0  0  0  0  0  0
  185.2670  177.5730  144.4960 O   0  0  0  0  0  1  0  0  0  0  0  0
  189.0140  177.2270  144.0820 C   0  0  1  0  0  3  0  0  0  0  0  0
  189.2270  175.7290  143.9510 C   0  0  0  0  0  2  0  0  0  0  0  0
  187.4920  175.8630  142.0060 C   0  0  0  0  0  2  0  0  0  0  0  0
  186.4340  177.4260  143.7410 C   0  0  1  0  0  0  0  0  0  0  0  0
  187.6390  177.4690  144.6510 C   0  0  0  0  0  0  0  0  0  0  0  0
  187.4930  177.6290  145.8550 O   0  0  0  0  0  0  0  0  0  0  0  0
  186.4980  178.5770  142.7480 C   0  0  0  0  0  1  0  0  0  0  0  0
  187.9640  173.1220  141.4760 N   0  0  0  0  0  1  0  0  0  0  0  0
  188.6410  173.6530  142.6510 C   0  0  1  0  0  3  0  0  0  0  0  0
  191.0030  173.2910  141.9750 N   0  0  0  0  0  0  0  0  0  0  0  0
  192.2300  172.7330  142.1410 C   0  0  0  0  0  3  0  0  0  0  0  0
  192.4590  171.8840  143.1770 N   0  0  0  0  0  0  0  0  0  0  0  0
  189.9820  173.0100  142.8330 C   0  0  0  0  0  0  0  0  0  0  0  0
  190.2060  172.1430  143.9070 C   0  0  0  0  0  0  0  0  0  0  0  0
  191.4720  171.5820  144.0590 C   0  0  0  0  0  3  0  0  0  0  0  0
  189.2200  171.8470  144.7910 F   0  0  0  0  0  0  0  0  0  0  0  0
  190.1210  177.8420  144.9330 C   0  0  0  0  0  2  0  0  0  0  0  0
  191.2670  176.4660  146.7230 C   0  0  0  0  0  0  0  0  0  0  0  0
  191.0690  176.8190  145.3520 N   0  0  0  0  0  2  0  0  0  0  0  0
  190.6370  177.0610  147.6380 O   0  0  0  0  0  0  0  0  0  0  0  0
  192.1990  175.3610  147.0700 C   0  0  0  0  0  2  0  0  0  0  0  0
  192.4070  174.5140  145.9090 N   0  0  0  0  0  1  0  0  0  0  0  0
  1  7  1  0  0  0  0
  2 12  1  1  0  0  0
  2  5  1  0  0  0  0
  4  8  1  0  0  0  0
  4 20  1  1  0  0  0
  5  4  1  0  0  0  0
  6  2  1  0  0  0  0
  6  1  1  0  0  0  0
  7 10  1  6  0  0  0
  7  3  1  0  0  0  0
  7  8  1  0  0  0  0
  8  9  2  0  0  0  0
 12 11  1  6  0  0  0
 12 16  1  0  0  0  0
 13 14  2  0  0  0  0
 13 16  1  0  0  0  0
 14 15  1  0  0  0  0
 15 18  2  0  0  0  0
 16 17  2  0  0  0  0
 17 18  1  0  0  0  0
 17 19  1  0  0  0  0
 20 22  1  0  0  0  0
 21 24  1  0  0  0  0
 21 23  2  0  0  0  0
 22 21  1  0  0  0  0
 25 24  1  0  0  0  0
M  END
>  <MODEL>
9

>  <REMARK>
 VINA RESULT:      -6.1      3.399      5.853
  Name = 
  5 active torsions:
  status: ('A' for Active; 'I' for Inactive)
    1  A    between atoms: C_3  and  C_14
    2  A    between atoms: C_4  and  C_13
    3  A    between atoms: C_7  and  C_15
    4  A    between atoms: C_12  and  C_14
    5  A    between atoms: C_15  and  N_17
                            x       y       z     vdW  Elec       q    Type
                         _______ _______ _______ _____ _____    ______ ____

>  <TORSDO>
F 5

$$$$
