=
 OpenBabel11042418333D

 37 39  0  0  1  0  0  0  0  0999 V2000
  194.5190  175.4910  144.7510 C   0  0  2  0  0  3  0  0  0  0  0  0
  194.1070  175.9820  142.3650 C   0  0  0  0  0  1  0  0  0  0  0  0
  192.2610  175.8090  145.5660 C   0  0  2  0  0  3  0  0  0  0  0  0
  193.6820  175.5250  146.0140 C   0  0  0  0  0  2  0  0  0  0  0  0
  192.3650  176.2450  144.1110 C   0  0  1  0  0  3  0  0  0  0  0  0
  193.7940  176.2990  143.7610 N   0  0  0  0  0  0  0  0  0  0  0  0
  191.7210  176.8600  146.3560 O   0  0  0  0  0  0  0  0  0  0  0  0
  189.9310  177.6550  147.5810 O   0  0  0  0  0  0  0  0  0  0  0  0
  190.6270  176.6730  147.2080 C   0  0  0  0  0  0  0  0  0  0  0  0
  190.2890  175.3940  147.6530 O   0  0  0  0  0  0  0  0  0  0  0  0
  189.5630  173.7220  146.2520 F   0  0  0  0  0  0  0  0  0  0  0  0
  188.5210  174.0600  148.2190 F   0  0  0  0  0  0  0  0  0  0  0  0
  189.1580  174.6810  147.1630 C   0  0  0  0  0  0  0  0  0  0  0  0
  188.2750  175.5560  146.5540 F   0  0  0  0  0  0  0  0  0  0  0  0
  191.4810  175.3860  143.1880 C   0  0  0  0  0  2  0  0  0  0  0  0
  190.0100  175.7810  143.2270 C   0  0  0  0  0  2  0  0  0  0  0  0
  189.8560  177.2750  142.9880 C   0  0  0  0  0  2  0  0  0  0  0  0
  184.4970  178.6110  147.7730 F   0  0  0  0  0  0  0  0  0  0  0  0
  186.2570  178.1830  146.2240 C   0  0  0  0  0  3  0  0  0  0  0  0
  186.7090  178.1300  144.9040 C   0  0  0  0  0  0  0  0  0  0  0  0
  188.0210  177.7560  144.6150 C   0  0  0  0  0  3  0  0  0  0  0  0
  188.4570  177.7150  143.2880 C   0  0  0  0  0  0  0  0  0  0  0  0
  187.9260  178.0250  141.0540 O   0  0  0  0  0  0  0  0  0  0  0  0
  184.0690  178.8760  145.4430 C   0  0  0  0  0  3  0  0  0  0  0  0
  187.5590  178.0510  142.2590 C   0  0  0  0  0  0  0  0  0  0  0  0
  184.5180  178.8260  144.1200 C   0  0  0  0  0  3  0  0  0  0  0  0
  185.8360  178.4550  143.8450 C   0  0  0  0  0  0  0  0  0  0  0  0
  186.2810  178.4090  142.5610 N   0  0  0  0  0  2  0  0  0  0  0  0
  184.9360  178.5560  146.4930 C   0  0  0  0  0  0  0  0  0  0  0  0
  194.7260  174.0300  144.3390 C   0  0  0  0  0  2  0  0  0  0  0  0
  196.9650  174.8420  144.2230 O   0  0  0  0  0  1  0  0  0  0  0  0
  196.2020  173.6760  144.3220 C   0  0  1  0  0  3  0  0  0  0  0  0
  196.5530  172.9470  145.6050 C   0  0  0  0  0  2  0  0  0  0  0  0
  197.1390  170.1790  145.8790 O   0  0  0  0  0  0  0  0  0  0  0  0
  195.5710  171.9090  145.8710 N   0  0  0  0  0  2  0  0  0  0  0  0
  195.9370  170.5350  145.9910 C   0  0  0  0  0  0  0  0  0  0  0  0
  194.8870  169.5150  146.2510 C   0  0  0  0  0  1  0  0  0  0  0  0
  1 30  1  6  0  0  0
  1  4  1  0  0  0  0
  2  6  1  0  0  0  0
  3  4  1  0  0  0  0
  3  7  1  1  0  0  0
  5 15  1  6  0  0  0
  5  3  1  0  0  0  0
  6  5  1  0  0  0  0
  6  1  1  0  0  0  0
  7  9  1  0  0  0  0
  9  8  2  0  0  0  0
  9 10  1  0  0  0  0
 11 13  1  0  0  0  0
 13 10  1  0  0  0  0
 13 12  1  0  0  0  0
 14 13  1  0  0  0  0
 15 16  1  0  0  0  0
 17 16  1  0  0  0  0
 17 22  1  0  0  0  0
 19 29  1  0  0  0  0
 20 19  2  0  0  0  0
 21 20  1  0  0  0  0
 22 21  2  0  0  0  0
 23 25  2  0  0  0  0
 24 29  2  0  0  0  0
 25 28  1  0  0  0  0
 25 22  1  0  0  0  0
 26 24  1  0  0  0  0
 27 26  2  0  0  0  0
 27 20  1  0  0  0  0
 28 27  1  0  0  0  0
 29 18  1  0  0  0  0
 32 31  1  1  0  0  0
 32 30  1  0  0  0  0
 32 33  1  0  0  0  0
 33 35  1  0  0  0  0
 34 36  2  0  0  0  0
 35 36  1  0  0  0  0
 36 37  1  0  0  0  0
M  END
>  <MODEL>
1

>  <REMARK>
 VINA RESULT:      -7.7      0.000      0.000
  Name = 
  12 active torsions:
  status: ('A' for Active; 'I' for Inactive)
    1  A    between atoms: C_1  and  C_31
    2  A    between atoms: O_4  and  C_7
    3  A    between atoms: O_4  and  C_11
    4  A    between atoms: C_11  and  O_28
    5  A    between atoms: C_13  and  C_17
    6  A    between atoms: C_16  and  C_18
    7  A    between atoms: C_17  and  C_34
    8  A    between atoms: C_18  and  C_34
    9  A    between atoms: N_20  and  C_29
   10  A    between atoms: C_24  and  C_29
   11  A    between atoms: C_24  and  C_31
   12  A    between atoms: C_25  and  O_28
                            x       y       z     vdW  Elec       q    Type
                         _______ _______ _______ _____ _____    ______ ____

>  <TORSDO>
F 12

$$$$
=
 OpenBabel11042418333D

 37 39  0  0  1  0  0  0  0  0999 V2000
  192.8570  174.3430  143.3450 C   0  0  2  0  0  3  0  0  0  0  0  0
  193.9340  176.1330  142.0250 C   0  0  0  0  0  1  0  0  0  0  0  0
  191.7300  175.7410  144.9700 C   0  0  2  0  0  3  0  0  0  0  0  0
  192.0170  174.2960  144.6050 C   0  0  0  0  0  2  0  0  0  0  0  0
  192.6660  176.5780  144.1090 C   0  0  1  0  0  3  0  0  0  0  0  0
  193.5210  175.6540  143.3460 N   0  0  0  0  0  0  0  0  0  0  0  0
  192.0170  175.9430  146.3470 O   0  0  0  0  0  0  0  0  0  0  0  0
  191.4440  176.9000  148.3700 O   0  0  0  0  0  0  0  0  0  0  0  0
  191.0820  176.4790  147.2380 C   0  0  0  0  0  0  0  0  0  0  0  0
  189.7340  176.5590  146.8840 O   0  0  0  0  0  0  0  0  0  0  0  0
  189.4110  174.4230  147.6710 F   0  0  0  0  0  0  0  0  0  0  0  0
  187.6460  175.8000  147.4240 F   0  0  0  0  0  0  0  0  0  0  0  0
  188.8670  175.4300  146.8940 C   0  0  0  0  0  0  0  0  0  0  0  0
  188.6770  174.9680  145.6030 F   0  0  0  0  0  0  0  0  0  0  0  0
  191.9010  177.6250  143.2770 C   0  0  0  0  0  2  0  0  0  0  0  0
  190.4700  177.8420  143.7530 C   0  0  0  0  0  2  0  0  0  0  0  0
  189.4860  177.5100  142.6430 C   0  0  0  0  0  2  0  0  0  0  0  0
  184.4850  178.6900  147.8390 F   0  0  0  0  0  0  0  0  0  0  0  0
  186.1290  178.3140  146.1540 C   0  0  0  0  0  3  0  0  0  0  0  0
  186.4660  178.2330  144.8020 C   0  0  0  0  0  0  0  0  0  0  0  0
  187.7710  177.9370  144.4100 C   0  0  0  0  0  3  0  0  0  0  0  0
  188.0910  177.8660  143.0520 C   0  0  0  0  0  0  0  0  0  0  0  0
  187.3440  178.0380  140.8640 O   0  0  0  0  0  0  0  0  0  0  0  0
  183.8360  178.8190  145.5490 C   0  0  0  0  0  3  0  0  0  0  0  0
  187.0840  178.0930  142.0950 C   0  0  0  0  0  0  0  0  0  0  0  0
  184.1700  178.7410  144.1930 C   0  0  0  0  0  3  0  0  0  0  0  0
  185.4820  178.4480  143.8140 C   0  0  0  0  0  0  0  0  0  0  0  0
  185.8140  178.3760  142.4980 N   0  0  0  0  0  2  0  0  0  0  0  0
  184.8130  178.6070  146.5280 C   0  0  0  0  0  0  0  0  0  0  0  0
  191.9440  174.1040  142.1370 C   0  0  0  0  0  2  0  0  0  0  0  0
  193.3000  172.1440  142.1580 O   0  0  0  0  0  1  0  0  0  0  0  0
  192.2380  172.7610  141.4940 C   0  0  1  0  0  3  0  0  0  0  0  0
  191.0030  171.8840  141.5880 C   0  0  0  0  0  2  0  0  0  0  0  0
  189.9490  171.1650  139.0480 O   0  0  0  0  0  0  0  0  0  0  0  0
  189.8800  172.5370  140.9360 N   0  0  0  0  0  2  0  0  0  0  0  0
  189.4070  172.1260  139.6550 C   0  0  0  0  0  0  0  0  0  0  0  0
  188.2620  172.8390  139.0300 C   0  0  0  0  0  1  0  0  0  0  0  0
  1 30  1  6  0  0  0
  1  6  1  0  0  0  0
  1  4  1  0  0  0  0
  2  6  1  0  0  0  0
  3  7  1  1  0  0  0
  4  3  1  0  0  0  0
  5 15  1  6  0  0  0
  5  3  1  0  0  0  0
  6  5  1  0  0  0  0
  7  9  1  0  0  0  0
  9  8  2  0  0  0  0
 10 13  1  0  0  0  0
 10  9  1  0  0  0  0
 13 12  1  0  0  0  0
 13 11  1  0  0  0  0
 14 13  1  0  0  0  0
 15 16  1  0  0  0  0
 17 22  1  0  0  0  0
 17 16  1  0  0  0  0
 19 29  1  0  0  0  0
 20 19  2  0  0  0  0
 21 20  1  0  0  0  0
 22 21  2  0  0  0  0
 23 25  2  0  0  0  0
 24 29  2  0  0  0  0
 25 28  1  0  0  0  0
 25 22  1  0  0  0  0
 26 24  1  0  0  0  0
 27 26  2  0  0  0  0
 27 20  1  0  0  0  0
 28 27  1  0  0  0  0
 29 18  1  0  0  0  0
 32 33  1  0  0  0  0
 32 30  1  0  0  0  0
 32 31  1  1  0  0  0
 34 36  2  0  0  0  0
 35 33  1  0  0  0  0
 36 35  1  0  0  0  0
 37 36  1  0  0  0  0
M  END
>  <MODEL>
2

>  <REMARK>
 VINA RESULT:      -7.6      2.476      3.680
  Name = 
  12 active torsions:
  status: ('A' for Active; 'I' for Inactive)
    1  A    between atoms: C_1  and  C_31
    2  A    between atoms: O_4  and  C_7
    3  A    between atoms: O_4  and  C_11
    4  A    between atoms: C_11  and  O_28
    5  A    between atoms: C_13  and  C_17
    6  A    between atoms: C_16  and  C_18
    7  A    between atoms: C_17  and  C_34
    8  A    between atoms: C_18  and  C_34
    9  A    between atoms: N_20  and  C_29
   10  A    between atoms: C_24  and  C_29
   11  A    between atoms: C_24  and  C_31
   12  A    between atoms: C_25  and  O_28
                            x       y       z     vdW  Elec       q    Type
                         _______ _______ _______ _____ _____    ______ ____

>  <TORSDO>
F 12

$$$$
=
 OpenBabel11042418333D

 37 39  0  0  1  0  0  0  0  0999 V2000
  194.2540  174.5480  144.8320 C   0  0  2  0  0  3  0  0  0  0  0  0
  194.6270  175.8570  142.7700 C   0  0  0  0  0  1  0  0  0  0  0  0
  192.3440  175.7710  145.6800 C   0  0  2  0  0  3  0  0  0  0  0  0
  193.3130  174.6530  146.0140 C   0  0  0  0  0  2  0  0  0  0  0  0
  192.9400  176.4870  144.4750 C   0  0  1  0  0  3  0  0  0  0  0  0
  194.2430  175.8660  144.1840 N   0  0  0  0  0  0  0  0  0  0  0  0
  192.2540  176.6610  146.7840 O   0  0  0  0  0  0  0  0  0  0  0  0
  191.2030  176.9760  148.8160 O   0  0  0  0  0  0  0  0  0  0  0  0
  191.1070  176.7580  147.5790 C   0  0  0  0  0  0  0  0  0  0  0  0
  189.8400  176.6190  147.0100 O   0  0  0  0  0  0  0  0  0  0  0  0
  189.1830  174.8130  145.7490 F   0  0  0  0  0  0  0  0  0  0  0  0
  189.7050  174.5280  147.9210 F   0  0  0  0  0  0  0  0  0  0  0  0
  189.1270  175.3870  147.0070 C   0  0  0  0  0  0  0  0  0  0  0  0
  187.8070  175.6030  147.3600 F   0  0  0  0  0  0  0  0  0  0  0  0
  191.9500  176.5530  143.2970 C   0  0  0  0  0  2  0  0  0  0  0  0
  190.6680  177.3060  143.6300 C   0  0  0  0  0  2  0  0  0  0  0  0
  189.6170  177.0620  142.5600 C   0  0  0  0  0  2  0  0  0  0  0  0
  184.8110  178.6630  147.8260 F   0  0  0  0  0  0  0  0  0  0  0  0
  186.3920  178.1470  146.1190 C   0  0  0  0  0  3  0  0  0  0  0  0
  186.7250  178.1020  144.7640 C   0  0  0  0  0  0  0  0  0  0  0  0
  187.9720  177.6340  144.3520 C   0  0  0  0  0  3  0  0  0  0  0  0
  188.2890  177.6020  142.9920 C   0  0  0  0  0  0  0  0  0  0  0  0
  187.5980  178.0290  140.8210 O   0  0  0  0  0  0  0  0  0  0  0  0
  184.2100  179.0390  145.5500 C   0  0  0  0  0  3  0  0  0  0  0  0
  187.3380  178.0430  142.0540 C   0  0  0  0  0  0  0  0  0  0  0  0
  184.5400  178.9970  144.1920 C   0  0  0  0  0  3  0  0  0  0  0  0
  185.7950  178.5310  143.7940 C   0  0  0  0  0  0  0  0  0  0  0  0
  186.1240  178.4930  142.4750 N   0  0  0  0  0  2  0  0  0  0  0  0
  185.1340  178.6150  146.5120 C   0  0  0  0  0  0  0  0  0  0  0  0
  193.7830  173.4010  143.9310 C   0  0  0  0  0  2  0  0  0  0  0  0
  192.3040  171.5600  144.2540 O   0  0  0  0  0  1  0  0  0  0  0  0
  193.4590  172.1660  144.7520 C   0  0  1  0  0  3  0  0  0  0  0  0
  194.6200  171.1940  144.6670 C   0  0  0  0  0  2  0  0  0  0  0  0
  193.9580  168.5170  145.3580 O   0  0  0  0  0  0  0  0  0  0  0  0
  194.8550  170.5860  145.9660 N   0  0  0  0  0  2  0  0  0  0  0  0
  194.4910  169.2350  146.2450 C   0  0  0  0  0  0  0  0  0  0  0  0
  194.7430  168.6700  147.5970 C   0  0  0  0  0  1  0  0  0  0  0  0
  1 30  1  6  0  0  0
  1  4  1  0  0  0  0
  2  6  1  0  0  0  0
  3  4  1  0  0  0  0
  3  7  1  1  0  0  0
  5 15  1  6  0  0  0
  5  3  1  0  0  0  0
  6  5  1  0  0  0  0
  6  1  1  0  0  0  0
  7  9  1  0  0  0  0
  9  8  2  0  0  0  0
 10  9  1  0  0  0  0
 11 13  1  0  0  0  0
 13 10  1  0  0  0  0
 13 14  1  0  0  0  0
 13 12  1  0  0  0  0
 15 16  1  0  0  0  0
 17 22  1  0  0  0  0
 17 16  1  0  0  0  0
 19 29  1  0  0  0  0
 20 19  2  0  0  0  0
 21 20  1  0  0  0  0
 22 21  2  0  0  0  0
 23 25  2  0  0  0  0
 24 29  2  0  0  0  0
 25 28  1  0  0  0  0
 25 22  1  0  0  0  0
 26 24  1  0  0  0  0
 27 26  2  0  0  0  0
 27 20  1  0  0  0  0
 28 27  1  0  0  0  0
 29 18  1  0  0  0  0
 30 32  1  0  0  0  0
 32 31  1  6  0  0  0
 33 32  1  0  0  0  0
 33 35  1  0  0  0  0
 34 36  2  0  0  0  0
 35 36  1  0  0  0  0
 36 37  1  0  0  0  0
M  END
>  <MODEL>
3

>  <REMARK>
 VINA RESULT:      -7.6      1.491      1.592
  Name = 
  12 active torsions:
  status: ('A' for Active; 'I' for Inactive)
    1  A    between atoms: C_1  and  C_31
    2  A    between atoms: O_4  and  C_7
    3  A    between atoms: O_4  and  C_11
    4  A    between atoms: C_11  and  O_28
    5  A    between atoms: C_13  and  C_17
    6  A    between atoms: C_16  and  C_18
    7  A    between atoms: C_17  and  C_34
    8  A    between atoms: C_18  and  C_34
    9  A    between atoms: N_20  and  C_29
   10  A    between atoms: C_24  and  C_29
   11  A    between atoms: C_24  and  C_31
   12  A    between atoms: C_25  and  O_28
                            x       y       z     vdW  Elec       q    Type
                         _______ _______ _______ _____ _____    ______ ____

>  <TORSDO>
F 12

$$$$
=
 OpenBabel11042418333D

 37 39  0  0  1  0  0  0  0  0999 V2000
  191.4550  174.0480  144.1610 C   0  0  2  0  0  3  0  0  0  0  0  0
  192.3980  174.8090  142.0080 C   0  0  0  0  0  1  0  0  0  0  0  0
  191.7800  176.0890  145.4230 C   0  0  2  0  0  3  0  0  0  0  0  0
  191.3190  174.6490  145.5450 C   0  0  0  0  0  2  0  0  0  0  0  0
  192.4640  176.1900  144.0670 C   0  0  1  0  0  3  0  0  0  0  0  0
  192.4780  174.8440  143.4700 N   0  0  0  0  0  0  0  0  0  0  0  0
  192.7070  176.3750  146.4620 O   0  0  0  0  0  0  0  0  0  0  0  0
  194.4990  177.5940  145.6620 O   0  0  0  0  0  0  0  0  0  0  0  0
  194.0750  176.5480  146.2210 C   0  0  0  0  0  0  0  0  0  0  0  0
  194.9880  175.5640  146.6030 O   0  0  0  0  0  0  0  0  0  0  0  0
  195.5900  175.0140  144.4540 F   0  0  0  0  0  0  0  0  0  0  0  0
  196.5930  173.9890  146.1900 F   0  0  0  0  0  0  0  0  0  0  0  0
  195.4020  174.5170  145.7310 C   0  0  0  0  0  0  0  0  0  0  0  0
  194.4450  173.5180  145.7040 F   0  0  0  0  0  0  0  0  0  0  0  0
  191.8520  177.3030  143.1950 C   0  0  0  0  0  2  0  0  0  0  0  0
  190.4650  177.7340  143.6570 C   0  0  0  0  0  2  0  0  0  0  0  0
  189.4390  177.4720  142.5670 C   0  0  0  0  0  2  0  0  0  0  0  0
  184.6460  178.5790  147.9710 F   0  0  0  0  0  0  0  0  0  0  0  0
  186.2220  178.2260  146.2180 C   0  0  0  0  0  3  0  0  0  0  0  0
  186.5110  178.1840  144.8530 C   0  0  0  0  0  0  0  0  0  0  0  0
  187.7940  177.8740  144.4060 C   0  0  0  0  0  3  0  0  0  0  0  0
  188.0660  177.8430  143.0360 C   0  0  0  0  0  0  0  0  0  0  0  0
  187.2500  178.1060  140.8830 O   0  0  0  0  0  0  0  0  0  0  0  0
  183.9210  178.8000  145.7110 C   0  0  0  0  0  3  0  0  0  0  0  0
  187.0330  178.1240  142.1230 C   0  0  0  0  0  0  0  0  0  0  0  0
  184.2070  178.7610  144.3420 C   0  0  0  0  0  3  0  0  0  0  0  0
  185.4990  178.4540  143.9080 C   0  0  0  0  0  0  0  0  0  0  0  0
  185.7840  178.4200  142.5790 N   0  0  0  0  0  2  0  0  0  0  0  0
  184.9270  178.5340  146.6470 C   0  0  0  0  0  0  0  0  0  0  0  0
  190.0810  174.0670  143.4820 C   0  0  0  0  0  2  0  0  0  0  0  0
  189.3260  171.9440  144.2630 O   0  0  0  0  0  1  0  0  0  0  0  0
  189.6440  172.6610  143.1080 C   0  0  1  0  0  3  0  0  0  0  0  0
  188.4240  172.7440  142.2100 C   0  0  0  0  0  2  0  0  0  0  0  0
  188.3000  174.9400  140.4100 O   0  0  0  0  0  0  0  0  0  0  0  0
  188.8300  172.7020  140.8150 N   0  0  0  0  0  2  0  0  0  0  0  0
  188.7350  173.8440  139.9660 C   0  0  0  0  0  0  0  0  0  0  0  0
  189.1530  173.7400  138.5440 C   0  0  0  0  0  1  0  0  0  0  0  0
  1 30  1  6  0  0  0
  1  4  1  0  0  0  0
  2  6  1  0  0  0  0
  3  4  1  0  0  0  0
  3  7  1  1  0  0  0
  5 15  1  6  0  0  0
  5  3  1  0  0  0  0
  6  5  1  0  0  0  0
  6  1  1  0  0  0  0
  8  9  2  0  0  0  0
  9  7  1  0  0  0  0
  9 10  1  0  0  0  0
 11 13  1  0  0  0  0
 13 12  1  0  0  0  0
 13 10  1  0  0  0  0
 14 13  1  0  0  0  0
 15 16  1  0  0  0  0
 17 22  1  0  0  0  0
 17 16  1  0  0  0  0
 19 29  1  0  0  0  0
 20 19  2  0  0  0  0
 21 20  1  0  0  0  0
 22 21  2  0  0  0  0
 23 25  2  0  0  0  0
 24 29  2  0  0  0  0
 25 28  1  0  0  0  0
 25 22  1  0  0  0  0
 26 24  1  0  0  0  0
 27 26  2  0  0  0  0
 27 20  1  0  0  0  0
 28 27  1  0  0  0  0
 29 18  1  0  0  0  0
 32 30  1  0  0  0  0
 32 31  1  1  0  0  0
 33 32  1  0  0  0  0
 35 33  1  0  0  0  0
 36 34  2  0  0  0  0
 36 35  1  0  0  0  0
 37 36  1  0  0  0  0
M  END
>  <MODEL>
4

>  <REMARK>
 VINA RESULT:      -7.5      2.853      4.980
  Name = 
  12 active torsions:
  status: ('A' for Active; 'I' for Inactive)
    1  A    between atoms: C_1  and  C_31
    2  A    between atoms: O_4  and  C_7
    3  A    between atoms: O_4  and  C_11
    4  A    between atoms: C_11  and  O_28
    5  A    between atoms: C_13  and  C_17
    6  A    between atoms: C_16  and  C_18
    7  A    between atoms: C_17  and  C_34
    8  A    between atoms: C_18  and  C_34
    9  A    between atoms: N_20  and  C_29
   10  A    between atoms: C_24  and  C_29
   11  A    between atoms: C_24  and  C_31
   12  A    between atoms: C_25  and  O_28
                            x       y       z     vdW  Elec       q    Type
                         _______ _______ _______ _____ _____    ______ ____

>  <TORSDO>
F 12

$$$$
=
 OpenBabel11042418333D

 37 39  0  0  1  0  0  0  0  0999 V2000
  192.5680  175.7450  144.6990 C   0  0  2  0  0  3  0  0  0  0  0  0
  191.6230  177.3670  143.0930 C   0  0  0  0  0  1  0  0  0  0  0  0
  190.6890  174.2200  144.7990 C   0  0  2  0  0  3  0  0  0  0  0  0
  192.0530  174.5040  145.3990 C   0  0  0  0  0  2  0  0  0  0  0  0
  190.3170  175.4690  144.0110 C   0  0  1  0  0  3  0  0  0  0  0  0
  191.3790  176.4660  144.2220 N   0  0  0  0  0  0  0  0  0  0  0  0
  189.7510  174.0040  145.8450 O   0  0  0  0  0  0  0  0  0  0  0  0
  190.1630  174.9780  147.8980 O   0  0  0  0  0  0  0  0  0  0  0  0
  189.4920  174.9610  146.8310 C   0  0  0  0  0  0  0  0  0  0  0  0
  188.4890  175.9140  146.6440 O   0  0  0  0  0  0  0  0  0  0  0  0
  188.6860  177.8300  145.3890 F   0  0  0  0  0  0  0  0  0  0  0  0
  187.7840  177.9340  147.4490 F   0  0  0  0  0  0  0  0  0  0  0  0
  188.7430  177.3150  146.6720 C   0  0  0  0  0  0  0  0  0  0  0  0
  189.9920  177.5590  147.2150 F   0  0  0  0  0  0  0  0  0  0  0  0
  189.9840  175.1440  142.5420 C   0  0  0  0  0  2  0  0  0  0  0  0
  188.6550  174.4200  142.3730 C   0  0  0  0  0  2  0  0  0  0  0  0
  187.7290  175.2170  141.4680 C   0  0  0  0  0  2  0  0  0  0  0  0
  184.1040  177.9290  147.2040 F   0  0  0  0  0  0  0  0  0  0  0  0
  185.2950  177.0330  145.3440 C   0  0  0  0  0  3  0  0  0  0  0  0
  185.9260  177.2300  144.1150 C   0  0  0  0  0  0  0  0  0  0  0  0
  186.5080  176.1610  143.4340 C   0  0  0  0  0  3  0  0  0  0  0  0
  187.1410  176.3780  142.2070 C   0  0  0  0  0  0  0  0  0  0  0  0
  187.7440  177.9050  140.5710 O   0  0  0  0  0  0  0  0  0  0  0  0
  184.7620  179.3970  145.4450 C   0  0  0  0  0  3  0  0  0  0  0  0
  187.1780  177.6800  141.6740 C   0  0  0  0  0  0  0  0  0  0  0  0
  185.3950  179.5980  144.2140 C   0  0  0  0  0  3  0  0  0  0  0  0
  185.9780  178.5190  143.5450 C   0  0  0  0  0  0  0  0  0  0  0  0
  186.6000  178.7100  142.3510 N   0  0  0  0  0  2  0  0  0  0  0  0
  184.7130  178.1170  146.0090 C   0  0  0  0  0  0  0  0  0  0  0  0
  193.5300  175.3160  143.5860 C   0  0  0  0  0  2  0  0  0  0  0  0
  195.0150  173.4510  143.6280 O   0  0  0  0  0  1  0  0  0  0  0  0
  194.7990  174.7200  144.1690 C   0  0  1  0  0  3  0  0  0  0  0  0
  195.9720  175.6220  143.8320 C   0  0  0  0  0  2  0  0  0  0  0  0
  196.0720  177.0490  141.3770 O   0  0  0  0  0  0  0  0  0  0  0  0
  196.6270  175.1540  142.6220 N   0  0  0  0  0  2  0  0  0  0  0  0
  196.6330  175.9230  141.4210 C   0  0  0  0  0  0  0  0  0  0  0  0
  197.3070  175.3880  140.2090 C   0  0  0  0  0  1  0  0  0  0  0  0
  1 30  1  6  0  0  0
  1  4  1  0  0  0  0
  2  6  1  0  0  0  0
  3  4  1  0  0  0  0
  3  7  1  1  0  0  0
  5 15  1  6  0  0  0
  5  6  1  0  0  0  0
  5  3  1  0  0  0  0
  6  1  1  0  0  0  0
  7  9  1  0  0  0  0
  9  8  2  0  0  0  0
 10 13  1  0  0  0  0
 10  9  1  0  0  0  0
 11 13  1  0  0  0  0
 13 14  1  0  0  0  0
 13 12  1  0  0  0  0
 16 15  1  0  0  0  0
 17 22  1  0  0  0  0
 17 16  1  0  0  0  0
 19 29  1  0  0  0  0
 20 19  2  0  0  0  0
 21 20  1  0  0  0  0
 22 21  2  0  0  0  0
 23 25  2  0  0  0  0
 24 29  2  0  0  0  0
 25 22  1  0  0  0  0
 25 28  1  0  0  0  0
 26 24  1  0  0  0  0
 27 20  1  0  0  0  0
 27 26  2  0  0  0  0
 28 27  1  0  0  0  0
 29 18  1  0  0  0  0
 30 32  1  0  0  0  0
 32 31  1  6  0  0  0
 33 32  1  0  0  0  0
 34 36  2  0  0  0  0
 35 33  1  0  0  0  0
 36 35  1  0  0  0  0
 37 36  1  0  0  0  0
M  END
>  <MODEL>
5

>  <REMARK>
 VINA RESULT:      -7.4      2.379      3.252
  Name = 
  12 active torsions:
  status: ('A' for Active; 'I' for Inactive)
    1  A    between atoms: C_1  and  C_31
    2  A    between atoms: O_4  and  C_7
    3  A    between atoms: O_4  and  C_11
    4  A    between atoms: C_11  and  O_28
    5  A    between atoms: C_13  and  C_17
    6  A    between atoms: C_16  and  C_18
    7  A    between atoms: C_17  and  C_34
    8  A    between atoms: C_18  and  C_34
    9  A    between atoms: N_20  and  C_29
   10  A    between atoms: C_24  and  C_29
   11  A    between atoms: C_24  and  C_31
   12  A    between atoms: C_25  and  O_28
                            x       y       z     vdW  Elec       q    Type
                         _______ _______ _______ _____ _____    ______ ____

>  <TORSDO>
F 12

$$$$
=
 OpenBabel11042418333D

 37 39  0  0  1  0  0  0  0  0999 V2000
  194.6700  175.0860  145.2080 C   0  0  2  0  0  3  0  0  0  0  0  0
  194.6000  177.5080  145.6910 C   0  0  0  0  0  1  0  0  0  0  0  0
  192.2960  174.7270  144.8900 C   0  0  2  0  0  3  0  0  0  0  0  0
  193.6320  174.0100  144.9630 C   0  0  0  0  0  2  0  0  0  0  0  0
  192.5540  176.1350  145.4080 C   0  0  1  0  0  3  0  0  0  0  0  0
  193.9580  176.2010  145.8480 N   0  0  0  0  0  0  0  0  0  0  0  0
  191.3590  174.0610  145.7260 O   0  0  0  0  0  0  0  0  0  0  0  0
  189.7170  172.8020  144.6990 O   0  0  0  0  0  0  0  0  0  0  0  0
  190.0330  173.8410  145.3400 C   0  0  0  0  0  0  0  0  0  0  0  0
  189.0400  174.7670  145.6640 O   0  0  0  0  0  0  0  0  0  0  0  0
  188.9330  174.1700  147.8810 F   0  0  0  0  0  0  0  0  0  0  0  0
  189.7620  176.1830  147.3060 F   0  0  0  0  0  0  0  0  0  0  0  0
  188.8180  175.2250  146.9930 C   0  0  0  0  0  0  0  0  0  0  0  0
  187.5560  175.7830  147.0970 F   0  0  0  0  0  0  0  0  0  0  0  0
  192.1180  177.2100  144.3950 C   0  0  0  0  0  2  0  0  0  0  0  0
  190.6770  177.6680  144.5880 C   0  0  0  0  0  2  0  0  0  0  0  0
  189.8730  177.4340  143.3200 C   0  0  0  0  0  2  0  0  0  0  0  0
  184.1390  178.6700  147.6780 F   0  0  0  0  0  0  0  0  0  0  0  0
  186.0210  178.2740  146.2690 C   0  0  0  0  0  3  0  0  0  0  0  0
  186.5760  178.2400  144.9890 C   0  0  0  0  0  0  0  0  0  0  0  0
  187.9100  177.8810  144.8010 C   0  0  0  0  0  3  0  0  0  0  0  0
  188.4500  177.8580  143.5130 C   0  0  0  0  0  0  0  0  0  0  0  0
  188.0940  178.1870  141.2460 O   0  0  0  0  0  0  0  0  0  0  0  0
  183.8940  178.9550  145.3250 C   0  0  0  0  0  3  0  0  0  0  0  0
  187.6330  178.1960  142.4180 C   0  0  0  0  0  0  0  0  0  0  0  0
  184.4470  178.9240  144.0400 C   0  0  0  0  0  3  0  0  0  0  0  0
  185.7860  178.5670  143.8670 C   0  0  0  0  0  0  0  0  0  0  0  0
  186.3310  178.5390  142.6220 N   0  0  0  0  0  2  0  0  0  0  0  0
  184.6790  178.6320  146.4370 C   0  0  0  0  0  0  0  0  0  0  0  0
  195.3280  175.4460  143.8720 C   0  0  0  0  0  2  0  0  0  0  0  0
  197.1790  174.6250  145.1320 O   0  0  0  0  0  1  0  0  0  0  0  0
  196.8370  175.2910  143.9530 C   0  0  1  0  0  3  0  0  0  0  0  0
  197.3190  174.4900  142.7590 C   0  0  0  0  0  2  0  0  0  0  0  0
  197.4670  171.8040  143.6760 O   0  0  0  0  0  0  0  0  0  0  0  0
  196.3580  173.4460  142.4410 N   0  0  0  0  0  2  0  0  0  0  0  0
  196.4990  172.1140  142.9330 C   0  0  0  0  0  0  0  0  0  0  0  0
  195.4930  171.0840  142.5650 C   0  0  0  0  0  1  0  0  0  0  0  0
  1 30  1  6  0  0  0
  1  6  1  0  0  0  0
  2  6  1  0  0  0  0
  3  4  1  0  0  0  0
  3  5  1  0  0  0  0
  3  7  1  1  0  0  0
  4  1  1  0  0  0  0
  5 15  1  6  0  0  0
  5  6  1  0  0  0  0
  8  9  2  0  0  0  0
  9 10  1  0  0  0  0
  9  7  1  0  0  0  0
 10 13  1  0  0  0  0
 13 14  1  0  0  0  0
 13 12  1  0  0  0  0
 13 11  1  0  0  0  0
 15 16  1  0  0  0  0
 17 22  1  0  0  0  0
 17 16  1  0  0  0  0
 19 29  1  0  0  0  0
 20 19  2  0  0  0  0
 21 20  1  0  0  0  0
 22 21  2  0  0  0  0
 23 25  2  0  0  0  0
 24 29  2  0  0  0  0
 25 28  1  0  0  0  0
 25 22  1  0  0  0  0
 26 24  1  0  0  0  0
 27 26  2  0  0  0  0
 27 20  1  0  0  0  0
 28 27  1  0  0  0  0
 29 18  1  0  0  0  0
 30 32  1  0  0  0  0
 32 31  1  1  0  0  0
 33 32  1  0  0  0  0
 35 33  1  0  0  0  0
 35 36  1  0  0  0  0
 36 34  2  0  0  0  0
 37 36  1  0  0  0  0
M  END
>  <MODEL>
6

>  <REMARK>
 VINA RESULT:      -7.4      1.811      2.176
  Name = 
  12 active torsions:
  status: ('A' for Active; 'I' for Inactive)
    1  A    between atoms: C_1  and  C_31
    2  A    between atoms: O_4  and  C_7
    3  A    between atoms: O_4  and  C_11
    4  A    between atoms: C_11  and  O_28
    5  A    between atoms: C_13  and  C_17
    6  A    between atoms: C_16  and  C_18
    7  A    between atoms: C_17  and  C_34
    8  A    between atoms: C_18  and  C_34
    9  A    between atoms: N_20  and  C_29
   10  A    between atoms: C_24  and  C_29
   11  A    between atoms: C_24  and  C_31
   12  A    between atoms: C_25  and  O_28
                            x       y       z     vdW  Elec       q    Type
                         _______ _______ _______ _____ _____    ______ ____

>  <TORSDO>
F 12

$$$$
=
 OpenBabel11042418333D

 37 39  0  0  1  0  0  0  0  0999 V2000
  192.7230  176.5920  143.2120 C   0  0  2  0  0  3  0  0  0  0  0  0
  193.2930  174.3070  142.4650 C   0  0  0  0  0  1  0  0  0  0  0  0
  190.3110  176.4050  143.0940 C   0  0  2  0  0  3  0  0  0  0  0  0
  191.4390  177.3830  143.3640 C   0  0  0  0  0  2  0  0  0  0  0  0
  190.9690  175.1730  142.4860 C   0  0  1  0  0  3  0  0  0  0  0  0
  192.4040  175.4630  142.3270 N   0  0  0  0  0  0  0  0  0  0  0  0
  189.4010  176.9820  142.1670 O   0  0  0  0  0  0  0  0  0  0  0  0
  187.9940  175.6770  140.8810 O   0  0  0  0  0  0  0  0  0  0  0  0
  188.1520  176.4150  141.8900 C   0  0  0  0  0  0  0  0  0  0  0  0
  187.0650  176.6560  142.7320 O   0  0  0  0  0  0  0  0  0  0  0  0
  186.5270  178.5860  141.6050 F   0  0  0  0  0  0  0  0  0  0  0  0
  185.0850  177.7330  143.1090 F   0  0  0  0  0  0  0  0  0  0  0  0
  186.4200  177.9230  142.8140 C   0  0  0  0  0  0  0  0  0  0  0  0
  187.0000  178.6850  143.8130 F   0  0  0  0  0  0  0  0  0  0  0  0
  190.6270  173.8920  143.2700 C   0  0  0  0  0  2  0  0  0  0  0  0
  189.4850  174.0820  144.2620 C   0  0  0  0  0  2  0  0  0  0  0  0
  190.0290  174.4620  145.6290 C   0  0  0  0  0  2  0  0  0  0  0  0
  183.6920  177.9940  146.5050 F   0  0  0  0  0  0  0  0  0  0  0  0
  185.7500  176.8260  146.2200 C   0  0  0  0  0  3  0  0  0  0  0  0
  187.1200  176.7300  146.4680 C   0  0  0  0  0  0  0  0  0  0  0  0
  187.8640  175.6690  145.9540 C   0  0  0  0  0  3  0  0  0  0  0  0
  189.2340  175.5850  146.2180 C   0  0  0  0  0  0  0  0  0  0  0  0
  191.0770  176.5320  147.2560 O   0  0  0  0  0  0  0  0  0  0  0  0
  185.6650  178.8790  147.5080 C   0  0  0  0  0  3  0  0  0  0  0  0
  189.8450  176.5830  147.0000 C   0  0  0  0  0  0  0  0  0  0  0  0
  187.0370  178.7850  147.7600 C   0  0  0  0  0  3  0  0  0  0  0  0
  187.7690  177.7140  147.2430 C   0  0  0  0  0  0  0  0  0  0  0  0
  189.1030  177.6140  147.4890 N   0  0  0  0  0  2  0  0  0  0  0  0
  185.0220  177.9010  146.7410 C   0  0  0  0  0  0  0  0  0  0  0  0
  193.2120  176.1800  144.6040 C   0  0  0  0  0  2  0  0  0  0  0  0
  194.3090  177.2620  146.4240 O   0  0  0  0  0  1  0  0  0  0  0  0
  194.3790  177.0450  145.0460 C   0  0  1  0  0  3  0  0  0  0  0  0
  195.6780  176.3370  144.7080 C   0  0  0  0  0  2  0  0  0  0  0  0
  197.8650  174.5250  144.5950 O   0  0  0  0  0  0  0  0  0  0  0  0
  195.7120  175.0310  145.3450 N   0  0  0  0  0  2  0  0  0  0  0  0
  196.8440  174.1690  145.2410 C   0  0  0  0  0  0  0  0  0  0  0  0
  196.8170  172.8380  145.9020 C   0  0  0  0  0  1  0  0  0  0  0  0
  1  4  1  0  0  0  0
  1 30  1  1  0  0  0
  3  7  1  6  0  0  0
  3  4  1  0  0  0  0
  5  3  1  0  0  0  0
  5 15  1  1  0  0  0
  6  2  1  0  0  0  0
  6  5  1  0  0  0  0
  6  1  1  0  0  0  0
  8  9  2  0  0  0  0
  9  7  1  0  0  0  0
  9 10  1  0  0  0  0
 10 13  1  0  0  0  0
 11 13  1  0  0  0  0
 13 12  1  0  0  0  0
 13 14  1  0  0  0  0
 15 16  1  0  0  0  0
 16 17  1  0  0  0  0
 17 22  1  0  0  0  0
 18 29  1  0  0  0  0
 19 20  2  0  0  0  0
 19 29  1  0  0  0  0
 20 27  1  0  0  0  0
 21 22  2  0  0  0  0
 21 20  1  0  0  0  0
 22 25  1  0  0  0  0
 24 26  1  0  0  0  0
 25 23  2  0  0  0  0
 25 28  1  0  0  0  0
 27 28  1  0  0  0  0
 27 26  2  0  0  0  0
 29 24  2  0  0  0  0
 30 32  1  0  0  0  0
 32 31  1  1  0  0  0
 33 32  1  0  0  0  0
 33 35  1  0  0  0  0
 34 36  2  0  0  0  0
 36 35  1  0  0  0  0
 36 37  1  0  0  0  0
M  END
>  <MODEL>
7

>  <REMARK>
 VINA RESULT:      -7.4      2.614      4.273
  Name = 
  12 active torsions:
  status: ('A' for Active; 'I' for Inactive)
    1  A    between atoms: C_1  and  C_31
    2  A    between atoms: O_4  and  C_7
    3  A    between atoms: O_4  and  C_11
    4  A    between atoms: C_11  and  O_28
    5  A    between atoms: C_13  and  C_17
    6  A    between atoms: C_16  and  C_18
    7  A    between atoms: C_17  and  C_34
    8  A    between atoms: C_18  and  C_34
    9  A    between atoms: N_20  and  C_29
   10  A    between atoms: C_24  and  C_29
   11  A    between atoms: C_24  and  C_31
   12  A    between atoms: C_25  and  O_28
                            x       y       z     vdW  Elec       q    Type
                         _______ _______ _______ _____ _____    ______ ____

>  <TORSDO>
F 12

$$$$
=
 OpenBabel11042418333D

 37 39  0  0  1  0  0  0  0  0999 V2000
  193.5880  175.5570  144.3200 C   0  0  2  0  0  3  0  0  0  0  0  0
  193.4350  176.1120  141.9170 C   0  0  0  0  0  1  0  0  0  0  0  0
  191.3170  176.1110  144.9500 C   0  0  2  0  0  3  0  0  0  0  0  0
  192.6560  175.6700  145.5090 C   0  0  0  0  0  2  0  0  0  0  0  0
  191.5900  176.5470  143.5170 C   0  0  1  0  0  3  0  0  0  0  0  0
  193.0410  176.4480  143.2870 N   0  0  0  0  0  0  0  0  0  0  0  0
  190.8280  177.2080  145.7110 O   0  0  0  0  0  0  0  0  0  0  0  0
  189.6590  177.9380  147.5640 O   0  0  0  0  0  0  0  0  0  0  0  0
  189.8170  177.0670  146.6670 C   0  0  0  0  0  0  0  0  0  0  0  0
  188.9660  175.9610  146.6370 O   0  0  0  0  0  0  0  0  0  0  0  0
  190.4500  174.8650  148.0090 F   0  0  0  0  0  0  0  0  0  0  0  0
  188.2460  174.4320  148.1770 F   0  0  0  0  0  0  0  0  0  0  0  0
  189.2680  174.7380  147.3000 C   0  0  0  0  0  0  0  0  0  0  0  0
  189.3900  173.7160  146.3750 F   0  0  0  0  0  0  0  0  0  0  0  0
  190.7000  175.7980  142.5070 C   0  0  0  0  0  2  0  0  0  0  0  0
  189.4430  175.2090  143.1360 C   0  0  0  0  0  2  0  0  0  0  0  0
  188.2770  175.2900  142.1650 C   0  0  0  0  0  2  0  0  0  0  0  0
  184.3840  178.1120  147.6680 F   0  0  0  0  0  0  0  0  0  0  0  0
  185.6690  177.1910  145.8830 C   0  0  0  0  0  3  0  0  0  0  0  0
  185.9590  177.1310  144.5200 C   0  0  0  0  0  0  0  0  0  0  0  0
  186.9530  176.2790  144.0400 C   0  0  0  0  0  3  0  0  0  0  0  0
  187.2340  176.2370  142.6720 C   0  0  0  0  0  0  0  0  0  0  0  0
  186.7370  177.0440  140.5570 O   0  0  0  0  0  0  0  0  0  0  0  0
  183.9520  178.8460  145.4420 C   0  0  0  0  0  3  0  0  0  0  0  0
  186.5030  177.0590  141.7940 C   0  0  0  0  0  0  0  0  0  0  0  0
  184.2420  178.7910  144.0740 C   0  0  0  0  0  3  0  0  0  0  0  0
  185.2430  177.9360  143.6080 C   0  0  0  0  0  0  0  0  0  0  0  0
  185.5330  177.8810  142.2810 N   0  0  0  0  0  2  0  0  0  0  0  0
  184.6650  178.0490  146.3450 C   0  0  0  0  0  0  0  0  0  0  0  0
  193.6710  174.0860  143.8990 C   0  0  0  0  0  2  0  0  0  0  0  0
  192.2820  172.3090  144.6740 O   0  0  0  0  0  1  0  0  0  0  0  0
  193.3110  173.1720  145.0570 C   0  0  1  0  0  3  0  0  0  0  0  0
  194.5330  172.3620  145.4490 C   0  0  0  0  0  2  0  0  0  0  0  0
  196.8220  173.6720  146.5090 O   0  0  0  0  0  0  0  0  0  0  0  0
  195.6830  172.7910  144.6700 N   0  0  0  0  0  2  0  0  0  0  0  0
  196.7980  173.4500  145.2690 C   0  0  0  0  0  0  0  0  0  0  0  0
  197.9410  173.8780  144.4220 C   0  0  0  0  0  1  0  0  0  0  0  0
  1 30  1  6  0  0  0
  1  4  1  0  0  0  0
  2  6  1  0  0  0  0
  3  4  1  0  0  0  0
  3  7  1  1  0  0  0
  5 15  1  6  0  0  0
  5  3  1  0  0  0  0
  6  5  1  0  0  0  0
  6  1  1  0  0  0  0
  7  9  1  0  0  0  0
  9  8  2  0  0  0  0
 10  9  1  0  0  0  0
 10 13  1  0  0  0  0
 13 11  1  0  0  0  0
 13 12  1  0  0  0  0
 14 13  1  0  0  0  0
 15 16  1  0  0  0  0
 17 22  1  0  0  0  0
 17 16  1  0  0  0  0
 19 29  1  0  0  0  0
 20 19  2  0  0  0  0
 21 20  1  0  0  0  0
 22 21  2  0  0  0  0
 23 25  2  0  0  0  0
 24 29  2  0  0  0  0
 25 28  1  0  0  0  0
 25 22  1  0  0  0  0
 26 24  1  0  0  0  0
 27 26  2  0  0  0  0
 27 20  1  0  0  0  0
 28 27  1  0  0  0  0
 29 18  1  0  0  0  0
 30 32  1  0  0  0  0
 32 31  1  6  0  0  0
 32 33  1  0  0  0  0
 35 36  1  0  0  0  0
 35 33  1  0  0  0  0
 36 34  2  0  0  0  0
 37 36  1  0  0  0  0
M  END
>  <MODEL>
8

>  <REMARK>
 VINA RESULT:      -7.4      1.493      2.007
  Name = 
  12 active torsions:
  status: ('A' for Active; 'I' for Inactive)
    1  A    between atoms: C_1  and  C_31
    2  A    between atoms: O_4  and  C_7
    3  A    between atoms: O_4  and  C_11
    4  A    between atoms: C_11  and  O_28
    5  A    between atoms: C_13  and  C_17
    6  A    between atoms: C_16  and  C_18
    7  A    between atoms: C_17  and  C_34
    8  A    between atoms: C_18  and  C_34
    9  A    between atoms: N_20  and  C_29
   10  A    between atoms: C_24  and  C_29
   11  A    between atoms: C_24  and  C_31
   12  A    between atoms: C_25  and  O_28
                            x       y       z     vdW  Elec       q    Type
                         _______ _______ _______ _____ _____    ______ ____

>  <TORSDO>
F 12

$$$$
=
 OpenBabel11042418333D

 37 39  0  0  1  0  0  0  0  0999 V2000
  189.1060  172.9850  140.8680 C   0  0  2  0  0  3  0  0  0  0  0  0
  189.5910  171.6940  142.9180 C   0  0  0  0  0  1  0  0  0  0  0  0
  188.8340  175.1650  141.8860 C   0  0  2  0  0  3  0  0  0  0  0  0
  188.7290  174.4210  140.5680 C   0  0  0  0  0  2  0  0  0  0  0  0
  188.9530  174.0910  142.9580 C   0  0  1  0  0  3  0  0  0  0  0  0
  188.8300  172.7810  142.2970 N   0  0  0  0  0  0  0  0  0  0  0  0
  187.6540  175.9310  142.0890 O   0  0  0  0  0  0  0  0  0  0  0  0
  188.2920  178.0340  141.3760 O   0  0  0  0  0  0  0  0  0  0  0  0
  187.4130  177.1320  141.4120 C   0  0  0  0  0  0  0  0  0  0  0  0
  186.1950  177.3450  140.7640 O   0  0  0  0  0  0  0  0  0  0  0  0
  185.6410  179.2630  141.9040 F   0  0  0  0  0  0  0  0  0  0  0  0
  184.2300  178.4380  140.3550 F   0  0  0  0  0  0  0  0  0  0  0  0
  185.1380  178.1040  141.3410 C   0  0  0  0  0  0  0  0  0  0  0  0
  184.4950  177.3570  142.3130 F   0  0  0  0  0  0  0  0  0  0  0  0
  190.2080  174.2860  143.8310 C   0  0  0  0  0  2  0  0  0  0  0  0
  190.7440  175.7110  143.8020 C   0  0  0  0  0  2  0  0  0  0  0  0
  190.6900  176.3260  145.1910 C   0  0  0  0  0  2  0  0  0  0  0  0
  184.2870  179.7960  144.5930 F   0  0  0  0  0  0  0  0  0  0  0  0
  186.3770  178.6640  144.7700 C   0  0  0  0  0  3  0  0  0  0  0  0
  187.1760  177.7100  145.4010 C   0  0  0  0  0  0  0  0  0  0  0  0
  188.4880  177.4900  144.9840 C   0  0  0  0  0  3  0  0  0  0  0  0
  189.2710  176.5260  145.6240 C   0  0  0  0  0  0  0  0  0  0  0  0
  189.4020  174.9130  147.2830 O   0  0  0  0  0  0  0  0  0  0  0  0
  184.5530  178.1280  146.2750 C   0  0  0  0  0  3  0  0  0  0  0  0
  188.7200  175.7900  146.6890 C   0  0  0  0  0  0  0  0  0  0  0  0
  185.3490  177.1690  146.9090 C   0  0  0  0  0  3  0  0  0  0  0  0
  186.6610  176.9560  146.4760 C   0  0  0  0  0  0  0  0  0  0  0  0
  187.4390  176.0220  147.0860 N   0  0  0  0  0  2  0  0  0  0  0  0
  185.0650  178.8730  145.2070 C   0  0  0  0  0  0  0  0  0  0  0  0
  190.5710  172.7700  140.4740 C   0  0  0  0  0  2  0  0  0  0  0  0
  189.4050  171.5730  138.7730 O   0  0  0  0  0  1  0  0  0  0  0  0
  190.6740  172.0050  139.1670 C   0  0  1  0  0  3  0  0  0  0  0  0
  191.2540  172.9160  138.1020 C   0  0  0  0  0  2  0  0  0  0  0  0
  191.1800  173.6030  135.3450 O   0  0  0  0  0  0  0  0  0  0  0  0
  190.1890  173.6670  137.4580 N   0  0  0  0  0  2  0  0  0  0  0  0
  190.2210  173.9820  136.0670 C   0  0  0  0  0  0  0  0  0  0  0  0
  189.1100  174.7640  135.4640 C   0  0  0  0  0  1  0  0  0  0  0  0
  1 30  1  1  0  0  0
  1  6  1  0  0  0  0
  3  7  1  1  0  0  0
  3  5  1  0  0  0  0
  4  1  1  0  0  0  0
  4  3  1  0  0  0  0
  5 15  1  6  0  0  0
  6  2  1  0  0  0  0
  6  5  1  0  0  0  0
  8  9  2  0  0  0  0
  9  7  1  0  0  0  0
 10 13  1  0  0  0  0
 10  9  1  0  0  0  0
 12 13  1  0  0  0  0
 13 11  1  0  0  0  0
 13 14  1  0  0  0  0
 16 15  1  0  0  0  0
 16 17  1  0  0  0  0
 17 22  1  0  0  0  0
 18 29  1  0  0  0  0
 19 29  2  0  0  0  0
 19 20  1  0  0  0  0
 20 27  2  0  0  0  0
 21 20  1  0  0  0  0
 21 22  2  0  0  0  0
 22 25  1  0  0  0  0
 24 26  2  0  0  0  0
 25 28  1  0  0  0  0
 25 23  2  0  0  0  0
 27 26  1  0  0  0  0
 27 28  1  0  0  0  0
 29 24  1  0  0  0  0
 32 31  1  6  0  0  0
 32 30  1  0  0  0  0
 33 32  1  0  0  0  0
 34 36  2  0  0  0  0
 35 33  1  0  0  0  0
 36 35  1  0  0  0  0
 37 36  1  0  0  0  0
M  END
>  <MODEL>
9

>  <REMARK>
 VINA RESULT:      -7.3      4.410      6.772
  Name = 
  12 active torsions:
  status: ('A' for Active; 'I' for Inactive)
    1  A    between atoms: C_1  and  C_31
    2  A    between atoms: O_4  and  C_7
    3  A    between atoms: O_4  and  C_11
    4  A    between atoms: C_11  and  O_28
    5  A    between atoms: C_13  and  C_17
    6  A    between atoms: C_16  and  C_18
    7  A    between atoms: C_17  and  C_34
    8  A    between atoms: C_18  and  C_34
    9  A    between atoms: N_20  and  C_29
   10  A    between atoms: C_24  and  C_29
   11  A    between atoms: C_24  and  C_31
   12  A    between atoms: C_25  and  O_28
                            x       y       z     vdW  Elec       q    Type
                         _______ _______ _______ _____ _____    ______ ____

>  <TORSDO>
F 12

$$$$
