=
 OpenBabel11042415363D

 39 46  0  0  1  0  0  0  0  0999 V2000
  187.7600  177.2600  142.4660 C   0  0  1  0  0  3  0  0  0  0  0  0
  192.5150  174.2820  144.9090 C   0  0  1  0  0  3  0  0  0  0  0  0
  192.1660  176.8840  145.1710 C   0  0  0  0  0  2  0  0  0  0  0  0
  190.6650  176.9590  144.8530 C   0  0  0  0  0  2  0  0  0  0  0  0
  191.7760  174.8690  142.5950 C   0  0  1  0  0  0  0  0  0  0  0  0
  192.9900  175.6820  144.6210 C   0  0  2  0  0  3  0  0  0  0  0  0
  190.4880  176.7500  143.3730 C   0  0  2  0  0  3  0  0  0  0  0  0
  189.1050  176.7750  142.8110 C   0  0  0  0  0  0  0  0  0  0  0  0
  189.2360  175.5350  142.3800 C   0  0  0  0  0  0  0  0  0  0  0  0
  187.1200  176.0560  141.8100 N   0  0  0  0  0  2  0  0  0  0  0  0
  193.0050  175.5030  143.1590 N   0  0  1  0  0  0  0  0  0  0  0  0
  192.6900  174.0700  143.4070 C   0  0  1  0  0  3  0  0  0  0  0  0
  190.4550  175.3420  143.2120 C   0  0  1  0  0  3  0  0  0  0  0  0
  188.0860  175.0020  141.8080 N   0  0  0  0  0  0  0  0  0  0  0  0
  187.6990  173.6200  142.0190 C   0  0  0  0  0  1  0  0  0  0  0  0
  184.9700  178.9100  147.0670 F   0  0  0  0  0  0  0  0  0  0  0  0
  187.0010  176.8490  144.8460 C   0  0  0  0  0  3  0  0  0  0  0  0
  185.6420  178.4910  145.9680 C   0  0  0  0  0  0  0  0  0  0  0  0
  185.6660  179.2650  144.8500 N   0  0  0  0  0  0  0  0  0  0  0  0
  186.3130  177.2660  145.9870 C   0  0  0  0  0  3  0  0  0  0  0  0
  187.0070  177.6550  143.7000 C   0  0  0  0  0  0  0  0  0  0  0  0
  186.3290  178.8770  143.7270 C   0  0  0  0  0  3  0  0  0  0  0  0
  193.5680  173.5370  145.6580 C   0  0  0  0  0  3  0  0  0  0  0  0
  193.9340  172.3720  145.2710 N   0  0  0  0  0  2  0  0  0  0  0  0
  191.8790  174.7470  141.1980 O   0  0  0  0  0  0  0  0  0  0  0  0
  191.1980  173.2850  138.0840 C   0  0  1  0  0  3  0  0  0  0  0  0
  192.0920  173.3890  140.9070 C   0  0  1  0  0  3  0  0  0  0  0  0
  190.1930  173.3330  139.2400 C   0  0  0  0  0  2  0  0  0  0  0  0
  190.7720  172.7200  140.5180 C   0  0  0  0  0  2  0  0  0  0  0  0
  193.0980  173.2450  139.7650 C   0  0  0  0  0  2  0  0  0  0  0  0
  192.5170  173.7400  138.5210 N   0  0  0  0  0  0  0  0  0  0  0  0
  191.3360  169.4470  136.2730 N   0  0  0  0  0  0  0  0  0  0  0  0
  190.2320  169.8030  136.9800 C   0  0  0  0  0  3  0  0  0  0  0  0
  191.2500  171.9380  137.4240 C   0  0  0  0  0  0  0  0  0  0  0  0
  192.3720  170.2770  136.1320 N   0  0  0  0  0  0  0  0  0  0  0  0
  190.1750  171.0640  137.5730 C   0  0  0  0  0  3  0  0  0  0  0  0
  192.3640  171.5160  136.6910 C   0  0  0  0  0  3  0  0  0  0  0  0
  193.7180  175.5820  137.2150 N   0  0  0  0  0  0  0  0  0  0  0  0
  193.1750  174.7490  137.8050 C   0  0  0  0  0  0  0  0  0  0  0  0
  1  8  1  0  0  0  0
  1 21  1  1  0  0  0
  2 23  1  1  0  0  0
  4  3  1  0  0  0  0
  5 25  1  6  0  0  0
  5 11  1  0  0  0  0
  5 13  1  0  0  0  0
  5 12  1  0  0  0  0
  6  2  1  0  0  0  0
  6  3  1  6  0  0  0
  7  4  1  1  0  0  0
  8  7  1  0  0  0  0
  9  8  2  0  0  0  0
  9 13  1  0  0  0  0
 10  1  1  0  0  0  0
 11 12  1  0  0  0  0
 11  6  1  0  0  0  0
 12  2  1  0  0  0  0
 13  7  1  0  0  0  0
 14 10  1  0  0  0  0
 14 15  1  0  0  0  0
 14  9  1  0  0  0  0
 17 20  1  0  0  0  0
 18 20  2  0  0  0  0
 18 16  1  0  0  0  0
 19 18  1  0  0  0  0
 21 22  1  0  0  0  0
 21 17  2  0  0  0  0
 22 19  2  0  0  0  0
 24 23  2  0  0  0  0
 26 31  1  0  0  0  0
 26 28  1  0  0  0  0
 27 25  1  0  0  0  0
 28 29  1  0  0  0  0
 29 27  1  0  0  0  0
 30 27  1  0  0  0  0
 31 30  1  0  0  0  0
 32 33  1  0  0  0  0
 33 36  2  0  0  0  0
 34 36  1  0  0  0  0
 34 26  1  0  0  0  0
 35 32  2  0  0  0  0
 35 37  1  0  0  0  0
 37 34  2  0  0  0  0
 38 39  3  0  0  0  0
 39 31  1  0  0  0  0
M  END
>  <MODEL>
1

>  <REMARK>
 VINA RESULT:      -7.0      0.000      0.000
  Name = 
  6 active torsions:
  status: ('A' for Active; 'I' for Inactive)
    1  A    between atoms: C_4  and  C_6
    2  A    between atoms: C_5  and  C_35
    3  A    between atoms: C_7  and  C_11
    4  A    between atoms: C_14  and  O_36
    5  A    between atoms: C_19  and  O_36
    6  A    between atoms: C_26  and  N_34
                            x       y       z     vdW  Elec       q    Type
                         _______ _______ _______ _____ _____    ______ ____

>  <TORSDO>
F 6

$$$$
=
 OpenBabel11042415363D

 39 46  0  0  1  0  0  0  0  0999 V2000
  193.7210  174.8590  145.0210 C   0  0  1  0  0  3  0  0  0  0  0  0
  190.2170  172.1530  140.7970 C   0  0  1  0  0  3  0  0  0  0  0  0
  192.7570  172.7370  140.3910 C   0  0  0  0  0  2  0  0  0  0  0  0
  193.2090  172.8780  141.8530 C   0  0  0  0  0  2  0  0  0  0  0  0
  190.3260  174.4230  141.8360 C   0  0  1  0  0  0  0  0  0  0  0  0
  191.2530  172.9470  140.0470 C   0  0  2  0  0  3  0  0  0  0  0  0
  192.6560  174.1700  142.3910 C   0  0  2  0  0  3  0  0  0  0  0  0
  192.9550  174.5370  143.8070 C   0  0  0  0  0  0  0  0  0  0  0  0
  191.6690  174.5400  144.0990 C   0  0  0  0  0  0  0  0  0  0  0  0
  192.6460  174.9920  146.0790 N   0  0  0  0  0  2  0  0  0  0  0  0
  190.6720  174.2560  140.3930 N   0  0  1  0  0  0  0  0  0  0  0  0
  189.5430  173.5070  141.0100 C   0  0  1  0  0  3  0  0  0  0  0  0
  191.3450  173.8450  142.8240 C   0  0  1  0  0  3  0  0  0  0  0  0
  191.3860  174.7580  145.4440 N   0  0  0  0  0  0  0  0  0  0  0  0
  190.3170  174.0510  146.1230 C   0  0  0  0  0  1  0  0  0  0  0  0
  197.1430  170.6010  146.3770 F   0  0  0  0  0  0  0  0  0  0  0  0
  196.0110  173.9950  145.6670 C   0  0  0  0  0  3  0  0  0  0  0  0
  196.3380  171.6400  146.0470 C   0  0  0  0  0  0  0  0  0  0  0  0
  195.0280  171.4180  145.7560 N   0  0  0  0  0  0  0  0  0  0  0  0
  196.8540  172.9370  146.0100 C   0  0  0  0  0  3  0  0  0  0  0  0
  194.6660  173.7470  145.3620 C   0  0  0  0  0  0  0  0  0  0  0  0
  194.1900  172.4350  145.4190 C   0  0  0  0  0  3  0  0  0  0  0  0
  189.4220  171.3300  139.8390 C   0  0  0  0  0  3  0  0  0  0  0  0
  189.7890  171.2290  138.6150 N   0  0  0  0  0  2  0  0  0  0  0  0
  189.7860  175.7000  142.0720 O   0  0  0  0  0  0  0  0  0  0  0  0
  187.3680  178.1590  142.7070 C   0  0  1  0  0  3  0  0  0  0  0  0
  188.7490  175.5550  143.0090 C   0  0  1  0  0  3  0  0  0  0  0  0
  188.6820  178.0360  143.4850 C   0  0  0  0  0  2  0  0  0  0  0  0
  188.8560  176.6380  144.0850 C   0  0  0  0  0  2  0  0  0  0  0  0
  187.3910  175.6520  142.3130 C   0  0  0  0  0  2  0  0  0  0  0  0
  187.1760  177.0100  141.8230 N   0  0  0  0  0  0  0  0  0  0  0  0
  184.0450  178.7560  145.2830 N   0  0  0  0  0  0  0  0  0  0  0  0
  185.2920  178.6880  145.8190 C   0  0  0  0  0  3  0  0  0  0  0  0
  186.1880  178.3870  143.6060 C   0  0  0  0  0  0  0  0  0  0  0  0
  183.8450  178.6440  143.9680 N   0  0  0  0  0  0  0  0  0  0  0  0
  186.3890  178.4980  144.9800 C   0  0  0  0  0  3  0  0  0  0  0  0
  184.8820  178.4580  143.1090 C   0  0  0  0  0  3  0  0  0  0  0  0
  186.6820  177.3910  139.3420 N   0  0  0  0  0  0  0  0  0  0  0  0
  186.9050  177.2180  140.4640 C   0  0  0  0  0  0  0  0  0  0  0  0
  1 21  1  1  0  0  0
  1 10  1  0  0  0  0
  2 23  1  6  0  0  0
  2 12  1  0  0  0  0
  3  4  1  0  0  0  0
  5 25  1  1  0  0  0
  5 13  1  0  0  0  0
  6  3  1  1  0  0  0
  6 11  1  0  0  0  0
  6  2  1  0  0  0  0
  7  4  1  1  0  0  0
  7 13  1  0  0  0  0
  7  8  1  0  0  0  0
  8  9  2  0  0  0  0
  8  1  1  0  0  0  0
  9 14  1  0  0  0  0
 11 12  1  0  0  0  0
 11  5  1  0  0  0  0
 12  5  1  0  0  0  0
 13  9  1  0  0  0  0
 14 10  1  0  0  0  0
 14 15  1  0  0  0  0
 17 20  1  0  0  0  0
 18 16  1  0  0  0  0
 19 18  1  0  0  0  0
 20 18  2  0  0  0  0
 21 22  1  0  0  0  0
 21 17  2  0  0  0  0
 22 19  2  0  0  0  0
 24 23  2  0  0  0  0
 25 27  1  0  0  0  0
 26 28  1  0  0  0  0
 26 34  1  0  0  0  0
 27 29  1  0  0  0  0
 28 29  1  0  0  0  0
 30 27  1  0  0  0  0
 31 30  1  0  0  0  0
 31 26  1  0  0  0  0
 32 33  1  0  0  0  0
 34 36  1  0  0  0  0
 35 32  2  0  0  0  0
 36 33  2  0  0  0  0
 37 34  2  0  0  0  0
 37 35  1  0  0  0  0
 38 39  3  0  0  0  0
 39 31  1  0  0  0  0
M  END
>  <MODEL>
2

>  <REMARK>
 VINA RESULT:      -6.9      3.172      8.403
  Name = 
  6 active torsions:
  status: ('A' for Active; 'I' for Inactive)
    1  A    between atoms: C_4  and  C_6
    2  A    between atoms: C_5  and  C_35
    3  A    between atoms: C_7  and  C_11
    4  A    between atoms: C_14  and  O_36
    5  A    between atoms: C_19  and  O_36
    6  A    between atoms: C_26  and  N_34
                            x       y       z     vdW  Elec       q    Type
                         _______ _______ _______ _____ _____    ______ ____

>  <TORSDO>
F 6

$$$$
=
 OpenBabel11042415363D

 39 46  0  0  1  0  0  0  0  0999 V2000
  187.4720  177.3670  140.9070 C   0  0  1  0  0  3  0  0  0  0  0  0
  189.8350  175.4580  146.2190 C   0  0  1  0  0  3  0  0  0  0  0  0
  189.0930  177.9540  145.7960 C   0  0  0  0  0  2  0  0  0  0  0  0
  188.1570  177.7280  144.5990 C   0  0  0  0  0  2  0  0  0  0  0  0
  190.7020  175.7950  143.9000 C   0  0  1  0  0  0  0  0  0  0  0  0
  190.2120  176.9080  146.0810 C   0  0  2  0  0  3  0  0  0  0  0  0
  189.0050  177.4270  143.3920 C   0  0  2  0  0  3  0  0  0  0  0  0
  188.3220  177.1630  142.0910 C   0  0  0  0  0  0  0  0  0  0  0  0
  188.8470  175.9540  142.0370 C   0  0  0  0  0  0  0  0  0  0  0  0
  187.5570  176.0370  140.1910 N   0  0  0  0  0  2  0  0  0  0  0  0
  191.1900  176.6740  145.0040 N   0  0  1  0  0  0  0  0  0  0  0  0
  190.9630  175.2200  145.2170 C   0  0  1  0  0  3  0  0  0  0  0  0
  189.2520  176.0320  143.4670 C   0  0  1  0  0  3  0  0  0  0  0  0
  188.4120  175.1870  140.9600 N   0  0  0  0  0  0  0  0  0  0  0  0
  188.1490  173.7680  141.0930 C   0  0  0  0  0  1  0  0  0  0  0  0
  182.1620  178.5980  142.3080 F   0  0  0  0  0  0  0  0  0  0  0  0
  185.6560  177.6100  142.6540 C   0  0  0  0  0  3  0  0  0  0  0  0
  183.4430  178.2910  141.9920 C   0  0  0  0  0  0  0  0  0  0  0  0
  183.8550  178.3460  140.6970 N   0  0  0  0  0  0  0  0  0  0  0  0
  184.3400  177.9230  142.9970 C   0  0  0  0  0  3  0  0  0  0  0  0
  186.0610  177.6640  141.3140 C   0  0  0  0  0  0  0  0  0  0  0  0
  185.1330  178.0440  140.3410 C   0  0  0  0  0  3  0  0  0  0  0  0
  190.2340  174.9590  147.5670 C   0  0  0  0  0  3  0  0  0  0  0  0
  191.1890  175.5230  148.2090 N   0  0  0  0  0  2  0  0  0  0  0  0
  191.6970  175.6350  142.9180 O   0  0  0  0  0  0  0  0  0  0  0  0
  193.6020  174.0150  140.4610 C   0  0  1  0  0  3  0  0  0  0  0  0
  192.2390  174.3480  143.0700 C   0  0  1  0  0  3  0  0  0  0  0  0
  192.0820  173.8690  140.5940 C   0  0  0  0  0  2  0  0  0  0  0  0
  191.6790  173.4110  141.9970 C   0  0  0  0  0  2  0  0  0  0  0  0
  193.7630  174.4000  142.9630 C   0  0  0  0  0  2  0  0  0  0  0  0
  194.1580  174.7420  141.6010 N   0  0  0  0  0  0  0  0  0  0  0  0
  195.4940  170.2610  139.8580 N   0  0  0  0  0  0  0  0  0  0  0  0
  194.2440  170.4570  139.3620 C   0  0  0  0  0  3  0  0  0  0  0  0
  194.2880  172.6980  140.2390 C   0  0  0  0  0  0  0  0  0  0  0  0
  196.1380  171.2220  140.5240 N   0  0  0  0  0  0  0  0  0  0  0  0
  193.6180  171.6890  139.5500 C   0  0  0  0  0  3  0  0  0  0  0  0
  195.5700  172.4390  140.7330 C   0  0  0  0  0  3  0  0  0  0  0  0
  195.6580  176.7750  141.1970 N   0  0  0  0  0  0  0  0  0  0  0  0
  194.9790  175.8560  141.3800 C   0  0  0  0  0  0  0  0  0  0  0  0
  1 21  1  1  0  0  0
  1  8  1  0  0  0  0
  2 23  1  1  0  0  0
  4  3  1  0  0  0  0
  5 25  1  6  0  0  0
  5 11  1  0  0  0  0
  5 12  1  0  0  0  0
  6  3  1  6  0  0  0
  6  2  1  0  0  0  0
  7 13  1  0  0  0  0
  7  4  1  1  0  0  0
  8  7  1  0  0  0  0
  9  8  2  0  0  0  0
  9 13  1  0  0  0  0
 10  1  1  0  0  0  0
 10 14  1  0  0  0  0
 11 12  1  0  0  0  0
 11  6  1  0  0  0  0
 12  2  1  0  0  0  0
 13  5  1  0  0  0  0
 14 15  1  0  0  0  0
 14  9  1  0  0  0  0
 17 20  1  0  0  0  0
 18 16  1  0  0  0  0
 18 20  2  0  0  0  0
 19 18  1  0  0  0  0
 21 17  2  0  0  0  0
 22 19  2  0  0  0  0
 22 21  1  0  0  0  0
 23 24  2  0  0  0  0
 25 27  1  0  0  0  0
 26 28  1  0  0  0  0
 26 31  1  0  0  0  0
 28 29  1  0  0  0  0
 29 27  1  0  0  0  0
 30 27  1  0  0  0  0
 31 30  1  0  0  0  0
 32 35  1  0  0  0  0
 33 36  1  0  0  0  0
 33 32  2  0  0  0  0
 34 26  1  0  0  0  0
 34 37  1  0  0  0  0
 35 37  2  0  0  0  0
 36 34  2  0  0  0  0
 38 39  3  0  0  0  0
 39 31  1  0  0  0  0
M  END
>  <MODEL>
3

>  <REMARK>
 VINA RESULT:      -6.7      2.791      3.477
  Name = 
  6 active torsions:
  status: ('A' for Active; 'I' for Inactive)
    1  A    between atoms: C_4  and  C_6
    2  A    between atoms: C_5  and  C_35
    3  A    between atoms: C_7  and  C_11
    4  A    between atoms: C_14  and  O_36
    5  A    between atoms: C_19  and  O_36
    6  A    between atoms: C_26  and  N_34
                            x       y       z     vdW  Elec       q    Type
                         _______ _______ _______ _____ _____    ______ ____

>  <TORSDO>
F 6

$$$$
=
 OpenBabel11042415363D

 39 46  0  0  1  0  0  0  0  0999 V2000
  189.3910  176.0600  145.6110 C   0  0  1  0  0  3  0  0  0  0  0  0
  189.5710  173.8890  139.8930 C   0  0  1  0  0  3  0  0  0  0  0  0
  188.1050  172.7960  141.7940 C   0  0  0  0  0  2  0  0  0  0  0  0
  188.0420  173.9860  142.7640 C   0  0  0  0  0  2  0  0  0  0  0  0
  191.1700  174.0000  141.8090 C   0  0  1  0  0  0  0  0  0  0  0  0
  189.2910  172.7110  140.7870 C   0  0  2  0  0  3  0  0  0  0  0  0
  189.3870  174.1260  143.4240 C   0  0  2  0  0  3  0  0  0  0  0  0
  189.5830  175.2240  144.4160 C   0  0  0  0  0  0  0  0  0  0  0  0
  190.5410  175.7480  143.6760 C   0  0  0  0  0  0  0  0  0  0  0  0
  190.3720  177.1930  145.3970 N   0  0  0  0  0  2  0  0  0  0  0  0
  190.6460  172.6750  141.3630 N   0  0  1  0  0  0  0  0  0  0  0  0
  191.0090  173.7330  140.3820 C   0  0  1  0  0  3  0  0  0  0  0  0
  190.1520  174.9010  142.5160 C   0  0  1  0  0  3  0  0  0  0  0  0
  191.0430  176.9530  144.1580 N   0  0  0  0  0  0  0  0  0  0  0  0
  191.4000  178.0410  143.2680 C   0  0  0  0  0  1  0  0  0  0  0  0
  184.0750  177.8770  145.9580 F   0  0  0  0  0  0  0  0  0  0  0  0
  187.3720  177.1740  144.5650 C   0  0  0  0  0  3  0  0  0  0  0  0
  185.3580  177.4520  145.8550 C   0  0  0  0  0  0  0  0  0  0  0  0
  185.9660  176.8640  146.9190 N   0  0  0  0  0  0  0  0  0  0  0  0
  186.0510  177.6160  144.6540 C   0  0  0  0  0  3  0  0  0  0  0  0
  187.9870  176.5780  145.6750 C   0  0  0  0  0  0  0  0  0  0  0  0
  187.2530  176.4270  146.8540 C   0  0  0  0  0  3  0  0  0  0  0  0
  189.4680  173.4720  138.4640 C   0  0  0  0  0  3  0  0  0  0  0  0
  188.3230  173.3960  137.8940 N   0  0  0  0  0  2  0  0  0  0  0  0
  192.4620  173.8650  142.3490 O   0  0  0  0  0  0  0  0  0  0  0  0
  194.8910  172.8530  144.6660 C   0  0  1  0  0  3  0  0  0  0  0  0
  192.5840  172.5510  142.8330 C   0  0  1  0  0  3  0  0  0  0  0  0
  195.0810  172.7790  143.1470 C   0  0  0  0  0  2  0  0  0  0  0  0
  193.9590  171.9830  142.4760 C   0  0  0  0  0  2  0  0  0  0  0  0
  192.3950  172.5290  144.3500 C   0  0  0  0  0  2  0  0  0  0  0  0
  193.5120  173.2020  145.0030 N   0  0  0  0  0  0  0  0  0  0  0  0
  196.2130  169.3030  146.5860 N   0  0  0  0  0  0  0  0  0  0  0  0
  197.1360  170.1590  146.0730 C   0  0  0  0  0  3  0  0  0  0  0  0
  195.3480  171.6040  145.3630 C   0  0  0  0  0  0  0  0  0  0  0  0
  194.9060  169.5580  146.5040 N   0  0  0  0  0  0  0  0  0  0  0  0
  196.7110  171.3290  145.4460 C   0  0  0  0  0  3  0  0  0  0  0  0
  194.4420  170.6850  145.9030 C   0  0  0  0  0  3  0  0  0  0  0  0
  193.0530  175.1630  146.5810 N   0  0  0  0  0  0  0  0  0  0  0  0
  193.2600  174.2760  145.8680 C   0  0  0  0  0  0  0  0  0  0  0  0
  1 21  1  6  0  0  0
  2 23  1  6  0  0  0
  2 12  1  0  0  0  0
  2  6  1  0  0  0  0
  3  4  1  0  0  0  0
  5 25  1  1  0  0  0
  5 13  1  0  0  0  0
  6 11  1  0  0  0  0
  6  3  1  1  0  0  0
  7  4  1  6  0  0  0
  7  8  1  0  0  0  0
  8  1  1  0  0  0  0
  9 14  1  0  0  0  0
  9  8  2  0  0  0  0
 10  1  1  0  0  0  0
 11  5  1  0  0  0  0
 12 11  1  0  0  0  0
 12  5  1  0  0  0  0
 13  7  1  0  0  0  0
 13  9  1  0  0  0  0
 14 10  1  0  0  0  0
 15 14  1  0  0  0  0
 17 20  2  0  0  0  0
 17 21  1  0  0  0  0
 18 16  1  0  0  0  0
 18 19  2  0  0  0  0
 20 18  1  0  0  0  0
 21 22  2  0  0  0  0
 22 19  1  0  0  0  0
 24 23  2  0  0  0  0
 25 27  1  0  0  0  0
 26 31  1  0  0  0  0
 26 34  1  0  0  0  0
 27 30  1  0  0  0  0
 28 26  1  0  0  0  0
 29 27  1  0  0  0  0
 29 28  1  0  0  0  0
 30 31  1  0  0  0  0
 31 39  1  0  0  0  0
 33 32  2  0  0  0  0
 34 36  2  0  0  0  0
 34 37  1  0  0  0  0
 35 32  1  0  0  0  0
 36 33  1  0  0  0  0
 37 35  2  0  0  0  0
 39 38  3  0  0  0  0
M  END
>  <MODEL>
4

>  <REMARK>
 VINA RESULT:      -6.7      2.618      6.113
  Name = 
  6 active torsions:
  status: ('A' for Active; 'I' for Inactive)
    1  A    between atoms: C_4  and  C_6
    2  A    between atoms: C_5  and  C_35
    3  A    between atoms: C_7  and  C_11
    4  A    between atoms: C_14  and  O_36
    5  A    between atoms: C_19  and  O_36
    6  A    between atoms: C_26  and  N_34
                            x       y       z     vdW  Elec       q    Type
                         _______ _______ _______ _____ _____    ______ ____

>  <TORSDO>
F 6

$$$$
=
 OpenBabel11042415363D

 39 46  0  0  1  0  0  0  0  0999 V2000
  189.9880  171.1470  140.4340 C   0  0  1  0  0  3  0  0  0  0  0  0
  194.0060  175.6850  141.2760 C   0  0  1  0  0  3  0  0  0  0  0  0
  194.6150  173.1450  141.6470 C   0  0  0  0  0  2  0  0  0  0  0  0
  193.4850  172.5040  140.8270 C   0  0  0  0  0  2  0  0  0  0  0  0
  191.9390  174.8950  142.4370 C   0  0  1  0  0  0  0  0  0  0  0  0
  194.4070  174.5800  142.2170 C   0  0  2  0  0  3  0  0  0  0  0  0
  192.2020  172.6520  141.6000 C   0  0  2  0  0  3  0  0  0  0  0  0
  190.9460  172.1070  141.0050 C   0  0  0  0  0  0  0  0  0  0  0  0
  190.4020  173.3080  141.0020 C   0  0  0  0  0  0  0  0  0  0  0  0
  188.8150  172.0230  140.0490 N   0  0  0  0  0  2  0  0  0  0  0  0
  193.2600  174.7730  143.1210 N   0  0  1  0  0  0  0  0  0  0  0  0
  192.9180  175.9710  142.3080 C   0  0  1  0  0  3  0  0  0  0  0  0
  191.7240  173.9420  141.2560 C   0  0  1  0  0  3  0  0  0  0  0  0
  189.1460  173.3670  140.4070 N   0  0  0  0  0  0  0  0  0  0  0  0
  188.7440  174.4910  139.5830 C   0  0  0  0  0  1  0  0  0  0  0  0
  192.0050  168.5920  135.8420 F   0  0  0  0  0  0  0  0  0  0  0  0
  191.7350  169.7030  139.3060 C   0  0  0  0  0  3  0  0  0  0  0  0
  191.5400  169.2040  136.9580 C   0  0  0  0  0  0  0  0  0  0  0  0
  190.4040  169.9500  136.9010 N   0  0  0  0  0  0  0  0  0  0  0  0
  192.2270  169.0650  138.1660 C   0  0  0  0  0  3  0  0  0  0  0  0
  190.5670  170.4740  139.2270 C   0  0  0  0  0  0  0  0  0  0  0  0
  189.9080  170.5800  138.0000 C   0  0  0  0  0  3  0  0  0  0  0  0
  195.0340  176.7660  141.3020 C   0  0  0  0  0  3  0  0  0  0  0  0
  196.2790  176.4720  141.3710 N   0  0  0  0  0  2  0  0  0  0  0  0
  190.9080  175.0690  143.3780 O   0  0  0  0  0  0  0  0  0  0  0  0
  187.7260  176.2190  144.2960 C   0  0  1  0  0  3  0  0  0  0  0  0
  190.5210  176.4190  143.3370 C   0  0  1  0  0  3  0  0  0  0  0  0
  188.1100  175.8300  142.8650 C   0  0  0  0  0  2  0  0  0  0  0  0
  189.3410  176.6000  142.3800 C   0  0  0  0  0  2  0  0  0  0  0  0
  190.1300  176.8990  144.7350 C   0  0  0  0  0  2  0  0  0  0  0  0
  188.9020  176.2400  145.1650 N   0  0  0  0  0  0  0  0  0  0  0  0
  185.4990  179.8300  144.4890 N   0  0  0  0  0  0  0  0  0  0  0  0
  185.7860  179.1690  145.6410 C   0  0  0  0  0  3  0  0  0  0  0  0
  186.9550  177.5060  144.3540 C   0  0  0  0  0  0  0  0  0  0  0  0
  185.9060  179.3720  143.3030 N   0  0  0  0  0  0  0  0  0  0  0  0
  186.5220  177.9870  145.5880 C   0  0  0  0  0  3  0  0  0  0  0  0
  186.6260  178.2240  143.1990 C   0  0  0  0  0  3  0  0  0  0  0  0
  188.8820  174.9180  147.3550 N   0  0  0  0  0  0  0  0  0  0  0  0
  188.8910  175.5160  146.3640 C   0  0  0  0  0  0  0  0  0  0  0  0
  1 21  1  6  0  0  0
  1  8  1  0  0  0  0
  2 23  1  1  0  0  0
  2  6  1  0  0  0  0
  2 12  1  0  0  0  0
  4  3  1  0  0  0  0
  5 11  1  0  0  0  0
  5 25  1  1  0  0  0
  6  3  1  6  0  0  0
  6 11  1  0  0  0  0
  7  4  1  6  0  0  0
  8  7  1  0  0  0  0
  9  8  2  0  0  0  0
  9 13  1  0  0  0  0
 10 14  1  0  0  0  0
 10  1  1  0  0  0  0
 12  5  1  0  0  0  0
 12 11  1  0  0  0  0
 13  7  1  0  0  0  0
 13  5  1  0  0  0  0
 14  9  1  0  0  0  0
 15 14  1  0  0  0  0
 16 18  1  0  0  0  0
 18 20  1  0  0  0  0
 19 18  2  0  0  0  0
 19 22  1  0  0  0  0
 20 17  2  0  0  0  0
 21 17  1  0  0  0  0
 22 21  2  0  0  0  0
 23 24  2  0  0  0  0
 26 34  1  0  0  0  0
 26 31  1  0  0  0  0
 27 25  1  0  0  0  0
 27 30  1  0  0  0  0
 28 26  1  0  0  0  0
 29 28  1  0  0  0  0
 29 27  1  0  0  0  0
 30 31  1  0  0  0  0
 31 39  1  0  0  0  0
 32 33  1  0  0  0  0
 34 36  1  0  0  0  0
 35 32  2  0  0  0  0
 36 33  2  0  0  0  0
 37 35  1  0  0  0  0
 37 34  2  0  0  0  0
 39 38  3  0  0  0  0
M  END
>  <MODEL>
5

>  <REMARK>
 VINA RESULT:      -6.4      3.406      8.498
  Name = 
  6 active torsions:
  status: ('A' for Active; 'I' for Inactive)
    1  A    between atoms: C_4  and  C_6
    2  A    between atoms: C_5  and  C_35
    3  A    between atoms: C_7  and  C_11
    4  A    between atoms: C_14  and  O_36
    5  A    between atoms: C_19  and  O_36
    6  A    between atoms: C_26  and  N_34
                            x       y       z     vdW  Elec       q    Type
                         _______ _______ _______ _____ _____    ______ ____

>  <TORSDO>
F 6

$$$$
=
 OpenBabel11042415363D

 39 46  0  0  1  0  0  0  0  0999 V2000
  192.0080  170.6740  142.9090 C   0  0  1  0  0  3  0  0  0  0  0  0
  193.8050  176.2280  144.7440 C   0  0  1  0  0  3  0  0  0  0  0  0
  194.1150  174.0630  146.2190 C   0  0  0  0  0  2  0  0  0  0  0  0
  193.9950  173.0000  145.1150 C   0  0  0  0  0  2  0  0  0  0  0  0
  191.6090  175.1040  144.3530 C   0  0  1  0  0  0  0  0  0  0  0  0
  193.4610  175.4580  145.9910 C   0  0  2  0  0  3  0  0  0  0  0  0
  192.5500  172.9140  144.7020 C   0  0  2  0  0  3  0  0  0  0  0  0
  192.1740  171.9460  143.6300 C   0  0  0  0  0  0  0  0  0  0  0  0
  191.7270  172.9290  142.8710 C   0  0  0  0  0  0  0  0  0  0  0  0
  191.4390  171.1080  141.5760 N   0  0  0  0  0  2  0  0  0  0  0  0
  192.0090  175.4760  145.7420 N   0  0  1  0  0  0  0  0  0  0  0  0
  192.2930  176.3720  144.5890 C   0  0  1  0  0  3  0  0  0  0  0  0
  192.3930  173.9410  143.7360 C   0  0  1  0  0  3  0  0  0  0  0  0
  191.3090  172.5320  141.6050 N   0  0  0  0  0  0  0  0  0  0  0  0
  191.5670  173.3390  140.4290 C   0  0  0  0  0  1  0  0  0  0  0  0
  197.0240  168.1780  142.3750 F   0  0  0  0  0  0  0  0  0  0  0  0
  193.9160  169.8530  141.4610 C   0  0  0  0  0  3  0  0  0  0  0  0
  195.8130  168.7770  142.4800 C   0  0  0  0  0  0  0  0  0  0  0  0
  195.2340  168.9280  143.7020 N   0  0  0  0  0  0  0  0  0  0  0  0
  195.1630  169.2400  141.3350 C   0  0  0  0  0  3  0  0  0  0  0  0
  193.3300  169.9930  142.7270 C   0  0  0  0  0  0  0  0  0  0  0  0
  194.0190  169.5220  143.8470 C   0  0  0  0  0  3  0  0  0  0  0  0
  194.4100  177.5410  145.1140 C   0  0  0  0  0  3  0  0  0  0  0  0
  194.9430  177.7050  146.2680 N   0  0  0  0  0  2  0  0  0  0  0  0
  190.2100  175.1420  144.2130 O   0  0  0  0  0  0  0  0  0  0  0  0
  186.9490  175.9570  143.2140 C   0  0  1  0  0  3  0  0  0  0  0  0
  189.9060  176.1380  143.2690 C   0  0  1  0  0  3  0  0  0  0  0  0
  187.8270  174.9270  142.4960 C   0  0  0  0  0  2  0  0  0  0  0  0
  189.1720  175.5250  142.0750 C   0  0  0  0  0  2  0  0  0  0  0  0
  189.0360  177.2220  143.9070 C   0  0  0  0  0  2  0  0  0  0  0  0
  187.7180  176.6840  144.2240 N   0  0  0  0  0  0  0  0  0  0  0  0
  184.9200  178.5370  140.5180 N   0  0  0  0  0  0  0  0  0  0  0  0
  184.4110  178.3520  141.7650 C   0  0  0  0  0  3  0  0  0  0  0  0
  186.2500  176.8810  142.2580 C   0  0  0  0  0  0  0  0  0  0  0  0
  186.0420  177.9300  140.1280 N   0  0  0  0  0  0  0  0  0  0  0  0
  185.0740  177.5120  142.6590 C   0  0  0  0  0  3  0  0  0  0  0  0
  186.7250  177.1010  140.9620 C   0  0  0  0  0  3  0  0  0  0  0  0
  186.8450  176.8170  146.6240 N   0  0  0  0  0  0  0  0  0  0  0  0
  187.2390  176.7570  145.5380 C   0  0  0  0  0  0  0  0  0  0  0  0
  1 21  1  6  0  0  0
  1  8  1  0  0  0  0
  2 23  1  1  0  0  0
  2  6  1  0  0  0  0
  4  3  1  0  0  0  0
  5 25  1  6  0  0  0
  5 12  1  0  0  0  0
  5 11  1  0  0  0  0
  6  3  1  6  0  0  0
  7  4  1  6  0  0  0
  8  7  1  0  0  0  0
  9  8  2  0  0  0  0
  9 13  1  0  0  0  0
 10 14  1  0  0  0  0
 10  1  1  0  0  0  0
 11  6  1  0  0  0  0
 12  2  1  0  0  0  0
 12 11  1  0  0  0  0
 13  5  1  0  0  0  0
 13  7  1  0  0  0  0
 14  9  1  0  0  0  0
 15 14  1  0  0  0  0
 16 18  1  0  0  0  0
 17 21  1  0  0  0  0
 18 19  2  0  0  0  0
 19 22  1  0  0  0  0
 20 17  2  0  0  0  0
 20 18  1  0  0  0  0
 21 22  2  0  0  0  0
 23 24  2  0  0  0  0
 26 31  1  0  0  0  0
 27 30  1  0  0  0  0
 27 25  1  0  0  0  0
 28 26  1  0  0  0  0
 29 28  1  0  0  0  0
 29 27  1  0  0  0  0
 30 31  1  0  0  0  0
 31 39  1  0  0  0  0
 32 33  1  0  0  0  0
 33 36  2  0  0  0  0
 34 36  1  0  0  0  0
 34 26  1  0  0  0  0
 35 32  2  0  0  0  0
 35 37  1  0  0  0  0
 37 34  2  0  0  0  0
 39 38  3  0  0  0  0
M  END
>  <MODEL>
6

>  <REMARK>
 VINA RESULT:      -6.1      3.850      8.216
  Name = 
  6 active torsions:
  status: ('A' for Active; 'I' for Inactive)
    1  A    between atoms: C_4  and  C_6
    2  A    between atoms: C_5  and  C_35
    3  A    between atoms: C_7  and  C_11
    4  A    between atoms: C_14  and  O_36
    5  A    between atoms: C_19  and  O_36
    6  A    between atoms: C_26  and  N_34
                            x       y       z     vdW  Elec       q    Type
                         _______ _______ _______ _____ _____    ______ ____

>  <TORSDO>
F 6

$$$$
=
 OpenBabel11042415363D

 39 46  0  0  1  0  0  0  0  0999 V2000
  187.0500  178.2180  141.2630 C   0  0  1  0  0  3  0  0  0  0  0  0
  188.7120  175.3100  146.3840 C   0  0  1  0  0  3  0  0  0  0  0  0
  187.7050  177.7490  146.3840 C   0  0  0  0  0  2  0  0  0  0  0  0
  187.0320  177.7310  145.0030 C   0  0  0  0  0  2  0  0  0  0  0  0
  189.9080  176.2870  144.4200 C   0  0  1  0  0  0  0  0  0  0  0  0
  188.8960  176.7810  146.6490 C   0  0  2  0  0  3  0  0  0  0  0  0
  188.1080  177.8190  143.9550 C   0  0  2  0  0  3  0  0  0  0  0  0
  187.7040  177.8150  142.5180 C   0  0  0  0  0  0  0  0  0  0  0  0
  188.3980  176.7140  142.3040 C   0  0  0  0  0  0  0  0  0  0  0  0
  187.4460  177.1170  140.3020 N   0  0  0  0  0  2  0  0  0  0  0  0
  190.0680  176.9140  145.7660 N   0  0  1  0  0  0  0  0  0  0  0  0
  190.0170  175.4360  145.6020 C   0  0  1  0  0  3  0  0  0  0  0  0
  188.5350  176.4790  143.7670 C   0  0  1  0  0  3  0  0  0  0  0  0
  188.2680  176.1940  141.0200 N   0  0  0  0  0  0  0  0  0  0  0  0
  188.1910  174.7660  140.7790 C   0  0  0  0  0  1  0  0  0  0  0  0
  181.4770  178.3060  142.0440 F   0  0  0  0  0  0  0  0  0  0  0  0
  184.6970  178.2470  140.3310 C   0  0  0  0  0  3  0  0  0  0  0  0
  182.8160  178.2910  141.8330 C   0  0  0  0  0  0  0  0  0  0  0  0
  183.6700  178.3000  142.8920 N   0  0  0  0  0  0  0  0  0  0  0  0
  183.3150  178.2620  140.5300 C   0  0  0  0  0  3  0  0  0  0  0  0
  185.5630  178.2660  141.4320 C   0  0  0  0  0  0  0  0  0  0  0  0
  185.0200  178.2870  142.7190 C   0  0  0  0  0  3  0  0  0  0  0  0
  188.9400  174.5390  147.6410 C   0  0  0  0  0  3  0  0  0  0  0  0
  188.0450  174.5180  148.5570 N   0  0  0  0  0  2  0  0  0  0  0  0
  191.0690  176.4700  143.6470 O   0  0  0  0  0  0  0  0  0  0  0  0
  194.4930  176.0260  143.0370 C   0  0  1  0  0  3  0  0  0  0  0  0
  191.6820  175.2140  143.4990 C   0  0  1  0  0  3  0  0  0  0  0  0
  193.4380  176.1320  141.9310 C   0  0  0  0  0  2  0  0  0  0  0  0
  192.3220  175.1000  142.1140 C   0  0  0  0  0  2  0  0  0  0  0  0
  192.7480  175.0170  144.5770 C   0  0  0  0  0  2  0  0  0  0  0  0
  193.8620  175.9310  144.3530 N   0  0  0  0  0  0  0  0  0  0  0  0
  197.2150  172.8470  142.3130 N   0  0  0  0  0  0  0  0  0  0  0  0
  196.7230  173.5480  141.2580 C   0  0  0  0  0  3  0  0  0  0  0  0
  195.4700  174.9110  142.7940 C   0  0  0  0  0  0  0  0  0  0  0  0
  196.8650  173.1390  143.5670 N   0  0  0  0  0  0  0  0  0  0  0  0
  195.8340  174.5980  141.4870 C   0  0  0  0  0  3  0  0  0  0  0  0
  196.0020  174.1520  143.8420 C   0  0  0  0  0  3  0  0  0  0  0  0
  194.5650  177.5410  146.2120 N   0  0  0  0  0  0  0  0  0  0  0  0
  194.2470  176.8130  145.3710 C   0  0  0  0  0  0  0  0  0  0  0  0
  1 21  1  1  0  0  0
  1  8  1  0  0  0  0
  2  6  1  0  0  0  0
  2 23  1  1  0  0  0
  4  3  1  0  0  0  0
  5 25  1  6  0  0  0
  5 12  1  0  0  0  0
  5 11  1  0  0  0  0
  6  3  1  6  0  0  0
  7  4  1  1  0  0  0
  8  7  1  0  0  0  0
  9  8  2  0  0  0  0
  9 13  1  0  0  0  0
 10 14  1  0  0  0  0
 10  1  1  0  0  0  0
 11  6  1  0  0  0  0
 12 11  1  0  0  0  0
 12  2  1  0  0  0  0
 13  7  1  0  0  0  0
 13  5  1  0  0  0  0
 14  9  1  0  0  0  0
 15 14  1  0  0  0  0
 17 20  2  0  0  0  0
 17 21  1  0  0  0  0
 18 16  1  0  0  0  0
 18 19  2  0  0  0  0
 20 18  1  0  0  0  0
 21 22  2  0  0  0  0
 22 19  1  0  0  0  0
 23 24  2  0  0  0  0
 26 31  1  0  0  0  0
 27 25  1  0  0  0  0
 27 30  1  0  0  0  0
 28 29  1  0  0  0  0
 28 26  1  0  0  0  0
 29 27  1  0  0  0  0
 31 30  1  0  0  0  0
 31 39  1  0  0  0  0
 32 35  1  0  0  0  0
 33 36  1  0  0  0  0
 33 32  2  0  0  0  0
 34 26  1  0  0  0  0
 34 37  1  0  0  0  0
 35 37  2  0  0  0  0
 36 34  2  0  0  0  0
 39 38  3  0  0  0  0
M  END
>  <MODEL>
7

>  <REMARK>
 VINA RESULT:      -6.1      3.725      5.341
  Name = 
  6 active torsions:
  status: ('A' for Active; 'I' for Inactive)
    1  A    between atoms: C_4  and  C_6
    2  A    between atoms: C_5  and  C_35
    3  A    between atoms: C_7  and  C_11
    4  A    between atoms: C_14  and  O_36
    5  A    between atoms: C_19  and  O_36
    6  A    between atoms: C_26  and  N_34
                            x       y       z     vdW  Elec       q    Type
                         _______ _______ _______ _____ _____    ______ ____

>  <TORSDO>
F 6

$$$$
=
 OpenBabel11042415363D

 39 46  0  0  1  0  0  0  0  0999 V2000
  189.5070  176.7450  142.9290 C   0  0  1  0  0  3  0  0  0  0  0  0
  194.7920  174.5430  145.0870 C   0  0  1  0  0  3  0  0  0  0  0  0
  193.9340  176.9800  145.6160 C   0  0  0  0  0  2  0  0  0  0  0  0
  192.4440  176.7860  145.2950 C   0  0  0  0  0  2  0  0  0  0  0  0
  193.9210  175.2060  142.8410 C   0  0  1  0  0  0  0  0  0  0  0  0
  194.9740  176.0310  144.9510 C   0  0  2  0  0  3  0  0  0  0  0  0
  192.2930  176.7010  143.8000 C   0  0  2  0  0  3  0  0  0  0  0  0
  190.9260  176.5060  143.2320 C   0  0  0  0  0  0  0  0  0  0  0  0
  191.2970  175.3690  142.6750 C   0  0  0  0  0  0  0  0  0  0  0  0
  189.1120  175.5120  142.1450 N   0  0  0  0  0  2  0  0  0  0  0  0
  195.0060  176.0110  143.4780 N   0  0  1  0  0  0  0  0  0  0  0  0
  194.9870  174.5260  143.5730 C   0  0  1  0  0  3  0  0  0  0  0  0
  192.5410  175.3380  143.4930 C   0  0  1  0  0  3  0  0  0  0  0  0
  190.2690  174.6780  142.0420 N   0  0  0  0  0  0  0  0  0  0  0  0
  190.1690  173.2330  142.1050 C   0  0  0  0  0  1  0  0  0  0  0  0
  186.5070  176.9760  147.6850 F   0  0  0  0  0  0  0  0  0  0  0  0
  187.7030  177.8180  144.3440 C   0  0  0  0  0  3  0  0  0  0  0  0
  187.2220  176.9420  146.5350 C   0  0  0  0  0  0  0  0  0  0  0  0
  188.1940  176.0050  146.3660 N   0  0  0  0  0  0  0  0  0  0  0  0
  186.9570  177.8660  145.5230 C   0  0  0  0  0  3  0  0  0  0  0  0
  188.7060  176.8520  144.1910 C   0  0  0  0  0  0  0  0  0  0  0  0
  188.9330  175.9410  145.2250 C   0  0  0  0  0  3  0  0  0  0  0  0
  195.9820  173.9500  145.7630 C   0  0  0  0  0  3  0  0  0  0  0  0
  196.3170  172.7340  145.5340 N   0  0  0  0  0  2  0  0  0  0  0  0
  194.0290  175.2520  141.4390 O   0  0  0  0  0  0  0  0  0  0  0  0
  194.8840  174.3360  138.1650 C   0  0  1  0  0  3  0  0  0  0  0  0
  194.0280  173.9270  140.9710 C   0  0  1  0  0  3  0  0  0  0  0  0
  193.4520  174.6420  138.6170 C   0  0  0  0  0  2  0  0  0  0  0  0
  193.0410  173.7790  139.8120 C   0  0  0  0  0  2  0  0  0  0  0  0
  195.4300  173.5310  140.5080 C   0  0  0  0  0  2  0  0  0  0  0  0
  195.7920  174.2810  139.3100 N   0  0  0  0  0  0  0  0  0  0  0  0
  195.1490  170.8770  135.7160 N   0  0  0  0  0  0  0  0  0  0  0  0
  196.2910  171.5170  136.0790 C   0  0  0  0  0  3  0  0  0  0  0  0
  194.9670  173.1020  137.3140 C   0  0  0  0  0  0  0  0  0  0  0  0
  193.9510  171.3090  136.1160 N   0  0  0  0  0  0  0  0  0  0  0  0
  196.2140  172.6500  136.8880 C   0  0  0  0  0  3  0  0  0  0  0  0
  193.8240  172.4080  136.9050 C   0  0  0  0  0  3  0  0  0  0  0  0
  197.9260  175.6920  139.3030 N   0  0  0  0  0  0  0  0  0  0  0  0
  196.9610  175.0530  139.3060 C   0  0  0  0  0  0  0  0  0  0  0  0
  1  8  1  0  0  0  0
  1 21  1  1  0  0  0
  2 23  1  1  0  0  0
  4  3  1  0  0  0  0
  5 25  1  6  0  0  0
  5 11  1  0  0  0  0
  5 13  1  0  0  0  0
  5 12  1  0  0  0  0
  6  2  1  0  0  0  0
  6  3  1  6  0  0  0
  7  4  1  1  0  0  0
  8  7  1  0  0  0  0
  9  8  2  0  0  0  0
  9 13  1  0  0  0  0
 10  1  1  0  0  0  0
 11 12  1  0  0  0  0
 11  6  1  0  0  0  0
 12  2  1  0  0  0  0
 13  7  1  0  0  0  0
 14 15  1  0  0  0  0
 14 10  1  0  0  0  0
 14  9  1  0  0  0  0
 17 20  1  0  0  0  0
 18 16  1  0  0  0  0
 19 18  1  0  0  0  0
 20 18  2  0  0  0  0
 21 17  2  0  0  0  0
 21 22  1  0  0  0  0
 22 19  2  0  0  0  0
 24 23  2  0  0  0  0
 26 28  1  0  0  0  0
 26 31  1  0  0  0  0
 27 25  1  0  0  0  0
 28 29  1  0  0  0  0
 29 27  1  0  0  0  0
 30 27  1  0  0  0  0
 31 30  1  0  0  0  0
 32 33  2  0  0  0  0
 32 35  1  0  0  0  0
 33 36  1  0  0  0  0
 34 26  1  0  0  0  0
 35 37  2  0  0  0  0
 36 34  2  0  0  0  0
 37 34  1  0  0  0  0
 38 39  3  0  0  0  0
 39 31  1  0  0  0  0
M  END
>  <MODEL>
8

>  <REMARK>
 VINA RESULT:      -6.0      2.281      2.999
  Name = 
  6 active torsions:
  status: ('A' for Active; 'I' for Inactive)
    1  A    between atoms: C_4  and  C_6
    2  A    between atoms: C_5  and  C_35
    3  A    between atoms: C_7  and  C_11
    4  A    between atoms: C_14  and  O_36
    5  A    between atoms: C_19  and  O_36
    6  A    between atoms: C_26  and  N_34
                            x       y       z     vdW  Elec       q    Type
                         _______ _______ _______ _____ _____    ______ ____

>  <TORSDO>
F 6

$$$$
=
 OpenBabel11042415363D

 39 46  0  0  1  0  0  0  0  0999 V2000
  190.8330  170.8240  142.4190 C   0  0  1  0  0  3  0  0  0  0  0  0
  194.7110  175.4170  143.5600 C   0  0  1  0  0  3  0  0  0  0  0  0
  195.2900  172.8940  144.0680 C   0  0  0  0  0  2  0  0  0  0  0  0
  194.2590  172.2200  143.1490 C   0  0  0  0  0  2  0  0  0  0  0  0
  192.5350  174.6420  144.5120 C   0  0  1  0  0  0  0  0  0  0  0  0
  195.0140  174.3420  144.5700 C   0  0  2  0  0  3  0  0  0  0  0  0
  192.8990  172.3790  143.7740 C   0  0  2  0  0  3  0  0  0  0  0  0
  191.7180  171.8070  143.0630 C   0  0  0  0  0  0  0  0  0  0  0  0
  191.1710  173.0030  142.9660 C   0  0  0  0  0  0  0  0  0  0  0  0
  189.7040  171.6780  141.8850 N   0  0  0  0  0  2  0  0  0  0  0  0
  193.7750  174.5520  145.3390 N   0  0  1  0  0  0  0  0  0  0  0  0
  193.5160  175.7230  144.4600 C   0  0  1  0  0  3  0  0  0  0  0  0
  192.4550  173.6550  143.3430 C   0  0  1  0  0  3  0  0  0  0  0  0
  189.9860  173.0350  142.2380 N   0  0  0  0  0  0  0  0  0  0  0  0
  189.6700  174.1310  141.3430 C   0  0  0  0  0  1  0  0  0  0  0  0
  193.3730  168.2280  138.1190 F   0  0  0  0  0  0  0  0  0  0  0  0
  192.3010  168.9640  141.5270 C   0  0  0  0  0  3  0  0  0  0  0  0
  192.7750  168.8410  139.1700 C   0  0  0  0  0  0  0  0  0  0  0  0
  192.0290  169.9600  138.9680 N   0  0  0  0  0  0  0  0  0  0  0  0
  192.9230  168.3200  140.4570 C   0  0  0  0  0  3  0  0  0  0  0  0
  191.5430  170.1210  141.3030 C   0  0  0  0  0  0  0  0  0  0  0  0
  191.4150  170.6040  139.9980 C   0  0  0  0  0  3  0  0  0  0  0  0
  195.7250  176.5070  143.6650 C   0  0  0  0  0  3  0  0  0  0  0  0
  196.6510  176.6140  142.7870 N   0  0  0  0  0  2  0  0  0  0  0  0
  191.4070  174.8340  145.3310 O   0  0  0  0  0  0  0  0  0  0  0  0
  188.6770  176.3880  146.8870 C   0  0  1  0  0  3  0  0  0  0  0  0
  190.5880  175.7890  144.7040 C   0  0  1  0  0  3  0  0  0  0  0  0
  188.5660  175.1050  146.0570 C   0  0  0  0  0  2  0  0  0  0  0  0
  189.1430  175.2890  144.6510 C   0  0  0  0  0  2  0  0  0  0  0  0
  190.6470  177.1150  145.4640 C   0  0  0  0  0  2  0  0  0  0  0  0
  190.0120  176.9720  146.7690 N   0  0  0  0  0  0  0  0  0  0  0  0
  185.5770  179.1560  146.0110 N   0  0  0  0  0  0  0  0  0  0  0  0
  186.0080  179.0320  147.2940 C   0  0  0  0  0  3  0  0  0  0  0  0
  187.5940  177.3770  146.5630 C   0  0  0  0  0  0  0  0  0  0  0  0
  186.1100  178.4320  145.0240 N   0  0  0  0  0  0  0  0  0  0  0  0
  187.0290  178.1310  147.5900 C   0  0  0  0  0  3  0  0  0  0  0  0
  187.1070  177.5400  145.2620 C   0  0  0  0  0  3  0  0  0  0  0  0
  191.3360  177.5390  148.8840 N   0  0  0  0  0  0  0  0  0  0  0  0
  190.7370  177.2830  147.9270 C   0  0  0  0  0  0  0  0  0  0  0  0
  1 21  1  6  0  0  0
  1  8  1  0  0  0  0
  2 23  1  1  0  0  0
  2 12  1  0  0  0  0
  2  6  1  0  0  0  0
  4  3  1  0  0  0  0
  5 25  1  1  0  0  0
  5 11  1  0  0  0  0
  6  3  1  6  0  0  0
  6 11  1  0  0  0  0
  7  4  1  6  0  0  0
  8  7  1  0  0  0  0
  9  8  2  0  0  0  0
  9 13  1  0  0  0  0
 10 14  1  0  0  0  0
 10  1  1  0  0  0  0
 12  5  1  0  0  0  0
 12 11  1  0  0  0  0
 13  7  1  0  0  0  0
 13  5  1  0  0  0  0
 14  9  1  0  0  0  0
 15 14  1  0  0  0  0
 16 18  1  0  0  0  0
 18 20  1  0  0  0  0
 19 18  2  0  0  0  0
 19 22  1  0  0  0  0
 20 17  2  0  0  0  0
 21 17  1  0  0  0  0
 22 21  2  0  0  0  0
 24 23  2  0  0  0  0
 27 25  1  0  0  0  0
 27 30  1  0  0  0  0
 28 26  1  0  0  0  0
 29 27  1  0  0  0  0
 29 28  1  0  0  0  0
 30 31  1  0  0  0  0
 31 26  1  0  0  0  0
 31 39  1  0  0  0  0
 32 33  1  0  0  0  0
 33 36  2  0  0  0  0
 34 26  1  0  0  0  0
 34 36  1  0  0  0  0
 35 37  1  0  0  0  0
 35 32  2  0  0  0  0
 37 34  2  0  0  0  0
 39 38  3  0  0  0  0
M  END
>  <MODEL>
9

>  <REMARK>
 VINA RESULT:      -5.9      3.764      8.801
  Name = 
  6 active torsions:
  status: ('A' for Active; 'I' for Inactive)
    1  A    between atoms: C_4  and  C_6
    2  A    between atoms: C_5  and  C_35
    3  A    between atoms: C_7  and  C_11
    4  A    between atoms: C_14  and  O_36
    5  A    between atoms: C_19  and  O_36
    6  A    between atoms: C_26  and  N_34
                            x       y       z     vdW  Elec       q    Type
                         _______ _______ _______ _____ _____    ______ ____

>  <TORSDO>
F 6

$$$$
