=
 OpenBabel11042416363D

 32 34  0  0  1  0  0  0  0  0999 V2000
  189.5730  175.9900  142.7340 C   0  0  1  0  0  3  0  0  0  0  0  0
  189.9420  178.1740  143.6370 O   0  0  0  0  0  0  0  0  0  0  0  0
  189.5790  176.9840  143.8490 C   0  0  0  0  0  0  0  0  0  0  0  0
  189.1800  176.5760  145.1210 O   0  0  0  0  0  0  0  0  0  0  0  0
  189.9990  176.7800  146.2670 C   0  0  0  0  0  2  0  0  0  0  0  0
  189.8440  175.6310  147.2510 C   0  0  1  0  0  3  0  0  0  0  0  0
  189.4070  174.3670  146.5360 C   0  0  0  0  0  1  0  0  0  0  0  0
  191.0950  175.3950  147.9510 N   0  0  0  0  0  1  0  0  0  0  0  0
  190.5390  174.9340  143.0040 N   0  0  0  0  0  2  0  0  0  0  0  0
  191.8700  175.4870  142.7820 C   0  0  1  0  0  3  0  0  0  0  0  0
  192.6770  174.0960  144.7420 C   0  0  0  0  0  1  0  0  0  0  0  0
  194.6480  175.7590  142.5640 N   0  0  0  0  0  0  0  0  0  0  0  0
  193.8680  175.4850  141.3530 C   0  0  0  0  0  2  0  0  0  0  0  0
  192.7240  175.4570  144.0590 C   0  0  1  0  0  3  0  0  0  0  0  0
  194.1600  175.8170  143.7740 C   0  0  0  0  0  0  0  0  0  0  0  0
  192.5760  174.7410  141.6650 C   0  0  0  0  0  2  0  0  0  0  0  0
  194.9750  176.1520  144.8650 O   0  0  0  0  0  0  0  0  0  0  0  0
  195.2120  178.3350  145.5320 O   0  0  0  0  0  0  0  0  0  0  0  0
  194.0130  176.9880  146.9820 N   0  0  0  0  0  1  0  0  0  0  0  0
  194.7450  177.1930  145.7770 C   0  0  0  0  0  0  0  0  0  0  0  0
  188.1870  175.3940  142.5410 C   0  0  0  0  0  2  0  0  0  0  0  0
  187.1910  176.4890  142.1980 C   0  0  0  0  0  2  0  0  0  0  0  0
  185.9590  176.2900  142.9450 N   0  0  0  0  0  2  0  0  0  0  0  0
  183.9370  179.0890  144.2100 N   0  0  0  0  0  0  0  0  0  0  0  0
  184.4430  178.1930  143.2210 C   0  0  0  0  0  0  0  0  0  0  0  0
  185.3540  177.3390  143.7070 C   0  0  0  0  0  0  0  0  0  0  0  0
  185.7600  177.7550  145.0870 C   0  0  1  0  0  3  0  0  0  0  0  0
  184.6600  178.7340  145.2120 C   0  0  0  0  0  0  0  0  0  0  0  0
  183.8920  178.1020  141.9120 N   0  0  0  0  0  1  0  0  0  0  0  0
  185.2030  177.0770  146.2260 C   0  0  1  0  0  3  0  0  0  0  0  0
  186.2590  176.9210  147.3040 C   0  0  0  0  0  1  0  0  0  0  0  0
  184.3410  178.1980  146.5450 N   0  0  0  0  0  2  0  0  0  0  0  0
  1 21  1  1  0  0  0
  1  9  1  0  0  0  0
  1  3  1  0  0  0  0
  2  3  2  0  0  0  0
  3  4  1  0  0  0  0
  4  5  1  0  0  0  0
  5  6  1  0  0  0  0
  6  7  1  6  0  0  0
  6  8  1  0  0  0  0
 10  9  1  1  0  0  0
 10 14  1  0  0  0  0
 12 15  2  0  0  0  0
 13 16  1  0  0  0  0
 13 12  1  0  0  0  0
 14 11  1  6  0  0  0
 15 14  1  0  0  0  0
 15 17  1  0  0  0  0
 16 10  1  0  0  0  0
 17 20  1  0  0  0  0
 18 20  2  0  0  0  0
 20 19  1  0  0  0  0
 22 21  1  0  0  0  0
 22 23  1  0  0  0  0
 23 26  1  0  0  0  0
 24 28  2  0  0  0  0
 25 26  2  0  0  0  0
 25 24  1  0  0  0  0
 27 26  1  6  0  0  0
 27 28  1  0  0  0  0
 27 30  1  0  0  0  0
 28 32  1  0  0  0  0
 29 25  1  0  0  0  0
 30 32  1  0  0  0  0
 30 31  1  1  0  0  0
M  END
>  <MODEL>
1

>  <REMARK>
 VINA RESULT:      -6.3      0.000      0.000
  Name = 
  12 active torsions:
  status: ('A' for Active; 'I' for Inactive)
    1  A    between atoms: N_1  and  C_9
    2  A    between atoms: N_1  and  C_13
    3  A    between atoms: O_3  and  C_27
    4  A    between atoms: O_3  and  C_30
    5  A    between atoms: C_5  and  C_32
    6  A    between atoms: C_7  and  C_13
    7  A    between atoms: C_7  and  C_24
    8  A    between atoms: O_8  and  C_20
    9  A    between atoms: O_8  and  C_32
   10  A    between atoms: C_10  and  N_15
   11  A    between atoms: C_13  and  C_20
   12  A    between atoms: N_15  and  C_24
                            x       y       z     vdW  Elec       q    Type
                         _______ _______ _______ _____ _____    ______ ____

>  <TORSDO>
F 12

$$$$
=
 OpenBabel11042416363D

 32 34  0  0  1  0  0  0  0  0999 V2000
  188.7400  174.8340  142.5850 C   0  0  1  0  0  3  0  0  0  0  0  0
  188.2030  172.5200  142.3000 O   0  0  0  0  0  0  0  0  0  0  0  0
  189.0480  173.4440  142.1330 C   0  0  0  0  0  0  0  0  0  0  0  0
  190.2770  173.1850  141.5290 O   0  0  0  0  0  0  0  0  0  0  0  0
  190.4860  173.3830  140.1350 C   0  0  0  0  0  2  0  0  0  0  0  0
  190.4570  172.0570  139.3920 C   0  0  1  0  0  3  0  0  0  0  0  0
  190.9260  170.9280  140.2910 C   0  0  0  0  0  1  0  0  0  0  0  0
  189.1160  171.7790  138.9090 N   0  0  0  0  0  1  0  0  0  0  0  0
  189.9740  175.5390  142.9020 N   0  0  0  0  0  2  0  0  0  0  0  0
  190.2700  175.2970  144.3100 C   0  0  1  0  0  3  0  0  0  0  0  0
  191.1830  177.6580  144.4320 C   0  0  0  0  0  1  0  0  0  0  0  0
  190.5890  175.6390  147.0700 N   0  0  0  0  0  0  0  0  0  0  0  0
  189.3500  175.0340  146.5720 C   0  0  0  0  0  2  0  0  0  0  0  0
  191.4010  176.2020  144.8230 C   0  0  1  0  0  3  0  0  0  0  0  0
  191.5490  176.1100  146.3200 C   0  0  0  0  0  0  0  0  0  0  0  0
  189.0240  175.4880  145.1550 C   0  0  0  0  0  2  0  0  0  0  0  0
  192.7300  176.6100  146.8890 O   0  0  0  0  0  0  0  0  0  0  0  0
  194.6450  177.5260  146.0190 O   0  0  0  0  0  0  0  0  0  0  0  0
  194.6340  175.2160  146.1570 N   0  0  0  0  0  1  0  0  0  0  0  0
  194.0190  176.4870  146.3520 C   0  0  0  0  0  0  0  0  0  0  0  0
  187.9630  175.5940  141.5200 C   0  0  0  0  0  2  0  0  0  0  0  0
  187.3180  176.8280  142.1260 C   0  0  0  0  0  2  0  0  0  0  0  0
  186.1920  176.4390  142.9610 N   0  0  0  0  0  2  0  0  0  0  0  0
  183.8370  178.9670  144.2200 N   0  0  0  0  0  0  0  0  0  0  0  0
  184.4770  178.1660  143.2270 C   0  0  0  0  0  0  0  0  0  0  0  0
  185.4490  177.3910  143.7270 C   0  0  0  0  0  0  0  0  0  0  0  0
  185.7480  177.7940  145.1390 C   0  0  1  0  0  3  0  0  0  0  0  0
  184.5480  178.6500  145.2430 C   0  0  0  0  0  0  0  0  0  0  0  0
  183.9970  178.0690  141.8900 N   0  0  0  0  0  1  0  0  0  0  0  0
  185.2140  177.0200  146.2260 C   0  0  1  0  0  3  0  0  0  0  0  0
  186.2310  176.9310  147.3480 C   0  0  0  0  0  1  0  0  0  0  0  0
  184.2270  178.0340  146.5400 N   0  0  0  0  0  2  0  0  0  0  0  0
  1 21  1  6  0  0  0
  1  9  1  0  0  0  0
  3  2  2  0  0  0  0
  3  1  1  0  0  0  0
  4  3  1  0  0  0  0
  5  4  1  0  0  0  0
  6  5  1  0  0  0  0
  6  7  1  1  0  0  0
  8  6  1  0  0  0  0
 10  9  1  6  0  0  0
 10 14  1  0  0  0  0
 10 16  1  0  0  0  0
 13 12  1  0  0  0  0
 14 11  1  1  0  0  0
 14 15  1  0  0  0  0
 15 17  1  0  0  0  0
 15 12  2  0  0  0  0
 16 13  1  0  0  0  0
 18 20  2  0  0  0  0
 19 20  1  0  0  0  0
 20 17  1  0  0  0  0
 21 22  1  0  0  0  0
 22 23  1  0  0  0  0
 23 26  1  0  0  0  0
 24 28  2  0  0  0  0
 25 26  2  0  0  0  0
 25 24  1  0  0  0  0
 27 26  1  6  0  0  0
 27 28  1  0  0  0  0
 27 30  1  0  0  0  0
 28 32  1  0  0  0  0
 29 25  1  0  0  0  0
 30 32  1  0  0  0  0
 30 31  1  1  0  0  0
M  END
>  <MODEL>
2

>  <REMARK>
 VINA RESULT:      -6.2      2.273      4.034
  Name = 
  12 active torsions:
  status: ('A' for Active; 'I' for Inactive)
    1  A    between atoms: N_1  and  C_9
    2  A    between atoms: N_1  and  C_13
    3  A    between atoms: O_3  and  C_27
    4  A    between atoms: O_3  and  C_30
    5  A    between atoms: C_5  and  C_32
    6  A    between atoms: C_7  and  C_13
    7  A    between atoms: C_7  and  C_24
    8  A    between atoms: O_8  and  C_20
    9  A    between atoms: O_8  and  C_32
   10  A    between atoms: C_10  and  N_15
   11  A    between atoms: C_13  and  C_20
   12  A    between atoms: N_15  and  C_24
                            x       y       z     vdW  Elec       q    Type
                         _______ _______ _______ _____ _____    ______ ____

>  <TORSDO>
F 12

$$$$
=
 OpenBabel11042416363D

 32 34  0  0  1  0  0  0  0  0999 V2000
  189.0230  174.8620  142.3950 C   0  0  1  0  0  3  0  0  0  0  0  0
  189.8270  173.8840  140.3660 O   0  0  0  0  0  0  0  0  0  0  0  0
  189.6000  173.7380  141.5990 C   0  0  0  0  0  0  0  0  0  0  0  0
  189.8810  172.5310  142.2370 O   0  0  0  0  0  0  0  0  0  0  0  0
  191.2150  172.1220  142.5180 C   0  0  0  0  0  2  0  0  0  0  0  0
  191.3590  171.7200  143.9780 C   0  0  1  0  0  3  0  0  0  0  0  0
  192.4730  172.5050  144.6430 C   0  0  0  0  0  1  0  0  0  0  0  0
  190.1100  171.9390  144.6860 N   0  0  0  0  0  1  0  0  0  0  0  0
  190.0810  175.7760  142.8040 N   0  0  0  0  0  2  0  0  0  0  0  0
  190.4430  175.4450  144.1780 C   0  0  1  0  0  3  0  0  0  0  0  0
  191.2210  177.8410  144.4560 C   0  0  0  0  0  1  0  0  0  0  0  0
  190.8430  175.5930  146.9440 N   0  0  0  0  0  0  0  0  0  0  0  0
  189.6240  174.9530  146.4410 C   0  0  0  0  0  2  0  0  0  0  0  0
  191.5370  176.3750  144.7240 C   0  0  1  0  0  3  0  0  0  0  0  0
  191.7460  176.1770  146.2040 C   0  0  0  0  0  0  0  0  0  0  0  0
  189.2200  175.4940  145.0760 C   0  0  0  0  0  2  0  0  0  0  0  0
  192.9150  176.7040  146.7710 O   0  0  0  0  0  0  0  0  0  0  0  0
  194.7620  177.6290  145.7730 O   0  0  0  0  0  0  0  0  0  0  0  0
  194.9060  175.3580  146.1950 N   0  0  0  0  0  1  0  0  0  0  0  0
  194.2080  176.6000  146.2390 C   0  0  0  0  0  0  0  0  0  0  0  0
  187.9660  175.6100  141.5970 C   0  0  0  0  0  2  0  0  0  0  0  0
  186.7700  175.9220  142.4790 C   0  0  0  0  0  2  0  0  0  0  0  0
  186.7880  177.3250  142.8610 N   0  0  0  0  0  2  0  0  0  0  0  0
  183.7810  178.8780  144.2990 N   0  0  0  0  0  0  0  0  0  0  0  0
  184.6540  178.4600  143.2500 C   0  0  0  0  0  0  0  0  0  0  0  0
  185.7830  177.8980  143.7020 C   0  0  0  0  0  0  0  0  0  0  0  0
  185.9060  178.1150  145.1790 C   0  0  1  0  0  3  0  0  0  0  0  0
  184.5130  178.5900  145.3150 C   0  0  0  0  0  0  0  0  0  0  0  0
  184.2690  178.4720  141.8790 N   0  0  0  0  0  1  0  0  0  0  0  0
  185.5660  177.0500  146.0840 C   0  0  1  0  0  3  0  0  0  0  0  0
  186.5260  177.0420  147.2590 C   0  0  0  0  0  1  0  0  0  0  0  0
  184.3270  177.6950  146.4690 N   0  0  0  0  0  2  0  0  0  0  0  0
  1 21  1  6  0  0  0
  1  9  1  0  0  0  0
  2  3  2  0  0  0  0
  3  4  1  0  0  0  0
  3  1  1  0  0  0  0
  4  5  1  0  0  0  0
  5  6  1  0  0  0  0
  6  7  1  1  0  0  0
  6  8  1  0  0  0  0
 10  9  1  6  0  0  0
 10 14  1  0  0  0  0
 10 16  1  0  0  0  0
 13 12  1  0  0  0  0
 14 11  1  1  0  0  0
 14 15  1  0  0  0  0
 15 17  1  0  0  0  0
 15 12  2  0  0  0  0
 16 13  1  0  0  0  0
 18 20  2  0  0  0  0
 19 20  1  0  0  0  0
 20 17  1  0  0  0  0
 21 22  1  0  0  0  0
 22 23  1  0  0  0  0
 23 26  1  0  0  0  0
 24 28  2  0  0  0  0
 25 26  2  0  0  0  0
 25 24  1  0  0  0  0
 27 26  1  6  0  0  0
 27 28  1  0  0  0  0
 27 30  1  0  0  0  0
 28 32  1  0  0  0  0
 29 25  1  0  0  0  0
 30 32  1  0  0  0  0
 30 31  1  1  0  0  0
M  END
>  <MODEL>
3

>  <REMARK>
 VINA RESULT:      -6.2      2.021      3.226
  Name = 
  12 active torsions:
  status: ('A' for Active; 'I' for Inactive)
    1  A    between atoms: N_1  and  C_9
    2  A    between atoms: N_1  and  C_13
    3  A    between atoms: O_3  and  C_27
    4  A    between atoms: O_3  and  C_30
    5  A    between atoms: C_5  and  C_32
    6  A    between atoms: C_7  and  C_13
    7  A    between atoms: C_7  and  C_24
    8  A    between atoms: O_8  and  C_20
    9  A    between atoms: O_8  and  C_32
   10  A    between atoms: C_10  and  N_15
   11  A    between atoms: C_13  and  C_20
   12  A    between atoms: N_15  and  C_24
                            x       y       z     vdW  Elec       q    Type
                         _______ _______ _______ _____ _____    ______ ____

>  <TORSDO>
F 12

$$$$
=
 OpenBabel11042416363D

 32 34  0  0  1  0  0  0  0  0999 V2000
  187.4410  177.4170  143.5410 C   0  0  1  0  0  3  0  0  0  0  0  0
  186.1650  179.0280  142.3160 O   0  0  0  0  0  0  0  0  0  0  0  0
  186.5360  178.6010  143.4450 C   0  0  0  0  0  0  0  0  0  0  0  0
  186.1110  179.2250  144.6170 O   0  0  0  0  0  0  0  0  0  0  0  0
  184.7610  179.1490  145.0620 C   0  0  0  0  0  2  0  0  0  0  0  0
  184.6910  178.6140  146.4840 C   0  0  1  0  0  3  0  0  0  0  0  0
  184.8230  177.1030  146.4960 C   0  0  0  0  0  1  0  0  0  0  0  0
  185.7390  179.2070  147.2970 N   0  0  0  0  0  1  0  0  0  0  0  0
  187.9070  177.2570  144.9110 N   0  0  0  0  0  2  0  0  0  0  0  0
  189.3390  177.5320  144.9260 C   0  0  1  0  0  3  0  0  0  0  0  0
  189.7200  175.0640  145.3550 C   0  0  0  0  0  1  0  0  0  0  0  0
  192.1050  177.3150  144.5580 N   0  0  0  0  0  0  0  0  0  0  0  0
  191.3230  178.0870  143.5880 C   0  0  0  0  0  2  0  0  0  0  0  0
  190.1180  176.4840  145.7350 C   0  0  1  0  0  3  0  0  0  0  0  0
  191.6070  176.6440  145.5610 C   0  0  0  0  0  0  0  0  0  0  0  0
  189.8800  177.6060  143.5090 C   0  0  0  0  0  2  0  0  0  0  0  0
  192.4420  175.9880  146.4780 O   0  0  0  0  0  0  0  0  0  0  0  0
  193.2900  173.9250  145.9410 O   0  0  0  0  0  0  0  0  0  0  0  0
  194.8550  175.6240  146.0880 N   0  0  0  0  0  1  0  0  0  0  0  0
  193.5150  175.1440  146.1570 C   0  0  0  0  0  0  0  0  0  0  0  0
  186.7340  176.1520  143.0780 C   0  0  0  0  0  2  0  0  0  0  0  0
  187.5350  175.4820  141.9750 C   0  0  0  0  0  2  0  0  0  0  0  0
  187.7020  174.0680  142.2730 N   0  0  0  0  0  2  0  0  0  0  0  0
  190.1630  171.5530  141.2020 N   0  0  0  0  0  0  0  0  0  0  0  0
  189.3670  172.2770  142.1410 C   0  0  0  0  0  0  0  0  0  0  0  0
  188.6400  173.2480  141.5710 C   0  0  0  0  0  0  0  0  0  0  0  0
  189.0820  173.4520  140.1540 C   0  0  1  0  0  3  0  0  0  0  0  0
  189.8940  172.2170  140.1350 C   0  0  0  0  0  0  0  0  0  0  0  0
  189.2250  171.8770  143.5000 N   0  0  0  0  0  1  0  0  0  0  0  0
  188.3100  172.8870  139.0810 C   0  0  1  0  0  3  0  0  0  0  0  0
  188.2820  173.8420  137.9030 C   0  0  0  0  0  1  0  0  0  0  0  0
  189.2920  171.8470  138.8440 N   0  0  0  0  0  2  0  0  0  0  0  0
  1 21  1  1  0  0  0
  1  9  1  0  0  0  0
  2  3  2  0  0  0  0
  3  1  1  0  0  0  0
  3  4  1  0  0  0  0
  4  5  1  0  0  0  0
  5  6  1  0  0  0  0
  6  7  1  6  0  0  0
  6  8  1  0  0  0  0
 10  9  1  6  0  0  0
 10 14  1  0  0  0  0
 12 15  2  0  0  0  0
 13 12  1  0  0  0  0
 14 11  1  6  0  0  0
 15 14  1  0  0  0  0
 15 17  1  0  0  0  0
 16 13  1  0  0  0  0
 16 10  1  0  0  0  0
 18 20  2  0  0  0  0
 19 20  1  0  0  0  0
 20 17  1  0  0  0  0
 22 23  1  0  0  0  0
 22 21  1  0  0  0  0
 24 25  1  0  0  0  0
 25 29  1  0  0  0  0
 26 25  2  0  0  0  0
 26 23  1  0  0  0  0
 27 28  1  1  0  0  0
 27 26  1  0  0  0  0
 28 24  2  0  0  0  0
 30 31  1  6  0  0  0
 30 27  1  0  0  0  0
 32 30  1  0  0  0  0
 32 28  1  0  0  0  0
M  END
>  <MODEL>
4

>  <REMARK>
 VINA RESULT:      -6.1      2.797      5.816
  Name = 
  12 active torsions:
  status: ('A' for Active; 'I' for Inactive)
    1  A    between atoms: N_1  and  C_9
    2  A    between atoms: N_1  and  C_13
    3  A    between atoms: O_3  and  C_27
    4  A    between atoms: O_3  and  C_30
    5  A    between atoms: C_5  and  C_32
    6  A    between atoms: C_7  and  C_13
    7  A    between atoms: C_7  and  C_24
    8  A    between atoms: O_8  and  C_20
    9  A    between atoms: O_8  and  C_32
   10  A    between atoms: C_10  and  N_15
   11  A    between atoms: C_13  and  C_20
   12  A    between atoms: N_15  and  C_24
                            x       y       z     vdW  Elec       q    Type
                         _______ _______ _______ _____ _____    ______ ____

>  <TORSDO>
F 12

$$$$
=
 OpenBabel11042416363D

 32 34  0  0  1  0  0  0  0  0999 V2000
  190.6000  176.5710  144.7400 C   0  0  1  0  0  3  0  0  0  0  0  0
  191.4440  178.0850  143.0920 O   0  0  0  0  0  0  0  0  0  0  0  0
  190.9540  176.9480  143.3390 C   0  0  0  0  0  0  0  0  0  0  0  0
  190.7350  176.0280  142.3150 O   0  0  0  0  0  0  0  0  0  0  0  0
  190.1250  174.7650  142.5570 C   0  0  0  0  0  2  0  0  0  0  0  0
  189.0770  174.4610  141.4980 C   0  0  1  0  0  3  0  0  0  0  0  0
  189.3620  173.1310  140.8270 C   0  0  0  0  0  1  0  0  0  0  0  0
  187.7510  174.4400  142.0920 N   0  0  0  0  0  1  0  0  0  0  0  0
  191.7680  176.7030  145.6010 N   0  0  0  0  0  2  0  0  0  0  0  0
  192.7240  175.6740  145.2070 C   0  0  1  0  0  3  0  0  0  0  0  0
  194.5350  177.0550  146.3200 C   0  0  0  0  0  1  0  0  0  0  0  0
  194.8780  173.8860  145.2120 N   0  0  0  0  0  0  0  0  0  0  0  0
  193.5550  173.3980  145.6140 C   0  0  0  0  0  2  0  0  0  0  0  0
  194.1530  176.2280  145.0990 C   0  0  1  0  0  3  0  0  0  0  0  0
  195.1630  175.1250  144.9140 C   0  0  0  0  0  0  0  0  0  0  0  0
  192.6870  174.5120  146.1840 C   0  0  0  0  0  2  0  0  0  0  0  0
  196.4460  175.4850  144.4750 O   0  0  0  0  0  0  0  0  0  0  0  0
  197.3660  177.1740  143.2240 O   0  0  0  0  0  0  0  0  0  0  0  0
  196.3930  175.4650  142.0050 N   0  0  0  0  0  1  0  0  0  0  0  0
  196.7590  176.0720  143.2410 C   0  0  0  0  0  0  0  0  0  0  0  0
  189.4630  177.4330  145.2670 C   0  0  0  0  0  2  0  0  0  0  0  0
  188.1260  176.8010  144.9220 C   0  0  0  0  0  2  0  0  0  0  0  0
  187.5050  177.5250  143.8230 N   0  0  0  0  0  2  0  0  0  0  0  0
  184.0730  178.7740  143.3940 N   0  0  0  0  0  0  0  0  0  0  0  0
  185.2960  178.1630  142.9830 C   0  0  0  0  0  0  0  0  0  0  0  0
  186.2230  178.1460  143.9500 C   0  0  0  0  0  0  0  0  0  0  0  0
  185.7860  179.0100  145.0930 C   0  0  1  0  0  3  0  0  0  0  0  0
  184.4060  179.1450  144.5790 C   0  0  0  0  0  0  0  0  0  0  0  0
  185.4350  177.4810  141.7410 N   0  0  0  0  0  1  0  0  0  0  0  0
  185.2230  178.4010  146.2670 C   0  0  1  0  0  3  0  0  0  0  0  0
  185.6880  179.1400  147.5080 C   0  0  0  0  0  1  0  0  0  0  0  0
  183.8830  178.8300  145.9180 N   0  0  0  0  0  2  0  0  0  0  0  0
  1 21  1  1  0  0  0
  1  9  1  0  0  0  0
  2  3  2  0  0  0  0
  3  1  1  0  0  0  0
  4  5  1  0  0  0  0
  4  3  1  0  0  0  0
  6  7  1  1  0  0  0
  6  8  1  0  0  0  0
  6  5  1  0  0  0  0
 10  9  1  1  0  0  0
 10 16  1  0  0  0  0
 12 13  1  0  0  0  0
 13 16  1  0  0  0  0
 14 10  1  0  0  0  0
 14 11  1  1  0  0  0
 15 14  1  0  0  0  0
 15 12  2  0  0  0  0
 17 15  1  0  0  0  0
 18 20  2  0  0  0  0
 19 20  1  0  0  0  0
 20 17  1  0  0  0  0
 22 21  1  0  0  0  0
 23 26  1  0  0  0  0
 23 22  1  0  0  0  0
 24 28  2  0  0  0  0
 25 24  1  0  0  0  0
 25 26  2  0  0  0  0
 27 26  1  6  0  0  0
 27 30  1  0  0  0  0
 28 27  1  0  0  0  0
 28 32  1  0  0  0  0
 29 25  1  0  0  0  0
 30 31  1  1  0  0  0
 32 30  1  0  0  0  0
M  END
>  <MODEL>
5

>  <REMARK>
 VINA RESULT:      -6.1      2.027      3.298
  Name = 
  12 active torsions:
  status: ('A' for Active; 'I' for Inactive)
    1  A    between atoms: N_1  and  C_9
    2  A    between atoms: N_1  and  C_13
    3  A    between atoms: O_3  and  C_27
    4  A    between atoms: O_3  and  C_30
    5  A    between atoms: C_5  and  C_32
    6  A    between atoms: C_7  and  C_13
    7  A    between atoms: C_7  and  C_24
    8  A    between atoms: O_8  and  C_20
    9  A    between atoms: O_8  and  C_32
   10  A    between atoms: C_10  and  N_15
   11  A    between atoms: C_13  and  C_20
   12  A    between atoms: N_15  and  C_24
                            x       y       z     vdW  Elec       q    Type
                         _______ _______ _______ _____ _____    ______ ____

>  <TORSDO>
F 12

$$$$
=
 OpenBabel11042416363D

 32 34  0  0  1  0  0  0  0  0999 V2000
  188.6590  177.1340  144.5450 C   0  0  1  0  0  3  0  0  0  0  0  0
  187.5960  176.4350  146.5710 O   0  0  0  0  0  0  0  0  0  0  0  0
  188.5680  176.2960  145.7780 C   0  0  0  0  0  0  0  0  0  0  0  0
  189.5710  175.3630  146.0370 O   0  0  0  0  0  0  0  0  0  0  0  0
  189.8670  174.9240  147.3580 C   0  0  0  0  0  2  0  0  0  0  0  0
  191.2380  175.4150  147.7950 C   0  0  1  0  0  3  0  0  0  0  0  0
  192.2820  175.1000  146.7410 C   0  0  0  0  0  1  0  0  0  0  0  0
  191.2050  176.8460  148.0430 N   0  0  0  0  0  1  0  0  0  0  0  0
  187.5410  178.0670  144.4950 N   0  0  0  0  0  2  0  0  0  0  0  0
  186.7420  177.7350  143.3210 C   0  0  1  0  0  3  0  0  0  0  0  0
  185.2210  179.6720  143.9180 C   0  0  0  0  0  1  0  0  0  0  0  0
  185.1580  177.9400  141.0220 N   0  0  0  0  0  0  0  0  0  0  0  0
  186.6060  177.7720  140.8690 C   0  0  0  0  0  2  0  0  0  0  0  0
  185.2910  178.2220  143.4570 C   0  0  1  0  0  3  0  0  0  0  0  0
  184.5340  178.0780  142.1610 C   0  0  0  0  0  0  0  0  0  0  0  0
  187.3720  178.3150  142.0680 C   0  0  0  0  0  2  0  0  0  0  0  0
  183.1350  178.1670  142.2120 O   0  0  0  0  0  0  0  0  0  0  0  0
  182.5280  177.6300  140.0660 O   0  0  0  0  0  0  0  0  0  0  0  0
  181.1370  179.1410  141.1340 N   0  0  0  0  0  1  0  0  0  0  0  0
  182.2760  178.2850  141.1100 C   0  0  0  0  0  0  0  0  0  0  0  0
  189.9760  177.8940  144.4980 C   0  0  0  0  0  2  0  0  0  0  0  0
  190.7300  177.5510  143.2250 C   0  0  0  0  0  2  0  0  0  0  0  0
  191.6250  176.4300  143.4660 N   0  0  0  0  0  2  0  0  0  0  0  0
  192.1800  173.1940  141.8090 N   0  0  0  0  0  0  0  0  0  0  0  0
  192.5620  174.3870  142.4930 C   0  0  0  0  0  0  0  0  0  0  0  0
  191.5290  175.2080  142.7290 C   0  0  0  0  0  0  0  0  0  0  0  0
  190.3240  174.7440  141.9690 C   0  0  1  0  0  3  0  0  0  0  0  0
  190.9330  173.4430  141.6230 C   0  0  0  0  0  0  0  0  0  0  0  0
  193.8660  174.5820  143.0300 N   0  0  0  0  0  1  0  0  0  0  0  0
  189.2930  174.0110  142.6520 C   0  0  1  0  0  3  0  0  0  0  0  0
  187.9300  174.4200  142.1250 C   0  0  0  0  0  1  0  0  0  0  0  0
  189.6970  172.7600  142.0400 N   0  0  0  0  0  2  0  0  0  0  0  0
  1 21  1  1  0  0  0
  1  3  1  0  0  0  0
  3  4  1  0  0  0  0
  3  2  2  0  0  0  0
  4  5  1  0  0  0  0
  5  6  1  0  0  0  0
  6  7  1  6  0  0  0
  6  8  1  0  0  0  0
  9  1  1  0  0  0  0
 10 14  1  0  0  0  0
 10  9  1  1  0  0  0
 12 15  2  0  0  0  0
 13 12  1  0  0  0  0
 13 16  1  0  0  0  0
 14 11  1  6  0  0  0
 15 17  1  0  0  0  0
 15 14  1  0  0  0  0
 16 10  1  0  0  0  0
 18 20  2  0  0  0  0
 20 19  1  0  0  0  0
 20 17  1  0  0  0  0
 22 23  1  0  0  0  0
 22 21  1  0  0  0  0
 24 25  1  0  0  0  0
 25 26  2  0  0  0  0
 25 29  1  0  0  0  0
 26 23  1  0  0  0  0
 27 28  1  6  0  0  0
 27 30  1  0  0  0  0
 27 26  1  0  0  0  0
 28 24  2  0  0  0  0
 28 32  1  0  0  0  0
 30 31  1  6  0  0  0
 32 30  1  0  0  0  0
M  END
>  <MODEL>
6

>  <REMARK>
 VINA RESULT:      -6.0      2.591      7.811
  Name = 
  12 active torsions:
  status: ('A' for Active; 'I' for Inactive)
    1  A    between atoms: N_1  and  C_9
    2  A    between atoms: N_1  and  C_13
    3  A    between atoms: O_3  and  C_27
    4  A    between atoms: O_3  and  C_30
    5  A    between atoms: C_5  and  C_32
    6  A    between atoms: C_7  and  C_13
    7  A    between atoms: C_7  and  C_24
    8  A    between atoms: O_8  and  C_20
    9  A    between atoms: O_8  and  C_32
   10  A    between atoms: C_10  and  N_15
   11  A    between atoms: C_13  and  C_20
   12  A    between atoms: N_15  and  C_24
                            x       y       z     vdW  Elec       q    Type
                         _______ _______ _______ _____ _____    ______ ____

>  <TORSDO>
F 12

$$$$
=
 OpenBabel11042416363D

 32 34  0  0  1  0  0  0  0  0999 V2000
  189.6930  174.5080  145.2820 C   0  0  1  0  0  3  0  0  0  0  0  0
  190.0100  174.9810  147.6050 O   0  0  0  0  0  0  0  0  0  0  0  0
  189.2870  175.1250  146.5800 C   0  0  0  0  0  0  0  0  0  0  0  0
  188.1020  175.8560  146.6400 O   0  0  0  0  0  0  0  0  0  0  0  0
  188.0960  177.2570  146.8930 C   0  0  0  0  0  2  0  0  0  0  0  0
  186.6960  177.8270  146.7290 C   0  0  1  0  0  3  0  0  0  0  0  0
  185.7590  176.7910  146.1380 C   0  0  0  0  0  1  0  0  0  0  0  0
  186.1840  178.2820  148.0110 N   0  0  0  0  0  1  0  0  0  0  0  0
  190.0880  175.5470  144.3400 N   0  0  0  0  0  2  0  0  0  0  0  0
  188.9990  175.7140  143.3850 C   0  0  1  0  0  3  0  0  0  0  0  0
  189.6710  178.1490  143.1790 C   0  0  0  0  0  1  0  0  0  0  0  0
  187.4790  176.5360  141.1830 N   0  0  0  0  0  0  0  0  0  0  0  0
  188.1910  175.2570  141.1110 C   0  0  0  0  0  2  0  0  0  0  0  0
  188.5130  177.1700  143.3170 C   0  0  1  0  0  3  0  0  0  0  0  0
  187.5490  177.3800  142.1770 C   0  0  0  0  0  0  0  0  0  0  0  0
  189.4230  175.2400  142.0070 C   0  0  0  0  0  2  0  0  0  0  0  0
  186.7770  178.5510  142.1860 O   0  0  0  0  0  0  0  0  0  0  0  0
  184.6400  178.0240  142.8350 O   0  0  0  0  0  0  0  0  0  0  0  0
  185.5680  179.8570  143.9000 N   0  0  0  0  0  1  0  0  0  0  0  0
  185.6370  178.7800  142.9690 C   0  0  0  0  0  0  0  0  0  0  0  0
  190.8340  173.5210  145.4800 C   0  0  0  0  0  2  0  0  0  0  0  0
  191.6670  173.4260  144.2140 C   0  0  0  0  0  2  0  0  0  0  0  0
  193.0570  173.1650  144.5540 N   0  0  0  0  0  2  0  0  0  0  0  0
  195.8170  175.5370  144.0220 N   0  0  0  0  0  0  0  0  0  0  0  0
  195.0400  174.3670  143.7670 C   0  0  0  0  0  0  0  0  0  0  0  0
  194.0300  174.2110  144.6330 C   0  0  0  0  0  0  0  0  0  0  0  0
  194.1780  175.1750  145.7700 C   0  0  1  0  0  3  0  0  0  0  0  0
  195.2350  175.9530  145.0890 C   0  0  0  0  0  0  0  0  0  0  0  0
  195.2150  173.5660  142.6030 N   0  0  0  0  0  1  0  0  0  0  0  0
  193.3910  176.3770  145.7890 C   0  0  1  0  0  3  0  0  0  0  0  0
  192.9570  176.6910  147.2090 C   0  0  0  0  0  1  0  0  0  0  0  0
  194.5310  177.1990  145.4340 N   0  0  0  0  0  2  0  0  0  0  0  0
  1 21  1  1  0  0  0
  1  3  1  0  0  0  0
  3  4  1  0  0  0  0
  3  2  2  0  0  0  0
  4  5  1  0  0  0  0
  6  7  1  1  0  0  0
  6  5  1  0  0  0  0
  6  8  1  0  0  0  0
  9  1  1  0  0  0  0
 10  9  1  1  0  0  0
 12 15  2  0  0  0  0
 13 12  1  0  0  0  0
 13 16  1  0  0  0  0
 14 11  1  6  0  0  0
 14 10  1  0  0  0  0
 15 17  1  0  0  0  0
 15 14  1  0  0  0  0
 16 10  1  0  0  0  0
 17 20  1  0  0  0  0
 18 20  2  0  0  0  0
 20 19  1  0  0  0  0
 22 23  1  0  0  0  0
 22 21  1  0  0  0  0
 23 26  1  0  0  0  0
 24 28  2  0  0  0  0
 25 24  1  0  0  0  0
 25 26  2  0  0  0  0
 27 26  1  6  0  0  0
 27 30  1  0  0  0  0
 28 32  1  0  0  0  0
 28 27  1  0  0  0  0
 29 25  1  0  0  0  0
 30 31  1  1  0  0  0
 32 30  1  0  0  0  0
M  END
>  <MODEL>
7

>  <REMARK>
 VINA RESULT:      -6.0      2.484      7.407
  Name = 
  12 active torsions:
  status: ('A' for Active; 'I' for Inactive)
    1  A    between atoms: N_1  and  C_9
    2  A    between atoms: N_1  and  C_13
    3  A    between atoms: O_3  and  C_27
    4  A    between atoms: O_3  and  C_30
    5  A    between atoms: C_5  and  C_32
    6  A    between atoms: C_7  and  C_13
    7  A    between atoms: C_7  and  C_24
    8  A    between atoms: O_8  and  C_20
    9  A    between atoms: O_8  and  C_32
   10  A    between atoms: C_10  and  N_15
   11  A    between atoms: C_13  and  C_20
   12  A    between atoms: N_15  and  C_24
                            x       y       z     vdW  Elec       q    Type
                         _______ _______ _______ _____ _____    ______ ____

>  <TORSDO>
F 12

$$$$
=
 OpenBabel11042416363D

 32 34  0  0  1  0  0  0  0  0999 V2000
  189.7170  176.2510  142.9010 C   0  0  1  0  0  3  0  0  0  0  0  0
  190.3840  178.4000  143.7110 O   0  0  0  0  0  0  0  0  0  0  0  0
  189.8650  177.2790  143.9730 C   0  0  0  0  0  0  0  0  0  0  0  0
  189.4260  176.9820  145.2620 O   0  0  0  0  0  0  0  0  0  0  0  0
  190.3230  176.9100  146.3650 C   0  0  0  0  0  2  0  0  0  0  0  0
  189.9790  175.7330  147.2630 C   0  0  1  0  0  3  0  0  0  0  0  0
  189.4370  174.5750  146.4470 C   0  0  0  0  0  1  0  0  0  0  0  0
  191.1530  175.3060  148.0060 N   0  0  0  0  0  1  0  0  0  0  0  0
  190.7420  175.2270  143.0480 N   0  0  0  0  0  2  0  0  0  0  0  0
  190.2340  174.0030  142.4410 C   0  0  1  0  0  3  0  0  0  0  0  0
  192.2310  174.0510  140.8820 C   0  0  0  0  0  1  0  0  0  0  0  0
  190.0830  171.4740  141.2490 N   0  0  0  0  0  0  0  0  0  0  0  0
  189.9010  171.5830  142.7000 C   0  0  0  0  0  2  0  0  0  0  0  0
  190.7290  173.8290  140.9970 C   0  0  1  0  0  3  0  0  0  0  0  0
  190.3880  172.4640  140.4540 C   0  0  0  0  0  0  0  0  0  0  0  0
  190.6220  172.7950  143.2750 C   0  0  0  0  0  2  0  0  0  0  0  0
  190.4760  172.2750  139.0670 O   0  0  0  0  0  0  0  0  0  0  0  0
  189.9010  172.7940  136.9080 O   0  0  0  0  0  0  0  0  0  0  0  0
  188.2320  173.1230  138.4770 N   0  0  0  0  0  1  0  0  0  0  0  0
  189.5510  172.7250  138.1140 C   0  0  0  0  0  0  0  0  0  0  0  0
  188.3350  175.6160  142.9420 C   0  0  0  0  0  2  0  0  0  0  0  0
  187.3150  176.5460  142.3080 C   0  0  0  0  0  2  0  0  0  0  0  0
  186.0120  176.3440  142.9220 N   0  0  0  0  0  2  0  0  0  0  0  0
  183.9030  179.0370  144.2750 N   0  0  0  0  0  0  0  0  0  0  0  0
  184.4280  178.1810  143.2600 C   0  0  0  0  0  0  0  0  0  0  0  0
  185.3790  177.3530  143.7140 C   0  0  0  0  0  0  0  0  0  0  0  0
  185.7910  177.7580  145.0960 C   0  0  1  0  0  3  0  0  0  0  0  0
  184.6560  178.6910  145.2570 C   0  0  0  0  0  0  0  0  0  0  0  0
  183.8590  178.0940  141.9580 N   0  0  0  0  0  1  0  0  0  0  0  0
  185.2800  177.0370  146.2290 C   0  0  1  0  0  3  0  0  0  0  0  0
  186.3580  176.9010  147.2880 C   0  0  0  0  0  1  0  0  0  0  0  0
  184.3800  178.1170  146.5840 N   0  0  0  0  0  2  0  0  0  0  0  0
  1 21  1  1  0  0  0
  1  9  1  0  0  0  0
  1  3  1  0  0  0  0
  2  3  2  0  0  0  0
  3  4  1  0  0  0  0
  4  5  1  0  0  0  0
  5  6  1  0  0  0  0
  6  7  1  6  0  0  0
  6  8  1  0  0  0  0
 10  9  1  1  0  0  0
 10 16  1  0  0  0  0
 12 13  1  0  0  0  0
 13 16  1  0  0  0  0
 14 11  1  1  0  0  0
 14 10  1  0  0  0  0
 15 14  1  0  0  0  0
 15 12  2  0  0  0  0
 17 15  1  0  0  0  0
 18 20  2  0  0  0  0
 20 19  1  0  0  0  0
 20 17  1  0  0  0  0
 22 23  1  0  0  0  0
 22 21  1  0  0  0  0
 23 26  1  0  0  0  0
 24 28  2  0  0  0  0
 25 26  2  0  0  0  0
 25 24  1  0  0  0  0
 27 26  1  6  0  0  0
 27 28  1  0  0  0  0
 27 30  1  0  0  0  0
 28 32  1  0  0  0  0
 29 25  1  0  0  0  0
 30 32  1  0  0  0  0
 30 31  1  1  0  0  0
M  END
>  <MODEL>
8

>  <REMARK>
 VINA RESULT:      -6.0      2.791      4.281
  Name = 
  12 active torsions:
  status: ('A' for Active; 'I' for Inactive)
    1  A    between atoms: N_1  and  C_9
    2  A    between atoms: N_1  and  C_13
    3  A    between atoms: O_3  and  C_27
    4  A    between atoms: O_3  and  C_30
    5  A    between atoms: C_5  and  C_32
    6  A    between atoms: C_7  and  C_13
    7  A    between atoms: C_7  and  C_24
    8  A    between atoms: O_8  and  C_20
    9  A    between atoms: O_8  and  C_32
   10  A    between atoms: C_10  and  N_15
   11  A    between atoms: C_13  and  C_20
   12  A    between atoms: N_15  and  C_24
                            x       y       z     vdW  Elec       q    Type
                         _______ _______ _______ _____ _____    ______ ____

>  <TORSDO>
F 12

$$$$
=
 OpenBabel11042416363D

 32 34  0  0  1  0  0  0  0  0999 V2000
  190.4490  176.5870  144.9960 C   0  0  1  0  0  3  0  0  0  0  0  0
  190.1400  177.1720  142.6970 O   0  0  0  0  0  0  0  0  0  0  0  0
  189.9940  176.3030  143.6020 C   0  0  0  0  0  0  0  0  0  0  0  0
  189.4100  175.0700  143.3180 O   0  0  0  0  0  0  0  0  0  0  0  0
  188.1900  174.9660  142.5920 C   0  0  0  0  0  2  0  0  0  0  0  0
  188.1890  173.7230  141.7150 C   0  0  1  0  0  3  0  0  0  0  0  0
  188.5620  174.0740  140.2870 C   0  0  0  0  0  1  0  0  0  0  0  0
  189.1180  172.7370  142.2390 N   0  0  0  0  0  1  0  0  0  0  0  0
  191.8110  177.1030  144.9790 N   0  0  0  0  0  2  0  0  0  0  0  0
  192.7130  175.9640  144.8550 C   0  0  1  0  0  3  0  0  0  0  0  0
  194.5660  177.4470  145.7450 C   0  0  0  0  0  1  0  0  0  0  0  0
  194.7470  174.1020  145.3370 N   0  0  0  0  0  0  0  0  0  0  0  0
  193.3820  173.7830  145.7660 C   0  0  0  0  0  2  0  0  0  0  0  0
  194.1770  176.4040  144.7050 C   0  0  1  0  0  3  0  0  0  0  0  0
  195.1210  175.2330  144.8030 C   0  0  0  0  0  0  0  0  0  0  0  0
  192.5670  175.0370  146.0490 C   0  0  0  0  0  2  0  0  0  0  0  0
  196.4390  175.4220  144.3610 O   0  0  0  0  0  0  0  0  0  0  0  0
  197.4080  177.1050  143.1400 O   0  0  0  0  0  0  0  0  0  0  0  0
  196.5600  175.3480  141.8950 N   0  0  0  0  0  1  0  0  0  0  0  0
  196.8260  175.9900  143.1390 C   0  0  0  0  0  0  0  0  0  0  0  0
  189.5220  177.5790  145.6810 C   0  0  0  0  0  2  0  0  0  0  0  0
  188.6930  176.8730  146.7400 C   0  0  0  0  0  2  0  0  0  0  0  0
  187.4460  176.3990  146.1580 N   0  0  0  0  0  2  0  0  0  0  0  0
  184.6190  178.7510  146.1090 N   0  0  0  0  0  0  0  0  0  0  0  0
  185.5360  177.8320  146.7020 C   0  0  0  0  0  0  0  0  0  0  0  0
  186.3810  177.2900  145.8140 C   0  0  0  0  0  0  0  0  0  0  0  0
  185.9360  177.6150  144.4210 C   0  0  1  0  0  3  0  0  0  0  0  0
  184.9530  178.6220  144.8750 C   0  0  0  0  0  0  0  0  0  0  0  0
  185.6540  177.6640  148.1110 N   0  0  0  0  0  1  0  0  0  0  0  0
  186.5900  178.6700  143.6960 C   0  0  1  0  0  3  0  0  0  0  0  0
  186.7240  178.2880  142.2340 C   0  0  0  0  0  1  0  0  0  0  0  0
  185.4610  179.5640  143.8650 N   0  0  0  0  0  2  0  0  0  0  0  0
  1 21  1  6  0  0  0
  2  3  2  0  0  0  0
  3  1  1  0  0  0  0
  4  3  1  0  0  0  0
  5  4  1  0  0  0  0
  6  7  1  6  0  0  0
  6  8  1  0  0  0  0
  6  5  1  0  0  0  0
  9  1  1  0  0  0  0
 10  9  1  1  0  0  0
 10 16  1  0  0  0  0
 12 13  1  0  0  0  0
 13 16  1  0  0  0  0
 14 15  1  0  0  0  0
 14 10  1  0  0  0  0
 14 11  1  1  0  0  0
 15 12  2  0  0  0  0
 17 15  1  0  0  0  0
 19 20  1  0  0  0  0
 20 18  2  0  0  0  0
 20 17  1  0  0  0  0
 21 22  1  0  0  0  0
 23 22  1  0  0  0  0
 24 25  1  0  0  0  0
 25 29  1  0  0  0  0
 26 23  1  0  0  0  0
 26 25  2  0  0  0  0
 27 28  1  1  0  0  0
 27 26  1  0  0  0  0
 28 24  2  0  0  0  0
 30 31  1  6  0  0  0
 30 32  1  0  0  0  0
 30 27  1  0  0  0  0
 32 28  1  0  0  0  0
M  END
>  <MODEL>
9

>  <REMARK>
 VINA RESULT:      -5.9      2.051      3.847
  Name = 
  12 active torsions:
  status: ('A' for Active; 'I' for Inactive)
    1  A    between atoms: N_1  and  C_9
    2  A    between atoms: N_1  and  C_13
    3  A    between atoms: O_3  and  C_27
    4  A    between atoms: O_3  and  C_30
    5  A    between atoms: C_5  and  C_32
    6  A    between atoms: C_7  and  C_13
    7  A    between atoms: C_7  and  C_24
    8  A    between atoms: O_8  and  C_20
    9  A    between atoms: O_8  and  C_32
   10  A    between atoms: C_10  and  N_15
   11  A    between atoms: C_13  and  C_20
   12  A    between atoms: N_15  and  C_24
                            x       y       z     vdW  Elec       q    Type
                         _______ _______ _______ _____ _____    ______ ____

>  <TORSDO>
F 12

$$$$
