=
 OpenBabel11042418563D

 68 74  0  0  1  0  0  0  0  0999 V2000
  194.1770  170.3780  141.0480 C   0  0  0  0  0  3  0  0  0  0  0  0
  194.0710  171.5270  135.8850 N   0  0  0  0  0  0  0  0  0  0  0  0
  196.1340  172.8030  139.1380 F   0  0  0  0  0  0  0  0  0  0  0  0
  193.7770  169.1650  136.4450 C   0  0  0  0  0  0  0  0  0  0  0  0
  195.1420  171.3350  140.7300 C   0  0  0  0  0  0  0  0  0  0  0  0
  194.4920  171.9430  137.0460 C   0  0  0  0  0  3  0  0  0  0  0  0
  193.6400  170.1430  138.6990 C   0  0  0  0  0  0  0  0  0  0  0  0
  193.4100  169.7970  140.0350 C   0  0  0  0  0  0  0  0  0  0  0  0
  193.1240  169.2780  137.6940 N   0  0  0  0  0  2  0  0  0  0  0  0
  193.4850  170.2450  135.4660 C   0  0  1  0  0  3  0  0  0  0  0  0
  195.2420  168.4220  136.3730 S   0  0  0  0  0  0  0  0  0  0  0  0
  195.2470  171.8030  139.4100 C   0  0  0  0  0  0  0  0  0  0  0  0
  194.4580  171.2590  138.3780 C   0  0  0  0  0  0  0  0  0  0  0  0
  196.0380  171.7510  141.7180 O   0  0  0  0  0  0  0  0  0  0  0  0
  197.2260  171.0360  142.0260 C   0  0  0  0  0  2  0  0  0  0  0  0
  197.3750  170.8710  143.5190 C   0  0  0  0  0  2  0  0  0  0  0  0
  196.0320  171.1300  144.1850 C   0  0  0  0  0  2  0  0  0  0  0  0
  196.2220  171.2140  145.6990 C   0  0  0  0  0  2  0  0  0  0  0  0
  196.5610  172.5750  146.1100 N   0  0  0  0  0  2  0  0  0  0  0  0
  194.8910  174.1690  145.3210 C   0  0  0  0  0  0  0  0  0  0  0  0
  196.1210  173.7070  145.3620 C   0  0  0  0  0  0  0  0  0  0  0  0
  196.2210  175.3670  143.7760 N   0  0  0  0  0  0  0  0  0  0  0  0
  196.9200  174.4210  144.5020 O   0  0  0  0  0  0  0  0  0  0  0  0
  194.8330  175.2290  144.2620 C   0  0  2  0  0  3  0  0  0  0  0  0
  194.3680  176.5440  144.8550 C   0  0  0  0  0  1  0  0  0  0  0  0
  193.7190  173.5070  145.9480 C   0  0  0  0  0  2  0  0  0  0  0  0
  192.9690  172.6850  144.9340 C   0  0  0  0  0  1  0  0  0  0  0  0
  196.2860  174.9270  142.3780 C   0  0  0  0  0  2  0  0  0  0  0  0
  196.2290  176.1000  141.3780 C   0  0  0  0  0  0  0  0  0  0  0  0
  194.7830  176.4180  141.0780 C   0  0  0  0  0  1  0  0  0  0  0  0
  196.9020  175.7290  140.0660 C   0  0  0  0  0  1  0  0  0  0  0  0
  196.8620  177.2300  141.9020 O   0  0  0  0  0  1  0  0  0  0  0  0
  191.9690  170.3670  135.1740 C   0  0  0  0  0  2  0  0  0  0  0  0
  190.1530  171.7470  136.2960 C   0  0  2  0  0  0  0  0  0  0  0  0
  191.4410  171.7630  135.5580 C   0  0  2  0  0  3  0  0  0  0  0  0
  189.9430  172.0790  134.5150 S   0  0  0  0  0  0  0  0  0  0  0  0
  189.7970  172.8660  137.0530 O   0  0  0  0  0  1  0  0  0  0  0  0
  189.6000  170.4690  136.7300 N   0  0  0  0  0  1  0  0  0  0  0  0
  192.0980  168.6760  140.5060 S   0  0  0  0  0  0  0  0  0  0  0  0
  189.9300  171.2460  142.7700 C   0  0  0  0  0  3  0  0  0  0  0  0
  189.5690  172.2360  141.8670 C   0  0  0  0  0  0  0  0  0  0  0  0
  190.5600  170.0850  142.3220 C   0  0  0  0  0  3  0  0  0  0  0  0
  190.8460  169.8950  140.9600 C   0  0  0  0  0  0  0  0  0  0  0  0
  190.4710  170.8870  140.0510 C   0  0  0  0  0  3  0  0  0  0  0  0
  189.8440  172.0570  140.4990 C   0  0  0  0  0  3  0  0  0  0  0  0
  189.8280  174.6780  141.4980 N   0  0  1  0  0  0  0  0  0  0  0  0
  190.5060  175.0740  142.7500 C   0  0  2  0  0  0  0  0  0  0  0  0
  189.3070  173.6140  142.3550 C   0  0  2  0  0  3  0  0  0  0  0  0
  190.0540  173.9610  143.4800 O   0  0  0  0  0  0  0  0  0  0  0  0
  189.5660  176.0060  142.0830 C   0  0  2  0  0  3  0  0  0  0  0  0
  191.8810  175.1730  142.5230 O   0  0  0  0  0  1  0  0  0  0  0  0
  188.2080  176.0530  142.7290 C   0  0  0  0  0  3  0  0  0  0  0  0
  187.4770  177.1720  142.7000 C   0  0  0  0  0  3  0  0  0  0  0  0
  186.2700  177.9460  144.7080 C   0  0  0  0  0  0  0  0  0  0  0  0
  186.2410  177.3140  143.4130 N   0  0  0  0  0  0  0  0  0  0  0  0
  186.6950  179.1290  144.7940 O   0  0  0  0  0  0  0  0  0  0  0  0
  185.0420  177.4510  142.5680 C   0  0  1  0  0  3  0  0  0  0  0  0
  183.9860  178.1110  143.2450 O   0  0  0  0  0  1  0  0  0  0  0  0
  185.3630  177.9890  141.2900 O   0  0  0  0  0  0  0  0  0  0  0  0
  184.1820  178.2450  140.5720 C   0  0  0  0  0  1  0  0  0  0  0  0
  185.6280  177.2610  145.8820 C   0  0  1  0  0  3  0  0  0  0  0  0
  186.6610  176.5860  146.7440 C   0  0  0  0  0  0  0  0  0  0  0  0
  186.3280  176.0170  147.7740 O   0  0  0  0  0  0  0  0  0  0  0  0
  188.1140  176.7120  146.3770 C   0  0  2  0  0  3  0  0  0  0  0  0
  188.8230  175.3900  146.5600 C   0  0  0  0  0  1  0  0  0  0  0  0
  188.7370  177.6710  147.1400 F   0  0  0  0  0  0  0  0  0  0  0  0
  185.2320  179.1840  147.4190 C   0  0  0  0  0  2  0  0  0  0  0  0
  184.7330  178.1320  146.7290 C   0  0  0  0  0  3  0  0  0  0  0  0
  2  6  2  0  0  0  0
  3 12  1  0  0  0  0
  4  9  1  0  0  0  0
  5  1  1  0  0  0  0
  5 14  1  0  0  0  0
  6 13  1  0  0  0  0
  7  8  1  0  0  0  0
  8 39  1  0  0  0  0
  8  1  2  0  0  0  0
  9  7  1  0  0  0  0
 10 33  1  1  0  0  0
 10  2  1  0  0  0  0
 10  4  1  0  0  0  0
 11  4  2  0  0  0  0
 12  5  2  0  0  0  0
 13  7  2  0  0  0  0
 13 12  1  0  0  0  0
 14 15  1  0  0  0  0
 15 16  1  0  0  0  0
 16 17  1  0  0  0  0
 17 18  1  0  0  0  0
 18 19  1  0  0  0  0
 20 21  2  0  0  0  0
 20 26  1  0  0  0  0
 21 19  1  0  0  0  0
 22 24  1  0  0  0  0
 22 23  1  0  0  0  0
 23 21  1  0  0  0  0
 24 25  1  1  0  0  0
 24 20  1  0  0  0  0
 27 26  1  0  0  0  0
 28 22  1  0  0  0  0
 29 32  1  0  0  0  0
 29 28  1  0  0  0  0
 30 29  1  0  0  0  0
 31 29  1  0  0  0  0
 34 38  1  1  0  0  0
 34 37  1  0  0  0  0
 35 33  1  6  0  0  0
 35 34  1  0  0  0  0
 36 35  1  0  0  0  0
 36 34  1  0  0  0  0
 39 43  1  0  0  0  0
 41 48  1  0  0  0  0
 41 40  2  0  0  0  0
 42 40  1  0  0  0  0
 43 42  2  0  0  0  0
 44 45  2  0  0  0  0
 44 43  1  0  0  0  0
 45 41  1  0  0  0  0
 46 50  1  0  0  0  0
 46 48  1  0  0  0  0
 46 47  1  0  0  0  0
 47 49  1  0  0  0  0
 48 49  1  0  0  0  0
 50 52  1  0  0  0  0
 50 47  1  0  0  0  0
 51 47  1  0  0  0  0
 53 52  2  0  0  0  0
 53 55  1  0  0  0  0
 54 56  2  0  0  0  0
 54 61  1  0  0  0  0
 55 54  1  0  0  0  0
 57 58  1  0  0  0  0
 57 55  1  0  0  0  0
 59 57  1  0  0  0  0
 60 59  1  0  0  0  0
 61 68  1  0  0  0  0
 61 62  1  0  0  0  0
 62 63  2  0  0  0  0
 64 65  1  0  0  0  0
 64 62  1  0  0  0  0
 64 66  1  0  0  0  0
 68 67  2  0  0  0  0
M  END
>  <MODEL>
1

>  <REMARK>
 VINA RESULT:      -5.9      0.000      0.000
  Name = 
  23 active torsions:
  status: ('A' for Active; 'I' for Inactive)
    1  A    between atoms: C_1  and  C_18
    2  A    between atoms: O_6  and  C_53
    3  A    between atoms: C_7  and  C_9
    4  A    between atoms: C_7  and  C_60
    5  A    between atoms: C_8  and  C_38
    6  A    between atoms: C_9  and  C_44
    7  A    between atoms: C_11  and  C_59
    8  A    between atoms: C_12  and  C_28
    9  A    between atoms: C_15  and  C_17
   10  A    between atoms: C_17  and  C_18
   11  A    between atoms: C_17  and  C_51
   12  A    between atoms: C_21  and  C_45
   13  A    between atoms: C_22  and  S_68
   14  A    between atoms: O_23  and  C_40
   15  A    between atoms: O_23  and  C_60
   16  A    between atoms: C_24  and  C_29
   17  A    between atoms: C_26  and  N_43
   18  A    between atoms: C_29  and  C_56
   19  A    between atoms: C_36  and  N_41
   20  A    between atoms: N_37  and  C_59
   21  A    between atoms: N_41  and  C_44
   22  A    between atoms: N_43  and  C_53
   23  A    between atoms: C_52  and  S_68
                            x       y       z     vdW  Elec       q    Type
                         _______ _______ _______ _____ _____    ______ ____

>  <TORSDO>
F 23

$$$$
=
 OpenBabel11042418563D

 68 74  0  0  1  0  0  0  0  0999 V2000
  193.1330  175.9290  145.0600 C   0  0  0  0  0  3  0  0  0  0  0  0
  193.1610  170.7480  143.9940 N   0  0  0  0  0  0  0  0  0  0  0  0
  190.4720  173.4460  145.3910 F   0  0  0  0  0  0  0  0  0  0  0  0
  194.4310  172.1490  142.4450 C   0  0  0  0  0  0  0  0  0  0  0  0
  191.8740  175.3680  145.2780 C   0  0  0  0  0  0  0  0  0  0  0  0
  192.4990  171.6930  144.6010 C   0  0  0  0  0  3  0  0  0  0  0  0
  193.9200  173.8140  144.1820 C   0  0  0  0  0  0  0  0  0  0  0  0
  194.1640  175.1470  144.5330 C   0  0  0  0  0  0  0  0  0  0  0  0
  194.8530  173.1770  143.3180 N   0  0  0  0  0  2  0  0  0  0  0  0
  194.2920  170.8010  143.0570 C   0  0  1  0  0  3  0  0  0  0  0  0
  193.4660  172.5290  141.1680 S   0  0  0  0  0  0  0  0  0  0  0  0
  191.6850  173.9910  145.0860 C   0  0  0  0  0  0  0  0  0  0  0  0
  192.7210  173.1740  144.5910 C   0  0  0  0  0  0  0  0  0  0  0  0
  190.8040  176.2060  145.6050 O   0  0  0  0  0  0  0  0  0  0  0  0
  189.6880  176.3950  144.7480 C   0  0  0  0  0  2  0  0  0  0  0  0
  190.1420  176.6300  143.3280 C   0  0  0  0  0  2  0  0  0  0  0  0
  189.8310  175.3970  142.4940 C   0  0  0  0  0  2  0  0  0  0  0  0
  188.7890  175.7470  141.4330 C   0  0  0  0  0  2  0  0  0  0  0  0
  187.4500  175.3490  141.8610 N   0  0  0  0  0  2  0  0  0  0  0  0
  186.0810  177.3680  141.7820 C   0  0  0  0  0  0  0  0  0  0  0  0
  186.5300  176.2980  142.4000 C   0  0  0  0  0  0  0  0  0  0  0  0
  185.3100  177.3820  144.0170 N   0  0  0  0  0  0  0  0  0  0  0  0
  186.0570  176.2660  143.6890 O   0  0  0  0  0  0  0  0  0  0  0  0
  185.3120  178.1840  142.7770 C   0  0  2  0  0  3  0  0  0  0  0  0
  183.8880  178.3910  142.3030 C   0  0  0  0  0  1  0  0  0  0  0  0
  186.5590  177.8410  140.4580 C   0  0  0  0  0  2  0  0  0  0  0  0
  185.7530  177.2180  139.3490 C   0  0  0  0  0  1  0  0  0  0  0  0
  186.0790  178.0890  145.0470 C   0  0  0  0  0  2  0  0  0  0  0  0
  185.7210  177.6380  146.4770 C   0  0  0  0  0  0  0  0  0  0  0  0
  184.9390  178.7390  147.1560 C   0  0  0  0  0  1  0  0  0  0  0  0
  186.9750  177.3880  147.3000 C   0  0  0  0  0  1  0  0  0  0  0  0
  184.9610  176.4670  146.4520 O   0  0  0  0  0  1  0  0  0  0  0  0
  195.6120  170.3240  143.7120 C   0  0  0  0  0  2  0  0  0  0  0  0
  196.9700  171.6340  145.4140 C   0  0  2  0  0  0  0  0  0  0  0  0
  195.7370  170.8490  145.1550 C   0  0  2  0  0  3  0  0  0  0  0  0
  197.1090  169.8990  145.9580 S   0  0  0  0  0  0  0  0  0  0  0  0
  196.9980  172.5000  146.5110 O   0  0  0  0  0  1  0  0  0  0  0  0
  197.8410  171.9770  144.2970 N   0  0  0  0  0  1  0  0  0  0  0  0
  195.7920  175.8740  144.3980 S   0  0  0  0  0  0  0  0  0  0  0  0
  196.8840  174.8940  140.6190 C   0  0  0  0  0  3  0  0  0  0  0  0
  195.7840  175.2750  139.8640 C   0  0  0  0  0  0  0  0  0  0  0  0
  196.9520  175.2240  141.9720 C   0  0  0  0  0  3  0  0  0  0  0  0
  195.9160  175.9370  142.5980 C   0  0  0  0  0  0  0  0  0  0  0  0
  194.8150  176.3310  141.8330 C   0  0  0  0  0  3  0  0  0  0  0  0
  194.7420  175.9960  140.4750 C   0  0  0  0  0  3  0  0  0  0  0  0
  196.6190  173.8120  138.0390 N   0  0  1  0  0  0  0  0  0  0  0  0
  196.3740  174.6740  136.8630 C   0  0  2  0  0  0  0  0  0  0  0  0
  195.5000  174.5820  138.5810 C   0  0  2  0  0  3  0  0  0  0  0  0
  195.3800  175.4440  137.4930 O   0  0  0  0  0  0  0  0  0  0  0  0
  196.2640  173.2010  136.7450 C   0  0  2  0  0  3  0  0  0  0  0  0
  197.5580  175.3260  136.5090 O   0  0  0  0  0  1  0  0  0  0  0  0
  194.8450  172.7020  136.7550 C   0  0  0  0  0  3  0  0  0  0  0  0
  194.5450  171.5080  137.2770 C   0  0  0  0  0  3  0  0  0  0  0  0
  192.2390  171.6080  136.4050 C   0  0  0  0  0  0  0  0  0  0  0  0
  193.2370  170.9260  137.1910 N   0  0  0  0  0  0  0  0  0  0  0  0
  192.4620  171.7990  135.1790 O   0  0  0  0  0  0  0  0  0  0  0  0
  193.1960  169.4570  137.2960 C   0  0  1  0  0  3  0  0  0  0  0  0
  194.0460  168.8310  136.3510 O   0  0  0  0  0  1  0  0  0  0  0  0
  193.3740  169.0260  138.6410 O   0  0  0  0  0  0  0  0  0  0  0  0
  192.1820  169.2170  139.3620 C   0  0  0  0  0  1  0  0  0  0  0  0
  190.8950  171.9030  137.0090 C   0  0  1  0  0  3  0  0  0  0  0  0
  190.9020  173.2330  137.7150 C   0  0  0  0  0  0  0  0  0  0  0  0
  191.6650  174.1190  137.3540 O   0  0  0  0  0  0  0  0  0  0  0  0
  190.0380  173.4190  138.9320 C   0  0  2  0  0  3  0  0  0  0  0  0
  189.8190  172.0980  139.6320 C   0  0  0  0  0  1  0  0  0  0  0  0
  188.8200  173.9630  138.5970 F   0  0  0  0  0  0  0  0  0  0  0  0
  189.4190  172.8630  135.2430 C   0  0  0  0  0  2  0  0  0  0  0  0
  189.7260  171.8260  136.0570 C   0  0  0  0  0  3  0  0  0  0  0  0
  1  5  1  0  0  0  0
  2  6  2  0  0  0  0
  4 10  1  0  0  0  0
  4  9  1  0  0  0  0
  5 14  1  0  0  0  0
  7  8  1  0  0  0  0
  7 13  2  0  0  0  0
  8  1  2  0  0  0  0
  9  7  1  0  0  0  0
 10 33  1  1  0  0  0
 10  2  1  0  0  0  0
 11  4  2  0  0  0  0
 12  5  2  0  0  0  0
 12  3  1  0  0  0  0
 13  6  1  0  0  0  0
 13 12  1  0  0  0  0
 15 14  1  0  0  0  0
 16 15  1  0  0  0  0
 17 16  1  0  0  0  0
 18 19  1  0  0  0  0
 18 17  1  0  0  0  0
 19 21  1  0  0  0  0
 20 21  2  0  0  0  0
 20 24  1  0  0  0  0
 21 23  1  0  0  0  0
 22 28  1  0  0  0  0
 23 22  1  0  0  0  0
 24 25  1  6  0  0  0
 24 22  1  0  0  0  0
 26 20  1  0  0  0  0
 27 26  1  0  0  0  0
 28 29  1  0  0  0  0
 29 30  1  0  0  0  0
 29 31  1  0  0  0  0
 32 29  1  0  0  0  0
 34 38  1  6  0  0  0
 34 36  1  0  0  0  0
 34 37  1  0  0  0  0
 35 33  1  6  0  0  0
 35 34  1  0  0  0  0
 35 36  1  0  0  0  0
 39  8  1  0  0  0  0
 40 42  1  0  0  0  0
 41 45  1  0  0  0  0
 41 40  2  0  0  0  0
 42 43  2  0  0  0  0
 43 39  1  0  0  0  0
 44 43  1  0  0  0  0
 45 44  2  0  0  0  0
 46 48  1  0  0  0  0
 47 49  1  0  0  0  0
 47 46  1  0  0  0  0
 48 41  1  0  0  0  0
 49 48  1  0  0  0  0
 50 52  1  0  0  0  0
 50 47  1  0  0  0  0
 50 46  1  0  0  0  0
 51 47  1  0  0  0  0
 52 53  2  0  0  0  0
 54 61  1  0  0  0  0
 54 55  1  0  0  0  0
 55 53  1  0  0  0  0
 55 57  1  0  0  0  0
 56 54  2  0  0  0  0
 57 59  1  0  0  0  0
 58 57  1  0  0  0  0
 59 60  1  0  0  0  0
 61 62  1  0  0  0  0
 62 64  1  0  0  0  0
 63 62  2  0  0  0  0
 64 65  1  0  0  0  0
 66 64  1  0  0  0  0
 67 68  2  0  0  0  0
 68 61  1  0  0  0  0
M  END
>  <MODEL>
2

>  <REMARK>
 VINA RESULT:      -5.6      2.864      9.937
  Name = 
  23 active torsions:
  status: ('A' for Active; 'I' for Inactive)
    1  A    between atoms: C_1  and  C_18
    2  A    between atoms: O_6  and  C_53
    3  A    between atoms: C_7  and  C_9
    4  A    between atoms: C_7  and  C_60
    5  A    between atoms: C_8  and  C_38
    6  A    between atoms: C_9  and  C_44
    7  A    between atoms: C_11  and  C_59
    8  A    between atoms: C_12  and  C_28
    9  A    between atoms: C_15  and  C_17
   10  A    between atoms: C_17  and  C_18
   11  A    between atoms: C_17  and  C_51
   12  A    between atoms: C_21  and  C_45
   13  A    between atoms: C_22  and  S_68
   14  A    between atoms: O_23  and  C_40
   15  A    between atoms: O_23  and  C_60
   16  A    between atoms: C_24  and  C_29
   17  A    between atoms: C_26  and  N_43
   18  A    between atoms: C_29  and  C_56
   19  A    between atoms: C_36  and  N_41
   20  A    between atoms: N_37  and  C_59
   21  A    between atoms: N_41  and  C_44
   22  A    between atoms: N_43  and  C_53
   23  A    between atoms: C_52  and  S_68
                            x       y       z     vdW  Elec       q    Type
                         _______ _______ _______ _____ _____    ______ ____

>  <TORSDO>
F 23

$$$$
=
 OpenBabel11042418563D

 68 74  0  0  1  0  0  0  0  0999 V2000
  194.2740  170.7200  142.0240 C   0  0  0  0  0  3  0  0  0  0  0  0
  193.7530  172.4390  137.0480 N   0  0  0  0  0  0  0  0  0  0  0  0
  196.1410  173.2900  140.2160 F   0  0  0  0  0  0  0  0  0  0  0  0
  193.4240  170.0380  137.3740 C   0  0  0  0  0  0  0  0  0  0  0  0
  195.2410  171.6810  141.7240 C   0  0  0  0  0  0  0  0  0  0  0  0
  194.2890  172.7120  138.2040 C   0  0  0  0  0  3  0  0  0  0  0  0
  193.5230  170.7630  139.7230 C   0  0  0  0  0  0  0  0  0  0  0  0
  193.3990  170.2760  141.0300 C   0  0  0  0  0  0  0  0  0  0  0  0
  192.8890  170.0290  138.6820 N   0  0  0  0  0  2  0  0  0  0  0  0
  193.0850  171.2280  136.5480 C   0  0  1  0  0  3  0  0  0  0  0  0
  194.8480  169.2690  137.0870 S   0  0  0  0  0  0  0  0  0  0  0  0
  195.2460  172.2890  140.4590 C   0  0  0  0  0  0  0  0  0  0  0  0
  194.3490  171.8850  139.4510 C   0  0  0  0  0  0  0  0  0  0  0  0
  196.2360  171.9610  142.6640 O   0  0  0  0  0  0  0  0  0  0  0  0
  197.3640  171.1210  142.8590 C   0  0  0  0  0  2  0  0  0  0  0  0
  197.6180  170.9040  144.3310 C   0  0  0  0  0  2  0  0  0  0  0  0
  196.3750  171.2980  145.1140 C   0  0  0  0  0  2  0  0  0  0  0  0
  196.7810  172.1180  146.3380 C   0  0  0  0  0  2  0  0  0  0  0  0
  197.1220  173.4880  145.9620 N   0  0  0  0  0  2  0  0  0  0  0  0
  196.5570  174.9490  144.0910 C   0  0  0  0  0  0  0  0  0  0  0  0
  196.2350  174.2850  145.1790 C   0  0  0  0  0  0  0  0  0  0  0  0
  194.3280  175.4670  144.6850 N   0  0  0  0  0  0  0  0  0  0  0  0
  194.9280  174.5390  145.5150 O   0  0  0  0  0  0  0  0  0  0  0  0
  195.3870  175.8080  143.7140 C   0  0  2  0  0  3  0  0  0  0  0  0
  194.9180  175.4780  142.3110 C   0  0  0  0  0  1  0  0  0  0  0  0
  197.9380  175.0880  143.5640 C   0  0  0  0  0  2  0  0  0  0  0  0
  197.9410  175.0230  142.0600 C   0  0  0  0  0  1  0  0  0  0  0  0
  194.0520  176.6370  145.5250 C   0  0  0  0  0  2  0  0  0  0  0  0
  192.8200  176.4460  146.4330 C   0  0  0  0  0  0  0  0  0  0  0  0
  192.6040  174.9670  146.6590 C   0  0  0  0  0  1  0  0  0  0  0  0
  191.5670  177.0000  145.7760 C   0  0  0  0  0  1  0  0  0  0  0  0
  193.0040  177.0880  147.6600 O   0  0  0  0  0  1  0  0  0  0  0  0
  191.5550  171.4220  136.4120 C   0  0  0  0  0  2  0  0  0  0  0  0
  190.3630  173.6650  136.3520 C   0  0  2  0  0  0  0  0  0  0  0  0
  191.2270  172.7040  135.6220 C   0  0  2  0  0  3  0  0  0  0  0  0
  189.4290  172.6220  135.1840 S   0  0  0  0  0  0  0  0  0  0  0  0
  190.3470  175.0020  135.9420 O   0  0  0  0  0  1  0  0  0  0  0  0
  190.0480  173.4150  137.7530 N   0  0  0  0  0  1  0  0  0  0  0  0
  192.0950  169.1450  141.4940 S   0  0  0  0  0  0  0  0  0  0  0  0
  190.0110  171.9990  143.4810 C   0  0  0  0  0  3  0  0  0  0  0  0
  189.4490  172.7500  142.4590 C   0  0  0  0  0  0  0  0  0  0  0  0
  190.6800  170.8100  143.1910 C   0  0  0  0  0  3  0  0  0  0  0  0
  190.8060  170.3530  141.8680 C   0  0  0  0  0  0  0  0  0  0  0  0
  190.2290  171.1040  140.8420 C   0  0  0  0  0  3  0  0  0  0  0  0
  189.5610  172.3010  141.1300 C   0  0  0  0  0  3  0  0  0  0  0  0
  189.5250  175.0820  141.6100 N   0  0  1  0  0  0  0  0  0  0  0  0
  190.2510  175.7510  142.7110 C   0  0  2  0  0  0  0  0  0  0  0  0
  189.1280  174.1810  142.6920 C   0  0  2  0  0  3  0  0  0  0  0  0
  189.9180  174.7800  143.6710 O   0  0  0  0  0  0  0  0  0  0  0  0
  189.2130  176.4830  141.9480 C   0  0  2  0  0  3  0  0  0  0  0  0
  191.6010  175.8740  142.3700 O   0  0  0  0  0  1  0  0  0  0  0  0
  187.8970  176.5860  142.6690 C   0  0  0  0  0  3  0  0  0  0  0  0
  187.0700  177.6090  142.4380 C   0  0  0  0  0  3  0  0  0  0  0  0
  185.9470  178.6580  144.3690 C   0  0  0  0  0  0  0  0  0  0  0  0
  185.8700  177.8280  143.1930 N   0  0  0  0  0  0  0  0  0  0  0  0
  186.3320  179.8510  144.2420 O   0  0  0  0  0  0  0  0  0  0  0  0
  184.6220  177.7960  142.4110 C   0  0  1  0  0  3  0  0  0  0  0  0
  183.6280  178.6430  142.9590 O   0  0  0  0  0  1  0  0  0  0  0  0
  184.8720  177.9840  141.0220 O   0  0  0  0  0  0  0  0  0  0  0  0
  183.6530  178.0340  140.3230 C   0  0  0  0  0  1  0  0  0  0  0  0
  185.3960  178.1510  145.6720 C   0  0  1  0  0  3  0  0  0  0  0  0
  186.4880  178.0060  146.6990 C   0  0  0  0  0  0  0  0  0  0  0  0
  186.5040  178.7260  147.6870 O   0  0  0  0  0  0  0  0  0  0  0  0
  187.6120  177.0410  146.4390 C   0  0  2  0  0  3  0  0  0  0  0  0
  188.7640  177.7430  145.7580 C   0  0  0  0  0  1  0  0  0  0  0  0
  187.1930  175.9900  145.6570 F   0  0  0  0  0  0  0  0  0  0  0  0
  183.1670  178.3280  146.7740 C   0  0  0  0  0  2  0  0  0  0  0  0
  184.2480  178.9460  146.2430 C   0  0  0  0  0  3  0  0  0  0  0  0
  2  6  2  0  0  0  0
  3 12  1  0  0  0  0
  4  9  1  0  0  0  0
  5  1  1  0  0  0  0
  5 14  1  0  0  0  0
  6 13  1  0  0  0  0
  7  8  1  0  0  0  0
  8 39  1  0  0  0  0
  8  1  2  0  0  0  0
  9  7  1  0  0  0  0
 10 33  1  1  0  0  0
 10  2  1  0  0  0  0
 10  4  1  0  0  0  0
 11  4  2  0  0  0  0
 12  5  2  0  0  0  0
 13  7  2  0  0  0  0
 13 12  1  0  0  0  0
 14 15  1  0  0  0  0
 15 16  1  0  0  0  0
 16 17  1  0  0  0  0
 17 18  1  0  0  0  0
 19 18  1  0  0  0  0
 20 21  2  0  0  0  0
 21 23  1  0  0  0  0
 21 19  1  0  0  0  0
 22 23  1  0  0  0  0
 22 28  1  0  0  0  0
 24 25  1  6  0  0  0
 24 20  1  0  0  0  0
 24 22  1  0  0  0  0
 26 20  1  0  0  0  0
 27 26  1  0  0  0  0
 28 29  1  0  0  0  0
 29 30  1  0  0  0  0
 29 32  1  0  0  0  0
 31 29  1  0  0  0  0
 34 37  1  6  0  0  0
 34 38  1  0  0  0  0
 35 34  1  0  0  0  0
 35 33  1  1  0  0  0
 36 35  1  0  0  0  0
 36 34  1  0  0  0  0
 39 43  1  0  0  0  0
 41 48  1  0  0  0  0
 41 40  2  0  0  0  0
 42 40  1  0  0  0  0
 43 42  2  0  0  0  0
 44 45  2  0  0  0  0
 44 43  1  0  0  0  0
 45 41  1  0  0  0  0
 46 50  1  0  0  0  0
 46 48  1  0  0  0  0
 46 47  1  0  0  0  0
 47 49  1  0  0  0  0
 48 49  1  0  0  0  0
 50 52  1  0  0  0  0
 50 47  1  0  0  0  0
 51 47  1  0  0  0  0
 53 52  2  0  0  0  0
 53 55  1  0  0  0  0
 54 61  1  0  0  0  0
 55 54  1  0  0  0  0
 56 54  2  0  0  0  0
 57 58  1  0  0  0  0
 57 55  1  0  0  0  0
 59 57  1  0  0  0  0
 60 59  1  0  0  0  0
 61 68  1  0  0  0  0
 61 62  1  0  0  0  0
 62 63  2  0  0  0  0
 64 62  1  0  0  0  0
 65 64  1  0  0  0  0
 66 64  1  0  0  0  0
 68 67  2  0  0  0  0
M  END
>  <MODEL>
3

>  <REMARK>
 VINA RESULT:      -5.1      1.510      2.388
  Name = 
  23 active torsions:
  status: ('A' for Active; 'I' for Inactive)
    1  A    between atoms: C_1  and  C_18
    2  A    between atoms: O_6  and  C_53
    3  A    between atoms: C_7  and  C_9
    4  A    between atoms: C_7  and  C_60
    5  A    between atoms: C_8  and  C_38
    6  A    between atoms: C_9  and  C_44
    7  A    between atoms: C_11  and  C_59
    8  A    between atoms: C_12  and  C_28
    9  A    between atoms: C_15  and  C_17
   10  A    between atoms: C_17  and  C_18
   11  A    between atoms: C_17  and  C_51
   12  A    between atoms: C_21  and  C_45
   13  A    between atoms: C_22  and  S_68
   14  A    between atoms: O_23  and  C_40
   15  A    between atoms: O_23  and  C_60
   16  A    between atoms: C_24  and  C_29
   17  A    between atoms: C_26  and  N_43
   18  A    between atoms: C_29  and  C_56
   19  A    between atoms: C_36  and  N_41
   20  A    between atoms: N_37  and  C_59
   21  A    between atoms: N_41  and  C_44
   22  A    between atoms: N_43  and  C_53
   23  A    between atoms: C_52  and  S_68
                            x       y       z     vdW  Elec       q    Type
                         _______ _______ _______ _____ _____    ______ ____

>  <TORSDO>
F 23

$$$$
=
 OpenBabel11042418563D

 68 74  0  0  1  0  0  0  0  0999 V2000
  193.6700  171.4190  143.2060 C   0  0  0  0  0  3  0  0  0  0  0  0
  197.3020  170.2660  139.5360 N   0  0  0  0  0  0  0  0  0  0  0  0
  196.4000  173.4540  141.8780 F   0  0  0  0  0  0  0  0  0  0  0  0
  196.6980  168.4310  141.0340 C   0  0  0  0  0  0  0  0  0  0  0  0
  194.5680  172.4750  143.0440 C   0  0  0  0  0  0  0  0  0  0  0  0
  196.7600  171.2420  140.2090 C   0  0  0  0  0  3  0  0  0  0  0  0
  194.9830  170.0720  141.6820 C   0  0  0  0  0  0  0  0  0  0  0  0
  193.8630  170.2240  142.5080 C   0  0  0  0  0  0  0  0  0  0  0  0
  195.3470  168.7500  141.2990 N   0  0  0  0  0  2  0  0  0  0  0  0
  197.1960  168.8070  139.6850 C   0  0  1  0  0  3  0  0  0  0  0  0
  197.7700  168.3950  142.2810 S   0  0  0  0  0  0  0  0  0  0  0  0
  195.5880  172.3770  142.0850 C   0  0  0  0  0  0  0  0  0  0  0  0
  195.7810  171.1960  141.3410 C   0  0  0  0  0  0  0  0  0  0  0  0
  194.4820  173.5770  143.8980 O   0  0  0  0  0  0  0  0  0  0  0  0
  195.5080  173.9160  144.8190 C   0  0  0  0  0  2  0  0  0  0  0  0
  195.1620  175.1860  145.5580 C   0  0  0  0  0  2  0  0  0  0  0  0
  193.6590  175.2350  145.7870 C   0  0  0  0  0  2  0  0  0  0  0  0
  193.2180  176.6860  145.9660 C   0  0  0  0  0  2  0  0  0  0  0  0
  191.9310  176.9280  145.3160 N   0  0  0  0  0  2  0  0  0  0  0  0
  190.1230  175.3950  145.8970 C   0  0  0  0  0  0  0  0  0  0  0  0
  190.7020  176.5750  145.9490 C   0  0  0  0  0  0  0  0  0  0  0  0
  188.6940  176.9140  147.0120 N   0  0  0  0  0  0  0  0  0  0  0  0
  189.9060  177.4600  146.6330 O   0  0  0  0  0  0  0  0  0  0  0  0
  188.7640  175.5230  146.5190 C   0  0  2  0  0  3  0  0  0  0  0  0
  188.6220  174.5620  147.6810 C   0  0  0  0  0  1  0  0  0  0  0  0
  190.5870  174.2630  145.0570 C   0  0  0  0  0  2  0  0  0  0  0  0
  190.0000  174.3540  143.6730 C   0  0  0  0  0  1  0  0  0  0  0  0
  187.6710  177.6420  146.2530 C   0  0  0  0  0  2  0  0  0  0  0  0
  186.4330  177.9950  147.1020 C   0  0  0  0  0  0  0  0  0  0  0  0
  185.3670  178.5690  146.1980 C   0  0  0  0  0  1  0  0  0  0  0  0
  186.7710  179.0480  148.1450 C   0  0  0  0  0  1  0  0  0  0  0  0
  185.9390  176.8620  147.7530 O   0  0  0  0  0  1  0  0  0  0  0  0
  196.3510  168.1670  138.5560 C   0  0  0  0  0  2  0  0  0  0  0  0
  195.2130  169.7610  136.9360 C   0  0  2  0  0  0  0  0  0  0  0  0
  196.4430  168.9940  137.2590 C   0  0  2  0  0  3  0  0  0  0  0  0
  195.3230  168.1860  136.0240 S   0  0  0  0  0  0  0  0  0  0  0  0
  195.3080  170.8470  136.0610 O   0  0  0  0  0  1  0  0  0  0  0  0
  194.1300  169.8090  137.9110 N   0  0  0  0  0  1  0  0  0  0  0  0
  192.6140  168.9520  142.6460 S   0  0  0  0  0  0  0  0  0  0  0  0
  189.7320  171.5400  141.4510 C   0  0  0  0  0  3  0  0  0  0  0  0
  189.8620  171.5420  140.0700 C   0  0  0  0  0  0  0  0  0  0  0  0
  190.4580  170.6320  142.2210 C   0  0  0  0  0  3  0  0  0  0  0  0
  191.3350  169.7120  141.6230 C   0  0  0  0  0  0  0  0  0  0  0  0
  191.4550  169.7080  140.2310 C   0  0  0  0  0  3  0  0  0  0  0  0
  190.7310  170.6220  139.4560 C   0  0  0  0  0  3  0  0  0  0  0  0
  189.4820  172.5760  137.8440 N   0  0  1  0  0  0  0  0  0  0  0  0
  190.3670  173.7570  137.9360 C   0  0  2  0  0  0  0  0  0  0  0  0
  189.4500  172.7420  139.2970 C   0  0  2  0  0  3  0  0  0  0  0  0
  190.3760  173.7820  139.3410 O   0  0  0  0  0  0  0  0  0  0  0  0
  189.1060  173.8280  137.1610 C   0  0  2  0  0  3  0  0  0  0  0  0
  191.5780  173.4810  137.2950 O   0  0  0  0  0  1  0  0  0  0  0  0
  187.9920  174.5270  137.8890 C   0  0  0  0  0  3  0  0  0  0  0  0
  187.1730  175.3630  137.2420 C   0  0  0  0  0  3  0  0  0  0  0  0
  186.6280  177.1130  138.8950 C   0  0  0  0  0  0  0  0  0  0  0  0
  186.1840  176.1580  137.9110 N   0  0  0  0  0  0  0  0  0  0  0  0
  187.4200  178.0260  138.5370 O   0  0  0  0  0  0  0  0  0  0  0  0
  184.9710  176.4410  137.1240 C   0  0  1  0  0  3  0  0  0  0  0  0
  185.0060  175.8240  135.8490 O   0  0  0  0  0  1  0  0  0  0  0  0
  183.7900  176.1900  137.8790 O   0  0  0  0  0  0  0  0  0  0  0  0
  182.8090  175.6190  137.0490 C   0  0  0  0  0  1  0  0  0  0  0  0
  186.0030  177.1150  140.2620 C   0  0  1  0  0  3  0  0  0  0  0  0
  187.0400  176.8880  141.3290 C   0  0  0  0  0  0  0  0  0  0  0  0
  187.3170  175.7510  141.6880 O   0  0  0  0  0  0  0  0  0  0  0  0
  187.6500  178.0760  142.0200 C   0  0  2  0  0  3  0  0  0  0  0  0
  189.0300  177.7380  142.5340 C   0  0  0  0  0  1  0  0  0  0  0  0
  186.8650  178.4970  143.0680 F   0  0  0  0  0  0  0  0  0  0  0  0
  183.8220  178.2920  140.5360 C   0  0  0  0  0  2  0  0  0  0  0  0
  185.1740  178.3310  140.5930 C   0  0  0  0  0  3  0  0  0  0  0  0
  2 10  1  0  0  0  0
  2  6  2  0  0  0  0
  3 12  1  0  0  0  0
  4  9  1  0  0  0  0
  4 11  2  0  0  0  0
  5  1  1  0  0  0  0
  5 14  1  0  0  0  0
  6 13  1  0  0  0  0
  7  8  1  0  0  0  0
  8 39  1  0  0  0  0
  8  1  2  0  0  0  0
  9  7  1  0  0  0  0
 10 33  1  6  0  0  0
 10  4  1  0  0  0  0
 12  5  2  0  0  0  0
 13  7  2  0  0  0  0
 13 12  1  0  0  0  0
 14 15  1  0  0  0  0
 15 16  1  0  0  0  0
 16 17  1  0  0  0  0
 17 18  1  0  0  0  0
 19 21  1  0  0  0  0
 19 18  1  0  0  0  0
 20 21  2  0  0  0  0
 20 24  1  0  0  0  0
 21 23  1  0  0  0  0
 23 22  1  0  0  0  0
 24 22  1  0  0  0  0
 24 25  1  1  0  0  0
 26 20  1  0  0  0  0
 27 26  1  0  0  0  0
 28 22  1  0  0  0  0
 28 29  1  0  0  0  0
 29 32  1  0  0  0  0
 29 31  1  0  0  0  0
 30 29  1  0  0  0  0
 34 37  1  6  0  0  0
 34 35  1  0  0  0  0
 34 38  1  0  0  0  0
 35 33  1  1  0  0  0
 36 34  1  0  0  0  0
 36 35  1  0  0  0  0
 40 42  1  0  0  0  0
 41 40  2  0  0  0  0
 43 42  2  0  0  0  0
 43 39  1  0  0  0  0
 44 43  1  0  0  0  0
 45 41  1  0  0  0  0
 45 44  2  0  0  0  0
 46 47  1  0  0  0  0
 46 48  1  0  0  0  0
 47 49  1  0  0  0  0
 48 49  1  0  0  0  0
 48 41  1  0  0  0  0
 50 46  1  0  0  0  0
 50 52  1  0  0  0  0
 50 47  1  0  0  0  0
 51 47  1  0  0  0  0
 53 52  2  0  0  0  0
 53 55  1  0  0  0  0
 54 61  1  0  0  0  0
 55 54  1  0  0  0  0
 56 54  2  0  0  0  0
 57 59  1  0  0  0  0
 57 55  1  0  0  0  0
 58 57  1  0  0  0  0
 60 59  1  0  0  0  0
 61 68  1  0  0  0  0
 61 62  1  0  0  0  0
 62 63  2  0  0  0  0
 62 64  1  0  0  0  0
 64 65  1  0  0  0  0
 64 66  1  0  0  0  0
 67 68  2  0  0  0  0
M  END
>  <MODEL>
4

>  <REMARK>
 VINA RESULT:      -4.9      2.801      5.778
  Name = 
  23 active torsions:
  status: ('A' for Active; 'I' for Inactive)
    1  A    between atoms: C_1  and  C_18
    2  A    between atoms: O_6  and  C_53
    3  A    between atoms: C_7  and  C_9
    4  A    between atoms: C_7  and  C_60
    5  A    between atoms: C_8  and  C_38
    6  A    between atoms: C_9  and  C_44
    7  A    between atoms: C_11  and  C_59
    8  A    between atoms: C_12  and  C_28
    9  A    between atoms: C_15  and  C_17
   10  A    between atoms: C_17  and  C_18
   11  A    between atoms: C_17  and  C_51
   12  A    between atoms: C_21  and  C_45
   13  A    between atoms: C_22  and  S_68
   14  A    between atoms: O_23  and  C_40
   15  A    between atoms: O_23  and  C_60
   16  A    between atoms: C_24  and  C_29
   17  A    between atoms: C_26  and  N_43
   18  A    between atoms: C_29  and  C_56
   19  A    between atoms: C_36  and  N_41
   20  A    between atoms: N_37  and  C_59
   21  A    between atoms: N_41  and  C_44
   22  A    between atoms: N_43  and  C_53
   23  A    between atoms: C_52  and  S_68
                            x       y       z     vdW  Elec       q    Type
                         _______ _______ _______ _____ _____    ______ ____

>  <TORSDO>
F 23

$$$$
=
 OpenBabel11042418563D

 68 74  0  0  1  0  0  0  0  0999 V2000
  195.6260  170.4420  140.6440 C   0  0  0  0  0  3  0  0  0  0  0  0
  196.3480  175.3400  142.5070 N   0  0  0  0  0  0  0  0  0  0  0  0
  197.6570  173.1820  139.3300 F   0  0  0  0  0  0  0  0  0  0  0  0
  194.0870  174.4430  142.7510 C   0  0  0  0  0  0  0  0  0  0  0  0
  196.4430  171.1850  139.7900 C   0  0  0  0  0  0  0  0  0  0  0  0
  196.8100  174.4550  141.6700 C   0  0  0  0  0  3  0  0  0  0  0  0
  195.2570  172.4130  142.0020 C   0  0  0  0  0  0  0  0  0  0  0  0
  195.0500  171.0490  141.7620 C   0  0  0  0  0  0  0  0  0  0  0  0
  194.3730  173.0670  142.9040 N   0  0  0  0  0  2  0  0  0  0  0  0
  195.1070  175.3770  143.2950 C   0  0  1  0  0  3  0  0  0  0  0  0
  193.1840  174.9340  141.4660 S   0  0  0  0  0  0  0  0  0  0  0  0
  196.7850  172.5030  140.1310 C   0  0  0  0  0  0  0  0  0  0  0  0
  196.2460  173.1260  141.2750 C   0  0  0  0  0  0  0  0  0  0  0  0
  196.8390  170.6270  138.5720 O   0  0  0  0  0  0  0  0  0  0  0  0
  196.9920  169.2280  138.3840 C   0  0  0  0  0  2  0  0  0  0  0  0
  197.7520  168.9430  137.1110 C   0  0  0  0  0  2  0  0  0  0  0  0
  197.7570  170.1920  136.2440 C   0  0  0  0  0  2  0  0  0  0  0  0
  196.6610  170.0830  135.1850 C   0  0  0  0  0  2  0  0  0  0  0  0
  196.0750  171.3910  134.9010 N   0  0  0  0  0  2  0  0  0  0  0  0
  194.8140  172.9050  136.3410 C   0  0  0  0  0  0  0  0  0  0  0  0
  194.9000  171.8400  135.5750 C   0  0  0  0  0  0  0  0  0  0  0  0
  192.7760  171.7120  136.4390 N   0  0  0  0  0  0  0  0  0  0  0  0
  193.7090  171.1570  135.5850 O   0  0  0  0  0  0  0  0  0  0  0  0
  193.4710  172.8850  137.0070 C   0  0  2  0  0  3  0  0  0  0  0  0
  192.6970  174.1450  136.6760 C   0  0  0  0  0  1  0  0  0  0  0  0
  195.9660  173.7530  136.7400 C   0  0  0  0  0  2  0  0  0  0  0  0
  196.2970  174.7430  135.6560 C   0  0  0  0  0  1  0  0  0  0  0  0
  192.5630  170.7200  137.5000 C   0  0  0  0  0  2  0  0  0  0  0  0
  191.1750  170.0540  137.4270 C   0  0  0  0  0  0  0  0  0  0  0  0
  190.1380  171.0240  137.9440 C   0  0  0  0  0  1  0  0  0  0  0  0
  191.1210  168.8120  138.3020 C   0  0  0  0  0  1  0  0  0  0  0  0
  190.8670  169.6910  136.1140 O   0  0  0  0  0  1  0  0  0  0  0  0
  195.3690  175.1350  144.8020 C   0  0  0  0  0  2  0  0  0  0  0  0
  193.5190  175.8600  146.3870 C   0  0  2  0  0  0  0  0  0  0  0  0
  194.7510  176.2560  145.6600 C   0  0  2  0  0  3  0  0  0  0  0  0
  193.1680  176.7550  144.8370 S   0  0  0  0  0  0  0  0  0  0  0  0
  193.1190  176.6140  147.4940 O   0  0  0  0  0  1  0  0  0  0  0  0
  193.1040  174.4620  146.3720 N   0  0  0  0  0  1  0  0  0  0  0  0
  194.1210  170.0250  142.8960 S   0  0  0  0  0  0  0  0  0  0  0  0
  190.6050  171.9530  143.4880 C   0  0  0  0  0  3  0  0  0  0  0  0
  190.2850  172.4220  142.2210 C   0  0  0  0  0  0  0  0  0  0  0  0
  191.6850  171.0880  143.6610 C   0  0  0  0  0  3  0  0  0  0  0  0
  192.4710  170.6810  142.5710 C   0  0  0  0  0  0  0  0  0  0  0  0
  192.1400  171.1440  141.2950 C   0  0  0  0  0  3  0  0  0  0  0  0
  191.0590  172.0180  141.1180 C   0  0  0  0  0  3  0  0  0  0  0  0
  188.1040  173.4020  141.5510 N   0  0  1  0  0  0  0  0  0  0  0  0
  188.5470  174.3970  140.5510 C   0  0  2  0  0  0  0  0  0  0  0  0
  189.4460  173.6400  142.0820 C   0  0  2  0  0  3  0  0  0  0  0  0
  189.8560  174.4880  141.0540 O   0  0  0  0  0  0  0  0  0  0  0  0
  187.3630  174.6680  141.4000 C   0  0  2  0  0  3  0  0  0  0  0  0
  188.3910  173.8680  139.2670 O   0  0  0  0  0  1  0  0  0  0  0  0
  187.6460  175.6000  142.5470 C   0  0  0  0  0  3  0  0  0  0  0  0
  186.7110  176.4500  142.9820 C   0  0  0  0  0  3  0  0  0  0  0  0
  188.2900  177.5120  144.5540 C   0  0  0  0  0  0  0  0  0  0  0  0
  186.9700  177.4500  143.9770 N   0  0  0  0  0  0  0  0  0  0  0  0
  189.2730  177.7170  143.7920 O   0  0  0  0  0  0  0  0  0  0  0  0
  186.1810  178.6870  143.8430 C   0  0  1  0  0  3  0  0  0  0  0  0
  185.2300  178.6020  142.7950 O   0  0  0  0  0  1  0  0  0  0  0  0
  185.6550  179.1090  145.0970 O   0  0  0  0  0  0  0  0  0  0  0  0
  184.2670  178.8870  145.1270 C   0  0  0  0  0  1  0  0  0  0  0  0
  188.4460  177.5190  146.0480 C   0  0  1  0  0  3  0  0  0  0  0  0
  187.9580  176.2260  146.6470 C   0  0  0  0  0  0  0  0  0  0  0  0
  187.0040  176.2230  147.4130 O   0  0  0  0  0  0  0  0  0  0  0  0
  188.7230  174.9600  146.3760 C   0  0  2  0  0  3  0  0  0  0  0  0
  189.6240  174.6270  147.5420 C   0  0  0  0  0  1  0  0  0  0  0  0
  189.4800  175.0740  145.2340 F   0  0  0  0  0  0  0  0  0  0  0  0
  190.0420  178.1930  147.8410 C   0  0  0  0  0  2  0  0  0  0  0  0
  189.8330  177.8340  146.5530 C   0  0  0  0  0  3  0  0  0  0  0  0
  1  8  1  0  0  0  0
  2 10  1  0  0  0  0
  3 12  1  0  0  0  0
  4  9  1  0  0  0  0
  4 10  1  0  0  0  0
  5 12  1  0  0  0  0
  5  1  2  0  0  0  0
  6  2  2  0  0  0  0
  7  9  1  0  0  0  0
  8  7  2  0  0  0  0
  8 39  1  0  0  0  0
 10 33  1  1  0  0  0
 11  4  2  0  0  0  0
 12 13  2  0  0  0  0
 13  6  1  0  0  0  0
 13  7  1  0  0  0  0
 14  5  1  0  0  0  0
 15 14  1  0  0  0  0
 16 15  1  0  0  0  0
 17 16  1  0  0  0  0
 18 17  1  0  0  0  0
 19 18  1  0  0  0  0
 19 21  1  0  0  0  0
 20 26  1  0  0  0  0
 20 24  1  0  0  0  0
 21 23  1  0  0  0  0
 21 20  2  0  0  0  0
 22 24  1  0  0  0  0
 22 28  1  0  0  0  0
 23 22  1  0  0  0  0
 24 25  1  6  0  0  0
 27 26  1  0  0  0  0
 29 28  1  0  0  0  0
 29 30  1  0  0  0  0
 29 31  1  0  0  0  0
 32 29  1  0  0  0  0
 34 38  1  1  0  0  0
 34 37  1  0  0  0  0
 35 33  1  6  0  0  0
 35 34  1  0  0  0  0
 36 35  1  0  0  0  0
 36 34  1  0  0  0  0
 40 42  1  0  0  0  0
 41 40  2  0  0  0  0
 43 39  1  0  0  0  0
 43 42  2  0  0  0  0
 44 43  1  0  0  0  0
 45 44  2  0  0  0  0
 45 41  1  0  0  0  0
 46 48  1  0  0  0  0
 47 49  1  0  0  0  0
 47 50  1  0  0  0  0
 47 46  1  0  0  0  0
 48 41  1  0  0  0  0
 49 48  1  0  0  0  0
 50 46  1  0  0  0  0
 50 52  1  0  0  0  0
 51 47  1  0  0  0  0
 52 53  2  0  0  0  0
 53 55  1  0  0  0  0
 54 61  1  0  0  0  0
 55 54  1  0  0  0  0
 56 54  2  0  0  0  0
 57 55  1  0  0  0  0
 57 59  1  0  0  0  0
 58 57  1  0  0  0  0
 59 60  1  0  0  0  0
 61 68  1  0  0  0  0
 61 62  1  0  0  0  0
 62 63  2  0  0  0  0
 64 62  1  0  0  0  0
 64 65  1  0  0  0  0
 66 64  1  0  0  0  0
 68 67  2  0  0  0  0
M  END
>  <MODEL>
5

>  <REMARK>
 VINA RESULT:      -4.7      2.628      6.529
  Name = 
  23 active torsions:
  status: ('A' for Active; 'I' for Inactive)
    1  A    between atoms: C_1  and  C_18
    2  A    between atoms: O_6  and  C_53
    3  A    between atoms: C_7  and  C_9
    4  A    between atoms: C_7  and  C_60
    5  A    between atoms: C_8  and  C_38
    6  A    between atoms: C_9  and  C_44
    7  A    between atoms: C_11  and  C_59
    8  A    between atoms: C_12  and  C_28
    9  A    between atoms: C_15  and  C_17
   10  A    between atoms: C_17  and  C_18
   11  A    between atoms: C_17  and  C_51
   12  A    between atoms: C_21  and  C_45
   13  A    between atoms: C_22  and  S_68
   14  A    between atoms: O_23  and  C_40
   15  A    between atoms: O_23  and  C_60
   16  A    between atoms: C_24  and  C_29
   17  A    between atoms: C_26  and  N_43
   18  A    between atoms: C_29  and  C_56
   19  A    between atoms: C_36  and  N_41
   20  A    between atoms: N_37  and  C_59
   21  A    between atoms: N_41  and  C_44
   22  A    between atoms: N_43  and  C_53
   23  A    between atoms: C_52  and  S_68
                            x       y       z     vdW  Elec       q    Type
                         _______ _______ _______ _____ _____    ______ ____

>  <TORSDO>
F 23

$$$$
=
 OpenBabel11042418563D

 68 74  0  0  1  0  0  0  0  0999 V2000
  191.3820  176.6750  145.6450 C   0  0  0  0  0  3  0  0  0  0  0  0
  190.6450  171.6200  144.2700 N   0  0  0  0  0  0  0  0  0  0  0  0
  188.3020  174.8840  144.8300 F   0  0  0  0  0  0  0  0  0  0  0  0
  192.6640  172.6720  143.3770 C   0  0  0  0  0  0  0  0  0  0  0  0
  190.0380  176.4250  145.3630 C   0  0  0  0  0  0  0  0  0  0  0  0
  190.0360  172.6990  144.6750 C   0  0  0  0  0  3  0  0  0  0  0  0
  191.9440  174.4270  144.9430 C   0  0  0  0  0  0  0  0  0  0  0  0
  192.3330  175.6690  145.4570 C   0  0  0  0  0  0  0  0  0  0  0  0
  192.9600  173.5810  144.4170 N   0  0  0  0  0  2  0  0  0  0  0  0
  192.0200  171.3990  143.7970 C   0  0  1  0  0  3  0  0  0  0  0  0
  192.3320  173.2550  141.8750 S   0  0  0  0  0  0  0  0  0  0  0  0
  189.6320  175.1280  145.0140 C   0  0  0  0  0  0  0  0  0  0  0  0
  190.5680  174.0870  144.8550 C   0  0  0  0  0  0  0  0  0  0  0  0
  189.1360  177.4920  145.3550 O   0  0  0  0  0  0  0  0  0  0  0  0
  188.4670  177.9220  144.1780 C   0  0  0  0  0  2  0  0  0  0  0  0
  189.4040  177.9010  142.9960 C   0  0  0  0  0  2  0  0  0  0  0  0
  189.0580  176.7160  142.1070 C   0  0  0  0  0  2  0  0  0  0  0  0
  187.6630  176.9120  141.5170 C   0  0  0  0  0  2  0  0  0  0  0  0
  186.6370  176.3670  142.4030 N   0  0  0  0  0  2  0  0  0  0  0  0
  185.0140  178.1890  142.4670 C   0  0  0  0  0  0  0  0  0  0  0  0
  185.6840  177.2140  143.0430 C   0  0  0  0  0  0  0  0  0  0  0  0
  184.5670  178.2060  144.7890 N   0  0  0  0  0  0  0  0  0  0  0  0
  185.4030  177.1800  144.3870 O   0  0  0  0  0  0  0  0  0  0  0  0
  184.2900  178.9440  143.5410 C   0  0  2  0  0  3  0  0  0  0  0  0
  182.7990  178.9470  143.2710 C   0  0  0  0  0  1  0  0  0  0  0  0
  185.2370  178.6590  141.0770 C   0  0  0  0  0  2  0  0  0  0  0  0
  184.3010  177.9610  140.1250 C   0  0  0  0  0  1  0  0  0  0  0  0
  185.3710  179.0510  145.6790 C   0  0  0  0  0  2  0  0  0  0  0  0
  185.4580  178.4970  147.1150 C   0  0  0  0  0  0  0  0  0  0  0  0
  186.3320  179.4120  147.9410 C   0  0  0  0  0  1  0  0  0  0  0  0
  186.0940  177.1160  147.1280 C   0  0  0  0  0  1  0  0  0  0  0  0
  184.1890  178.4110  147.6910 O   0  0  0  0  0  1  0  0  0  0  0  0
  192.8760  170.6340  144.8370 C   0  0  0  0  0  2  0  0  0  0  0  0
  194.9320  169.3150  144.1350 C   0  0  2  0  0  0  0  0  0  0  0  0
  194.3670  170.6520  144.4500 C   0  0  2  0  0  3  0  0  0  0  0  0
  195.2950  169.8530  145.8390 S   0  0  0  0  0  0  0  0  0  0  0  0
  196.1060  169.2420  143.3790 O   0  0  0  0  0  1  0  0  0  0  0  0
  194.0370  168.1670  144.0530 N   0  0  0  0  0  1  0  0  0  0  0  0
  194.0180  175.9950  145.9590 S   0  0  0  0  0  0  0  0  0  0  0  0
  196.0660  174.6080  142.7470 C   0  0  0  0  0  3  0  0  0  0  0  0
  195.4820  175.2820  141.6840 C   0  0  0  0  0  0  0  0  0  0  0  0
  195.7320  174.9440  144.0590 C   0  0  0  0  0  3  0  0  0  0  0  0
  194.8000  175.9600  144.3320 C   0  0  0  0  0  0  0  0  0  0  0  0
  194.2220  176.6450  143.2610 C   0  0  0  0  0  3  0  0  0  0  0  0
  194.5520  176.3050  141.9420 C   0  0  0  0  0  3  0  0  0  0  0  0
  196.7150  173.9380  139.9990 N   0  0  1  0  0  0  0  0  0  0  0  0
  196.7120  174.8690  138.8510 C   0  0  2  0  0  0  0  0  0  0  0  0
  195.4920  174.6670  140.3320 C   0  0  2  0  0  3  0  0  0  0  0  0
  195.5930  175.5940  139.2970 O   0  0  0  0  0  0  0  0  0  0  0  0
  196.6560  173.4060  138.6250 C   0  0  2  0  0  3  0  0  0  0  0  0
  197.9320  175.5480  138.7990 O   0  0  0  0  0  1  0  0  0  0  0  0
  195.2780  172.9000  138.3010 C   0  0  0  0  0  3  0  0  0  0  0  0
  194.9270  171.6420  138.5870 C   0  0  0  0  0  3  0  0  0  0  0  0
  193.2480  171.2720  136.8170 C   0  0  0  0  0  0  0  0  0  0  0  0
  193.6780  171.0690  138.1780 N   0  0  0  0  0  0  0  0  0  0  0  0
  193.9840  170.8540  135.8830 O   0  0  0  0  0  0  0  0  0  0  0  0
  193.2970  169.8310  138.8800 C   0  0  1  0  0  3  0  0  0  0  0  0
  194.0990  168.7290  138.4920 O   0  0  0  0  0  1  0  0  0  0  0  0
  193.2000  170.0370  140.2860 O   0  0  0  0  0  0  0  0  0  0  0  0
  192.4750  168.9840  140.8710 C   0  0  0  0  0  1  0  0  0  0  0  0
  191.8670  171.7980  136.5470 C   0  0  1  0  0  3  0  0  0  0  0  0
  191.9180  173.0100  135.6540 C   0  0  0  0  0  0  0  0  0  0  0  0
  192.3490  172.9180  134.5130 O   0  0  0  0  0  0  0  0  0  0  0  0
  191.5330  174.3500  136.2190 C   0  0  2  0  0  3  0  0  0  0  0  0
  191.8710  175.4520  135.2420 C   0  0  0  0  0  1  0  0  0  0  0  0
  192.1730  174.5880  137.4120 F   0  0  0  0  0  0  0  0  0  0  0  0
  191.2920  169.5630  135.6050 C   0  0  0  0  0  2  0  0  0  0  0  0
  190.8850  170.7910  136.0000 C   0  0  0  0  0  3  0  0  0  0  0  0
  2  6  2  0  0  0  0
  3 12  1  0  0  0  0
  4 10  1  0  0  0  0
  4  9  1  0  0  0  0
  5  1  2  0  0  0  0
  6 13  1  0  0  0  0
  7  8  2  0  0  0  0
  8  1  1  0  0  0  0
  8 39  1  0  0  0  0
  9  7  1  0  0  0  0
 10  2  1  0  0  0  0
 10 33  1  1  0  0  0
 11  4  2  0  0  0  0
 12  5  1  0  0  0  0
 13  7  1  0  0  0  0
 13 12  2  0  0  0  0
 14  5  1  0  0  0  0
 15 14  1  0  0  0  0
 16 15  1  0  0  0  0
 17 16  1  0  0  0  0
 18 17  1  0  0  0  0
 18 19  1  0  0  0  0
 19 21  1  0  0  0  0
 20 21  2  0  0  0  0
 20 24  1  0  0  0  0
 21 23  1  0  0  0  0
 22 28  1  0  0  0  0
 23 22  1  0  0  0  0
 24 25  1  6  0  0  0
 24 22  1  0  0  0  0
 26 20  1  0  0  0  0
 27 26  1  0  0  0  0
 28 29  1  0  0  0  0
 29 31  1  0  0  0  0
 29 32  1  0  0  0  0
 29 30  1  0  0  0  0
 34 37  1  6  0  0  0
 34 35  1  0  0  0  0
 34 36  1  0  0  0  0
 35 33  1  1  0  0  0
 35 36  1  0  0  0  0
 38 34  1  0  0  0  0
 40 42  1  0  0  0  0
 41 45  1  0  0  0  0
 41 40  2  0  0  0  0
 42 43  2  0  0  0  0
 43 39  1  0  0  0  0
 44 43  1  0  0  0  0
 45 44  2  0  0  0  0
 46 48  1  0  0  0  0
 47 49  1  0  0  0  0
 47 46  1  0  0  0  0
 48 41  1  0  0  0  0
 49 48  1  0  0  0  0
 50 47  1  0  0  0  0
 50 46  1  0  0  0  0
 51 47  1  0  0  0  0
 52 53  2  0  0  0  0
 52 50  1  0  0  0  0
 54 55  1  0  0  0  0
 55 53  1  0  0  0  0
 55 57  1  0  0  0  0
 56 54  2  0  0  0  0
 57 59  1  0  0  0  0
 58 57  1  0  0  0  0
 59 60  1  0  0  0  0
 61 54  1  0  0  0  0
 62 64  1  0  0  0  0
 62 61  1  0  0  0  0
 63 62  2  0  0  0  0
 64 66  1  0  0  0  0
 65 64  1  0  0  0  0
 67 68  2  0  0  0  0
 68 61  1  0  0  0  0
M  END
>  <MODEL>
6

>  <REMARK>
 VINA RESULT:      -4.4      2.823     10.463
  Name = 
  23 active torsions:
  status: ('A' for Active; 'I' for Inactive)
    1  A    between atoms: C_1  and  C_18
    2  A    between atoms: O_6  and  C_53
    3  A    between atoms: C_7  and  C_9
    4  A    between atoms: C_7  and  C_60
    5  A    between atoms: C_8  and  C_38
    6  A    between atoms: C_9  and  C_44
    7  A    between atoms: C_11  and  C_59
    8  A    between atoms: C_12  and  C_28
    9  A    between atoms: C_15  and  C_17
   10  A    between atoms: C_17  and  C_18
   11  A    between atoms: C_17  and  C_51
   12  A    between atoms: C_21  and  C_45
   13  A    between atoms: C_22  and  S_68
   14  A    between atoms: O_23  and  C_40
   15  A    between atoms: O_23  and  C_60
   16  A    between atoms: C_24  and  C_29
   17  A    between atoms: C_26  and  N_43
   18  A    between atoms: C_29  and  C_56
   19  A    between atoms: C_36  and  N_41
   20  A    between atoms: N_37  and  C_59
   21  A    between atoms: N_41  and  C_44
   22  A    between atoms: N_43  and  C_53
   23  A    between atoms: C_52  and  S_68
                            x       y       z     vdW  Elec       q    Type
                         _______ _______ _______ _____ _____    ______ ____

>  <TORSDO>
F 23

$$$$
=
 OpenBabel11042418563D

 68 74  0  0  1  0  0  0  0  0999 V2000
  189.9970  175.1310  144.4710 C   0  0  0  0  0  3  0  0  0  0  0  0
  191.9580  171.2480  141.4620 N   0  0  0  0  0  0  0  0  0  0  0  0
  190.4560  171.5830  145.2160 F   0  0  0  0  0  0  0  0  0  0  0  0
  190.5920  172.9020  140.2890 C   0  0  0  0  0  0  0  0  0  0  0  0
  189.9350  173.9060  145.1350 C   0  0  0  0  0  0  0  0  0  0  0  0
  191.6350  171.5710  142.6820 C   0  0  0  0  0  3  0  0  0  0  0  0
  190.7890  174.0080  142.4780 C   0  0  0  0  0  0  0  0  0  0  0  0
  190.4450  175.1870  143.1490 C   0  0  0  0  0  0  0  0  0  0  0  0
  190.8700  174.0550  141.0580 N   0  0  0  0  0  2  0  0  0  0  0  0
  191.7010  171.9190  140.1780 C   0  0  1  0  0  3  0  0  0  0  0  0
  189.0460  172.3470  140.2100 S   0  0  0  0  0  0  0  0  0  0  0  0
  190.4440  172.7540  144.5150 C   0  0  0  0  0  0  0  0  0  0  0  0
  190.9360  172.7920  143.1960 C   0  0  0  0  0  0  0  0  0  0  0  0
  189.2930  173.8360  146.3750 O   0  0  0  0  0  0  0  0  0  0  0  0
  189.3630  174.8810  147.3340 C   0  0  0  0  0  2  0  0  0  0  0  0
  190.4960  175.8250  147.0110 C   0  0  0  0  0  2  0  0  0  0  0  0
  191.7940  175.2530  147.5600 C   0  0  0  0  0  2  0  0  0  0  0  0
  192.8660  175.2840  146.4730 C   0  0  0  0  0  2  0  0  0  0  0  0
  193.4480  173.9590  146.2720 N   0  0  0  0  0  2  0  0  0  0  0  0
  194.8160  172.5100  144.8620 C   0  0  0  0  0  0  0  0  0  0  0  0
  194.2390  173.6630  145.1220 C   0  0  0  0  0  0  0  0  0  0  0  0
  195.4840  174.0940  143.2400 N   0  0  0  0  0  0  0  0  0  0  0  0
  194.5810  174.5850  144.1640 O   0  0  0  0  0  0  0  0  0  0  0  0
  195.7080  172.7000  143.6720 C   0  0  2  0  0  3  0  0  0  0  0  0
  195.3140  171.7520  142.5590 C   0  0  0  0  0  1  0  0  0  0  0  0
  194.8500  171.3550  145.7940 C   0  0  0  0  0  2  0  0  0  0  0  0
  196.0160  170.4550  145.4810 C   0  0  0  0  0  1  0  0  0  0  0  0
  196.7170  174.8640  143.4380 C   0  0  0  0  0  2  0  0  0  0  0  0
  196.8900  175.9960  142.4060 C   0  0  0  0  0  0  0  0  0  0  0  0
  197.3090  177.2560  143.1270 C   0  0  0  0  0  1  0  0  0  0  0  0
  195.5790  176.2870  141.6920 C   0  0  0  0  0  1  0  0  0  0  0  0
  197.8530  175.6560  141.4530 O   0  0  0  0  0  1  0  0  0  0  0  0
  192.9840  172.5560  139.5900 C   0  0  0  0  0  2  0  0  0  0  0  0
  193.8430  173.1040  137.2620 C   0  0  2  0  0  0  0  0  0  0  0  0
  192.7070  173.1910  138.2140 C   0  0  2  0  0  3  0  0  0  0  0  0
  193.7480  174.7190  138.1040 S   0  0  0  0  0  0  0  0  0  0  0  0
  193.5880  173.2450  135.8950 O   0  0  0  0  0  1  0  0  0  0  0  0
  195.0140  172.3140  137.6230 N   0  0  0  0  0  1  0  0  0  0  0  0
  190.6320  176.7940  142.3860 S   0  0  0  0  0  0  0  0  0  0  0  0
  186.6040  176.3490  142.3100 C   0  0  0  0  0  3  0  0  0  0  0  0
  186.1410  177.6580  142.3050 C   0  0  0  0  0  0  0  0  0  0  0  0
  187.9670  176.0880  142.1710 C   0  0  0  0  0  3  0  0  0  0  0  0
  188.8950  177.1330  142.0300 C   0  0  0  0  0  0  0  0  0  0  0  0
  188.4260  178.4480  142.0130 C   0  0  0  0  0  3  0  0  0  0  0  0
  187.0590  178.7140  142.1580 C   0  0  0  0  0  3  0  0  0  0  0  0
  184.6840  179.2850  143.4850 N   0  0  1  0  0  0  0  0  0  0  0  0
  184.2580  178.4780  144.6480 C   0  0  2  0  0  0  0  0  0  0  0  0
  184.8020  177.9640  142.8690 C   0  0  2  0  0  3  0  0  0  0  0  0
  184.5030  177.2430  144.0230 O   0  0  0  0  0  0  0  0  0  0  0  0
  183.3410  179.4820  144.0610 C   0  0  2  0  0  3  0  0  0  0  0  0
  185.0490  178.8010  145.7540 O   0  0  0  0  0  1  0  0  0  0  0  0
  182.2810  178.8850  143.1760 C   0  0  0  0  0  3  0  0  0  0  0  0
  181.2390  179.6160  142.7690 C   0  0  0  0  0  3  0  0  0  0  0  0
  180.4030  178.4320  140.7730 C   0  0  0  0  0  0  0  0  0  0  0  0
  180.1350  179.0620  142.0410 N   0  0  0  0  0  0  0  0  0  0  0  0
  181.1880  177.4460  140.7420 O   0  0  0  0  0  0  0  0  0  0  0  0
  179.0190  178.5740  142.8700 C   0  0  1  0  0  3  0  0  0  0  0  0
  178.8020  177.1830  142.7060 O   0  0  0  0  0  1  0  0  0  0  0  0
  179.1450  179.0050  144.2210 O   0  0  0  0  0  0  0  0  0  0  0  0
  178.3890  178.1670  145.0590 C   0  0  0  0  0  1  0  0  0  0  0  0
  179.6090  178.8350  139.5620 C   0  0  1  0  0  3  0  0  0  0  0  0
  178.6720  177.7350  139.1420 C   0  0  0  0  0  0  0  0  0  0  0  0
  177.7380  177.4110  139.8620 O   0  0  0  0  0  0  0  0  0  0  0  0
  178.9610  176.9700  137.8790 C   0  0  2  0  0  3  0  0  0  0  0  0
  177.6950  176.3520  137.3330 C   0  0  0  0  0  1  0  0  0  0  0  0
  179.8910  175.9820  138.1000 F   0  0  0  0  0  0  0  0  0  0  0  0
  179.5130  181.3230  139.6820 C   0  0  0  0  0  2  0  0  0  0  0  0
  178.8590  180.1390  139.6840 C   0  0  0  0  0  3  0  0  0  0  0  0
  1  5  1  0  0  0  0
  2  6  2  0  0  0  0
  4  9  1  0  0  0  0
  5 14  1  0  0  0  0
  6 13  1  0  0  0  0
  7  8  1  0  0  0  0
  7 13  2  0  0  0  0
  8  1  2  0  0  0  0
  9  7  1  0  0  0  0
 10 33  1  1  0  0  0
 10  4  1  0  0  0  0
 10  2  1  0  0  0  0
 11  4  2  0  0  0  0
 12  5  2  0  0  0  0
 12  3  1  0  0  0  0
 13 12  1  0  0  0  0
 14 15  1  0  0  0  0
 16 15  1  0  0  0  0
 16 17  1  0  0  0  0
 18 17  1  0  0  0  0
 19 18  1  0  0  0  0
 20 21  2  0  0  0  0
 20 26  1  0  0  0  0
 21 19  1  0  0  0  0
 22 28  1  0  0  0  0
 22 24  1  0  0  0  0
 22 23  1  0  0  0  0
 23 21  1  0  0  0  0
 24 25  1  6  0  0  0
 24 20  1  0  0  0  0
 27 26  1  0  0  0  0
 29 30  1  0  0  0  0
 29 28  1  0  0  0  0
 31 29  1  0  0  0  0
 32 29  1  0  0  0  0
 34 37  1  6  0  0  0
 34 38  1  0  0  0  0
 34 36  1  0  0  0  0
 34 35  1  0  0  0  0
 35 33  1  1  0  0  0
 36 35  1  0  0  0  0
 39  8  1  0  0  0  0
 41 40  1  0  0  0  0
 41 48  1  0  0  0  0
 42 40  2  0  0  0  0
 43 42  1  0  0  0  0
 43 39  1  0  0  0  0
 44 43  2  0  0  0  0
 44 45  1  0  0  0  0
 45 41  2  0  0  0  0
 46 50  1  0  0  0  0
 46 47  1  0  0  0  0
 47 51  1  0  0  0  0
 48 46  1  0  0  0  0
 48 49  1  0  0  0  0
 49 47  1  0  0  0  0
 50 47  1  0  0  0  0
 52 50  1  0  0  0  0
 53 52  2  0  0  0  0
 54 55  1  0  0  0  0
 55 53  1  0  0  0  0
 55 57  1  0  0  0  0
 56 54  2  0  0  0  0
 57 59  1  0  0  0  0
 58 57  1  0  0  0  0
 59 60  1  0  0  0  0
 61 68  1  0  0  0  0
 61 54  1  0  0  0  0
 62 61  1  0  0  0  0
 62 63  2  0  0  0  0
 64 66  1  0  0  0  0
 64 62  1  0  0  0  0
 65 64  1  0  0  0  0
 67 68  2  0  0  0  0
M  END
>  <MODEL>
7

>  <REMARK>
 VINA RESULT:      -4.2      3.853      6.978
  Name = 
  23 active torsions:
  status: ('A' for Active; 'I' for Inactive)
    1  A    between atoms: C_1  and  C_18
    2  A    between atoms: O_6  and  C_53
    3  A    between atoms: C_7  and  C_9
    4  A    between atoms: C_7  and  C_60
    5  A    between atoms: C_8  and  C_38
    6  A    between atoms: C_9  and  C_44
    7  A    between atoms: C_11  and  C_59
    8  A    between atoms: C_12  and  C_28
    9  A    between atoms: C_15  and  C_17
   10  A    between atoms: C_17  and  C_18
   11  A    between atoms: C_17  and  C_51
   12  A    between atoms: C_21  and  C_45
   13  A    between atoms: C_22  and  S_68
   14  A    between atoms: O_23  and  C_40
   15  A    between atoms: O_23  and  C_60
   16  A    between atoms: C_24  and  C_29
   17  A    between atoms: C_26  and  N_43
   18  A    between atoms: C_29  and  C_56
   19  A    between atoms: C_36  and  N_41
   20  A    between atoms: N_37  and  C_59
   21  A    between atoms: N_41  and  C_44
   22  A    between atoms: N_43  and  C_53
   23  A    between atoms: C_52  and  S_68
                            x       y       z     vdW  Elec       q    Type
                         _______ _______ _______ _____ _____    ______ ____

>  <TORSDO>
F 23

$$$$
=
 OpenBabel11042418563D

 68 74  0  0  1  0  0  0  0  0999 V2000
  195.4960  170.3840  140.6340 C   0  0  0  0  0  3  0  0  0  0  0  0
  196.4350  175.1770  142.6650 N   0  0  0  0  0  0  0  0  0  0  0  0
  197.5220  173.1330  139.3330 F   0  0  0  0  0  0  0  0  0  0  0  0
  194.1680  174.3200  142.9910 C   0  0  0  0  0  0  0  0  0  0  0  0
  196.2850  171.1450  139.7710 C   0  0  0  0  0  0  0  0  0  0  0  0
  196.8310  174.3200  141.7670 C   0  0  0  0  0  3  0  0  0  0  0  0
  195.2470  172.3000  142.0930 C   0  0  0  0  0  0  0  0  0  0  0  0
  194.9940  170.9530  141.8070 C   0  0  0  0  0  0  0  0  0  0  0  0
  194.4280  172.9330  143.0690 N   0  0  0  0  0  2  0  0  0  0  0  0
  195.2380  175.2060  143.5200 C   0  0  1  0  0  3  0  0  0  0  0  0
  193.2120  174.8880  141.7790 S   0  0  0  0  0  0  0  0  0  0  0  0
  196.6770  172.4390  140.1490 C   0  0  0  0  0  0  0  0  0  0  0  0
  196.2140  173.0220  141.3460 C   0  0  0  0  0  0  0  0  0  0  0  0
  196.6030  170.6330  138.5110 O   0  0  0  0  0  0  0  0  0  0  0  0
  197.2290  169.3710  138.3310 C   0  0  0  0  0  2  0  0  0  0  0  0
  197.9400  169.3140  137.0010 C   0  0  0  0  0  2  0  0  0  0  0  0
  197.6360  170.5830  136.2190 C   0  0  0  0  0  2  0  0  0  0  0  0
  196.4050  170.3600  135.3420 C   0  0  0  0  0  2  0  0  0  0  0  0
  196.0940  171.5550  134.5610 N   0  0  0  0  0  2  0  0  0  0  0  0
  195.0660  173.5110  135.5970 C   0  0  0  0  0  0  0  0  0  0  0  0
  194.9930  172.3980  134.9020 C   0  0  0  0  0  0  0  0  0  0  0  0
  192.7940  172.9940  135.1950 N   0  0  0  0  0  0  0  0  0  0  0  0
  193.6820  172.1030  134.6200 O   0  0  0  0  0  0  0  0  0  0  0  0
  193.6660  173.9580  135.8960 C   0  0  2  0  0  3  0  0  0  0  0  0
  193.4270  175.3510  135.3510 C   0  0  0  0  0  1  0  0  0  0  0  0
  196.2950  174.0140  136.2600 C   0  0  0  0  0  2  0  0  0  0  0  0
  196.0210  175.3110  136.9740 C   0  0  0  0  0  1  0  0  0  0  0  0
  192.0370  172.2210  136.1860 C   0  0  0  0  0  2  0  0  0  0  0  0
  190.5580  172.0320  135.7960 C   0  0  0  0  0  0  0  0  0  0  0  0
  189.8290  171.3710  136.9430 C   0  0  0  0  0  1  0  0  0  0  0  0
  190.4260  171.1250  134.5830 C   0  0  0  0  0  1  0  0  0  0  0  0
  189.9610  173.2610  135.5040 O   0  0  0  0  0  1  0  0  0  0  0  0
  195.5730  174.8920  144.9990 C   0  0  0  0  0  2  0  0  0  0  0  0
  193.6830  175.8730  146.3860 C   0  0  2  0  0  0  0  0  0  0  0  0
  195.0880  176.0200  145.9290 C   0  0  2  0  0  3  0  0  0  0  0  0
  193.8510  177.0140  144.9730 S   0  0  0  0  0  0  0  0  0  0  0  0
  193.2720  176.5610  147.5310 O   0  0  0  0  0  1  0  0  0  0  0  0
  192.9600  174.6450  146.0740 N   0  0  0  0  0  1  0  0  0  0  0  0
  194.1020  169.9000  142.9440 S   0  0  0  0  0  0  0  0  0  0  0  0
  190.7890  172.1270  143.6470 C   0  0  0  0  0  3  0  0  0  0  0  0
  190.3140  172.3990  142.3710 C   0  0  0  0  0  0  0  0  0  0  0  0
  191.8450  171.2340  143.8250 C   0  0  0  0  0  3  0  0  0  0  0  0
  192.4520  170.6000  142.7280 C   0  0  0  0  0  0  0  0  0  0  0  0
  191.9650  170.8660  141.4460 C   0  0  0  0  0  3  0  0  0  0  0  0
  190.9080  171.7670  141.2630 C   0  0  0  0  0  3  0  0  0  0  0  0
  188.1430  173.3920  141.6880 N   0  0  1  0  0  0  0  0  0  0  0  0
  188.5770  174.2530  140.5680 C   0  0  2  0  0  0  0  0  0  0  0  0
  189.5160  173.6290  142.1330 C   0  0  2  0  0  3  0  0  0  0  0  0
  189.9100  174.3420  141.0030 O   0  0  0  0  0  0  0  0  0  0  0  0
  187.4440  174.6650  141.4300 C   0  0  2  0  0  3  0  0  0  0  0  0
  188.3430  173.5950  139.3570 O   0  0  0  0  0  1  0  0  0  0  0  0
  187.8150  175.7020  142.4540 C   0  0  0  0  0  3  0  0  0  0  0  0
  187.3080  175.6520  143.6910 C   0  0  0  0  0  3  0  0  0  0  0  0
  186.3700  177.2200  145.3490 C   0  0  0  0  0  0  0  0  0  0  0  0
  187.5190  176.6860  144.6610 N   0  0  0  0  0  0  0  0  0  0  0  0
  185.6570  176.4370  146.0330 O   0  0  0  0  0  0  0  0  0  0  0  0
  188.8200  176.6420  145.3520 C   0  0  1  0  0  3  0  0  0  0  0  0
  189.7550  177.5440  144.7870 O   0  0  0  0  0  1  0  0  0  0  0  0
  188.6640  176.7460  146.7630 O   0  0  0  0  0  0  0  0  0  0  0  0
  189.7370  177.4750  147.3060 C   0  0  0  0  0  1  0  0  0  0  0  0
  186.1560  178.7070  145.3920 C   0  0  1  0  0  3  0  0  0  0  0  0
  185.3060  179.1620  144.2360 C   0  0  0  0  0  0  0  0  0  0  0  0
  184.8010  180.2760  144.2420 O   0  0  0  0  0  0  0  0  0  0  0  0
  184.9980  178.1920  143.1280 C   0  0  2  0  0  3  0  0  0  0  0  0
  185.2690  178.8230  141.7820 C   0  0  0  0  0  1  0  0  0  0  0  0
  183.6880  177.7780  143.1810 F   0  0  0  0  0  0  0  0  0  0  0  0
  186.2220  179.0020  147.8660 C   0  0  0  0  0  2  0  0  0  0  0  0
  185.6020  179.2450  146.6880 C   0  0  0  0  0  3  0  0  0  0  0  0
  1  8  1  0  0  0  0
  2 10  1  0  0  0  0
  3 12  1  0  0  0  0
  4  9  1  0  0  0  0
  4 10  1  0  0  0  0
  5 12  1  0  0  0  0
  5  1  2  0  0  0  0
  6  2  2  0  0  0  0
  7  9  1  0  0  0  0
  8  7  2  0  0  0  0
  8 39  1  0  0  0  0
 10 33  1  1  0  0  0
 11  4  2  0  0  0  0
 12 13  2  0  0  0  0
 13  6  1  0  0  0  0
 13  7  1  0  0  0  0
 14  5  1  0  0  0  0
 15 14  1  0  0  0  0
 16 15  1  0  0  0  0
 17 16  1  0  0  0  0
 18 17  1  0  0  0  0
 19 21  1  0  0  0  0
 19 18  1  0  0  0  0
 20 24  1  0  0  0  0
 20 26  1  0  0  0  0
 21 20  2  0  0  0  0
 22 24  1  0  0  0  0
 22 28  1  0  0  0  0
 23 21  1  0  0  0  0
 23 22  1  0  0  0  0
 24 25  1  6  0  0  0
 26 27  1  0  0  0  0
 29 28  1  0  0  0  0
 29 30  1  0  0  0  0
 31 29  1  0  0  0  0
 32 29  1  0  0  0  0
 34 38  1  6  0  0  0
 34 37  1  0  0  0  0
 35 33  1  6  0  0  0
 35 34  1  0  0  0  0
 36 35  1  0  0  0  0
 36 34  1  0  0  0  0
 40 42  1  0  0  0  0
 41 40  2  0  0  0  0
 43 39  1  0  0  0  0
 43 42  2  0  0  0  0
 44 43  1  0  0  0  0
 45 44  2  0  0  0  0
 45 41  1  0  0  0  0
 46 48  1  0  0  0  0
 47 49  1  0  0  0  0
 47 50  1  0  0  0  0
 47 46  1  0  0  0  0
 48 41  1  0  0  0  0
 49 48  1  0  0  0  0
 50 46  1  0  0  0  0
 50 52  1  0  0  0  0
 51 47  1  0  0  0  0
 52 53  2  0  0  0  0
 53 55  1  0  0  0  0
 54 61  1  0  0  0  0
 54 56  2  0  0  0  0
 55 54  1  0  0  0  0
 55 57  1  0  0  0  0
 57 59  1  0  0  0  0
 58 57  1  0  0  0  0
 59 60  1  0  0  0  0
 61 68  1  0  0  0  0
 62 63  2  0  0  0  0
 62 61  1  0  0  0  0
 64 66  1  0  0  0  0
 64 62  1  0  0  0  0
 65 64  1  0  0  0  0
 68 67  2  0  0  0  0
M  END
>  <MODEL>
8

>  <REMARK>
 VINA RESULT:      -4.2      2.768      6.885
  Name = 
  23 active torsions:
  status: ('A' for Active; 'I' for Inactive)
    1  A    between atoms: C_1  and  C_18
    2  A    between atoms: O_6  and  C_53
    3  A    between atoms: C_7  and  C_9
    4  A    between atoms: C_7  and  C_60
    5  A    between atoms: C_8  and  C_38
    6  A    between atoms: C_9  and  C_44
    7  A    between atoms: C_11  and  C_59
    8  A    between atoms: C_12  and  C_28
    9  A    between atoms: C_15  and  C_17
   10  A    between atoms: C_17  and  C_18
   11  A    between atoms: C_17  and  C_51
   12  A    between atoms: C_21  and  C_45
   13  A    between atoms: C_22  and  S_68
   14  A    between atoms: O_23  and  C_40
   15  A    between atoms: O_23  and  C_60
   16  A    between atoms: C_24  and  C_29
   17  A    between atoms: C_26  and  N_43
   18  A    between atoms: C_29  and  C_56
   19  A    between atoms: C_36  and  N_41
   20  A    between atoms: N_37  and  C_59
   21  A    between atoms: N_41  and  C_44
   22  A    between atoms: N_43  and  C_53
   23  A    between atoms: C_52  and  S_68
                            x       y       z     vdW  Elec       q    Type
                         _______ _______ _______ _____ _____    ______ ____

>  <TORSDO>
F 23

$$$$
=
 OpenBabel11042418563D

 68 74  0  0  1  0  0  0  0  0999 V2000
  191.1210  170.9630  138.9350 C   0  0  0  0  0  3  0  0  0  0  0  0
  196.2560  171.0340  137.6680 N   0  0  0  0  0  0  0  0  0  0  0  0
  193.9100  169.0490  140.3180 F   0  0  0  0  0  0  0  0  0  0  0  0
  194.7050  171.2710  135.7930 C   0  0  0  0  0  0  0  0  0  0  0  0
  191.8320  170.0210  139.6810 C   0  0  0  0  0  0  0  0  0  0  0  0
  195.4010  170.6400  138.5690 C   0  0  0  0  0  3  0  0  0  0  0  0
  193.1210  171.4630  137.6660 C   0  0  0  0  0  0  0  0  0  0  0  0
  191.7690  171.7010  137.9420 C   0  0  0  0  0  0  0  0  0  0  0  0
  193.6360  171.9420  136.4290 N   0  0  0  0  0  2  0  0  0  0  0  0
  196.0620  171.5790  136.3160 C   0  0  1  0  0  3  0  0  0  0  0  0
  194.4400  169.7850  135.1400 S   0  0  0  0  0  0  0  0  0  0  0  0
  193.2210  169.9120  139.5160 C   0  0  0  0  0  0  0  0  0  0  0  0
  193.9040  170.6720  138.5470 C   0  0  0  0  0  0  0  0  0  0  0  0
  191.1310  169.1490  140.5180 O   0  0  0  0  0  0  0  0  0  0  0  0
  190.9850  169.3780  141.9120 C   0  0  0  0  0  2  0  0  0  0  0  0
  190.9330  170.8570  142.2070 C   0  0  0  0  0  2  0  0  0  0  0  0
  190.9090  171.0650  143.7130 C   0  0  0  0  0  2  0  0  0  0  0  0
  192.1350  171.8700  144.1370 C   0  0  0  0  0  2  0  0  0  0  0  0
  193.3580  171.3000  143.5740 N   0  0  0  0  0  2  0  0  0  0  0  0
  195.4750  171.2950  144.7880 C   0  0  0  0  0  0  0  0  0  0  0  0
  194.6430  171.8180  143.9150 C   0  0  0  0  0  0  0  0  0  0  0  0
  196.3390  173.3630  144.0370 N   0  0  0  0  0  0  0  0  0  0  0  0
  195.1490  173.0010  143.4340 O   0  0  0  0  0  0  0  0  0  0  0  0
  196.6020  172.2640  144.9870 C   0  0  2  0  0  3  0  0  0  0  0  0
  197.9270  171.6090  144.6540 C   0  0  0  0  0  1  0  0  0  0  0  0
  195.1590  170.1410  145.6670 C   0  0  0  0  0  2  0  0  0  0  0  0
  196.0370  168.9640  145.3330 C   0  0  0  0  0  1  0  0  0  0  0  0
  196.0490  174.5890  144.7890 C   0  0  0  0  0  2  0  0  0  0  0  0
  195.7340  175.7920  143.8770 C   0  0  0  0  0  0  0  0  0  0  0  0
  196.9870  176.1780  143.1260 C   0  0  0  0  0  1  0  0  0  0  0  0
  195.2960  176.9960  144.6950 C   0  0  0  0  0  1  0  0  0  0  0  0
  194.7200  175.4740  142.9700 O   0  0  0  0  0  1  0  0  0  0  0  0
  196.3780  173.0940  136.2510 C   0  0  0  0  0  2  0  0  0  0  0  0
  195.9650  174.7760  138.1110 C   0  0  2  0  0  0  0  0  0  0  0  0
  196.7870  173.6360  137.6330 C   0  0  2  0  0  3  0  0  0  0  0  0
  197.5390  175.3060  137.3580 S   0  0  0  0  0  0  0  0  0  0  0  0
  195.9480  175.0680  139.4770 O   0  0  0  0  0  1  0  0  0  0  0  0
  194.7830  175.1650  137.3510 N   0  0  0  0  0  1  0  0  0  0  0  0
  190.8500  172.9880  137.1080 S   0  0  0  0  0  0  0  0  0  0  0  0
  189.4290  173.9720  140.7750 C   0  0  0  0  0  3  0  0  0  0  0  0
  188.2860  174.7040  140.4860 C   0  0  0  0  0  0  0  0  0  0  0  0
  190.1170  173.3150  139.7550 C   0  0  0  0  0  3  0  0  0  0  0  0
  189.6770  173.3830  138.4230 C   0  0  0  0  0  0  0  0  0  0  0  0
  188.5190  174.1100  138.1350 C   0  0  0  0  0  3  0  0  0  0  0  0
  187.8300  174.7760  139.1570 C   0  0  0  0  0  3  0  0  0  0  0  0
  186.4090  176.1180  141.2870 N   0  0  1  0  0  0  0  0  0  0  0  0
  187.0090  177.4630  141.1690 C   0  0  2  0  0  0  0  0  0  0  0  0
  187.8100  175.7300  141.4480 C   0  0  2  0  0  3  0  0  0  0  0  0
  188.3350  177.0000  141.2190 O   0  0  0  0  0  0  0  0  0  0  0  0
  186.0380  177.1720  142.2490 C   0  0  2  0  0  3  0  0  0  0  0  0
  186.5860  178.0580  139.9770 O   0  0  0  0  0  1  0  0  0  0  0  0
  186.6820  176.9330  143.5870 C   0  0  0  0  0  3  0  0  0  0  0  0
  186.7300  177.9040  144.5050 C   0  0  0  0  0  3  0  0  0  0  0  0
  188.8570  177.4760  145.6800 C   0  0  0  0  0  0  0  0  0  0  0  0
  187.4480  177.7750  145.7390 N   0  0  0  0  0  0  0  0  0  0  0  0
  189.6210  178.2790  145.0800 O   0  0  0  0  0  0  0  0  0  0  0  0
  186.9270  178.5830  146.8560 C   0  0  1  0  0  3  0  0  0  0  0  0
  185.8490  179.4110  146.4560 O   0  0  0  0  0  1  0  0  0  0  0  0
  186.6730  177.7810  148.0050 O   0  0  0  0  0  0  0  0  0  0  0  0
  185.8070  176.7260  147.6650 C   0  0  0  0  0  1  0  0  0  0  0  0
  189.4060  176.3300  146.4830 C   0  0  1  0  0  3  0  0  0  0  0  0
  190.2890  175.4530  145.6350 C   0  0  0  0  0  0  0  0  0  0  0  0
  190.4740  174.2840  145.9440 O   0  0  0  0  0  0  0  0  0  0  0  0
  191.0210  176.0600  144.4700 C   0  0  2  0  0  3  0  0  0  0  0  0
  191.1370  175.0630  143.3400 C   0  0  0  0  0  1  0  0  0  0  0  0
  192.2780  176.4790  144.8380 F   0  0  0  0  0  0  0  0  0  0  0  0
  191.4710  176.8400  147.7850 C   0  0  0  0  0  2  0  0  0  0  0  0
  190.1230  176.7150  147.7540 C   0  0  0  0  0  3  0  0  0  0  0  0
  1  5  1  0  0  0  0
  2  6  2  0  0  0  0
  4 10  1  0  0  0  0
  4  9  1  0  0  0  0
  5 14  1  0  0  0  0
  7  8  1  0  0  0  0
  7 13  2  0  0  0  0
  8  1  2  0  0  0  0
  9  7  1  0  0  0  0
 10 33  1  1  0  0  0
 10  2  1  0  0  0  0
 11  4  2  0  0  0  0
 12  5  2  0  0  0  0
 12  3  1  0  0  0  0
 13  6  1  0  0  0  0
 13 12  1  0  0  0  0
 14 15  1  0  0  0  0
 15 16  1  0  0  0  0
 16 17  1  0  0  0  0
 17 18  1  0  0  0  0
 19 21  1  0  0  0  0
 19 18  1  0  0  0  0
 20 24  1  0  0  0  0
 20 26  1  0  0  0  0
 21 20  2  0  0  0  0
 22 28  1  0  0  0  0
 22 24  1  0  0  0  0
 23 21  1  0  0  0  0
 23 22  1  0  0  0  0
 24 25  1  6  0  0  0
 27 26  1  0  0  0  0
 29 31  1  0  0  0  0
 29 28  1  0  0  0  0
 30 29  1  0  0  0  0
 32 29  1  0  0  0  0
 34 38  1  6  0  0  0
 34 37  1  0  0  0  0
 35 33  1  6  0  0  0
 35 34  1  0  0  0  0
 36 35  1  0  0  0  0
 36 34  1  0  0  0  0
 39  8  1  0  0  0  0
 39 43  1  0  0  0  0
 41 40  1  0  0  0  0
 41 48  1  0  0  0  0
 42 40  2  0  0  0  0
 43 42  1  0  0  0  0
 44 43  2  0  0  0  0
 44 45  1  0  0  0  0
 45 41  2  0  0  0  0
 46 48  1  0  0  0  0
 46 50  1  0  0  0  0
 47 49  1  0  0  0  0
 47 46  1  0  0  0  0
 47 50  1  0  0  0  0
 49 48  1  0  0  0  0
 50 52  1  0  0  0  0
 51 47  1  0  0  0  0
 52 53  2  0  0  0  0
 53 55  1  0  0  0  0
 54 55  1  0  0  0  0
 54 61  1  0  0  0  0
 55 57  1  0  0  0  0
 56 54  2  0  0  0  0
 57 59  1  0  0  0  0
 58 57  1  0  0  0  0
 60 59  1  0  0  0  0
 61 68  1  0  0  0  0
 62 63  2  0  0  0  0
 62 61  1  0  0  0  0
 64 66  1  0  0  0  0
 64 62  1  0  0  0  0
 65 64  1  0  0  0  0
 68 67  2  0  0  0  0
M  END
>  <MODEL>
9

>  <REMARK>
 VINA RESULT:      -4.0      2.423      4.434
  Name = 
  23 active torsions:
  status: ('A' for Active; 'I' for Inactive)
    1  A    between atoms: C_1  and  C_18
    2  A    between atoms: O_6  and  C_53
    3  A    between atoms: C_7  and  C_9
    4  A    between atoms: C_7  and  C_60
    5  A    between atoms: C_8  and  C_38
    6  A    between atoms: C_9  and  C_44
    7  A    between atoms: C_11  and  C_59
    8  A    between atoms: C_12  and  C_28
    9  A    between atoms: C_15  and  C_17
   10  A    between atoms: C_17  and  C_18
   11  A    between atoms: C_17  and  C_51
   12  A    between atoms: C_21  and  C_45
   13  A    between atoms: C_22  and  S_68
   14  A    between atoms: O_23  and  C_40
   15  A    between atoms: O_23  and  C_60
   16  A    between atoms: C_24  and  C_29
   17  A    between atoms: C_26  and  N_43
   18  A    between atoms: C_29  and  C_56
   19  A    between atoms: C_36  and  N_41
   20  A    between atoms: N_37  and  C_59
   21  A    between atoms: N_41  and  C_44
   22  A    between atoms: N_43  and  C_53
   23  A    between atoms: C_52  and  S_68
                            x       y       z     vdW  Elec       q    Type
                         _______ _______ _______ _____ _____    ______ ____

>  <TORSDO>
F 23

$$$$
