=
 OpenBabel11042418433D

 34 35  0  0  1  0  0  0  0  0999 V2000
  189.3560  175.2570  142.9620 C   0  0  2  0  0  3  0  0  0  0  0  0
  189.6190  172.9850  141.9090 C   0  0  0  0  0  1  0  0  0  0  0  0
  189.8930  173.8330  143.1420 C   0  0  1  0  0  3  0  0  0  0  0  0
  191.8460  172.6450  144.2120 N   0  0  0  0  0  2  0  0  0  0  0  0
  192.1160  174.7390  143.2000 O   0  0  0  0  0  0  0  0  0  0  0  0
  191.3460  173.7880  143.5120 C   0  0  0  0  0  0  0  0  0  0  0  0
  193.0850  172.5890  144.9300 C   0  0  0  0  0  0  0  0  0  0  0  0
  193.6960  171.4880  144.9920 O   0  0  0  0  0  0  0  0  0  0  0  0
  193.5100  176.7520  146.8130 C   0  0  0  0  0  2  0  0  0  0  0  0
  193.6260  173.7660  145.6460 C   0  0  1  0  0  3  0  0  0  0  0  0
  194.2190  176.8510  145.4620 C   0  0  0  0  0  3  0  0  0  0  0  0
  192.4670  175.6650  146.8630 C   0  0  0  0  0  2  0  0  0  0  0  0
  194.9560  174.3910  145.2940 C   0  0  0  0  0  2  0  0  0  0  0  0
  194.8400  175.8350  144.8090 C   0  0  0  0  0  3  0  0  0  0  0  0
  192.8690  174.5580  146.3330 C   0  0  0  0  0  2  0  0  0  0  0  0
  188.5360  175.6610  144.0980 N   0  0  0  0  0  2  0  0  0  0  0  0
  189.7890  177.4490  145.0050 C   0  0  0  0  0  2  0  0  0  0  0  0
  189.0730  176.3550  145.2290 C   0  0  0  0  0  0  0  0  0  0  0  0
  188.6300  175.9970  146.5940 C   0  0  0  0  0  3  0  0  0  0  0  0
  187.4510  176.2640  147.1750 C   0  0  0  0  0  3  0  0  0  0  0  0
  185.3380  176.5400  145.9800 C   0  0  0  0  0  2  0  0  0  0  0  0
  186.3500  177.0920  146.6490 C   0  0  0  0  0  0  0  0  0  0  0  0
  186.1380  179.1120  145.2020 C   0  0  0  0  0  1  0  0  0  0  0  0
  185.9330  179.3320  147.6770 C   0  0  0  0  0  1  0  0  0  0  0  0
  186.5960  178.5670  146.5440 C   0  0  0  0  0  3  0  0  0  0  0  0
  188.4050  175.4080  141.4160 S   0  0  0  0  0  0  0  0  0  0  0  0
  187.5250  176.9040  141.9750 C   0  0  1  0  0  3  0  0  0  0  0  0
  188.3230  178.1530  141.6120 C   0  0  0  0  0  1  0  0  0  0  0  0
  186.1460  176.9340  141.4670 N   0  0  0  0  0  0  0  0  0  0  0  0
  184.5980  178.5410  140.7280 C   0  0  0  0  0  2  0  0  0  0  0  0
  183.5940  178.7190  142.9140 N   0  0  0  0  0  1  0  0  0  0  0  0
  185.3130  177.1950  142.5160 O   0  0  0  0  0  0  0  0  0  0  0  0
  185.9680  178.0000  140.4860 C   0  0  0  0  0  2  0  0  0  0  0  0
  184.1730  177.7950  141.9600 C   0  0  2  0  0  3  0  0  0  0  0  0
  1 26  1  6  0  0  0
  1  3  1  0  0  0  0
  1 16  1  0  0  0  0
  3  2  1  6  0  0  0
  3  6  1  0  0  0  0
  4  7  1  0  0  0  0
  5  6  2  0  0  0  0
  6  4  1  0  0  0  0
  7  8  2  0  0  0  0
  9 12  1  0  0  0  0
 10  7  1  6  0  0  0
 10 15  1  0  0  0  0
 11  9  1  0  0  0  0
 13 10  1  0  0  0  0
 14 13  1  0  0  0  0
 14 11  2  0  0  0  0
 15 12  1  0  0  0  0
 16 18  1  0  0  0  0
 17 18  2  0  0  0  0
 18 19  1  0  0  0  0
 19 20  2  0  0  0  0
 21 22  2  0  0  0  0
 22 20  1  0  0  0  0
 23 25  1  0  0  0  0
 25 22  1  0  0  0  0
 25 24  1  0  0  0  0
 26 27  1  0  0  0  0
 27 28  1  6  0  0  0
 29 27  1  0  0  0  0
 29 32  1  0  0  0  0
 30 34  1  0  0  0  0
 33 30  1  0  0  0  0
 33 29  1  0  0  0  0
 34 32  1  0  0  0  0
 34 31  1  1  0  0  0
M  END
>  <MODEL>
1

>  <REMARK>
 VINA RESULT:      -7.1      0.000      0.000
  Name = 
  11 active torsions:
  status: ('A' for Active; 'I' for Inactive)
    1  A    between atoms: N_1  and  C_11
    2  A    between atoms: C_3  and  C_32
    3  A    between atoms: C_4  and  C_23
    4  A    between atoms: C_11  and  S_28
    5  A    between atoms: N_16  and  C_31
    6  A    between atoms: N_16  and  C_32
    7  A    between atoms: C_19  and  C_20
    8  A    between atoms: C_20  and  C_31
    9  A    between atoms: S_28  and  C_31
   10  A    between atoms: C_30  and  C_34
   11  A    between atoms: C_33  and  C_34
                            x       y       z     vdW  Elec       q    Type
                         _______ _______ _______ _____ _____    ______ ____

>  <TORSDO>
F 11

$$$$
=
 OpenBabel11042418433D

 34 35  0  0  1  0  0  0  0  0999 V2000
  191.8690  175.5460  145.6050 C   0  0  2  0  0  3  0  0  0  0  0  0
  191.3980  175.4050  148.0740 C   0  0  0  0  0  1  0  0  0  0  0  0
  190.7890  175.3830  146.6800 C   0  0  1  0  0  3  0  0  0  0  0  0
  188.3600  176.0030  146.9670 N   0  0  0  0  0  2  0  0  0  0  0  0
  189.9070  177.5450  146.1250 O   0  0  0  0  0  0  0  0  0  0  0  0
  189.6780  176.3840  146.5630 C   0  0  0  0  0  0  0  0  0  0  0  0
  187.1530  176.6880  146.6110 C   0  0  0  0  0  0  0  0  0  0  0  0
  186.1880  176.6700  147.4210 O   0  0  0  0  0  0  0  0  0  0  0  0
  185.4440  179.1260  143.1180 C   0  0  0  0  0  2  0  0  0  0  0  0
  186.9930  177.3550  145.2990 C   0  0  1  0  0  3  0  0  0  0  0  0
  185.1480  177.6670  142.7690 C   0  0  0  0  0  3  0  0  0  0  0  0
  185.6150  179.3640  144.5970 C   0  0  0  0  0  2  0  0  0  0  0  0
  187.1590  176.6210  143.9890 C   0  0  0  0  0  2  0  0  0  0  0  0
  185.8860  176.5900  143.1440 C   0  0  0  0  0  3  0  0  0  0  0  0
  186.3470  178.4680  145.1690 C   0  0  0  0  0  2  0  0  0  0  0  0
  191.6990  174.5730  144.5310 N   0  0  0  0  0  2  0  0  0  0  0  0
  191.1910  176.2400  142.9330 C   0  0  0  0  0  2  0  0  0  0  0  0
  191.4170  174.9570  143.1820 C   0  0  0  0  0  0  0  0  0  0  0  0
  191.6210  173.9900  142.0810 C   0  0  0  0  0  3  0  0  0  0  0  0
  190.7130  173.1840  141.5120 C   0  0  0  0  0  3  0  0  0  0  0  0
  189.0130  172.0770  142.8730 C   0  0  0  0  0  2  0  0  0  0  0  0
  189.3140  172.9620  141.9240 C   0  0  0  0  0  0  0  0  0  0  0  0
  188.3120  174.9610  140.8210 C   0  0  0  0  0  1  0  0  0  0  0  0
  188.3110  172.7640  139.6430 C   0  0  0  0  0  1  0  0  0  0  0  0
  188.2450  173.4530  140.9960 C   0  0  0  0  0  3  0  0  0  0  0  0
  193.5370  175.4020  146.3230 S   0  0  0  0  0  0  0  0  0  0  0  0
  194.2800  176.5350  145.1020 C   0  0  1  0  0  3  0  0  0  0  0  0
  194.8870  177.7460  145.8060 C   0  0  0  0  0  1  0  0  0  0  0  0
  195.2370  175.8330  144.2350 N   0  0  0  0  0  0  0  0  0  0  0  0
  195.2290  174.7600  142.1440 C   0  0  0  0  0  2  0  0  0  0  0  0
  194.8430  172.6000  143.1470 N   0  0  0  0  0  1  0  0  0  0  0  0
  195.1250  174.4950  144.4770 O   0  0  0  0  0  0  0  0  0  0  0  0
  194.9330  176.0550  142.8250 C   0  0  0  0  0  2  0  0  0  0  0  0
  195.5480  173.8580  143.3010 C   0  0  2  0  0  3  0  0  0  0  0  0
  1 16  1  6  0  0  0
  1 26  1  0  0  0  0
  1  3  1  0  0  0  0
  3  2  1  1  0  0  0
  5  6  2  0  0  0  0
  6  3  1  0  0  0  0
  6  4  1  0  0  0  0
  7  4  1  0  0  0  0
  7  8  2  0  0  0  0
  9 12  1  0  0  0  0
 10  7  1  1  0  0  0
 11  9  1  0  0  0  0
 11 14  2  0  0  0  0
 12 15  1  0  0  0  0
 13 10  1  0  0  0  0
 14 13  1  0  0  0  0
 15 10  1  0  0  0  0
 17 18  2  0  0  0  0
 18 16  1  0  0  0  0
 19 18  1  0  0  0  0
 20 22  1  0  0  0  0
 20 19  2  0  0  0  0
 22 21  2  0  0  0  0
 23 25  1  0  0  0  0
 24 25  1  0  0  0  0
 25 22  1  0  0  0  0
 27 28  1  1  0  0  0
 27 26  1  0  0  0  0
 29 32  1  0  0  0  0
 29 27  1  0  0  0  0
 30 33  1  0  0  0  0
 30 34  1  0  0  0  0
 33 29  1  0  0  0  0
 34 31  1  6  0  0  0
 34 32  1  0  0  0  0
M  END
>  <MODEL>
2

>  <REMARK>
 VINA RESULT:      -7.1      2.866      7.889
  Name = 
  11 active torsions:
  status: ('A' for Active; 'I' for Inactive)
    1  A    between atoms: N_1  and  C_11
    2  A    between atoms: C_3  and  C_32
    3  A    between atoms: C_4  and  C_23
    4  A    between atoms: C_11  and  S_28
    5  A    between atoms: N_16  and  C_31
    6  A    between atoms: N_16  and  C_32
    7  A    between atoms: C_19  and  C_20
    8  A    between atoms: C_20  and  C_31
    9  A    between atoms: S_28  and  C_31
   10  A    between atoms: C_30  and  C_34
   11  A    between atoms: C_33  and  C_34
                            x       y       z     vdW  Elec       q    Type
                         _______ _______ _______ _____ _____    ______ ____

>  <TORSDO>
F 11

$$$$
=
 OpenBabel11042418433D

 34 35  0  0  1  0  0  0  0  0999 V2000
  190.4690  174.9210  143.0640 C   0  0  2  0  0  3  0  0  0  0  0  0
  192.1010  176.7840  143.5170 C   0  0  0  0  0  1  0  0  0  0  0  0
  191.2670  175.6730  144.1350 C   0  0  1  0  0  3  0  0  0  0  0  0
  189.6550  175.2740  146.0360 N   0  0  0  0  0  2  0  0  0  0  0  0
  190.3760  177.4350  145.5000 O   0  0  0  0  0  0  0  0  0  0  0  0
  190.4140  176.1990  145.2510 C   0  0  0  0  0  0  0  0  0  0  0  0
  188.5540  175.6160  146.8870 C   0  0  0  0  0  0  0  0  0  0  0  0
  188.3500  174.9210  147.9180 O   0  0  0  0  0  0  0  0  0  0  0  0
  185.4760  179.0030  147.2250 C   0  0  0  0  0  2  0  0  0  0  0  0
  187.6210  176.7160  146.5500 C   0  0  1  0  0  3  0  0  0  0  0  0
  184.6690  177.7690  146.8180 C   0  0  0  0  0  3  0  0  0  0  0  0
  186.7670  178.6680  147.9250 C   0  0  0  0  0  2  0  0  0  0  0  0
  186.5350  176.5700  145.5110 C   0  0  0  0  0  2  0  0  0  0  0  0
  185.1250  176.7230  146.0810 C   0  0  0  0  0  3  0  0  0  0  0  0
  187.4160  177.7100  147.3520 C   0  0  0  0  0  2  0  0  0  0  0  0
  189.1020  175.4210  142.9730 N   0  0  0  0  0  2  0  0  0  0  0  0
  188.0060  175.5580  140.8820 C   0  0  0  0  0  2  0  0  0  0  0  0
  188.6360  176.1930  141.8620 C   0  0  0  0  0  0  0  0  0  0  0  0
  188.6420  177.6710  141.9350 C   0  0  0  0  0  3  0  0  0  0  0  0
  187.5900  178.5010  141.9340 C   0  0  0  0  0  3  0  0  0  0  0  0
  185.6590  178.0670  140.5020 C   0  0  0  0  0  2  0  0  0  0  0  0
  186.1690  178.1610  141.7290 C   0  0  0  0  0  0  0  0  0  0  0  0
  185.5220  179.6150  143.6490 C   0  0  0  0  0  1  0  0  0  0  0  0
  183.7930  178.2310  142.5030 C   0  0  0  0  0  1  0  0  0  0  0  0
  185.2550  178.3160  142.9070 C   0  0  0  0  0  3  0  0  0  0  0  0
  190.4610  173.1290  143.3910 S   0  0  0  0  0  0  0  0  0  0  0  0
  191.7750  172.7900  142.1710 C   0  0  1  0  0  3  0  0  0  0  0  0
  191.8460  173.9170  141.1450 C   0  0  0  0  0  1  0  0  0  0  0  0
  193.0630  172.5310  142.8310 N   0  0  0  0  0  0  0  0  0  0  0  0
  194.0510  172.9140  144.9290 C   0  0  0  0  0  2  0  0  0  0  0  0
  195.0640  174.9730  144.1830 N   0  0  0  0  0  1  0  0  0  0  0  0
  193.8350  173.6490  142.7080 O   0  0  0  0  0  0  0  0  0  0  0  0
  192.8820  172.2740  144.2570 C   0  0  0  0  0  2  0  0  0  0  0  0
  194.7280  173.6190  143.7890 C   0  0  2  0  0  3  0  0  0  0  0  0
  1 16  1  1  0  0  0
  1 26  1  0  0  0  0
  1  3  1  0  0  0  0
  3  2  1  6  0  0  0
  3  6  1  0  0  0  0
  4  7  1  0  0  0  0
  6  5  2  0  0  0  0
  6  4  1  0  0  0  0
  7  8  2  0  0  0  0
  9 12  1  0  0  0  0
 10  7  1  1  0  0  0
 10 15  1  0  0  0  0
 11  9  1  0  0  0  0
 13 14  1  0  0  0  0
 13 10  1  0  0  0  0
 14 11  2  0  0  0  0
 15 12  1  0  0  0  0
 17 18  2  0  0  0  0
 18 19  1  0  0  0  0
 18 16  1  0  0  0  0
 20 19  2  0  0  0  0
 21 22  2  0  0  0  0
 22 20  1  0  0  0  0
 22 25  1  0  0  0  0
 24 25  1  0  0  0  0
 25 23  1  0  0  0  0
 27 28  1  6  0  0  0
 27 29  1  0  0  0  0
 27 26  1  0  0  0  0
 29 33  1  0  0  0  0
 32 29  1  0  0  0  0
 32 34  1  0  0  0  0
 33 30  1  0  0  0  0
 34 31  1  1  0  0  0
 34 30  1  0  0  0  0
M  END
>  <MODEL>
3

>  <REMARK>
 VINA RESULT:      -7.0      2.379      6.789
  Name = 
  11 active torsions:
  status: ('A' for Active; 'I' for Inactive)
    1  A    between atoms: N_1  and  C_11
    2  A    between atoms: C_3  and  C_32
    3  A    between atoms: C_4  and  C_23
    4  A    between atoms: C_11  and  S_28
    5  A    between atoms: N_16  and  C_31
    6  A    between atoms: N_16  and  C_32
    7  A    between atoms: C_19  and  C_20
    8  A    between atoms: C_20  and  C_31
    9  A    between atoms: S_28  and  C_31
   10  A    between atoms: C_30  and  C_34
   11  A    between atoms: C_33  and  C_34
                            x       y       z     vdW  Elec       q    Type
                         _______ _______ _______ _____ _____    ______ ____

>  <TORSDO>
F 11

$$$$
=
 OpenBabel11042418433D

 34 35  0  0  1  0  0  0  0  0999 V2000
  191.0400  175.0540  142.5150 C   0  0  2  0  0  3  0  0  0  0  0  0
  189.7350  173.6240  140.9050 C   0  0  0  0  0  1  0  0  0  0  0  0
  189.8420  174.9930  141.5610 C   0  0  1  0  0  3  0  0  0  0  0  0
  187.6640  176.2660  141.5110 N   0  0  0  0  0  2  0  0  0  0  0  0
  188.2360  174.9260  143.3430 O   0  0  0  0  0  0  0  0  0  0  0  0
  188.5460  175.3810  142.2080 C   0  0  0  0  0  0  0  0  0  0  0  0
  186.5830  176.9970  142.1040 C   0  0  0  0  0  0  0  0  0  0  0  0
  185.5670  177.2460  141.4020 O   0  0  0  0  0  0  0  0  0  0  0  0
  185.6490  177.8580  146.5140 C   0  0  0  0  0  2  0  0  0  0  0  0
  186.6600  177.5150  143.4890 C   0  0  1  0  0  3  0  0  0  0  0  0
  185.1250  179.0750  145.7500 C   0  0  0  0  0  3  0  0  0  0  0  0
  185.7330  176.6120  145.6700 C   0  0  0  0  0  2  0  0  0  0  0  0
  186.8010  178.9870  143.7980 C   0  0  0  0  0  2  0  0  0  0  0  0
  185.6210  179.5590  144.5820 C   0  0  0  0  0  3  0  0  0  0  0  0
  186.2390  176.8300  144.5020 C   0  0  0  0  0  2  0  0  0  0  0  0
  191.4810  176.4280  142.7240 N   0  0  0  0  0  2  0  0  0  0  0  0
  192.6830  177.1030  144.6450 C   0  0  0  0  0  2  0  0  0  0  0  0
  191.5160  177.0390  144.0170 C   0  0  0  0  0  0  0  0  0  0  0  0
  190.3400  177.7880  144.5130 C   0  0  0  0  0  3  0  0  0  0  0  0
  189.7000  177.6380  145.6810 C   0  0  0  0  0  3  0  0  0  0  0  0
  190.8690  176.7550  147.6360 C   0  0  0  0  0  2  0  0  0  0  0  0
  189.9220  176.6050  146.7100 C   0  0  0  0  0  0  0  0  0  0  0  0
  190.4120  174.2640  146.0070 C   0  0  0  0  0  1  0  0  0  0  0  0
  188.5990  174.7090  147.6600 C   0  0  0  0  0  1  0  0  0  0  0  0
  189.3420  175.2480  146.4490 C   0  0  0  0  0  3  0  0  0  0  0  0
  192.4200  174.0370  141.9000 S   0  0  0  0  0  0  0  0  0  0  0  0
  192.8240  173.3880  143.5560 C   0  0  1  0  0  3  0  0  0  0  0  0
  192.3310  171.9500  143.6940 C   0  0  0  0  0  1  0  0  0  0  0  0
  194.2550  173.5370  143.8540 N   0  0  0  0  0  0  0  0  0  0  0  0
  195.6100  174.8070  145.2960 C   0  0  0  0  0  2  0  0  0  0  0  0
  195.9770  176.4990  143.6150 N   0  0  0  0  0  1  0  0  0  0  0  0
  194.7330  174.5880  143.1270 O   0  0  0  0  0  0  0  0  0  0  0  0
  194.4710  173.8420  145.2650 C   0  0  0  0  0  2  0  0  0  0  0  0
  195.8420  175.0720  143.8360 C   0  0  2  0  0  3  0  0  0  0  0  0
  1 26  1  6  0  0  0
  1 16  1  0  0  0  0
  3  2  1  1  0  0  0
  3  6  1  0  0  0  0
  3  1  1  0  0  0  0
  4  7  1  0  0  0  0
  4  6  1  0  0  0  0
  6  5  2  0  0  0  0
  8  7  2  0  0  0  0
 10  7  1  6  0  0  0
 10 13  1  0  0  0  0
 10 15  1  0  0  0  0
 11  9  1  0  0  0  0
 12  9  1  0  0  0  0
 13 14  1  0  0  0  0
 14 11  2  0  0  0  0
 15 12  1  0  0  0  0
 16 18  1  0  0  0  0
 18 19  1  0  0  0  0
 18 17  2  0  0  0  0
 19 20  2  0  0  0  0
 20 22  1  0  0  0  0
 22 21  2  0  0  0  0
 23 25  1  0  0  0  0
 25 22  1  0  0  0  0
 25 24  1  0  0  0  0
 26 27  1  0  0  0  0
 27 28  1  6  0  0  0
 27 29  1  0  0  0  0
 29 33  1  0  0  0  0
 32 34  1  0  0  0  0
 32 29  1  0  0  0  0
 33 30  1  0  0  0  0
 34 31  1  1  0  0  0
 34 30  1  0  0  0  0
M  END
>  <MODEL>
4

>  <REMARK>
 VINA RESULT:      -6.9      2.120      7.314
  Name = 
  11 active torsions:
  status: ('A' for Active; 'I' for Inactive)
    1  A    between atoms: N_1  and  C_11
    2  A    between atoms: C_3  and  C_32
    3  A    between atoms: C_4  and  C_23
    4  A    between atoms: C_11  and  S_28
    5  A    between atoms: N_16  and  C_31
    6  A    between atoms: N_16  and  C_32
    7  A    between atoms: C_19  and  C_20
    8  A    between atoms: C_20  and  C_31
    9  A    between atoms: S_28  and  C_31
   10  A    between atoms: C_30  and  C_34
   11  A    between atoms: C_33  and  C_34
                            x       y       z     vdW  Elec       q    Type
                         _______ _______ _______ _____ _____    ______ ____

>  <TORSDO>
F 11

$$$$
=
 OpenBabel11042418433D

 34 35  0  0  1  0  0  0  0  0999 V2000
  189.7170  175.3530  144.6120 C   0  0  2  0  0  3  0  0  0  0  0  0
  189.5150  174.8200  147.0650 C   0  0  0  0  0  1  0  0  0  0  0  0
  190.2030  175.6910  146.0260 C   0  0  1  0  0  3  0  0  0  0  0  0
  192.5130  175.9140  145.0350 N   0  0  0  0  0  2  0  0  0  0  0  0
  192.2160  175.3340  147.2830 O   0  0  0  0  0  0  0  0  0  0  0  0
  191.6940  175.6270  146.1720 C   0  0  0  0  0  0  0  0  0  0  0  0
  193.8990  175.5710  144.9020 C   0  0  0  0  0  0  0  0  0  0  0  0
  194.6420  176.3210  144.2140 O   0  0  0  0  0  0  0  0  0  0  0  0
  196.7610  172.1780  146.0640 C   0  0  0  0  0  2  0  0  0  0  0  0
  194.4560  174.3350  145.4960 C   0  0  1  0  0  3  0  0  0  0  0  0
  195.9400  171.6260  144.8980 C   0  0  0  0  0  3  0  0  0  0  0  0
  196.8350  173.6830  146.0840 C   0  0  0  0  0  2  0  0  0  0  0  0
  193.7980  172.9850  145.3290 C   0  0  0  0  0  2  0  0  0  0  0  0
  194.6660  171.9740  144.5830 C   0  0  0  0  0  3  0  0  0  0  0  0
  195.6950  174.2450  145.8560 C   0  0  0  0  0  2  0  0  0  0  0  0
  188.3290  175.7570  144.4190 N   0  0  0  0  0  2  0  0  0  0  0  0
  188.8310  177.2480  142.6540 C   0  0  0  0  0  2  0  0  0  0  0  0
  187.9070  176.5600  143.3110 C   0  0  0  0  0  0  0  0  0  0  0  0
  186.5350  176.4200  142.7780 C   0  0  0  0  0  3  0  0  0  0  0  0
  185.4660  177.1850  143.0410 C   0  0  0  0  0  3  0  0  0  0  0  0
  185.7520  179.5120  143.7280 C   0  0  0  0  0  2  0  0  0  0  0  0
  185.3540  178.2760  144.0280 C   0  0  0  0  0  0  0  0  0  0  0  0
  186.4090  178.1520  146.2830 C   0  0  0  0  0  1  0  0  0  0  0  0
  183.9610  178.5770  146.0810 C   0  0  0  0  0  1  0  0  0  0  0  0
  185.1610  177.8820  145.4600 C   0  0  0  0  0  3  0  0  0  0  0  0
  189.9070  173.5750  144.2630 S   0  0  0  0  0  0  0  0  0  0  0  0
  190.2850  173.8510  142.4990 C   0  0  1  0  0  3  0  0  0  0  0  0
  191.7520  173.5390  142.2180 C   0  0  0  0  0  1  0  0  0  0  0  0
  189.3610  173.1060  141.6320 N   0  0  0  0  0  0  0  0  0  0  0  0
  189.3590  172.1980  139.4640 C   0  0  0  0  0  2  0  0  0  0  0  0
  188.3360  174.1740  138.5340 N   0  0  0  0  0  1  0  0  0  0  0  0
  188.7190  174.0010  140.8280 O   0  0  0  0  0  0  0  0  0  0  0  0
  190.0830  172.1750  140.7700 C   0  0  0  0  0  2  0  0  0  0  0  0
  188.3480  173.2860  139.6790 C   0  0  2  0  0  3  0  0  0  0  0  0
  1 26  1  1  0  0  0
  1  3  1  0  0  0  0
  3  6  1  0  0  0  0
  3  2  1  1  0  0  0
  4  6  1  0  0  0  0
  6  5  2  0  0  0  0
  7  4  1  0  0  0  0
  8  7  2  0  0  0  0
  9 12  1  0  0  0  0
 10  7  1  6  0  0  0
 10 15  1  0  0  0  0
 11  9  1  0  0  0  0
 13 10  1  0  0  0  0
 14 11  2  0  0  0  0
 14 13  1  0  0  0  0
 15 12  1  0  0  0  0
 16  1  1  0  0  0  0
 17 18  2  0  0  0  0
 18 16  1  0  0  0  0
 19 20  2  0  0  0  0
 19 18  1  0  0  0  0
 20 22  1  0  0  0  0
 21 22  2  0  0  0  0
 22 25  1  0  0  0  0
 25 24  1  0  0  0  0
 25 23  1  0  0  0  0
 27 28  1  1  0  0  0
 27 26  1  0  0  0  0
 29 27  1  0  0  0  0
 30 34  1  0  0  0  0
 30 33  1  0  0  0  0
 32 29  1  0  0  0  0
 33 29  1  0  0  0  0
 34 31  1  6  0  0  0
 34 32  1  0  0  0  0
M  END
>  <MODEL>
5

>  <REMARK>
 VINA RESULT:      -6.9      2.407      4.393
  Name = 
  11 active torsions:
  status: ('A' for Active; 'I' for Inactive)
    1  A    between atoms: N_1  and  C_11
    2  A    between atoms: C_3  and  C_32
    3  A    between atoms: C_4  and  C_23
    4  A    between atoms: C_11  and  S_28
    5  A    between atoms: N_16  and  C_31
    6  A    between atoms: N_16  and  C_32
    7  A    between atoms: C_19  and  C_20
    8  A    between atoms: C_20  and  C_31
    9  A    between atoms: S_28  and  C_31
   10  A    between atoms: C_30  and  C_34
   11  A    between atoms: C_33  and  C_34
                            x       y       z     vdW  Elec       q    Type
                         _______ _______ _______ _____ _____    ______ ____

>  <TORSDO>
F 11

$$$$
=
 OpenBabel11042418433D

 34 35  0  0  1  0  0  0  0  0999 V2000
  190.9590  174.6910  145.4590 C   0  0  2  0  0  3  0  0  0  0  0  0
  191.9930  176.1420  147.2370 C   0  0  0  0  0  1  0  0  0  0  0  0
  190.7190  175.4580  146.7640 C   0  0  1  0  0  3  0  0  0  0  0  0
  188.2690  175.9980  147.0370 N   0  0  0  0  0  2  0  0  0  0  0  0
  189.7880  177.6240  146.3100 O   0  0  0  0  0  0  0  0  0  0  0  0
  189.5840  176.4350  146.6800 C   0  0  0  0  0  0  0  0  0  0  0  0
  187.0500  176.6700  146.6960 C   0  0  0  0  0  0  0  0  0  0  0  0
  186.0720  176.5820  147.4850 O   0  0  0  0  0  0  0  0  0  0  0  0
  185.3420  179.2560  143.3120 C   0  0  0  0  0  2  0  0  0  0  0  0
  186.8960  177.4030  145.4190 C   0  0  1  0  0  3  0  0  0  0  0  0
  185.0830  177.8120  142.8800 C   0  0  0  0  0  3  0  0  0  0  0  0
  185.4850  179.4180  144.8030 C   0  0  0  0  0  2  0  0  0  0  0  0
  187.0970  176.7440  144.0740 C   0  0  0  0  0  2  0  0  0  0  0  0
  185.8380  176.7320  143.2090 C   0  0  0  0  0  3  0  0  0  0  0  0
  186.2280  178.5070  145.3380 C   0  0  0  0  0  2  0  0  0  0  0  0
  190.7040  175.5330  144.2950 N   0  0  0  0  0  2  0  0  0  0  0  0
  191.8540  177.4880  143.6270 C   0  0  0  0  0  2  0  0  0  0  0  0
  191.7530  176.1670  143.5580 C   0  0  0  0  0  0  0  0  0  0  0  0
  192.8270  175.3500  142.9500 C   0  0  0  0  0  3  0  0  0  0  0  0
  194.0020  174.9990  143.4910 C   0  0  0  0  0  3  0  0  0  0  0  0
  195.0670  176.6770  144.9120 C   0  0  0  0  0  2  0  0  0  0  0  0
  194.5780  175.4450  144.7740 C   0  0  0  0  0  0  0  0  0  0  0  0
  194.1960  173.0880  145.4920 C   0  0  0  0  0  1  0  0  0  0  0  0
  196.4480  174.1210  145.7730 C   0  0  0  0  0  1  0  0  0  0  0  0
  194.9510  174.3800  145.7600 C   0  0  0  0  0  3  0  0  0  0  0  0
  189.9310  173.1890  145.3840 S   0  0  0  0  0  0  0  0  0  0  0  0
  190.4900  172.7580  143.7020 C   0  0  1  0  0  3  0  0  0  0  0  0
  191.3940  171.5300  143.7440 C   0  0  0  0  0  1  0  0  0  0  0  0
  189.3520  172.6040  142.7840 N   0  0  0  0  0  0  0  0  0  0  0  0
  188.9380  172.7950  140.4790 C   0  0  0  0  0  2  0  0  0  0  0  0
  188.2030  175.0820  140.7030 N   0  0  0  0  0  1  0  0  0  0  0  0
  188.8020  173.8370  142.5810 O   0  0  0  0  0  0  0  0  0  0  0  0
  189.7860  172.0940  141.4880 C   0  0  0  0  0  2  0  0  0  0  0  0
  188.1770  173.7740  141.3260 C   0  0  2  0  0  3  0  0  0  0  0  0
  1 16  1  6  0  0  0
  1  3  1  0  0  0  0
  3  2  1  6  0  0  0
  5  6  2  0  0  0  0
  6  3  1  0  0  0  0
  6  4  1  0  0  0  0
  7  4  1  0  0  0  0
  7  8  2  0  0  0  0
  9 12  1  0  0  0  0
 10  7  1  1  0  0  0
 11 14  2  0  0  0  0
 11  9  1  0  0  0  0
 12 15  1  0  0  0  0
 13 10  1  0  0  0  0
 14 13  1  0  0  0  0
 15 10  1  0  0  0  0
 18 17  2  0  0  0  0
 18 16  1  0  0  0  0
 19 20  2  0  0  0  0
 19 18  1  0  0  0  0
 20 22  1  0  0  0  0
 22 21  2  0  0  0  0
 22 25  1  0  0  0  0
 23 25  1  0  0  0  0
 25 24  1  0  0  0  0
 26  1  1  0  0  0  0
 27 28  1  1  0  0  0
 27 26  1  0  0  0  0
 29 27  1  0  0  0  0
 30 34  1  0  0  0  0
 30 33  1  0  0  0  0
 32 29  1  0  0  0  0
 33 29  1  0  0  0  0
 34 31  1  6  0  0  0
 34 32  1  0  0  0  0
M  END
>  <MODEL>
6

>  <REMARK>
 VINA RESULT:      -6.9      2.572      7.188
  Name = 
  11 active torsions:
  status: ('A' for Active; 'I' for Inactive)
    1  A    between atoms: N_1  and  C_11
    2  A    between atoms: C_3  and  C_32
    3  A    between atoms: C_4  and  C_23
    4  A    between atoms: C_11  and  S_28
    5  A    between atoms: N_16  and  C_31
    6  A    between atoms: N_16  and  C_32
    7  A    between atoms: C_19  and  C_20
    8  A    between atoms: C_20  and  C_31
    9  A    between atoms: S_28  and  C_31
   10  A    between atoms: C_30  and  C_34
   11  A    between atoms: C_33  and  C_34
                            x       y       z     vdW  Elec       q    Type
                         _______ _______ _______ _____ _____    ______ ____

>  <TORSDO>
F 11

$$$$
=
 OpenBabel11042418433D

 34 35  0  0  1  0  0  0  0  0999 V2000
  192.0520  175.6470  144.0430 C   0  0  2  0  0  3  0  0  0  0  0  0
  191.3630  177.9970  143.4590 C   0  0  0  0  0  1  0  0  0  0  0  0
  191.2410  176.8730  144.4760 C   0  0  1  0  0  3  0  0  0  0  0  0
  188.9020  176.3790  143.6660 N   0  0  0  0  0  2  0  0  0  0  0  0
  189.3950  176.4540  145.9530 O   0  0  0  0  0  0  0  0  0  0  0  0
  189.8020  176.5620  144.7630 C   0  0  0  0  0  0  0  0  0  0  0  0
  187.4720  176.4210  143.7500 C   0  0  0  0  0  0  0  0  0  0  0  0
  186.8010  175.7110  142.9540 O   0  0  0  0  0  0  0  0  0  0  0  0
  184.3890  178.1580  146.6710 C   0  0  0  0  0  2  0  0  0  0  0  0
  186.7730  177.3200  144.6960 C   0  0  1  0  0  3  0  0  0  0  0  0
  184.0750  178.8110  145.3250 C   0  0  0  0  0  3  0  0  0  0  0  0
  185.1050  176.8380  146.5430 C   0  0  0  0  0  2  0  0  0  0  0  0
  186.4640  178.7620  144.3680 C   0  0  0  0  0  2  0  0  0  0  0  0
  184.9680  179.0700  144.3350 C   0  0  0  0  0  3  0  0  0  0  0  0
  186.0580  176.8650  145.6730 C   0  0  0  0  0  2  0  0  0  0  0  0
  193.0370  175.2790  145.0540 N   0  0  0  0  0  2  0  0  0  0  0  0
  194.1400  176.7890  146.5010 C   0  0  0  0  0  2  0  0  0  0  0  0
  194.1650  176.1010  145.3660 C   0  0  0  0  0  0  0  0  0  0  0  0
  195.4080  175.9840  144.5720 C   0  0  0  0  0  3  0  0  0  0  0  0
  196.2890  174.9740  144.5630 C   0  0  0  0  0  3  0  0  0  0  0  0
  197.0980  173.7440  146.5130 C   0  0  0  0  0  2  0  0  0  0  0  0
  196.3130  173.7850  145.4360 C   0  0  0  0  0  0  0  0  0  0  0  0
  196.8030  171.4210  144.8130 C   0  0  0  0  0  1  0  0  0  0  0  0
  194.5400  172.0370  145.6590 C   0  0  0  0  0  1  0  0  0  0  0  0
  195.7500  172.5150  144.8740 C   0  0  0  0  0  3  0  0  0  0  0  0
  192.8730  175.9360  142.4430 S   0  0  0  0  0  0  0  0  0  0  0  0
  192.3140  174.3470  141.7440 C   0  0  1  0  0  3  0  0  0  0  0  0
  193.4100  173.2950  141.8830 C   0  0  0  0  0  1  0  0  0  0  0  0
  191.0340  173.9260  142.3320 N   0  0  0  0  0  0  0  0  0  0  0  0
  189.6430  172.0310  142.2980 C   0  0  0  0  0  2  0  0  0  0  0  0
  188.3050  172.9280  140.5020 N   0  0  0  0  0  1  0  0  0  0  0  0
  190.0470  174.1740  141.4230 O   0  0  0  0  0  0  0  0  0  0  0  0
  191.0280  172.4930  142.6100 C   0  0  0  0  0  2  0  0  0  0  0  0
  189.0190  173.2670  141.7170 C   0  0  2  0  0  3  0  0  0  0  0  0
  1 26  1  6  0  0  0
  1  3  1  0  0  0  0
  1 16  1  0  0  0  0
  3  2  1  6  0  0  0
  3  6  1  0  0  0  0
  4  7  1  0  0  0  0
  4  6  1  0  0  0  0
  6  5  2  0  0  0  0
  8  7  2  0  0  0  0
 10  7  1  6  0  0  0
 10 15  1  0  0  0  0
 11  9  1  0  0  0  0
 12  9  1  0  0  0  0
 13 10  1  0  0  0  0
 14 13  1  0  0  0  0
 14 11  2  0  0  0  0
 15 12  1  0  0  0  0
 16 18  1  0  0  0  0
 18 17  2  0  0  0  0
 19 18  1  0  0  0  0
 20 19  2  0  0  0  0
 20 22  1  0  0  0  0
 22 21  2  0  0  0  0
 23 25  1  0  0  0  0
 25 22  1  0  0  0  0
 25 24  1  0  0  0  0
 27 28  1  1  0  0  0
 27 29  1  0  0  0  0
 27 26  1  0  0  0  0
 29 33  1  0  0  0  0
 30 33  1  0  0  0  0
 32 34  1  0  0  0  0
 32 29  1  0  0  0  0
 34 31  1  6  0  0  0
 34 30  1  0  0  0  0
M  END
>  <MODEL>
7

>  <REMARK>
 VINA RESULT:      -6.9      2.558      7.815
  Name = 
  11 active torsions:
  status: ('A' for Active; 'I' for Inactive)
    1  A    between atoms: N_1  and  C_11
    2  A    between atoms: C_3  and  C_32
    3  A    between atoms: C_4  and  C_23
    4  A    between atoms: C_11  and  S_28
    5  A    between atoms: N_16  and  C_31
    6  A    between atoms: N_16  and  C_32
    7  A    between atoms: C_19  and  C_20
    8  A    between atoms: C_20  and  C_31
    9  A    between atoms: S_28  and  C_31
   10  A    between atoms: C_30  and  C_34
   11  A    between atoms: C_33  and  C_34
                            x       y       z     vdW  Elec       q    Type
                         _______ _______ _______ _____ _____    ______ ____

>  <TORSDO>
F 11

$$$$
=
 OpenBabel11042418433D

 34 35  0  0  1  0  0  0  0  0999 V2000
  189.7110  176.9170  143.9200 C   0  0  2  0  0  3  0  0  0  0  0  0
  188.6150  178.1480  142.0180 C   0  0  0  0  0  1  0  0  0  0  0  0
  188.5350  176.9400  142.9380 C   0  0  1  0  0  3  0  0  0  0  0  0
  188.7480  174.4310  142.7680 N   0  0  0  0  0  2  0  0  0  0  0  0
  187.9620  175.7000  140.9640 O   0  0  0  0  0  0  0  0  0  0  0  0
  188.3950  175.6720  142.1490 C   0  0  0  0  0  0  0  0  0  0  0  0
  189.0010  173.2020  142.0750 C   0  0  0  0  0  0  0  0  0  0  0  0
  188.7260  172.1170  142.6530 O   0  0  0  0  0  0  0  0  0  0  0  0
  190.2840  171.9080  137.8630 C   0  0  0  0  0  2  0  0  0  0  0  0
  189.6330  173.1780  140.7360 C   0  0  1  0  0  3  0  0  0  0  0  0
  191.4540  171.5280  138.7710 C   0  0  0  0  0  3  0  0  0  0  0  0
  188.9680  172.0000  138.5910 C   0  0  0  0  0  2  0  0  0  0  0  0
  191.1170  173.3720  140.5350 C   0  0  0  0  0  2  0  0  0  0  0  0
  191.8120  172.1580  139.9200 C   0  0  0  0  0  3  0  0  0  0  0  0
  189.0590  172.6260  139.7170 C   0  0  0  0  0  2  0  0  0  0  0  0
  189.4120  177.6830  145.1240 N   0  0  0  0  0  2  0  0  0  0  0  0
  190.0640  177.5410  147.3930 C   0  0  0  0  0  2  0  0  0  0  0  0
  189.2960  177.0770  146.4150 C   0  0  0  0  0  0  0  0  0  0  0  0
  188.1840  176.1420  146.6950 C   0  0  0  0  0  3  0  0  0  0  0  0
  186.8780  176.4240  146.8060 C   0  0  0  0  0  3  0  0  0  0  0  0
  186.1880  178.4890  147.9160 C   0  0  0  0  0  2  0  0  0  0  0  0
  186.2350  177.7520  146.8060 C   0  0  0  0  0  0  0  0  0  0  0  0
  184.0070  178.6600  146.1540 C   0  0  0  0  0  1  0  0  0  0  0  0
  185.9680  178.9860  144.6490 C   0  0  0  0  0  1  0  0  0  0  0  0
  185.3150  178.0630  145.6640 C   0  0  0  0  0  3  0  0  0  0  0  0
  191.2310  177.5460  143.1370 S   0  0  0  0  0  0  0  0  0  0  0  0
  192.1390  175.9850  143.3910 C   0  0  1  0  0  3  0  0  0  0  0  0
  193.2920  175.8770  142.3970 C   0  0  0  0  0  1  0  0  0  0  0  0
  192.5680  175.8370  144.7890 N   0  0  0  0  0  0  0  0  0  0  0  0
  194.2980  176.6260  146.1710 C   0  0  0  0  0  2  0  0  0  0  0  0
  195.6540  174.6750  145.7480 N   0  0  0  0  0  1  0  0  0  0  0  0
  193.5130  174.8540  144.8410 O   0  0  0  0  0  0  0  0  0  0  0  0
  193.1800  177.0660  145.2850 C   0  0  0  0  0  2  0  0  0  0  0  0
  194.2980  175.1380  145.9690 C   0  0  2  0  0  3  0  0  0  0  0  0
  1 26  1  6  0  0  0
  1 16  1  0  0  0  0
  3  2  1  6  0  0  0
  3  1  1  0  0  0  0
  5  6  2  0  0  0  0
  6  4  1  0  0  0  0
  6  3  1  0  0  0  0
  7  8  2  0  0  0  0
  7  4  1  0  0  0  0
  9 12  1  0  0  0  0
  9 11  1  0  0  0  0
 10  7  1  1  0  0  0
 11 14  2  0  0  0  0
 12 15  1  0  0  0  0
 13 10  1  0  0  0  0
 14 13  1  0  0  0  0
 15 10  1  0  0  0  0
 16 18  1  0  0  0  0
 18 19  1  0  0  0  0
 18 17  2  0  0  0  0
 19 20  2  0  0  0  0
 22 20  1  0  0  0  0
 22 21  2  0  0  0  0
 24 25  1  0  0  0  0
 25 23  1  0  0  0  0
 25 22  1  0  0  0  0
 26 27  1  0  0  0  0
 27 28  1  6  0  0  0
 27 29  1  0  0  0  0
 29 32  1  0  0  0  0
 29 33  1  0  0  0  0
 32 34  1  0  0  0  0
 33 30  1  0  0  0  0
 34 31  1  6  0  0  0
 34 30  1  0  0  0  0
M  END
>  <MODEL>
8

>  <REMARK>
 VINA RESULT:      -6.9      2.409      6.344
  Name = 
  11 active torsions:
  status: ('A' for Active; 'I' for Inactive)
    1  A    between atoms: N_1  and  C_11
    2  A    between atoms: C_3  and  C_32
    3  A    between atoms: C_4  and  C_23
    4  A    between atoms: C_11  and  S_28
    5  A    between atoms: N_16  and  C_31
    6  A    between atoms: N_16  and  C_32
    7  A    between atoms: C_19  and  C_20
    8  A    between atoms: C_20  and  C_31
    9  A    between atoms: S_28  and  C_31
   10  A    between atoms: C_30  and  C_34
   11  A    between atoms: C_33  and  C_34
                            x       y       z     vdW  Elec       q    Type
                         _______ _______ _______ _____ _____    ______ ____

>  <TORSDO>
F 11

$$$$
=
 OpenBabel11042418433D

 34 35  0  0  1  0  0  0  0  0999 V2000
  189.8440  176.0770  144.2000 C   0  0  2  0  0  3  0  0  0  0  0  0
  190.0320  173.6060  144.6410 C   0  0  0  0  0  1  0  0  0  0  0  0
  190.4910  174.9920  145.0680 C   0  0  1  0  0  3  0  0  0  0  0  0
  192.6050  176.3560  145.2580 N   0  0  0  0  0  2  0  0  0  0  0  0
  192.6890  174.0300  145.0150 O   0  0  0  0  0  0  0  0  0  0  0  0
  191.9880  175.0750  145.1060 C   0  0  0  0  0  0  0  0  0  0  0  0
  193.9780  176.6550  144.9730 C   0  0  0  0  0  0  0  0  0  0  0  0
  194.5510  177.5520  145.6470 O   0  0  0  0  0  0  0  0  0  0  0  0
  197.2640  175.4160  142.0200 C   0  0  0  0  0  2  0  0  0  0  0  0
  194.7090  175.9850  143.8740 C   0  0  1  0  0  3  0  0  0  0  0  0
  196.4010  176.4220  141.2570 C   0  0  0  0  0  3  0  0  0  0  0  0
  197.1860  175.5740  143.5160 C   0  0  0  0  0  2  0  0  0  0  0  0
  194.1790  175.9310  142.4600 C   0  0  0  0  0  2  0  0  0  0  0  0
  195.0740  176.6430  141.4480 C   0  0  0  0  0  3  0  0  0  0  0  0
  195.9790  175.7460  143.9410 C   0  0  0  0  0  2  0  0  0  0  0  0
  189.2840  177.1460  145.0190 N   0  0  0  0  0  2  0  0  0  0  0  0
  189.7360  177.5450  147.3060 C   0  0  0  0  0  2  0  0  0  0  0  0
  188.9560  176.9680  146.4010 C   0  0  0  0  0  0  0  0  0  0  0  0
  187.6560  176.3730  146.7810 C   0  0  0  0  0  3  0  0  0  0  0  0
  186.5190  177.0090  147.0950 C   0  0  0  0  0  3  0  0  0  0  0  0
  186.6930  179.0750  148.3880 C   0  0  0  0  0  2  0  0  0  0  0  0
  186.3100  178.4590  147.2700 C   0  0  0  0  0  0  0  0  0  0  0  0
  185.9470  179.4160  144.9970 C   0  0  0  0  0  1  0  0  0  0  0  0
  184.0650  178.2920  146.1840 C   0  0  0  0  0  1  0  0  0  0  0  0
  185.3270  179.1200  146.3520 C   0  0  0  0  0  3  0  0  0  0  0  0
  188.5570  175.3730  143.1210 S   0  0  0  0  0  0  0  0  0  0  0  0
  187.8800  177.0080  142.6770 C   0  0  1  0  0  3  0  0  0  0  0  0
  188.9610  177.8670  142.0270 C   0  0  0  0  0  1  0  0  0  0  0  0
  186.6720  176.8800  141.8510 N   0  0  0  0  0  0  0  0  0  0  0  0
  185.2060  178.2950  140.6800 C   0  0  0  0  0  2  0  0  0  0  0  0
  183.6850  178.4240  142.5480 N   0  0  0  0  0  1  0  0  0  0  0  0
  185.5860  177.0780  142.6540 O   0  0  0  0  0  0  0  0  0  0  0  0
  186.6390  177.8960  140.8040 C   0  0  0  0  0  2  0  0  0  0  0  0
  184.5660  177.5410  141.8090 C   0  0  2  0  0  3  0  0  0  0  0  0
  1 26  1  1  0  0  0
  1 16  1  0  0  0  0
  1  3  1  0  0  0  0
  3  2  1  6  0  0  0
  3  6  1  0  0  0  0
  5  6  2  0  0  0  0
  6  4  1  0  0  0  0
  7  4  1  0  0  0  0
  7  8  2  0  0  0  0
  9 12  1  0  0  0  0
 10 15  1  0  0  0  0
 10  7  1  6  0  0  0
 11 14  2  0  0  0  0
 11  9  1  0  0  0  0
 12 15  1  0  0  0  0
 13 10  1  0  0  0  0
 14 13  1  0  0  0  0
 16 18  1  0  0  0  0
 18 19  1  0  0  0  0
 18 17  2  0  0  0  0
 19 20  2  0  0  0  0
 20 22  1  0  0  0  0
 22 21  2  0  0  0  0
 23 25  1  0  0  0  0
 24 25  1  0  0  0  0
 25 22  1  0  0  0  0
 27 28  1  6  0  0  0
 27 26  1  0  0  0  0
 29 32  1  0  0  0  0
 29 27  1  0  0  0  0
 30 33  1  0  0  0  0
 30 34  1  0  0  0  0
 33 29  1  0  0  0  0
 34 31  1  1  0  0  0
 34 32  1  0  0  0  0
M  END
>  <MODEL>
9

>  <REMARK>
 VINA RESULT:      -6.8      1.969      2.890
  Name = 
  11 active torsions:
  status: ('A' for Active; 'I' for Inactive)
    1  A    between atoms: N_1  and  C_11
    2  A    between atoms: C_3  and  C_32
    3  A    between atoms: C_4  and  C_23
    4  A    between atoms: C_11  and  S_28
    5  A    between atoms: N_16  and  C_31
    6  A    between atoms: N_16  and  C_32
    7  A    between atoms: C_19  and  C_20
    8  A    between atoms: C_20  and  C_31
    9  A    between atoms: S_28  and  C_31
   10  A    between atoms: C_30  and  C_34
   11  A    between atoms: C_33  and  C_34
                            x       y       z     vdW  Elec       q    Type
                         _______ _______ _______ _____ _____    ______ ____

>  <TORSDO>
F 11

$$$$
