=
 OpenBabel11042415063D

 53 58  0  0  1  0  0  0  0  0999 V2000
  189.8660  175.6580  143.5490 C   0  0  1  0  0  3  0  0  0  0  0  0
  190.0540  177.8060  142.4050 O   0  0  0  0  0  1  0  0  0  0  0  0
  189.4650  176.5370  142.3590 C   0  0  2  0  0  3  0  0  0  0  0  0
  188.0150  176.6400  142.2270 N   0  0  0  0  0  0  0  0  0  0  0  0
  187.3990  176.5990  140.9310 C   0  0  0  0  0  3  0  0  0  0  0  0
  186.7010  177.6190  140.4470 C   0  0  0  0  0  2  0  0  0  0  0  0
  187.2140  176.7410  143.4400 C   0  0  0  0  0  2  0  0  0  0  0  0
  187.1600  178.1810  143.9270 C   0  0  0  0  0  2  0  0  0  0  0  0
  184.6690  178.5920  143.5570 C   0  0  0  0  0  2  0  0  0  0  0  0
  185.2350  179.8350  144.2370 C   0  0  0  0  0  2  0  0  0  0  0  0
  185.8030  178.4650  144.5520 C   0  0  0  0  0  0  0  0  0  0  0  0
  184.1290  178.3700  146.4240 C   0  0  0  0  0  1  0  0  0  0  0  0
  185.4560  177.8330  145.9100 C   0  0  2  0  0  3  0  0  0  0  0  0
  186.4980  178.0490  146.9060 N   0  0  0  0  0  2  0  0  0  0  0  0
  186.7410  176.7730  147.5510 C   0  0  0  0  0  2  0  0  0  0  0  0
  187.8170  176.0400  146.8270 C   0  0  0  0  0  3  0  0  0  0  0  0
  188.9730  176.1260  147.2030 O   0  0  0  0  0  0  0  0  0  0  0  0
  190.1830  174.3150  143.0740 N   0  0  0  0  0  2  0  0  0  0  0  0
  189.6570  172.7910  144.7040 C   0  0  0  0  0  1  0  0  0  0  0  0
  189.1640  173.4500  143.5060 N   0  0  0  0  0  0  0  0  0  0  0  0
  189.0010  172.4120  142.4960 C   0  0  0  0  0  2  0  0  0  0  0  0
  188.2080  172.9570  141.3070 C   0  0  0  0  0  2  0  0  0  0  0  0
  188.9700  172.8800  139.9830 C   0  0  0  0  0  0  0  0  0  0  0  0
  189.2350  174.1800  139.5540 O   0  0  0  0  0  1  0  0  0  0  0  0
  188.1910  172.2350  139.0180 O   0  0  0  0  0  1  0  0  0  0  0  0
  190.2880  172.1320  140.1900 C   0  0  0  0  0  2  0  0  0  0  0  0
  195.2740  173.6200  140.0310 C   0  0  2  0  0  3  0  0  0  0  0  0
  195.7510  173.4180  138.7020 O   0  0  0  0  0  0  0  0  0  0  0  0
  193.6030  172.4180  138.8000 C   0  0  1  0  0  3  0  0  0  0  0  0
  191.9700  173.7980  137.6810 O   0  0  0  0  0  1  0  0  0  0  0  0
  191.5120  173.0030  139.8990 C   0  0  1  0  0  3  0  0  0  0  0  0
  192.6460  172.9960  140.9600 C   0  0  2  0  0  3  0  0  0  0  0  0
  193.8720  173.0720  140.0920 C   0  0  1  0  0  0  0  0  0  0  0  0
  192.1290  172.6930  138.5210 C   0  0  2  0  0  3  0  0  0  0  0  0
  194.6840  172.9470  137.8830 C   0  0  0  0  0  2  0  0  0  0  0  0
  194.1300  174.5900  140.0090 C   0  0  0  0  0  2  0  0  0  0  0  0
  192.7970  172.0930  143.2140 O   0  0  0  0  0  1  0  0  0  0  0  0
  192.6880  171.7530  141.8610 C   0  0  0  0  0  2  0  0  0  0  0  0
  191.0260  176.2220  144.3740 C   0  0  0  0  0  2  0  0  0  0  0  0
  194.3880  176.0770  143.1600 C   0  0  0  0  0  3  0  0  0  0  0  0
  197.0930  173.7160  143.5550 C   0  0  0  0  0  0  0  0  0  0  0  0
  196.4740  171.9390  145.0220 N   0  0  0  0  0  0  0  0  0  0  0  0
  193.2470  175.9040  143.4290 C   0  0  0  0  0  3  0  0  0  0  0  0
  192.2420  175.3200  144.2750 C   0  0  1  0  0  3  0  0  0  0  0  0
  195.4530  172.6690  145.5320 C   0  0  0  0  0  3  0  0  0  0  0  0
  195.7540  175.8090  143.3570 C   0  0  0  0  0  0  0  0  0  0  0  0
  197.9410  174.1660  142.5030 N   0  0  0  0  0  1  0  0  0  0  0  0
  197.2840  172.4310  144.0550 C   0  0  0  0  0  3  0  0  0  0  0  0
  194.1320  174.6590  145.9000 C   0  0  0  0  0  3  0  0  0  0  0  0
  192.9210  175.2060  145.6160 C   0  0  0  0  0  3  0  0  0  0  0  0
  196.0310  174.5130  144.0410 C   0  0  0  0  0  0  0  0  0  0  0  0
  196.6720  176.7510  143.1790 C   0  0  0  0  0  2  0  0  0  0  0  0
  195.1660  173.9550  145.0610 C   0  0  0  0  0  0  0  0  0  0  0  0
  1 39  1  6  0  0  0
  3  2  1  1  0  0  0
  3  1  1  0  0  0  0
  4  3  1  0  0  0  0
  4  7  1  0  0  0  0
  5  4  1  0  0  0  0
  6  5  2  0  0  0  0
  7  8  1  0  0  0  0
  8 11  1  0  0  0  0
  9 10  1  0  0  0  0
  9 11  1  0  0  0  0
 10 11  1  0  0  0  0
 11 13  1  0  0  0  0
 13 12  1  1  0  0  0
 13 14  1  0  0  0  0
 14 15  1  0  0  0  0
 16 17  2  0  0  0  0
 16 15  1  0  0  0  0
 18 20  1  0  0  0  0
 18  1  1  0  0  0  0
 20 19  1  0  0  0  0
 21 20  1  0  0  0  0
 22 21  1  0  0  0  0
 23 26  1  0  0  0  0
 23 22  1  0  0  0  0
 24 23  1  0  0  0  0
 25 23  1  0  0  0  0
 27 36  1  6  0  0  0
 27 33  1  0  0  0  0
 28 27  1  0  0  0  0
 29 35  1  6  0  0  0
 29 33  1  0  0  0  0
 31 26  1  1  0  0  0
 31 32  1  0  0  0  0
 32 38  1  6  0  0  0
 33 36  1  6  0  0  0
 33 32  1  0  0  0  0
 34 30  1  6  0  0  0
 34 29  1  0  0  0  0
 34 31  1  0  0  0  0
 35 28  1  0  0  0  0
 38 37  1  0  0  0  0
 40 46  1  0  0  0  0
 40 43  2  0  0  0  0
 41 51  2  0  0  0  0
 41 48  1  0  0  0  0
 42 45  1  0  0  0  0
 43 44  1  0  0  0  0
 44 39  1  1  0  0  0
 44 50  1  0  0  0  0
 46 51  1  0  0  0  0
 47 41  1  0  0  0  0
 48 42  2  0  0  0  0
 50 49  2  0  0  0  0
 51 53  1  0  0  0  0
 52 46  2  0  0  0  0
 53 45  2  0  0  0  0
 53 49  1  0  0  0  0
M  END
>  <MODEL>
1

>  <REMARK>
 VINA RESULT:      -6.2      0.000      0.000
  Name = 
  20 active torsions:
  status: ('A' for Active; 'I' for Inactive)
    1  A    between atoms: C_6  and  C_36
    2  A    between atoms: C_6  and  C_42
    3  A    between atoms: C_8  and  C_53
    4  A    between atoms: C_10  and  C_18
    5  A    between atoms: C_10  and  N_20
    6  A    between atoms: C_10  and  C_49
    7  A    between atoms: C_12  and  C_18
    8  A    between atoms: C_15  and  N_39
    9  A    between atoms: C_15  and  C_50
   10  A    between atoms: C_16  and  C_47
   11  A    between atoms: C_16  and  C_50
   12  A    between atoms: N_20  and  N_39
   13  A    between atoms: N_29  and  C_35
   14  A    between atoms: N_29  and  C_36
   15  A    between atoms: N_29  and  C_49
   16  A    between atoms: C_30  and  N_37
   17  A    between atoms: C_30  and  C_42
   18  A    between atoms: C_33  and  C_47
   19  A    between atoms: N_37  and  C_53
   20  A    between atoms: C_38  and  C_45
                            x       y       z     vdW  Elec       q    Type
                         _______ _______ _______ _____ _____    ______ ____

>  <TORSDO>
F 20

$$$$
=
 OpenBabel11042415063D

 53 58  0  0  1  0  0  0  0  0999 V2000
  190.2160  176.0670  145.3970 C   0  0  1  0  0  3  0  0  0  0  0  0
  189.0080  174.6170  146.9460 O   0  0  0  0  0  1  0  0  0  0  0  0
  189.1230  175.9250  146.4620 C   0  0  2  0  0  3  0  0  0  0  0  0
  187.8350  176.4180  145.9840 N   0  0  0  0  0  0  0  0  0  0  0  0
  186.9130  177.0400  146.8910 C   0  0  0  0  0  3  0  0  0  0  0  0
  185.5980  176.9130  146.7610 C   0  0  0  0  0  2  0  0  0  0  0  0
  187.5320  176.3010  144.5630 C   0  0  0  0  0  2  0  0  0  0  0  0
  187.3460  177.6770  143.9410 C   0  0  0  0  0  2  0  0  0  0  0  0
  188.4940  176.7080  141.8790 C   0  0  0  0  0  2  0  0  0  0  0  0
  188.5690  178.2270  141.7640 C   0  0  0  0  0  2  0  0  0  0  0  0
  187.3740  177.5670  142.4250 C   0  0  0  0  0  0  0  0  0  0  0  0
  186.3020  177.5580  140.1520 C   0  0  0  0  0  1  0  0  0  0  0  0
  186.0460  177.5360  141.6510 C   0  0  2  0  0  3  0  0  0  0  0  0
  185.1620  178.6330  142.0200 N   0  0  0  0  0  2  0  0  0  0  0  0
  183.9180  178.0420  142.4770 C   0  0  0  0  0  2  0  0  0  0  0  0
  182.8190  178.3890  141.5340 C   0  0  0  0  0  3  0  0  0  0  0  0
  182.8420  177.9700  140.3890 O   0  0  0  0  0  0  0  0  0  0  0  0
  191.3180  176.8570  145.9370 N   0  0  0  0  0  2  0  0  0  0  0  0
  193.2620  176.1860  146.9500 C   0  0  0  0  0  1  0  0  0  0  0  0
  192.5110  176.1520  145.7060 N   0  0  0  0  0  0  0  0  0  0  0  0
  193.2900  176.8990  144.7280 C   0  0  0  0  0  2  0  0  0  0  0  0
  194.7830  176.7480  145.0200 C   0  0  0  0  0  2  0  0  0  0  0  0
  195.5820  176.2080  143.8330 C   0  0  0  0  0  0  0  0  0  0  0  0
  196.6350  177.0860  143.5770 O   0  0  0  0  0  1  0  0  0  0  0  0
  194.7670  176.1360  142.6990 O   0  0  0  0  0  1  0  0  0  0  0  0
  196.1420  174.8250  144.1740 C   0  0  0  0  0  2  0  0  0  0  0  0
  194.1530  170.1610  142.9940 C   0  0  2  0  0  3  0  0  0  0  0  0
  193.9680  169.4420  144.2110 O   0  0  0  0  0  0  0  0  0  0  0  0
  195.1790  171.4020  144.7710 C   0  0  1  0  0  3  0  0  0  0  0  0
  193.7400  173.0090  145.8560 O   0  0  0  0  0  1  0  0  0  0  0  0
  195.1040  173.7140  144.0110 C   0  0  1  0  0  3  0  0  0  0  0  0
  195.2560  172.7880  142.7730 C   0  0  2  0  0  3  0  0  0  0  0  0
  194.8410  171.4560  143.3390 C   0  0  1  0  0  0  0  0  0  0  0  0
  194.9970  172.8320  145.2710 C   0  0  2  0  0  3  0  0  0  0  0  0
  194.3290  170.2720  145.3110 C   0  0  0  0  0  2  0  0  0  0  0  0
  193.3310  171.4160  143.0260 C   0  0  0  0  0  2  0  0  0  0  0  0
  196.9490  171.4540  141.6440 O   0  0  0  0  0  1  0  0  0  0  0  0
  196.6730  172.7150  142.1840 C   0  0  0  0  0  2  0  0  0  0  0  0
  190.7310  174.7310  144.8550 C   0  0  0  0  0  2  0  0  0  0  0  0
  191.9940  174.4210  141.5220 C   0  0  0  0  0  3  0  0  0  0  0  0
  190.5000  173.5510  138.3500 C   0  0  0  0  0  0  0  0  0  0  0  0
  188.1970  172.9850  138.6120 N   0  0  0  0  0  0  0  0  0  0  0  0
  191.4250  174.7080  142.5220 C   0  0  0  0  0  3  0  0  0  0  0  0
  190.3080  174.5400  143.4110 C   0  0  1  0  0  3  0  0  0  0  0  0
  188.3620  172.7810  139.9410 C   0  0  0  0  0  3  0  0  0  0  0  0
  192.0530  173.7470  140.2900 C   0  0  0  0  0  0  0  0  0  0  0  0
  191.5380  173.9970  137.4820 N   0  0  0  0  0  1  0  0  0  0  0  0
  189.2280  173.3640  137.8190 C   0  0  0  0  0  3  0  0  0  0  0  0
  189.6100  172.5030  141.9930 C   0  0  0  0  0  3  0  0  0  0  0  0
  189.8710  173.1170  143.1760 C   0  0  0  0  0  3  0  0  0  0  0  0
  190.7230  173.3660  139.7350 C   0  0  0  0  0  0  0  0  0  0  0  0
  193.2020  173.2770  139.8180 C   0  0  0  0  0  2  0  0  0  0  0  0
  189.5980  172.9820  140.5640 C   0  0  0  0  0  0  0  0  0  0  0  0
  1 39  1  1  0  0  0
  1 18  1  0  0  0  0
  1  3  1  0  0  0  0
  3  2  1  6  0  0  0
  4  3  1  0  0  0  0
  4  5  1  0  0  0  0
  6  5  2  0  0  0  0
  7  4  1  0  0  0  0
  8  7  1  0  0  0  0
  9 11  1  0  0  0  0
 10  9  1  0  0  0  0
 10 11  1  0  0  0  0
 11  8  1  0  0  0  0
 13 12  1  6  0  0  0
 13 14  1  0  0  0  0
 13 11  1  0  0  0  0
 14 15  1  0  0  0  0
 16 15  1  0  0  0  0
 17 16  2  0  0  0  0
 20 18  1  0  0  0  0
 20 19  1  0  0  0  0
 21 22  1  0  0  0  0
 21 20  1  0  0  0  0
 23 26  1  0  0  0  0
 23 22  1  0  0  0  0
 24 23  1  0  0  0  0
 25 23  1  0  0  0  0
 27 36  1  1  0  0  0
 27 33  1  0  0  0  0
 27 28  1  0  0  0  0
 28 35  1  0  0  0  0
 29 34  1  0  0  0  0
 29 35  1  1  0  0  0
 31 26  1  1  0  0  0
 31 34  1  0  0  0  0
 32 38  1  1  0  0  0
 32 33  1  0  0  0  0
 32 31  1  0  0  0  0
 33 36  1  1  0  0  0
 33 29  1  0  0  0  0
 34 30  1  6  0  0  0
 37 38  1  0  0  0  0
 40 43  2  0  0  0  0
 41 51  1  0  0  0  0
 42 45  2  0  0  0  0
 43 44  1  0  0  0  0
 44 39  1  1  0  0  0
 45 53  1  0  0  0  0
 46 40  1  0  0  0  0
 47 41  1  0  0  0  0
 48 41  2  0  0  0  0
 48 42  1  0  0  0  0
 49 50  2  0  0  0  0
 50 44  1  0  0  0  0
 51 46  1  0  0  0  0
 51 53  2  0  0  0  0
 52 46  2  0  0  0  0
 53 49  1  0  0  0  0
M  END
>  <MODEL>
2

>  <REMARK>
 VINA RESULT:      -6.2      2.776      6.170
  Name = 
  20 active torsions:
  status: ('A' for Active; 'I' for Inactive)
    1  A    between atoms: C_6  and  C_36
    2  A    between atoms: C_6  and  C_42
    3  A    between atoms: C_8  and  C_53
    4  A    between atoms: C_10  and  C_18
    5  A    between atoms: C_10  and  N_20
    6  A    between atoms: C_10  and  C_49
    7  A    between atoms: C_12  and  C_18
    8  A    between atoms: C_15  and  N_39
    9  A    between atoms: C_15  and  C_50
   10  A    between atoms: C_16  and  C_47
   11  A    between atoms: C_16  and  C_50
   12  A    between atoms: N_20  and  N_39
   13  A    between atoms: N_29  and  C_35
   14  A    between atoms: N_29  and  C_36
   15  A    between atoms: N_29  and  C_49
   16  A    between atoms: C_30  and  N_37
   17  A    between atoms: C_30  and  C_42
   18  A    between atoms: C_33  and  C_47
   19  A    between atoms: N_37  and  C_53
   20  A    between atoms: C_38  and  C_45
                            x       y       z     vdW  Elec       q    Type
                         _______ _______ _______ _____ _____    ______ ____

>  <TORSDO>
F 20

$$$$
=
 OpenBabel11042415063D

 53 58  0  0  1  0  0  0  0  0999 V2000
  192.2360  175.4700  145.3440 C   0  0  1  0  0  3  0  0  0  0  0  0
  193.6740  177.4420  145.2740 O   0  0  0  0  0  1  0  0  0  0  0  0
  193.6350  176.0530  145.1100 C   0  0  2  0  0  3  0  0  0  0  0  0
  194.1710  175.6660  143.8090 N   0  0  0  0  0  0  0  0  0  0  0  0
  193.4800  176.0240  142.6030 C   0  0  0  0  0  3  0  0  0  0  0  0
  193.9390  175.6980  141.4010 C   0  0  0  0  0  2  0  0  0  0  0  0
  195.4400  174.9510  143.7670 C   0  0  0  0  0  2  0  0  0  0  0  0
  195.2060  173.4470  143.7760 C   0  0  0  0  0  2  0  0  0  0  0  0
  196.5630  173.8210  145.9050 C   0  0  0  0  0  2  0  0  0  0  0  0
  197.3730  172.8860  145.0120 C   0  0  0  0  0  2  0  0  0  0  0  0
  195.8570  172.8300  145.0040 C   0  0  0  0  0  0  0  0  0  0  0  0
  196.2050  170.6070  146.1240 C   0  0  0  0  0  1  0  0  0  0  0  0
  195.1740  171.6400  145.6970 C   0  0  2  0  0  3  0  0  0  0  0  0
  194.1620  171.0140  144.8560 N   0  0  0  0  0  2  0  0  0  0  0  0
  194.7230  169.7660  144.3730 C   0  0  0  0  0  2  0  0  0  0  0  0
  193.6490  168.7390  144.2680 C   0  0  0  0  0  3  0  0  0  0  0  0
  193.1370  168.2860  145.2760 O   0  0  0  0  0  0  0  0  0  0  0  0
  192.2160  174.0750  144.9160 N   0  0  0  0  0  2  0  0  0  0  0  0
  190.8470  172.2750  144.5360 C   0  0  0  0  0  1  0  0  0  0  0  0
  190.8830  173.7240  144.6460 N   0  0  0  0  0  0  0  0  0  0  0  0
  190.5400  174.2510  143.3310 C   0  0  0  0  0  2  0  0  0  0  0  0
  189.0250  174.2020  143.1250 C   0  0  0  0  0  2  0  0  0  0  0  0
  188.6180  173.7130  141.7340 C   0  0  0  0  0  0  0  0  0  0  0  0
  188.2660  174.8220  140.9650 O   0  0  0  0  0  1  0  0  0  0  0  0
  187.5130  172.8610  141.8300 O   0  0  0  0  0  1  0  0  0  0  0  0
  189.7940  172.9880  141.0770 C   0  0  0  0  0  2  0  0  0  0  0  0
  191.7110  172.9230  136.2380 C   0  0  2  0  0  3  0  0  0  0  0  0
  190.8420  172.1310  135.4320 O   0  0  0  0  0  0  0  0  0  0  0  0
  190.1170  171.8490  137.6710 C   0  0  1  0  0  3  0  0  0  0  0  0
  188.0980  173.1080  138.0760 O   0  0  0  0  0  1  0  0  0  0  0  0
  189.9440  173.3320  139.5940 C   0  0  1  0  0  3  0  0  0  0  0  0
  191.3900  173.4100  139.0350 C   0  0  2  0  0  3  0  0  0  0  0  0
  191.2130  172.8320  137.6570 C   0  0  1  0  0  0  0  0  0  0  0  0
  189.1220  172.3860  138.6950 C   0  0  2  0  0  3  0  0  0  0  0  0
  189.7340  171.6970  136.2150 C   0  0  0  0  0  2  0  0  0  0  0  0
  190.9480  174.0870  136.7990 C   0  0  0  0  0  2  0  0  0  0  0  0
  192.8770  171.4870  139.1330 O   0  0  0  0  0  1  0  0  0  0  0  0
  192.4400  172.6190  139.8290 C   0  0  0  0  0  2  0  0  0  0  0  0
  191.7470  175.5940  146.7890 C   0  0  0  0  0  2  0  0  0  0  0  0
  189.4240  177.4440  144.7940 C   0  0  0  0  0  3  0  0  0  0  0  0
  186.1230  178.7850  145.3910 C   0  0  0  0  0  0  0  0  0  0  0  0
  185.3410  178.2030  147.5690 N   0  0  0  0  0  0  0  0  0  0  0  0
  190.1860  177.0410  145.6070 C   0  0  0  0  0  3  0  0  0  0  0  0
  190.4390  176.3610  146.8480 C   0  0  1  0  0  3  0  0  0  0  0  0
  186.2520  177.2050  147.6680 C   0  0  0  0  0  3  0  0  0  0  0  0
  188.1120  177.6980  144.3550 C   0  0  0  0  0  0  0  0  0  0  0  0
  186.0330  179.6690  144.2780 N   0  0  0  0  0  1  0  0  0  0  0  0
  185.2640  178.9870  146.4680 C   0  0  0  0  0  3  0  0  0  0  0  0
  187.9510  175.6830  146.8710 C   0  0  0  0  0  3  0  0  0  0  0  0
  189.2780  175.4100  146.9800 C   0  0  0  0  0  3  0  0  0  0  0  0
  187.1020  177.7660  145.4500 C   0  0  0  0  0  0  0  0  0  0  0  0
  187.7910  177.6200  143.0690 C   0  0  0  0  0  2  0  0  0  0  0  0
  187.1770  176.9550  146.6490 C   0  0  0  0  0  0  0  0  0  0  0  0
  1 39  1  1  0  0  0
  3  2  1  6  0  0  0
  3  1  1  0  0  0  0
  4  3  1  0  0  0  0
  5  4  1  0  0  0  0
  6  5  2  0  0  0  0
  7  8  1  0  0  0  0
  7  4  1  0  0  0  0
  8 11  1  0  0  0  0
 10  9  1  0  0  0  0
 11 10  1  0  0  0  0
 11 13  1  0  0  0  0
 11  9  1  0  0  0  0
 13 12  1  6  0  0  0
 14 13  1  0  0  0  0
 15 14  1  0  0  0  0
 16 15  1  0  0  0  0
 16 17  2  0  0  0  0
 18  1  1  0  0  0  0
 19 20  1  0  0  0  0
 20 18  1  0  0  0  0
 21 20  1  0  0  0  0
 22 21  1  0  0  0  0
 23 25  1  0  0  0  0
 23 22  1  0  0  0  0
 24 23  1  0  0  0  0
 26 23  1  0  0  0  0
 27 36  1  6  0  0  0
 27 33  1  0  0  0  0
 28 35  1  0  0  0  0
 28 27  1  0  0  0  0
 29 35  1  6  0  0  0
 29 34  1  0  0  0  0
 31 26  1  1  0  0  0
 32 31  1  0  0  0  0
 32 38  1  1  0  0  0
 33 36  1  6  0  0  0
 33 29  1  0  0  0  0
 33 32  1  0  0  0  0
 34 30  1  6  0  0  0
 34 31  1  0  0  0  0
 37 38  1  0  0  0  0
 40 43  2  0  0  0  0
 41 51  2  0  0  0  0
 41 48  1  0  0  0  0
 42 45  1  0  0  0  0
 43 44  1  0  0  0  0
 44 39  1  6  0  0  0
 44 50  1  0  0  0  0
 46 40  1  0  0  0  0
 46 51  1  0  0  0  0
 47 41  1  0  0  0  0
 48 42  2  0  0  0  0
 49 50  2  0  0  0  0
 51 53  1  0  0  0  0
 52 46  2  0  0  0  0
 53 49  1  0  0  0  0
 53 45  2  0  0  0  0
M  END
>  <MODEL>
3

>  <REMARK>
 VINA RESULT:      -6.0      2.118      7.605
  Name = 
  20 active torsions:
  status: ('A' for Active; 'I' for Inactive)
    1  A    between atoms: C_6  and  C_36
    2  A    between atoms: C_6  and  C_42
    3  A    between atoms: C_8  and  C_53
    4  A    between atoms: C_10  and  C_18
    5  A    between atoms: C_10  and  N_20
    6  A    between atoms: C_10  and  C_49
    7  A    between atoms: C_12  and  C_18
    8  A    between atoms: C_15  and  N_39
    9  A    between atoms: C_15  and  C_50
   10  A    between atoms: C_16  and  C_47
   11  A    between atoms: C_16  and  C_50
   12  A    between atoms: N_20  and  N_39
   13  A    between atoms: N_29  and  C_35
   14  A    between atoms: N_29  and  C_36
   15  A    between atoms: N_29  and  C_49
   16  A    between atoms: C_30  and  N_37
   17  A    between atoms: C_30  and  C_42
   18  A    between atoms: C_33  and  C_47
   19  A    between atoms: N_37  and  C_53
   20  A    between atoms: C_38  and  C_45
                            x       y       z     vdW  Elec       q    Type
                         _______ _______ _______ _____ _____    ______ ____

>  <TORSDO>
F 20

$$$$
=
 OpenBabel11042415063D

 53 58  0  0  1  0  0  0  0  0999 V2000
  191.0130  171.8990  140.4920 C   0  0  1  0  0  3  0  0  0  0  0  0
  192.2340  170.3230  139.0830 O   0  0  0  0  0  1  0  0  0  0  0  0
  191.5370  171.5360  139.0980 C   0  0  2  0  0  3  0  0  0  0  0  0
  192.3460  172.6090  138.5280 N   0  0  0  0  0  0  0  0  0  0  0  0
  191.7180  173.7420  137.9090 C   0  0  0  0  0  3  0  0  0  0  0  0
  192.3660  174.5360  137.0660 C   0  0  0  0  0  2  0  0  0  0  0  0
  193.7960  172.5210  138.6440 C   0  0  0  0  0  2  0  0  0  0  0  0
  194.2800  173.2700  139.8770 C   0  0  0  0  0  2  0  0  0  0  0  0
  195.7910  175.0250  138.8060 C   0  0  0  0  0  2  0  0  0  0  0  0
  196.1850  173.6730  138.2200 C   0  0  0  0  0  2  0  0  0  0  0  0
  195.6970  173.7740  139.6520 C   0  0  0  0  0  0  0  0  0  0  0  0
  196.2530  172.6260  141.8180 C   0  0  0  0  0  1  0  0  0  0  0  0
  196.7320  173.6290  140.7800 C   0  0  2  0  0  3  0  0  0  0  0  0
  197.0340  174.9010  141.4230 N   0  0  0  0  0  2  0  0  0  0  0  0
  196.0760  175.0740  142.4980 C   0  0  0  0  0  2  0  0  0  0  0  0
  196.1380  176.4720  143.0070 C   0  0  0  0  0  3  0  0  0  0  0  0
  197.2170  177.0170  143.1650 O   0  0  0  0  0  0  0  0  0  0  0  0
  189.5890  172.2090  140.4090 N   0  0  0  0  0  2  0  0  0  0  0  0
  187.8370  172.7770  141.7730 C   0  0  0  0  0  1  0  0  0  0  0  0
  189.2520  172.9960  141.5230 N   0  0  0  0  0  0  0  0  0  0  0  0
  189.3970  174.3950  141.1420 C   0  0  0  0  0  2  0  0  0  0  0  0
  188.7230  175.2940  142.1800 C   0  0  0  0  0  2  0  0  0  0  0  0
  189.6830  175.7980  143.2600 C   0  0  0  0  0  0  0  0  0  0  0  0
  190.9320  176.0030  142.6750 O   0  0  0  0  0  1  0  0  0  0  0  0
  189.8090  174.8420  144.2730 O   0  0  0  0  0  1  0  0  0  0  0  0
  189.1650  177.1170  143.8340 C   0  0  0  0  0  2  0  0  0  0  0  0
  185.0510  177.8610  146.9370 C   0  0  2  0  0  3  0  0  0  0  0  0
  184.1970  178.8160  146.3110 O   0  0  0  0  0  0  0  0  0  0  0  0
  186.1940  178.7710  145.0350 C   0  0  1  0  0  3  0  0  0  0  0  0
  185.8560  177.5670  142.9700 O   0  0  0  0  0  1  0  0  0  0  0  0
  187.7320  177.0090  144.3590 C   0  0  1  0  0  3  0  0  0  0  0  0
  187.5530  176.9490  145.9010 C   0  0  2  0  0  3  0  0  0  0  0  0
  186.2930  177.7490  146.0900 C   0  0  1  0  0  0  0  0  0  0  0  0
  186.8260  178.1270  143.8050 C   0  0  2  0  0  3  0  0  0  0  0  0
  184.7350  179.1740  145.0420 C   0  0  0  0  0  2  0  0  0  0  0  0
  185.1970  176.6630  146.0460 C   0  0  0  0  0  2  0  0  0  0  0  0
  189.5910  176.5620  147.1720 O   0  0  0  0  0  1  0  0  0  0  0  0
  188.7090  177.5470  146.7160 C   0  0  0  0  0  2  0  0  0  0  0  0
  191.2650  170.8200  141.5480 C   0  0  0  0  0  2  0  0  0  0  0  0
  192.7640  173.1850  143.7750 C   0  0  0  0  0  3  0  0  0  0  0  0
  195.8050  173.2090  145.7250 C   0  0  0  0  0  0  0  0  0  0  0  0
  196.9780  171.1420  145.5110 N   0  0  0  0  0  0  0  0  0  0  0  0
  192.4850  172.4350  142.9010 C   0  0  0  0  0  3  0  0  0  0  0  0
  192.5320  171.1170  142.3280 C   0  0  1  0  0  3  0  0  0  0  0  0
  195.8650  170.5170  145.0570 C   0  0  0  0  0  3  0  0  0  0  0  0
  193.4470  173.4870  144.9670 C   0  0  0  0  0  0  0  0  0  0  0  0
  195.8620  174.5970  146.0370 N   0  0  0  0  0  1  0  0  0  0  0  0
  196.9700  172.4560  145.8400 C   0  0  0  0  0  3  0  0  0  0  0  0
  193.5100  170.2860  144.5640 C   0  0  0  0  0  3  0  0  0  0  0  0
  192.6390  170.2080  143.5250 C   0  0  0  0  0  3  0  0  0  0  0  0
  194.6190  172.6080  145.2400 C   0  0  0  0  0  0  0  0  0  0  0  0
  192.9240  174.3090  145.8690 C   0  0  0  0  0  2  0  0  0  0  0  0
  194.6610  171.2060  144.8760 C   0  0  0  0  0  0  0  0  0  0  0  0
  1 39  1  1  0  0  0
  3  2  1  1  0  0  0
  3  1  1  0  0  0  0
  4  7  1  0  0  0  0
  4  3  1  0  0  0  0
  5  4  1  0  0  0  0
  6  5  2  0  0  0  0
  7  8  1  0  0  0  0
  9 11  1  0  0  0  0
 10  9  1  0  0  0  0
 10 11  1  0  0  0  0
 11  8  1  0  0  0  0
 11 13  1  0  0  0  0
 13 14  1  0  0  0  0
 13 12  1  1  0  0  0
 14 15  1  0  0  0  0
 15 16  1  0  0  0  0
 16 17  2  0  0  0  0
 18  1  1  0  0  0  0
 18 20  1  0  0  0  0
 20 19  1  0  0  0  0
 21 20  1  0  0  0  0
 21 22  1  0  0  0  0
 22 23  1  0  0  0  0
 23 26  1  0  0  0  0
 23 25  1  0  0  0  0
 24 23  1  0  0  0  0
 27 36  1  6  0  0  0
 28 27  1  0  0  0  0
 29 35  1  6  0  0  0
 29 33  1  0  0  0  0
 31 26  1  1  0  0  0
 31 32  1  0  0  0  0
 32 33  1  0  0  0  0
 32 38  1  1  0  0  0
 33 36  1  6  0  0  0
 33 27  1  0  0  0  0
 34 30  1  6  0  0  0
 34 31  1  0  0  0  0
 34 29  1  0  0  0  0
 35 28  1  0  0  0  0
 38 37  1  0  0  0  0
 40 46  1  0  0  0  0
 41 48  1  0  0  0  0
 41 47  1  0  0  0  0
 42 48  2  0  0  0  0
 43 40  2  0  0  0  0
 44 39  1  1  0  0  0
 44 43  1  0  0  0  0
 44 50  1  0  0  0  0
 45 42  1  0  0  0  0
 46 51  1  0  0  0  0
 46 52  2  0  0  0  0
 49 53  1  0  0  0  0
 50 49  2  0  0  0  0
 51 41  2  0  0  0  0
 53 45  2  0  0  0  0
 53 51  1  0  0  0  0
M  END
>  <MODEL>
4

>  <REMARK>
 VINA RESULT:      -5.9      2.294      8.102
  Name = 
  20 active torsions:
  status: ('A' for Active; 'I' for Inactive)
    1  A    between atoms: C_6  and  C_36
    2  A    between atoms: C_6  and  C_42
    3  A    between atoms: C_8  and  C_53
    4  A    between atoms: C_10  and  C_18
    5  A    between atoms: C_10  and  N_20
    6  A    between atoms: C_10  and  C_49
    7  A    between atoms: C_12  and  C_18
    8  A    between atoms: C_15  and  N_39
    9  A    between atoms: C_15  and  C_50
   10  A    between atoms: C_16  and  C_47
   11  A    between atoms: C_16  and  C_50
   12  A    between atoms: N_20  and  N_39
   13  A    between atoms: N_29  and  C_35
   14  A    between atoms: N_29  and  C_36
   15  A    between atoms: N_29  and  C_49
   16  A    between atoms: C_30  and  N_37
   17  A    between atoms: C_30  and  C_42
   18  A    between atoms: C_33  and  C_47
   19  A    between atoms: N_37  and  C_53
   20  A    between atoms: C_38  and  C_45
                            x       y       z     vdW  Elec       q    Type
                         _______ _______ _______ _____ _____    ______ ____

>  <TORSDO>
F 20

$$$$
=
 OpenBabel11042415063D

 53 58  0  0  1  0  0  0  0  0999 V2000
  190.0560  174.8890  142.7670 C   0  0  1  0  0  3  0  0  0  0  0  0
  190.7790  177.2210  142.7350 O   0  0  0  0  0  1  0  0  0  0  0  0
  189.7430  176.3520  143.0990 C   0  0  2  0  0  3  0  0  0  0  0  0
  189.3880  176.5250  144.5040 N   0  0  0  0  0  0  0  0  0  0  0  0
  190.1870  175.9240  145.5340 C   0  0  0  0  0  3  0  0  0  0  0  0
  191.2970  176.4920  145.9910 C   0  0  0  0  0  2  0  0  0  0  0  0
  188.2350  177.3530  144.8310 C   0  0  0  0  0  2  0  0  0  0  0  0
  186.9450  176.6620  144.4140 C   0  0  0  0  0  2  0  0  0  0  0  0
  185.8860  177.3070  142.1830 C   0  0  0  0  0  2  0  0  0  0  0  0
  186.7850  178.4650  142.6070 C   0  0  0  0  0  2  0  0  0  0  0  0
  186.0610  177.6360  143.6510 C   0  0  0  0  0  0  0  0  0  0  0  0
  184.9620  179.7810  144.3620 C   0  0  0  0  0  1  0  0  0  0  0  0
  184.8510  178.2650  144.3610 C   0  0  2  0  0  3  0  0  0  0  0  0
  184.6920  177.7780  145.7250 N   0  0  0  0  0  2  0  0  0  0  0  0
  185.1550  178.8300  146.6100 C   0  0  0  0  0  2  0  0  0  0  0  0
  185.9010  178.2350  147.7530 C   0  0  0  0  0  3  0  0  0  0  0  0
  186.0830  177.0310  147.8030 O   0  0  0  0  0  0  0  0  0  0  0  0
  188.8780  174.2640  142.1750 N   0  0  0  0  0  2  0  0  0  0  0  0
  188.2300  174.7440  140.0290 C   0  0  0  0  0  1  0  0  0  0  0  0
  189.1690  173.9770  140.8310 N   0  0  0  0  0  0  0  0  0  0  0  0
  188.8660  172.5710  140.5980 C   0  0  0  0  0  2  0  0  0  0  0  0
  190.1520  171.7440  140.6340 C   0  0  0  0  0  2  0  0  0  0  0  0
  190.7810  171.5400  139.2540 C   0  0  0  0  0  0  0  0  0  0  0  0
  191.2270  172.7760  138.7890 O   0  0  0  0  0  1  0  0  0  0  0  0
  189.8280  171.0380  138.3630 O   0  0  0  0  0  1  0  0  0  0  0  0
  191.9650  170.5780  139.3650 C   0  0  0  0  0  2  0  0  0  0  0  0
  196.4800  170.9950  141.9230 C   0  0  2  0  0  3  0  0  0  0  0  0
  197.5150  171.1790  140.9600 O   0  0  0  0  0  0  0  0  0  0  0  0
  195.5510  170.6590  139.7380 C   0  0  1  0  0  3  0  0  0  0  0  0
  194.6470  172.6420  138.6990 O   0  0  0  0  0  1  0  0  0  0  0  0
  193.1980  171.2310  139.9920 C   0  0  1  0  0  3  0  0  0  0  0  0
  193.7100  170.6270  141.3280 C   0  0  2  0  0  3  0  0  0  0  0  0
  195.2000  170.7530  141.1650 C   0  0  1  0  0  0  0  0  0  0  0  0
  194.3800  171.3050  139.0040 C   0  0  2  0  0  3  0  0  0  0  0  0
  196.9420  171.2480  139.6570 C   0  0  0  0  0  2  0  0  0  0  0  0
  195.4930  172.1200  141.8170 C   0  0  0  0  0  2  0  0  0  0  0  0
  194.0780  168.5790  142.5880 O   0  0  0  0  0  1  0  0  0  0  0  0
  193.3080  169.1660  141.5780 C   0  0  0  0  0  2  0  0  0  0  0  0
  191.2740  174.7070  141.8570 C   0  0  0  0  0  2  0  0  0  0  0  0
  194.0640  175.0520  144.0700 C   0  0  0  0  0  3  0  0  0  0  0  0
  196.1680  172.7010  145.8310 C   0  0  0  0  0  0  0  0  0  0  0  0
  195.4350  170.4590  145.4740 N   0  0  0  0  0  0  0  0  0  0  0  0
  193.3090  174.8100  143.1880 C   0  0  0  0  0  3  0  0  0  0  0  0
  192.3620  173.9240  142.5680 C   0  0  1  0  0  3  0  0  0  0  0  0
  194.2160  170.8850  145.0660 C   0  0  0  0  0  3  0  0  0  0  0  0
  194.7660  174.6730  145.2270 C   0  0  0  0  0  0  0  0  0  0  0  0
  197.2340  173.5760  146.1870 N   0  0  0  0  0  1  0  0  0  0  0  0
  196.4020  171.3300  145.8490 C   0  0  0  0  0  3  0  0  0  0  0  0
  192.4450  172.4910  144.7100 C   0  0  0  0  0  3  0  0  0  0  0  0
  191.7830  173.1490  143.7230 C   0  0  0  0  0  3  0  0  0  0  0  0
  194.9160  173.1990  145.3990 C   0  0  0  0  0  0  0  0  0  0  0  0
  195.0320  175.5500  146.1880 C   0  0  0  0  0  2  0  0  0  0  0  0
  193.9060  172.2460  144.9830 C   0  0  0  0  0  0  0  0  0  0  0  0
  1 39  1  6  0  0  0
  1  3  1  0  0  0  0
  3  2  1  1  0  0  0
  3  4  1  0  0  0  0
  4  7  1  0  0  0  0
  4  5  1  0  0  0  0
  5  6  2  0  0  0  0
  8  7  1  0  0  0  0
  9 10  1  0  0  0  0
  9 11  1  0  0  0  0
 10 11  1  0  0  0  0
 11 13  1  0  0  0  0
 11  8  1  0  0  0  0
 13 12  1  1  0  0  0
 13 14  1  0  0  0  0
 14 15  1  0  0  0  0
 15 16  1  0  0  0  0
 16 17  2  0  0  0  0
 18  1  1  0  0  0  0
 19 20  1  0  0  0  0
 20 18  1  0  0  0  0
 21 22  1  0  0  0  0
 21 20  1  0  0  0  0
 23 26  1  0  0  0  0
 23 22  1  0  0  0  0
 24 23  1  0  0  0  0
 25 23  1  0  0  0  0
 27 36  1  6  0  0  0
 28 27  1  0  0  0  0
 29 35  1  1  0  0  0
 29 33  1  0  0  0  0
 31 26  1  6  0  0  0
 31 32  1  0  0  0  0
 32 38  1  6  0  0  0
 33 32  1  0  0  0  0
 33 36  1  6  0  0  0
 33 27  1  0  0  0  0
 34 30  1  1  0  0  0
 34 29  1  0  0  0  0
 34 31  1  0  0  0  0
 35 28  1  0  0  0  0
 38 37  1  0  0  0  0
 40 46  1  0  0  0  0
 41 48  1  0  0  0  0
 41 47  1  0  0  0  0
 42 48  2  0  0  0  0
 43 40  2  0  0  0  0
 44 39  1  1  0  0  0
 44 43  1  0  0  0  0
 44 50  1  0  0  0  0
 45 42  1  0  0  0  0
 46 51  1  0  0  0  0
 46 52  2  0  0  0  0
 49 53  1  0  0  0  0
 50 49  2  0  0  0  0
 51 41  2  0  0  0  0
 53 45  2  0  0  0  0
 53 51  1  0  0  0  0
M  END
>  <MODEL>
5

>  <REMARK>
 VINA RESULT:      -5.9      1.948      2.867
  Name = 
  20 active torsions:
  status: ('A' for Active; 'I' for Inactive)
    1  A    between atoms: C_6  and  C_36
    2  A    between atoms: C_6  and  C_42
    3  A    between atoms: C_8  and  C_53
    4  A    between atoms: C_10  and  C_18
    5  A    between atoms: C_10  and  N_20
    6  A    between atoms: C_10  and  C_49
    7  A    between atoms: C_12  and  C_18
    8  A    between atoms: C_15  and  N_39
    9  A    between atoms: C_15  and  C_50
   10  A    between atoms: C_16  and  C_47
   11  A    between atoms: C_16  and  C_50
   12  A    between atoms: N_20  and  N_39
   13  A    between atoms: N_29  and  C_35
   14  A    between atoms: N_29  and  C_36
   15  A    between atoms: N_29  and  C_49
   16  A    between atoms: C_30  and  N_37
   17  A    between atoms: C_30  and  C_42
   18  A    between atoms: C_33  and  C_47
   19  A    between atoms: N_37  and  C_53
   20  A    between atoms: C_38  and  C_45
                            x       y       z     vdW  Elec       q    Type
                         _______ _______ _______ _____ _____    ______ ____

>  <TORSDO>
F 20

$$$$
=
 OpenBabel11042415063D

 53 58  0  0  1  0  0  0  0  0999 V2000
  191.7940  175.2390  145.3650 C   0  0  1  0  0  3  0  0  0  0  0  0
  193.9970  174.5310  146.1440 O   0  0  0  0  0  1  0  0  0  0  0  0
  193.2570  174.9330  145.0260 C   0  0  2  0  0  3  0  0  0  0  0  0
  193.9010  176.0560  144.3520 N   0  0  0  0  0  0  0  0  0  0  0  0
  194.9520  176.7870  145.0010 C   0  0  0  0  0  3  0  0  0  0  0  0
  194.7120  177.8490  145.7590 C   0  0  0  0  0  2  0  0  0  0  0  0
  193.4810  176.3840  142.9960 C   0  0  0  0  0  2  0  0  0  0  0  0
  194.6530  176.2770  142.0320 C   0  0  0  0  0  2  0  0  0  0  0  0
  194.3510  174.8440  139.9420 C   0  0  0  0  0  2  0  0  0  0  0  0
  193.3410  174.3540  140.9740 C   0  0  0  0  0  2  0  0  0  0  0  0
  194.6900  174.8870  141.4160 C   0  0  0  0  0  0  0  0  0  0  0  0
  195.0720  172.7350  142.6580 C   0  0  0  0  0  1  0  0  0  0  0  0
  195.7400  173.8770  141.9080 C   0  0  2  0  0  3  0  0  0  0  0  0
  196.7560  174.4960  142.7490 N   0  0  0  0  0  2  0  0  0  0  0  0
  197.1800  173.4970  143.7110 C   0  0  0  0  0  2  0  0  0  0  0  0
  197.4880  174.1500  145.0130 C   0  0  0  0  0  3  0  0  0  0  0  0
  197.1960  173.5960  146.0590 O   0  0  0  0  0  0  0  0  0  0  0  0
  191.0360  173.9920  145.4070 N   0  0  0  0  0  2  0  0  0  0  0  0
  189.4760  173.9200  143.7290 C   0  0  0  0  0  1  0  0  0  0  0  0
  190.8390  173.5590  144.0860 N   0  0  0  0  0  0  0  0  0  0  0  0
  190.9010  172.1040  144.0770 C   0  0  0  0  0  2  0  0  0  0  0  0
  190.0210  171.5470  142.9560 C   0  0  0  0  0  2  0  0  0  0  0  0
  190.8080  171.1690  141.7000 C   0  0  0  0  0  0  0  0  0  0  0  0
  190.4380  169.8770  141.3240 O   0  0  0  0  0  1  0  0  0  0  0  0
  192.1790  171.1860  141.9690 O   0  0  0  0  0  1  0  0  0  0  0  0
  190.4750  172.1440  140.5700 C   0  0  0  0  0  2  0  0  0  0  0  0
  189.9660  171.5790  135.4200 C   0  0  2  0  0  3  0  0  0  0  0  0
  191.2430  171.8010  134.8250 O   0  0  0  0  0  0  0  0  0  0  0  0
  191.4570  172.4000  137.1100 C   0  0  1  0  0  3  0  0  0  0  0  0
  192.6570  170.6950  138.3260 O   0  0  0  0  0  1  0  0  0  0  0  0
  190.5650  171.4960  139.1870 C   0  0  1  0  0  3  0  0  0  0  0  0
  189.3850  171.7580  138.2120 C   0  0  2  0  0  3  0  0  0  0  0  0
  190.1010  171.8660  136.8930 C   0  0  1  0  0  0  0  0  0  0  0  0
  191.8820  171.8490  138.4670 C   0  0  2  0  0  3  0  0  0  0  0  0
  192.2070  172.0320  135.8480 C   0  0  0  0  0  2  0  0  0  0  0  0
  190.0520  170.4170  136.3650 C   0  0  0  0  0  2  0  0  0  0  0  0
  189.1220  174.1530  137.8730 O   0  0  0  0  0  1  0  0  0  0  0  0
  188.5720  173.0290  138.4980 C   0  0  0  0  0  2  0  0  0  0  0  0
  191.6090  176.0210  146.6680 C   0  0  0  0  0  2  0  0  0  0  0  0
  189.1900  177.5460  144.5190 C   0  0  0  0  0  3  0  0  0  0  0  0
  185.8740  178.8860  145.0350 C   0  0  0  0  0  0  0  0  0  0  0  0
  185.1660  178.5780  147.2930 N   0  0  0  0  0  0  0  0  0  0  0  0
  189.9830  177.2690  145.3550 C   0  0  0  0  0  3  0  0  0  0  0  0
  190.2860  176.7620  146.6660 C   0  0  1  0  0  3  0  0  0  0  0  0
  186.1030  177.6210  147.4930 C   0  0  0  0  0  3  0  0  0  0  0  0
  187.8610  177.7130  144.0900 C   0  0  0  0  0  0  0  0  0  0  0  0
  185.7340  179.6140  143.8190 N   0  0  0  0  0  1  0  0  0  0  0  0
  185.0410  179.2100  146.1010 C   0  0  0  0  0  3  0  0  0  0  0  0
  187.8170  176.0420  146.8510 C   0  0  0  0  0  3  0  0  0  0  0  0
  189.1520  175.8130  146.9550 C   0  0  0  0  0  3  0  0  0  0  0  0
  186.8800  177.9040  145.1970 C   0  0  0  0  0  0  0  0  0  0  0  0
  187.5070  177.4610  142.8360 C   0  0  0  0  0  2  0  0  0  0  0  0
  187.0060  177.2580  146.4880 C   0  0  0  0  0  0  0  0  0  0  0  0
  1 18  1  0  0  0  0
  1 39  1  1  0  0  0
  3  1  1  0  0  0  0
  3  2  1  1  0  0  0
  4  5  1  0  0  0  0
  4  3  1  0  0  0  0
  5  6  2  0  0  0  0
  7  4  1  0  0  0  0
  8  7  1  0  0  0  0
  9 10  1  0  0  0  0
  9 11  1  0  0  0  0
 10 11  1  0  0  0  0
 11 13  1  0  0  0  0
 11  8  1  0  0  0  0
 13 12  1  1  0  0  0
 13 14  1  0  0  0  0
 14 15  1  0  0  0  0
 15 16  1  0  0  0  0
 16 17  2  0  0  0  0
 19 20  1  0  0  0  0
 20 18  1  0  0  0  0
 21 20  1  0  0  0  0
 22 21  1  0  0  0  0
 23 25  1  0  0  0  0
 23 22  1  0  0  0  0
 24 23  1  0  0  0  0
 26 23  1  0  0  0  0
 27 36  1  1  0  0  0
 27 33  1  0  0  0  0
 28 27  1  0  0  0  0
 28 35  1  0  0  0  0
 29 35  1  6  0  0  0
 29 34  1  0  0  0  0
 31 26  1  1  0  0  0
 32 38  1  1  0  0  0
 32 31  1  0  0  0  0
 33 36  1  1  0  0  0
 33 29  1  0  0  0  0
 33 32  1  0  0  0  0
 34 30  1  6  0  0  0
 34 31  1  0  0  0  0
 37 38  1  0  0  0  0
 40 43  2  0  0  0  0
 41 51  2  0  0  0  0
 41 48  1  0  0  0  0
 42 45  1  0  0  0  0
 43 44  1  0  0  0  0
 44 39  1  6  0  0  0
 44 50  1  0  0  0  0
 46 40  1  0  0  0  0
 46 51  1  0  0  0  0
 47 41  1  0  0  0  0
 48 42  2  0  0  0  0
 49 50  2  0  0  0  0
 51 53  1  0  0  0  0
 52 46  2  0  0  0  0
 53 49  1  0  0  0  0
 53 45  2  0  0  0  0
M  END
>  <MODEL>
6

>  <REMARK>
 VINA RESULT:      -5.7      2.216      7.666
  Name = 
  20 active torsions:
  status: ('A' for Active; 'I' for Inactive)
    1  A    between atoms: C_6  and  C_36
    2  A    between atoms: C_6  and  C_42
    3  A    between atoms: C_8  and  C_53
    4  A    between atoms: C_10  and  C_18
    5  A    between atoms: C_10  and  N_20
    6  A    between atoms: C_10  and  C_49
    7  A    between atoms: C_12  and  C_18
    8  A    between atoms: C_15  and  N_39
    9  A    between atoms: C_15  and  C_50
   10  A    between atoms: C_16  and  C_47
   11  A    between atoms: C_16  and  C_50
   12  A    between atoms: N_20  and  N_39
   13  A    between atoms: N_29  and  C_35
   14  A    between atoms: N_29  and  C_36
   15  A    between atoms: N_29  and  C_49
   16  A    between atoms: C_30  and  N_37
   17  A    between atoms: C_30  and  C_42
   18  A    between atoms: C_33  and  C_47
   19  A    between atoms: N_37  and  C_53
   20  A    between atoms: C_38  and  C_45
                            x       y       z     vdW  Elec       q    Type
                         _______ _______ _______ _____ _____    ______ ____

>  <TORSDO>
F 20

$$$$
=
 OpenBabel11042415063D

 53 58  0  0  1  0  0  0  0  0999 V2000
  194.3440  173.6840  144.8910 C   0  0  1  0  0  3  0  0  0  0  0  0
  194.2290  171.3120  145.4580 O   0  0  0  0  0  1  0  0  0  0  0  0
  193.4920  172.4980  145.3570 C   0  0  2  0  0  3  0  0  0  0  0  0
  192.3170  172.3100  144.5120 N   0  0  0  0  0  0  0  0  0  0  0  0
  191.1640  173.1490  144.6740 C   0  0  0  0  0  3  0  0  0  0  0  0
  189.9280  172.6670  144.6430 C   0  0  0  0  0  2  0  0  0  0  0  0
  192.3640  171.2840  143.4780 C   0  0  0  0  0  2  0  0  0  0  0  0
  192.3150  171.9160  142.0950 C   0  0  0  0  0  2  0  0  0  0  0  0
  190.8130  169.8950  141.6860 C   0  0  0  0  0  2  0  0  0  0  0  0
  192.2280  169.4950  141.2790 C   0  0  0  0  0  2  0  0  0  0  0  0
  191.7520  170.9230  141.0920 C   0  0  0  0  0  0  0  0  0  0  0  0
  192.2170  172.6590  139.3350 C   0  0  0  0  0  1  0  0  0  0  0  0
  191.4350  171.3970  139.6640 C   0  0  2  0  0  3  0  0  0  0  0  0
  190.0120  171.6270  139.4580 N   0  0  0  0  0  2  0  0  0  0  0  0
  189.8460  173.0380  139.1630 C   0  0  0  0  0  2  0  0  0  0  0  0
  188.8200  173.2130  138.0980 C   0  0  0  0  0  3  0  0  0  0  0  0
  189.1270  173.7130  137.0300 O   0  0  0  0  0  0  0  0  0  0  0  0
  194.2550  174.7600  145.8730 N   0  0  0  0  0  2  0  0  0  0  0  0
  194.4030  176.8770  145.0050 C   0  0  0  0  0  1  0  0  0  0  0  0
  193.4850  175.7930  145.3140 N   0  0  0  0  0  0  0  0  0  0  0  0
  192.5860  176.2900  146.3480 C   0  0  0  0  0  2  0  0  0  0  0  0
  191.2030  176.5640  145.7550 C   0  0  0  0  0  2  0  0  0  0  0  0
  190.0630  176.3570  146.7530 C   0  0  0  0  0  0  0  0  0  0  0  0
  189.8850  177.5420  147.4670 O   0  0  0  0  0  1  0  0  0  0  0  0
  190.3890  175.3340  147.6480 O   0  0  0  0  0  1  0  0  0  0  0  0
  188.7750  176.0150  146.0010 C   0  0  0  0  0  2  0  0  0  0  0  0
  184.7300  178.9130  144.4730 C   0  0  2  0  0  3  0  0  0  0  0  0
  183.6880  178.7540  145.4330 O   0  0  0  0  0  0  0  0  0  0  0  0
  185.3580  177.1660  145.9910 C   0  0  1  0  0  3  0  0  0  0  0  0
  186.6120  177.8940  147.9210 O   0  0  0  0  0  1  0  0  0  0  0  0
  187.7920  177.1860  145.9550 C   0  0  1  0  0  3  0  0  0  0  0  0
  187.2700  177.6090  144.5540 C   0  0  2  0  0  3  0  0  0  0  0  0
  185.8440  177.9760  144.8610 C   0  0  1  0  0  0  0  0  0  0  0  0
  186.5800  176.9620  146.8810 C   0  0  2  0  0  3  0  0  0  0  0  0
  184.1440  177.9180  146.4930 C   0  0  0  0  0  2  0  0  0  0  0  0
  185.9420  179.4900  145.1430 C   0  0  0  0  0  2  0  0  0  0  0  0
  186.0620  176.0440  143.1370 O   0  0  0  0  0  1  0  0  0  0  0  0
  187.3340  176.5160  143.4770 C   0  0  0  0  0  2  0  0  0  0  0  0
  195.8080  173.3270  144.6190 C   0  0  0  0  0  2  0  0  0  0  0  0
  196.1010  171.6650  141.4650 C   0  0  0  0  0  3  0  0  0  0  0  0
  196.5990  172.8020  138.0720 C   0  0  0  0  0  0  0  0  0  0  0  0
  196.6450  175.1850  137.9640 N   0  0  0  0  0  0  0  0  0  0  0  0
  196.2440  172.2980  142.4560 C   0  0  0  0  0  3  0  0  0  0  0  0
  196.1520  173.5500  143.1580 C   0  0  1  0  0  3  0  0  0  0  0  0
  196.0420  175.2870  139.1720 C   0  0  0  0  0  3  0  0  0  0  0  0
  195.8080  171.5750  140.0920 C   0  0  0  0  0  0  0  0  0  0  0  0
  196.9640  171.5640  137.4700 N   0  0  0  0  0  1  0  0  0  0  0  0
  196.9280  173.9820  137.4110 C   0  0  0  0  0  3  0  0  0  0  0  0
  194.8680  174.4840  141.1270 C   0  0  0  0  0  3  0  0  0  0  0  0
  195.0300  174.2730  142.4590 C   0  0  0  0  0  3  0  0  0  0  0  0
  195.9820  172.8530  139.3440 C   0  0  0  0  0  0  0  0  0  0  0  0
  195.1890  170.5130  139.5900 C   0  0  0  0  0  2  0  0  0  0  0  0
  195.7090  174.1540  139.9220 C   0  0  0  0  0  0  0  0  0  0  0  0
  1 39  1  1  0  0  0
  1  3  1  0  0  0  0
  1 18  1  0  0  0  0
  3  2  1  6  0  0  0
  4  5  1  0  0  0  0
  4  3  1  0  0  0  0
  6  5  2  0  0  0  0
  7  4  1  0  0  0  0
  8  7  1  0  0  0  0
 10  9  1  0  0  0  0
 11 10  1  0  0  0  0
 11  9  1  0  0  0  0
 11  8  1  0  0  0  0
 13 12  1  1  0  0  0
 13 11  1  0  0  0  0
 14 13  1  0  0  0  0
 15 14  1  0  0  0  0
 16 15  1  0  0  0  0
 17 16  2  0  0  0  0
 19 20  1  0  0  0  0
 20 18  1  0  0  0  0
 20 21  1  0  0  0  0
 22 21  1  0  0  0  0
 22 23  1  0  0  0  0
 23 24  1  0  0  0  0
 23 25  1  0  0  0  0
 26 23  1  0  0  0  0
 27 33  1  0  0  0  0
 27 36  1  1  0  0  0
 27 28  1  0  0  0  0
 28 35  1  0  0  0  0
 29 35  1  1  0  0  0
 29 34  1  0  0  0  0
 31 26  1  6  0  0  0
 31 34  1  0  0  0  0
 32 38  1  6  0  0  0
 32 33  1  0  0  0  0
 32 31  1  0  0  0  0
 33 36  1  1  0  0  0
 33 29  1  0  0  0  0
 34 30  1  1  0  0  0
 37 38  1  0  0  0  0
 40 43  2  0  0  0  0
 41 51  1  0  0  0  0
 42 45  2  0  0  0  0
 43 44  1  0  0  0  0
 44 39  1  1  0  0  0
 45 53  1  0  0  0  0
 46 40  1  0  0  0  0
 47 41  1  0  0  0  0
 48 42  1  0  0  0  0
 48 41  2  0  0  0  0
 49 50  2  0  0  0  0
 50 44  1  0  0  0  0
 51 53  2  0  0  0  0
 51 46  1  0  0  0  0
 52 46  2  0  0  0  0
 53 49  1  0  0  0  0
M  END
>  <MODEL>
7

>  <REMARK>
 VINA RESULT:      -5.7      2.609      8.533
  Name = 
  20 active torsions:
  status: ('A' for Active; 'I' for Inactive)
    1  A    between atoms: C_6  and  C_36
    2  A    between atoms: C_6  and  C_42
    3  A    between atoms: C_8  and  C_53
    4  A    between atoms: C_10  and  C_18
    5  A    between atoms: C_10  and  N_20
    6  A    between atoms: C_10  and  C_49
    7  A    between atoms: C_12  and  C_18
    8  A    between atoms: C_15  and  N_39
    9  A    between atoms: C_15  and  C_50
   10  A    between atoms: C_16  and  C_47
   11  A    between atoms: C_16  and  C_50
   12  A    between atoms: N_20  and  N_39
   13  A    between atoms: N_29  and  C_35
   14  A    between atoms: N_29  and  C_36
   15  A    between atoms: N_29  and  C_49
   16  A    between atoms: C_30  and  N_37
   17  A    between atoms: C_30  and  C_42
   18  A    between atoms: C_33  and  C_47
   19  A    between atoms: N_37  and  C_53
   20  A    between atoms: C_38  and  C_45
                            x       y       z     vdW  Elec       q    Type
                         _______ _______ _______ _____ _____    ______ ____

>  <TORSDO>
F 20

$$$$
=
 OpenBabel11042415063D

 53 58  0  0  1  0  0  0  0  0999 V2000
  189.1200  174.6390  142.4680 C   0  0  1  0  0  3  0  0  0  0  0  0
  188.2160  174.8300  140.2080 O   0  0  0  0  0  1  0  0  0  0  0  0
  187.9170  174.9470  141.5700 C   0  0  2  0  0  3  0  0  0  0  0  0
  187.3420  176.2560  141.8660 N   0  0  0  0  0  0  0  0  0  0  0  0
  187.4020  177.3120  140.8960 C   0  0  0  0  0  3  0  0  0  0  0  0
  186.3700  177.6220  140.1220 C   0  0  0  0  0  2  0  0  0  0  0  0
  186.6720  176.4450  143.1460 C   0  0  0  0  0  2  0  0  0  0  0  0
  186.9280  177.8460  143.6810 C   0  0  0  0  0  2  0  0  0  0  0  0
  184.5210  178.6890  143.5960 C   0  0  0  0  0  2  0  0  0  0  0  0
  185.3630  179.7910  144.2330 C   0  0  0  0  0  2  0  0  0  0  0  0
  185.7140  178.3330  144.4570 C   0  0  0  0  0  0  0  0  0  0  0  0
  184.1570  178.3430  146.4290 C   0  0  0  0  0  1  0  0  0  0  0  0
  185.4080  177.7180  145.8330 C   0  0  2  0  0  3  0  0  0  0  0  0
  186.5220  177.8530  146.7620 N   0  0  0  0  0  2  0  0  0  0  0  0
  186.8070  176.5280  147.2800 C   0  0  0  0  0  2  0  0  0  0  0  0
  188.1490  176.0830  146.8110 C   0  0  0  0  0  3  0  0  0  0  0  0
  188.9670  176.9040  146.4340 O   0  0  0  0  0  0  0  0  0  0  0  0
  189.9470  173.6170  141.8350 N   0  0  0  0  0  2  0  0  0  0  0  0
  189.5350  172.0640  143.4700 C   0  0  0  0  0  1  0  0  0  0  0  0
  189.3440  172.3690  142.0620 N   0  0  0  0  0  0  0  0  0  0  0  0
  190.0920  171.3670  141.3130 C   0  0  0  0  0  2  0  0  0  0  0  0
  191.2970  172.0150  140.6290 C   0  0  0  0  0  2  0  0  0  0  0  0
  191.1800  172.0540  139.1040 C   0  0  0  0  0  0  0  0  0  0  0  0
  189.8420  171.8590  138.7610 O   0  0  0  0  0  1  0  0  0  0  0  0
  191.9450  171.0300  138.5390 O   0  0  0  0  0  1  0  0  0  0  0  0
  191.6470  173.4150  138.5850 C   0  0  0  0  0  2  0  0  0  0  0  0
  195.9510  175.0210  136.1370 C   0  0  2  0  0  3  0  0  0  0  0  0
  196.9380  175.3050  137.1250 O   0  0  0  0  0  0  0  0  0  0  0  0
  194.9150  174.9110  138.2970 C   0  0  1  0  0  3  0  0  0  0  0  0
  194.9430  172.7300  139.3320 O   0  0  0  0  0  1  0  0  0  0  0  0
  193.0560  173.3680  137.9930 C   0  0  1  0  0  3  0  0  0  0  0  0
  193.2850  174.1390  136.6640 C   0  0  2  0  0  3  0  0  0  0  0  0
  194.6760  174.6770  136.8630 C   0  0  1  0  0  0  0  0  0  0  0  0
  194.1270  173.8160  139.0090 C   0  0  2  0  0  3  0  0  0  0  0  0
  196.4210  174.9900  138.4150 C   0  0  0  0  0  2  0  0  0  0  0  0
  195.5530  173.5770  136.2300 C   0  0  0  0  0  2  0  0  0  0  0  0
  192.9420  176.4600  136.0190 O   0  0  0  0  0  1  0  0  0  0  0  0
  192.2910  175.2780  136.3920 C   0  0  0  0  0  2  0  0  0  0  0  0
  189.9620  175.8680  142.8180 C   0  0  0  0  0  2  0  0  0  0  0  0
  193.4330  175.7650  141.9540 C   0  0  0  0  0  3  0  0  0  0  0  0
  196.4480  174.9950  143.7900 C   0  0  0  0  0  0  0  0  0  0  0  0
  195.9670  174.5580  146.0860 N   0  0  0  0  0  0  0  0  0  0  0  0
  192.3180  175.5470  142.2930 C   0  0  0  0  0  3  0  0  0  0  0  0
  191.3280  175.4530  143.3320 C   0  0  1  0  0  3  0  0  0  0  0  0
  194.7620  175.1690  145.9860 C   0  0  0  0  0  3  0  0  0  0  0  0
  194.7810  176.0320  142.2530 C   0  0  0  0  0  0  0  0  0  0  0  0
  197.3410  174.8220  142.6940 N   0  0  0  0  0  1  0  0  0  0  0  0
  196.8030  174.4600  145.0240 C   0  0  0  0  0  3  0  0  0  0  0  0
  193.0490  176.5110  144.9350 C   0  0  0  0  0  3  0  0  0  0  0  0
  191.8120  176.4220  144.3800 C   0  0  0  0  0  3  0  0  0  0  0  0
  195.1940  175.6310  143.6290 C   0  0  0  0  0  0  0  0  0  0  0  0
  195.5200  176.8020  141.4640 C   0  0  0  0  0  2  0  0  0  0  0  0
  194.3100  175.7030  144.7750 C   0  0  0  0  0  0  0  0  0  0  0  0
  1 39  1  6  0  0  0
  3  2  1  6  0  0  0
  3  4  1  0  0  0  0
  3  1  1  0  0  0  0
  4  7  1  0  0  0  0
  5  4  1  0  0  0  0
  6  5  2  0  0  0  0
  7  8  1  0  0  0  0
  8 11  1  0  0  0  0
  9 10  1  0  0  0  0
  9 11  1  0  0  0  0
 10 11  1  0  0  0  0
 11 13  1  0  0  0  0
 13 12  1  1  0  0  0
 13 14  1  0  0  0  0
 14 15  1  0  0  0  0
 16 15  1  0  0  0  0
 17 16  2  0  0  0  0
 18 20  1  0  0  0  0
 18  1  1  0  0  0  0
 20 19  1  0  0  0  0
 21 20  1  0  0  0  0
 22 21  1  0  0  0  0
 23 22  1  0  0  0  0
 24 23  1  0  0  0  0
 25 23  1  0  0  0  0
 26 23  1  0  0  0  0
 27 36  1  1  0  0  0
 27 33  1  0  0  0  0
 27 28  1  0  0  0  0
 28 35  1  0  0  0  0
 29 35  1  6  0  0  0
 29 34  1  0  0  0  0
 31 26  1  1  0  0  0
 31 34  1  0  0  0  0
 32 38  1  1  0  0  0
 32 33  1  0  0  0  0
 32 31  1  0  0  0  0
 33 36  1  1  0  0  0
 33 29  1  0  0  0  0
 34 30  1  6  0  0  0
 37 38  1  0  0  0  0
 40 46  1  0  0  0  0
 40 43  2  0  0  0  0
 41 48  1  0  0  0  0
 43 44  1  0  0  0  0
 44 39  1  6  0  0  0
 44 50  1  0  0  0  0
 45 42  1  0  0  0  0
 46 51  1  0  0  0  0
 47 41  1  0  0  0  0
 48 42  2  0  0  0  0
 50 49  2  0  0  0  0
 51 41  2  0  0  0  0
 51 53  1  0  0  0  0
 52 46  2  0  0  0  0
 53 49  1  0  0  0  0
 53 45  2  0  0  0  0
M  END
>  <MODEL>
8

>  <REMARK>
 VINA RESULT:      -5.7      1.579      2.646
  Name = 
  20 active torsions:
  status: ('A' for Active; 'I' for Inactive)
    1  A    between atoms: C_6  and  C_36
    2  A    between atoms: C_6  and  C_42
    3  A    between atoms: C_8  and  C_53
    4  A    between atoms: C_10  and  C_18
    5  A    between atoms: C_10  and  N_20
    6  A    between atoms: C_10  and  C_49
    7  A    between atoms: C_12  and  C_18
    8  A    between atoms: C_15  and  N_39
    9  A    between atoms: C_15  and  C_50
   10  A    between atoms: C_16  and  C_47
   11  A    between atoms: C_16  and  C_50
   12  A    between atoms: N_20  and  N_39
   13  A    between atoms: N_29  and  C_35
   14  A    between atoms: N_29  and  C_36
   15  A    between atoms: N_29  and  C_49
   16  A    between atoms: C_30  and  N_37
   17  A    between atoms: C_30  and  C_42
   18  A    between atoms: C_33  and  C_47
   19  A    between atoms: N_37  and  C_53
   20  A    between atoms: C_38  and  C_45
                            x       y       z     vdW  Elec       q    Type
                         _______ _______ _______ _____ _____    ______ ____

>  <TORSDO>
F 20

$$$$
=
 OpenBabel11042415063D

 53 58  0  0  1  0  0  0  0  0999 V2000
  192.0460  176.2770  144.3780 C   0  0  1  0  0  3  0  0  0  0  0  0
  190.6360  175.4900  146.2090 O   0  0  0  0  0  1  0  0  0  0  0  0
  191.1170  176.6250  145.5470 C   0  0  2  0  0  3  0  0  0  0  0  0
  190.0180  177.4880  145.1250 N   0  0  0  0  0  0  0  0  0  0  0  0
  190.1510  178.3170  143.9620 C   0  0  0  0  0  3  0  0  0  0  0  0
  189.6440  177.9720  142.7840 C   0  0  0  0  0  2  0  0  0  0  0  0
  188.7760  177.4500  145.8870 C   0  0  0  0  0  2  0  0  0  0  0  0
  187.6760  176.7740  145.0840 C   0  0  0  0  0  2  0  0  0  0  0  0
  186.1420  178.3830  146.3350 C   0  0  0  0  0  2  0  0  0  0  0  0
  185.2890  177.1960  145.8970 C   0  0  0  0  0  2  0  0  0  0  0  0
  186.4460  177.6660  145.0370 C   0  0  0  0  0  0  0  0  0  0  0  0
  185.4410  179.7510  144.0560 C   0  0  0  0  0  1  0  0  0  0  0  0
  186.1210  178.4270  143.7410 C   0  0  2  0  0  3  0  0  0  0  0  0
  185.2910  177.6470  142.8320 N   0  0  0  0  0  2  0  0  0  0  0  0
  186.1060  177.3360  141.6730 C   0  0  0  0  0  2  0  0  0  0  0  0
  185.4770  177.9040  140.4480 C   0  0  0  0  0  3  0  0  0  0  0  0
  184.5180  178.6490  140.5440 O   0  0  0  0  0  0  0  0  0  0  0  0
  193.3740  176.8230  144.6350 N   0  0  0  0  0  2  0  0  0  0  0  0
  194.2660  176.8170  146.7470 C   0  0  0  0  0  1  0  0  0  0  0  0
  194.0090  175.9960  145.5760 N   0  0  0  0  0  0  0  0  0  0  0  0
  195.3090  175.6200  145.0360 C   0  0  0  0  0  2  0  0  0  0  0  0
  195.5140  174.1100  145.1630 C   0  0  0  0  0  2  0  0  0  0  0  0
  196.0960  173.4690  143.9020 C   0  0  0  0  0  0  0  0  0  0  0  0
  195.2090  172.4880  143.4600 O   0  0  0  0  0  1  0  0  0  0  0  0
  197.3250  172.8680  144.1940 O   0  0  0  0  0  1  0  0  0  0  0  0
  196.2680  174.5310  142.8150 C   0  0  0  0  0  2  0  0  0  0  0  0
  194.0360  175.2490  138.1680 C   0  0  2  0  0  3  0  0  0  0  0  0
  194.8260  174.5740  137.1920 O   0  0  0  0  0  0  0  0  0  0  0  0
  196.0590  174.5020  139.2160 C   0  0  1  0  0  3  0  0  0  0  0  0
  195.9440  172.3020  140.2030 O   0  0  0  0  0  1  0  0  0  0  0  0
  195.4540  174.2220  141.5570 C   0  0  1  0  0  3  0  0  0  0  0  0
  194.6140  175.3850  140.9620 C   0  0  2  0  0  3  0  0  0  0  0  0
  194.7580  175.1370  139.4850 C   0  0  1  0  0  0  0  0  0  0  0  0
  196.3280  173.6250  140.4350 C   0  0  2  0  0  3  0  0  0  0  0  0
  195.8990  173.8960  137.8390 C   0  0  0  0  0  2  0  0  0  0  0  0
  193.5300  174.2570  139.1730 C   0  0  0  0  0  2  0  0  0  0  0  0
  196.4340  176.7930  141.7520 O   0  0  0  0  0  1  0  0  0  0  0  0
  195.1000  176.7950  141.3300 C   0  0  0  0  0  2  0  0  0  0  0  0
  192.1330  174.7770  144.0810 C   0  0  0  0  0  2  0  0  0  0  0  0
  191.6990  172.1660  141.6740 C   0  0  0  0  0  3  0  0  0  0  0  0
  189.6970  171.8230  138.6860 C   0  0  0  0  0  0  0  0  0  0  0  0
  188.3260  173.7460  138.3470 N   0  0  0  0  0  0  0  0  0  0  0  0
  191.9270  173.1670  142.2670 C   0  0  0  0  0  3  0  0  0  0  0  0
  191.5070  174.4600  142.7360 C   0  0  1  0  0  3  0  0  0  0  0  0
  188.4720  174.1220  139.6400 C   0  0  0  0  0  3  0  0  0  0  0  0
  190.8750  171.3900  140.8400 C   0  0  0  0  0  0  0  0  0  0  0  0
  190.3390  170.6870  138.1140 N   0  0  0  0  0  1  0  0  0  0  0  0
  188.9180  172.6290  137.8610 C   0  0  0  0  0  3  0  0  0  0  0  0
  189.1240  173.8630  141.9520 C   0  0  0  0  0  3  0  0  0  0  0  0
  190.0120  174.3260  142.8700 C   0  0  0  0  0  3  0  0  0  0  0  0
  189.8950  172.1800  140.0410 C   0  0  0  0  0  0  0  0  0  0  0  0
  190.8180  170.0690  140.9660 C   0  0  0  0  0  2  0  0  0  0  0  0
  189.2660  173.3910  140.5290 C   0  0  0  0  0  0  0  0  0  0  0  0
  1 39  1  1  0  0  0
  1 18  1  0  0  0  0
  1  3  1  0  0  0  0
  3  2  1  6  0  0  0
  4  3  1  0  0  0  0
  4  7  1  0  0  0  0
  5  4  1  0  0  0  0
  6  5  2  0  0  0  0
  8  7  1  0  0  0  0
 10  9  1  0  0  0  0
 11  8  1  0  0  0  0
 11 10  1  0  0  0  0
 11  9  1  0  0  0  0
 13 12  1  1  0  0  0
 13 11  1  0  0  0  0
 14 13  1  0  0  0  0
 15 14  1  0  0  0  0
 16 17  2  0  0  0  0
 16 15  1  0  0  0  0
 18 20  1  0  0  0  0
 20 19  1  0  0  0  0
 21 22  1  0  0  0  0
 21 20  1  0  0  0  0
 23 25  1  0  0  0  0
 23 22  1  0  0  0  0
 24 23  1  0  0  0  0
 26 23  1  0  0  0  0
 27 36  1  1  0  0  0
 27 33  1  0  0  0  0
 28 35  1  0  0  0  0
 28 27  1  0  0  0  0
 29 35  1  6  0  0  0
 29 33  1  0  0  0  0
 29 34  1  0  0  0  0
 31 26  1  1  0  0  0
 32 38  1  6  0  0  0
 32 31  1  0  0  0  0
 33 36  1  1  0  0  0
 33 32  1  0  0  0  0
 34 30  1  6  0  0  0
 34 31  1  0  0  0  0
 38 37  1  0  0  0  0
 40 43  2  0  0  0  0
 41 51  1  0  0  0  0
 42 45  2  0  0  0  0
 43 44  1  0  0  0  0
 44 50  1  0  0  0  0
 44 39  1  1  0  0  0
 45 53  1  0  0  0  0
 46 52  2  0  0  0  0
 46 40  1  0  0  0  0
 47 41  1  0  0  0  0
 48 42  1  0  0  0  0
 48 41  2  0  0  0  0
 49 50  2  0  0  0  0
 51 53  2  0  0  0  0
 51 46  1  0  0  0  0
 53 49  1  0  0  0  0
M  END
>  <MODEL>
9

>  <REMARK>
 VINA RESULT:      -5.6      2.501      5.848
  Name = 
  20 active torsions:
  status: ('A' for Active; 'I' for Inactive)
    1  A    between atoms: C_6  and  C_36
    2  A    between atoms: C_6  and  C_42
    3  A    between atoms: C_8  and  C_53
    4  A    between atoms: C_10  and  C_18
    5  A    between atoms: C_10  and  N_20
    6  A    between atoms: C_10  and  C_49
    7  A    between atoms: C_12  and  C_18
    8  A    between atoms: C_15  and  N_39
    9  A    between atoms: C_15  and  C_50
   10  A    between atoms: C_16  and  C_47
   11  A    between atoms: C_16  and  C_50
   12  A    between atoms: N_20  and  N_39
   13  A    between atoms: N_29  and  C_35
   14  A    between atoms: N_29  and  C_36
   15  A    between atoms: N_29  and  C_49
   16  A    between atoms: C_30  and  N_37
   17  A    between atoms: C_30  and  C_42
   18  A    between atoms: C_33  and  C_47
   19  A    between atoms: N_37  and  C_53
   20  A    between atoms: C_38  and  C_45
                            x       y       z     vdW  Elec       q    Type
                         _______ _______ _______ _____ _____    ______ ____

>  <TORSDO>
F 20

$$$$
