=
 OpenBabel11042414213D

 27 29  0  0  1  0  0  0  0  0999 V2000
  189.0140  176.9180  142.6320 C   0  0  1  0  0  3  0  0  0  0  0  0
  186.8070  177.0870  145.7020 C   0  0  0  0  0  3  0  0  0  0  0  0
  187.0360  178.3060  143.2380 N   0  0  0  0  0  0  0  0  0  0  0  0
  187.8160  176.6970  144.8210 C   0  0  0  0  0  3  0  0  0  0  0  0
  185.9080  178.0980  145.3390 C   0  0  0  0  0  0  0  0  0  0  0  0
  187.9130  177.3180  143.5740 C   0  0  0  0  0  0  0  0  0  0  0  0
  186.0480  178.7010  144.0830 C   0  0  0  0  0  3  0  0  0  0  0  0
  185.0660  178.5630  147.6250 O   0  0  0  0  0  1  0  0  0  0  0  0
  184.8390  178.5220  146.2550 C   0  0  0  0  0  0  0  0  0  0  0  0
  183.7080  178.8530  145.8070 O   0  0  0  0  0  0  0  0  0  0  0  0
  191.2660  177.2300  143.7670 C   0  0  0  0  0  0  0  0  0  0  0  0
  190.1880  176.3960  143.3310 N   0  0  0  0  0  2  0  0  0  0  0  0
  191.2490  178.4660  143.5180 O   0  0  0  0  0  0  0  0  0  0  0  0
  193.3860  175.8540  146.5720 C   0  0  0  0  0  3  0  0  0  0  0  0
  195.6060  174.9970  146.5260 F   0  0  0  0  0  0  0  0  0  0  0  0
  192.3070  176.4090  145.8820 C   0  0  0  0  0  3  0  0  0  0  0  0
  194.5510  175.5360  145.8720 C   0  0  0  0  0  0  0  0  0  0  0  0
  194.6270  175.7680  144.5340 N   0  0  0  0  0  0  0  0  0  0  0  0
  193.5870  176.3090  143.8440 C   0  0  0  0  0  3  0  0  0  0  0  0
  192.3980  176.6420  144.5050 C   0  0  0  0  0  0  0  0  0  0  0  0
  188.5730  176.0480  141.6070 O   0  0  0  0  0  0  0  0  0  0  0  0
  187.9710  173.8310  142.2250 C   0  0  0  0  0  2  0  0  0  0  0  0
  189.0930  174.7610  141.8300 C   0  0  1  0  0  3  0  0  0  0  0  0
  189.6360  174.2020  140.5310 C   0  0  0  0  0  2  0  0  0  0  0  0
  189.3800  172.1640  139.4190 C   0  0  0  0  0  1  0  0  0  0  0  0
  187.9390  172.7620  141.1570 C   0  0  0  0  0  2  0  0  0  0  0  0
  188.6500  173.2770  139.9980 N   0  0  0  0  0  0  0  0  0  0  0  0
  1 21  1  6  0  0  0
  1 12  1  0  0  0  0
  1  6  1  0  0  0  0
  3  6  2  0  0  0  0
  3  7  1  0  0  0  0
  4  2  2  0  0  0  0
  5  2  1  0  0  0  0
  5  9  1  0  0  0  0
  6  4  1  0  0  0  0
  7  5  2  0  0  0  0
  9  8  1  0  0  0  0
 10  9  2  0  0  0  0
 11 20  1  0  0  0  0
 12 11  1  0  0  0  0
 13 11  2  0  0  0  0
 16 14  1  0  0  0  0
 17 15  1  0  0  0  0
 17 14  2  0  0  0  0
 18 17  1  0  0  0  0
 19 20  1  0  0  0  0
 19 18  2  0  0  0  0
 20 16  2  0  0  0  0
 23 21  1  6  0  0  0
 23 22  1  0  0  0  0
 24 23  1  0  0  0  0
 25 27  1  0  0  0  0
 26 22  1  0  0  0  0
 27 24  1  0  0  0  0
 27 26  1  0  0  0  0
M  END
>  <MODEL>
1

>  <REMARK>
 VINA RESULT:      -6.7      0.000      0.000
  Name = 
  6 active torsions:
  status: ('A' for Active; 'I' for Inactive)
    1  A    between atoms: C_6  and  C_21
    2  A    between atoms: C_8  and  O_10
    3  A    between atoms: C_8  and  N_15
    4  A    between atoms: C_8  and  C_18
    5  A    between atoms: O_10  and  C_23
    6  A    between atoms: C_11  and  C_17
                            x       y       z     vdW  Elec       q    Type
                         _______ _______ _______ _____ _____    ______ ____

>  <TORSDO>
F 6

$$$$
=
 OpenBabel11042414213D

 27 29  0  0  1  0  0  0  0  0999 V2000
  190.5870  175.5860  144.1110 C   0  0  1  0  0  3  0  0  0  0  0  0
  188.6120  173.4160  141.7190 C   0  0  0  0  0  3  0  0  0  0  0  0
  191.1700  174.4120  141.9920 N   0  0  0  0  0  0  0  0  0  0  0  0
  188.9370  174.2140  142.8170 C   0  0  0  0  0  3  0  0  0  0  0  0
  189.5820  173.1180  140.7540 C   0  0  0  0  0  0  0  0  0  0  0  0
  190.2390  174.7040  142.9430 C   0  0  0  0  0  0  0  0  0  0  0  0
  190.8710  173.6380  140.9150 C   0  0  0  0  0  3  0  0  0  0  0  0
  190.1700  171.3400  139.1280 O   0  0  0  0  0  1  0  0  0  0  0  0
  189.2560  172.2780  139.5910 C   0  0  0  0  0  0  0  0  0  0  0  0
  188.1470  172.4020  139.0050 O   0  0  0  0  0  0  0  0  0  0  0  0
  188.7870  177.2690  144.7310 C   0  0  0  0  0  0  0  0  0  0  0  0
  189.4100  175.9890  144.8790 N   0  0  0  0  0  2  0  0  0  0  0  0
  189.2750  178.1210  143.9390 O   0  0  0  0  0  0  0  0  0  0  0  0
  185.4260  178.6900  145.6980 C   0  0  0  0  0  3  0  0  0  0  0  0
  184.2040  178.4710  147.7300 F   0  0  0  0  0  0  0  0  0  0  0  0
  186.5670  178.3870  144.9540 C   0  0  0  0  0  3  0  0  0  0  0  0
  185.3060  178.1880  146.9950 C   0  0  0  0  0  0  0  0  0  0  0  0
  186.2940  177.4150  147.5210 N   0  0  0  0  0  0  0  0  0  0  0  0
  187.4140  177.1110  146.8120 C   0  0  0  0  0  3  0  0  0  0  0  0
  187.5760  177.5920  145.5060 C   0  0  0  0  0  0  0  0  0  0  0  0
  191.5990  175.0360  144.9330 O   0  0  0  0  0  0  0  0  0  0  0  0
  193.3370  175.5900  146.4610 C   0  0  0  0  0  2  0  0  0  0  0  0
  192.5210  176.0420  145.2730 C   0  0  1  0  0  3  0  0  0  0  0  0
  193.5190  176.2150  144.1460 C   0  0  0  0  0  2  0  0  0  0  0  0
  195.8500  176.3350  144.0590 C   0  0  0  0  0  1  0  0  0  0  0  0
  194.7690  175.5540  145.9760 C   0  0  0  0  0  2  0  0  0  0  0  0
  194.7400  175.5230  144.5230 N   0  0  0  0  0  0  0  0  0  0  0  0
  1 12  1  1  0  0  0
  1 21  1  0  0  0  0
  2  4  1  0  0  0  0
  3  6  1  0  0  0  0
  4  6  2  0  0  0  0
  5  7  1  0  0  0  0
  5  2  2  0  0  0  0
  6  1  1  0  0  0  0
  7  3  2  0  0  0  0
  8  9  1  0  0  0  0
  9  5  1  0  0  0  0
 10  9  2  0  0  0  0
 11 12  1  0  0  0  0
 11 20  1  0  0  0  0
 13 11  2  0  0  0  0
 14 17  1  0  0  0  0
 16 20  1  0  0  0  0
 16 14  2  0  0  0  0
 17 18  2  0  0  0  0
 17 15  1  0  0  0  0
 19 18  1  0  0  0  0
 20 19  2  0  0  0  0
 23 21  1  6  0  0  0
 23 22  1  0  0  0  0
 24 27  1  0  0  0  0
 24 23  1  0  0  0  0
 25 27  1  0  0  0  0
 26 22  1  0  0  0  0
 27 26  1  0  0  0  0
M  END
>  <MODEL>
2

>  <REMARK>
 VINA RESULT:      -6.3      3.186      7.306
  Name = 
  6 active torsions:
  status: ('A' for Active; 'I' for Inactive)
    1  A    between atoms: C_6  and  C_21
    2  A    between atoms: C_8  and  O_10
    3  A    between atoms: C_8  and  N_15
    4  A    between atoms: C_8  and  C_18
    5  A    between atoms: O_10  and  C_23
    6  A    between atoms: C_11  and  C_17
                            x       y       z     vdW  Elec       q    Type
                         _______ _______ _______ _____ _____    ______ ____

>  <TORSDO>
F 6

$$$$
=
 OpenBabel11042414213D

 27 29  0  0  1  0  0  0  0  0999 V2000
  189.4880  174.8450  143.4610 C   0  0  1  0  0  3  0  0  0  0  0  0
  192.1000  175.1440  146.1840 C   0  0  0  0  0  3  0  0  0  0  0  0
  191.7620  175.8620  143.5420 N   0  0  0  0  0  0  0  0  0  0  0  0
  190.9140  174.8290  145.5210 C   0  0  0  0  0  3  0  0  0  0  0  0
  193.1220  175.8260  145.5110 C   0  0  0  0  0  0  0  0  0  0  0  0
  190.7550  175.2060  144.1860 C   0  0  0  0  0  0  0  0  0  0  0  0
  192.9250  176.1770  144.1700 C   0  0  0  0  0  3  0  0  0  0  0  0
  195.3790  175.2130  146.3360 O   0  0  0  0  0  0  0  0  0  0  0  0
  194.3790  176.1670  146.1940 C   0  0  0  0  0  0  0  0  0  0  0  0
  194.5610  177.3250  146.6560 O   0  0  0  0  0  1  0  0  0  0  0  0
  188.0450  176.8860  143.9220 C   0  0  0  0  0  0  0  0  0  0  0  0
  188.3080  175.4840  144.0420 N   0  0  0  0  0  2  0  0  0  0  0  0
  188.8680  177.6340  143.3270 O   0  0  0  0  0  0  0  0  0  0  0  0
  184.9950  177.3660  146.0940 C   0  0  0  0  0  3  0  0  0  0  0  0
  183.3580  179.0940  146.0640 F   0  0  0  0  0  0  0  0  0  0  0  0
  186.1630  176.8190  145.5590 C   0  0  0  0  0  3  0  0  0  0  0  0
  184.4890  178.5510  145.5560 C   0  0  0  0  0  0  0  0  0  0  0  0
  185.1310  179.1590  144.5230 N   0  0  0  0  0  0  0  0  0  0  0  0
  186.2690  178.6410  143.9870 C   0  0  0  0  0  3  0  0  0  0  0  0
  186.8140  177.4550  144.4960 C   0  0  0  0  0  0  0  0  0  0  0  0
  189.5750  175.0540  142.0640 O   0  0  0  0  0  0  0  0  0  0  0  0
  188.1390  174.8930  140.1730 C   0  0  0  0  0  2  0  0  0  0  0  0
  188.6690  174.2030  141.4070 C   0  0  1  0  0  3  0  0  0  0  0  0
  189.4030  172.9800  140.8970 C   0  0  0  0  0  2  0  0  0  0  0  0
  189.4600  171.8730  138.8410 C   0  0  0  0  0  1  0  0  0  0  0  0
  188.5630  174.0230  139.0120 C   0  0  0  0  0  2  0  0  0  0  0  0
  189.6420  173.1660  139.4750 N   0  0  0  0  0  0  0  0  0  0  0  0
  1 21  1  6  0  0  0
  1 12  1  0  0  0  0
  1  6  1  0  0  0  0
  3  7  2  0  0  0  0
  3  6  1  0  0  0  0
  4  2  1  0  0  0  0
  5  2  2  0  0  0  0
  5  9  1  0  0  0  0
  6  4  2  0  0  0  0
  7  5  1  0  0  0  0
  9  8  2  0  0  0  0
  9 10  1  0  0  0  0
 11 12  1  0  0  0  0
 11 20  1  0  0  0  0
 13 11  2  0  0  0  0
 16 14  1  0  0  0  0
 17 15  1  0  0  0  0
 17 14  2  0  0  0  0
 18 17  1  0  0  0  0
 19 20  1  0  0  0  0
 19 18  2  0  0  0  0
 20 16  2  0  0  0  0
 22 23  1  0  0  0  0
 23 21  1  6  0  0  0
 24 23  1  0  0  0  0
 25 27  1  0  0  0  0
 26 27  1  0  0  0  0
 26 22  1  0  0  0  0
 27 24  1  0  0  0  0
M  END
>  <MODEL>
3

>  <REMARK>
 VINA RESULT:      -6.2      3.244      6.556
  Name = 
  6 active torsions:
  status: ('A' for Active; 'I' for Inactive)
    1  A    between atoms: C_6  and  C_21
    2  A    between atoms: C_8  and  O_10
    3  A    between atoms: C_8  and  N_15
    4  A    between atoms: C_8  and  C_18
    5  A    between atoms: O_10  and  C_23
    6  A    between atoms: C_11  and  C_17
                            x       y       z     vdW  Elec       q    Type
                         _______ _______ _______ _____ _____    ______ ____

>  <TORSDO>
F 6

$$$$
=
 OpenBabel11042414213D

 27 29  0  0  1  0  0  0  0  0999 V2000
  190.0650  175.4560  143.5860 C   0  0  1  0  0  3  0  0  0  0  0  0
  190.4930  172.8870  140.8390 C   0  0  0  0  0  3  0  0  0  0  0  0
  188.7800  174.9400  141.5140 N   0  0  0  0  0  0  0  0  0  0  0  0
  190.7160  173.6290  142.0000 C   0  0  0  0  0  3  0  0  0  0  0  0
  189.4010  173.1820  140.0140 C   0  0  0  0  0  0  0  0  0  0  0  0
  189.8430  174.6700  142.3220 C   0  0  0  0  0  0  0  0  0  0  0  0
  188.5460  174.2280  140.3810 C   0  0  0  0  0  3  0  0  0  0  0  0
  189.5340  171.0770  138.7090 O   0  0  0  0  0  1  0  0  0  0  0  0
  189.1510  172.4100  138.7870 C   0  0  0  0  0  0  0  0  0  0  0  0
  188.5890  172.9500  137.7970 O   0  0  0  0  0  0  0  0  0  0  0  0
  188.3370  177.2530  144.0800 C   0  0  0  0  0  0  0  0  0  0  0  0
  188.8130  175.9080  144.1920 N   0  0  0  0  0  2  0  0  0  0  0  0
  189.0250  178.1180  143.4710 O   0  0  0  0  0  0  0  0  0  0  0  0
  185.2310  177.1920  146.2240 C   0  0  0  0  0  3  0  0  0  0  0  0
  183.4130  178.7260  146.3210 F   0  0  0  0  0  0  0  0  0  0  0  0
  186.4570  176.8290  145.6660 C   0  0  0  0  0  3  0  0  0  0  0  0
  184.6030  178.3590  145.7880 C   0  0  0  0  0  0  0  0  0  0  0  0
  185.1830  179.1280  144.8280 N   0  0  0  0  0  0  0  0  0  0  0  0
  186.3770  178.7900  144.2710 C   0  0  0  0  0  3  0  0  0  0  0  0
  187.0450  177.6280  144.6790 C   0  0  0  0  0  0  0  0  0  0  0  0
  190.8950  174.7840  144.5130 O   0  0  0  0  0  0  0  0  0  0  0  0
  192.1210  174.9680  146.5450 C   0  0  0  0  0  2  0  0  0  0  0  0
  191.3970  175.7090  145.4460 C   0  0  1  0  0  3  0  0  0  0  0  0
  192.4520  176.5730  144.7850 C   0  0  0  0  0  2  0  0  0  0  0  0
  194.6160  177.2190  145.3830 C   0  0  0  0  0  1  0  0  0  0  0  0
  193.5500  175.4590  146.4890 C   0  0  0  0  0  2  0  0  0  0  0  0
  193.7550  176.0670  145.1850 N   0  0  0  0  0  0  0  0  0  0  0  0
  1 12  1  1  0  0  0
  1 21  1  0  0  0  0
  2  4  1  0  0  0  0
  3  6  1  0  0  0  0
  4  6  2  0  0  0  0
  5  7  1  0  0  0  0
  5  2  2  0  0  0  0
  6  1  1  0  0  0  0
  7  3  2  0  0  0  0
  8  9  1  0  0  0  0
  9  5  1  0  0  0  0
 10  9  2  0  0  0  0
 11 12  1  0  0  0  0
 11 20  1  0  0  0  0
 13 11  2  0  0  0  0
 16 14  2  0  0  0  0
 17 14  1  0  0  0  0
 17 15  1  0  0  0  0
 18 17  2  0  0  0  0
 19 20  2  0  0  0  0
 19 18  1  0  0  0  0
 20 16  1  0  0  0  0
 23 21  1  6  0  0  0
 23 22  1  0  0  0  0
 24 27  1  0  0  0  0
 24 23  1  0  0  0  0
 26 22  1  0  0  0  0
 27 25  1  0  0  0  0
 27 26  1  0  0  0  0
M  END
>  <MODEL>
4

>  <REMARK>
 VINA RESULT:      -6.2      3.239      7.470
  Name = 
  6 active torsions:
  status: ('A' for Active; 'I' for Inactive)
    1  A    between atoms: C_6  and  C_21
    2  A    between atoms: C_8  and  O_10
    3  A    between atoms: C_8  and  N_15
    4  A    between atoms: C_8  and  C_18
    5  A    between atoms: O_10  and  C_23
    6  A    between atoms: C_11  and  C_17
                            x       y       z     vdW  Elec       q    Type
                         _______ _______ _______ _____ _____    ______ ____

>  <TORSDO>
F 6

$$$$
=
 OpenBabel11042414213D

 27 29  0  0  1  0  0  0  0  0999 V2000
  189.9270  176.1600  144.6000 C   0  0  1  0  0  3  0  0  0  0  0  0
  186.7700  176.8310  146.5780 C   0  0  0  0  0  3  0  0  0  0  0  0
  187.9830  177.6800  144.2510 N   0  0  0  0  0  0  0  0  0  0  0  0
  187.9960  176.2890  146.1920 C   0  0  0  0  0  3  0  0  0  0  0  0
  186.1510  177.8060  145.7860 C   0  0  0  0  0  0  0  0  0  0  0  0
  188.5920  176.7240  145.0070 C   0  0  0  0  0  0  0  0  0  0  0  0
  186.7890  178.2200  144.6110 C   0  0  0  0  0  3  0  0  0  0  0  0
  184.0670  179.0330  145.2350 O   0  0  0  0  0  0  0  0  0  0  0  0
  184.8590  178.3890  146.1780 C   0  0  0  0  0  0  0  0  0  0  0  0
  184.4580  178.3100  147.3700 O   0  0  0  0  0  1  0  0  0  0  0  0
  189.6320  174.4440  142.7490 C   0  0  0  0  0  0  0  0  0  0  0  0
  189.9620  175.7640  143.1930 N   0  0  0  0  0  2  0  0  0  0  0  0
  189.3310  173.5530  143.5890 O   0  0  0  0  0  0  0  0  0  0  0  0
  190.7550  173.1970  139.3680 C   0  0  0  0  0  3  0  0  0  0  0  0
  189.6370  173.2670  137.2670 F   0  0  0  0  0  0  0  0  0  0  0  0
  190.7500  173.4900  140.7320 C   0  0  0  0  0  3  0  0  0  0  0  0
  189.6480  173.5460  138.5920 C   0  0  0  0  0  0  0  0  0  0  0  0
  188.5820  174.1650  139.1660 N   0  0  0  0  0  0  0  0  0  0  0  0
  188.5590  174.4600  140.4930 C   0  0  0  0  0  3  0  0  0  0  0  0
  189.6470  174.1270  141.3110 C   0  0  0  0  0  0  0  0  0  0  0  0
  191.0090  177.0030  144.9460 O   0  0  0  0  0  0  0  0  0  0  0  0
  191.5790  174.9140  145.9320 C   0  0  0  0  0  2  0  0  0  0  0  0
  191.7460  176.4140  145.9870 C   0  0  1  0  0  3  0  0  0  0  0  0
  193.2240  176.6590  145.7630 C   0  0  0  0  0  2  0  0  0  0  0  0
  195.1120  175.2830  145.7990 C   0  0  0  0  0  1  0  0  0  0  0  0
  192.9680  174.3610  145.7100 C   0  0  0  0  0  2  0  0  0  0  0  0
  193.7970  175.4440  145.2060 N   0  0  0  0  0  0  0  0  0  0  0  0
  1 12  1  6  0  0  0
  1 21  1  0  0  0  0
  1  6  1  0  0  0  0
  3  7  2  0  0  0  0
  3  6  1  0  0  0  0
  4  2  1  0  0  0  0
  5  9  1  0  0  0  0
  5  2  2  0  0  0  0
  6  4  2  0  0  0  0
  7  5  1  0  0  0  0
  8  9  2  0  0  0  0
  9 10  1  0  0  0  0
 11 12  1  0  0  0  0
 11 13  2  0  0  0  0
 14 16  1  0  0  0  0
 15 17  1  0  0  0  0
 16 20  2  0  0  0  0
 17 18  1  0  0  0  0
 17 14  2  0  0  0  0
 18 19  2  0  0  0  0
 19 20  1  0  0  0  0
 20 11  1  0  0  0  0
 22 23  1  0  0  0  0
 23 21  1  6  0  0  0
 24 23  1  0  0  0  0
 26 22  1  0  0  0  0
 27 26  1  0  0  0  0
 27 24  1  0  0  0  0
 27 25  1  0  0  0  0
M  END
>  <MODEL>
5

>  <REMARK>
 VINA RESULT:      -6.2      2.583      5.494
  Name = 
  6 active torsions:
  status: ('A' for Active; 'I' for Inactive)
    1  A    between atoms: C_6  and  C_21
    2  A    between atoms: C_8  and  O_10
    3  A    between atoms: C_8  and  N_15
    4  A    between atoms: C_8  and  C_18
    5  A    between atoms: O_10  and  C_23
    6  A    between atoms: C_11  and  C_17
                            x       y       z     vdW  Elec       q    Type
                         _______ _______ _______ _____ _____    ______ ____

>  <TORSDO>
F 6

$$$$
=
 OpenBabel11042414213D

 27 29  0  0  1  0  0  0  0  0999 V2000
  189.1960  175.9270  143.4380 C   0  0  1  0  0  3  0  0  0  0  0  0
  187.3700  176.8320  146.6280 C   0  0  0  0  0  3  0  0  0  0  0  0
  187.4840  177.6500  143.9960 N   0  0  0  0  0  0  0  0  0  0  0  0
  188.2210  176.1840  145.7320 C   0  0  0  0  0  3  0  0  0  0  0  0
  186.5710  177.8970  146.1950 C   0  0  0  0  0  0  0  0  0  0  0  0
  188.2610  176.6060  144.4010 C   0  0  0  0  0  0  0  0  0  0  0  0
  186.6500  178.2930  144.8550 C   0  0  0  0  0  3  0  0  0  0  0  0
  186.1560  179.5890  147.9610 O   0  0  0  0  0  1  0  0  0  0  0  0
  185.6680  178.5910  147.1260 C   0  0  0  0  0  0  0  0  0  0  0  0
  184.4460  178.2870  147.1750 O   0  0  0  0  0  0  0  0  0  0  0  0
  191.7030  176.1520  143.7860 C   0  0  0  0  0  0  0  0  0  0  0  0
  190.4510  175.5190  144.0680 N   0  0  0  0  0  2  0  0  0  0  0  0
  191.7640  177.0790  142.9320 O   0  0  0  0  0  0  0  0  0  0  0  0
  194.8590  174.2750  144.6590 C   0  0  0  0  0  3  0  0  0  0  0  0
  196.3270  174.5380  146.5150 F   0  0  0  0  0  0  0  0  0  0  0  0
  193.7090  174.6800  143.9820 C   0  0  0  0  0  3  0  0  0  0  0  0
  195.2130  174.9190  145.8460 C   0  0  0  0  0  0  0  0  0  0  0  0
  194.4400  175.9270  146.3320 N   0  0  0  0  0  0  0  0  0  0  0  0
  193.3140  176.3340  145.6860 C   0  0  0  0  0  3  0  0  0  0  0  0
  192.9210  175.7180  144.4910 C   0  0  0  0  0  0  0  0  0  0  0  0
  188.5830  174.8650  142.7320 O   0  0  0  0  0  0  0  0  0  0  0  0
  189.8230  173.0680  141.7880 C   0  0  0  0  0  2  0  0  0  0  0  0
  189.3890  174.5060  141.6370 C   0  0  1  0  0  3  0  0  0  0  0  0
  188.5640  174.5430  140.3670 C   0  0  0  0  0  2  0  0  0  0  0  0
  188.2690  173.0560  138.5900 C   0  0  0  0  0  1  0  0  0  0  0  0
  189.2580  172.3480  140.5840 C   0  0  0  0  0  2  0  0  0  0  0  0
  188.1970  173.1760  140.0350 N   0  0  0  0  0  0  0  0  0  0  0  0
  1 21  1  1  0  0  0
  1 12  1  0  0  0  0
  1  6  1  0  0  0  0
  3  6  2  0  0  0  0
  3  7  1  0  0  0  0
  4  2  2  0  0  0  0
  5  2  1  0  0  0  0
  5  9  1  0  0  0  0
  6  4  1  0  0  0  0
  7  5  2  0  0  0  0
  9 10  2  0  0  0  0
  9  8  1  0  0  0  0
 11 12  1  0  0  0  0
 11 20  1  0  0  0  0
 13 11  2  0  0  0  0
 14 17  1  0  0  0  0
 16 20  1  0  0  0  0
 16 14  2  0  0  0  0
 17 18  2  0  0  0  0
 17 15  1  0  0  0  0
 19 18  1  0  0  0  0
 20 19  2  0  0  0  0
 23 22  1  0  0  0  0
 23 21  1  1  0  0  0
 24 23  1  0  0  0  0
 25 27  1  0  0  0  0
 26 22  1  0  0  0  0
 27 24  1  0  0  0  0
 27 26  1  0  0  0  0
M  END
>  <MODEL>
6

>  <REMARK>
 VINA RESULT:      -6.2      1.238      1.499
  Name = 
  6 active torsions:
  status: ('A' for Active; 'I' for Inactive)
    1  A    between atoms: C_6  and  C_21
    2  A    between atoms: C_8  and  O_10
    3  A    between atoms: C_8  and  N_15
    4  A    between atoms: C_8  and  C_18
    5  A    between atoms: O_10  and  C_23
    6  A    between atoms: C_11  and  C_17
                            x       y       z     vdW  Elec       q    Type
                         _______ _______ _______ _____ _____    ______ ____

>  <TORSDO>
F 6

$$$$
=
 OpenBabel11042414213D

 27 29  0  0  1  0  0  0  0  0999 V2000
  189.6860  175.0730  145.5580 C   0  0  1  0  0  3  0  0  0  0  0  0
  186.7270  177.2420  146.4870 C   0  0  0  0  0  3  0  0  0  0  0  0
  188.4340  176.8600  144.3550 N   0  0  0  0  0  0  0  0  0  0  0  0
  187.7330  176.2790  146.5630 C   0  0  0  0  0  3  0  0  0  0  0  0
  186.5800  178.0170  145.3300 C   0  0  0  0  0  0  0  0  0  0  0  0
  188.5840  176.0930  145.4710 C   0  0  0  0  0  0  0  0  0  0  0  0
  187.4610  177.8040  144.2630 C   0  0  0  0  0  3  0  0  0  0  0  0
  184.4700  179.0400  146.1370 O   0  0  0  0  0  1  0  0  0  0  0  0
  185.5240  179.0370  145.2330 C   0  0  0  0  0  0  0  0  0  0  0  0
  185.5660  179.9150  144.3300 O   0  0  0  0  0  0  0  0  0  0  0  0
  189.7630  172.9810  144.1170 C   0  0  0  0  0  0  0  0  0  0  0  0
  189.9230  174.3940  144.2850 N   0  0  0  0  0  2  0  0  0  0  0  0
  189.4410  172.2610  145.1010 O   0  0  0  0  0  0  0  0  0  0  0  0
  189.6800  172.3880  140.3900 C   0  0  0  0  0  3  0  0  0  0  0  0
  190.5990  170.6050  139.1080 F   0  0  0  0  0  0  0  0  0  0  0  0
  189.4750  172.9780  141.6380 C   0  0  0  0  0  3  0  0  0  0  0  0
  190.3900  171.1890  140.3110 C   0  0  0  0  0  0  0  0  0  0  0  0
  190.8720  170.6070  141.4420 N   0  0  0  0  0  0  0  0  0  0  0  0
  190.6810  171.1660  142.6670 C   0  0  0  0  0  3  0  0  0  0  0  0
  189.9760  172.3700  142.7940 C   0  0  0  0  0  0  0  0  0  0  0  0
  190.8780  175.5960  146.1140 O   0  0  0  0  0  0  0  0  0  0  0  0
  192.5230  176.8310  144.9170 C   0  0  0  0  0  2  0  0  0  0  0  0
  191.9220  175.4710  145.1810 C   0  0  1  0  0  3  0  0  0  0  0  0
  193.0440  174.6500  145.7840 C   0  0  0  0  0  2  0  0  0  0  0  0
  195.3570  174.9400  145.9330 C   0  0  0  0  0  1  0  0  0  0  0  0
  193.9680  176.7250  145.3490 C   0  0  0  0  0  2  0  0  0  0  0  0
  194.0810  175.5690  146.2230 N   0  0  0  0  0  0  0  0  0  0  0  0
  1 12  1  6  0  0  0
  1 21  1  0  0  0  0
  2  4  1  0  0  0  0
  3  6  1  0  0  0  0
  5  2  2  0  0  0  0
  6  1  1  0  0  0  0
  6  4  2  0  0  0  0
  7  3  2  0  0  0  0
  7  5  1  0  0  0  0
  9  5  1  0  0  0  0
  9  8  1  0  0  0  0
 10  9  2  0  0  0  0
 11 12  1  0  0  0  0
 11 13  2  0  0  0  0
 14 16  1  0  0  0  0
 15 17  1  0  0  0  0
 16 20  2  0  0  0  0
 17 14  2  0  0  0  0
 17 18  1  0  0  0  0
 18 19  2  0  0  0  0
 19 20  1  0  0  0  0
 20 11  1  0  0  0  0
 22 23  1  0  0  0  0
 22 26  1  0  0  0  0
 23 24  1  0  0  0  0
 23 21  1  1  0  0  0
 24 27  1  0  0  0  0
 25 27  1  0  0  0  0
 26 27  1  0  0  0  0
M  END
>  <MODEL>
7

>  <REMARK>
 VINA RESULT:      -6.1      2.913      5.592
  Name = 
  6 active torsions:
  status: ('A' for Active; 'I' for Inactive)
    1  A    between atoms: C_6  and  C_21
    2  A    between atoms: C_8  and  O_10
    3  A    between atoms: C_8  and  N_15
    4  A    between atoms: C_8  and  C_18
    5  A    between atoms: O_10  and  C_23
    6  A    between atoms: C_11  and  C_17
                            x       y       z     vdW  Elec       q    Type
                         _______ _______ _______ _____ _____    ______ ____

>  <TORSDO>
F 6

$$$$
=
 OpenBabel11042414213D

 27 29  0  0  1  0  0  0  0  0999 V2000
  190.4280  175.7850  144.4140 C   0  0  1  0  0  3  0  0  0  0  0  0
  187.3500  177.9460  144.8420 C   0  0  0  0  0  3  0  0  0  0  0  0
  188.6380  175.8830  146.1440 N   0  0  0  0  0  0  0  0  0  0  0  0
  188.5280  177.4150  144.3150 C   0  0  0  0  0  3  0  0  0  0  0  0
  186.8180  177.4340  146.0320 C   0  0  0  0  0  0  0  0  0  0  0  0
  189.1720  176.3770  144.9920 C   0  0  0  0  0  0  0  0  0  0  0  0
  187.4910  176.3860  146.6720 C   0  0  0  0  0  3  0  0  0  0  0  0
  185.5970  179.1840  147.2960 O   0  0  0  0  0  1  0  0  0  0  0  0
  185.5770  177.9810  146.6010 C   0  0  0  0  0  0  0  0  0  0  0  0
  184.4860  177.3650  146.4650 O   0  0  0  0  0  0  0  0  0  0  0  0
  189.8330  174.2460  142.4810 C   0  0  0  0  0  0  0  0  0  0  0  0
  190.3080  175.4990  142.9850 N   0  0  0  0  0  2  0  0  0  0  0  0
  189.5350  173.3160  143.2800 O   0  0  0  0  0  0  0  0  0  0  0  0
  188.3810  174.1650  138.9970 C   0  0  0  0  0  3  0  0  0  0  0  0
  189.3640  173.4450  136.9520 F   0  0  0  0  0  0  0  0  0  0  0  0
  188.5020  174.3650  140.3730 C   0  0  0  0  0  3  0  0  0  0  0  0
  189.4640  173.6440  138.2870 C   0  0  0  0  0  0  0  0  0  0  0  0
  190.6190  173.3350  138.9350 N   0  0  0  0  0  0  0  0  0  0  0  0
  190.7550  173.5210  140.2760 C   0  0  0  0  0  3  0  0  0  0  0  0
  189.6960  174.0430  141.0290 C   0  0  0  0  0  0  0  0  0  0  0  0
  191.5820  176.5470  144.7110 O   0  0  0  0  0  0  0  0  0  0  0  0
  192.0880  174.4700  145.7550 C   0  0  0  0  0  2  0  0  0  0  0  0
  192.2560  175.9700  145.8010 C   0  0  1  0  0  3  0  0  0  0  0  0
  193.7450  176.2090  145.6610 C   0  0  0  0  0  2  0  0  0  0  0  0
  195.6240  174.8300  145.8260 C   0  0  0  0  0  1  0  0  0  0  0  0
  193.4860  173.9110  145.6230 C   0  0  0  0  0  2  0  0  0  0  0  0
  194.3460  174.9850  145.1550 N   0  0  0  0  0  0  0  0  0  0  0  0
  1 12  1  6  0  0  0
  1 21  1  0  0  0  0
  1  6  1  0  0  0  0
  2  5  1  0  0  0  0
  3  7  1  0  0  0  0
  4  2  2  0  0  0  0
  4  6  1  0  0  0  0
  5  9  1  0  0  0  0
  5  7  2  0  0  0  0
  6  3  2  0  0  0  0
  9  8  1  0  0  0  0
 10  9  2  0  0  0  0
 11 12  1  0  0  0  0
 11 13  2  0  0  0  0
 14 16  1  0  0  0  0
 15 17  1  0  0  0  0
 16 20  2  0  0  0  0
 17 18  1  0  0  0  0
 17 14  2  0  0  0  0
 18 19  2  0  0  0  0
 19 20  1  0  0  0  0
 20 11  1  0  0  0  0
 22 23  1  0  0  0  0
 23 21  1  6  0  0  0
 24 23  1  0  0  0  0
 26 22  1  0  0  0  0
 27 26  1  0  0  0  0
 27 24  1  0  0  0  0
 27 25  1  0  0  0  0
M  END
>  <MODEL>
8

>  <REMARK>
 VINA RESULT:      -6.0      2.802      5.714
  Name = 
  6 active torsions:
  status: ('A' for Active; 'I' for Inactive)
    1  A    between atoms: C_6  and  C_21
    2  A    between atoms: C_8  and  O_10
    3  A    between atoms: C_8  and  N_15
    4  A    between atoms: C_8  and  C_18
    5  A    between atoms: O_10  and  C_23
    6  A    between atoms: C_11  and  C_17
                            x       y       z     vdW  Elec       q    Type
                         _______ _______ _______ _____ _____    ______ ____

>  <TORSDO>
F 6

$$$$
=
 OpenBabel11042414213D

 27 29  0  0  1  0  0  0  0  0999 V2000
  188.8010  176.5150  145.0490 C   0  0  1  0  0  3  0  0  0  0  0  0
  187.8340  177.5690  141.5440 C   0  0  0  0  0  3  0  0  0  0  0  0
  188.2040  175.2480  142.9880 N   0  0  0  0  0  0  0  0  0  0  0  0
  188.2030  177.6340  142.8880 C   0  0  0  0  0  3  0  0  0  0  0  0
  187.6490  176.3270  140.9250 C   0  0  0  0  0  0  0  0  0  0  0  0
  188.3780  176.4500  143.6070 C   0  0  0  0  0  0  0  0  0  0  0  0
  187.8450  175.1640  141.6800 C   0  0  0  0  0  3  0  0  0  0  0  0
  187.6500  175.1480  138.7420 O   0  0  0  0  0  0  0  0  0  0  0  0
  187.2600  176.2400  139.5090 C   0  0  0  0  0  0  0  0  0  0  0  0
  186.5710  177.1520  138.9790 O   0  0  0  0  0  1  0  0  0  0  0  0
  190.8310  175.1390  145.7170 C   0  0  0  0  0  0  0  0  0  0  0  0
  190.2440  176.3450  145.2180 N   0  0  0  0  0  2  0  0  0  0  0  0
  190.0940  174.1780  146.0700 O   0  0  0  0  0  0  0  0  0  0  0  0
  194.4470  175.9510  146.4320 C   0  0  0  0  0  3  0  0  0  0  0  0
  196.4030  174.6400  146.0810 F   0  0  0  0  0  0  0  0  0  0  0  0
  193.0600  176.0720  146.3410 C   0  0  0  0  0  3  0  0  0  0  0  0
  195.0580  174.7730  145.9990 C   0  0  0  0  0  0  0  0  0  0  0  0
  194.3050  173.7600  145.4940 N   0  0  0  0  0  0  0  0  0  0  0  0
  192.9520  173.8590  145.3960 C   0  0  0  0  0  3  0  0  0  0  0  0
  192.2950  175.0220  145.8200 C   0  0  0  0  0  0  0  0  0  0  0  0
  188.3180  177.6670  145.7120 O   0  0  0  0  0  0  0  0  0  0  0  0
  187.0520  178.2570  147.6390 C   0  0  0  0  0  2  0  0  0  0  0  0
  187.1690  177.3330  146.4510 C   0  0  1  0  0  3  0  0  0  0  0  0
  185.9340  177.5990  145.6150 C   0  0  0  0  0  2  0  0  0  0  0  0
  183.9200  178.7110  146.0200 C   0  0  0  0  0  1  0  0  0  0  0  0
  185.7430  178.9900  147.4520 C   0  0  0  0  0  2  0  0  0  0  0  0
  185.3630  178.8620  146.0550 N   0  0  0  0  0  0  0  0  0  0  0  0
  1 12  1  6  0  0  0
  1 21  1  0  0  0  0
  2  4  1  0  0  0  0
  3  6  1  0  0  0  0
  4  6  2  0  0  0  0
  5  2  2  0  0  0  0
  5  7  1  0  0  0  0
  6  1  1  0  0  0  0
  7  3  2  0  0  0  0
  8  9  2  0  0  0  0
  9  5  1  0  0  0  0
 10  9  1  0  0  0  0
 11 20  1  0  0  0  0
 11 13  2  0  0  0  0
 12 11  1  0  0  0  0
 16 14  1  0  0  0  0
 17 15  1  0  0  0  0
 17 14  2  0  0  0  0
 18 17  1  0  0  0  0
 19 18  2  0  0  0  0
 19 20  1  0  0  0  0
 20 16  2  0  0  0  0
 23 21  1  6  0  0  0
 23 22  1  0  0  0  0
 24 27  1  0  0  0  0
 24 23  1  0  0  0  0
 25 27  1  0  0  0  0
 26 22  1  0  0  0  0
 27 26  1  0  0  0  0
M  END
>  <MODEL>
9

>  <REMARK>
 VINA RESULT:      -6.0      2.403      5.410
  Name = 
  6 active torsions:
  status: ('A' for Active; 'I' for Inactive)
    1  A    between atoms: C_6  and  C_21
    2  A    between atoms: C_8  and  O_10
    3  A    between atoms: C_8  and  N_15
    4  A    between atoms: C_8  and  C_18
    5  A    between atoms: O_10  and  C_23
    6  A    between atoms: C_11  and  C_17
                            x       y       z     vdW  Elec       q    Type
                         _______ _______ _______ _____ _____    ______ ____

>  <TORSDO>
F 6

$$$$
