=
 OpenBabel11042417223D

 26 27  0  0  1  0  0  0  0  0999 V2000
  185.1700  178.1300  141.3740 C   0  0  0  0  0  0  0  0  0  0  0  0
  187.3860  177.5330  141.1590 N   0  0  0  0  0  0  0  0  0  0  0  0
  186.4400  178.0790  142.0670 C   0  0  0  0  0  0  0  0  0  0  0  0
  184.0770  178.5550  141.8310 O   0  0  0  0  0  0  0  0  0  0  0  0
  186.7090  178.4190  143.3380 C   0  0  1  0  0  3  0  0  0  0  0  0
  185.3370  177.6470  140.0910 O   0  0  0  0  0  0  0  0  0  0  0  0
  186.6980  177.2610  139.8940 C   0  0  0  0  0  2  0  0  0  0  0  0
  185.4120  180.2080  144.2100 O   0  0  0  0  0  1  0  0  0  0  0  0
  185.6010  178.8260  144.2630 C   0  0  2  0  0  3  0  0  0  0  0  0
  185.9260  178.3950  145.6900 C   0  0  0  0  0  2  0  0  0  0  0  0
  184.6740  177.9850  146.4570 C   0  0  0  0  0  0  0  0  0  0  0  0
  183.5630  178.4700  145.8000 F   0  0  0  0  0  0  0  0  0  0  0  0
  184.7070  178.5130  147.7370 F   0  0  0  0  0  0  0  0  0  0  0  0
  184.5870  176.6070  146.5290 F   0  0  0  0  0  0  0  0  0  0  0  0
  188.0290  178.2640  143.8820 N   0  0  0  0  0  2  0  0  0  0  0  0
  190.0010  176.9260  143.2080 C   0  0  0  0  0  2  0  0  0  0  0  0
  190.9890  175.9360  143.8190 C   0  0  0  0  0  2  0  0  0  0  0  0
  188.7220  176.9860  144.0440 C   0  0  0  0  0  3  0  0  0  0  0  0
  191.4050  176.3220  145.1810 N   0  0  0  0  0  0  0  0  0  0  0  0
  190.3650  177.0310  145.9490 C   0  0  0  0  0  2  0  0  0  0  0  0
  188.9470  176.6480  145.5220 C   0  0  0  0  0  2  0  0  0  0  0  0
  191.7060  175.0900  145.8990 C   0  0  0  0  0  2  0  0  0  0  0  0
  192.7250  175.3210  146.8660 O   0  0  0  0  0  0  0  0  0  0  0  0
  193.9430  175.9310  146.5500 C   0  0  0  0  0  0  0  0  0  0  0  0
  194.1530  177.1180  146.9170 O   0  0  0  0  0  0  0  0  0  0  0  0
  195.0020  175.2140  145.7780 C   0  0  0  0  0  1  0  0  0  0  0  0
  1  4  2  0  0  0  0
  1  3  1  0  0  0  0
  2  3  2  0  0  0  0
  3  5  1  0  0  0  0
  5 15  1  1  0  0  0
  5  9  1  0  0  0  0
  6  1  1  0  0  0  0
  7  6  1  0  0  0  0
  7  2  1  0  0  0  0
  9  8  1  1  0  0  0
  9 10  1  0  0  0  0
 10 11  1  0  0  0  0
 11 14  1  0  0  0  0
 11 13  1  0  0  0  0
 12 11  1  0  0  0  0
 15 18  1  0  0  0  0
 16 17  1  0  0  0  0
 16 18  1  0  0  0  0
 17 19  1  0  0  0  0
 18 21  1  0  0  0  0
 19 22  1  0  0  0  0
 19 20  1  0  0  0  0
 21 20  1  0  0  0  0
 22 23  1  0  0  0  0
 24 23  1  0  0  0  0
 24 25  2  0  0  0  0
 26 24  1  0  0  0  0
M  END
>  <MODEL>
1

>  <REMARK>
 VINA RESULT:      -6.8      0.000      0.000
  Name = 
  8 active torsions:
  status: ('A' for Active; 'I' for Inactive)
    1  A    between atoms: C_3  and  C_20
    2  A    between atoms: C_4  and  N_18
    3  A    between atoms: C_4  and  O_19
    4  A    between atoms: C_7  and  O_19
    5  A    between atoms: C_10  and  C_14
    6  A    between atoms: C_10  and  C_20
    7  A    between atoms: C_14  and  N_21
    8  A    between atoms: C_16  and  N_21
                            x       y       z     vdW  Elec       q    Type
                         _______ _______ _______ _____ _____    ______ ____

>  <TORSDO>
F 8

$$$$
=
 OpenBabel11042417223D

 26 27  0  0  1  0  0  0  0  0999 V2000
  184.9450  178.1400  141.1240 C   0  0  0  0  0  0  0  0  0  0  0  0
  187.1490  177.5960  140.7250 N   0  0  0  0  0  0  0  0  0  0  0  0
  186.2690  178.1190  141.7090 C   0  0  0  0  0  0  0  0  0  0  0  0
  183.8830  178.5390  141.6710 O   0  0  0  0  0  0  0  0  0  0  0  0
  186.6340  178.4640  142.9550 C   0  0  1  0  0  3  0  0  0  0  0  0
  185.0170  177.6630  139.8300 O   0  0  0  0  0  0  0  0  0  0  0  0
  186.3650  177.3090  139.5200 C   0  0  0  0  0  2  0  0  0  0  0  0
  185.5080  180.2330  144.0710 O   0  0  0  0  0  1  0  0  0  0  0  0
  185.5970  178.8430  143.9700 C   0  0  2  0  0  3  0  0  0  0  0  0
  185.9460  178.2400  145.3260 C   0  0  0  0  0  2  0  0  0  0  0  0
  184.7180  178.0940  146.2160 C   0  0  0  0  0  0  0  0  0  0  0  0
  184.5370  176.7600  146.5180 F   0  0  0  0  0  0  0  0  0  0  0  0
  183.5950  178.5620  145.5550 F   0  0  0  0  0  0  0  0  0  0  0  0
  184.8900  178.8010  147.3900 F   0  0  0  0  0  0  0  0  0  0  0  0
  187.9980  178.3410  143.3870 N   0  0  0  0  0  2  0  0  0  0  0  0
  188.8140  176.0060  143.2650 C   0  0  0  0  0  2  0  0  0  0  0  0
  189.8900  175.1240  143.8920 C   0  0  0  0  0  2  0  0  0  0  0  0
  188.5330  177.2170  144.1550 C   0  0  0  0  0  3  0  0  0  0  0  0
  191.1770  175.8280  144.0470 N   0  0  0  0  0  0  0  0  0  0  0  0
  191.0440  177.2740  144.3010 C   0  0  0  0  0  2  0  0  0  0  0  0
  189.7360  177.6350  145.0080 C   0  0  0  0  0  2  0  0  0  0  0  0
  191.8420  175.2470  145.2070 C   0  0  0  0  0  2  0  0  0  0  0  0
  190.9030  174.5320  146.0040 O   0  0  0  0  0  0  0  0  0  0  0  0
  190.4330  175.0110  147.2300 C   0  0  0  0  0  0  0  0  0  0  0  0
  189.2930  174.6570  147.6350 O   0  0  0  0  0  0  0  0  0  0  0  0
  191.2440  175.9410  148.0720 C   0  0  0  0  0  1  0  0  0  0  0  0
  1  4  2  0  0  0  0
  1  3  1  0  0  0  0
  2  3  2  0  0  0  0
  3  5  1  0  0  0  0
  5 15  1  1  0  0  0
  5  9  1  0  0  0  0
  6  1  1  0  0  0  0
  7  6  1  0  0  0  0
  7  2  1  0  0  0  0
  9  8  1  1  0  0  0
  9 10  1  0  0  0  0
 10 11  1  0  0  0  0
 11 12  1  0  0  0  0
 11 14  1  0  0  0  0
 13 11  1  0  0  0  0
 15 18  1  0  0  0  0
 16 17  1  0  0  0  0
 16 18  1  0  0  0  0
 17 19  1  0  0  0  0
 18 21  1  0  0  0  0
 19 20  1  0  0  0  0
 19 22  1  0  0  0  0
 20 21  1  0  0  0  0
 22 23  1  0  0  0  0
 23 24  1  0  0  0  0
 24 25  2  0  0  0  0
 24 26  1  0  0  0  0
M  END
>  <MODEL>
2

>  <REMARK>
 VINA RESULT:      -6.7      1.410      1.938
  Name = 
  8 active torsions:
  status: ('A' for Active; 'I' for Inactive)
    1  A    between atoms: C_3  and  C_20
    2  A    between atoms: C_4  and  N_18
    3  A    between atoms: C_4  and  O_19
    4  A    between atoms: C_7  and  O_19
    5  A    between atoms: C_10  and  C_14
    6  A    between atoms: C_10  and  C_20
    7  A    between atoms: C_14  and  N_21
    8  A    between atoms: C_16  and  N_21
                            x       y       z     vdW  Elec       q    Type
                         _______ _______ _______ _____ _____    ______ ____

>  <TORSDO>
F 8

$$$$
=
 OpenBabel11042417223D

 26 27  0  0  1  0  0  0  0  0999 V2000
  186.4020  178.4420  142.4630 C   0  0  0  0  0  0  0  0  0  0  0  0
  187.4180  176.4750  141.8180 N   0  0  0  0  0  0  0  0  0  0  0  0
  187.1280  177.2870  142.9470 C   0  0  0  0  0  0  0  0  0  0  0  0
  185.9660  179.4030  143.1500 O   0  0  0  0  0  0  0  0  0  0  0  0
  187.4420  176.9720  144.2150 C   0  0  1  0  0  3  0  0  0  0  0  0
  186.2650  178.3460  141.0920 O   0  0  0  0  0  0  0  0  0  0  0  0
  186.8800  177.1430  140.6290 C   0  0  0  0  0  2  0  0  0  0  0  0
  187.8250  177.7470  146.4280 O   0  0  0  0  0  1  0  0  0  0  0  0
  186.9400  177.8140  145.3500 C   0  0  2  0  0  3  0  0  0  0  0  0
  185.5540  177.3440  145.7780 C   0  0  0  0  0  2  0  0  0  0  0  0
  184.6600  178.5090  146.1850 C   0  0  0  0  0  0  0  0  0  0  0  0
  185.4200  179.6580  146.2520 F   0  0  0  0  0  0  0  0  0  0  0  0
  184.0980  178.2670  147.4270 F   0  0  0  0  0  0  0  0  0  0  0  0
  183.6560  178.6900  145.2520 F   0  0  0  0  0  0  0  0  0  0  0  0
  188.1370  175.7550  144.5250 N   0  0  0  0  0  2  0  0  0  0  0  0
  190.3140  176.9210  144.3470 C   0  0  0  0  0  2  0  0  0  0  0  0
  191.7370  176.8000  144.8870 C   0  0  0  0  0  2  0  0  0  0  0  0
  189.5870  175.5800  144.4580 C   0  0  0  0  0  3  0  0  0  0  0  0
  191.7690  176.4320  146.3150 N   0  0  0  0  0  0  0  0  0  0  0  0
  190.6500  175.5710  146.7390 C   0  0  0  0  0  2  0  0  0  0  0  0
  190.1050  174.7020  145.6030 C   0  0  0  0  0  2  0  0  0  0  0  0
  192.9980  175.6780  146.5310 C   0  0  0  0  0  2  0  0  0  0  0  0
  193.6640  175.4590  145.2910 O   0  0  0  0  0  0  0  0  0  0  0  0
  195.0560  175.4960  145.1640 C   0  0  0  0  0  0  0  0  0  0  0  0
  195.5910  176.4240  144.5010 O   0  0  0  0  0  0  0  0  0  0  0  0
  195.9280  174.4570  145.7890 C   0  0  0  0  0  1  0  0  0  0  0  0
  1  3  1  0  0  0  0
  1  4  2  0  0  0  0
  2  3  2  0  0  0  0
  3  5  1  0  0  0  0
  5 15  1  1  0  0  0
  5  9  1  0  0  0  0
  6  1  1  0  0  0  0
  7  6  1  0  0  0  0
  7  2  1  0  0  0  0
  9 10  1  0  0  0  0
  9  8  1  1  0  0  0
 10 11  1  0  0  0  0
 11 12  1  0  0  0  0
 11 13  1  0  0  0  0
 14 11  1  0  0  0  0
 16 18  1  0  0  0  0
 16 17  1  0  0  0  0
 17 19  1  0  0  0  0
 18 15  1  0  0  0  0
 18 21  1  0  0  0  0
 19 22  1  0  0  0  0
 19 20  1  0  0  0  0
 21 20  1  0  0  0  0
 23 22  1  0  0  0  0
 24 23  1  0  0  0  0
 24 26  1  0  0  0  0
 25 24  2  0  0  0  0
M  END
>  <MODEL>
3

>  <REMARK>
 VINA RESULT:      -6.6      1.628      1.914
  Name = 
  8 active torsions:
  status: ('A' for Active; 'I' for Inactive)
    1  A    between atoms: C_3  and  C_20
    2  A    between atoms: C_4  and  N_18
    3  A    between atoms: C_4  and  O_19
    4  A    between atoms: C_7  and  O_19
    5  A    between atoms: C_10  and  C_14
    6  A    between atoms: C_10  and  C_20
    7  A    between atoms: C_14  and  N_21
    8  A    between atoms: C_16  and  N_21
                            x       y       z     vdW  Elec       q    Type
                         _______ _______ _______ _____ _____    ______ ____

>  <TORSDO>
F 8

$$$$
=
 OpenBabel11042417223D

 26 27  0  0  1  0  0  0  0  0999 V2000
  185.2140  178.1110  141.3610 C   0  0  0  0  0  0  0  0  0  0  0  0
  187.4380  177.5330  141.1830 N   0  0  0  0  0  0  0  0  0  0  0  0
  186.4740  178.0800  142.0720 C   0  0  0  0  0  0  0  0  0  0  0  0
  184.1100  178.5310  141.7980 O   0  0  0  0  0  0  0  0  0  0  0  0
  186.7220  178.4370  143.3430 C   0  0  1  0  0  3  0  0  0  0  0  0
  185.4030  177.6160  140.0860 O   0  0  0  0  0  0  0  0  0  0  0  0
  186.7700  177.2410  139.9110 C   0  0  0  0  0  2  0  0  0  0  0  0
  185.3850  180.2200  144.1630 O   0  0  0  0  0  1  0  0  0  0  0  0
  185.5980  178.8430  144.2480 C   0  0  2  0  0  3  0  0  0  0  0  0
  185.9160  178.4490  145.6870 C   0  0  0  0  0  2  0  0  0  0  0  0
  184.6640  178.0390  146.4520 C   0  0  0  0  0  0  0  0  0  0  0  0
  184.7260  178.5570  147.7290 F   0  0  0  0  0  0  0  0  0  0  0  0
  184.5850  176.6590  146.5300 F   0  0  0  0  0  0  0  0  0  0  0  0
  183.5350  178.5300  145.8230 F   0  0  0  0  0  0  0  0  0  0  0  0
  188.0360  178.3020  143.9060 N   0  0  0  0  0  2  0  0  0  0  0  0
  190.3490  177.4570  143.6350 C   0  0  0  0  0  2  0  0  0  0  0  0
  191.2290  176.3160  144.1380 C   0  0  0  0  0  2  0  0  0  0  0  0
  188.8700  177.1050  143.8050 C   0  0  0  0  0  3  0  0  0  0  0  0
  191.0330  176.0450  145.5750 N   0  0  0  0  0  0  0  0  0  0  0  0
  189.6630  176.3040  146.0540 C   0  0  0  0  0  2  0  0  0  0  0  0
  188.6080  176.1320  144.9600 C   0  0  0  0  0  2  0  0  0  0  0  0
  191.2990  174.6260  145.7790 C   0  0  0  0  0  2  0  0  0  0  0  0
  191.4180  173.9640  144.5240 O   0  0  0  0  0  0  0  0  0  0  0  0
  190.9330  172.6710  144.3020 C   0  0  0  0  0  0  0  0  0  0  0  0
  191.6110  171.8680  143.6080 O   0  0  0  0  0  0  0  0  0  0  0  0
  189.6230  172.2190  144.8600 C   0  0  0  0  0  1  0  0  0  0  0  0
  1  4  2  0  0  0  0
  1  3  1  0  0  0  0
  2  3  2  0  0  0  0
  3  5  1  0  0  0  0
  5 15  1  1  0  0  0
  5  9  1  0  0  0  0
  6  1  1  0  0  0  0
  7  6  1  0  0  0  0
  7  2  1  0  0  0  0
  9  8  1  1  0  0  0
  9 10  1  0  0  0  0
 10 11  1  0  0  0  0
 11 13  1  0  0  0  0
 11 12  1  0  0  0  0
 14 11  1  0  0  0  0
 16 18  1  0  0  0  0
 16 17  1  0  0  0  0
 17 19  1  0  0  0  0
 18 15  1  0  0  0  0
 18 21  1  0  0  0  0
 19 22  1  0  0  0  0
 19 20  1  0  0  0  0
 21 20  1  0  0  0  0
 23 22  1  0  0  0  0
 24 23  1  0  0  0  0
 24 26  1  0  0  0  0
 25 24  2  0  0  0  0
M  END
>  <MODEL>
4

>  <REMARK>
 VINA RESULT:      -6.6      1.507      2.290
  Name = 
  8 active torsions:
  status: ('A' for Active; 'I' for Inactive)
    1  A    between atoms: C_3  and  C_20
    2  A    between atoms: C_4  and  N_18
    3  A    between atoms: C_4  and  O_19
    4  A    between atoms: C_7  and  O_19
    5  A    between atoms: C_10  and  C_14
    6  A    between atoms: C_10  and  C_20
    7  A    between atoms: C_14  and  N_21
    8  A    between atoms: C_16  and  N_21
                            x       y       z     vdW  Elec       q    Type
                         _______ _______ _______ _____ _____    ______ ____

>  <TORSDO>
F 8

$$$$
=
 OpenBabel11042417223D

 26 27  0  0  1  0  0  0  0  0999 V2000
  189.5170  172.6080  143.6620 C   0  0  0  0  0  0  0  0  0  0  0  0
  189.1350  174.0530  141.9060 N   0  0  0  0  0  0  0  0  0  0  0  0
  189.4550  174.0050  143.2900 C   0  0  0  0  0  0  0  0  0  0  0  0
  189.7690  172.1400  144.8030 O   0  0  0  0  0  0  0  0  0  0  0  0
  189.6990  175.0820  144.0550 C   0  0  1  0  0  3  0  0  0  0  0  0
  189.2340  171.8340  142.5540 O   0  0  0  0  0  0  0  0  0  0  0  0
  188.9830  172.6760  141.4270 C   0  0  0  0  0  2  0  0  0  0  0  0
  189.1240  174.9400  146.3550 O   0  0  0  0  0  1  0  0  0  0  0  0
  190.1950  174.9150  145.4600 C   0  0  2  0  0  3  0  0  0  0  0  0
  191.1890  176.0220  145.7990 C   0  0  0  0  0  2  0  0  0  0  0  0
  192.1320  175.6120  146.9240 C   0  0  0  0  0  0  0  0  0  0  0  0
  192.9340  176.6840  147.2520 F   0  0  0  0  0  0  0  0  0  0  0  0
  192.9330  174.5600  146.5130 F   0  0  0  0  0  0  0  0  0  0  0  0
  191.4100  175.2330  148.0400 F   0  0  0  0  0  0  0  0  0  0  0  0
  189.6310  176.4090  143.5090 N   0  0  0  0  0  2  0  0  0  0  0  0
  188.2450  178.1460  142.4160 C   0  0  0  0  0  2  0  0  0  0  0  0
  186.7890  178.6020  142.3690 C   0  0  0  0  0  2  0  0  0  0  0  0
  188.5060  177.3270  143.6810 C   0  0  0  0  0  3  0  0  0  0  0  0
  185.8450  177.4690  142.3280 N   0  0  0  0  0  0  0  0  0  0  0  0
  186.3120  176.2710  143.0490 C   0  0  0  0  0  2  0  0  0  0  0  0
  187.2600  176.6030  144.2030 C   0  0  0  0  0  2  0  0  0  0  0  0
  184.6200  177.9130  142.9810 C   0  0  0  0  0  2  0  0  0  0  0  0
  184.8960  179.0080  143.8500 O   0  0  0  0  0  0  0  0  0  0  0  0
  184.6300  178.9700  145.2220 C   0  0  0  0  0  0  0  0  0  0  0  0
  183.4370  178.8800  145.6170 O   0  0  0  0  0  0  0  0  0  0  0  0
  185.7250  179.0430  146.2360 C   0  0  0  0  0  1  0  0  0  0  0  0
  1  4  2  0  0  0  0
  2  3  2  0  0  0  0
  3  1  1  0  0  0  0
  3  5  1  0  0  0  0
  5 15  1  6  0  0  0
  5  9  1  0  0  0  0
  6  1  1  0  0  0  0
  7  2  1  0  0  0  0
  7  6  1  0  0  0  0
  9 10  1  0  0  0  0
  9  8  1  1  0  0  0
 10 11  1  0  0  0  0
 11 12  1  0  0  0  0
 11 14  1  0  0  0  0
 13 11  1  0  0  0  0
 15 18  1  0  0  0  0
 16 18  1  0  0  0  0
 17 16  1  0  0  0  0
 18 21  1  0  0  0  0
 19 17  1  0  0  0  0
 19 22  1  0  0  0  0
 19 20  1  0  0  0  0
 20 21  1  0  0  0  0
 22 23  1  0  0  0  0
 23 24  1  0  0  0  0
 24 25  2  0  0  0  0
 24 26  1  0  0  0  0
M  END
>  <MODEL>
5

>  <REMARK>
 VINA RESULT:      -6.5      3.787      6.987
  Name = 
  8 active torsions:
  status: ('A' for Active; 'I' for Inactive)
    1  A    between atoms: C_3  and  C_20
    2  A    between atoms: C_4  and  N_18
    3  A    between atoms: C_4  and  O_19
    4  A    between atoms: C_7  and  O_19
    5  A    between atoms: C_10  and  C_14
    6  A    between atoms: C_10  and  C_20
    7  A    between atoms: C_14  and  N_21
    8  A    between atoms: C_16  and  N_21
                            x       y       z     vdW  Elec       q    Type
                         _______ _______ _______ _____ _____    ______ ____

>  <TORSDO>
F 8

$$$$
=
 OpenBabel11042417223D

 26 27  0  0  1  0  0  0  0  0999 V2000
  187.7440  175.6580  141.8550 C   0  0  0  0  0  0  0  0  0  0  0  0
  189.1720  174.2960  143.0470 N   0  0  0  0  0  0  0  0  0  0  0  0
  188.3040  175.4150  143.1670 C   0  0  0  0  0  0  0  0  0  0  0  0
  186.9300  176.5650  141.5370 O   0  0  0  0  0  0  0  0  0  0  0  0
  188.0430  176.0590  144.3160 C   0  0  1  0  0  3  0  0  0  0  0  0
  188.2580  174.7340  140.9670 O   0  0  0  0  0  0  0  0  0  0  0  0
  189.1580  173.8580  141.6490 C   0  0  0  0  0  2  0  0  0  0  0  0
  187.5500  178.3780  144.1710 O   0  0  0  0  0  1  0  0  0  0  0  0
  186.9820  177.1180  144.3660 C   0  0  2  0  0  3  0  0  0  0  0  0
  186.2570  177.0710  145.7070 C   0  0  0  0  0  2  0  0  0  0  0  0
  185.0140  177.9520  145.7120 C   0  0  0  0  0  0  0  0  0  0  0  0
  185.3830  179.2490  146.0050 F   0  0  0  0  0  0  0  0  0  0  0  0
  184.1220  177.5100  146.6730 F   0  0  0  0  0  0  0  0  0  0  0  0
  184.4060  177.9280  144.4710 F   0  0  0  0  0  0  0  0  0  0  0  0
  188.6630  175.6570  145.5480 N   0  0  0  0  0  2  0  0  0  0  0  0
  190.6480  175.2970  146.9840 C   0  0  0  0  0  2  0  0  0  0  0  0
  192.1120  175.7230  147.0590 C   0  0  0  0  0  2  0  0  0  0  0  0
  189.8500  176.2830  146.1290 C   0  0  0  0  0  3  0  0  0  0  0  0
  192.7630  175.7400  145.7350 N   0  0  0  0  0  0  0  0  0  0  0  0
  191.8580  176.0880  144.6250 C   0  0  0  0  0  2  0  0  0  0  0  0
  190.6990  176.9850  145.0630 C   0  0  0  0  0  2  0  0  0  0  0  0
  193.7990  176.7640  145.7850 C   0  0  0  0  0  2  0  0  0  0  0  0
  194.4720  176.8420  144.5320 O   0  0  0  0  0  0  0  0  0  0  0  0
  195.6850  176.1920  144.2840 C   0  0  0  0  0  0  0  0  0  0  0  0
  196.4850  176.6780  143.4410 O   0  0  0  0  0  0  0  0  0  0  0  0
  196.0540  174.9270  144.9880 C   0  0  0  0  0  1  0  0  0  0  0  0
  1  3  1  0  0  0  0
  2  3  2  0  0  0  0
  3  5  1  0  0  0  0
  4  1  2  0  0  0  0
  5  9  1  0  0  0  0
  5 15  1  1  0  0  0
  6  7  1  0  0  0  0
  6  1  1  0  0  0  0
  7  2  1  0  0  0  0
  9  8  1  1  0  0  0
  9 10  1  0  0  0  0
 10 11  1  0  0  0  0
 11 12  1  0  0  0  0
 11 13  1  0  0  0  0
 14 11  1  0  0  0  0
 15 18  1  0  0  0  0
 16 17  1  0  0  0  0
 18 16  1  0  0  0  0
 19 22  1  0  0  0  0
 19 17  1  0  0  0  0
 20 21  1  0  0  0  0
 20 19  1  0  0  0  0
 21 18  1  0  0  0  0
 23 22  1  0  0  0  0
 24 23  1  0  0  0  0
 24 26  1  0  0  0  0
 25 24  2  0  0  0  0
M  END
>  <MODEL>
6

>  <REMARK>
 VINA RESULT:      -6.2      2.248      2.977
  Name = 
  8 active torsions:
  status: ('A' for Active; 'I' for Inactive)
    1  A    between atoms: C_3  and  C_20
    2  A    between atoms: C_4  and  N_18
    3  A    between atoms: C_4  and  O_19
    4  A    between atoms: C_7  and  O_19
    5  A    between atoms: C_10  and  C_14
    6  A    between atoms: C_10  and  C_20
    7  A    between atoms: C_14  and  N_21
    8  A    between atoms: C_16  and  N_21
                            x       y       z     vdW  Elec       q    Type
                         _______ _______ _______ _____ _____    ______ ____

>  <TORSDO>
F 8

$$$$
=
 OpenBabel11042417223D

 26 27  0  0  1  0  0  0  0  0999 V2000
  187.9470  176.4490  141.6980 C   0  0  0  0  0  0  0  0  0  0  0  0
  189.0450  174.4310  141.8810 N   0  0  0  0  0  0  0  0  0  0  0  0
  188.7190  175.6160  142.5940 C   0  0  0  0  0  0  0  0  0  0  0  0
  187.4700  177.5880  141.9480 O   0  0  0  0  0  0  0  0  0  0  0  0
  189.0440  175.8490  143.8770 C   0  0  1  0  0  3  0  0  0  0  0  0
  187.8180  175.8060  140.4830 O   0  0  0  0  0  0  0  0  0  0  0  0
  188.4830  174.5430  140.5320 C   0  0  0  0  0  2  0  0  0  0  0  0
  189.5550  177.8300  145.0830 O   0  0  0  0  0  1  0  0  0  0  0  0
  188.5050  177.0560  144.5860 C   0  0  2  0  0  3  0  0  0  0  0  0
  187.5850  176.6270  145.7240 C   0  0  0  0  0  2  0  0  0  0  0  0
  186.1310  176.9870  145.4430 C   0  0  0  0  0  0  0  0  0  0  0  0
  185.7320  176.3720  144.2750 F   0  0  0  0  0  0  0  0  0  0  0  0
  186.0000  178.3570  145.2980 F   0  0  0  0  0  0  0  0  0  0  0  0
  185.3220  176.5530  146.4770 F   0  0  0  0  0  0  0  0  0  0  0  0
  189.7880  174.8860  144.6390 N   0  0  0  0  0  2  0  0  0  0  0  0
  191.9010  175.8490  143.7790 C   0  0  0  0  0  2  0  0  0  0  0  0
  193.3220  176.1340  144.2610 C   0  0  0  0  0  2  0  0  0  0  0  0
  191.2470  174.7800  144.6550 C   0  0  0  0  0  3  0  0  0  0  0  0
  193.3550  176.6540  145.6410 N   0  0  0  0  0  0  0  0  0  0  0  0
  192.2790  176.1370  146.5050 C   0  0  0  0  0  2  0  0  0  0  0  0
  191.7970  174.7470  146.0850 C   0  0  0  0  0  2  0  0  0  0  0  0
  194.6200  176.2260  146.2250 C   0  0  0  0  0  2  0  0  0  0  0  0
  195.3170  175.3770  145.3180 O   0  0  0  0  0  0  0  0  0  0  0  0
  195.7510  174.0940  145.6650 C   0  0  0  0  0  0  0  0  0  0  0  0
  196.8920  173.9460  146.1790 O   0  0  0  0  0  0  0  0  0  0  0  0
  194.8990  172.8890  145.4340 C   0  0  0  0  0  1  0  0  0  0  0  0
  1  4  2  0  0  0  0
  1  3  1  0  0  0  0
  2  3  2  0  0  0  0
  3  5  1  0  0  0  0
  5  9  1  0  0  0  0
  5 15  1  1  0  0  0
  6  7  1  0  0  0  0
  6  1  1  0  0  0  0
  7  2  1  0  0  0  0
  9  8  1  1  0  0  0
  9 10  1  0  0  0  0
 11 10  1  0  0  0  0
 11 14  1  0  0  0  0
 12 11  1  0  0  0  0
 13 11  1  0  0  0  0
 15 18  1  0  0  0  0
 16 17  1  0  0  0  0
 16 18  1  0  0  0  0
 17 19  1  0  0  0  0
 18 21  1  0  0  0  0
 19 22  1  0  0  0  0
 19 20  1  0  0  0  0
 21 20  1  0  0  0  0
 23 24  1  0  0  0  0
 23 22  1  0  0  0  0
 24 25  2  0  0  0  0
 26 24  1  0  0  0  0
M  END
>  <MODEL>
7

>  <REMARK>
 VINA RESULT:      -6.2      2.389      3.125
  Name = 
  8 active torsions:
  status: ('A' for Active; 'I' for Inactive)
    1  A    between atoms: C_3  and  C_20
    2  A    between atoms: C_4  and  N_18
    3  A    between atoms: C_4  and  O_19
    4  A    between atoms: C_7  and  O_19
    5  A    between atoms: C_10  and  C_14
    6  A    between atoms: C_10  and  C_20
    7  A    between atoms: C_14  and  N_21
    8  A    between atoms: C_16  and  N_21
                            x       y       z     vdW  Elec       q    Type
                         _______ _______ _______ _____ _____    ______ ____

>  <TORSDO>
F 8

$$$$
=
 OpenBabel11042417223D

 26 27  0  0  1  0  0  0  0  0999 V2000
  191.1150  174.6280  144.2600 C   0  0  0  0  0  0  0  0  0  0  0  0
  190.1120  176.0960  142.7930 N   0  0  0  0  0  0  0  0  0  0  0  0
  190.1300  175.6830  144.1520 C   0  0  0  0  0  0  0  0  0  0  0  0
  191.4300  173.9920  145.3000 O   0  0  0  0  0  0  0  0  0  0  0  0
  189.3920  176.2350  145.1290 C   0  0  1  0  0  3  0  0  0  0  0  0
  191.6670  174.3970  143.0150 O   0  0  0  0  0  0  0  0  0  0  0  0
  191.0810  175.2790  142.0570 C   0  0  0  0  0  2  0  0  0  0  0  0
  188.4120  175.4070  147.1280 O   0  0  0  0  0  1  0  0  0  0  0  0
  189.6110  175.8410  146.5590 C   0  0  2  0  0  3  0  0  0  0  0  0
  190.1700  177.0200  147.3470 C   0  0  0  0  0  2  0  0  0  0  0  0
  191.4560  176.6550  148.0780 C   0  0  0  0  0  0  0  0  0  0  0  0
  191.3060  175.4150  148.6620 F   0  0  0  0  0  0  0  0  0  0  0  0
  191.7240  177.5880  149.0650 F   0  0  0  0  0  0  0  0  0  0  0  0
  192.5150  176.6070  147.1900 F   0  0  0  0  0  0  0  0  0  0  0  0
  188.4830  177.3120  144.8500 N   0  0  0  0  0  2  0  0  0  0  0  0
  186.3150  178.2330  145.6150 C   0  0  0  0  0  2  0  0  0  0  0  0
  184.9120  178.4920  145.0700 C   0  0  0  0  0  2  0  0  0  0  0  0
  187.0290  177.1780  144.7690 C   0  0  0  0  0  3  0  0  0  0  0  0
  184.9310  179.0140  143.6900 N   0  0  0  0  0  0  0  0  0  0  0  0
  186.0550  178.5180  142.8750 C   0  0  0  0  0  2  0  0  0  0  0  0
  186.5440  177.1370  143.3150 C   0  0  0  0  0  2  0  0  0  0  0  0
  183.7030  178.5630  143.0490 C   0  0  0  0  0  2  0  0  0  0  0  0
  183.9040  178.4220  141.6460 O   0  0  0  0  0  0  0  0  0  0  0  0
  182.8740  178.0810  140.7640 C   0  0  0  0  0  0  0  0  0  0  0  0
  183.1490  177.4570  139.7050 O   0  0  0  0  0  0  0  0  0  0  0  0
  181.4520  178.4450  141.0420 C   0  0  0  0  0  1  0  0  0  0  0  0
  1  4  2  0  0  0  0
  2  3  2  0  0  0  0
  3  1  1  0  0  0  0
  3  5  1  0  0  0  0
  5 15  1  1  0  0  0
  5  9  1  0  0  0  0
  6  1  1  0  0  0  0
  7  2  1  0  0  0  0
  7  6  1  0  0  0  0
  9  8  1  1  0  0  0
  9 10  1  0  0  0  0
 10 11  1  0  0  0  0
 11 12  1  0  0  0  0
 11 13  1  0  0  0  0
 14 11  1  0  0  0  0
 17 16  1  0  0  0  0
 18 15  1  0  0  0  0
 18 16  1  0  0  0  0
 19 17  1  0  0  0  0
 20 21  1  0  0  0  0
 20 19  1  0  0  0  0
 21 18  1  0  0  0  0
 22 19  1  0  0  0  0
 23 22  1  0  0  0  0
 24 26  1  0  0  0  0
 24 23  1  0  0  0  0
 25 24  2  0  0  0  0
M  END
>  <MODEL>
8

>  <REMARK>
 VINA RESULT:      -6.2      3.410      7.673
  Name = 
  8 active torsions:
  status: ('A' for Active; 'I' for Inactive)
    1  A    between atoms: C_3  and  C_20
    2  A    between atoms: C_4  and  N_18
    3  A    between atoms: C_4  and  O_19
    4  A    between atoms: C_7  and  O_19
    5  A    between atoms: C_10  and  C_14
    6  A    between atoms: C_10  and  C_20
    7  A    between atoms: C_14  and  N_21
    8  A    between atoms: C_16  and  N_21
                            x       y       z     vdW  Elec       q    Type
                         _______ _______ _______ _____ _____    ______ ____

>  <TORSDO>
F 8

$$$$
=
 OpenBabel11042417223D

 26 27  0  0  1  0  0  0  0  0999 V2000
  185.3490  178.4700  145.8900 C   0  0  0  0  0  0  0  0  0  0  0  0
  186.7720  177.5540  147.4550 N   0  0  0  0  0  0  0  0  0  0  0  0
  186.4490  177.5470  146.0720 C   0  0  0  0  0  0  0  0  0  0  0  0
  184.7660  178.7470  144.8090 O   0  0  0  0  0  0  0  0  0  0  0  0
  187.1060  176.8400  145.1370 C   0  0  0  0  0  0  0  0  0  0  0  0
  185.0060  179.0090  147.1150 O   0  0  0  0  0  0  0  0  0  0  0  0
  185.8550  178.4750  148.1320 C   0  0  0  0  0  3  0  0  0  0  0  0
  186.0050  175.9820  143.2150 O   0  0  0  0  0  1  0  0  0  0  0  0
  186.7940  177.0340  143.6840 C   0  0  2  0  0  3  0  0  0  0  0  0
  188.0860  177.1210  142.8780 C   0  0  0  0  0  2  0  0  0  0  0  0
  187.8890  177.8760  141.5690 C   0  0  0  0  0  0  0  0  0  0  0  0
  187.6710  176.9680  140.5540 F   0  0  0  0  0  0  0  0  0  0  0  0
  189.0200  178.6180  141.2740 F   0  0  0  0  0  0  0  0  0  0  0  0
  186.7970  178.7170  141.6610 F   0  0  0  0  0  0  0  0  0  0  0  0
  188.2120  175.9950  145.4900 N   0  0  0  0  0  2  0  0  0  0  0  0
  189.8600  175.2470  147.1800 C   0  0  0  0  0  2  0  0  0  0  0  0
  191.3270  175.4670  147.5400 C   0  0  0  0  0  2  0  0  0  0  0  0
  189.3430  176.4020  146.3230 C   0  0  0  0  0  3  0  0  0  0  0  0
  192.1980  175.5180  146.3510 N   0  0  0  0  0  0  0  0  0  0  0  0
  191.5480  176.0820  145.1540 C   0  0  0  0  0  2  0  0  0  0  0  0
  190.4400  177.0810  145.4950 C   0  0  0  0  0  2  0  0  0  0  0  0
  193.3190  176.3880  146.6820 C   0  0  0  0  0  2  0  0  0  0  0  0
  194.5430  175.6630  146.6040 O   0  0  0  0  0  0  0  0  0  0  0  0
  195.2960  175.5760  145.4290 C   0  0  0  0  0  0  0  0  0  0  0  0
  195.1020  176.4130  144.5080 O   0  0  0  0  0  0  0  0  0  0  0  0
  196.3210  174.5080  145.2330 C   0  0  0  0  0  1  0  0  0  0  0  0
  1  3  1  0  0  0  0
  1  6  1  0  0  0  0
  2  7  2  0  0  0  0
  3  2  1  0  0  0  0
  4  1  2  0  0  0  0
  5 15  1  0  0  0  0
  5  3  2  0  0  0  0
  6  7  1  0  0  0  0
  9  8  1  6  0  0  0
  9  5  1  0  0  0  0
 10  9  1  0  0  0  0
 11 14  1  0  0  0  0
 11 10  1  0  0  0  0
 12 11  1  0  0  0  0
 13 11  1  0  0  0  0
 15 18  1  0  0  0  0
 16 17  1  0  0  0  0
 18 16  1  0  0  0  0
 19 22  1  0  0  0  0
 19 17  1  0  0  0  0
 20 21  1  0  0  0  0
 20 19  1  0  0  0  0
 21 18  1  0  0  0  0
 23 22  1  0  0  0  0
 24 23  1  0  0  0  0
 25 24  2  0  0  0  0
 26 24  1  0  0  0  0
M  END
>  <MODEL>
9

>  <REMARK>
 VINA RESULT:      -6.2      2.863      4.394
  Name = 
  8 active torsions:
  status: ('A' for Active; 'I' for Inactive)
    1  A    between atoms: C_3  and  C_20
    2  A    between atoms: C_4  and  N_18
    3  A    between atoms: C_4  and  O_19
    4  A    between atoms: C_7  and  O_19
    5  A    between atoms: C_10  and  C_14
    6  A    between atoms: C_10  and  C_20
    7  A    between atoms: C_14  and  N_21
    8  A    between atoms: C_16  and  N_21
                            x       y       z     vdW  Elec       q    Type
                         _______ _______ _______ _____ _____    ______ ____

>  <TORSDO>
F 8

$$$$
