=
 OpenBabel11042417273D

 29 34  0  0  1  0  0  0  0  0999 V2000
  185.9890  177.9360  145.2200 C   0  0  0  0  0  0  0  0  0  0  0  0
  185.8880  177.5740  143.9320 N   0  0  0  0  0  0  0  0  0  0  0  0
  186.4060  177.7390  140.3580 C   0  0  0  0  0  3  0  0  0  0  0  0
  185.6860  178.3640  142.7350 C   0  0  1  0  0  3  0  0  0  0  0  0
  183.2030  178.3920  143.0540 O   0  0  0  0  0  1  0  0  0  0  0  0
  185.6790  179.2280  147.1710 N   0  0  0  0  0  0  0  0  0  0  0  0
  187.6380  176.4790  144.8520 C   0  0  1  0  0  3  0  0  0  0  0  0
  187.4240  177.5610  147.1240 C   0  0  0  0  0  3  0  0  0  0  0  0
  186.6430  177.6770  141.7970 C   0  0  1  0  0  3  0  0  0  0  0  0
  184.0850  178.1780  140.8550 C   0  0  0  0  0  0  0  0  0  0  0  0
  182.7620  178.2110  140.3290 N   0  0  0  0  0  1  0  0  0  0  0  0
  187.3700  176.7580  142.3580 N   0  0  0  0  0  2  0  0  0  0  0  0
  184.2840  178.2780  142.1870 C   0  0  0  0  0  0  0  0  0  0  0  0
  187.0280  177.2620  145.8250 C   0  0  0  0  0  0  0  0  0  0  0  0
  186.9090  176.7450  143.7000 C   0  0  2  0  0  3  0  0  0  0  0  0
  186.6990  178.5600  147.7980 C   0  0  0  0  0  3  0  0  0  0  0  0
  185.1970  177.9970  139.9470 N   0  0  0  0  0  0  0  0  0  0  0  0
  185.3160  178.9560  145.8830 C   0  0  0  0  0  3  0  0  0  0  0  0
  188.9900  175.8550  144.9250 C   0  0  0  0  0  2  0  0  0  0  0  0
  190.0000  176.8310  144.5480 N   0  0  0  0  0  2  0  0  0  0  0  0
  193.6920  173.9040  145.8060 C   0  0  0  0  0  3  0  0  0  0  0  0
  192.8360  174.9100  145.6280 C   0  0  0  0  0  0  0  0  0  0  0  0
  195.4560  175.1600  144.6420 C   0  0  0  0  0  3  0  0  0  0  0  0
  192.3610  177.0310  144.8640 N   0  0  0  0  0  0  0  0  0  0  0  0
  194.5480  176.2200  144.4540 O   0  0  0  0  0  0  0  0  0  0  0  0
  193.2480  176.1060  144.9540 C   0  0  0  0  0  0  0  0  0  0  0  0
  195.0770  174.0400  145.2870 C   0  0  0  0  0  3  0  0  0  0  0  0
  191.1450  174.9720  146.1490 S   0  0  0  0  0  0  0  0  0  0  0  0
  191.0840  176.7030  145.5050 C   0  0  2  0  0  3  0  0  0  0  0  0
  1 14  2  0  0  0  0
  1 18  1  0  0  0  0
  2  1  1  0  0  0  0
  4 13  1  6  0  0  0
  4  2  1  0  0  0  0
  6 16  1  0  0  0  0
  7 19  1  6  0  0  0
  7 14  1  0  0  0  0
  8 16  2  0  0  0  0
  9  3  1  6  0  0  0
  9 12  1  0  0  0  0
  9  4  1  0  0  0  0
 10 13  2  0  0  0  0
 11 10  1  0  0  0  0
 13  5  1  0  0  0  0
 14  8  1  0  0  0  0
 15 12  1  6  0  0  0
 15  2  1  0  0  0  0
 15  7  1  0  0  0  0
 17  3  2  0  0  0  0
 17 10  1  0  0  0  0
 18  6  2  0  0  0  0
 20 19  1  0  0  0  0
 22 21  2  0  0  0  0
 22 28  1  0  0  0  0
 23 27  2  0  0  0  0
 24 26  2  0  0  0  0
 24 29  1  0  0  0  0
 25 23  1  0  0  0  0
 25 26  1  0  0  0  0
 26 22  1  0  0  0  0
 27 21  1  0  0  0  0
 29 20  1  6  0  0  0
 29 28  1  0  0  0  0
M  END
>  <MODEL>
1

>  <REMARK>
 VINA RESULT:      -8.3      0.000      0.000
  Name = 
  3 active torsions:
  status: ('A' for Active; 'I' for Inactive)
    1  A    between atoms: C_9  and  C_13
    2  A    between atoms: C_13  and  N_20
    3  A    between atoms: N_20  and  C_29
                            x       y       z     vdW  Elec       q    Type
                         _______ _______ _______ _____ _____    ______ ____

>  <TORSDO>
F 3

$$$$
=
 OpenBabel11042417273D

 29 34  0  0  1  0  0  0  0  0999 V2000
  186.1480  177.9410  145.3350 C   0  0  0  0  0  0  0  0  0  0  0  0
  186.1460  177.5510  144.0510 N   0  0  0  0  0  0  0  0  0  0  0  0
  186.9610  177.6200  140.5300 C   0  0  0  0  0  3  0  0  0  0  0  0
  186.0600  178.3150  142.8240 C   0  0  1  0  0  3  0  0  0  0  0  0
  183.5600  178.3990  142.9350 O   0  0  0  0  0  1  0  0  0  0  0  0
  185.7050  179.2850  147.2240 N   0  0  0  0  0  0  0  0  0  0  0  0
  187.7900  176.4440  145.1380 C   0  0  1  0  0  3  0  0  0  0  0  0
  187.4120  177.5840  147.3590 C   0  0  0  0  0  3  0  0  0  0  0  0
  187.0760  177.5880  141.9840 C   0  0  1  0  0  3  0  0  0  0  0  0
  184.6170  178.1150  140.8220 C   0  0  0  0  0  0  0  0  0  0  0  0
  183.3430  178.1600  140.1870 N   0  0  0  0  0  1  0  0  0  0  0  0
  187.7350  176.6680  142.6240 N   0  0  0  0  0  2  0  0  0  0  0  0
  184.7070  178.2430  142.1640 C   0  0  0  0  0  0  0  0  0  0  0  0
  187.1180  177.2620  146.0380 C   0  0  0  0  0  0  0  0  0  0  0  0
  187.1640  176.6970  143.9240 C   0  0  2  0  0  3  0  0  0  0  0  0
  186.6550  178.6130  147.9480 C   0  0  0  0  0  3  0  0  0  0  0  0
  185.7960  177.8910  140.0140 N   0  0  0  0  0  0  0  0  0  0  0  0
  185.4430  178.9890  145.9160 C   0  0  0  0  0  3  0  0  0  0  0  0
  189.1180  175.7970  145.3360 C   0  0  0  0  0  2  0  0  0  0  0  0
  190.1730  176.7870  145.1920 N   0  0  0  0  0  2  0  0  0  0  0  0
  194.5290  174.6010  145.3420 C   0  0  0  0  0  3  0  0  0  0  0  0
  193.3250  175.0750  145.0210 C   0  0  0  0  0  0  0  0  0  0  0  0
  193.6920  172.2950  145.1920 C   0  0  0  0  0  3  0  0  0  0  0  0
  191.1270  174.7350  144.4210 N   0  0  0  0  0  0  0  0  0  0  0  0
  192.4210  172.7990  144.8560 O   0  0  0  0  0  0  0  0  0  0  0  0
  192.2370  174.1810  144.7570 C   0  0  0  0  0  0  0  0  0  0  0  0
  194.7210  173.1300  145.4280 C   0  0  0  0  0  3  0  0  0  0  0  0
  192.8600  176.7770  144.8670 S   0  0  0  0  0  0  0  0  0  0  0  0
  191.1870  176.1980  144.3370 C   0  0  2  0  0  3  0  0  0  0  0  0
  1 18  2  0  0  0  0
  1 14  1  0  0  0  0
  2  1  1  0  0  0  0
  4 13  1  6  0  0  0
  4  2  1  0  0  0  0
  6 16  2  0  0  0  0
  7 19  1  6  0  0  0
  7 14  1  0  0  0  0
  8 16  1  0  0  0  0
  9  3  1  6  0  0  0
  9 12  1  0  0  0  0
  9  4  1  0  0  0  0
 10 13  2  0  0  0  0
 11 10  1  0  0  0  0
 13  5  1  0  0  0  0
 14  8  2  0  0  0  0
 15 12  1  6  0  0  0
 15  2  1  0  0  0  0
 15  7  1  0  0  0  0
 17  3  2  0  0  0  0
 17 10  1  0  0  0  0
 18  6  1  0  0  0  0
 20 19  1  0  0  0  0
 21 27  1  0  0  0  0
 22 21  2  0  0  0  0
 23 27  2  0  0  0  0
 24 26  2  0  0  0  0
 25 23  1  0  0  0  0
 26 25  1  0  0  0  0
 26 22  1  0  0  0  0
 28 22  1  0  0  0  0
 29 24  1  0  0  0  0
 29 28  1  0  0  0  0
 29 20  1  1  0  0  0
M  END
>  <MODEL>
2

>  <REMARK>
 VINA RESULT:      -8.1      1.201      1.386
  Name = 
  3 active torsions:
  status: ('A' for Active; 'I' for Inactive)
    1  A    between atoms: C_9  and  C_13
    2  A    between atoms: C_13  and  N_20
    3  A    between atoms: N_20  and  C_29
                            x       y       z     vdW  Elec       q    Type
                         _______ _______ _______ _____ _____    ______ ____

>  <TORSDO>
F 3

$$$$
=
 OpenBabel11042417273D

 29 34  0  0  1  0  0  0  0  0999 V2000
  186.0320  177.9750  145.3840 C   0  0  0  0  0  0  0  0  0  0  0  0
  185.9800  177.5740  144.1040 N   0  0  0  0  0  0  0  0  0  0  0  0
  186.7050  177.5780  140.5630 C   0  0  0  0  0  3  0  0  0  0  0  0
  185.8950  178.3310  142.8730 C   0  0  1  0  0  3  0  0  0  0  0  0
  183.4050  178.5230  143.0470 O   0  0  0  0  0  1  0  0  0  0  0  0
  185.6960  179.3540  147.2710 N   0  0  0  0  0  0  0  0  0  0  0  0
  187.6030  176.4080  145.1590 C   0  0  1  0  0  3  0  0  0  0  0  0
  187.3320  177.5810  147.3790 C   0  0  0  0  0  3  0  0  0  0  0  0
  186.8570  177.5540  142.0140 C   0  0  1  0  0  3  0  0  0  0  0  0
  184.3930  178.1760  140.9110 C   0  0  0  0  0  0  0  0  0  0  0  0
  183.1060  178.2700  140.3080 N   0  0  0  0  0  1  0  0  0  0  0  0
  187.4920  176.6120  142.6460 N   0  0  0  0  0  2  0  0  0  0  0  0
  184.5230  178.3110  142.2480 C   0  0  0  0  0  0  0  0  0  0  0  0
  186.9900  177.2610  146.0690 C   0  0  0  0  0  0  0  0  0  0  0  0
  186.9570  176.6760  143.9590 C   0  0  2  0  0  3  0  0  0  0  0  0
  186.6350  178.6470  147.9760 C   0  0  0  0  0  3  0  0  0  0  0  0
  185.5400  177.8950  140.0750 N   0  0  0  0  0  0  0  0  0  0  0  0
  185.3880  179.0580  145.9730 C   0  0  0  0  0  3  0  0  0  0  0  0
  188.9070  175.7050  145.3300 C   0  0  0  0  0  2  0  0  0  0  0  0
  189.9830  176.5400  144.8220 N   0  0  0  0  0  2  0  0  0  0  0  0
  190.4400  172.0620  142.9450 C   0  0  0  0  0  3  0  0  0  0  0  0
  190.5740  173.3390  143.3050 C   0  0  0  0  0  0  0  0  0  0  0  0
  190.2140  172.7210  140.5880 C   0  0  0  0  0  3  0  0  0  0  0  0
  190.7210  175.5740  142.7640 N   0  0  0  0  0  0  0  0  0  0  0  0
  190.3540  174.0680  140.9720 O   0  0  0  0  0  0  0  0  0  0  0  0
  190.5470  174.3800  142.3210 C   0  0  0  0  0  0  0  0  0  0  0  0
  190.2530  171.7380  141.5080 C   0  0  0  0  0  3  0  0  0  0  0  0
  190.7990  173.9620  144.9480 S   0  0  0  0  0  0  0  0  0  0  0  0
  190.9520  175.6490  144.2100 C   0  0  2  0  0  3  0  0  0  0  0  0
  1 18  2  0  0  0  0
  1 14  1  0  0  0  0
  2  1  1  0  0  0  0
  4 13  1  6  0  0  0
  4  2  1  0  0  0  0
  6 16  2  0  0  0  0
  7 19  1  6  0  0  0
  7 14  1  0  0  0  0
  8 16  1  0  0  0  0
  9  3  1  6  0  0  0
  9 12  1  0  0  0  0
  9  4  1  0  0  0  0
 10 13  2  0  0  0  0
 11 10  1  0  0  0  0
 13  5  1  0  0  0  0
 14  8  2  0  0  0  0
 15 12  1  6  0  0  0
 15  2  1  0  0  0  0
 15  7  1  0  0  0  0
 17  3  2  0  0  0  0
 17 10  1  0  0  0  0
 18  6  1  0  0  0  0
 20 19  1  0  0  0  0
 21 22  2  0  0  0  0
 22 28  1  0  0  0  0
 23 25  1  0  0  0  0
 23 27  2  0  0  0  0
 24 29  1  0  0  0  0
 25 26  1  0  0  0  0
 26 24  2  0  0  0  0
 26 22  1  0  0  0  0
 27 21  1  0  0  0  0
 29 20  1  1  0  0  0
 29 28  1  0  0  0  0
M  END
>  <MODEL>
3

>  <REMARK>
 VINA RESULT:      -7.8      2.277      2.598
  Name = 
  3 active torsions:
  status: ('A' for Active; 'I' for Inactive)
    1  A    between atoms: C_9  and  C_13
    2  A    between atoms: C_13  and  N_20
    3  A    between atoms: N_20  and  C_29
                            x       y       z     vdW  Elec       q    Type
                         _______ _______ _______ _____ _____    ______ ____

>  <TORSDO>
F 3

$$$$
=
 OpenBabel11042417273D

 29 34  0  0  1  0  0  0  0  0999 V2000
  191.5010  176.7310  145.1950 C   0  0  0  0  0  0  0  0  0  0  0  0
  192.3220  176.4640  144.1680 N   0  0  0  0  0  0  0  0  0  0  0  0
  194.2050  174.4610  141.8200 C   0  0  0  0  0  3  0  0  0  0  0  0
  193.3690  175.4750  144.0190 C   0  0  1  0  0  3  0  0  0  0  0  0
  195.0530  176.9420  145.1490 O   0  0  0  0  0  1  0  0  0  0  0  0
  190.7420  176.8560  147.4270 N   0  0  0  0  0  0  0  0  0  0  0  0
  190.2230  176.7090  143.3670 C   0  0  1  0  0  3  0  0  0  0  0  0
  189.1510  177.0760  145.6240 C   0  0  0  0  0  3  0  0  0  0  0  0
  193.1110  175.0230  142.6060 C   0  0  1  0  0  3  0  0  0  0  0  0
  195.7280  175.6290  143.2840 C   0  0  0  0  0  0  0  0  0  0  0  0
  197.0660  176.0860  143.4560 N   0  0  0  0  0  1  0  0  0  0  0  0
  192.0430  175.5350  142.0700 N   0  0  0  0  0  2  0  0  0  0  0  0
  194.7580  176.0490  144.1250 C   0  0  0  0  0  0  0  0  0  0  0  0
  190.2140  176.9190  144.7410 C   0  0  0  0  0  0  0  0  0  0  0  0
  191.5460  176.3970  143.0830 C   0  0  2  0  0  3  0  0  0  0  0  0
  189.4560  177.0600  146.9970 C   0  0  0  0  0  3  0  0  0  0  0  0
  195.4250  174.7480  142.1770 N   0  0  0  0  0  0  0  0  0  0  0  0
  191.7780  176.6680  146.5560 C   0  0  0  0  0  3  0  0  0  0  0  0
  189.0410  176.4520  142.4940 C   0  0  0  0  0  2  0  0  0  0  0  0
  188.5630  177.7060  141.9360 N   0  0  0  0  0  2  0  0  0  0  0  0
  185.2330  176.7400  145.3650 C   0  0  0  0  0  3  0  0  0  0  0  0
  185.9200  177.1750  144.3090 C   0  0  0  0  0  0  0  0  0  0  0  0
  185.0310  179.0380  146.2150 C   0  0  0  0  0  3  0  0  0  0  0  0
  186.8280  178.8950  143.0730 N   0  0  0  0  0  0  0  0  0  0  0  0
  185.7580  179.4930  145.0990 O   0  0  0  0  0  0  0  0  0  0  0  0
  186.1910  178.5720  144.1410 C   0  0  0  0  0  0  0  0  0  0  0  0
  184.7620  177.7270  146.3700 C   0  0  0  0  0  3  0  0  0  0  0  0
  186.5850  176.1910  142.9950 S   0  0  0  0  0  0  0  0  0  0  0  0
  187.1360  177.7620  142.1930 C   0  0  2  0  0  3  0  0  0  0  0  0
  1 18  1  0  0  0  0
  2  1  1  0  0  0  0
  3 17  2  0  0  0  0
  4 13  1  6  0  0  0
  4  2  1  0  0  0  0
  7 19  1  1  0  0  0
  7 14  1  0  0  0  0
  8 16  2  0  0  0  0
  9  3  1  6  0  0  0
  9  4  1  0  0  0  0
 10 11  1  0  0  0  0
 10 13  2  0  0  0  0
 12  9  1  0  0  0  0
 13  5  1  0  0  0  0
 14  1  2  0  0  0  0
 14  8  1  0  0  0  0
 15 12  1  1  0  0  0
 15  7  1  0  0  0  0
 15  2  1  0  0  0  0
 16  6  1  0  0  0  0
 17 10  1  0  0  0  0
 18  6  2  0  0  0  0
 20 19  1  0  0  0  0
 21 27  1  0  0  0  0
 22 21  2  0  0  0  0
 23 27  2  0  0  0  0
 24 26  2  0  0  0  0
 25 23  1  0  0  0  0
 26 22  1  0  0  0  0
 26 25  1  0  0  0  0
 28 22  1  0  0  0  0
 29 20  1  1  0  0  0
 29 28  1  0  0  0  0
 29 24  1  0  0  0  0
M  END
>  <MODEL>
4

>  <REMARK>
 VINA RESULT:      -7.8      2.481      7.921
  Name = 
  3 active torsions:
  status: ('A' for Active; 'I' for Inactive)
    1  A    between atoms: C_9  and  C_13
    2  A    between atoms: C_13  and  N_20
    3  A    between atoms: N_20  and  C_29
                            x       y       z     vdW  Elec       q    Type
                         _______ _______ _______ _____ _____    ______ ____

>  <TORSDO>
F 3

$$$$
=
 OpenBabel11042417273D

 29 34  0  0  1  0  0  0  0  0999 V2000
  188.2440  176.0650  143.3100 C   0  0  0  0  0  0  0  0  0  0  0  0
  187.8050  176.8510  144.3060 N   0  0  0  0  0  0  0  0  0  0  0  0
  186.4490  177.7070  147.5450 C   0  0  0  0  0  3  0  0  0  0  0  0
  186.6690  176.7160  145.1940 C   0  0  1  0  0  3  0  0  0  0  0  0
  185.1150  177.7470  143.5240 O   0  0  0  0  0  1  0  0  0  0  0  0
  188.1610  174.4860  141.5570 N   0  0  0  0  0  0  0  0  0  0  0  0
  190.0410  176.6040  144.5150 C   0  0  1  0  0  3  0  0  0  0  0  0
  190.2920  175.0410  142.5480 C   0  0  0  0  0  3  0  0  0  0  0  0
  187.2940  177.1500  146.4930 C   0  0  1  0  0  3  0  0  0  0  0  0
  184.8460  178.2660  145.8300 C   0  0  0  0  0  0  0  0  0  0  0  0
  183.6940  179.0410  145.5130 N   0  0  0  0  0  1  0  0  0  0  0  0
  188.5740  177.3640  146.4230 N   0  0  0  0  0  2  0  0  0  0  0  0
  185.5230  177.6320  144.8480 C   0  0  0  0  0  0  0  0  0  0  0  0
  189.6110  175.9180  143.3860 C   0  0  0  0  0  0  0  0  0  0  0  0
  188.8740  177.1270  145.0560 C   0  0  2  0  0  3  0  0  0  0  0  0
  189.5230  174.3360  141.6040 C   0  0  0  0  0  3  0  0  0  0  0  0
  185.2950  178.2050  147.2040 N   0  0  0  0  0  0  0  0  0  0  0  0
  187.4930  175.3230  142.4060 C   0  0  0  0  0  3  0  0  0  0  0  0
  191.3530  176.4530  145.2080 C   0  0  0  0  0  2  0  0  0  0  0  0
  192.4240  176.9000  144.3340 N   0  0  0  0  0  2  0  0  0  0  0  0
  195.9150  173.9850  146.0940 C   0  0  0  0  0  3  0  0  0  0  0  0
  195.1630  175.0020  145.6730 C   0  0  0  0  0  0  0  0  0  0  0  0
  197.5800  174.4560  144.3490 C   0  0  0  0  0  3  0  0  0  0  0  0
  194.8110  176.7900  144.2630 N   0  0  0  0  0  0  0  0  0  0  0  0
  196.7830  175.5280  143.9060 O   0  0  0  0  0  0  0  0  0  0  0  0
  195.5870  175.8120  144.5690 C   0  0  0  0  0  0  0  0  0  0  0  0
  197.1940  173.7000  145.3940 C   0  0  0  0  0  3  0  0  0  0  0  0
  193.6080  175.5230  146.3410 S   0  0  0  0  0  0  0  0  0  0  0  0
  193.6370  176.9190  145.1310 C   0  0  2  0  0  3  0  0  0  0  0  0
  1 14  1  0  0  0  0
  1  2  1  0  0  0  0
  2 15  1  0  0  0  0
  2  4  1  0  0  0  0
  4 13  1  6  0  0  0
  4  9  1  0  0  0  0
  5 13  1  0  0  0  0
  6 16  2  0  0  0  0
  6 18  1  0  0  0  0
  7 15  1  0  0  0  0
  7 19  1  1  0  0  0
  8 14  2  0  0  0  0
  9  3  1  6  0  0  0
 10 17  1  0  0  0  0
 11 10  1  0  0  0  0
 12  9  1  0  0  0  0
 13 10  2  0  0  0  0
 14  7  1  0  0  0  0
 15 12  1  1  0  0  0
 16  8  1  0  0  0  0
 17  3  2  0  0  0  0
 18  1  2  0  0  0  0
 20 19  1  0  0  0  0
 22 21  2  0  0  0  0
 22 28  1  0  0  0  0
 23 27  2  0  0  0  0
 24 26  2  0  0  0  0
 24 29  1  0  0  0  0
 25 23  1  0  0  0  0
 25 26  1  0  0  0  0
 26 22  1  0  0  0  0
 27 21  1  0  0  0  0
 29 20  1  6  0  0  0
 29 28  1  0  0  0  0
M  END
>  <MODEL>
5

>  <REMARK>
 VINA RESULT:      -7.7      2.293      4.227
  Name = 
  3 active torsions:
  status: ('A' for Active; 'I' for Inactive)
    1  A    between atoms: C_9  and  C_13
    2  A    between atoms: C_13  and  N_20
    3  A    between atoms: N_20  and  C_29
                            x       y       z     vdW  Elec       q    Type
                         _______ _______ _______ _____ _____    ______ ____

>  <TORSDO>
F 3

$$$$
=
 OpenBabel11042417273D

 29 34  0  0  1  0  0  0  0  0999 V2000
  187.7610  176.7560  144.6330 C   0  0  0  0  0  0  0  0  0  0  0  0
  187.0670  176.7400  143.4840 N   0  0  0  0  0  0  0  0  0  0  0  0
  186.0080  177.8070  140.1970 C   0  0  0  0  0  3  0  0  0  0  0  0
  186.4750  177.8150  142.7150 C   0  0  1  0  0  3  0  0  0  0  0  0
  184.4010  177.8090  144.1180 O   0  0  0  0  0  1  0  0  0  0  0  0
  188.4990  177.5100  146.7450 N   0  0  0  0  0  0  0  0  0  0  0  0
  188.8800  175.4110  143.2490 C   0  0  1  0  0  3  0  0  0  0  0  0
  189.8130  175.8760  145.5490 C   0  0  0  0  0  3  0  0  0  0  0  0
  186.8320  177.3730  141.3210 C   0  0  1  0  0  3  0  0  0  0  0  0
  184.2100  178.1490  141.7710 C   0  0  0  0  0  0  0  0  0  0  0  0
  182.8070  178.3420  141.9200 N   0  0  0  0  0  1  0  0  0  0  0  0
  187.6010  176.3270  141.2750 N   0  0  0  0  0  2  0  0  0  0  0  0
  184.9760  177.8990  142.8550 C   0  0  0  0  0  0  0  0  0  0  0  0
  188.8590  175.9300  144.5380 C   0  0  0  0  0  0  0  0  0  0  0  0
  187.7670  175.9780  142.6410 C   0  0  2  0  0  3  0  0  0  0  0  0
  189.5900  176.6840  146.6790 C   0  0  0  0  0  3  0  0  0  0  0  0
  184.7870  178.1860  140.4440 N   0  0  0  0  0  0  0  0  0  0  0  0
  187.5820  177.5850  145.7350 C   0  0  0  0  0  3  0  0  0  0  0  0
  190.0350  174.7630  142.5640 C   0  0  0  0  0  2  0  0  0  0  0  0
  190.2810  173.4560  143.1480 N   0  0  0  0  0  2  0  0  0  0  0  0
  194.3800  176.0130  143.8110 C   0  0  0  0  0  3  0  0  0  0  0  0
  193.4360  175.0770  143.7070 C   0  0  0  0  0  0  0  0  0  0  0  0
  194.6120  175.5550  146.2150 C   0  0  0  0  0  3  0  0  0  0  0  0
  192.1450  173.4150  144.6450 N   0  0  0  0  0  0  0  0  0  0  0  0
  193.6130  174.5690  146.1020 O   0  0  0  0  0  0  0  0  0  0  0  0
  193.0350  174.3180  144.8550 C   0  0  0  0  0  0  0  0  0  0  0  0
  195.0020  176.2610  145.1370 C   0  0  0  0  0  3  0  0  0  0  0  0
  192.5540  174.6140  142.2440 S   0  0  0  0  0  0  0  0  0  0  0  0
  191.7210  173.3040  143.2460 C   0  0  2  0  0  3  0  0  0  0  0  0
  1 18  1  0  0  0  0
  2  1  1  0  0  0  0
  3 17  2  0  0  0  0
  4 13  1  6  0  0  0
  4  2  1  0  0  0  0
  7 19  1  6  0  0  0
  7 14  1  0  0  0  0
  8 16  2  0  0  0  0
  9  3  1  6  0  0  0
  9  4  1  0  0  0  0
 10 11  1  0  0  0  0
 10 13  2  0  0  0  0
 12  9  1  0  0  0  0
 13  5  1  0  0  0  0
 14  1  2  0  0  0  0
 14  8  1  0  0  0  0
 15 12  1  6  0  0  0
 15  7  1  0  0  0  0
 15  2  1  0  0  0  0
 16  6  1  0  0  0  0
 17 10  1  0  0  0  0
 18  6  2  0  0  0  0
 19 20  1  0  0  0  0
 21 27  1  0  0  0  0
 22 21  2  0  0  0  0
 22 26  1  0  0  0  0
 24 26  2  0  0  0  0
 25 23  1  0  0  0  0
 26 25  1  0  0  0  0
 27 23  2  0  0  0  0
 28 29  1  0  0  0  0
 28 22  1  0  0  0  0
 29 20  1  1  0  0  0
 29 24  1  0  0  0  0
M  END
>  <MODEL>
6

>  <REMARK>
 VINA RESULT:      -7.5      1.933      2.452
  Name = 
  3 active torsions:
  status: ('A' for Active; 'I' for Inactive)
    1  A    between atoms: C_9  and  C_13
    2  A    between atoms: C_13  and  N_20
    3  A    between atoms: N_20  and  C_29
                            x       y       z     vdW  Elec       q    Type
                         _______ _______ _______ _____ _____    ______ ____

>  <TORSDO>
F 3

$$$$
=
 OpenBabel11042417273D

 29 34  0  0  1  0  0  0  0  0999 V2000
  192.4580  175.4450  144.5630 C   0  0  0  0  0  0  0  0  0  0  0  0
  191.4710  174.9740  143.7850 N   0  0  0  0  0  0  0  0  0  0  0  0
  189.1920  172.5530  142.3660 C   0  0  0  0  0  3  0  0  0  0  0  0
  191.3610  173.7430  143.0290 C   0  0  1  0  0  3  0  0  0  0  0  0
  192.6080  174.7090  141.0850 O   0  0  0  0  0  1  0  0  0  0  0  0
  194.6480  175.7590  145.3880 N   0  0  0  0  0  0  0  0  0  0  0  0
  190.5640  175.7680  145.6960 C   0  0  1  0  0  3  0  0  0  0  0  0
  192.7660  176.3980  146.7590 C   0  0  0  0  0  3  0  0  0  0  0  0
  189.9280  173.3820  143.3160 C   0  0  1  0  0  3  0  0  0  0  0  0
  190.7580  173.2710  140.6750 C   0  0  0  0  0  0  0  0  0  0  0  0
  191.0100  173.3560  139.2760 N   0  0  0  0  0  1  0  0  0  0  0  0
  189.3450  174.1600  144.1790 N   0  0  0  0  0  2  0  0  0  0  0  0
  191.5530  173.9290  141.5460 C   0  0  0  0  0  0  0  0  0  0  0  0
  191.9380  175.9690  145.7270 C   0  0  0  0  0  0  0  0  0  0  0  0
  190.3460  175.1180  144.4880 C   0  0  2  0  0  3  0  0  0  0  0  0
  194.1530  176.2970  146.5470 C   0  0  0  0  0  3  0  0  0  0  0  0
  189.6200  172.5050  141.1370 N   0  0  0  0  0  0  0  0  0  0  0  0
  193.8300  175.3060  144.3910 C   0  0  0  0  0  3  0  0  0  0  0  0
  189.6230  175.8370  146.8510 C   0  0  0  0  0  2  0  0  0  0  0  0
  188.8260  177.0490  146.7620 N   0  0  0  0  0  2  0  0  0  0  0  0
  184.3930  178.7970  145.7260 C   0  0  0  0  0  3  0  0  0  0  0  0
  185.4810  178.0530  145.9240 C   0  0  0  0  0  0  0  0  0  0  0  0
  184.4430  178.2820  143.3230 C   0  0  0  0  0  3  0  0  0  0  0  0
  187.1280  176.6510  145.1280 N   0  0  0  0  0  0  0  0  0  0  0  0
  185.5930  177.4990  143.5350 O   0  0  0  0  0  0  0  0  0  0  0  0
  186.1060  177.3710  144.8290 C   0  0  0  0  0  0  0  0  0  0  0  0
  183.8440  178.9140  144.3500 C   0  0  0  0  0  3  0  0  0  0  0  0
  186.3140  177.7740  147.4620 S   0  0  0  0  0  0  0  0  0  0  0  0
  187.4510  176.6320  146.5580 C   0  0  2  0  0  3  0  0  0  0  0  0
  1 14  1  0  0  0  0
  2 15  1  0  0  0  0
  2  1  1  0  0  0  0
  4 13  1  6  0  0  0
  4  9  1  0  0  0  0
  4  2  1  0  0  0  0
  5 13  1  0  0  0  0
  6 16  2  0  0  0  0
  7 14  1  0  0  0  0
  7 19  1  1  0  0  0
  9  3  1  6  0  0  0
  9 12  1  0  0  0  0
 10 17  1  0  0  0  0
 10 13  2  0  0  0  0
 11 10  1  0  0  0  0
 14  8  2  0  0  0  0
 15 12  1  1  0  0  0
 15  7  1  0  0  0  0
 16  8  1  0  0  0  0
 17  3  2  0  0  0  0
 18  1  2  0  0  0  0
 18  6  1  0  0  0  0
 20 19  1  0  0  0  0
 21 22  2  0  0  0  0
 22 28  1  0  0  0  0
 23 25  1  0  0  0  0
 23 27  2  0  0  0  0
 24 29  1  0  0  0  0
 25 26  1  0  0  0  0
 26 24  2  0  0  0  0
 26 22  1  0  0  0  0
 27 21  1  0  0  0  0
 29 20  1  6  0  0  0
 29 28  1  0  0  0  0
M  END
>  <MODEL>
7

>  <REMARK>
 VINA RESULT:      -7.5      2.990      7.474
  Name = 
  3 active torsions:
  status: ('A' for Active; 'I' for Inactive)
    1  A    between atoms: C_9  and  C_13
    2  A    between atoms: C_13  and  N_20
    3  A    between atoms: N_20  and  C_29
                            x       y       z     vdW  Elec       q    Type
                         _______ _______ _______ _____ _____    ______ ____

>  <TORSDO>
F 3

$$$$
=
 OpenBabel11042417273D

 29 34  0  0  1  0  0  0  0  0999 V2000
  189.9590  173.6840  141.2240 C   0  0  0  0  0  0  0  0  0  0  0  0
  190.4130  174.2930  142.3310 N   0  0  0  0  0  0  0  0  0  0  0  0
  192.3830  176.5680  144.3320 C   0  0  0  0  0  3  0  0  0  0  0  0
  191.7520  174.6770  142.7250 C   0  0  1  0  0  3  0  0  0  0  0  0
  192.2510  172.3930  143.6210 O   0  0  0  0  0  1  0  0  0  0  0  0
  189.9840  172.3110  139.3040 N   0  0  0  0  0  0  0  0  0  0  0  0
  188.5780  175.3930  141.6050 C   0  0  1  0  0  3  0  0  0  0  0  0
  188.2320  173.9530  139.5600 C   0  0  0  0  0  3  0  0  0  0  0  0
  191.4760  176.0310  143.3230 C   0  0  1  0  0  3  0  0  0  0  0  0
  193.0660  174.2980  144.7890 C   0  0  0  0  0  0  0  0  0  0  0  0
  193.7300  173.4400  145.7110 N   0  0  0  0  0  1  0  0  0  0  0  0
  190.2480  176.4330  143.1860 N   0  0  0  0  0  2  0  0  0  0  0  0
  192.3550  173.7720  143.7680 C   0  0  0  0  0  0  0  0  0  0  0  0
  188.8190  174.3100  140.7690 C   0  0  0  0  0  0  0  0  0  0  0  0
  189.6170  175.3470  142.5250 C   0  0  2  0  0  3  0  0  0  0  0  0
  188.8410  172.9080  138.8400 C   0  0  0  0  0  3  0  0  0  0  0  0
  193.1330  175.7300  144.9900 N   0  0  0  0  0  0  0  0  0  0  0  0
  190.5770  172.6880  140.4760 C   0  0  0  0  0  3  0  0  0  0  0  0
  187.6890  176.5580  141.3250 C   0  0  0  0  0  2  0  0  0  0  0  0
  186.4970  176.4740  142.1530 N   0  0  0  0  0  2  0  0  0  0  0  0
  184.2120  178.5420  145.9320 C   0  0  0  0  0  3  0  0  0  0  0  0
  185.0360  178.2050  144.9400 C   0  0  0  0  0  0  0  0  0  0  0  0
  185.9970  178.1640  147.5800 C   0  0  0  0  0  3  0  0  0  0  0  0
  187.1180  177.5650  144.1870 N   0  0  0  0  0  0  0  0  0  0  0  0
  186.8640  177.8070  146.5300 O   0  0  0  0  0  0  0  0  0  0  0  0
  186.3940  177.8380  145.2140 C   0  0  0  0  0  0  0  0  0  0  0  0
  184.7240  178.5230  147.3270 C   0  0  0  0  0  3  0  0  0  0  0  0
  184.6520  178.1470  143.2120 S   0  0  0  0  0  0  0  0  0  0  0  0
  186.4210  177.7130  142.9050 C   0  0  2  0  0  3  0  0  0  0  0  0
  1  2  1  0  0  0  0
  2 15  1  0  0  0  0
  2  4  1  0  0  0  0
  3 17  2  0  0  0  0
  4  9  1  0  0  0  0
  4 13  1  1  0  0  0
  5 13  1  0  0  0  0
  6 18  1  0  0  0  0
  7 19  1  6  0  0  0
  7 15  1  0  0  0  0
  8 14  2  0  0  0  0
  9  3  1  1  0  0  0
 10 17  1  0  0  0  0
 10 11  1  0  0  0  0
 12  9  1  0  0  0  0
 13 10  2  0  0  0  0
 14  1  1  0  0  0  0
 14  7  1  0  0  0  0
 15 12  1  6  0  0  0
 16  6  2  0  0  0  0
 16  8  1  0  0  0  0
 18  1  2  0  0  0  0
 19 20  1  0  0  0  0
 21 27  1  0  0  0  0
 22 26  1  0  0  0  0
 22 21  2  0  0  0  0
 24 26  2  0  0  0  0
 25 23  1  0  0  0  0
 26 25  1  0  0  0  0
 27 23  2  0  0  0  0
 28 22  1  0  0  0  0
 29 20  1  1  0  0  0
 29 28  1  0  0  0  0
 29 24  1  0  0  0  0
M  END
>  <MODEL>
8

>  <REMARK>
 VINA RESULT:      -7.4      3.438      8.242
  Name = 
  3 active torsions:
  status: ('A' for Active; 'I' for Inactive)
    1  A    between atoms: C_9  and  C_13
    2  A    between atoms: C_13  and  N_20
    3  A    between atoms: N_20  and  C_29
                            x       y       z     vdW  Elec       q    Type
                         _______ _______ _______ _____ _____    ______ ____

>  <TORSDO>
F 3

$$$$
=
 OpenBabel11042417273D

 29 34  0  0  1  0  0  0  0  0999 V2000
  191.4690  174.2830  143.0000 C   0  0  0  0  0  0  0  0  0  0  0  0
  192.4290  174.7750  143.7990 N   0  0  0  0  0  0  0  0  0  0  0  0
  194.4130  177.2690  145.5060 C   0  0  0  0  0  3  0  0  0  0  0  0
  193.3180  175.9060  143.6340 C   0  0  1  0  0  3  0  0  0  0  0  0
  194.9460  174.5560  142.2940 O   0  0  0  0  0  1  0  0  0  0  0  0
  190.3040  173.8010  141.0040 N   0  0  0  0  0  0  0  0  0  0  0  0
  190.5980  174.3460  145.0520 C   0  0  1  0  0  3  0  0  0  0  0  0
  189.1630  173.5800  143.1200 C   0  0  0  0  0  3  0  0  0  0  0  0
  193.2830  176.4780  145.0260 C   0  0  1  0  0  3  0  0  0  0  0  0
  195.7720  176.1540  143.8520 C   0  0  0  0  0  0  0  0  0  0  0  0
  197.1020  175.8630  143.4330 N   0  0  0  0  0  1  0  0  0  0  0  0
  192.4380  175.8940  145.8210 N   0  0  0  0  0  2  0  0  0  0  0  0
  194.7290  175.5140  143.2790 C   0  0  0  0  0  0  0  0  0  0  0  0
  190.3450  173.9790  143.7360 C   0  0  0  0  0  0  0  0  0  0  0  0
  191.8860  174.8620  145.0160 C   0  0  2  0  0  3  0  0  0  0  0  0
  189.1790  173.4780  141.7170 C   0  0  0  0  0  3  0  0  0  0  0  0
  195.5650  177.1090  144.9190 N   0  0  0  0  0  0  0  0  0  0  0  0
  191.4520  174.2260  141.6110 C   0  0  0  0  0  3  0  0  0  0  0  0
  189.5910  174.5410  146.1360 C   0  0  0  0  0  2  0  0  0  0  0  0
  189.2440  175.9490  146.2340 N   0  0  0  0  0  2  0  0  0  0  0  0
  185.7010  179.2240  145.5240 C   0  0  0  0  0  3  0  0  0  0  0  0
  186.4780  178.1410  145.5730 C   0  0  0  0  0  0  0  0  0  0  0  0
  185.8070  179.2230  143.0680 C   0  0  0  0  0  3  0  0  0  0  0  0
  187.6640  176.4710  144.5180 N   0  0  0  0  0  0  0  0  0  0  0  0
  186.6270  178.0810  143.1240 O   0  0  0  0  0  0  0  0  0  0  0  0
  186.9530  177.5310  144.3660 C   0  0  0  0  0  0  0  0  0  0  0  0
  185.3460  179.7920  144.1990 C   0  0  0  0  0  3  0  0  0  0  0  0
  187.0350  177.2970  147.0260 S   0  0  0  0  0  0  0  0  0  0  0  0
  187.8330  176.0560  145.9140 C   0  0  2  0  0  3  0  0  0  0  0  0
  1 14  1  0  0  0  0
  1  2  1  0  0  0  0
  2 15  1  0  0  0  0
  4 13  1  1  0  0  0
  4  2  1  0  0  0  0
  4  9  1  0  0  0  0
  5 13  1  0  0  0  0
  6 18  1  0  0  0  0
  6 16  2  0  0  0  0
  7 19  1  6  0  0  0
  8 14  2  0  0  0  0
  9  3  1  1  0  0  0
  9 12  1  0  0  0  0
 10 17  1  0  0  0  0
 11 10  1  0  0  0  0
 13 10  2  0  0  0  0
 14  7  1  0  0  0  0
 15  7  1  0  0  0  0
 15 12  1  6  0  0  0
 16  8  1  0  0  0  0
 17  3  2  0  0  0  0
 18  1  2  0  0  0  0
 19 20  1  0  0  0  0
 21 22  2  0  0  0  0
 22 28  1  0  0  0  0
 23 25  1  0  0  0  0
 23 27  2  0  0  0  0
 24 29  1  0  0  0  0
 25 26  1  0  0  0  0
 26 24  2  0  0  0  0
 26 22  1  0  0  0  0
 27 21  1  0  0  0  0
 29 20  1  1  0  0  0
 29 28  1  0  0  0  0
M  END
>  <MODEL>
9

>  <REMARK>
 VINA RESULT:      -7.4      2.712      8.352
  Name = 
  3 active torsions:
  status: ('A' for Active; 'I' for Inactive)
    1  A    between atoms: C_9  and  C_13
    2  A    between atoms: C_13  and  N_20
    3  A    between atoms: N_20  and  C_29
                            x       y       z     vdW  Elec       q    Type
                         _______ _______ _______ _____ _____    ______ ____

>  <TORSDO>
F 3

$$$$
