=
 OpenBabel11042416293D

 29 30  0  0  1  0  0  0  0  0999 V2000
  191.2770  178.7290  143.4990 C   0  0  0  0  0  1  0  0  0  0  0  0
  190.5810  177.4070  143.7780 C   0  0  2  0  0  3  0  0  0  0  0  0
  184.3750  178.3920  145.6060 Cl  0  0  0  0  0  0  0  0  0  0  0  0
  184.1590  178.2680  142.5340 C   0  0  0  0  0  3  0  0  0  0  0  0
  187.7830  177.6960  142.7070 N   0  0  0  0  0  0  0  0  0  0  0  0
  189.3510  177.5410  144.5620 N   0  0  0  0  0  2  0  0  0  0  0  0
  185.4420  178.0920  143.0690 C   0  0  0  0  0  0  0  0  0  0  0  0
  183.9640  178.2280  141.1510 C   0  0  0  0  0  0  0  0  0  0  0  0
  185.0490  178.0160  140.2940 C   0  0  0  0  0  3  0  0  0  0  0  0
  185.6750  178.1190  144.4530 C   0  0  0  0  0  0  0  0  0  0  0  0
  186.3320  177.8380  140.8180 C   0  0  0  0  0  3  0  0  0  0  0  0
  186.9710  177.9330  144.9390 C   0  0  0  0  0  3  0  0  0  0  0  0
  186.5350  177.8750  142.1990 C   0  0  0  0  0  0  0  0  0  0  0  0
  188.0240  177.7190  144.0470 C   0  0  0  0  0  0  0  0  0  0  0  0
  182.6920  178.4020  140.6270 O   0  0  0  0  0  1  0  0  0  0  0  0
  191.5200  176.2940  144.2730 C   0  0  0  0  0  2  0  0  0  0  0  0
  192.0890  176.4280  145.6930 C   0  0  1  0  0  3  0  0  0  0  0  0
  191.8260  175.2080  146.5670 C   0  0  0  0  0  2  0  0  0  0  0  0
  190.4370  176.8470  147.6430 O   0  0  0  0  0  1  0  0  0  0  0  0
  190.7320  175.4830  147.5970 C   0  0  1  0  0  3  0  0  0  0  0  0
  188.2180  175.5650  147.2610 C   0  0  0  0  0  1  0  0  0  0  0  0
  189.5890  173.8890  146.0280 C   0  0  0  0  0  1  0  0  0  0  0  0
  189.4590  174.6860  147.3120 C   0  0  0  0  0  3  0  0  0  0  0  0
  193.4540  176.7180  145.6580 O   0  0  0  0  0  0  0  0  0  0  0  0
  193.9150  176.1640  144.4610 C   0  0  0  0  0  2  0  0  0  0  0  0
  195.4340  176.2140  144.4160 C   0  0  0  0  0  2  0  0  0  0  0  0
  196.0280  174.8130  144.3890 C   0  0  0  0  0  2  0  0  0  0  0  0
  197.2380  173.7330  146.1270 O   0  0  0  0  0  1  0  0  0  0  0  0
  195.9710  174.1870  145.7690 C   0  0  0  0  0  2  0  0  0  0  0  0
  2  1  1  1  0  0  0
  2 16  1  0  0  0  0
  2  6  1  0  0  0  0
  4  7  1  0  0  0  0
  5 14  2  0  0  0  0
  7 10  1  0  0  0  0
  8  4  2  0  0  0  0
  9 11  2  0  0  0  0
  9  8  1  0  0  0  0
 10 12  2  0  0  0  0
 10  3  1  0  0  0  0
 11 13  1  0  0  0  0
 13  5  1  0  0  0  0
 13  7  2  0  0  0  0
 14  6  1  0  0  0  0
 14 12  1  0  0  0  0
 15  8  1  0  0  0  0
 17 16  1  6  0  0  0
 17 18  1  0  0  0  0
 18 20  1  0  0  0  0
 20 19  1  6  0  0  0
 21 23  1  0  0  0  0
 22 23  1  0  0  0  0
 23 20  1  0  0  0  0
 24 17  1  0  0  0  0
 25 24  1  0  0  0  0
 26 25  1  0  0  0  0
 27 26  1  0  0  0  0
 27 29  1  0  0  0  0
 29 28  1  0  0  0  0
M  END
>  <MODEL>
1

>  <REMARK>
 VINA RESULT:      -6.5      0.000      0.000
  Name = 
  11 active torsions:
  status: ('A' for Active; 'I' for Inactive)
    1  A    between atoms: C_1  and  C_5
    2  A    between atoms: C_1  and  O_23
    3  A    between atoms: C_5  and  C_17
    4  A    between atoms: C_6  and  C_20
    5  A    between atoms: C_6  and  C_25
    6  A    between atoms: N_9  and  C_19
    7  A    between atoms: C_17  and  C_29
    8  A    between atoms: C_19  and  C_24
    9  A    between atoms: C_20  and  C_21
   10  A    between atoms: C_21  and  O_23
   11  A    between atoms: C_21  and  C_24
                            x       y       z     vdW  Elec       q    Type
                         _______ _______ _______ _____ _____    ______ ____

>  <TORSDO>
F 11

$$$$
=
 OpenBabel11042416293D

 29 30  0  0  1  0  0  0  0  0999 V2000
  190.3290  173.4050  141.8160 C   0  0  0  0  0  1  0  0  0  0  0  0
  190.1710  174.8420  142.2880 C   0  0  2  0  0  3  0  0  0  0  0  0
  184.6890  178.1360  140.8990 Cl  0  0  0  0  0  0  0  0  0  0  0  0
  184.6960  178.1120  143.9810 C   0  0  0  0  0  3  0  0  0  0  0  0
  187.8560  176.2890  143.5560 N   0  0  0  0  0  0  0  0  0  0  0  0
  189.1100  175.5770  141.5950 N   0  0  0  0  0  2  0  0  0  0  0  0
  185.7830  177.4860  143.3580 C   0  0  0  0  0  0  0  0  0  0  0  0
  184.6130  178.1500  145.3750 C   0  0  0  0  0  0  0  0  0  0  0  0
  185.6140  177.5600  146.1550 C   0  0  0  0  0  3  0  0  0  0  0  0
  185.9030  177.4330  141.9590 C   0  0  0  0  0  0  0  0  0  0  0  0
  186.7030  176.9340  145.5430 C   0  0  0  0  0  3  0  0  0  0  0  0
  187.0090  176.8030  141.3850 C   0  0  0  0  0  3  0  0  0  0  0  0
  186.7930  176.8930  144.1500 C   0  0  0  0  0  0  0  0  0  0  0  0
  187.9870  176.2310  142.2020 C   0  0  0  0  0  0  0  0  0  0  0  0
  183.5360  178.7720  145.9870 O   0  0  0  0  0  1  0  0  0  0  0  0
  191.4940  175.6160  142.4050 C   0  0  0  0  0  2  0  0  0  0  0  0
  192.0780  175.8120  143.8110 C   0  0  1  0  0  3  0  0  0  0  0  0
  191.0540  176.3020  144.8280 C   0  0  0  0  0  2  0  0  0  0  0  0
  191.1120  176.0470  147.2160 O   0  0  0  0  0  1  0  0  0  0  0  0
  190.9460  175.3500  146.0170 C   0  0  1  0  0  3  0  0  0  0  0  0
  189.7430  173.1740  145.5130 C   0  0  0  0  0  1  0  0  0  0  0  0
  189.0090  174.5910  147.4260 C   0  0  0  0  0  1  0  0  0  0  0  0
  189.6160  174.5960  146.0350 C   0  0  0  0  0  3  0  0  0  0  0  0
  192.6920  174.6430  144.2640 O   0  0  0  0  0  0  0  0  0  0  0  0
  193.9840  174.6800  143.7340 C   0  0  0  0  0  2  0  0  0  0  0  0
  194.9720  175.1230  144.8020 C   0  0  0  0  0  2  0  0  0  0  0  0
  195.3370  176.5910  144.6350 C   0  0  0  0  0  2  0  0  0  0  0  0
  194.2770  176.5770  146.7630 O   0  0  0  0  0  1  0  0  0  0  0  0
  194.7210  177.4190  145.7460 C   0  0  0  0  0  2  0  0  0  0  0  0
  2  1  1  6  0  0  0
  2 16  1  0  0  0  0
  3 10  1  0  0  0  0
  4  8  1  0  0  0  0
  5 13  1  0  0  0  0
  6 14  1  0  0  0  0
  6  2  1  0  0  0  0
  7  4  2  0  0  0  0
  7 13  1  0  0  0  0
  8 15  1  0  0  0  0
  8  9  2  0  0  0  0
 10  7  1  0  0  0  0
 11  9  1  0  0  0  0
 12 10  2  0  0  0  0
 12 14  1  0  0  0  0
 13 11  2  0  0  0  0
 14  5  2  0  0  0  0
 17 16  1  6  0  0  0
 17 24  1  0  0  0  0
 17 18  1  0  0  0  0
 18 20  1  0  0  0  0
 20 23  1  0  0  0  0
 20 19  1  1  0  0  0
 21 23  1  0  0  0  0
 23 22  1  0  0  0  0
 25 24  1  0  0  0  0
 25 26  1  0  0  0  0
 27 26  1  0  0  0  0
 27 29  1  0  0  0  0
 29 28  1  0  0  0  0
M  END
>  <MODEL>
2

>  <REMARK>
 VINA RESULT:      -6.4      2.110      3.190
  Name = 
  11 active torsions:
  status: ('A' for Active; 'I' for Inactive)
    1  A    between atoms: C_1  and  C_5
    2  A    between atoms: C_1  and  O_23
    3  A    between atoms: C_5  and  C_17
    4  A    between atoms: C_6  and  C_20
    5  A    between atoms: C_6  and  C_25
    6  A    between atoms: N_9  and  C_19
    7  A    between atoms: C_17  and  C_29
    8  A    between atoms: C_19  and  C_24
    9  A    between atoms: C_20  and  C_21
   10  A    between atoms: C_21  and  O_23
   11  A    between atoms: C_21  and  C_24
                            x       y       z     vdW  Elec       q    Type
                         _______ _______ _______ _____ _____    ______ ____

>  <TORSDO>
F 11

$$$$
=
 OpenBabel11042416293D

 29 30  0  0  1  0  0  0  0  0999 V2000
  191.2140  178.6110  143.8470 C   0  0  0  0  0  1  0  0  0  0  0  0
  190.3270  177.3770  143.8330 C   0  0  2  0  0  3  0  0  0  0  0  0
  184.1480  178.4200  145.7210 Cl  0  0  0  0  0  0  0  0  0  0  0  0
  183.9040  178.3170  142.6500 C   0  0  0  0  0  3  0  0  0  0  0  0
  187.5230  177.7040  142.7880 N   0  0  0  0  0  0  0  0  0  0  0  0
  189.1050  177.5200  144.6290 N   0  0  0  0  0  2  0  0  0  0  0  0
  185.1900  178.1230  143.1730 C   0  0  0  0  0  0  0  0  0  0  0  0
  183.6970  178.2880  141.2690 C   0  0  0  0  0  0  0  0  0  0  0  0
  184.7720  178.0690  140.4010 C   0  0  0  0  0  3  0  0  0  0  0  0
  185.4350  178.1400  144.5560 C   0  0  0  0  0  0  0  0  0  0  0  0
  186.0580  177.8730  140.9130 C   0  0  0  0  0  3  0  0  0  0  0  0
  186.7330  177.9360  145.0280 C   0  0  0  0  0  3  0  0  0  0  0  0
  186.2730  177.9000  142.2920 C   0  0  0  0  0  0  0  0  0  0  0  0
  187.7760  177.7170  144.1260 C   0  0  0  0  0  0  0  0  0  0  0  0
  182.4230  178.4790  140.7570 O   0  0  0  0  0  1  0  0  0  0  0  0
  191.0790  176.0580  144.0750 C   0  0  0  0  0  2  0  0  0  0  0  0
  190.6660  175.2210  145.2940 C   0  0  1  0  0  3  0  0  0  0  0  0
  189.9530  173.9260  144.9240 C   0  0  0  0  0  2  0  0  0  0  0  0
  191.2020  172.3940  143.5580 O   0  0  0  0  0  1  0  0  0  0  0  0
  190.3140  173.4710  143.5110 C   0  0  1  0  0  3  0  0  0  0  0  0
  188.2600  174.3040  142.2780 C   0  0  0  0  0  1  0  0  0  0  0  0
  189.4630  172.2760  141.4730 C   0  0  0  0  0  1  0  0  0  0  0  0
  189.0800  173.0920  142.6930 C   0  0  0  0  0  3  0  0  0  0  0  0
  191.7650  174.9550  146.1120 O   0  0  0  0  0  0  0  0  0  0  0  0
  191.7200  175.9300  147.1110 C   0  0  0  0  0  2  0  0  0  0  0  0
  193.0480  176.6700  147.1760 C   0  0  0  0  0  2  0  0  0  0  0  0
  194.1190  175.9430  146.3770 C   0  0  0  0  0  2  0  0  0  0  0  0
  194.8100  176.0910  144.1060 O   0  0  0  0  0  1  0  0  0  0  0  0
  194.6530  176.8360  145.2730 C   0  0  0  0  0  2  0  0  0  0  0  0
  2  1  1  1  0  0  0
  2 16  1  0  0  0  0
  2  6  1  0  0  0  0
  4  7  1  0  0  0  0
  5 14  2  0  0  0  0
  7 10  1  0  0  0  0
  8  4  2  0  0  0  0
  9 11  2  0  0  0  0
  9  8  1  0  0  0  0
 10 12  2  0  0  0  0
 10  3  1  0  0  0  0
 11 13  1  0  0  0  0
 13  5  1  0  0  0  0
 13  7  2  0  0  0  0
 14  6  1  0  0  0  0
 14 12  1  0  0  0  0
 15  8  1  0  0  0  0
 17 16  1  6  0  0  0
 17 24  1  0  0  0  0
 18 17  1  0  0  0  0
 20 19  1  1  0  0  0
 20 18  1  0  0  0  0
 21 23  1  0  0  0  0
 22 23  1  0  0  0  0
 23 20  1  0  0  0  0
 24 25  1  0  0  0  0
 25 26  1  0  0  0  0
 27 26  1  0  0  0  0
 28 29  1  0  0  0  0
 29 27  1  0  0  0  0
M  END
>  <MODEL>
3

>  <REMARK>
 VINA RESULT:      -6.3      1.960      2.690
  Name = 
  11 active torsions:
  status: ('A' for Active; 'I' for Inactive)
    1  A    between atoms: C_1  and  C_5
    2  A    between atoms: C_1  and  O_23
    3  A    between atoms: C_5  and  C_17
    4  A    between atoms: C_6  and  C_20
    5  A    between atoms: C_6  and  C_25
    6  A    between atoms: N_9  and  C_19
    7  A    between atoms: C_17  and  C_29
    8  A    between atoms: C_19  and  C_24
    9  A    between atoms: C_20  and  C_21
   10  A    between atoms: C_21  and  O_23
   11  A    between atoms: C_21  and  C_24
                            x       y       z     vdW  Elec       q    Type
                         _______ _______ _______ _____ _____    ______ ____

>  <TORSDO>
F 11

$$$$
=
 OpenBabel11042416293D

 29 30  0  0  1  0  0  0  0  0999 V2000
  191.0360  175.4430  147.7040 C   0  0  0  0  0  1  0  0  0  0  0  0
  190.0210  175.4410  146.5720 C   0  0  2  0  0  3  0  0  0  0  0  0
  184.0120  178.0320  146.5850 Cl  0  0  0  0  0  0  0  0  0  0  0  0
  184.6950  177.9340  143.5810 C   0  0  0  0  0  3  0  0  0  0  0  0
  187.8360  176.4380  144.7580 N   0  0  0  0  0  0  0  0  0  0  0  0
  188.6890  175.9000  146.9730 N   0  0  0  0  0  2  0  0  0  0  0  0
  185.6730  177.4350  144.4520 C   0  0  0  0  0  0  0  0  0  0  0  0
  184.9170  177.9310  142.2020 C   0  0  0  0  0  0  0  0  0  0  0  0
  186.1170  177.4340  141.6840 C   0  0  0  0  0  3  0  0  0  0  0  0
  185.4830  177.4170  145.8430 C   0  0  0  0  0  0  0  0  0  0  0  0
  187.0980  176.9330  142.5440 C   0  0  0  0  0  3  0  0  0  0  0  0
  186.4850  176.9040  146.6690 C   0  0  0  0  0  3  0  0  0  0  0  0
  186.8830  176.9310  143.9240 C   0  0  0  0  0  0  0  0  0  0  0  0
  187.6660  176.4130  146.1090 C   0  0  0  0  0  0  0  0  0  0  0  0
  183.9450  178.4250  141.3440 O   0  0  0  0  0  1  0  0  0  0  0  0
  190.0120  174.1490  145.7370 C   0  0  0  0  0  2  0  0  0  0  0  0
  191.0060  174.0550  144.5710 C   0  0  1  0  0  3  0  0  0  0  0  0
  192.4060  173.6370  145.0020 C   0  0  0  0  0  2  0  0  0  0  0  0
  192.7870  175.9090  144.3200 O   0  0  0  0  0  1  0  0  0  0  0  0
  193.4290  174.7370  144.7250 C   0  0  1  0  0  3  0  0  0  0  0  0
  195.7270  174.4900  145.7720 C   0  0  0  0  0  1  0  0  0  0  0  0
  194.3460  176.5070  146.2550 C   0  0  0  0  0  1  0  0  0  0  0  0
  194.3120  175.0230  145.9400 C   0  0  0  0  0  3  0  0  0  0  0  0
  190.5270  173.2010  143.5750 O   0  0  0  0  0  0  0  0  0  0  0  0
  189.3170  173.7630  143.1630 C   0  0  0  0  0  2  0  0  0  0  0  0
  188.9190  173.2020  141.8060 C   0  0  0  0  0  2  0  0  0  0  0  0
  188.8560  174.3020  140.7560 C   0  0  0  0  0  2  0  0  0  0  0  0
  188.0770  172.5090  139.4020 O   0  0  0  0  0  1  0  0  0  0  0  0
  188.7970  173.7010  139.3650 C   0  0  0  0  0  2  0  0  0  0  0  0
  2  6  1  0  0  0  0
  2  1  1  1  0  0  0
  4  7  1  0  0  0  0
  5 14  2  0  0  0  0
  7 10  1  0  0  0  0
  8  4  2  0  0  0  0
  9  8  1  0  0  0  0
  9 11  2  0  0  0  0
 10  3  1  0  0  0  0
 10 12  2  0  0  0  0
 11 13  1  0  0  0  0
 13  7  2  0  0  0  0
 13  5  1  0  0  0  0
 14 12  1  0  0  0  0
 14  6  1  0  0  0  0
 15  8  1  0  0  0  0
 16  2  1  0  0  0  0
 17 18  1  1  0  0  0
 17 16  1  0  0  0  0
 20 19  1  1  0  0  0
 20 18  1  0  0  0  0
 20 23  1  0  0  0  0
 21 23  1  0  0  0  0
 23 22  1  0  0  0  0
 24 17  1  0  0  0  0
 25 24  1  0  0  0  0
 26 25  1  0  0  0  0
 27 26  1  0  0  0  0
 29 28  1  0  0  0  0
 29 27  1  0  0  0  0
M  END
>  <MODEL>
4

>  <REMARK>
 VINA RESULT:      -6.3      2.731      4.772
  Name = 
  11 active torsions:
  status: ('A' for Active; 'I' for Inactive)
    1  A    between atoms: C_1  and  C_5
    2  A    between atoms: C_1  and  O_23
    3  A    between atoms: C_5  and  C_17
    4  A    between atoms: C_6  and  C_20
    5  A    between atoms: C_6  and  C_25
    6  A    between atoms: N_9  and  C_19
    7  A    between atoms: C_17  and  C_29
    8  A    between atoms: C_19  and  C_24
    9  A    between atoms: C_20  and  C_21
   10  A    between atoms: C_21  and  O_23
   11  A    between atoms: C_21  and  C_24
                            x       y       z     vdW  Elec       q    Type
                         _______ _______ _______ _____ _____    ______ ____

>  <TORSDO>
F 11

$$$$
=
 OpenBabel11042416293D

 29 30  0  0  1  0  0  0  0  0999 V2000
  186.0750  177.2240  148.0950 C   0  0  0  0  0  1  0  0  0  0  0  0
  186.8990  176.7850  146.8950 C   0  0  2  0  0  3  0  0  0  0  0  0
  193.4390  176.6020  146.7800 Cl  0  0  0  0  0  0  0  0  0  0  0  0
  192.6690  173.9780  145.3580 C   0  0  0  0  0  3  0  0  0  0  0  0
  189.2360  175.1480  145.9350 N   0  0  0  0  0  0  0  0  0  0  0  0
  188.3170  177.1390  146.9910 N   0  0  0  0  0  2  0  0  0  0  0  0
  191.6050  174.7870  145.7790 C   0  0  0  0  0  0  0  0  0  0  0  0
  192.4160  172.7690  144.7060 C   0  0  0  0  0  0  0  0  0  0  0  0
  191.0990  172.3590  144.4720 C   0  0  0  0  0  3  0  0  0  0  0  0
  191.8200  176.0110  146.4330 C   0  0  0  0  0  0  0  0  0  0  0  0
  190.0310  173.1580  144.8860 C   0  0  0  0  0  3  0  0  0  0  0  0
  190.7270  176.7840  146.8270 C   0  0  0  0  0  3  0  0  0  0  0  0
  190.2760  174.3690  145.5380 C   0  0  0  0  0  0  0  0  0  0  0  0
  189.4290  176.3380  146.5690 C   0  0  0  0  0  0  0  0  0  0  0  0
  193.4730  171.9730  144.2910 O   0  0  0  0  0  1  0  0  0  0  0  0
  186.2610  177.1220  145.5370 C   0  0  0  0  0  2  0  0  0  0  0  0
  186.8500  178.3030  144.7520 C   0  0  1  0  0  3  0  0  0  0  0  0
  187.6380  177.8760  143.5200 C   0  0  0  0  0  2  0  0  0  0  0  0
  186.3450  176.2760  142.2800 O   0  0  0  0  0  1  0  0  0  0  0  0
  187.4010  176.4050  143.1850 C   0  0  1  0  0  3  0  0  0  0  0  0
  188.4280  175.1450  141.2370 C   0  0  0  0  0  1  0  0  0  0  0  0
  189.8260  176.6930  142.5990 C   0  0  0  0  0  1  0  0  0  0  0  0
  188.6520  175.7320  142.6220 C   0  0  0  0  0  3  0  0  0  0  0  0
  185.8530  179.2150  144.4010 O   0  0  0  0  0  0  0  0  0  0  0  0
  184.6490  178.5770  144.7050 C   0  0  0  0  0  2  0  0  0  0  0  0
  183.5890  178.9520  143.6810 C   0  0  0  0  0  2  0  0  0  0  0  0
  183.8700  178.2990  142.3360 C   0  0  0  0  0  2  0  0  0  0  0  0
  182.9440  177.9190  140.1790 O   0  0  0  0  0  1  0  0  0  0  0  0
  182.6160  178.2820  141.4840 C   0  0  0  0  0  2  0  0  0  0  0  0
  2  6  1  0  0  0  0
  2  1  1  1  0  0  0
  4  7  1  0  0  0  0
  5 14  2  0  0  0  0
  7 10  1  0  0  0  0
  8  4  2  0  0  0  0
  9  8  1  0  0  0  0
  9 11  2  0  0  0  0
 10  3  1  0  0  0  0
 10 12  2  0  0  0  0
 11 13  1  0  0  0  0
 13  7  2  0  0  0  0
 13  5  1  0  0  0  0
 14 12  1  0  0  0  0
 14  6  1  0  0  0  0
 15  8  1  0  0  0  0
 16  2  1  0  0  0  0
 17 18  1  6  0  0  0
 17 16  1  0  0  0  0
 20 19  1  6  0  0  0
 20 18  1  0  0  0  0
 21 23  1  0  0  0  0
 22 23  1  0  0  0  0
 23 20  1  0  0  0  0
 24 25  1  0  0  0  0
 24 17  1  0  0  0  0
 26 25  1  0  0  0  0
 27 26  1  0  0  0  0
 28 29  1  0  0  0  0
 29 27  1  0  0  0  0
M  END
>  <MODEL>
5

>  <REMARK>
 VINA RESULT:      -6.3      3.154      8.451
  Name = 
  11 active torsions:
  status: ('A' for Active; 'I' for Inactive)
    1  A    between atoms: C_1  and  C_5
    2  A    between atoms: C_1  and  O_23
    3  A    between atoms: C_5  and  C_17
    4  A    between atoms: C_6  and  C_20
    5  A    between atoms: C_6  and  C_25
    6  A    between atoms: N_9  and  C_19
    7  A    between atoms: C_17  and  C_29
    8  A    between atoms: C_19  and  C_24
    9  A    between atoms: C_20  and  C_21
   10  A    between atoms: C_21  and  O_23
   11  A    between atoms: C_21  and  C_24
                            x       y       z     vdW  Elec       q    Type
                         _______ _______ _______ _____ _____    ______ ____

>  <TORSDO>
F 11

$$$$
=
 OpenBabel11042416293D

 29 30  0  0  1  0  0  0  0  0999 V2000
  189.5960  172.8460  142.2400 C   0  0  0  0  0  1  0  0  0  0  0  0
  189.9080  174.3290  142.3720 C   0  0  2  0  0  3  0  0  0  0  0  0
  184.9570  178.2620  140.6860 Cl  0  0  0  0  0  0  0  0  0  0  0  0
  184.7430  178.1920  143.7600 C   0  0  0  0  0  3  0  0  0  0  0  0
  187.6930  176.0180  143.5110 N   0  0  0  0  0  0  0  0  0  0  0  0
  188.9910  175.1940  141.6250 N   0  0  0  0  0  2  0  0  0  0  0  0
  185.7920  177.4520  143.1980 C   0  0  0  0  0  0  0  0  0  0  0  0
  184.5660  178.2190  145.1450 C   0  0  0  0  0  0  0  0  0  0  0  0
  185.4340  177.5040  145.9780 C   0  0  0  0  0  3  0  0  0  0  0  0
  186.0030  177.4060  141.8110 C   0  0  0  0  0  0  0  0  0  0  0  0
  186.4840  176.7640  145.4280 C   0  0  0  0  0  3  0  0  0  0  0  0
  187.0670  176.6590  141.2990 C   0  0  0  0  0  3  0  0  0  0  0  0
  186.6670  176.7330  144.0440 C   0  0  0  0  0  0  0  0  0  0  0  0
  187.9110  175.9650  142.1680 C   0  0  0  0  0  0  0  0  0  0  0  0
  183.5270  178.9530  145.6960 O   0  0  0  0  0  1  0  0  0  0  0  0
  191.3930  174.6790  142.1810 C   0  0  0  0  0  2  0  0  0  0  0  0
  191.9910  175.7520  143.1020 C   0  0  1  0  0  3  0  0  0  0  0  0
  193.4520  176.0620  142.8010 C   0  0  0  0  0  2  0  0  0  0  0  0
  195.3900  176.3320  144.1950 O   0  0  0  0  0  1  0  0  0  0  0  0
  194.3820  175.4350  143.8370 C   0  0  1  0  0  3  0  0  0  0  0  0
  193.7360  173.4760  145.3150 C   0  0  0  0  0  1  0  0  0  0  0  0
  194.1020  175.7280  146.3160 C   0  0  0  0  0  1  0  0  0  0  0  0
  193.6290  174.9760  145.0860 C   0  0  0  0  0  3  0  0  0  0  0  0
  191.2280  176.9210  143.0670 O   0  0  0  0  0  0  0  0  0  0  0  0
  191.4420  177.5340  144.3030 C   0  0  0  0  0  2  0  0  0  0  0  0
  190.2000  177.4000  145.1720 C   0  0  0  0  0  2  0  0  0  0  0  0
  190.5210  176.6910  146.4790 C   0  0  0  0  0  2  0  0  0  0  0  0
  188.9620  175.0250  147.1500 O   0  0  0  0  0  1  0  0  0  0  0  0
  190.1190  175.2300  146.4010 C   0  0  0  0  0  2  0  0  0  0  0  0
  2  1  1  6  0  0  0
  3 10  1  0  0  0  0
  4  8  1  0  0  0  0
  5 13  1  0  0  0  0
  6 14  1  0  0  0  0
  6  2  1  0  0  0  0
  7  4  2  0  0  0  0
  7 13  1  0  0  0  0
  8 15  1  0  0  0  0
  8  9  2  0  0  0  0
 10  7  1  0  0  0  0
 11  9  1  0  0  0  0
 12 10  2  0  0  0  0
 12 14  1  0  0  0  0
 13 11  2  0  0  0  0
 14  5  2  0  0  0  0
 16  2  1  0  0  0  0
 17 16  1  6  0  0  0
 18 17  1  0  0  0  0
 18 20  1  0  0  0  0
 20 19  1  1  0  0  0
 20 23  1  0  0  0  0
 23 21  1  0  0  0  0
 23 22  1  0  0  0  0
 24 17  1  0  0  0  0
 24 25  1  0  0  0  0
 25 26  1  0  0  0  0
 26 27  1  0  0  0  0
 29 27  1  0  0  0  0
 29 28  1  0  0  0  0
M  END
>  <MODEL>
6

>  <REMARK>
 VINA RESULT:      -6.3      2.370      4.559
  Name = 
  11 active torsions:
  status: ('A' for Active; 'I' for Inactive)
    1  A    between atoms: C_1  and  C_5
    2  A    between atoms: C_1  and  O_23
    3  A    between atoms: C_5  and  C_17
    4  A    between atoms: C_6  and  C_20
    5  A    between atoms: C_6  and  C_25
    6  A    between atoms: N_9  and  C_19
    7  A    between atoms: C_17  and  C_29
    8  A    between atoms: C_19  and  C_24
    9  A    between atoms: C_20  and  C_21
   10  A    between atoms: C_21  and  O_23
   11  A    between atoms: C_21  and  C_24
                            x       y       z     vdW  Elec       q    Type
                         _______ _______ _______ _____ _____    ______ ____

>  <TORSDO>
F 11

$$$$
=
 OpenBabel11042416293D

 29 30  0  0  1  0  0  0  0  0999 V2000
  189.3430  172.8650  141.7520 C   0  0  0  0  0  1  0  0  0  0  0  0
  189.4880  174.2920  142.2580 C   0  0  2  0  0  3  0  0  0  0  0  0
  184.2400  178.1990  142.3830 Cl  0  0  0  0  0  0  0  0  0  0  0  0
  184.9990  177.9980  145.3640 C   0  0  0  0  0  3  0  0  0  0  0  0
  187.7330  175.8910  144.1080 N   0  0  0  0  0  0  0  0  0  0  0  0
  188.3790  175.1700  141.8760 N   0  0  0  0  0  2  0  0  0  0  0  0
  185.8230  177.3010  144.4700 C   0  0  0  0  0  0  0  0  0  0  0  0
  185.2650  177.9640  146.7350 C   0  0  0  0  0  0  0  0  0  0  0  0
  186.3530  177.2320  147.2220 C   0  0  0  0  0  3  0  0  0  0  0  0
  185.5900  177.3170  143.0850 C   0  0  0  0  0  0  0  0  0  0  0  0
  187.1810  176.5350  146.3380 C   0  0  0  0  0  3  0  0  0  0  0  0
  186.4430  176.6120  142.2340 C   0  0  0  0  0  3  0  0  0  0  0  0
  186.9220  176.5650  144.9660 C   0  0  0  0  0  0  0  0  0  0  0  0
  187.5200  175.8970  142.7630 C   0  0  0  0  0  0  0  0  0  0  0  0
  184.4470  178.6560  147.6150 O   0  0  0  0  0  1  0  0  0  0  0  0
  190.8790  174.9030  142.0260 C   0  0  0  0  0  2  0  0  0  0  0  0
  191.3400  176.0020  142.9950 C   0  0  1  0  0  3  0  0  0  0  0  0
  191.1050  175.6530  144.4600 C   0  0  0  0  0  2  0  0  0  0  0  0
  190.3370  177.5760  145.6780 O   0  0  0  0  0  1  0  0  0  0  0  0
  191.4700  176.8180  145.3780 C   0  0  1  0  0  3  0  0  0  0  0  0
  191.2520  176.5460  147.8910 C   0  0  0  0  0  1  0  0  0  0  0  0
  192.5670  174.8950  146.5660 C   0  0  0  0  0  1  0  0  0  0  0  0
  192.1370  176.3470  146.6700 C   0  0  0  0  0  3  0  0  0  0  0  0
  192.6810  176.3260  142.7800 O   0  0  0  0  0  0  0  0  0  0  0  0
  193.2900  175.1300  142.3940 C   0  0  0  0  0  2  0  0  0  0  0  0
  194.3950  174.7690  143.3740 C   0  0  0  0  0  2  0  0  0  0  0  0
  195.2270  175.9910  143.7370 C   0  0  0  0  0  2  0  0  0  0  0  0
  197.2210  177.1350  143.1310 O   0  0  0  0  0  1  0  0  0  0  0  0
  196.6180  175.8790  143.1430 C   0  0  0  0  0  2  0  0  0  0  0  0
  2  1  1  6  0  0  0
  3 10  1  0  0  0  0
  4  8  1  0  0  0  0
  5 13  1  0  0  0  0
  6  2  1  0  0  0  0
  6 14  1  0  0  0  0
  7 13  1  0  0  0  0
  7  4  2  0  0  0  0
  8  9  2  0  0  0  0
  8 15  1  0  0  0  0
 10  7  1  0  0  0  0
 11  9  1  0  0  0  0
 12 14  1  0  0  0  0
 12 10  2  0  0  0  0
 13 11  2  0  0  0  0
 14  5  2  0  0  0  0
 16  2  1  0  0  0  0
 17 16  1  6  0  0  0
 17 18  1  0  0  0  0
 18 20  1  0  0  0  0
 20 19  1  1  0  0  0
 20 23  1  0  0  0  0
 22 23  1  0  0  0  0
 23 21  1  0  0  0  0
 24 17  1  0  0  0  0
 25 24  1  0  0  0  0
 25 26  1  0  0  0  0
 26 27  1  0  0  0  0
 28 29  1  0  0  0  0
 29 27  1  0  0  0  0
M  END
>  <MODEL>
7

>  <REMARK>
 VINA RESULT:      -6.2      2.504      3.740
  Name = 
  11 active torsions:
  status: ('A' for Active; 'I' for Inactive)
    1  A    between atoms: C_1  and  C_5
    2  A    between atoms: C_1  and  O_23
    3  A    between atoms: C_5  and  C_17
    4  A    between atoms: C_6  and  C_20
    5  A    between atoms: C_6  and  C_25
    6  A    between atoms: N_9  and  C_19
    7  A    between atoms: C_17  and  C_29
    8  A    between atoms: C_19  and  C_24
    9  A    between atoms: C_20  and  C_21
   10  A    between atoms: C_21  and  O_23
   11  A    between atoms: C_21  and  C_24
                            x       y       z     vdW  Elec       q    Type
                         _______ _______ _______ _____ _____    ______ ____

>  <TORSDO>
F 11

$$$$
=
 OpenBabel11042416293D

 29 30  0  0  1  0  0  0  0  0999 V2000
  190.6640  173.5900  142.7640 C   0  0  0  0  0  1  0  0  0  0  0  0
  190.6790  175.0990  142.9520 C   0  0  2  0  0  3  0  0  0  0  0  0
  184.8810  178.0080  142.0950 Cl  0  0  0  0  0  0  0  0  0  0  0  0
  185.1080  177.8530  145.1650 C   0  0  0  0  0  3  0  0  0  0  0  0
  188.3580  176.3040  144.4410 N   0  0  0  0  0  0  0  0  0  0  0  0
  189.5190  175.7780  142.3680 N   0  0  0  0  0  2  0  0  0  0  0  0
  186.1920  177.3420  144.4410 C   0  0  0  0  0  0  0  0  0  0  0  0
  185.1210  177.8250  146.5620 C   0  0  0  0  0  0  0  0  0  0  0  0
  186.2160  177.2820  147.2430 C   0  0  0  0  0  3  0  0  0  0  0  0
  186.2160  177.3580  143.0370 C   0  0  0  0  0  0  0  0  0  0  0  0
  187.3030  176.7710  146.5300 C   0  0  0  0  0  3  0  0  0  0  0  0
  187.3230  176.8420  142.3590 C   0  0  0  0  0  3  0  0  0  0  0  0
  187.2970  176.7970  145.1330 C   0  0  0  0  0  0  0  0  0  0  0  0
  188.3960  176.3140  143.0800 C   0  0  0  0  0  0  0  0  0  0  0  0
  184.0460  178.3330  147.2740 O   0  0  0  0  0  1  0  0  0  0  0  0
  192.0260  175.7610  142.6160 C   0  0  0  0  0  2  0  0  0  0  0  0
  192.9180  176.1860  143.7920 C   0  0  1  0  0  3  0  0  0  0  0  0
  192.1310  176.6690  145.0030 C   0  0  0  0  0  2  0  0  0  0  0  0
  193.6210  176.7890  146.8850 O   0  0  0  0  0  1  0  0  0  0  0  0
  192.6250  176.0110  146.2900 C   0  0  1  0  0  3  0  0  0  0  0  0
  190.8150  177.0580  147.7270 C   0  0  0  0  0  1  0  0  0  0  0  0
  190.4640  174.8060  146.7220 C   0  0  0  0  0  1  0  0  0  0  0  0
  191.4910  175.7690  147.2870 C   0  0  0  0  0  3  0  0  0  0  0  0
  193.7880  175.1560  144.1550 O   0  0  0  0  0  0  0  0  0  0  0  0
  195.0050  175.4770  143.5500 C   0  0  0  0  0  2  0  0  0  0  0  0
  196.1480  175.2500  144.5280 C   0  0  0  0  0  2  0  0  0  0  0  0
  195.7700  174.2210  145.5830 C   0  0  0  0  0  2  0  0  0  0  0  0
  196.8110  172.1560  146.1390 O   0  0  0  0  0  1  0  0  0  0  0  0
  197.0110  173.5350  146.1210 C   0  0  0  0  0  2  0  0  0  0  0  0
  2  1  1  6  0  0  0
  3 10  1  0  0  0  0
  4  8  1  0  0  0  0
  5 13  1  0  0  0  0
  6  2  1  0  0  0  0
  6 14  1  0  0  0  0
  7 13  1  0  0  0  0
  7  4  2  0  0  0  0
  8  9  2  0  0  0  0
  8 15  1  0  0  0  0
 10  7  1  0  0  0  0
 11  9  1  0  0  0  0
 12 10  2  0  0  0  0
 12 14  1  0  0  0  0
 13 11  2  0  0  0  0
 14  5  2  0  0  0  0
 16  2  1  0  0  0  0
 17 16  1  6  0  0  0
 17 24  1  0  0  0  0
 17 18  1  0  0  0  0
 18 20  1  0  0  0  0
 20 19  1  1  0  0  0
 20 23  1  0  0  0  0
 22 23  1  0  0  0  0
 23 21  1  0  0  0  0
 25 24  1  0  0  0  0
 25 26  1  0  0  0  0
 26 27  1  0  0  0  0
 27 29  1  0  0  0  0
 29 28  1  0  0  0  0
M  END
>  <MODEL>
8

>  <REMARK>
 VINA RESULT:      -6.1      2.206      3.303
  Name = 
  11 active torsions:
  status: ('A' for Active; 'I' for Inactive)
    1  A    between atoms: C_1  and  C_5
    2  A    between atoms: C_1  and  O_23
    3  A    between atoms: C_5  and  C_17
    4  A    between atoms: C_6  and  C_20
    5  A    between atoms: C_6  and  C_25
    6  A    between atoms: N_9  and  C_19
    7  A    between atoms: C_17  and  C_29
    8  A    between atoms: C_19  and  C_24
    9  A    between atoms: C_20  and  C_21
   10  A    between atoms: C_21  and  O_23
   11  A    between atoms: C_21  and  C_24
                            x       y       z     vdW  Elec       q    Type
                         _______ _______ _______ _____ _____    ______ ____

>  <TORSDO>
F 11

$$$$
=
 OpenBabel11042416293D

 29 30  0  0  1  0  0  0  0  0999 V2000
  188.3720  174.9750  142.7100 C   0  0  0  0  0  1  0  0  0  0  0  0
  189.0780  176.3220  142.6980 C   0  0  2  0  0  3  0  0  0  0  0  0
  194.0860  176.8470  146.8790 Cl  0  0  0  0  0  0  0  0  0  0  0  0
  195.5060  176.3870  144.1820 C   0  0  0  0  0  3  0  0  0  0  0  0
  192.0840  176.3270  142.8500 N   0  0  0  0  0  0  0  0  0  0  0  0
  189.8960  176.5700  143.8880 N   0  0  0  0  0  2  0  0  0  0  0  0
  194.1070  176.4360  144.1410 C   0  0  0  0  0  0  0  0  0  0  0  0
  196.2360  176.1820  143.0090 C   0  0  0  0  0  0  0  0  0  0  0  0
  195.5730  176.0200  141.7880 C   0  0  0  0  0  3  0  0  0  0  0  0
  193.3410  176.6460  145.2980 C   0  0  0  0  0  0  0  0  0  0  0  0
  194.1780  176.0680  141.7360 C   0  0  0  0  0  3  0  0  0  0  0  0
  191.9480  176.6930  145.2050 C   0  0  0  0  0  3  0  0  0  0  0  0
  193.4410  176.2740  142.9040 C   0  0  0  0  0  0  0  0  0  0  0  0
  191.3280  176.5310  143.9640 C   0  0  0  0  0  0  0  0  0  0  0  0
  197.6220  176.1360  143.0550 O   0  0  0  0  0  1  0  0  0  0  0  0
  188.1760  177.5020  142.3030 C   0  0  0  0  0  2  0  0  0  0  0  0
  186.7140  177.4630  142.7710 C   0  0  1  0  0  3  0  0  0  0  0  0
  186.2800  178.7240  143.5070 C   0  0  0  0  0  2  0  0  0  0  0  0
  185.5650  179.4440  145.6850 O   0  0  0  0  0  1  0  0  0  0  0  0
  186.4230  178.5650  145.0200 C   0  0  1  0  0  3  0  0  0  0  0  0
  187.2980  176.5560  146.2980 C   0  0  0  0  0  1  0  0  0  0  0  0
  184.8550  177.0410  146.2570 C   0  0  0  0  0  1  0  0  0  0  0  0
  186.1540  177.1320  145.4780 C   0  0  0  0  0  3  0  0  0  0  0  0
  185.8540  177.2030  141.7010 O   0  0  0  0  0  0  0  0  0  0  0  0
  185.1100  178.3740  141.5380 C   0  0  0  0  0  2  0  0  0  0  0  0
  183.8140  178.0680  140.8030 C   0  0  0  0  0  2  0  0  0  0  0  0
  182.6080  178.2840  141.7050 C   0  0  0  0  0  2  0  0  0  0  0  0
  180.2950  177.9080  141.3030 O   0  0  0  0  0  1  0  0  0  0  0  0
  181.3910  178.6580  140.8810 C   0  0  0  0  0  2  0  0  0  0  0  0
  2  1  1  1  0  0  0
  2  6  1  0  0  0  0
  5 13  1  0  0  0  0
  5 14  2  0  0  0  0
  6 14  1  0  0  0  0
  7  4  1  0  0  0  0
  7 10  1  0  0  0  0
  8 15  1  0  0  0  0
  8  4  2  0  0  0  0
  9  8  1  0  0  0  0
 10  3  1  0  0  0  0
 11  9  2  0  0  0  0
 11 13  1  0  0  0  0
 12 10  2  0  0  0  0
 13  7  2  0  0  0  0
 14 12  1  0  0  0  0
 16  2  1  0  0  0  0
 17 16  1  6  0  0  0
 17 18  1  0  0  0  0
 18 20  1  0  0  0  0
 20 23  1  0  0  0  0
 20 19  1  1  0  0  0
 23 22  1  0  0  0  0
 23 21  1  0  0  0  0
 24 17  1  0  0  0  0
 25 24  1  0  0  0  0
 26 25  1  0  0  0  0
 26 27  1  0  0  0  0
 29 28  1  0  0  0  0
 29 27  1  0  0  0  0
M  END
>  <MODEL>
9

>  <REMARK>
 VINA RESULT:      -6.1      2.967      9.134
  Name = 
  11 active torsions:
  status: ('A' for Active; 'I' for Inactive)
    1  A    between atoms: C_1  and  C_5
    2  A    between atoms: C_1  and  O_23
    3  A    between atoms: C_5  and  C_17
    4  A    between atoms: C_6  and  C_20
    5  A    between atoms: C_6  and  C_25
    6  A    between atoms: N_9  and  C_19
    7  A    between atoms: C_17  and  C_29
    8  A    between atoms: C_19  and  C_24
    9  A    between atoms: C_20  and  C_21
   10  A    between atoms: C_21  and  O_23
   11  A    between atoms: C_21  and  C_24
                            x       y       z     vdW  Elec       q    Type
                         _______ _______ _______ _____ _____    ______ ____

>  <TORSDO>
F 11

$$$$
