=
 OpenBabel11042416383D

 65 71  0  0  1  0  0  0  0  0999 V2000
  194.7900  173.8500  142.6880 C   0  0  1  0  0  3  0  0  0  0  0  0
  196.9000  174.6000  142.2080 C   0  0  1  0  0  3  0  0  0  0  0  0
  196.4480  175.4770  143.3830 C   0  0  1  0  0  3  0  0  0  0  0  0
  196.3430  176.8300  143.0370 O   0  0  0  0  0  1  0  0  0  0  0  0
  194.3330  175.2680  144.6120 N   0  0  0  0  0  0  0  0  0  0  0  0
  195.1150  174.9230  143.6470 C   0  0  0  0  0  0  0  0  0  0  0  0
  195.8670  173.7270  141.7840 O   0  0  0  0  0  0  0  0  0  0  0  0
  195.3530  170.6420  144.6600 C   0  0  0  0  0  3  0  0  0  0  0  0
  193.0040  170.7840  144.0940 C   0  0  0  0  0  3  0  0  0  0  0  0
  194.0610  170.1130  144.7130 C   0  0  0  0  0  3  0  0  0  0  0  0
  194.5290  172.5380  143.3780 C   0  0  0  0  0  0  0  0  0  0  0  0
  195.5850  171.8490  143.9960 C   0  0  0  0  0  3  0  0  0  0  0  0
  193.2280  171.9920  143.4210 C   0  0  0  0  0  0  0  0  0  0  0  0
  192.0690  172.6440  142.7240 C   0  0  0  0  0  2  0  0  0  0  0  0
  191.0230  171.6240  142.2720 C   0  0  0  0  0  2  0  0  0  0  0  0
  190.2090  172.1240  141.0830 C   0  0  1  0  0  3  0  0  0  0  0  0
  191.0150  172.9900  140.2880 O   0  0  0  0  0  0  0  0  0  0  0  0
  190.5540  171.2570  138.9900 C   0  0  0  0  0  0  0  0  0  0  0  0
  189.9180  171.0390  140.1990 O   0  0  0  0  0  0  0  0  0  0  0  0
  191.1850  172.4070  139.0400 C   0  0  0  0  0  0  0  0  0  0  0  0
  190.5210  170.3380  137.8510 C   0  0  0  0  0  3  0  0  0  0  0  0
  191.4870  170.3570  136.9420 C   0  0  0  0  0  3  0  0  0  0  0  0
  191.4470  169.4260  135.7850 C   0  0  0  0  0  2  0  0  0  0  0  0
  192.4940  169.8420  134.7740 C   0  0  0  0  0  1  0  0  0  0  0  0
  191.9490  172.9740  137.9760 N   0  0  0  0  0  2  0  0  0  0  0  0
  192.3980  174.9480  136.3600 C   0  0  0  0  0  2  0  0  0  0  0  0
  191.6480  173.7910  135.7580 C   0  0  1  0  0  3  0  0  0  0  0  0
  190.0750  174.2520  137.0860 O   0  0  0  0  0  0  0  0  0  0  0  0
  191.4670  174.1220  137.2250 C   0  0  1  0  0  0  0  0  0  0  0  0
  190.1660  174.0280  135.7080 C   0  0  0  0  0  2  0  0  0  0  0  0
  197.5150  175.3440  141.0190 C   0  0  0  0  0  2  0  0  0  0  0  0
  197.7270  174.4190  139.8270 C   0  0  0  0  0  2  0  0  0  0  0  0
  196.1200  173.2920  138.2230 C   0  0  0  0  0  2  0  0  0  0  0  0
  197.9410  173.2920  136.5530 O   0  0  0  0  0  0  0  0  0  0  0  0
  197.1320  172.4880  137.3840 C   0  0  0  0  0  2  0  0  0  0  0  0
  197.0930  173.9940  135.6780 C   0  0  0  0  0  2  0  0  0  0  0  0
  197.1230  176.4620  135.3610 C   0  0  0  0  0  1  0  0  0  0  0  0
  197.2040  175.5860  137.6870 C   0  0  0  0  0  2  0  0  0  0  0  0
  196.6560  175.3460  136.2730 C   0  0  2  0  0  3  0  0  0  0  0  0
  196.6600  174.6280  138.7630 C   0  0  2  0  0  3  0  0  0  0  0  0
  194.6680  176.3120  145.5470 C   0  0  0  0  0  2  0  0  0  0  0  0
  193.4190  176.8000  146.2610 C   0  0  0  0  0  2  0  0  0  0  0  0
  192.7430  175.6770  147.0400 C   0  0  0  0  0  2  0  0  0  0  0  0
  191.8710  174.8120  146.1410 C   0  0  0  0  0  2  0  0  0  0  0  0
  190.6900  175.6020  145.5970 C   0  0  2  0  0  3  0  0  0  0  0  0
  189.4060  174.7980  145.7580 C   0  0  0  0  0  2  0  0  0  0  0  0
  188.9100  174.8720  147.1940 C   0  0  0  0  0  2  0  0  0  0  0  0
  188.2160  176.2010  147.4510 C   0  0  0  0  0  2  0  0  0  0  0  0
  187.1910  176.5010  146.3680 C   0  0  0  0  0  2  0  0  0  0  0  0
  186.3730  177.6980  146.7360 C   0  0  0  0  0  0  0  0  0  0  0  0
  185.5500  178.3600  145.7730 N   0  0  0  0  0  2  0  0  0  0  0  0
  186.4340  178.1480  147.9080 O   0  0  0  0  0  0  0  0  0  0  0  0
  186.1340  178.5680  142.1200 C   0  0  0  0  0  1  0  0  0  0  0  0
  185.4320  177.9160  144.3940 C   0  0  2  0  0  3  0  0  0  0  0  0
  185.6880  179.0920  143.4700 C   0  0  2  0  0  3  0  0  0  0  0  0
  184.2710  178.6330  143.7380 C   0  0  0  0  0  2  0  0  0  0  0  0
  190.9060  175.8900  144.2390 O   0  0  0  0  0  0  0  0  0  0  0  0
  190.4460  177.1960  143.9530 C   0  0  1  0  0  0  0  0  0  0  0  0
  190.0110  177.8550  145.0980 F   0  0  0  0  0  0  0  0  0  0  0  0
  191.5420  178.0150  143.2890 C   0  0  0  0  0  1  0  0  0  0  0  0
  189.2840  177.1090  142.9750 C   0  0  0  0  0  2  0  0  0  0  0  0
  189.4800  175.9860  141.9690 C   0  0  0  0  0  2  0  0  0  0  0  0
  187.6190  175.8290  140.3190 O   0  0  0  0  0  0  0  0  0  0  0  0
  188.1610  175.4520  141.5410 C   0  0  0  0  0  0  0  0  0  0  0  0
  187.5230  174.6750  142.2990 O   0  0  0  0  0  1  0  0  0  0  0  0
  1 11  1  1  0  0  0
  1  6  1  0  0  0  0
  2 31  1  6  0  0  0
  2  3  1  0  0  0  0
  3  4  1  6  0  0  0
  3  6  1  0  0  0  0
  5 41  1  0  0  0  0
  6  5  2  0  0  0  0
  7  2  1  0  0  0  0
  7  1  1  0  0  0  0
  8 10  1  0  0  0  0
  9 10  2  0  0  0  0
 11 13  2  0  0  0  0
 11 12  1  0  0  0  0
 12  8  2  0  0  0  0
 13  9  1  0  0  0  0
 14 13  1  0  0  0  0
 15 14  1  0  0  0  0
 16 15  1  1  0  0  0
 17 16  1  0  0  0  0
 18 20  2  0  0  0  0
 18 19  1  0  0  0  0
 19 16  1  0  0  0  0
 20 17  1  0  0  0  0
 21 18  1  0  0  0  0
 22 21  2  0  0  0  0
 23 22  1  0  0  0  0
 24 23  1  0  0  0  0
 25 20  1  0  0  0  0
 26 29  1  0  0  0  0
 27 30  1  6  0  0  0
 27 26  1  0  0  0  0
 27 29  1  0  0  0  0
 28 29  1  0  0  0  0
 29 25  1  1  0  0  0
 30 28  1  0  0  0  0
 32 31  1  0  0  0  0
 33 40  1  0  0  0  0
 34 35  1  0  0  0  0
 35 33  1  0  0  0  0
 36 39  1  0  0  0  0
 36 34  1  0  0  0  0
 38 40  1  0  0  0  0
 39 37  1  6  0  0  0
 39 38  1  0  0  0  0
 40 32  1  1  0  0  0
 41 42  1  0  0  0  0
 42 43  1  0  0  0  0
 44 43  1  0  0  0  0
 45 46  1  6  0  0  0
 45 44  1  0  0  0  0
 46 47  1  0  0  0  0
 47 48  1  0  0  0  0
 49 50  1  0  0  0  0
 49 48  1  0  0  0  0
 50 52  2  0  0  0  0
 51 50  1  0  0  0  0
 54 51  1  1  0  0  0
 55 53  1  6  0  0  0
 55 56  1  0  0  0  0
 55 54  1  0  0  0  0
 56 54  1  0  0  0  0
 57 45  1  0  0  0  0
 58 60  1  6  0  0  0
 58 57  1  0  0  0  0
 58 59  1  0  0  0  0
 61 58  1  0  0  0  0
 62 61  1  0  0  0  0
 63 64  2  0  0  0  0
 64 62  1  0  0  0  0
 64 65  1  0  0  0  0
M  END
>  <MODEL>
1

>  <REMARK>
 VINA RESULT:      -6.1      0.000      0.000
  Name = 
  27 active torsions:
  status: ('A' for Active; 'I' for Inactive)
    1  A    between atoms: C_1  and  C_5
    2  A    between atoms: C_1  and  C_52
    3  A    between atoms: C_3  and  C_21
    4  A    between atoms: O_4  and  C_7
    5  A    between atoms: O_4  and  C_20
    6  A    between atoms: C_5  and  C_12
    7  A    between atoms: C_6  and  C_16
    8  A    between atoms: C_7  and  C_61
    9  A    between atoms: C_7  and  C_65
   10  A    between atoms: C_8  and  C_25
   11  A    between atoms: C_9  and  C_33
   12  A    between atoms: C_10  and  C_30
   13  A    between atoms: C_11  and  C_27
   14  A    between atoms: C_11  and  N_40
   15  A    between atoms: C_12  and  C_65
   16  A    between atoms: C_20  and  C_60
   17  A    between atoms: C_21  and  C_58
   18  A    between atoms: C_23  and  C_28
   19  A    between atoms: C_26  and  N_54
   20  A    between atoms: C_27  and  C_29
   21  A    between atoms: C_28  and  C_60
   22  A    between atoms: C_29  and  C_61
   23  A    between atoms: C_33  and  C_35
   24  A    between atoms: C_35  and  C_63
   25  A    between atoms: C_43  and  N_49
   26  A    between atoms: N_49  and  C_50
   27  A    between atoms: C_55  and  C_58
                            x       y       z     vdW  Elec       q    Type
                         _______ _______ _______ _____ _____    ______ ____

>  <TORSDO>
F 27

$$$$
=
 OpenBabel11042416383D

 65 71  0  0  1  0  0  0  0  0999 V2000
  195.6720  172.8820  142.7790 C   0  0  1  0  0  3  0  0  0  0  0  0
  197.2570  174.2120  141.7970 C   0  0  1  0  0  3  0  0  0  0  0  0
  196.6250  175.1110  142.8690 C   0  0  1  0  0  3  0  0  0  0  0  0
  195.9630  176.2180  142.3230 O   0  0  0  0  0  1  0  0  0  0  0  0
  194.9030  174.4390  144.4840 N   0  0  0  0  0  0  0  0  0  0  0  0
  195.6510  174.1890  143.4650 C   0  0  0  0  0  0  0  0  0  0  0  0
  196.6090  172.9540  141.7260 O   0  0  0  0  0  0  0  0  0  0  0  0
  197.3780  170.8930  145.5400 C   0  0  0  0  0  3  0  0  0  0  0  0
  195.6240  169.5240  144.5890 C   0  0  0  0  0  3  0  0  0  0  0  0
  196.6560  169.6980  145.5140 C   0  0  0  0  0  3  0  0  0  0  0  0
  196.0190  171.7590  143.7180 C   0  0  0  0  0  0  0  0  0  0  0  0
  197.0610  171.9180  144.6460 C   0  0  0  0  0  3  0  0  0  0  0  0
  195.3020  170.5440  143.6860 C   0  0  0  0  0  0  0  0  0  0  0  0
  194.2220  170.2850  142.6750 C   0  0  0  0  0  2  0  0  0  0  0  0
  194.2610  168.8500  142.1480 C   0  0  0  0  0  2  0  0  0  0  0  0
  193.4280  168.6800  140.8810 C   0  0  1  0  0  3  0  0  0  0  0  0
  192.4980  169.7560  140.7780 O   0  0  0  0  0  0  0  0  0  0  0  0
  193.8440  169.9700  139.0330 C   0  0  0  0  0  0  0  0  0  0  0  0
  194.2540  168.8460  139.7270 O   0  0  0  0  0  0  0  0  0  0  0  0
  192.8070  170.4940  139.6440 C   0  0  0  0  0  0  0  0  0  0  0  0
  194.4810  170.4810  137.8180 C   0  0  0  0  0  3  0  0  0  0  0  0
  193.7680  170.6860  136.7190 C   0  0  0  0  0  3  0  0  0  0  0  0
  194.4200  171.2000  135.4870 C   0  0  0  0  0  2  0  0  0  0  0  0
  193.3600  171.7310  134.5460 C   0  0  0  0  0  1  0  0  0  0  0  0
  192.1030  171.6610  139.2180 N   0  0  0  0  0  2  0  0  0  0  0  0
  189.5780  172.2260  139.3460 C   0  0  0  0  0  2  0  0  0  0  0  0
  190.3490  172.9890  138.3040 C   0  0  1  0  0  3  0  0  0  0  0  0
  190.6560  171.1450  137.3270 O   0  0  0  0  0  0  0  0  0  0  0  0
  190.7640  171.5760  138.6600 C   0  0  1  0  0  0  0  0  0  0  0  0
  190.1940  172.4040  136.9290 C   0  0  0  0  0  2  0  0  0  0  0  0
  197.4020  174.8370  140.4060 C   0  0  0  0  0  2  0  0  0  0  0  0
  197.9400  173.8330  139.3940 C   0  0  0  0  0  2  0  0  0  0  0  0
  197.3020  172.9550  137.1040 C   0  0  0  0  0  2  0  0  0  0  0  0
  196.7250  175.2760  136.4840 O   0  0  0  0  0  0  0  0  0  0  0  0
  197.6190  174.2060  136.2630 C   0  0  0  0  0  2  0  0  0  0  0  0
  195.4330  174.8310  136.1520 C   0  0  0  0  0  2  0  0  0  0  0  0
  193.4560  174.9940  137.6550 C   0  0  0  0  0  1  0  0  0  0  0  0
  195.5930  174.1740  138.6280 C   0  0  0  0  0  2  0  0  0  0  0  0
  194.7180  174.2070  137.3660 C   0  0  2  0  0  3  0  0  0  0  0  0
  196.8250  173.2550  138.5370 C   0  0  2  0  0  3  0  0  0  0  0  0
  194.9000  175.7170  145.1500 C   0  0  0  0  0  2  0  0  0  0  0  0
  193.4760  176.2290  145.3000 C   0  0  0  0  0  2  0  0  0  0  0  0
  192.7460  175.5290  146.4420 C   0  0  0  0  0  2  0  0  0  0  0  0
  192.0880  174.2360  145.9820 C   0  0  0  0  0  2  0  0  0  0  0  0
  190.8020  174.5160  145.2190 C   0  0  2  0  0  3  0  0  0  0  0  0
  189.6090  173.9640  145.9880 C   0  0  0  0  0  2  0  0  0  0  0  0
  189.1120  174.9850  147.0010 C   0  0  0  0  0  2  0  0  0  0  0  0
  189.1400  176.3840  146.4050 C   0  0  0  0  0  2  0  0  0  0  0  0
  187.7940  176.7460  145.7970 C   0  0  0  0  0  2  0  0  0  0  0  0
  187.1050  177.7860  146.6230 C   0  0  0  0  0  0  0  0  0  0  0  0
  185.8900  178.3990  146.1860 N   0  0  0  0  0  2  0  0  0  0  0  0
  187.6220  178.1480  147.7110 O   0  0  0  0  0  0  0  0  0  0  0  0
  185.1060  178.7890  142.5860 C   0  0  0  0  0  1  0  0  0  0  0  0
  185.2330  178.0510  144.9370 C   0  0  2  0  0  3  0  0  0  0  0  0
  185.2380  179.2590  144.0200 C   0  0  2  0  0  3  0  0  0  0  0  0
  183.9830  178.8910  144.7810 C   0  0  0  0  0  2  0  0  0  0  0  0
  190.8710  173.9150  143.9500 O   0  0  0  0  0  0  0  0  0  0  0  0
  190.8180  174.9150  142.9510 C   0  0  1  0  0  0  0  0  0  0  0  0
  190.5000  176.1610  143.4790 F   0  0  0  0  0  0  0  0  0  0  0  0
  192.1470  175.0060  142.2160 C   0  0  0  0  0  1  0  0  0  0  0  0
  189.7550  174.5370  141.9290 C   0  0  0  0  0  2  0  0  0  0  0  0
  188.3750  174.4540  142.5610 C   0  0  0  0  0  2  0  0  0  0  0  0
  188.0120  176.4620  141.1300 O   0  0  0  0  0  0  0  0  0  0  0  0
  187.5400  175.5980  142.1110 C   0  0  0  0  0  0  0  0  0  0  0  0
  186.4150  175.8000  142.6380 O   0  0  0  0  0  1  0  0  0  0  0  0
  1  6  1  0  0  0  0
  1 11  1  1  0  0  0
  2 31  1  6  0  0  0
  2  3  1  0  0  0  0
  3  4  1  6  0  0  0
  3  6  1  0  0  0  0
  5 41  1  0  0  0  0
  6  5  2  0  0  0  0
  7  2  1  0  0  0  0
  7  1  1  0  0  0  0
  9 10  2  0  0  0  0
 10  8  1  0  0  0  0
 11 12  1  0  0  0  0
 12  8  2  0  0  0  0
 13 11  2  0  0  0  0
 13  9  1  0  0  0  0
 14 13  1  0  0  0  0
 15 14  1  0  0  0  0
 16 15  1  1  0  0  0
 17 16  1  0  0  0  0
 18 20  2  0  0  0  0
 18 19  1  0  0  0  0
 19 16  1  0  0  0  0
 20 17  1  0  0  0  0
 21 18  1  0  0  0  0
 22 21  2  0  0  0  0
 23 22  1  0  0  0  0
 24 23  1  0  0  0  0
 25 20  1  0  0  0  0
 27 30  1  6  0  0  0
 27 29  1  0  0  0  0
 27 26  1  0  0  0  0
 28 29  1  0  0  0  0
 29 25  1  1  0  0  0
 29 26  1  0  0  0  0
 30 28  1  0  0  0  0
 32 31  1  0  0  0  0
 33 40  1  0  0  0  0
 35 34  1  0  0  0  0
 35 33  1  0  0  0  0
 36 34  1  0  0  0  0
 36 39  1  0  0  0  0
 39 37  1  1  0  0  0
 39 38  1  0  0  0  0
 40 38  1  0  0  0  0
 40 32  1  1  0  0  0
 41 42  1  0  0  0  0
 42 43  1  0  0  0  0
 44 43  1  0  0  0  0
 45 44  1  1  0  0  0
 45 46  1  0  0  0  0
 46 47  1  0  0  0  0
 48 47  1  0  0  0  0
 49 48  1  0  0  0  0
 49 50  1  0  0  0  0
 50 52  2  0  0  0  0
 51 50  1  0  0  0  0
 54 51  1  1  0  0  0
 55 53  1  6  0  0  0
 55 56  1  0  0  0  0
 55 54  1  0  0  0  0
 56 54  1  0  0  0  0
 57 45  1  0  0  0  0
 58 60  1  6  0  0  0
 58 59  1  0  0  0  0
 58 57  1  0  0  0  0
 61 62  1  0  0  0  0
 61 58  1  0  0  0  0
 63 64  2  0  0  0  0
 64 62  1  0  0  0  0
 64 65  1  0  0  0  0
M  END
>  <MODEL>
2

>  <REMARK>
 VINA RESULT:      -5.7      1.755      2.327
  Name = 
  27 active torsions:
  status: ('A' for Active; 'I' for Inactive)
    1  A    between atoms: C_1  and  C_5
    2  A    between atoms: C_1  and  C_52
    3  A    between atoms: C_3  and  C_21
    4  A    between atoms: O_4  and  C_7
    5  A    between atoms: O_4  and  C_20
    6  A    between atoms: C_5  and  C_12
    7  A    between atoms: C_6  and  C_16
    8  A    between atoms: C_7  and  C_61
    9  A    between atoms: C_7  and  C_65
   10  A    between atoms: C_8  and  C_25
   11  A    between atoms: C_9  and  C_33
   12  A    between atoms: C_10  and  C_30
   13  A    between atoms: C_11  and  C_27
   14  A    between atoms: C_11  and  N_40
   15  A    between atoms: C_12  and  C_65
   16  A    between atoms: C_20  and  C_60
   17  A    between atoms: C_21  and  C_58
   18  A    between atoms: C_23  and  C_28
   19  A    between atoms: C_26  and  N_54
   20  A    between atoms: C_27  and  C_29
   21  A    between atoms: C_28  and  C_60
   22  A    between atoms: C_29  and  C_61
   23  A    between atoms: C_33  and  C_35
   24  A    between atoms: C_35  and  C_63
   25  A    between atoms: C_43  and  N_49
   26  A    between atoms: N_49  and  C_50
   27  A    between atoms: C_55  and  C_58
                            x       y       z     vdW  Elec       q    Type
                         _______ _______ _______ _____ _____    ______ ____

>  <TORSDO>
F 27

$$$$
=
 OpenBabel11042416383D

 65 71  0  0  1  0  0  0  0  0999 V2000
  191.6060  172.6930  140.9790 C   0  0  1  0  0  3  0  0  0  0  0  0
  191.1480  171.0210  142.4750 C   0  0  1  0  0  3  0  0  0  0  0  0
  190.1960  172.1560  142.8770 C   0  0  1  0  0  3  0  0  0  0  0  0
  190.4630  172.6550  144.1580 O   0  0  0  0  0  1  0  0  0  0  0  0
  189.9360  174.3030  141.7150 N   0  0  0  0  0  0  0  0  0  0  0  0
  190.5270  173.1670  141.8670 C   0  0  0  0  0  0  0  0  0  0  0  0
  192.0080  171.4140  141.4200 O   0  0  0  0  0  0  0  0  0  0  0  0
  189.6880  171.7490  137.8290 C   0  0  0  0  0  3  0  0  0  0  0  0
  191.3530  173.4020  137.2380 C   0  0  0  0  0  3  0  0  0  0  0  0
  190.3020  172.5590  136.8710 C   0  0  0  0  0  3  0  0  0  0  0  0
  191.1690  172.6410  139.5390 C   0  0  0  0  0  0  0  0  0  0  0  0
  190.1190  171.7900  139.1560 C   0  0  0  0  0  3  0  0  0  0  0  0
  191.7970  173.4460  138.5660 C   0  0  0  0  0  0  0  0  0  0  0  0
  192.9670  174.3270  138.8960 C   0  0  0  0  0  2  0  0  0  0  0  0
  194.0200  174.3240  137.7870 C   0  0  0  0  0  2  0  0  0  0  0  0
  195.4370  174.4420  138.3390 C   0  0  1  0  0  3  0  0  0  0  0  0
  195.3990  175.1050  139.6010 O   0  0  0  0  0  0  0  0  0  0  0  0
  196.1470  173.0660  140.0270 C   0  0  0  0  0  0  0  0  0  0  0  0
  195.9450  173.1470  138.6610 O   0  0  0  0  0  0  0  0  0  0  0  0
  195.8380  174.2180  140.5740 C   0  0  0  0  0  0  0  0  0  0  0  0
  196.6210  171.8740  140.7330 C   0  0  0  0  0  3  0  0  0  0  0  0
  195.8560  170.7940  140.8220 C   0  0  0  0  0  3  0  0  0  0  0  0
  196.3410  169.5890  141.5440 C   0  0  0  0  0  2  0  0  0  0  0  0
  197.7180  169.8660  142.1070 C   0  0  0  0  0  1  0  0  0  0  0  0
  195.9250  174.5190  141.9670 N   0  0  0  0  0  2  0  0  0  0  0  0
  194.7230  176.0540  143.6730 C   0  0  0  0  0  2  0  0  0  0  0  0
  196.2080  175.9190  143.8730 C   0  0  1  0  0  3  0  0  0  0  0  0
  196.4430  176.8990  142.0200 O   0  0  0  0  0  0  0  0  0  0  0  0
  195.6290  175.8480  142.4750 C   0  0  1  0  0  0  0  0  0  0  0  0
  196.9740  177.0780  143.3020 C   0  0  0  0  0  2  0  0  0  0  0  0
  191.9370  170.3770  143.6190 C   0  0  0  0  0  2  0  0  0  0  0  0
  193.3850  170.8510  143.6380 C   0  0  0  0  0  2  0  0  0  0  0  0
  194.4130  171.9590  145.6730 C   0  0  0  0  0  2  0  0  0  0  0  0
  196.5900  171.8540  144.5090 O   0  0  0  0  0  0  0  0  0  0  0  0
  195.5720  172.7070  144.9880 C   0  0  0  0  0  2  0  0  0  0  0  0
  197.1040  171.1420  145.6070 C   0  0  0  0  0  2  0  0  0  0  0  0
  197.3090  168.6640  145.7110 C   0  0  0  0  0  1  0  0  0  0  0  0
  195.1800  169.6200  144.8540 C   0  0  0  0  0  2  0  0  0  0  0  0
  196.3420  169.8230  145.8370 C   0  0  2  0  0  3  0  0  0  0  0  0
  194.0260  170.6290  144.9990 C   0  0  2  0  0  3  0  0  0  0  0  0
  188.8770  174.7490  142.5840 C   0  0  0  0  0  2  0  0  0  0  0  0
  188.8440  176.2680  142.6380 C   0  0  0  0  0  2  0  0  0  0  0  0
  187.5190  176.8180  142.1240 C   0  0  0  0  0  2  0  0  0  0  0  0
  186.3510  176.3920  143.0020 C   0  0  0  0  0  2  0  0  0  0  0  0
  186.1600  177.3520  144.1660 C   0  0  2  0  0  3  0  0  0  0  0  0
  185.6420  178.6920  143.6570 C   0  0  0  0  0  2  0  0  0  0  0  0
  184.1900  178.8890  144.0660 C   0  0  0  0  0  2  0  0  0  0  0  0
  183.2570  178.4470  142.9490 C   0  0  0  0  0  2  0  0  0  0  0  0
  183.8000  178.8570  141.5890 C   0  0  0  0  0  2  0  0  0  0  0  0
  183.1230  178.0870  140.5000 C   0  0  0  0  0  0  0  0  0  0  0  0
  181.6990  178.0400  140.3970 N   0  0  0  0  0  2  0  0  0  0  0  0
  183.8220  177.4450  139.6750 O   0  0  0  0  0  0  0  0  0  0  0  0
  178.4120  179.0070  141.8090 C   0  0  0  0  0  1  0  0  0  0  0  0
  180.8160  178.7400  141.3150 C   0  0  2  0  0  3  0  0  0  0  0  0
  179.4300  178.8280  140.7010 C   0  0  2  0  0  3  0  0  0  0  0  0
  180.3500  180.0290  140.6720 C   0  0  0  0  0  2  0  0  0  0  0  0
  187.3870  177.5360  144.8270 O   0  0  0  0  0  0  0  0  0  0  0  0
  187.2080  177.3420  146.2160 C   0  0  1  0  0  0  0  0  0  0  0  0
  187.2580  178.5400  146.9190 F   0  0  0  0  0  0  0  0  0  0  0  0
  185.8820  176.6520  146.4940 C   0  0  0  0  0  1  0  0  0  0  0  0
  188.3140  176.4330  146.7350 C   0  0  0  0  0  2  0  0  0  0  0  0
  189.6670  177.1260  146.7130 C   0  0  0  0  0  2  0  0  0  0  0  0
  191.5690  177.1210  148.3230 O   0  0  0  0  0  1  0  0  0  0  0  0
  190.6190  176.4100  147.6000 C   0  0  0  0  0  0  0  0  0  0  0  0
  190.5820  175.1540  147.6760 O   0  0  0  0  0  0  0  0  0  0  0  0
  1 11  1  6  0  0  0
  1  7  1  0  0  0  0
  1  6  1  0  0  0  0
  2  3  1  0  0  0  0
  2 31  1  1  0  0  0
  3  4  1  1  0  0  0
  5  6  2  0  0  0  0
  5 41  1  0  0  0  0
  6  3  1  0  0  0  0
  7  2  1  0  0  0  0
  8 12  1  0  0  0  0
  9 13  2  0  0  0  0
 10  9  1  0  0  0  0
 10  8  2  0  0  0  0
 12 11  2  0  0  0  0
 13 14  1  0  0  0  0
 13 11  1  0  0  0  0
 15 14  1  0  0  0  0
 16 15  1  1  0  0  0
 16 19  1  0  0  0  0
 16 17  1  0  0  0  0
 17 20  1  0  0  0  0
 18 20  2  0  0  0  0
 18 21  1  0  0  0  0
 19 18  1  0  0  0  0
 20 25  1  0  0  0  0
 21 22  2  0  0  0  0
 22 23  1  0  0  0  0
 23 24  1  0  0  0  0
 26 27  1  0  0  0  0
 27 30  1  6  0  0  0
 28 29  1  0  0  0  0
 28 30  1  0  0  0  0
 29 25  1  6  0  0  0
 29 26  1  0  0  0  0
 29 27  1  0  0  0  0
 31 32  1  0  0  0  0
 34 35  1  0  0  0  0
 34 36  1  0  0  0  0
 35 33  1  0  0  0  0
 36 39  1  0  0  0  0
 38 40  1  0  0  0  0
 38 39  1  0  0  0  0
 39 37  1  6  0  0  0
 40 32  1  6  0  0  0
 40 33  1  0  0  0  0
 41 42  1  0  0  0  0
 43 42  1  0  0  0  0
 43 44  1  0  0  0  0
 45 44  1  6  0  0  0
 45 57  1  0  0  0  0
 46 47  1  0  0  0  0
 46 45  1  0  0  0  0
 48 47  1  0  0  0  0
 49 48  1  0  0  0  0
 50 49  1  0  0  0  0
 51 50  1  0  0  0  0
 52 50  2  0  0  0  0
 54 51  1  6  0  0  0
 55 54  1  0  0  0  0
 55 53  1  1  0  0  0
 56 55  1  0  0  0  0
 56 54  1  0  0  0  0
 57 58  1  0  0  0  0
 58 60  1  1  0  0  0
 58 61  1  0  0  0  0
 58 59  1  0  0  0  0
 62 61  1  0  0  0  0
 62 64  1  0  0  0  0
 64 65  2  0  0  0  0
 64 63  1  0  0  0  0
M  END
>  <MODEL>
3

>  <REMARK>
 VINA RESULT:      -5.4      2.640      7.094
  Name = 
  27 active torsions:
  status: ('A' for Active; 'I' for Inactive)
    1  A    between atoms: C_1  and  C_5
    2  A    between atoms: C_1  and  C_52
    3  A    between atoms: C_3  and  C_21
    4  A    between atoms: O_4  and  C_7
    5  A    between atoms: O_4  and  C_20
    6  A    between atoms: C_5  and  C_12
    7  A    between atoms: C_6  and  C_16
    8  A    between atoms: C_7  and  C_61
    9  A    between atoms: C_7  and  C_65
   10  A    between atoms: C_8  and  C_25
   11  A    between atoms: C_9  and  C_33
   12  A    between atoms: C_10  and  C_30
   13  A    between atoms: C_11  and  C_27
   14  A    between atoms: C_11  and  N_40
   15  A    between atoms: C_12  and  C_65
   16  A    between atoms: C_20  and  C_60
   17  A    between atoms: C_21  and  C_58
   18  A    between atoms: C_23  and  C_28
   19  A    between atoms: C_26  and  N_54
   20  A    between atoms: C_27  and  C_29
   21  A    between atoms: C_28  and  C_60
   22  A    between atoms: C_29  and  C_61
   23  A    between atoms: C_33  and  C_35
   24  A    between atoms: C_35  and  C_63
   25  A    between atoms: C_43  and  N_49
   26  A    between atoms: N_49  and  C_50
   27  A    between atoms: C_55  and  C_58
                            x       y       z     vdW  Elec       q    Type
                         _______ _______ _______ _____ _____    ______ ____

>  <TORSDO>
F 27

$$$$
=
 OpenBabel11042416383D

 65 71  0  0  1  0  0  0  0  0999 V2000
  192.8630  173.1360  139.8120 C   0  0  1  0  0  3  0  0  0  0  0  0
  190.7770  173.6900  139.0470 C   0  0  1  0  0  3  0  0  0  0  0  0
  190.5300  173.1840  140.4740 C   0  0  1  0  0  3  0  0  0  0  0  0
  189.7490  172.0220  140.5060 O   0  0  0  0  0  1  0  0  0  0  0  0
  192.2540  172.4890  142.0780 N   0  0  0  0  0  0  0  0  0  0  0  0
  191.9000  172.8790  140.9020 C   0  0  0  0  0  0  0  0  0  0  0  0
  192.1400  173.5610  138.6780 O   0  0  0  0  0  0  0  0  0  0  0  0
  194.5140  176.1100  141.5210 C   0  0  0  0  0  3  0  0  0  0  0  0
  196.1330  175.0890  140.0400 C   0  0  0  0  0  3  0  0  0  0  0  0
  195.7990  176.0700  140.9770 C   0  0  0  0  0  3  0  0  0  0  0  0
  193.8890  174.1660  140.2000 C   0  0  0  0  0  0  0  0  0  0  0  0
  193.5630  175.1630  141.1340 C   0  0  0  0  0  3  0  0  0  0  0  0
  195.1850  174.1380  139.6420 C   0  0  0  0  0  0  0  0  0  0  0  0
  195.5770  173.1410  138.5910 C   0  0  0  0  0  2  0  0  0  0  0  0
  196.7800  173.6110  137.7720 C   0  0  0  0  0  2  0  0  0  0  0  0
  197.2980  172.5250  136.8340 C   0  0  1  0  0  3  0  0  0  0  0  0
  197.4500  171.3070  137.5590 O   0  0  0  0  0  0  0  0  0  0  0  0
  195.8880  170.9010  136.0430 C   0  0  0  0  0  0  0  0  0  0  0  0
  196.3040  172.2080  135.8580 O   0  0  0  0  0  0  0  0  0  0  0  0
  196.5700  170.3720  137.0320 C   0  0  0  0  0  0  0  0  0  0  0  0
  194.8480  170.2360  135.2570 C   0  0  0  0  0  3  0  0  0  0  0  0
  193.5910  170.6570  135.3090 C   0  0  0  0  0  3  0  0  0  0  0  0
  192.5380  169.9740  134.5130 C   0  0  0  0  0  2  0  0  0  0  0  0
  191.6720  169.1470  135.4380 C   0  0  0  0  0  1  0  0  0  0  0  0
  196.4240  169.0350  137.5100 N   0  0  0  0  0  2  0  0  0  0  0  0
  195.8270  168.8270  140.0230 C   0  0  0  0  0  2  0  0  0  0  0  0
  195.1860  169.9870  139.3100 C   0  0  1  0  0  3  0  0  0  0  0  0
  194.1250  168.5670  138.1670 O   0  0  0  0  0  0  0  0  0  0  0  0
  195.4680  168.7040  138.5550 C   0  0  1  0  0  0  0  0  0  0  0  0
  193.7690  169.7030  138.9030 C   0  0  0  0  0  2  0  0  0  0  0  0
  189.8570  173.1130  137.9670 C   0  0  0  0  0  2  0  0  0  0  0  0
  190.6510  172.5680  136.7860 C   0  0  0  0  0  2  0  0  0  0  0  0
  191.4540  173.5860  134.6090 C   0  0  0  0  0  2  0  0  0  0  0  0
  191.6060  175.7500  135.7920 O   0  0  0  0  0  0  0  0  0  0  0  0
  192.3390  174.7130  135.1750 C   0  0  0  0  0  2  0  0  0  0  0  0
  190.7460  176.3010  134.8250 C   0  0  0  0  0  2  0  0  0  0  0  0
  188.2920  176.5840  135.1180 C   0  0  0  0  0  1  0  0  0  0  0  0
  189.3020  174.4150  135.7960 C   0  0  0  0  0  2  0  0  0  0  0  0
  189.3830  175.5830  134.8020 C   0  0  2  0  0  3  0  0  0  0  0  0
  190.2370  173.2320  135.4820 C   0  0  2  0  0  3  0  0  0  0  0  0
  191.3030  172.2510  143.1350 C   0  0  0  0  0  2  0  0  0  0  0  0
  190.9460  173.5560  143.8260 C   0  0  0  0  0  2  0  0  0  0  0  0
  189.9430  173.3380  144.9540 C   0  0  0  0  0  2  0  0  0  0  0  0
  189.6200  174.6360  145.6810 C   0  0  0  0  0  2  0  0  0  0  0  0
  189.3770  175.7700  144.6970 C   0  0  2  0  0  3  0  0  0  0  0  0
  190.1590  177.0070  145.1220 C   0  0  0  0  0  2  0  0  0  0  0  0
  191.4640  177.1030  144.3460 C   0  0  0  0  0  2  0  0  0  0  0  0
  192.6500  177.1160  145.2980 C   0  0  0  0  0  2  0  0  0  0  0  0
  193.6960  176.0930  144.8820 C   0  0  0  0  0  2  0  0  0  0  0  0
  193.5930  174.8630  145.7270 C   0  0  0  0  0  0  0  0  0  0  0  0
  194.2620  173.6530  145.3640 N   0  0  0  0  0  2  0  0  0  0  0  0
  192.8820  174.8860  146.7630 O   0  0  0  0  0  0  0  0  0  0  0  0
  195.7440  171.8740  142.4710 C   0  0  0  0  0  1  0  0  0  0  0  0
  195.0930  173.5340  144.1770 C   0  0  2  0  0  3  0  0  0  0  0  0
  195.4050  172.0690  143.9350 C   0  0  2  0  0  3  0  0  0  0  0  0
  196.4430  172.9700  144.5690 C   0  0  0  0  0  2  0  0  0  0  0  0
  188.0030  176.0660  144.6540 O   0  0  0  0  0  0  0  0  0  0  0  0
  187.6330  176.4000  143.3310 C   0  0  1  0  0  0  0  0  0  0  0  0
  188.1120  177.6500  142.9570 F   0  0  0  0  0  0  0  0  0  0  0  0
  188.1440  175.3530  142.3530 C   0  0  0  0  0  1  0  0  0  0  0  0
  186.1140  176.4150  143.2320 C   0  0  0  0  0  2  0  0  0  0  0  0
  185.5250  177.6760  143.8440 C   0  0  0  0  0  2  0  0  0  0  0  0
  184.4710  178.0140  141.6120 O   0  0  0  0  0  0  0  0  0  0  0  0
  184.4240  178.1900  142.9880 C   0  0  0  0  0  0  0  0  0  0  0  0
  183.4590  178.8070  143.5110 O   0  0  0  0  0  1  0  0  0  0  0  0
  1 11  1  1  0  0  0
  1  6  1  0  0  0  0
  2 31  1  6  0  0  0
  2  3  1  0  0  0  0
  3  4  1  6  0  0  0
  3  6  1  0  0  0  0
  5 41  1  0  0  0  0
  6  5  2  0  0  0  0
  7  2  1  0  0  0  0
  7  1  1  0  0  0  0
  9 10  1  0  0  0  0
 10  8  2  0  0  0  0
 11 12  2  0  0  0  0
 12  8  1  0  0  0  0
 13  9  2  0  0  0  0
 13 11  1  0  0  0  0
 14 13  1  0  0  0  0
 15 14  1  0  0  0  0
 16 17  1  0  0  0  0
 16 15  1  1  0  0  0
 18 20  2  0  0  0  0
 19 18  1  0  0  0  0
 19 16  1  0  0  0  0
 20 25  1  0  0  0  0
 20 17  1  0  0  0  0
 21 22  2  0  0  0  0
 21 18  1  0  0  0  0
 23 22  1  0  0  0  0
 23 24  1  0  0  0  0
 27 30  1  1  0  0  0
 27 26  1  0  0  0  0
 28 29  1  0  0  0  0
 28 30  1  0  0  0  0
 29 25  1  6  0  0  0
 29 27  1  0  0  0  0
 29 26  1  0  0  0  0
 32 31  1  0  0  0  0
 33 35  1  0  0  0  0
 33 40  1  0  0  0  0
 35 34  1  0  0  0  0
 36 34  1  0  0  0  0
 39 36  1  0  0  0  0
 39 37  1  1  0  0  0
 39 38  1  0  0  0  0
 40 38  1  0  0  0  0
 40 32  1  1  0  0  0
 41 42  1  0  0  0  0
 42 43  1  0  0  0  0
 43 44  1  0  0  0  0
 45 46  1  1  0  0  0
 45 44  1  0  0  0  0
 47 46  1  0  0  0  0
 47 48  1  0  0  0  0
 49 48  1  0  0  0  0
 49 50  1  0  0  0  0
 50 52  2  0  0  0  0
 51 50  1  0  0  0  0
 54 56  1  0  0  0  0
 54 51  1  1  0  0  0
 55 53  1  6  0  0  0
 55 54  1  0  0  0  0
 55 56  1  0  0  0  0
 57 45  1  0  0  0  0
 58 60  1  6  0  0  0
 58 57  1  0  0  0  0
 59 58  1  0  0  0  0
 61 58  1  0  0  0  0
 61 62  1  0  0  0  0
 63 64  2  0  0  0  0
 64 65  1  0  0  0  0
 64 62  1  0  0  0  0
M  END
>  <MODEL>
4

>  <REMARK>
 VINA RESULT:      -5.3      2.462      6.527
  Name = 
  27 active torsions:
  status: ('A' for Active; 'I' for Inactive)
    1  A    between atoms: C_1  and  C_5
    2  A    between atoms: C_1  and  C_52
    3  A    between atoms: C_3  and  C_21
    4  A    between atoms: O_4  and  C_7
    5  A    between atoms: O_4  and  C_20
    6  A    between atoms: C_5  and  C_12
    7  A    between atoms: C_6  and  C_16
    8  A    between atoms: C_7  and  C_61
    9  A    between atoms: C_7  and  C_65
   10  A    between atoms: C_8  and  C_25
   11  A    between atoms: C_9  and  C_33
   12  A    between atoms: C_10  and  C_30
   13  A    between atoms: C_11  and  C_27
   14  A    between atoms: C_11  and  N_40
   15  A    between atoms: C_12  and  C_65
   16  A    between atoms: C_20  and  C_60
   17  A    between atoms: C_21  and  C_58
   18  A    between atoms: C_23  and  C_28
   19  A    between atoms: C_26  and  N_54
   20  A    between atoms: C_27  and  C_29
   21  A    between atoms: C_28  and  C_60
   22  A    between atoms: C_29  and  C_61
   23  A    between atoms: C_33  and  C_35
   24  A    between atoms: C_35  and  C_63
   25  A    between atoms: C_43  and  N_49
   26  A    between atoms: N_49  and  C_50
   27  A    between atoms: C_55  and  C_58
                            x       y       z     vdW  Elec       q    Type
                         _______ _______ _______ _____ _____    ______ ____

>  <TORSDO>
F 27

$$$$
=
 OpenBabel11042416383D

 65 71  0  0  1  0  0  0  0  0999 V2000
  189.2660  172.5200  138.6070 C   0  0  1  0  0  3  0  0  0  0  0  0
  190.9370  173.2630  137.2310 C   0  0  1  0  0  3  0  0  0  0  0  0
  189.8460  174.3360  137.1090 C   0  0  1  0  0  3  0  0  0  0  0  0
  189.3160  174.4220  135.8150 O   0  0  0  0  0  1  0  0  0  0  0  0
  187.7310  174.3920  138.3540 N   0  0  0  0  0  0  0  0  0  0  0  0
  188.8330  173.8080  138.0310 C   0  0  0  0  0  0  0  0  0  0  0  0
  190.5160  172.1840  138.0470 O   0  0  0  0  0  0  0  0  0  0  0  0
  188.2640  172.7680  142.2720 C   0  0  0  0  0  3  0  0  0  0  0  0
  190.6650  172.4940  142.1580 C   0  0  0  0  0  3  0  0  0  0  0  0
  189.4980  172.6420  142.9110 C   0  0  0  0  0  3  0  0  0  0  0  0
  189.3590  172.5780  140.1090 C   0  0  0  0  0  0  0  0  0  0  0  0
  188.1940  172.7350  140.8770 C   0  0  0  0  0  3  0  0  0  0  0  0
  190.6070  172.4660  140.7590 C   0  0  0  0  0  0  0  0  0  0  0  0
  191.8950  172.3620  139.9950 C   0  0  0  0  0  2  0  0  0  0  0  0
  192.7180  171.1460  140.4190 C   0  0  0  0  0  2  0  0  0  0  0  0
  194.1650  171.5120  140.7350 C   0  0  1  0  0  3  0  0  0  0  0  0
  194.2510  172.9100  141.0030 O   0  0  0  0  0  0  0  0  0  0  0  0
  194.8200  171.9090  142.8940 C   0  0  0  0  0  0  0  0  0  0  0  0
  194.5630  170.9130  141.9700 O   0  0  0  0  0  0  0  0  0  0  0  0
  194.6500  173.0780  142.3220 C   0  0  0  0  0  0  0  0  0  0  0  0
  195.2130  171.6770  144.2860 C   0  0  0  0  0  3  0  0  0  0  0  0
  196.4870  171.7480  144.6470 C   0  0  0  0  0  3  0  0  0  0  0  0
  196.8800  171.5070  146.0600 C   0  0  0  0  0  2  0  0  0  0  0  0
  196.4000  170.1350  146.4830 C   0  0  0  0  0  1  0  0  0  0  0  0
  194.8310  174.3420  142.9610 N   0  0  0  0  0  2  0  0  0  0  0  0
  197.2940  174.4670  142.1650 C   0  0  0  0  0  2  0  0  0  0  0  0
  196.3320  175.3360  141.4010 C   0  0  1  0  0  3  0  0  0  0  0  0
  196.0640  176.4320  143.1830 O   0  0  0  0  0  0  0  0  0  0  0  0
  196.0910  175.0620  142.8710 C   0  0  1  0  0  0  0  0  0  0  0  0
  196.3600  176.7660  141.8560 C   0  0  0  0  0  2  0  0  0  0  0  0
  191.5250  172.7590  135.9090 C   0  0  0  0  0  2  0  0  0  0  0  0
  192.9000  173.3600  135.6420 C   0  0  0  0  0  2  0  0  0  0  0  0
  193.8120  175.4270  136.7910 C   0  0  0  0  0  2  0  0  0  0  0  0
  196.0190  174.8660  135.8320 O   0  0  0  0  0  0  0  0  0  0  0  0
  194.9430  175.7780  135.8050 C   0  0  0  0  0  2  0  0  0  0  0  0
  196.5470  174.8640  137.1360 C   0  0  0  0  0  2  0  0  0  0  0  0
  196.8920  172.8210  138.5150 C   0  0  0  0  0  1  0  0  0  0  0  0
  194.7320  173.0570  137.3050 C   0  0  0  0  0  2  0  0  0  0  0  0
  195.8560  173.8140  138.0270 C   0  0  2  0  0  3  0  0  0  0  0  0
  193.5190  173.9200  136.9130 C   0  0  2  0  0  3  0  0  0  0  0  0
  187.3270  175.6540  137.7890 C   0  0  0  0  0  2  0  0  0  0  0  0
  186.7260  176.5440  138.8650 C   0  0  0  0  0  2  0  0  0  0  0  0
  187.4360  176.3630  140.2030 C   0  0  0  0  0  2  0  0  0  0  0  0
  187.3930  177.6340  141.0410 C   0  0  0  0  0  2  0  0  0  0  0  0
  187.8700  177.3710  142.4610 C   0  0  2  0  0  3  0  0  0  0  0  0
  186.8780  177.9520  143.4600 C   0  0  0  0  0  2  0  0  0  0  0  0
  186.0870  179.0850  142.8250 C   0  0  0  0  0  2  0  0  0  0  0  0
  184.6080  178.9560  143.1580 C   0  0  0  0  0  2  0  0  0  0  0  0
  183.9590  177.8510  142.3380 C   0  0  0  0  0  2  0  0  0  0  0  0
  183.4890  178.3800  141.0200 C   0  0  0  0  0  0  0  0  0  0  0  0
  182.0980  178.5340  140.7340 N   0  0  0  0  0  2  0  0  0  0  0  0
  184.3360  178.6690  140.1370 O   0  0  0  0  0  0  0  0  0  0  0  0
  178.7200  177.4100  141.7600 C   0  0  0  0  0  1  0  0  0  0  0  0
  181.0520  178.2120  141.6910 C   0  0  2  0  0  3  0  0  0  0  0  0
  179.7060  178.2660  140.9930 C   0  0  2  0  0  3  0  0  0  0  0  0
  180.1520  179.4160  141.8690 C   0  0  0  0  0  2  0  0  0  0  0  0
  189.1330  177.9580  142.6460 O   0  0  0  0  0  0  0  0  0  0  0  0
  190.0130  177.0140  143.2220 C   0  0  1  0  0  0  0  0  0  0  0  0
  190.0010  175.8050  142.5350 F   0  0  0  0  0  0  0  0  0  0  0  0
  191.4340  177.5570  143.2550 C   0  0  0  0  0  1  0  0  0  0  0  0
  189.5890  176.7550  144.6610 C   0  0  0  0  0  2  0  0  0  0  0  0
  190.0820  175.4050  145.1570 C   0  0  0  0  0  2  0  0  0  0  0  0
  190.8140  175.1480  147.5250 O   0  0  0  0  0  1  0  0  0  0  0  0
  189.7800  175.2540  146.6040 C   0  0  0  0  0  0  0  0  0  0  0  0
  188.5840  175.1970  146.9930 O   0  0  0  0  0  0  0  0  0  0  0  0
  1 11  1  1  0  0  0
  2 31  1  6  0  0  0
  2  7  1  0  0  0  0
  3  4  1  6  0  0  0
  3  2  1  0  0  0  0
  3  6  1  0  0  0  0
  6  5  2  0  0  0  0
  6  1  1  0  0  0  0
  7  1  1  0  0  0  0
  8 10  1  0  0  0  0
  9 10  2  0  0  0  0
 11 13  2  0  0  0  0
 11 12  1  0  0  0  0
 12  8  2  0  0  0  0
 13  9  1  0  0  0  0
 14 15  1  0  0  0  0
 14 13  1  0  0  0  0
 16 15  1  1  0  0  0
 16 17  1  0  0  0  0
 16 19  1  0  0  0  0
 17 20  1  0  0  0  0
 18 21  1  0  0  0  0
 19 18  1  0  0  0  0
 20 18  2  0  0  0  0
 20 25  1  0  0  0  0
 21 22  2  0  0  0  0
 22 23  1  0  0  0  0
 23 24  1  0  0  0  0
 26 29  1  0  0  0  0
 27 30  1  1  0  0  0
 27 26  1  0  0  0  0
 27 29  1  0  0  0  0
 29 25  1  1  0  0  0
 29 28  1  0  0  0  0
 30 28  1  0  0  0  0
 32 31  1  0  0  0  0
 33 40  1  0  0  0  0
 34 36  1  0  0  0  0
 35 34  1  0  0  0  0
 35 33  1  0  0  0  0
 36 39  1  0  0  0  0
 38 39  1  0  0  0  0
 39 37  1  6  0  0  0
 40 32  1  6  0  0  0
 40 38  1  0  0  0  0
 41  5  1  0  0  0  0
 41 42  1  0  0  0  0
 42 43  1  0  0  0  0
 43 44  1  0  0  0  0
 45 44  1  6  0  0  0
 45 57  1  0  0  0  0
 45 46  1  0  0  0  0
 47 48  1  0  0  0  0
 47 46  1  0  0  0  0
 49 48  1  0  0  0  0
 50 49  1  0  0  0  0
 51 50  1  0  0  0  0
 52 50  2  0  0  0  0
 54 51  1  6  0  0  0
 54 56  1  0  0  0  0
 55 54  1  0  0  0  0
 55 53  1  1  0  0  0
 55 56  1  0  0  0  0
 57 58  1  0  0  0  0
 58 60  1  6  0  0  0
 58 61  1  0  0  0  0
 59 58  1  0  0  0  0
 61 62  1  0  0  0  0
 62 64  1  0  0  0  0
 64 65  2  0  0  0  0
 64 63  1  0  0  0  0
M  END
>  <MODEL>
5

>  <REMARK>
 VINA RESULT:      -5.0      2.445      6.563
  Name = 
  27 active torsions:
  status: ('A' for Active; 'I' for Inactive)
    1  A    between atoms: C_1  and  C_5
    2  A    between atoms: C_1  and  C_52
    3  A    between atoms: C_3  and  C_21
    4  A    between atoms: O_4  and  C_7
    5  A    between atoms: O_4  and  C_20
    6  A    between atoms: C_5  and  C_12
    7  A    between atoms: C_6  and  C_16
    8  A    between atoms: C_7  and  C_61
    9  A    between atoms: C_7  and  C_65
   10  A    between atoms: C_8  and  C_25
   11  A    between atoms: C_9  and  C_33
   12  A    between atoms: C_10  and  C_30
   13  A    between atoms: C_11  and  C_27
   14  A    between atoms: C_11  and  N_40
   15  A    between atoms: C_12  and  C_65
   16  A    between atoms: C_20  and  C_60
   17  A    between atoms: C_21  and  C_58
   18  A    between atoms: C_23  and  C_28
   19  A    between atoms: C_26  and  N_54
   20  A    between atoms: C_27  and  C_29
   21  A    between atoms: C_28  and  C_60
   22  A    between atoms: C_29  and  C_61
   23  A    between atoms: C_33  and  C_35
   24  A    between atoms: C_35  and  C_63
   25  A    between atoms: C_43  and  N_49
   26  A    between atoms: N_49  and  C_50
   27  A    between atoms: C_55  and  C_58
                            x       y       z     vdW  Elec       q    Type
                         _______ _______ _______ _____ _____    ______ ____

>  <TORSDO>
F 27

$$$$
=
 OpenBabel11042416383D

 65 71  0  0  1  0  0  0  0  0999 V2000
  189.3060  172.3620  138.5240 C   0  0  1  0  0  3  0  0  0  0  0  0
  191.1920  173.0800  137.4420 C   0  0  1  0  0  3  0  0  0  0  0  0
  190.1390  174.1460  137.1080 C   0  0  1  0  0  3  0  0  0  0  0  0
  189.8430  174.2000  135.7400 O   0  0  0  0  0  1  0  0  0  0  0  0
  187.8400  174.2240  137.9660 N   0  0  0  0  0  0  0  0  0  0  0  0
  188.9820  173.6360  137.8520 C   0  0  0  0  0  0  0  0  0  0  0  0
  190.6340  172.0180  138.1970 O   0  0  0  0  0  0  0  0  0  0  0  0
  187.8210  173.1540  141.9390 C   0  0  0  0  0  3  0  0  0  0  0  0
  189.9120  171.9830  142.2730 C   0  0  0  0  0  3  0  0  0  0  0  0
  188.7740  172.6000  142.7970 C   0  0  0  0  0  3  0  0  0  0  0  0
  189.1380  172.4550  140.0170 C   0  0  0  0  0  0  0  0  0  0  0  0
  188.0020  173.0810  140.5560 C   0  0  0  0  0  3  0  0  0  0  0  0
  190.1050  171.9100  140.8880 C   0  0  0  0  0  0  0  0  0  0  0  0
  191.3720  171.2870  140.3780 C   0  0  0  0  0  2  0  0  0  0  0  0
  192.0070  170.3510  141.4070 C   0  0  0  0  0  2  0  0  0  0  0  0
  193.2970  170.9240  141.9870 C   0  0  1  0  0  3  0  0  0  0  0  0
  193.7760  171.9650  141.1390 O   0  0  0  0  0  0  0  0  0  0  0  0
  193.2920  172.9460  143.0630 C   0  0  0  0  0  0  0  0  0  0  0  0
  193.0230  171.5980  143.2160 O   0  0  0  0  0  0  0  0  0  0  0  0
  193.7450  173.1560  141.8490 C   0  0  0  0  0  0  0  0  0  0  0  0
  193.0900  173.9620  144.0980 C   0  0  0  0  0  3  0  0  0  0  0  0
  193.9450  174.0760  145.1060 C   0  0  0  0  0  3  0  0  0  0  0  0
  193.7330  175.1040  146.1570 C   0  0  0  0  0  2  0  0  0  0  0  0
  194.5630  176.3270  145.8320 C   0  0  0  0  0  1  0  0  0  0  0  0
  194.1370  174.4250  141.3250 N   0  0  0  0  0  2  0  0  0  0  0  0
  196.3550  174.9720  140.1040 C   0  0  0  0  0  2  0  0  0  0  0  0
  195.5860  176.1690  140.5930 C   0  0  1  0  0  3  0  0  0  0  0  0
  195.9590  175.4790  142.5510 O   0  0  0  0  0  0  0  0  0  0  0  0
  195.5210  174.8670  141.3650 C   0  0  1  0  0  0  0  0  0  0  0  0
  196.1170  176.7030  141.8920 C   0  0  0  0  0  2  0  0  0  0  0  0
  192.0000  172.5470  136.2550 C   0  0  0  0  0  2  0  0  0  0  0  0
  193.4970  172.7490  136.4600 C   0  0  0  0  0  2  0  0  0  0  0  0
  193.5310  170.2340  136.1450 C   0  0  0  0  0  2  0  0  0  0  0  0
  194.5120  170.0640  138.4070 O   0  0  0  0  0  0  0  0  0  0  0  0
  193.3730  169.7990  137.6150 C   0  0  0  0  0  2  0  0  0  0  0  0
  195.5950  169.3630  137.8480 C   0  0  0  0  0  2  0  0  0  0  0  0
  197.7770  170.3920  137.2380 C   0  0  0  0  0  1  0  0  0  0  0  0
  195.7000  171.5890  136.5750 C   0  0  0  0  0  2  0  0  0  0  0  0
  196.3390  170.2100  136.7980 C   0  0  2  0  0  3  0  0  0  0  0  0
  194.2930  171.5570  135.9510 C   0  0  2  0  0  3  0  0  0  0  0  0
  187.5420  175.4720  137.3100 C   0  0  0  0  0  2  0  0  0  0  0  0
  186.7580  176.3810  138.2420 C   0  0  0  0  0  2  0  0  0  0  0  0
  187.0470  176.0670  139.7060 C   0  0  0  0  0  2  0  0  0  0  0  0
  187.5650  177.2880  140.4530 C   0  0  0  0  0  2  0  0  0  0  0  0
  187.9830  176.9280  141.8710 C   0  0  2  0  0  3  0  0  0  0  0  0
  186.7830  177.0130  142.8060 C   0  0  0  0  0  2  0  0  0  0  0  0
  186.0580  178.3380  142.6200 C   0  0  0  0  0  2  0  0  0  0  0  0
  186.4470  179.3170  143.7170 C   0  0  0  0  0  2  0  0  0  0  0  0
  185.2340  180.0830  144.2210 C   0  0  0  0  0  2  0  0  0  0  0  0
  184.1140  179.1430  144.5390 C   0  0  0  0  0  0  0  0  0  0  0  0
  184.0360  178.4800  145.8030 N   0  0  0  0  0  2  0  0  0  0  0  0
  183.2390  178.9110  143.6660 O   0  0  0  0  0  0  0  0  0  0  0  0
  187.3660  178.1730  147.3990 C   0  0  0  0  0  1  0  0  0  0  0  0
  185.0110  178.6790  146.8620 C   0  0  2  0  0  3  0  0  0  0  0  0
  186.1170  177.6500  146.7200 C   0  0  2  0  0  3  0  0  0  0  0  0
  185.0310  177.4570  147.7570 C   0  0  0  0  0  2  0  0  0  0  0  0
  188.9870  177.8120  142.3020 O   0  0  0  0  0  0  0  0  0  0  0  0
  189.8740  177.1340  143.1690 C   0  0  1  0  0  0  0  0  0  0  0  0
  189.7600  175.7530  143.0520 F   0  0  0  0  0  0  0  0  0  0  0  0
  191.3120  177.5450  142.8910 C   0  0  0  0  0  1  0  0  0  0  0  0
  189.5560  177.5230  144.6060 C   0  0  0  0  0  2  0  0  0  0  0  0
  190.5840  176.9660  145.5780 C   0  0  0  0  0  2  0  0  0  0  0  0
  190.5360  175.5380  147.6200 O   0  0  0  0  0  1  0  0  0  0  0  0
  189.9730  175.8880  146.3990 C   0  0  0  0  0  0  0  0  0  0  0  0
  188.9600  175.2740  145.9750 O   0  0  0  0  0  0  0  0  0  0  0  0
  1 11  1  1  0  0  0
  2 31  1  6  0  0  0
  2  7  1  0  0  0  0
  3  4  1  6  0  0  0
  3  2  1  0  0  0  0
  3  6  1  0  0  0  0
  6  5  2  0  0  0  0
  6  1  1  0  0  0  0
  7  1  1  0  0  0  0
  8 10  1  0  0  0  0
  9 10  2  0  0  0  0
 11 12  1  0  0  0  0
 11 13  2  0  0  0  0
 12  8  2  0  0  0  0
 13  9  1  0  0  0  0
 14 13  1  0  0  0  0
 14 15  1  0  0  0  0
 16 15  1  6  0  0  0
 16 19  1  0  0  0  0
 17 20  1  0  0  0  0
 17 16  1  0  0  0  0
 18 19  1  0  0  0  0
 18 21  1  0  0  0  0
 20 18  2  0  0  0  0
 21 22  2  0  0  0  0
 22 23  1  0  0  0  0
 24 23  1  0  0  0  0
 25 20  1  0  0  0  0
 26 29  1  0  0  0  0
 27 26  1  6  0  0  0
 27 29  1  0  0  0  0
 27 30  1  0  0  0  0
 29 25  1  6  0  0  0
 29 28  1  0  0  0  0
 30 28  1  0  0  0  0
 31 32  1  0  0  0  0
 33 35  1  0  0  0  0
 35 34  1  0  0  0  0
 36 34  1  0  0  0  0
 38 39  1  0  0  0  0
 39 37  1  1  0  0  0
 39 36  1  0  0  0  0
 40 33  1  0  0  0  0
 40 32  1  1  0  0  0
 40 38  1  0  0  0  0
 41  5  1  0  0  0  0
 41 42  1  0  0  0  0
 42 43  1  0  0  0  0
 43 44  1  0  0  0  0
 45 44  1  6  0  0  0
 45 57  1  0  0  0  0
 45 46  1  0  0  0  0
 47 46  1  0  0  0  0
 47 48  1  0  0  0  0
 48 49  1  0  0  0  0
 49 50  1  0  0  0  0
 50 51  1  0  0  0  0
 52 50  2  0  0  0  0
 54 51  1  6  0  0  0
 54 56  1  0  0  0  0
 55 54  1  0  0  0  0
 55 53  1  1  0  0  0
 55 56  1  0  0  0  0
 57 58  1  0  0  0  0
 58 60  1  6  0  0  0
 58 61  1  0  0  0  0
 59 58  1  0  0  0  0
 61 62  1  0  0  0  0
 62 64  1  0  0  0  0
 64 63  1  0  0  0  0
 65 64  2  0  0  0  0
M  END
>  <MODEL>
6

>  <REMARK>
 VINA RESULT:      -5.0      2.252      6.357
  Name = 
  27 active torsions:
  status: ('A' for Active; 'I' for Inactive)
    1  A    between atoms: C_1  and  C_5
    2  A    between atoms: C_1  and  C_52
    3  A    between atoms: C_3  and  C_21
    4  A    between atoms: O_4  and  C_7
    5  A    between atoms: O_4  and  C_20
    6  A    between atoms: C_5  and  C_12
    7  A    between atoms: C_6  and  C_16
    8  A    between atoms: C_7  and  C_61
    9  A    between atoms: C_7  and  C_65
   10  A    between atoms: C_8  and  C_25
   11  A    between atoms: C_9  and  C_33
   12  A    between atoms: C_10  and  C_30
   13  A    between atoms: C_11  and  C_27
   14  A    between atoms: C_11  and  N_40
   15  A    between atoms: C_12  and  C_65
   16  A    between atoms: C_20  and  C_60
   17  A    between atoms: C_21  and  C_58
   18  A    between atoms: C_23  and  C_28
   19  A    between atoms: C_26  and  N_54
   20  A    between atoms: C_27  and  C_29
   21  A    between atoms: C_28  and  C_60
   22  A    between atoms: C_29  and  C_61
   23  A    between atoms: C_33  and  C_35
   24  A    between atoms: C_35  and  C_63
   25  A    between atoms: C_43  and  N_49
   26  A    between atoms: N_49  and  C_50
   27  A    between atoms: C_55  and  C_58
                            x       y       z     vdW  Elec       q    Type
                         _______ _______ _______ _____ _____    ______ ____

>  <TORSDO>
F 27

$$$$
=
 OpenBabel11042416383D

 65 71  0  0  1  0  0  0  0  0999 V2000
  190.6290  172.9520  140.7170 C   0  0  1  0  0  3  0  0  0  0  0  0
  191.1350  171.6480  142.5300 C   0  0  1  0  0  3  0  0  0  0  0  0
  192.2530  172.7000  142.5010 C   0  0  1  0  0  3  0  0  0  0  0  0
  193.5150  172.1370  142.2740 O   0  0  0  0  0  1  0  0  0  0  0  0
  192.4240  174.5820  140.9340 N   0  0  0  0  0  0  0  0  0  0  0  0
  191.8470  173.5040  141.3430 C   0  0  0  0  0  0  0  0  0  0  0  0
  190.2630  171.7860  141.4210 O   0  0  0  0  0  0  0  0  0  0  0  0
  188.0560  175.4810  141.9330 C   0  0  0  0  0  3  0  0  0  0  0  0
  187.8130  175.2420  139.5370 C   0  0  0  0  0  3  0  0  0  0  0  0
  187.4220  175.8350  140.7400 C   0  0  0  0  0  3  0  0  0  0  0  0
  189.4970  173.9450  140.7170 C   0  0  0  0  0  0  0  0  0  0  0  0
  189.0880  174.5410  141.9220 C   0  0  0  0  0  3  0  0  0  0  0  0
  188.8440  174.2940  139.5160 C   0  0  0  0  0  0  0  0  0  0  0  0
  189.1880  173.6460  138.2060 C   0  0  0  0  0  2  0  0  0  0  0  0
  188.7270  172.1890  138.1480 C   0  0  0  0  0  2  0  0  0  0  0  0
  189.7010  171.3080  137.3710 C   0  0  1  0  0  3  0  0  0  0  0  0
  190.7560  172.1140  136.8510 O   0  0  0  0  0  0  0  0  0  0  0  0
  191.7220  170.7260  138.2800 C   0  0  0  0  0  0  0  0  0  0  0  0
  190.3740  170.4180  138.2640 O   0  0  0  0  0  0  0  0  0  0  0  0
  191.9450  171.7110  137.4420 C   0  0  0  0  0  0  0  0  0  0  0  0
  192.7230  170.0530  139.1100 C   0  0  0  0  0  3  0  0  0  0  0  0
  193.5840  169.2010  138.5700 C   0  0  0  0  0  3  0  0  0  0  0  0
  194.5940  168.5170  139.4180 C   0  0  0  0  0  2  0  0  0  0  0  0
  195.9470  168.5980  138.7440 C   0  0  0  0  0  1  0  0  0  0  0  0
  193.2210  172.2970  137.1820 N   0  0  0  0  0  2  0  0  0  0  0  0
  195.0590  172.8680  138.9160 C   0  0  0  0  0  2  0  0  0  0  0  0
  195.2110  173.5440  137.5800 C   0  0  1  0  0  3  0  0  0  0  0  0
  193.4250  174.5780  138.0150 O   0  0  0  0  0  0  0  0  0  0  0  0
  193.8270  173.2360  138.1120 C   0  0  1  0  0  0  0  0  0  0  0  0
  194.7020  174.9570  137.5880 C   0  0  0  0  0  2  0  0  0  0  0  0
  191.5910  170.1960  142.6960 C   0  0  0  0  0  2  0  0  0  0  0  0
  192.3740  169.9990  143.9890 C   0  0  0  0  0  2  0  0  0  0  0  0
  193.4720  168.1660  145.3520 C   0  0  0  0  0  2  0  0  0  0  0  0
  195.4690  169.6130  145.5070 O   0  0  0  0  0  0  0  0  0  0  0  0
  194.4020  169.0310  146.2250 C   0  0  0  0  0  2  0  0  0  0  0  0
  196.2260  168.5710  144.9440 C   0  0  0  0  0  2  0  0  0  0  0  0
  196.8260  168.4060  142.5340 C   0  0  0  0  0  1  0  0  0  0  0  0
  194.4810  168.9970  143.1120 C   0  0  0  0  0  2  0  0  0  0  0  0
  195.7150  168.1910  143.5410 C   0  0  2  0  0  3  0  0  0  0  0  0
  193.2130  168.7310  143.9440 C   0  0  2  0  0  3  0  0  0  0  0  0
  193.6080  175.1140  141.5610 C   0  0  0  0  0  2  0  0  0  0  0  0
  193.4340  176.5980  141.8410 C   0  0  0  0  0  2  0  0  0  0  0  0
  192.9830  176.8480  143.2770 C   0  0  0  0  0  2  0  0  0  0  0  0
  192.9140  175.5560  144.0800 C   0  0  0  0  0  2  0  0  0  0  0  0
  192.1030  175.7450  145.3530 C   0  0  2  0  0  3  0  0  0  0  0  0
  192.7330  174.9570  146.4940 C   0  0  0  0  0  2  0  0  0  0  0  0
  194.1610  174.5640  146.1430 C   0  0  0  0  0  2  0  0  0  0  0  0
  194.2170  173.1150  145.6830 C   0  0  0  0  0  2  0  0  0  0  0  0
  195.5360  172.8130  144.9880 C   0  0  0  0  0  2  0  0  0  0  0  0
  196.6230  173.6940  145.5180 C   0  0  0  0  0  0  0  0  0  0  0  0
  197.1150  174.8040  144.7640 N   0  0  0  0  0  2  0  0  0  0  0  0
  197.1330  173.4350  146.6380 O   0  0  0  0  0  0  0  0  0  0  0  0
  197.3290  175.4030  141.1130 C   0  0  0  0  0  1  0  0  0  0  0  0
  196.5920  175.1660  143.4570 C   0  0  2  0  0  3  0  0  0  0  0  0
  197.7430  175.5830  142.5590 C   0  0  2  0  0  3  0  0  0  0  0  0
  196.8630  176.6340  143.2010 C   0  0  0  0  0  2  0  0  0  0  0  0
  190.7860  175.3020  145.1380 O   0  0  0  0  0  0  0  0  0  0  0  0
  189.8970  176.0630  145.9310 C   0  0  1  0  0  0  0  0  0  0  0  0
  189.7870  175.5550  147.2200 F   0  0  0  0  0  0  0  0  0  0  0  0
  190.3490  177.5140  146.0000 C   0  0  0  0  0  1  0  0  0  0  0  0
  188.5190  176.0440  145.2860 C   0  0  0  0  0  2  0  0  0  0  0  0
  187.7260  177.2980  145.6180 C   0  0  0  0  0  2  0  0  0  0  0  0
  185.2490  177.0360  145.6890 O   0  0  0  0  0  0  0  0  0  0  0  0
  186.4750  176.9330  146.3330 C   0  0  0  0  0  0  0  0  0  0  0  0
  186.5250  176.5550  147.5330 O   0  0  0  0  0  1  0  0  0  0  0  0
  1 11  1  1  0  0  0
  1  6  1  0  0  0  0
  1  7  1  0  0  0  0
  2 31  1  6  0  0  0
  3  4  1  6  0  0  0
  3  2  1  0  0  0  0
  5  6  2  0  0  0  0
  5 41  1  0  0  0  0
  6  3  1  0  0  0  0
  7  2  1  0  0  0  0
  9 10  1  0  0  0  0
 10  8  2  0  0  0  0
 11 12  2  0  0  0  0
 12  8  1  0  0  0  0
 13  9  2  0  0  0  0
 13 11  1  0  0  0  0
 14 13  1  0  0  0  0
 15 14  1  0  0  0  0
 16 15  1  1  0  0  0
 16 19  1  0  0  0  0
 17 16  1  0  0  0  0
 17 20  1  0  0  0  0
 18 21  1  0  0  0  0
 19 18  1  0  0  0  0
 20 18  2  0  0  0  0
 22 21  2  0  0  0  0
 22 23  1  0  0  0  0
 24 23  1  0  0  0  0
 25 20  1  0  0  0  0
 27 30  1  1  0  0  0
 27 29  1  0  0  0  0
 27 26  1  0  0  0  0
 28 29  1  0  0  0  0
 29 25  1  6  0  0  0
 29 26  1  0  0  0  0
 30 28  1  0  0  0  0
 31 32  1  0  0  0  0
 33 35  1  0  0  0  0
 34 35  1  0  0  0  0
 36 34  1  0  0  0  0
 38 39  1  0  0  0  0
 38 40  1  0  0  0  0
 39 37  1  6  0  0  0
 39 36  1  0  0  0  0
 40 32  1  1  0  0  0
 40 33  1  0  0  0  0
 41 42  1  0  0  0  0
 42 43  1  0  0  0  0
 43 44  1  0  0  0  0
 45 44  1  6  0  0  0
 45 46  1  0  0  0  0
 47 46  1  0  0  0  0
 48 47  1  0  0  0  0
 49 50  1  0  0  0  0
 49 48  1  0  0  0  0
 50 52  2  0  0  0  0
 51 50  1  0  0  0  0
 54 51  1  1  0  0  0
 55 53  1  6  0  0  0
 55 56  1  0  0  0  0
 55 54  1  0  0  0  0
 56 54  1  0  0  0  0
 57 45  1  0  0  0  0
 57 58  1  0  0  0  0
 58 60  1  1  0  0  0
 58 59  1  0  0  0  0
 61 62  1  0  0  0  0
 61 58  1  0  0  0  0
 62 64  1  0  0  0  0
 63 64  2  0  0  0  0
 64 65  1  0  0  0  0
M  END
>  <MODEL>
7

>  <REMARK>
 VINA RESULT:      -4.9      2.567      6.891
  Name = 
  27 active torsions:
  status: ('A' for Active; 'I' for Inactive)
    1  A    between atoms: C_1  and  C_5
    2  A    between atoms: C_1  and  C_52
    3  A    between atoms: C_3  and  C_21
    4  A    between atoms: O_4  and  C_7
    5  A    between atoms: O_4  and  C_20
    6  A    between atoms: C_5  and  C_12
    7  A    between atoms: C_6  and  C_16
    8  A    between atoms: C_7  and  C_61
    9  A    between atoms: C_7  and  C_65
   10  A    between atoms: C_8  and  C_25
   11  A    between atoms: C_9  and  C_33
   12  A    between atoms: C_10  and  C_30
   13  A    between atoms: C_11  and  C_27
   14  A    between atoms: C_11  and  N_40
   15  A    between atoms: C_12  and  C_65
   16  A    between atoms: C_20  and  C_60
   17  A    between atoms: C_21  and  C_58
   18  A    between atoms: C_23  and  C_28
   19  A    between atoms: C_26  and  N_54
   20  A    between atoms: C_27  and  C_29
   21  A    between atoms: C_28  and  C_60
   22  A    between atoms: C_29  and  C_61
   23  A    between atoms: C_33  and  C_35
   24  A    between atoms: C_35  and  C_63
   25  A    between atoms: C_43  and  N_49
   26  A    between atoms: N_49  and  C_50
   27  A    between atoms: C_55  and  C_58
                            x       y       z     vdW  Elec       q    Type
                         _______ _______ _______ _____ _____    ______ ____

>  <TORSDO>
F 27

$$$$
=
 OpenBabel11042416383D

 65 71  0  0  1  0  0  0  0  0999 V2000
  188.7760  174.7050  141.8320 C   0  0  1  0  0  3  0  0  0  0  0  0
  190.6810  175.5390  142.7900 C   0  0  1  0  0  3  0  0  0  0  0  0
  190.8320  174.0170  142.9210 C   0  0  1  0  0  3  0  0  0  0  0  0
  190.8520  173.5900  144.2540 O   0  0  0  0  0  1  0  0  0  0  0  0
  189.2780  172.3320  142.0400 N   0  0  0  0  0  0  0  0  0  0  0  0
  189.6000  173.5590  142.2670 C   0  0  0  0  0  0  0  0  0  0  0  0
  189.4290  175.8910  142.2280 O   0  0  0  0  0  0  0  0  0  0  0  0
  189.0410  173.7780  138.1490 C   0  0  0  0  0  3  0  0  0  0  0  0
  187.3900  175.5330  138.3750 C   0  0  0  0  0  3  0  0  0  0  0  0
  188.1020  174.6360  137.5740 C   0  0  0  0  0  3  0  0  0  0  0  0
  188.5460  174.7000  140.3450 C   0  0  0  0  0  0  0  0  0  0  0  0
  189.2620  173.8090  139.5280 C   0  0  0  0  0  3  0  0  0  0  0  0
  187.6090  175.5760  139.7570 C   0  0  0  0  0  0  0  0  0  0  0  0
  186.8600  176.5970  140.5640 C   0  0  0  0  0  2  0  0  0  0  0  0
  185.7770  177.2980  139.7420 C   0  0  0  0  0  2  0  0  0  0  0  0
  185.2500  178.5510  140.4350 C   0  0  1  0  0  3  0  0  0  0  0  0
  183.8320  178.4630  140.5570 O   0  0  0  0  0  0  0  0  0  0  0  0
  184.6050  178.4820  142.6320 C   0  0  1  0  0  3  0  0  0  0  0  0
  185.6980  178.5850  141.7910 O   0  0  0  0  0  0  0  0  0  0  0  0
  183.5120  178.4240  141.9070 C   0  0  0  0  0  0  0  0  0  0  0  0
  184.6760  178.4400  144.0940 C   0  0  0  0  0  3  0  0  0  0  0  0
  184.9780  177.3110  144.7210 C   0  0  0  0  0  3  0  0  0  0  0  0
  185.0440  177.2710  146.2050 C   0  0  0  0  0  2  0  0  0  0  0  0
  185.6830  178.5470  146.7090 C   0  0  0  0  0  1  0  0  0  0  0  0
  182.1860  178.3210  142.4250 N   0  0  0  0  0  0  0  0  0  0  0  0
  179.6980  177.7920  141.9280 C   0  0  0  0  0  2  0  0  0  0  0  0
  179.9810  179.2170  142.3220 C   0  0  1  0  0  3  0  0  0  0  0  0
  181.0820  179.3860  140.5320 O   0  0  0  0  0  0  0  0  0  0  0  0
  181.0240  178.4280  141.5580 C   0  0  1  0  0  0  0  0  0  0  0  0
  180.0680  180.1360  141.1380 C   0  0  0  0  0  2  0  0  0  0  0  0
  190.9630  176.3470  144.0600 C   0  0  0  0  0  2  0  0  0  0  0  0
  192.4160  176.8020  144.1240 C   0  0  0  0  0  2  0  0  0  0  0  0
  194.2610  177.2060  145.8150 C   0  0  0  0  0  2  0  0  0  0  0  0
  195.7670  175.9310  144.3290 O   0  0  0  0  0  0  0  0  0  0  0  0
  195.4720  177.2040  144.8630 C   0  0  0  0  0  2  0  0  0  0  0  0
  196.0420  175.0680  145.4040 C   0  0  0  0  0  2  0  0  0  0  0  0
  194.9310  172.8710  145.7680 C   0  0  0  0  0  1  0  0  0  0  0  0
  193.4990  174.8130  145.1660 C   0  0  0  0  0  2  0  0  0  0  0  0
  194.7660  174.3700  145.9120 C   0  0  2  0  0  3  0  0  0  0  0  0
  193.1060  176.2870  145.3780 C   0  0  2  0  0  3  0  0  0  0  0  0
  190.0970  171.2240  142.4630 C   0  0  0  0  0  2  0  0  0  0  0  0
  190.5270  170.4000  141.2610 C   0  0  0  0  0  2  0  0  0  0  0  0
  191.9670  170.7030  140.8590 C   0  0  0  0  0  2  0  0  0  0  0  0
  192.8470  170.9680  142.0720 C   0  0  0  0  0  2  0  0  0  0  0  0
  194.3010  170.6280  141.7790 C   0  0  2  0  0  3  0  0  0  0  0  0
  194.5140  169.1230  141.8760 C   0  0  0  0  0  2  0  0  0  0  0  0
  195.4530  168.6480  140.7770 C   0  0  0  0  0  2  0  0  0  0  0  0
  195.0790  169.2820  139.4460 C   0  0  0  0  0  2  0  0  0  0  0  0
  193.9990  168.4750  138.7410 C   0  0  0  0  0  2  0  0  0  0  0  0
  194.0220  168.7400  137.2690 C   0  0  0  0  0  0  0  0  0  0  0  0
  193.0600  169.5990  136.6520 N   0  0  0  0  0  2  0  0  0  0  0  0
  194.8880  168.1720  136.5550 O   0  0  0  0  0  0  0  0  0  0  0  0
  189.5970  170.1360  137.8540 C   0  0  0  0  0  1  0  0  0  0  0  0
  192.0180  170.2830  137.3990 C   0  0  2  0  0  3  0  0  0  0  0  0
  190.6670  169.9320  136.8020 C   0  0  2  0  0  3  0  0  0  0  0  0
  191.3120  171.2630  136.4840 C   0  0  0  0  0  2  0  0  0  0  0  0
  195.1300  171.2880  142.7030 O   0  0  0  0  0  0  0  0  0  0  0  0
  195.5330  172.5340  142.1710 C   0  0  1  0  0  0  0  0  0  0  0  0
  194.6050  173.5350  142.4340 F   0  0  0  0  0  0  0  0  0  0  0  0
  196.8860  172.9430  142.7320 C   0  0  0  0  0  1  0  0  0  0  0  0
  195.6850  172.4020  140.6620 C   0  0  0  0  0  2  0  0  0  0  0  0
  195.9940  173.7400  140.0100 C   0  0  0  0  0  2  0  0  0  0  0  0
  194.5470  175.6270  139.2650 O   0  0  0  0  0  1  0  0  0  0  0  0
  194.7860  174.2600  139.3190 C   0  0  0  0  0  0  0  0  0  0  0  0
  193.9640  173.4580  138.8040 O   0  0  0  0  0  0  0  0  0  0  0  0
  1 11  1  6  0  0  0
  1  7  1  0  0  0  0
  1  6  1  0  0  0  0
  2  3  1  0  0  0  0
  2 31  1  1  0  0  0
  3  4  1  1  0  0  0
  5  6  2  0  0  0  0
  5 41  1  0  0  0  0
  6  3  1  0  0  0  0
  7  2  1  0  0  0  0
  8 12  1  0  0  0  0
  9 13  2  0  0  0  0
 10  8  2  0  0  0  0
 10  9  1  0  0  0  0
 12 11  2  0  0  0  0
 13 11  1  0  0  0  0
 13 14  1  0  0  0  0
 15 14  1  0  0  0  0
 16 15  1  1  0  0  0
 16 17  1  0  0  0  0
 16 19  1  0  0  0  0
 17 20  1  0  0  0  0
 18 21  1  6  0  0  0
 19 18  1  0  0  0  0
 20 25  2  0  0  0  0
 20 18  1  0  0  0  0
 21 22  2  0  0  0  0
 22 23  1  0  0  0  0
 23 24  1  0  0  0  0
 26 27  1  0  0  0  0
 27 30  1  6  0  0  0
 28 30  1  0  0  0  0
 28 29  1  0  0  0  0
 29 26  1  0  0  0  0
 29 27  1  0  0  0  0
 29 25  1  1  0  0  0
 31 32  1  0  0  0  0
 34 35  1  0  0  0  0
 34 36  1  0  0  0  0
 35 33  1  0  0  0  0
 36 39  1  0  0  0  0
 38 40  1  0  0  0  0
 38 39  1  0  0  0  0
 39 37  1  6  0  0  0
 40 32  1  6  0  0  0
 40 33  1  0  0  0  0
 42 41  1  0  0  0  0
 43 42  1  0  0  0  0
 43 44  1  0  0  0  0
 45 46  1  1  0  0  0
 45 44  1  0  0  0  0
 45 57  1  0  0  0  0
 47 46  1  0  0  0  0
 48 47  1  0  0  0  0
 49 48  1  0  0  0  0
 50 49  1  0  0  0  0
 51 50  1  0  0  0  0
 52 50  2  0  0  0  0
 54 51  1  6  0  0  0
 55 54  1  0  0  0  0
 55 53  1  1  0  0  0
 56 55  1  0  0  0  0
 56 54  1  0  0  0  0
 58 59  1  0  0  0  0
 58 57  1  0  0  0  0
 58 60  1  1  0  0  0
 61 58  1  0  0  0  0
 62 61  1  0  0  0  0
 63 64  1  0  0  0  0
 64 62  1  0  0  0  0
 65 64  2  0  0  0  0
M  END
>  <MODEL>
8

>  <REMARK>
 VINA RESULT:      -4.9      2.958      9.915
  Name = 
  27 active torsions:
  status: ('A' for Active; 'I' for Inactive)
    1  A    between atoms: C_1  and  C_5
    2  A    between atoms: C_1  and  C_52
    3  A    between atoms: C_3  and  C_21
    4  A    between atoms: O_4  and  C_7
    5  A    between atoms: O_4  and  C_20
    6  A    between atoms: C_5  and  C_12
    7  A    between atoms: C_6  and  C_16
    8  A    between atoms: C_7  and  C_61
    9  A    between atoms: C_7  and  C_65
   10  A    between atoms: C_8  and  C_25
   11  A    between atoms: C_9  and  C_33
   12  A    between atoms: C_10  and  C_30
   13  A    between atoms: C_11  and  C_27
   14  A    between atoms: C_11  and  N_40
   15  A    between atoms: C_12  and  C_65
   16  A    between atoms: C_20  and  C_60
   17  A    between atoms: C_21  and  C_58
   18  A    between atoms: C_23  and  C_28
   19  A    between atoms: C_26  and  N_54
   20  A    between atoms: C_27  and  C_29
   21  A    between atoms: C_28  and  C_60
   22  A    between atoms: C_29  and  C_61
   23  A    between atoms: C_33  and  C_35
   24  A    between atoms: C_35  and  C_63
   25  A    between atoms: C_43  and  N_49
   26  A    between atoms: N_49  and  C_50
   27  A    between atoms: C_55  and  C_58
                            x       y       z     vdW  Elec       q    Type
                         _______ _______ _______ _____ _____    ______ ____

>  <TORSDO>
F 27

$$$$
=
 OpenBabel11042416383D

 65 71  0  0  1  0  0  0  0  0999 V2000
  193.0700  173.9440  143.7210 C   0  0  1  0  0  3  0  0  0  0  0  0
  194.7980  174.6490  145.0470 C   0  0  1  0  0  3  0  0  0  0  0  0
  194.1890  175.9490  144.5030 C   0  0  1  0  0  3  0  0  0  0  0  0
  195.0790  176.6610  143.6880 O   0  0  0  0  0  1  0  0  0  0  0  0
  192.1980  176.1230  143.0770 N   0  0  0  0  0  0  0  0  0  0  0  0
  193.0840  175.4200  143.6950 C   0  0  0  0  0  0  0  0  0  0  0  0
  194.1660  173.5080  144.4950 O   0  0  0  0  0  0  0  0  0  0  0  0
  189.8500  173.6740  145.7340 C   0  0  0  0  0  3  0  0  0  0  0  0
  190.0640  171.6840  144.3740 C   0  0  0  0  0  3  0  0  0  0  0  0
  189.3510  172.4430  145.3050 C   0  0  0  0  0  3  0  0  0  0  0  0
  191.7810  173.4040  144.2810 C   0  0  0  0  0  0  0  0  0  0  0  0
  191.0590  174.1520  145.2250 C   0  0  0  0  0  3  0  0  0  0  0  0
  191.2810  172.1530  143.8610 C   0  0  0  0  0  0  0  0  0  0  0  0
  192.0360  171.2740  142.9060 C   0  0  0  0  0  2  0  0  0  0  0  0
  191.5930  171.4860  141.4570 C   0  0  0  0  0  2  0  0  0  0  0  0
  192.7650  171.8240  140.5410 C   0  0  1  0  0  3  0  0  0  0  0  0
  192.7220  170.9860  139.3890 O   0  0  0  0  0  0  0  0  0  0  0  0
  192.4350  173.0470  138.6320 C   0  0  0  0  0  0  0  0  0  0  0  0
  192.6010  173.1370  140.0020 O   0  0  0  0  0  0  0  0  0  0  0  0
  192.5190  171.7870  138.2730 C   0  0  0  0  0  0  0  0  0  0  0  0
  192.1970  174.1850  137.7420 C   0  0  0  0  0  3  0  0  0  0  0  0
  193.2150  174.8660  137.2330 C   0  0  0  0  0  3  0  0  0  0  0  0
  192.9690  176.0240  136.3350 C   0  0  0  0  0  2  0  0  0  0  0  0
  191.6770  175.8010  135.5780 C   0  0  0  0  0  1  0  0  0  0  0  0
  192.4040  171.3030  136.9350 N   0  0  0  0  0  2  0  0  0  0  0  0
  191.2360  169.8010  135.1770 C   0  0  0  0  0  2  0  0  0  0  0  0
  191.6940  169.0880  136.4200 C   0  0  1  0  0  3  0  0  0  0  0  0
  190.2800  170.2400  137.4790 O   0  0  0  0  0  0  0  0  0  0  0  0
  191.2490  170.5330  136.5040 C   0  0  1  0  0  0  0  0  0  0  0  0
  190.5810  168.8760  137.4060 C   0  0  0  0  0  2  0  0  0  0  0  0
  196.3230  174.5370  144.9500 C   0  0  0  0  0  2  0  0  0  0  0  0
  196.7610  173.1110  144.6390 C   0  0  0  0  0  2  0  0  0  0  0  0
  197.7560  174.3700  142.6780 C   0  0  0  0  0  2  0  0  0  0  0  0
  195.9920  173.3690  141.2670 O   0  0  0  0  0  0  0  0  0  0  0  0
  196.4810  174.5650  141.8370 C   0  0  0  0  0  2  0  0  0  0  0  0
  197.0000  172.8480  140.4360 C   0  0  0  0  0  2  0  0  0  0  0  0
  197.8770  170.5230  140.5730 C   0  0  0  0  0  1  0  0  0  0  0  0
  197.5830  171.7820  142.6970 C   0  0  0  0  0  2  0  0  0  0  0  0
  197.9360  171.8970  141.2070 C   0  0  2  0  0  3  0  0  0  0  0  0
  197.7790  173.0750  143.5100 C   0  0  2  0  0  3  0  0  0  0  0  0
  192.2190  177.5640  143.0680 C   0  0  0  0  0  2  0  0  0  0  0  0
  190.9300  178.1140  143.6550 C   0  0  0  0  0  2  0  0  0  0  0  0
  189.7340  177.8200  142.7560 C   0  0  0  0  0  2  0  0  0  0  0  0
  188.4620  177.6000  143.5630 C   0  0  0  0  0  2  0  0  0  0  0  0
  187.3570  177.0160  142.6970 C   0  0  2  0  0  3  0  0  0  0  0  0
  187.0370  177.9650  141.5490 C   0  0  0  0  0  2  0  0  0  0  0  0
  186.2150  177.2530  140.4850 C   0  0  0  0  0  2  0  0  0  0  0  0
  186.9290  177.2960  139.1430 C   0  0  0  0  0  2  0  0  0  0  0  0
  186.3270  176.2920  138.1720 C   0  0  0  0  0  2  0  0  0  0  0  0
  187.3970  175.6550  137.3430 C   0  0  0  0  0  0  0  0  0  0  0  0
  188.1330  174.5260  137.8200 N   0  0  0  0  0  2  0  0  0  0  0  0
  187.6740  176.1400  136.2170 O   0  0  0  0  0  0  0  0  0  0  0  0
  188.6810  174.0120  141.4480 C   0  0  0  0  0  1  0  0  0  0  0  0
  187.8880  173.9100  139.1130 C   0  0  2  0  0  3  0  0  0  0  0  0
  189.1050  174.1090  139.9970 C   0  0  2  0  0  3  0  0  0  0  0  0
  188.8710  172.7770  139.3200 C   0  0  0  0  0  2  0  0  0  0  0  0
  186.2080  176.8110  143.4800 O   0  0  0  0  0  0  0  0  0  0  0  0
  185.9080  177.9920  144.1980 C   0  0  1  0  0  0  0  0  0  0  0  0
  187.0580  178.6470  144.6240 F   0  0  0  0  0  0  0  0  0  0  0  0
  185.0770  178.9390  143.3450 C   0  0  0  0  0  1  0  0  0  0  0  0
  185.0770  177.6300  145.4210 C   0  0  0  0  0  2  0  0  0  0  0  0
  185.2330  178.6600  146.5290 C   0  0  0  0  0  2  0  0  0  0  0  0
  185.9450  176.8350  148.0700 O   0  0  0  0  0  0  0  0  0  0  0  0
  186.1220  178.1280  147.5950 C   0  0  0  0  0  0  0  0  0  0  0  0
  187.0200  178.8600  148.0850 O   0  0  0  0  0  1  0  0  0  0  0  0
  1 11  1  1  0  0  0
  1  7  1  0  0  0  0
  2 31  1  6  0  0  0
  3  4  1  6  0  0  0
  3  2  1  0  0  0  0
  5  6  2  0  0  0  0
  6  1  1  0  0  0  0
  6  3  1  0  0  0  0
  7  2  1  0  0  0  0
  9 10  2  0  0  0  0
 10  8  1  0  0  0  0
 11 12  1  0  0  0  0
 12  8  2  0  0  0  0
 13 11  2  0  0  0  0
 13  9  1  0  0  0  0
 14 13  1  0  0  0  0
 15 14  1  0  0  0  0
 16 15  1  1  0  0  0
 17 16  1  0  0  0  0
 18 19  1  0  0  0  0
 19 16  1  0  0  0  0
 20 18  2  0  0  0  0
 20 17  1  0  0  0  0
 21 18  1  0  0  0  0
 22 21  2  0  0  0  0
 23 22  1  0  0  0  0
 24 23  1  0  0  0  0
 25 20  1  0  0  0  0
 26 29  1  0  0  0  0
 27 26  1  6  0  0  0
 27 29  1  0  0  0  0
 27 30  1  0  0  0  0
 29 25  1  1  0  0  0
 29 28  1  0  0  0  0
 30 28  1  0  0  0  0
 32 31  1  0  0  0  0
 33 40  1  0  0  0  0
 34 35  1  0  0  0  0
 35 33  1  0  0  0  0
 36 39  1  0  0  0  0
 36 34  1  0  0  0  0
 38 40  1  0  0  0  0
 39 37  1  6  0  0  0
 39 38  1  0  0  0  0
 40 32  1  1  0  0  0
 41  5  1  0  0  0  0
 41 42  1  0  0  0  0
 43 44  1  0  0  0  0
 43 42  1  0  0  0  0
 45 46  1  6  0  0  0
 45 57  1  0  0  0  0
 45 44  1  0  0  0  0
 47 46  1  0  0  0  0
 48 47  1  0  0  0  0
 49 48  1  0  0  0  0
 50 51  1  0  0  0  0
 50 49  1  0  0  0  0
 52 50  2  0  0  0  0
 54 51  1  6  0  0  0
 54 56  1  0  0  0  0
 54 55  1  0  0  0  0
 55 53  1  1  0  0  0
 56 55  1  0  0  0  0
 57 58  1  0  0  0  0
 58 60  1  6  0  0  0
 58 59  1  0  0  0  0
 58 61  1  0  0  0  0
 61 62  1  0  0  0  0
 62 64  1  0  0  0  0
 64 63  2  0  0  0  0
 64 65  1  0  0  0  0
M  END
>  <MODEL>
9

>  <REMARK>
 VINA RESULT:      -4.8      2.403      5.468
  Name = 
  27 active torsions:
  status: ('A' for Active; 'I' for Inactive)
    1  A    between atoms: C_1  and  C_5
    2  A    between atoms: C_1  and  C_52
    3  A    between atoms: C_3  and  C_21
    4  A    between atoms: O_4  and  C_7
    5  A    between atoms: O_4  and  C_20
    6  A    between atoms: C_5  and  C_12
    7  A    between atoms: C_6  and  C_16
    8  A    between atoms: C_7  and  C_61
    9  A    between atoms: C_7  and  C_65
   10  A    between atoms: C_8  and  C_25
   11  A    between atoms: C_9  and  C_33
   12  A    between atoms: C_10  and  C_30
   13  A    between atoms: C_11  and  C_27
   14  A    between atoms: C_11  and  N_40
   15  A    between atoms: C_12  and  C_65
   16  A    between atoms: C_20  and  C_60
   17  A    between atoms: C_21  and  C_58
   18  A    between atoms: C_23  and  C_28
   19  A    between atoms: C_26  and  N_54
   20  A    between atoms: C_27  and  C_29
   21  A    between atoms: C_28  and  C_60
   22  A    between atoms: C_29  and  C_61
   23  A    between atoms: C_33  and  C_35
   24  A    between atoms: C_35  and  C_63
   25  A    between atoms: C_43  and  N_49
   26  A    between atoms: N_49  and  C_50
   27  A    between atoms: C_55  and  C_58
                            x       y       z     vdW  Elec       q    Type
                         _______ _______ _______ _____ _____    ______ ____

>  <TORSDO>
F 27

$$$$
