=
 OpenBabel11042419333D

 32 34  0  0  1  0  0  0  0  0999 V2000
  184.2450  178.1140  142.1720 C   0  0  2  0  0  3  0  0  0  0  0  0
  182.9400  177.8020  140.2120 O   0  0  0  0  0  0  0  0  0  0  0  0
  182.9650  178.2010  141.4070 C   0  0  0  0  0  0  0  0  0  0  0  0
  181.7860  178.7280  142.0350 N   0  0  0  0  0  2  0  0  0  0  0  0
  179.5320  177.9070  141.7380 C   0  0  0  0  0  2  0  0  0  0  0  0
  180.4700  178.8100  141.4710 C   0  0  0  0  0  0  0  0  0  0  0  0
  180.0960  180.0200  140.6910 C   0  0  0  0  0  2  0  0  0  0  0  0
  178.9690  179.7510  139.9150 O   0  0  0  0  0  1  0  0  0  0  0  0
  184.1780  178.9320  143.4610 C   0  0  0  0  0  2  0  0  0  0  0  0
  184.2190  178.0830  144.6040 O   0  0  0  0  0  0  0  0  0  0  0  0
  185.8580  178.4500  146.3810 C   0  0  0  0  0  3  0  0  0  0  0  0
  187.0550  178.0900  147.0060 C   0  0  0  0  0  3  0  0  0  0  0  0
  187.3720  176.3270  145.3800 C   0  0  0  0  0  3  0  0  0  0  0  0
  185.4110  177.7480  145.2510 C   0  0  0  0  0  0  0  0  0  0  0  0
  187.8200  177.0260  146.5090 C   0  0  0  0  0  0  0  0  0  0  0  0
  186.1730  176.6860  144.7560 C   0  0  0  0  0  3  0  0  0  0  0  0
  189.0520  176.6580  147.1500 N   0  0  0  0  0  0  0  0  0  0  0  0
  189.9140  177.6190  147.5640 O   0  0  0  0  0  1  0  0  0  0  0  0
  189.4160  175.3540  147.2500 O   0  0  0  0  0  0  0  0  0  0  0  0
  190.8020  175.3700  147.4290 C   0  0  0  0  0  1  0  0  0  0  0  0
  185.4330  178.5170  141.3030 C   0  0  0  0  0  2  0  0  0  0  0  0
  186.7400  178.4490  142.0810 C   0  0  0  0  0  2  0  0  0  0  0  0
  187.2580  176.5860  140.4980 C   0  0  0  0  0  3  0  0  0  0  0  0
  188.8710  177.1720  142.1370 C   0  0  0  0  0  0  0  0  0  0  0  0
  189.7570  177.7940  143.0190 C   0  0  0  0  0  3  0  0  0  0  0  0
  191.5710  177.5920  144.6470 N   0  0  0  0  0  1  0  0  0  0  0  0
  190.6650  175.5950  143.5530 C   0  0  0  0  0  3  0  0  0  0  0  0
  187.8450  177.7960  141.2580 C   0  0  2  0  0  3  0  0  0  0  0  0
  190.6590  176.9910  143.7360 C   0  0  0  0  0  0  0  0  0  0  0  0
  187.9420  175.3940  140.9990 N   0  0  0  0  0  0  0  0  0  0  0  0
  188.8870  175.8170  141.9570 C   0  0  0  0  0  0  0  0  0  0  0  0
  189.7720  174.9940  142.6510 C   0  0  0  0  0  3  0  0  0  0  0  0
  1 21  1  6  0  0  0
  1  9  1  0  0  0  0
  2  3  2  0  0  0  0
  3  4  1  0  0  0  0
  3  1  1  0  0  0  0
  6  5  2  0  0  0  0
  6  4  1  0  0  0  0
  7  6  1  0  0  0  0
  8  7  1  0  0  0  0
  9 10  1  0  0  0  0
 10 14  1  0  0  0  0
 11 12  1  0  0  0  0
 13 15  1  0  0  0  0
 14 11  2  0  0  0  0
 15 12  2  0  0  0  0
 15 17  1  0  0  0  0
 16 14  1  0  0  0  0
 16 13  2  0  0  0  0
 17 19  1  0  0  0  0
 17 18  1  0  0  0  0
 19 20  1  0  0  0  0
 21 22  1  0  0  0  0
 23 30  2  0  0  0  0
 23 28  1  0  0  0  0
 24 25  1  0  0  0  0
 25 29  2  0  0  0  0
 27 29  1  0  0  0  0
 28 22  1  1  0  0  0
 28 24  1  0  0  0  0
 29 26  1  0  0  0  0
 30 31  1  0  0  0  0
 31 24  2  0  0  0  0
 31 32  1  0  0  0  0
 32 27  2  0  0  0  0
M  END
>  <MODEL>
1

>  <REMARK>
 VINA RESULT:      -6.7      0.000      0.000
  Name = 
  11 active torsions:
  status: ('A' for Active; 'I' for Inactive)
    1  A    between atoms: O_7  and  C_12
    2  A    between atoms: O_7  and  C_19
    3  A    between atoms: C_9  and  C_13
    4  A    between atoms: N_11  and  O_24
    5  A    between atoms: N_11  and  C_26
    6  A    between atoms: C_12  and  C_13
    7  A    between atoms: C_13  and  C_18
    8  A    between atoms: C_15  and  C_16
    9  A    between atoms: C_15  and  C_18
   10  A    between atoms: N_17  and  CA_31
   11  A    between atoms: C_25  and  CA_31
                            x       y       z     vdW  Elec       q    Type
                         _______ _______ _______ _____ _____    ______ ____

>  <TORSDO>
F 11

$$$$
=
 OpenBabel11042419333D

 32 34  0  0  1  0  0  0  0  0999 V2000
  189.4580  176.7510  146.4150 C   0  0  2  0  0  3  0  0  0  0  0  0
  189.7640  177.6110  144.2220 O   0  0  0  0  0  0  0  0  0  0  0  0
  189.5180  176.5980  144.9300 C   0  0  0  0  0  0  0  0  0  0  0  0
  189.3030  175.3110  144.3300 N   0  0  0  0  0  2  0  0  0  0  0  0
  188.3340  174.9580  142.1440 C   0  0  0  0  0  2  0  0  0  0  0  0
  189.3990  174.9800  142.9380 C   0  0  0  0  0  0  0  0  0  0  0  0
  190.7470  174.8100  142.3320 C   0  0  0  0  0  2  0  0  0  0  0  0
  191.2190  173.5230  142.5870 O   0  0  0  0  0  1  0  0  0  0  0  0
  189.7920  175.4390  147.1220 C   0  0  0  0  0  2  0  0  0  0  0  0
  191.1020  175.4810  147.6780 O   0  0  0  0  0  0  0  0  0  0  0  0
  192.5380  174.5040  145.9570 C   0  0  0  0  0  3  0  0  0  0  0  0
  193.7010  174.5650  145.1840 C   0  0  0  0  0  3  0  0  0  0  0  0
  194.3120  176.6390  146.2690 C   0  0  0  0  0  3  0  0  0  0  0  0
  192.2550  175.5130  146.8900 C   0  0  0  0  0  0  0  0  0  0  0  0
  194.5960  175.6320  145.3350 C   0  0  0  0  0  0  0  0  0  0  0  0
  193.1480  176.5790  147.0410 C   0  0  0  0  0  3  0  0  0  0  0  0
  195.7920  175.6930  144.5430 N   0  0  0  0  0  0  0  0  0  0  0  0
  196.8000  174.8160  144.7680 O   0  0  0  0  0  1  0  0  0  0  0  0
  195.9720  176.6900  143.6400 O   0  0  0  0  0  0  0  0  0  0  0  0
  197.2410  176.4710  143.0950 C   0  0  0  0  0  1  0  0  0  0  0  0
  188.1080  177.3090  146.8540 C   0  0  0  0  0  2  0  0  0  0  0  0
  187.0430  177.0900  145.7870 C   0  0  0  0  0  2  0  0  0  0  0  0
  185.1980  178.7310  146.1740 C   0  0  0  0  0  3  0  0  0  0  0  0
  185.8830  178.2890  143.9460 C   0  0  0  0  0  0  0  0  0  0  0  0
  186.5600  178.0550  142.7470 C   0  0  0  0  0  3  0  0  0  0  0  0
  186.4700  177.7560  140.3210 N   0  0  0  0  0  1  0  0  0  0  0  0
  184.4180  178.1870  141.5890 C   0  0  0  0  0  3  0  0  0  0  0  0
  186.4440  178.4120  145.3190 C   0  0  2  0  0  3  0  0  0  0  0  0
  185.8130  178.0000  141.5590 C   0  0  0  0  0  0  0  0  0  0  0  0
  184.0490  178.7390  145.2690 N   0  0  0  0  0  0  0  0  0  0  0  0
  184.5310  178.4790  143.9690 C   0  0  0  0  0  0  0  0  0  0  0  0
  183.7620  178.4330  142.8060 C   0  0  0  0  0  3  0  0  0  0  0  0
  1 21  1  6  0  0  0
  1  9  1  0  0  0  0
  2  3  2  0  0  0  0
  3  1  1  0  0  0  0
  4  3  1  0  0  0  0
  5  6  2  0  0  0  0
  6  4  1  0  0  0  0
  7  8  1  0  0  0  0
  7  6  1  0  0  0  0
  9 10  1  0  0  0  0
 11 14  1  0  0  0  0
 12 15  1  0  0  0  0
 12 11  2  0  0  0  0
 13 16  1  0  0  0  0
 14 16  2  0  0  0  0
 14 10  1  0  0  0  0
 15 13  2  0  0  0  0
 17 18  1  0  0  0  0
 17 15  1  0  0  0  0
 19 17  1  0  0  0  0
 20 19  1  0  0  0  0
 22 21  1  0  0  0  0
 24 31  1  0  0  0  0
 24 28  1  0  0  0  0
 25 24  2  0  0  0  0
 26 29  1  0  0  0  0
 27 32  1  0  0  0  0
 28 22  1  1  0  0  0
 28 23  1  0  0  0  0
 29 27  2  0  0  0  0
 29 25  1  0  0  0  0
 30 23  2  0  0  0  0
 31 30  1  0  0  0  0
 32 31  2  0  0  0  0
M  END
>  <MODEL>
2

>  <REMARK>
 VINA RESULT:      -6.6      3.433      7.565
  Name = 
  11 active torsions:
  status: ('A' for Active; 'I' for Inactive)
    1  A    between atoms: O_7  and  C_12
    2  A    between atoms: O_7  and  C_19
    3  A    between atoms: C_9  and  C_13
    4  A    between atoms: N_11  and  O_24
    5  A    between atoms: N_11  and  C_26
    6  A    between atoms: C_12  and  C_13
    7  A    between atoms: C_13  and  C_18
    8  A    between atoms: C_15  and  C_16
    9  A    between atoms: C_15  and  C_18
   10  A    between atoms: N_17  and  CA_31
   11  A    between atoms: C_25  and  CA_31
                            x       y       z     vdW  Elec       q    Type
                         _______ _______ _______ _____ _____    ______ ____

>  <TORSDO>
F 11

$$$$
=
 OpenBabel11042419333D

 32 34  0  0  1  0  0  0  0  0999 V2000
  192.5350  175.8960  144.5590 C   0  0  2  0  0  3  0  0  0  0  0  0
  194.6920  176.8320  144.8910 O   0  0  0  0  0  0  0  0  0  0  0  0
  193.9320  176.1910  144.1190 C   0  0  0  0  0  0  0  0  0  0  0  0
  194.3920  175.7400  142.8350 N   0  0  0  0  0  2  0  0  0  0  0  0
  196.0110  176.7780  141.3710 C   0  0  0  0  0  2  0  0  0  0  0  0
  195.7150  175.8720  142.2960 C   0  0  0  0  0  0  0  0  0  0  0  0
  196.8200  175.0800  142.9010 C   0  0  0  0  0  2  0  0  0  0  0  0
  197.9060  175.9130  143.1670 O   0  0  0  0  0  1  0  0  0  0  0  0
  192.5010  174.7470  145.5660 C   0  0  0  0  0  2  0  0  0  0  0  0
  191.9050  175.1640  146.7900 O   0  0  0  0  0  0  0  0  0  0  0  0
  190.4650  177.1240  147.0450 C   0  0  0  0  0  3  0  0  0  0  0  0
  189.1810  177.6730  147.1030 C   0  0  0  0  0  3  0  0  0  0  0  0
  188.2270  175.4740  146.7800 C   0  0  0  0  0  3  0  0  0  0  0  0
  190.6360  175.7450  146.8520 C   0  0  0  0  0  0  0  0  0  0  0  0
  188.0540  176.8520  146.9720 C   0  0  0  0  0  0  0  0  0  0  0  0
  189.5110  174.9250  146.7200 C   0  0  0  0  0  3  0  0  0  0  0  0
  186.7350  177.4160  147.0340 N   0  0  0  0  0  0  0  0  0  0  0  0
  186.5160  178.5520  147.7410 O   0  0  0  0  0  1  0  0  0  0  0  0
  185.6780  176.7660  146.4830 O   0  0  0  0  0  0  0  0  0  0  0  0
  184.6210  177.6800  146.5210 C   0  0  0  0  0  1  0  0  0  0  0  0
  191.6280  175.6320  143.3610 C   0  0  0  0  0  2  0  0  0  0  0  0
  190.4480  176.5950  143.3340 C   0  0  0  0  0  2  0  0  0  0  0  0
  189.2370  174.9300  141.9180 C   0  0  0  0  0  3  0  0  0  0  0  0
  188.0360  176.7910  142.7680 C   0  0  0  0  0  0  0  0  0  0  0  0
  187.4700  177.8210  143.5220 C   0  0  0  0  0  3  0  0  0  0  0  0
  185.8290  179.6280  143.6900 N   0  0  0  0  0  1  0  0  0  0  0  0
  185.9640  178.2670  141.6560 C   0  0  0  0  0  3  0  0  0  0  0  0
  189.1280  175.8540  143.1510 C   0  0  2  0  0  3  0  0  0  0  0  0
  186.4250  178.5670  142.9530 C   0  0  0  0  0  0  0  0  0  0  0  0
  188.2580  175.4030  140.9400 N   0  0  0  0  0  0  0  0  0  0  0  0
  187.5800  176.4990  141.5140 C   0  0  0  0  0  0  0  0  0  0  0  0
  186.5420  177.2190  140.9230 C   0  0  0  0  0  3  0  0  0  0  0  0
  1 21  1  6  0  0  0
  1  9  1  0  0  0  0
  3  1  1  0  0  0  0
  3  2  2  0  0  0  0
  4  3  1  0  0  0  0
  5  6  2  0  0  0  0
  6  4  1  0  0  0  0
  6  7  1  0  0  0  0
  7  8  1  0  0  0  0
  9 10  1  0  0  0  0
 10 14  1  0  0  0  0
 11 12  1  0  0  0  0
 13 15  1  0  0  0  0
 14 11  2  0  0  0  0
 15 17  1  0  0  0  0
 15 12  2  0  0  0  0
 16 13  2  0  0  0  0
 16 14  1  0  0  0  0
 17 18  1  0  0  0  0
 19 20  1  0  0  0  0
 19 17  1  0  0  0  0
 22 21  1  0  0  0  0
 23 28  1  0  0  0  0
 24 28  1  0  0  0  0
 24 25  1  0  0  0  0
 27 29  1  0  0  0  0
 28 22  1  6  0  0  0
 29 25  2  0  0  0  0
 29 26  1  0  0  0  0
 30 31  1  0  0  0  0
 30 23  2  0  0  0  0
 31 24  2  0  0  0  0
 32 31  1  0  0  0  0
 32 27  2  0  0  0  0
M  END
>  <MODEL>
3

>  <REMARK>
 VINA RESULT:      -6.6      3.373      8.444
  Name = 
  11 active torsions:
  status: ('A' for Active; 'I' for Inactive)
    1  A    between atoms: O_7  and  C_12
    2  A    between atoms: O_7  and  C_19
    3  A    between atoms: C_9  and  C_13
    4  A    between atoms: N_11  and  O_24
    5  A    between atoms: N_11  and  C_26
    6  A    between atoms: C_12  and  C_13
    7  A    between atoms: C_13  and  C_18
    8  A    between atoms: C_15  and  C_16
    9  A    between atoms: C_15  and  C_18
   10  A    between atoms: N_17  and  CA_31
   11  A    between atoms: C_25  and  CA_31
                            x       y       z     vdW  Elec       q    Type
                         _______ _______ _______ _____ _____    ______ ____

>  <TORSDO>
F 11

$$$$
=
 OpenBabel11042419333D

 32 34  0  0  1  0  0  0  0  0999 V2000
  189.3560  176.3490  145.1300 C   0  0  2  0  0  3  0  0  0  0  0  0
  189.6740  174.0120  144.8470 O   0  0  0  0  0  0  0  0  0  0  0  0
  189.5460  175.1320  144.2850 C   0  0  0  0  0  0  0  0  0  0  0  0
  189.5740  175.2490  142.8540 N   0  0  0  0  0  2  0  0  0  0  0  0
  190.8410  173.7520  141.4390 C   0  0  0  0  0  2  0  0  0  0  0  0
  189.6710  174.1800  141.9020 C   0  0  0  0  0  0  0  0  0  0  0  0
  188.4400  173.4260  141.5410 C   0  0  0  0  0  2  0  0  0  0  0  0
  188.3000  172.3230  142.3820 O   0  0  0  0  0  1  0  0  0  0  0  0
  190.6310  177.1890  145.1890 C   0  0  0  0  0  2  0  0  0  0  0  0
  191.4870  176.7400  146.2350 O   0  0  0  0  0  0  0  0  0  0  0  0
  193.8180  176.9770  145.5370 C   0  0  0  0  0  3  0  0  0  0  0  0
  195.0680  176.3980  145.3040 C   0  0  0  0  0  3  0  0  0  0  0  0
  194.1960  174.2460  145.9830 C   0  0  0  0  0  3  0  0  0  0  0  0
  192.7490  176.1920  145.9950 C   0  0  0  0  0  0  0  0  0  0  0  0
  195.2660  175.0290  145.5260 C   0  0  0  0  0  0  0  0  0  0  0  0
  192.9460  174.8260  146.2160 C   0  0  0  0  0  3  0  0  0  0  0  0
  196.5500  174.4340  145.2850 N   0  0  0  0  0  0  0  0  0  0  0  0
  197.0840  173.5810  146.1940 O   0  0  0  0  0  1  0  0  0  0  0  0
  197.2900  174.7990  144.2070 O   0  0  0  0  0  0  0  0  0  0  0  0
  197.0650  173.8050  143.2500 C   0  0  0  0  0  1  0  0  0  0  0  0
  188.8530  175.9770  146.5220 C   0  0  0  0  0  2  0  0  0  0  0  0
  187.3600  176.2410  146.6620 C   0  0  0  0  0  2  0  0  0  0  0  0
  186.2560  178.0600  147.9710 C   0  0  0  0  0  3  0  0  0  0  0  0
  186.1170  178.1130  145.6030 C   0  0  0  0  0  0  0  0  0  0  0  0
  186.3250  178.0810  144.2230 C   0  0  0  0  0  3  0  0  0  0  0  0
  185.4620  178.4850  141.9700 N   0  0  0  0  0  1  0  0  0  0  0  0
  184.0730  178.9710  143.9300 C   0  0  0  0  0  3  0  0  0  0  0  0
  187.0580  177.7350  146.6920 C   0  0  2  0  0  3  0  0  0  0  0  0
  185.2860  178.5110  143.3810 C   0  0  0  0  0  0  0  0  0  0  0  0
  184.9480  178.5560  147.5410 N   0  0  0  0  0  0  0  0  0  0  0  0
  184.9420  178.5680  146.1310 C   0  0  0  0  0  0  0  0  0  0  0  0
  183.8930  179.0050  145.3220 C   0  0  0  0  0  3  0  0  0  0  0  0
  1  9  1  1  0  0  0
  1 21  1  0  0  0  0
  3  2  2  0  0  0  0
  3  1  1  0  0  0  0
  4  3  1  0  0  0  0
  5  6  2  0  0  0  0
  6  4  1  0  0  0  0
  7  6  1  0  0  0  0
  7  8  1  0  0  0  0
  9 10  1  0  0  0  0
 11 14  1  0  0  0  0
 12 15  1  0  0  0  0
 12 11  2  0  0  0  0
 13 16  1  0  0  0  0
 14 16  2  0  0  0  0
 14 10  1  0  0  0  0
 15 13  2  0  0  0  0
 17 15  1  0  0  0  0
 17 18  1  0  0  0  0
 19 17  1  0  0  0  0
 20 19  1  0  0  0  0
 21 22  1  0  0  0  0
 24 31  1  0  0  0  0
 24 28  1  0  0  0  0
 25 24  2  0  0  0  0
 26 29  1  0  0  0  0
 27 32  1  0  0  0  0
 28 22  1  1  0  0  0
 28 23  1  0  0  0  0
 29 27  2  0  0  0  0
 29 25  1  0  0  0  0
 30 23  2  0  0  0  0
 31 30  1  0  0  0  0
 32 31  2  0  0  0  0
M  END
>  <MODEL>
4

>  <REMARK>
 VINA RESULT:      -6.5      3.851      7.865
  Name = 
  11 active torsions:
  status: ('A' for Active; 'I' for Inactive)
    1  A    between atoms: O_7  and  C_12
    2  A    between atoms: O_7  and  C_19
    3  A    between atoms: C_9  and  C_13
    4  A    between atoms: N_11  and  O_24
    5  A    between atoms: N_11  and  C_26
    6  A    between atoms: C_12  and  C_13
    7  A    between atoms: C_13  and  C_18
    8  A    between atoms: C_15  and  C_16
    9  A    between atoms: C_15  and  C_18
   10  A    between atoms: N_17  and  CA_31
   11  A    between atoms: C_25  and  CA_31
                            x       y       z     vdW  Elec       q    Type
                         _______ _______ _______ _____ _____    ______ ____

>  <TORSDO>
F 11

$$$$
=
 OpenBabel11042419333D

 32 34  0  0  1  0  0  0  0  0999 V2000
  189.2470  175.7380  146.3330 C   0  0  2  0  0  3  0  0  0  0  0  0
  190.8580  175.2870  148.0200 O   0  0  0  0  0  0  0  0  0  0  0  0
  190.6540  175.6190  146.8220 C   0  0  0  0  0  0  0  0  0  0  0  0
  191.7490  175.8770  145.9290 N   0  0  0  0  0  2  0  0  0  0  0  0
  193.8300  174.6480  145.8720 C   0  0  0  0  0  2  0  0  0  0  0  0
  193.1480  175.7350  146.2150 C   0  0  0  0  0  0  0  0  0  0  0  0
  193.8890  176.8990  146.7710 C   0  0  0  0  0  2  0  0  0  0  0  0
  194.7140  177.4450  145.7880 O   0  0  0  0  0  1  0  0  0  0  0  0
  189.1870  175.7330  144.8060 C   0  0  0  0  0  2  0  0  0  0  0  0
  189.3140  174.4090  144.2980 O   0  0  0  0  0  0  0  0  0  0  0  0
  188.6790  175.0590  142.0280 C   0  0  0  0  0  3  0  0  0  0  0  0
  188.4900  174.7140  140.6860 C   0  0  0  0  0  3  0  0  0  0  0  0
  189.1720  172.4450  141.1760 C   0  0  0  0  0  3  0  0  0  0  0  0
  189.1160  174.0970  142.9500 C   0  0  0  0  0  0  0  0  0  0  0  0
  188.7360  173.4040  140.2510 C   0  0  0  0  0  0  0  0  0  0  0  0
  189.3620  172.7910  142.5170 C   0  0  0  0  0  3  0  0  0  0  0  0
  188.5400  173.0500  138.8740 N   0  0  0  0  0  0  0  0  0  0  0  0
  189.0390  171.8840  138.3960 O   0  0  0  0  0  1  0  0  0  0  0  0
  187.9540  173.9210  138.0130 O   0  0  0  0  0  0  0  0  0  0  0  0
  188.9190  174.1830  137.0360 C   0  0  0  0  0  1  0  0  0  0  0  0
  188.5620  176.9640  146.9270 C   0  0  0  0  0  2  0  0  0  0  0  0
  187.0510  176.9000  146.7440 C   0  0  0  0  0  2  0  0  0  0  0  0
  185.1560  178.4810  147.1340 C   0  0  0  0  0  3  0  0  0  0  0  0
  186.0420  178.2820  144.9420 C   0  0  0  0  0  0  0  0  0  0  0  0
  186.8260  178.1800  143.7910 C   0  0  0  0  0  3  0  0  0  0  0  0
  186.9550  178.1410  141.3480 N   0  0  0  0  0  1  0  0  0  0  0  0
  184.7930  178.4240  142.4660 C   0  0  0  0  0  3  0  0  0  0  0  0
  186.4770  178.2620  146.3650 C   0  0  2  0  0  3  0  0  0  0  0  0
  186.1880  178.2480  142.5410 C   0  0  0  0  0  0  0  0  0  0  0  0
  184.0910  178.5790  146.1360 N   0  0  0  0  0  0  0  0  0  0  0  0
  184.6900  178.4620  144.8640 C   0  0  0  0  0  0  0  0  0  0  0  0
  184.0280  178.5360  143.6380 C   0  0  0  0  0  3  0  0  0  0  0  0
  1  9  1  6  0  0  0
  1  3  1  0  0  0  0
  1 21  1  0  0  0  0
  3  2  2  0  0  0  0
  4  6  1  0  0  0  0
  4  3  1  0  0  0  0
  5  6  2  0  0  0  0
  6  7  1  0  0  0  0
  8  7  1  0  0  0  0
 10  9  1  0  0  0  0
 11 14  1  0  0  0  0
 12 11  2  0  0  0  0
 13 16  1  0  0  0  0
 14 10  1  0  0  0  0
 15 12  1  0  0  0  0
 15 13  2  0  0  0  0
 16 14  2  0  0  0  0
 17 15  1  0  0  0  0
 18 17  1  0  0  0  0
 19 17  1  0  0  0  0
 20 19  1  0  0  0  0
 22 21  1  0  0  0  0
 24 28  1  0  0  0  0
 25 24  2  0  0  0  0
 26 29  1  0  0  0  0
 27 29  2  0  0  0  0
 27 32  1  0  0  0  0
 28 22  1  1  0  0  0
 28 23  1  0  0  0  0
 29 25  1  0  0  0  0
 30 23  2  0  0  0  0
 31 24  1  0  0  0  0
 31 30  1  0  0  0  0
 32 31  2  0  0  0  0
M  END
>  <MODEL>
5

>  <REMARK>
 VINA RESULT:      -6.4      3.414      8.790
  Name = 
  11 active torsions:
  status: ('A' for Active; 'I' for Inactive)
    1  A    between atoms: O_7  and  C_12
    2  A    between atoms: O_7  and  C_19
    3  A    between atoms: C_9  and  C_13
    4  A    between atoms: N_11  and  O_24
    5  A    between atoms: N_11  and  C_26
    6  A    between atoms: C_12  and  C_13
    7  A    between atoms: C_13  and  C_18
    8  A    between atoms: C_15  and  C_16
    9  A    between atoms: C_15  and  C_18
   10  A    between atoms: N_17  and  CA_31
   11  A    between atoms: C_25  and  CA_31
                            x       y       z     vdW  Elec       q    Type
                         _______ _______ _______ _____ _____    ______ ____

>  <TORSDO>
F 11

$$$$
=
 OpenBabel11042419333D

 32 34  0  0  1  0  0  0  0  0999 V2000
  190.4100  174.7160  142.7200 C   0  0  2  0  0  3  0  0  0  0  0  0
  190.0740  173.0550  144.3840 O   0  0  0  0  0  0  0  0  0  0  0  0
  190.8920  173.6140  143.6070 C   0  0  0  0  0  0  0  0  0  0  0  0
  192.2680  173.2050  143.5620 N   0  0  0  0  0  2  0  0  0  0  0  0
  192.7200  170.8560  143.9140 C   0  0  0  0  0  2  0  0  0  0  0  0
  192.8710  172.1230  144.2860 C   0  0  0  0  0  0  0  0  0  0  0  0
  193.8190  172.4370  145.3890 C   0  0  0  0  0  2  0  0  0  0  0  0
  194.4100  173.6790  145.1630 O   0  0  0  0  0  1  0  0  0  0  0  0
  190.1290  174.2080  141.3070 C   0  0  0  0  0  2  0  0  0  0  0  0
  188.7350  174.2490  141.0200 O   0  0  0  0  0  0  0  0  0  0  0  0
  187.1480  175.0930  142.6780 C   0  0  0  0  0  3  0  0  0  0  0  0
  186.3170  176.1200  143.1330 C   0  0  0  0  0  3  0  0  0  0  0  0
  186.9700  177.4830  141.2450 C   0  0  0  0  0  3  0  0  0  0  0  0
  187.8960  175.2570  141.5020 C   0  0  0  0  0  0  0  0  0  0  0  0
  186.2220  177.3220  142.4200 C   0  0  0  0  0  0  0  0  0  0  0  0
  187.8020  176.4560  140.7900 C   0  0  0  0  0  3  0  0  0  0  0  0
  185.3660  178.3760  142.8870 N   0  0  0  0  0  0  0  0  0  0  0  0
  184.0270  178.2980  142.6940 O   0  0  0  0  0  1  0  0  0  0  0  0
  185.8920  179.5070  143.4230 O   0  0  0  0  0  0  0  0  0  0  0  0
  185.4650  179.5190  144.7540 C   0  0  0  0  0  1  0  0  0  0  0  0
  191.3860  175.8880  142.7210 C   0  0  0  0  0  2  0  0  0  0  0  0
  190.6990  177.1840  143.1320 C   0  0  0  0  0  2  0  0  0  0  0  0
  192.2970  176.8430  145.0230 C   0  0  0  0  0  3  0  0  0  0  0  0
  189.9710  176.9000  145.4910 C   0  0  0  0  0  0  0  0  0  0  0  0
  188.6040  177.1690  145.5860 C   0  0  0  0  0  3  0  0  0  0  0  0
  186.4530  176.7040  146.6540 N   0  0  0  0  0  1  0  0  0  0  0  0
  188.4700  175.5100  147.3700 C   0  0  0  0  0  3  0  0  0  0  0  0
  190.9790  177.5250  144.5920 C   0  0  2  0  0  3  0  0  0  0  0  0
  187.8490  176.4600  146.5350 C   0  0  0  0  0  0  0  0  0  0  0  0
  191.9590  175.8900  146.0790 N   0  0  0  0  0  0  0  0  0  0  0  0
  190.5710  175.9840  146.3090 C   0  0  0  0  0  0  0  0  0  0  0  0
  189.8490  175.2670  147.2630 C   0  0  0  0  0  3  0  0  0  0  0  0
  1  9  1  6  0  0  0
  1 21  1  0  0  0  0
  1  3  1  0  0  0  0
  3  2  2  0  0  0  0
  4  3  1  0  0  0  0
  4  6  1  0  0  0  0
  5  6  2  0  0  0  0
  6  7  1  0  0  0  0
  8  7  1  0  0  0  0
 10  9  1  0  0  0  0
 10 14  1  0  0  0  0
 11 12  1  0  0  0  0
 13 15  1  0  0  0  0
 14 11  2  0  0  0  0
 15 17  1  0  0  0  0
 15 12  2  0  0  0  0
 16 13  2  0  0  0  0
 16 14  1  0  0  0  0
 17 19  1  0  0  0  0
 18 17  1  0  0  0  0
 19 20  1  0  0  0  0
 21 22  1  0  0  0  0
 23 30  2  0  0  0  0
 24 25  2  0  0  0  0
 24 31  1  0  0  0  0
 25 29  1  0  0  0  0
 28 22  1  6  0  0  0
 28 23  1  0  0  0  0
 28 24  1  0  0  0  0
 29 26  1  0  0  0  0
 29 27  2  0  0  0  0
 30 31  1  0  0  0  0
 31 32  2  0  0  0  0
 32 27  1  0  0  0  0
M  END
>  <MODEL>
6

>  <REMARK>
 VINA RESULT:      -6.3      3.141      8.120
  Name = 
  11 active torsions:
  status: ('A' for Active; 'I' for Inactive)
    1  A    between atoms: O_7  and  C_12
    2  A    between atoms: O_7  and  C_19
    3  A    between atoms: C_9  and  C_13
    4  A    between atoms: N_11  and  O_24
    5  A    between atoms: N_11  and  C_26
    6  A    between atoms: C_12  and  C_13
    7  A    between atoms: C_13  and  C_18
    8  A    between atoms: C_15  and  C_16
    9  A    between atoms: C_15  and  C_18
   10  A    between atoms: N_17  and  CA_31
   11  A    between atoms: C_25  and  CA_31
                            x       y       z     vdW  Elec       q    Type
                         _______ _______ _______ _____ _____    ______ ____

>  <TORSDO>
F 11

$$$$
=
 OpenBabel11042419333D

 32 34  0  0  1  0  0  0  0  0999 V2000
  193.1790  175.5770  145.3450 C   0  0  2  0  0  3  0  0  0  0  0  0
  194.9690  177.1380  145.3500 O   0  0  0  0  0  0  0  0  0  0  0  0
  194.4160  176.1740  144.7580 C   0  0  0  0  0  0  0  0  0  0  0  0
  194.9610  175.6450  143.5390 N   0  0  0  0  0  2  0  0  0  0  0  0
  197.3690  175.6740  143.3310 C   0  0  0  0  0  2  0  0  0  0  0  0
  196.1740  176.0490  142.8880 C   0  0  0  0  0  0  0  0  0  0  0  0
  196.0860  176.7770  141.5940 C   0  0  0  0  0  2  0  0  0  0  0  0
  196.2790  175.8870  140.5380 O   0  0  0  0  0  1  0  0  0  0  0  0
  192.9540  176.0620  146.7760 C   0  0  0  0  0  2  0  0  0  0  0  0
  191.8450  175.3940  147.3700 O   0  0  0  0  0  0  0  0  0  0  0  0
  190.2240  177.1470  146.8440 C   0  0  0  0  0  3  0  0  0  0  0  0
  188.8940  177.5460  146.6840 C   0  0  0  0  0  3  0  0  0  0  0  0
  188.1570  175.3100  147.2390 C   0  0  0  0  0  3  0  0  0  0  0  0
  190.5270  175.8240  147.2020 C   0  0  0  0  0  0  0  0  0  0  0  0
  187.8520  176.6300  146.8810 C   0  0  0  0  0  0  0  0  0  0  0  0
  189.4880  174.9100  147.3970 C   0  0  0  0  0  3  0  0  0  0  0  0
  186.4860  177.0410  146.7190 N   0  0  0  0  0  0  0  0  0  0  0  0
  185.9580  177.9820  147.5400 O   0  0  0  0  0  1  0  0  0  0  0  0
  185.6790  176.4200  145.8210 O   0  0  0  0  0  0  0  0  0  0  0  0
  185.9590  177.0240  144.5910 C   0  0  0  0  0  1  0  0  0  0  0  0
  193.2090  174.0540  145.2560 C   0  0  0  0  0  2  0  0  0  0  0  0
  192.3530  173.5480  144.1020 C   0  0  0  0  0  2  0  0  0  0  0  0
  190.4220  171.9680  144.2370 C   0  0  0  0  0  3  0  0  0  0  0  0
  190.0100  174.2230  143.6250 C   0  0  0  0  0  0  0  0  0  0  0  0
  189.9500  175.6120  143.4910 C   0  0  0  0  0  3  0  0  0  0  0  0
  188.9310  177.5660  142.4300 N   0  0  0  0  0  1  0  0  0  0  0  0
  188.1570  175.3100  141.8660 C   0  0  0  0  0  3  0  0  0  0  0  0
  190.8900  173.4140  144.5110 C   0  0  2  0  0  3  0  0  0  0  0  0
  189.0140  176.1560  142.5960 C   0  0  0  0  0  0  0  0  0  0  0  0
  189.3660  172.0440  143.2270 N   0  0  0  0  0  0  0  0  0  0  0  0
  189.1710  173.4070  142.9200 C   0  0  0  0  0  0  0  0  0  0  0  0
  188.2290  173.9170  142.0270 C   0  0  0  0  0  3  0  0  0  0  0  0
  1 21  1  1  0  0  0
  1  9  1  0  0  0  0
  3  1  1  0  0  0  0
  3  2  2  0  0  0  0
  4  3  1  0  0  0  0
  6  5  2  0  0  0  0
  6  4  1  0  0  0  0
  7  6  1  0  0  0  0
  8  7  1  0  0  0  0
  9 10  1  0  0  0  0
 11 14  1  0  0  0  0
 12 11  2  0  0  0  0
 12 15  1  0  0  0  0
 13 16  1  0  0  0  0
 14 10  1  0  0  0  0
 14 16  2  0  0  0  0
 15 13  2  0  0  0  0
 17 15  1  0  0  0  0
 17 18  1  0  0  0  0
 19 17  1  0  0  0  0
 20 19  1  0  0  0  0
 22 21  1  0  0  0  0
 23 28  1  0  0  0  0
 24 28  1  0  0  0  0
 25 24  1  0  0  0  0
 26 29  1  0  0  0  0
 27 32  2  0  0  0  0
 27 29  1  0  0  0  0
 28 22  1  6  0  0  0
 29 25  2  0  0  0  0
 30 23  2  0  0  0  0
 31 30  1  0  0  0  0
 31 24  2  0  0  0  0
 32 31  1  0  0  0  0
M  END
>  <MODEL>
7

>  <REMARK>
 VINA RESULT:      -6.2      3.837      8.667
  Name = 
  11 active torsions:
  status: ('A' for Active; 'I' for Inactive)
    1  A    between atoms: O_7  and  C_12
    2  A    between atoms: O_7  and  C_19
    3  A    between atoms: C_9  and  C_13
    4  A    between atoms: N_11  and  O_24
    5  A    between atoms: N_11  and  C_26
    6  A    between atoms: C_12  and  C_13
    7  A    between atoms: C_13  and  C_18
    8  A    between atoms: C_15  and  C_16
    9  A    between atoms: C_15  and  C_18
   10  A    between atoms: N_17  and  CA_31
   11  A    between atoms: C_25  and  CA_31
                            x       y       z     vdW  Elec       q    Type
                         _______ _______ _______ _____ _____    ______ ____

>  <TORSDO>
F 11

$$$$
=
 OpenBabel11042419333D

 32 34  0  0  1  0  0  0  0  0999 V2000
  188.6300  175.7180  141.8900 C   0  0  2  0  0  3  0  0  0  0  0  0
  188.1980  174.5500  139.8670 O   0  0  0  0  0  0  0  0  0  0  0  0
  188.9120  174.6330  140.9010 C   0  0  0  0  0  0  0  0  0  0  0  0
  189.9860  173.7090  141.1340 N   0  0  0  0  0  2  0  0  0  0  0  0
  190.9600  172.9270  139.0640 C   0  0  0  0  0  2  0  0  0  0  0  0
  190.4340  172.6670  140.2560 C   0  0  0  0  0  0  0  0  0  0  0  0
  190.4550  171.2660  140.7570 C   0  0  0  0  0  2  0  0  0  0  0  0
  189.9770  171.2260  142.0660 O   0  0  0  0  0  1  0  0  0  0  0  0
  187.7940  176.8340  141.2670 C   0  0  0  0  0  2  0  0  0  0  0  0
  186.4680  176.8230  141.7840 O   0  0  0  0  0  0  0  0  0  0  0  0
  185.6680  176.4140  144.0580 C   0  0  0  0  0  3  0  0  0  0  0  0
  185.3630  176.9030  145.3310 C   0  0  0  0  0  3  0  0  0  0  0  0
  186.0250  179.1240  144.6360 C   0  0  0  0  0  3  0  0  0  0  0  0
  186.1540  177.2800  143.0660 C   0  0  0  0  0  0  0  0  0  0  0  0
  185.5390  178.2610  145.6290 C   0  0  0  0  0  0  0  0  0  0  0  0
  186.3310  178.6340  143.3630 C   0  0  0  0  0  3  0  0  0  0  0  0
  185.2240  178.7630  146.9370 N   0  0  0  0  0  0  0  0  0  0  0  0
  184.1400  178.2920  147.6010 O   0  0  0  0  0  1  0  0  0  0  0  0
  185.9360  179.7850  147.4750 O   0  0  0  0  0  0  0  0  0  0  0  0
  186.8430  179.1840  148.3530 C   0  0  0  0  0  1  0  0  0  0  0  0
  189.9220  176.2480  142.5040 C   0  0  0  0  0  2  0  0  0  0  0  0
  189.8250  177.7380  142.8040 C   0  0  0  0  0  2  0  0  0  0  0  0
  192.0740  177.8880  143.8830 C   0  0  0  0  0  3  0  0  0  0  0  0
  190.2360  177.1310  145.1780 C   0  0  0  0  0  0  0  0  0  0  0  0
  189.0120  176.9150  145.8150 C   0  0  0  0  0  3  0  0  0  0  0  0
  187.7220  175.7040  147.5050 N   0  0  0  0  0  1  0  0  0  0  0  0
  190.1100  175.2420  147.2090 C   0  0  0  0  0  3  0  0  0  0  0  0
  190.5580  178.0970  144.0920 C   0  0  2  0  0  3  0  0  0  0  0  0
  188.9530  175.9550  146.8390 C   0  0  0  0  0  0  0  0  0  0  0  0
  192.4930  176.8350  144.8080 N   0  0  0  0  0  0  0  0  0  0  0  0
  191.3570  176.4430  145.5470 C   0  0  0  0  0  0  0  0  0  0  0  0
  191.3310  175.4860  146.5610 C   0  0  0  0  0  3  0  0  0  0  0  0
  1  9  1  6  0  0  0
  1 21  1  0  0  0  0
  2  3  2  0  0  0  0
  3  4  1  0  0  0  0
  3  1  1  0  0  0  0
  5  6  2  0  0  0  0
  6  7  1  0  0  0  0
  6  4  1  0  0  0  0
  7  8  1  0  0  0  0
  9 10  1  0  0  0  0
 10 14  1  0  0  0  0
 11 12  1  0  0  0  0
 12 15  2  0  0  0  0
 13 15  1  0  0  0  0
 14 16  1  0  0  0  0
 14 11  2  0  0  0  0
 15 17  1  0  0  0  0
 16 13  2  0  0  0  0
 17 19  1  0  0  0  0
 17 18  1  0  0  0  0
 19 20  1  0  0  0  0
 21 22  1  0  0  0  0
 23 28  1  0  0  0  0
 23 30  2  0  0  0  0
 24 31  2  0  0  0  0
 24 25  1  0  0  0  0
 25 29  2  0  0  0  0
 28 22  1  6  0  0  0
 28 24  1  0  0  0  0
 29 27  1  0  0  0  0
 29 26  1  0  0  0  0
 30 31  1  0  0  0  0
 31 32  1  0  0  0  0
 32 27  2  0  0  0  0
M  END
>  <MODEL>
8

>  <REMARK>
 VINA RESULT:      -6.2      3.414      6.434
  Name = 
  11 active torsions:
  status: ('A' for Active; 'I' for Inactive)
    1  A    between atoms: O_7  and  C_12
    2  A    between atoms: O_7  and  C_19
    3  A    between atoms: C_9  and  C_13
    4  A    between atoms: N_11  and  O_24
    5  A    between atoms: N_11  and  C_26
    6  A    between atoms: C_12  and  C_13
    7  A    between atoms: C_13  and  C_18
    8  A    between atoms: C_15  and  C_16
    9  A    between atoms: C_15  and  C_18
   10  A    between atoms: N_17  and  CA_31
   11  A    between atoms: C_25  and  CA_31
                            x       y       z     vdW  Elec       q    Type
                         _______ _______ _______ _____ _____    ______ ____

>  <TORSDO>
F 11

$$$$
=
 OpenBabel11042419333D

 32 34  0  0  1  0  0  0  0  0999 V2000
  190.4080  175.2520  146.0480 C   0  0  2  0  0  3  0  0  0  0  0  0
  191.1020  177.2120  144.8980 O   0  0  0  0  0  0  0  0  0  0  0  0
  191.4510  176.1220  145.4240 C   0  0  0  0  0  0  0  0  0  0  0  0
  192.8270  175.7130  145.4360 N   0  0  0  0  0  2  0  0  0  0  0  0
  194.6110  177.3200  145.7230 C   0  0  0  0  0  2  0  0  0  0  0  0
  193.9540  176.4600  144.9530 C   0  0  0  0  0  0  0  0  0  0  0  0
  194.4970  176.1480  143.6030 C   0  0  0  0  0  2  0  0  0  0  0  0
  193.5040  176.3300  142.6420 O   0  0  0  0  0  1  0  0  0  0  0  0
  189.5430  174.5740  144.9860 C   0  0  0  0  0  2  0  0  0  0  0  0
  190.3500  174.0320  143.9450 O   0  0  0  0  0  0  0  0  0  0  0  0
  188.7820  174.6760  142.1830 C   0  0  0  0  0  3  0  0  0  0  0  0
  188.4030  174.6400  140.8380 C   0  0  0  0  0  3  0  0  0  0  0  0
  190.3400  173.2820  140.3310 C   0  0  0  0  0  3  0  0  0  0  0  0
  189.9440  174.0160  142.6080 C   0  0  0  0  0  0  0  0  0  0  0  0
  189.1790  173.9420  139.9030 C   0  0  0  0  0  0  0  0  0  0  0  0
  190.7190  173.3200  141.6760 C   0  0  0  0  0  3  0  0  0  0  0  0
  188.7890  173.9020  138.5220 N   0  0  0  0  0  0  0  0  0  0  0  0
  187.7520  174.6600  138.0880 O   0  0  0  0  0  1  0  0  0  0  0  0
  189.3760  173.0310  137.6620 O   0  0  0  0  0  0  0  0  0  0  0  0
  189.5900  173.7580  136.4870 C   0  0  0  0  0  1  0  0  0  0  0  0
  189.5680  176.0370  147.0510 C   0  0  0  0  0  2  0  0  0  0  0  0
  188.0790  175.8900  146.7650 C   0  0  0  0  0  2  0  0  0  0  0  0
  186.0340  177.2010  147.3520 C   0  0  0  0  0  3  0  0  0  0  0  0
  187.0250  177.5270  145.2210 C   0  0  0  0  0  0  0  0  0  0  0  0
  187.8620  177.7260  144.1210 C   0  0  0  0  0  3  0  0  0  0  0  0
  188.0950  178.1990  141.7320 N   0  0  0  0  0  1  0  0  0  0  0  0
  185.8720  178.0720  142.7540 C   0  0  0  0  0  3  0  0  0  0  0  0
  187.4010  177.2500  146.6340 C   0  0  2  0  0  3  0  0  0  0  0  0
  187.2730  177.9970  142.8750 C   0  0  0  0  0  0  0  0  0  0  0  0
  185.0070  177.4150  146.3320 N   0  0  0  0  0  0  0  0  0  0  0  0
  185.6670  177.6100  145.1000 C   0  0  0  0  0  0  0  0  0  0  0  0
  185.0520  177.8800  143.8780 C   0  0  0  0  0  3  0  0  0  0  0  0
  1  9  1  6  0  0  0
  1 21  1  0  0  0  0
  2  3  2  0  0  0  0
  3  4  1  0  0  0  0
  3  1  1  0  0  0  0
  6  4  1  0  0  0  0
  6  5  2  0  0  0  0
  7  6  1  0  0  0  0
  8  7  1  0  0  0  0
 10  9  1  0  0  0  0
 11 14  1  0  0  0  0
 12 11  2  0  0  0  0
 13 16  1  0  0  0  0
 14 10  1  0  0  0  0
 15 13  2  0  0  0  0
 15 12  1  0  0  0  0
 16 14  2  0  0  0  0
 17 15  1  0  0  0  0
 18 17  1  0  0  0  0
 19 17  1  0  0  0  0
 20 19  1  0  0  0  0
 22 21  1  0  0  0  0
 24 28  1  0  0  0  0
 25 24  2  0  0  0  0
 26 29  1  0  0  0  0
 27 29  2  0  0  0  0
 27 32  1  0  0  0  0
 28 22  1  6  0  0  0
 28 23  1  0  0  0  0
 29 25  1  0  0  0  0
 30 23  2  0  0  0  0
 31 24  1  0  0  0  0
 31 30  1  0  0  0  0
 32 31  2  0  0  0  0
M  END
>  <MODEL>
9

>  <REMARK>
 VINA RESULT:      -6.2      3.673      8.692
  Name = 
  11 active torsions:
  status: ('A' for Active; 'I' for Inactive)
    1  A    between atoms: O_7  and  C_12
    2  A    between atoms: O_7  and  C_19
    3  A    between atoms: C_9  and  C_13
    4  A    between atoms: N_11  and  O_24
    5  A    between atoms: N_11  and  C_26
    6  A    between atoms: C_12  and  C_13
    7  A    between atoms: C_13  and  C_18
    8  A    between atoms: C_15  and  C_16
    9  A    between atoms: C_15  and  C_18
   10  A    between atoms: N_17  and  CA_31
   11  A    between atoms: C_25  and  CA_31
                            x       y       z     vdW  Elec       q    Type
                         _______ _______ _______ _____ _____    ______ ____

>  <TORSDO>
F 11

$$$$
