=
 OpenBabel11042414343D

 46 51  0  0  1  0  0  0  0  0999 V2000
  187.8420  175.8220  146.0020 C   0  0  0  0  0  3  0  0  0  0  0  0
  187.5040  176.8630  146.8720 C   0  0  0  0  0  0  0  0  0  0  0  0
  189.6670  177.8610  146.4830 C   0  0  0  0  0  3  0  0  0  0  0  0
  190.0220  176.8310  145.5950 C   0  0  0  0  0  0  0  0  0  0  0  0
  188.4230  177.8800  147.1120 C   0  0  0  0  0  3  0  0  0  0  0  0
  189.0860  175.7830  145.3580 C   0  0  0  0  0  0  0  0  0  0  0  0
  191.0320  172.5110  142.6690 C   0  0  0  0  0  0  0  0  0  0  0  0
  193.8820  173.8430  139.3290 C   0  0  0  0  0  2  0  0  0  0  0  0
  190.3750  172.3850  144.0180 C   0  0  0  0  0  2  0  0  0  0  0  0
  189.3170  174.5750  144.4960 C   0  0  1  0  0  3  0  0  0  0  0  0
  192.8040  171.9580  140.2220 C   0  0  0  0  0  0  0  0  0  0  0  0
  191.0300  173.8070  141.9130 C   0  0  0  0  0  0  0  0  0  0  0  0
  194.1940  172.5530  138.6250 C   0  0  0  0  0  3  0  0  0  0  0  0
  191.5190  171.3940  142.2090 N   0  0  0  0  0  0  0  0  0  0  0  0
  192.2080  171.1220  141.0110 N   0  0  0  0  0  0  0  0  0  0  0  0
  188.9320  174.7000  143.0190 C   0  0  0  0  0  2  0  0  0  0  0  0
  193.5940  171.5230  139.1310 N   0  0  0  0  0  0  0  0  0  0  0  0
  192.1110  174.2030  141.0140 C   0  0  0  0  0  3  0  0  0  0  0  0
  192.9160  173.3860  140.3610 C   0  0  0  0  0  0  0  0  0  0  0  0
  190.1180  174.7700  142.1070 C   0  0  0  0  0  3  0  0  0  0  0  0
  190.4730  173.6510  144.8540 C   0  0  0  0  0  2  0  0  0  0  0  0
  191.3640  176.9270  144.9710 C   0  0  0  0  0  0  0  0  0  0  0  0
  192.5410  176.5640  145.6920 N   0  0  0  0  0  2  0  0  0  0  0  0
  191.4610  177.2720  143.7620 O   0  0  0  0  0  0  0  0  0  0  0  0
  193.8630  176.5070  145.0820 C   0  0  0  0  0  2  0  0  0  0  0  0
  193.6120  174.2350  146.1060 C   0  0  0  0  0  1  0  0  0  0  0  0
  194.5790  175.1990  145.4270 C   0  0  1  0  0  3  0  0  0  0  0  0
  196.8890  176.2480  142.9590 C   0  0  0  0  0  2  0  0  0  0  0  0
  197.1540  173.5330  145.2520 O   0  0  0  0  0  0  0  0  0  0  0  0
  197.6930  175.1450  143.6190 C   0  0  0  0  0  2  0  0  0  0  0  0
  196.7460  174.3460  144.4380 C   0  0  0  0  0  0  0  0  0  0  0  0
  195.1590  175.7010  142.7690 S   0  0  0  0  0  0  0  0  0  0  0  0
  195.2790  174.5700  144.1990 C   0  0  2  0  0  0  0  0  0  0  0  0
  195.2070  172.6300  142.7480 O   0  0  0  0  0  1  0  0  0  0  0  0
  194.5820  173.2540  143.8310 C   0  0  0  0  0  2  0  0  0  0  0  0
  186.2310  176.9010  147.5230 N   0  0  0  0  0  2  0  0  0  0  0  0
  185.3350  178.0440  147.4300 C   0  0  0  0  0  2  0  0  0  0  0  0
  184.5410  177.9830  146.1390 C   0  0  0  0  0  2  0  0  0  0  0  0
  184.9490  179.1170  145.2190 C   0  0  0  0  0  2  0  0  0  0  0  0
  186.2660  178.8400  144.6680 N   0  0  0  0  0  2  0  0  0  0  0  0
  187.9790  177.9970  141.3440 C   0  0  0  0  0  2  0  0  0  0  0  0
  187.8700  178.1410  142.8580 C   0  0  0  0  0  2  0  0  0  0  0  0
  186.4650  178.4340  143.3140 C   0  0  0  0  0  0  0  0  0  0  0  0
  185.5320  177.8290  141.1300 C   0  0  0  0  0  2  0  0  0  0  0  0
  186.8480  177.1210  140.8320 C   0  0  0  0  0  2  0  0  0  0  0  0
  185.4380  178.2160  142.5390 N   0  0  0  0  0  0  0  0  0  0  0  0
  1  2  1  0  0  0  0
  2  5  2  0  0  0  0
  2 36  1  0  0  0  0
  3  5  1  0  0  0  0
  4  3  2  0  0  0  0
  6  4  1  0  0  0  0
  6  1  2  0  0  0  0
  7  9  1  0  0  0  0
  8 19  1  0  0  0  0
  9 21  1  0  0  0  0
 10 21  1  0  0  0  0
 10  6  1  6  0  0  0
 11 19  1  0  0  0  0
 11 15  2  0  0  0  0
 12 20  2  0  0  0  0
 12  7  1  0  0  0  0
 13 17  2  0  0  0  0
 13  8  1  0  0  0  0
 14  7  2  0  0  0  0
 15 14  1  0  0  0  0
 16 10  1  0  0  0  0
 17 11  1  0  0  0  0
 18 12  1  0  0  0  0
 19 18  2  0  0  0  0
 20 16  1  0  0  0  0
 22  4  1  0  0  0  0
 22 23  1  0  0  0  0
 24 22  2  0  0  0  0
 25 27  1  0  0  0  0
 25 23  1  0  0  0  0
 27 26  1  6  0  0  0
 28 30  1  0  0  0  0
 30 31  1  0  0  0  0
 31 29  2  0  0  0  0
 32 28  1  0  0  0  0
 32 33  1  0  0  0  0
 33 35  1  6  0  0  0
 33 31  1  0  0  0  0
 33 27  1  0  0  0  0
 34 35  1  0  0  0  0
 37 36  1  0  0  0  0
 38 37  1  0  0  0  0
 39 38  1  0  0  0  0
 40 39  1  0  0  0  0
 41 42  1  0  0  0  0
 42 43  1  0  0  0  0
 43 40  1  0  0  0  0
 44 46  1  0  0  0  0
 45 44  1  0  0  0  0
 45 41  1  0  0  0  0
 46 43  2  0  0  0  0
M  END
>  <MODEL>
1

>  <REMARK>
 VINA RESULT:      -7.4      0.000      0.000
  Name = 
  11 active torsions:
  status: ('A' for Active; 'I' for Inactive)
    1  A    between atoms: N_1  and  C_36
    2  A    between atoms: C_3  and  C_40
    3  A    between atoms: C_7  and  N_18
    4  A    between atoms: C_7  and  C_37
    5  A    between atoms: C_9  and  C_44
    6  A    between atoms: N_13  and  C_30
    7  A    between atoms: C_14  and  N_18
    8  A    between atoms: C_16  and  C_30
    9  A    between atoms: C_16  and  C_46
   10  A    between atoms: C_36  and  C_37
   11  A    between atoms: C_38  and  C_46
                            x       y       z     vdW  Elec       q    Type
                         _______ _______ _______ _____ _____    ______ ____

>  <TORSDO>
F 11

$$$$
=
 OpenBabel11042414343D

 46 51  0  0  1  0  0  0  0  0999 V2000
  187.9230  175.7150  145.7330 C   0  0  0  0  0  3  0  0  0  0  0  0
  187.7800  176.7360  146.6770 C   0  0  0  0  0  0  0  0  0  0  0  0
  189.9890  177.5330  146.1180 C   0  0  0  0  0  3  0  0  0  0  0  0
  190.1480  176.5230  145.1540 C   0  0  0  0  0  0  0  0  0  0  0  0
  188.8190  177.6410  146.8690 C   0  0  0  0  0  3  0  0  0  0  0  0
  189.0890  175.5880  144.9660 C   0  0  0  0  0  0  0  0  0  0  0  0
  190.4540  172.1010  142.1890 C   0  0  0  0  0  0  0  0  0  0  0  0
  193.8450  172.8920  139.2020 C   0  0  0  0  0  2  0  0  0  0  0  0
  189.6600  172.0610  143.4680 C   0  0  0  0  0  2  0  0  0  0  0  0
  189.1100  174.4120  144.0320 C   0  0  1  0  0  3  0  0  0  0  0  0
  192.2710  171.2770  139.8540 C   0  0  0  0  0  0  0  0  0  0  0  0
  190.8310  173.4010  141.5400 C   0  0  0  0  0  0  0  0  0  0  0  0
  193.9090  171.6080  138.4250 C   0  0  0  0  0  3  0  0  0  0  0  0
  190.7050  170.9290  141.6830 N   0  0  0  0  0  0  0  0  0  0  0  0
  191.4220  170.5660  140.5250 N   0  0  0  0  0  0  0  0  0  0  0  0
  188.9080  174.7110  142.5430 C   0  0  0  0  0  2  0  0  0  0  0  0
  193.0370  170.7270  138.7990 N   0  0  0  0  0  0  0  0  0  0  0  0
  192.0570  173.5730  140.7640 C   0  0  0  0  0  3  0  0  0  0  0  0
  192.7040  172.6250  140.1140 C   0  0  0  0  0  0  0  0  0  0  0  0
  190.1590  174.5440  141.7370 C   0  0  0  0  0  3  0  0  0  0  0  0
  189.9740  173.2160  144.4070 C   0  0  0  0  0  2  0  0  0  0  0  0
  191.4270  176.5180  144.4040 C   0  0  0  0  0  0  0  0  0  0  0  0
  192.4600  175.5840  144.7130 N   0  0  0  0  0  2  0  0  0  0  0  0
  191.5770  177.3090  143.4320 O   0  0  0  0  0  0  0  0  0  0  0  0
  193.6740  175.4480  143.9170 C   0  0  0  0  0  2  0  0  0  0  0  0
  194.5510  175.6550  146.2550 C   0  0  0  0  0  1  0  0  0  0  0  0
  194.9130  175.3320  144.8090 C   0  0  1  0  0  3  0  0  0  0  0  0
  193.9790  172.0400  143.9070 C   0  0  0  0  0  2  0  0  0  0  0  0
  196.4610  174.1340  142.4400 O   0  0  0  0  0  0  0  0  0  0  0  0
  194.9780  172.3400  142.8060 C   0  0  0  0  0  2  0  0  0  0  0  0
  195.7450  173.5390  143.2300 C   0  0  0  0  0  0  0  0  0  0  0  0
  194.6240  172.6670  145.4930 S   0  0  0  0  0  0  0  0  0  0  0  0
  195.6150  173.9610  144.6660 C   0  0  2  0  0  0  0  0  0  0  0  0
  197.0460  173.1810  146.4600 O   0  0  0  0  0  1  0  0  0  0  0  0
  196.9910  174.0170  145.3420 C   0  0  0  0  0  2  0  0  0  0  0  0
  186.5860  176.8650  147.4540 N   0  0  0  0  0  2  0  0  0  0  0  0
  185.7700  178.0700  147.4450 C   0  0  0  0  0  2  0  0  0  0  0  0
  184.7330  177.9910  146.3400 C   0  0  0  0  0  2  0  0  0  0  0  0
  184.9940  179.0630  145.3000 C   0  0  0  0  0  2  0  0  0  0  0  0
  186.2830  178.8220  144.6730 N   0  0  0  0  0  2  0  0  0  0  0  0
  187.8270  178.0860  141.2420 C   0  0  0  0  0  2  0  0  0  0  0  0
  187.7980  178.1930  142.7630 C   0  0  0  0  0  2  0  0  0  0  0  0
  186.4150  178.4510  143.3000 C   0  0  0  0  0  0  0  0  0  0  0  0
  185.3750  177.8790  141.1560 C   0  0  0  0  0  2  0  0  0  0  0  0
  186.6840  177.2020  140.7710 C   0  0  0  0  0  2  0  0  0  0  0  0
  185.3510  178.2320  142.5770 N   0  0  0  0  0  0  0  0  0  0  0  0
  1  2  1  0  0  0  0
  2  5  2  0  0  0  0
  2 36  1  0  0  0  0
  3  5  1  0  0  0  0
  4  3  2  0  0  0  0
  6  4  1  0  0  0  0
  6  1  2  0  0  0  0
  7  9  1  0  0  0  0
  8 19  1  0  0  0  0
  9 21  1  0  0  0  0
 10 21  1  0  0  0  0
 10  6  1  1  0  0  0
 11 19  1  0  0  0  0
 11 15  2  0  0  0  0
 12 20  2  0  0  0  0
 12  7  1  0  0  0  0
 13 17  2  0  0  0  0
 13  8  1  0  0  0  0
 14  7  2  0  0  0  0
 15 14  1  0  0  0  0
 16 10  1  0  0  0  0
 17 11  1  0  0  0  0
 18 12  1  0  0  0  0
 19 18  2  0  0  0  0
 20 16  1  0  0  0  0
 22 23  1  0  0  0  0
 22  4  1  0  0  0  0
 24 22  2  0  0  0  0
 25 23  1  0  0  0  0
 25 27  1  0  0  0  0
 27 26  1  1  0  0  0
 28 32  1  0  0  0  0
 29 31  2  0  0  0  0
 30 31  1  0  0  0  0
 30 28  1  0  0  0  0
 31 33  1  0  0  0  0
 33 27  1  0  0  0  0
 33 35  1  1  0  0  0
 33 32  1  0  0  0  0
 35 34  1  0  0  0  0
 37 36  1  0  0  0  0
 38 37  1  0  0  0  0
 39 38  1  0  0  0  0
 40 39  1  0  0  0  0
 41 42  1  0  0  0  0
 42 43  1  0  0  0  0
 43 40  1  0  0  0  0
 44 46  1  0  0  0  0
 45 44  1  0  0  0  0
 45 41  1  0  0  0  0
 46 43  2  0  0  0  0
M  END
>  <MODEL>
2

>  <REMARK>
 VINA RESULT:      -7.2      1.132      1.612
  Name = 
  11 active torsions:
  status: ('A' for Active; 'I' for Inactive)
    1  A    between atoms: N_1  and  C_36
    2  A    between atoms: C_3  and  C_40
    3  A    between atoms: C_7  and  N_18
    4  A    between atoms: C_7  and  C_37
    5  A    between atoms: C_9  and  C_44
    6  A    between atoms: N_13  and  C_30
    7  A    between atoms: C_14  and  N_18
    8  A    between atoms: C_16  and  C_30
    9  A    between atoms: C_16  and  C_46
   10  A    between atoms: C_36  and  C_37
   11  A    between atoms: C_38  and  C_46
                            x       y       z     vdW  Elec       q    Type
                         _______ _______ _______ _____ _____    ______ ____

>  <TORSDO>
F 11

$$$$
=
 OpenBabel11042414343D

 46 51  0  0  1  0  0  0  0  0999 V2000
  188.0470  176.3140  145.1720 C   0  0  0  0  0  3  0  0  0  0  0  0
  187.8540  176.3470  146.5570 C   0  0  0  0  0  0  0  0  0  0  0  0
  189.3730  174.4860  146.7910 C   0  0  0  0  0  3  0  0  0  0  0  0
  189.5930  174.4440  145.4040 C   0  0  0  0  0  0  0  0  0  0  0  0
  188.5170  175.4270  147.3630 C   0  0  0  0  0  3  0  0  0  0  0  0
  188.9040  175.3780  144.5770 C   0  0  0  0  0  0  0  0  0  0  0  0
  189.0900  174.2570  140.0570 C   0  0  0  0  0  0  0  0  0  0  0  0
  191.9580  170.9210  138.7530 C   0  0  0  0  0  2  0  0  0  0  0  0
  188.0370  175.0150  140.8190 C   0  0  0  0  0  2  0  0  0  0  0  0
  188.9660  175.4390  143.0770 C   0  0  1  0  0  3  0  0  0  0  0  0
  190.4860  172.5480  137.9200 C   0  0  0  0  0  0  0  0  0  0  0  0
  190.3790  173.8390  140.7030 C   0  0  0  0  0  0  0  0  0  0  0  0
  191.8300  170.9390  137.2570 C   0  0  0  0  0  3  0  0  0  0  0  0
  188.8090  174.0750  138.7990 N   0  0  0  0  0  0  0  0  0  0  0  0
  189.5280  173.4100  137.7860 N   0  0  0  0  0  0  0  0  0  0  0  0
  190.3470  175.6700  142.4550 C   0  0  0  0  0  2  0  0  0  0  0  0
  191.0120  171.8400  136.8130 N   0  0  0  0  0  0  0  0  0  0  0  0
  191.1030  172.6300  140.3190 C   0  0  0  0  0  3  0  0  0  0  0  0
  191.0670  172.0460  139.1360 C   0  0  0  0  0  0  0  0  0  0  0  0
  190.8950  174.4520  141.7780 C   0  0  0  0  0  3  0  0  0  0  0  0
  187.9560  174.6210  142.2860 C   0  0  0  0  0  2  0  0  0  0  0  0
  190.5380  173.4130  144.9130 C   0  0  0  0  0  0  0  0  0  0  0  0
  191.9490  173.6100  144.9880 N   0  0  0  0  0  2  0  0  0  0  0  0
  190.0880  172.3160  144.4810 O   0  0  0  0  0  0  0  0  0  0  0  0
  192.9170  172.5740  144.6480 C   0  0  0  0  0  2  0  0  0  0  0  0
  194.6040  171.1960  145.8860 C   0  0  0  0  0  1  0  0  0  0  0  0
  194.1260  172.6130  145.5870 C   0  0  1  0  0  3  0  0  0  0  0  0
  194.5760  174.8410  142.8750 C   0  0  0  0  0  2  0  0  0  0  0  0
  194.9040  175.4820  146.3640 O   0  0  0  0  0  0  0  0  0  0  0  0
  194.7510  175.8010  144.0350 C   0  0  0  0  0  2  0  0  0  0  0  0
  194.9580  174.9780  145.2530 C   0  0  0  0  0  0  0  0  0  0  0  0
  195.4430  173.2810  143.2480 S   0  0  0  0  0  0  0  0  0  0  0  0
  195.2580  173.5200  145.0500 C   0  0  2  0  0  0  0  0  0  0  0  0
  197.6450  173.8990  145.2290 O   0  0  0  0  0  1  0  0  0  0  0  0
  196.5820  173.1390  145.7240 C   0  0  0  0  0  2  0  0  0  0  0  0
  186.9830  177.3080  147.1600 N   0  0  0  0  0  2  0  0  0  0  0  0
  185.5340  177.2380  147.0400 C   0  0  0  0  0  2  0  0  0  0  0  0
  184.9520  178.6340  146.9120 C   0  0  0  0  0  2  0  0  0  0  0  0
  184.3760  178.8350  145.5240 C   0  0  0  0  0  2  0  0  0  0  0  0
  185.4090  178.5850  144.5320 N   0  0  0  0  0  2  0  0  0  0  0  0
  185.8770  178.2920  140.7380 C   0  0  0  0  0  2  0  0  0  0  0  0
  186.2670  178.1480  142.2050 C   0  0  0  0  0  2  0  0  0  0  0  0
  185.1230  178.4370  143.1410 C   0  0  0  0  0  0  0  0  0  0  0  0
  183.4860  178.3270  141.3210 C   0  0  0  0  0  2  0  0  0  0  0  0
  184.5440  177.6070  140.4950 C   0  0  0  0  0  2  0  0  0  0  0  0
  183.8860  178.4390  142.7250 N   0  0  0  0  0  0  0  0  0  0  0  0
  1  2  1  0  0  0  0
  2 36  1  0  0  0  0
  2  5  2  0  0  0  0
  3  5  1  0  0  0  0
  4  3  2  0  0  0  0
  6  1  2  0  0  0  0
  6  4  1  0  0  0  0
  7 12  1  0  0  0  0
  7  9  1  0  0  0  0
  8 19  1  0  0  0  0
  9 21  1  0  0  0  0
 10  6  1  1  0  0  0
 11 19  1  0  0  0  0
 12 20  2  0  0  0  0
 13  8  1  0  0  0  0
 14  7  2  0  0  0  0
 15 11  2  0  0  0  0
 15 14  1  0  0  0  0
 16 10  1  0  0  0  0
 17 13  2  0  0  0  0
 17 11  1  0  0  0  0
 18 12  1  0  0  0  0
 19 18  2  0  0  0  0
 20 16  1  0  0  0  0
 21 10  1  0  0  0  0
 22 23  1  0  0  0  0
 22  4  1  0  0  0  0
 24 22  2  0  0  0  0
 25 23  1  0  0  0  0
 25 27  1  0  0  0  0
 27 26  1  6  0  0  0
 28 32  1  0  0  0  0
 28 30  1  0  0  0  0
 30 31  1  0  0  0  0
 31 29  2  0  0  0  0
 32 33  1  0  0  0  0
 33 31  1  0  0  0  0
 33 27  1  0  0  0  0
 33 35  1  1  0  0  0
 34 35  1  0  0  0  0
 37 36  1  0  0  0  0
 38 37  1  0  0  0  0
 39 38  1  0  0  0  0
 40 39  1  0  0  0  0
 41 42  1  0  0  0  0
 42 43  1  0  0  0  0
 43 40  1  0  0  0  0
 44 46  1  0  0  0  0
 45 41  1  0  0  0  0
 45 44  1  0  0  0  0
 46 43  2  0  0  0  0
M  END
>  <MODEL>
3

>  <REMARK>
 VINA RESULT:      -7.2      2.146      2.799
  Name = 
  11 active torsions:
  status: ('A' for Active; 'I' for Inactive)
    1  A    between atoms: N_1  and  C_36
    2  A    between atoms: C_3  and  C_40
    3  A    between atoms: C_7  and  N_18
    4  A    between atoms: C_7  and  C_37
    5  A    between atoms: C_9  and  C_44
    6  A    between atoms: N_13  and  C_30
    7  A    between atoms: C_14  and  N_18
    8  A    between atoms: C_16  and  C_30
    9  A    between atoms: C_16  and  C_46
   10  A    between atoms: C_36  and  C_37
   11  A    between atoms: C_38  and  C_46
                            x       y       z     vdW  Elec       q    Type
                         _______ _______ _______ _____ _____    ______ ____

>  <TORSDO>
F 11

$$$$
=
 OpenBabel11042414343D

 46 51  0  0  1  0  0  0  0  0999 V2000
  188.1310  176.1370  142.8110 C   0  0  0  0  0  3  0  0  0  0  0  0
  187.9650  177.4510  143.2570 C   0  0  0  0  0  0  0  0  0  0  0  0
  190.3490  177.6110  143.6040 C   0  0  0  0  0  3  0  0  0  0  0  0
  190.5400  176.2960  143.1460 C   0  0  0  0  0  0  0  0  0  0  0  0
  189.0790  178.1840  143.6570 C   0  0  0  0  0  3  0  0  0  0  0  0
  189.3980  175.5410  142.7480 C   0  0  0  0  0  0  0  0  0  0  0  0
  190.5750  171.0980  141.9720 C   0  0  0  0  0  0  0  0  0  0  0  0
  194.8830  170.1750  140.6900 C   0  0  0  0  0  2  0  0  0  0  0  0
  189.4010  171.6680  142.7240 C   0  0  0  0  0  2  0  0  0  0  0  0
  189.4040  174.1090  142.2950 C   0  0  1  0  0  3  0  0  0  0  0  0
  192.7790  169.1850  141.0140 C   0  0  0  0  0  0  0  0  0  0  0  0
  191.5250  171.9810  141.2150 C   0  0  0  0  0  0  0  0  0  0  0  0
  194.8400  168.6980  140.4210 C   0  0  0  0  0  3  0  0  0  0  0  0
  190.6340  169.7980  141.9840 N   0  0  0  0  0  0  0  0  0  0  0  0
  191.5770  168.9190  141.4150 N   0  0  0  0  0  0  0  0  0  0  0  0
  189.8480  173.8450  140.8530 C   0  0  0  0  0  2  0  0  0  0  0  0
  193.6730  168.1670  140.6070 N   0  0  0  0  0  0  0  0  0  0  0  0
  192.9390  171.6590  141.0430 C   0  0  0  0  0  3  0  0  0  0  0  0
  193.4660  170.4490  141.0430 C   0  0  0  0  0  0  0  0  0  0  0  0
  191.1950  173.1990  140.7630 C   0  0  0  0  0  3  0  0  0  0  0  0
  189.6830  173.0320  143.3340 C   0  0  0  0  0  2  0  0  0  0  0  0
  191.9360  175.8000  143.1160 C   0  0  0  0  0  0  0  0  0  0  0  0
  192.4140  174.8790  144.0950 N   0  0  0  0  0  2  0  0  0  0  0  0
  192.6960  176.1470  142.1700 O   0  0  0  0  0  0  0  0  0  0  0  0
  193.7300  174.2570  144.0290 C   0  0  0  0  0  2  0  0  0  0  0  0
  195.0630  175.2030  145.9280 C   0  0  0  0  0  1  0  0  0  0  0  0
  194.8320  175.2450  144.4210 C   0  0  1  0  0  3  0  0  0  0  0  0
  195.7400  175.0060  141.0090 C   0  0  0  0  0  2  0  0  0  0  0  0
  196.9480  177.2660  143.4840 O   0  0  0  0  0  0  0  0  0  0  0  0
  196.5370  176.2330  141.4070 C   0  0  0  0  0  2  0  0  0  0  0  0
  196.5670  176.2690  142.8910 C   0  0  0  0  0  0  0  0  0  0  0  0
  195.8610  173.7550  142.3300 S   0  0  0  0  0  0  0  0  0  0  0  0
  196.1340  175.0260  143.6150 C   0  0  2  0  0  0  0  0  0  0  0  0
  197.6420  173.2320  144.2300 O   0  0  0  0  0  1  0  0  0  0  0  0
  197.2400  174.5310  144.5540 C   0  0  0  0  0  2  0  0  0  0  0  0
  186.6710  178.0560  143.3150 N   0  0  0  0  0  2  0  0  0  0  0  0
  186.1900  178.7730  144.4870 C   0  0  0  0  0  2  0  0  0  0  0  0
  185.3550  177.8510  145.3570 C   0  0  0  0  0  2  0  0  0  0  0  0
  186.0900  177.5400  146.6460 C   0  0  0  0  0  2  0  0  0  0  0  0
  186.9250  176.3650  146.4540 N   0  0  0  0  0  2  0  0  0  0  0  0
  190.4750  175.0970  147.1480 C   0  0  0  0  0  2  0  0  0  0  0  0
  189.0920  175.0850  146.5060 C   0  0  0  0  0  2  0  0  0  0  0  0
  188.3150  176.3460  146.7770 C   0  0  0  0  0  0  0  0  0  0  0  0
  190.3160  177.5160  147.5740 C   0  0  0  0  0  2  0  0  0  0  0  0
  191.1450  176.4360  146.8910 C   0  0  0  0  0  2  0  0  0  0  0  0
  188.9060  177.4360  147.1870 N   0  0  0  0  0  0  0  0  0  0  0  0
  1  2  1  0  0  0  0
  2 36  1  0  0  0  0
  2  5  2  0  0  0  0
  3  5  1  0  0  0  0
  4  3  2  0  0  0  0
  6  1  2  0  0  0  0
  6  4  1  0  0  0  0
  7 14  2  0  0  0  0
  7  9  1  0  0  0  0
  8 19  1  0  0  0  0
  9 21  1  0  0  0  0
 10  6  1  1  0  0  0
 10 21  1  0  0  0  0
 11 19  1  0  0  0  0
 11 15  2  0  0  0  0
 12  7  1  0  0  0  0
 13 17  2  0  0  0  0
 13  8  1  0  0  0  0
 15 14  1  0  0  0  0
 16 10  1  0  0  0  0
 17 11  1  0  0  0  0
 18 12  1  0  0  0  0
 19 18  2  0  0  0  0
 20 16  1  0  0  0  0
 20 12  2  0  0  0  0
 22  4  1  0  0  0  0
 22 23  1  0  0  0  0
 24 22  2  0  0  0  0
 25 23  1  0  0  0  0
 25 27  1  0  0  0  0
 27 26  1  1  0  0  0
 28 30  1  0  0  0  0
 28 32  1  0  0  0  0
 30 31  1  0  0  0  0
 31 29  2  0  0  0  0
 31 33  1  0  0  0  0
 32 33  1  0  0  0  0
 33 27  1  0  0  0  0
 33 35  1  1  0  0  0
 34 35  1  0  0  0  0
 36 37  1  0  0  0  0
 37 38  1  0  0  0  0
 38 39  1  0  0  0  0
 40 39  1  0  0  0  0
 40 43  1  0  0  0  0
 42 43  1  0  0  0  0
 42 41  1  0  0  0  0
 43 46  2  0  0  0  0
 45 41  1  0  0  0  0
 45 44  1  0  0  0  0
 46 44  1  0  0  0  0
M  END
>  <MODEL>
4

>  <REMARK>
 VINA RESULT:      -7.1      1.894      3.458
  Name = 
  11 active torsions:
  status: ('A' for Active; 'I' for Inactive)
    1  A    between atoms: N_1  and  C_36
    2  A    between atoms: C_3  and  C_40
    3  A    between atoms: C_7  and  N_18
    4  A    between atoms: C_7  and  C_37
    5  A    between atoms: C_9  and  C_44
    6  A    between atoms: N_13  and  C_30
    7  A    between atoms: C_14  and  N_18
    8  A    between atoms: C_16  and  C_30
    9  A    between atoms: C_16  and  C_46
   10  A    between atoms: C_36  and  C_37
   11  A    between atoms: C_38  and  C_46
                            x       y       z     vdW  Elec       q    Type
                         _______ _______ _______ _____ _____    ______ ____

>  <TORSDO>
F 11

$$$$
=
 OpenBabel11042414343D

 46 51  0  0  1  0  0  0  0  0999 V2000
  193.3860  173.0060  145.5700 C   0  0  0  0  0  3  0  0  0  0  0  0
  194.2590  172.0150  145.1100 C   0  0  0  0  0  0  0  0  0  0  0  0
  192.9100  171.7820  143.1210 C   0  0  0  0  0  3  0  0  0  0  0  0
  192.0290  172.7860  143.5580 C   0  0  0  0  0  0  0  0  0  0  0  0
  194.0140  171.4020  143.8850 C   0  0  0  0  0  3  0  0  0  0  0  0
  192.2730  173.4040  144.8180 C   0  0  0  0  0  0  0  0  0  0  0  0
  188.7430  176.2510  145.9000 C   0  0  0  0  0  0  0  0  0  0  0  0
  186.5940  178.4510  142.4950 C   0  0  0  0  0  2  0  0  0  0  0  0
  189.3810  175.1540  146.7110 C   0  0  0  0  0  2  0  0  0  0  0  0
  191.4060  174.4440  145.4700 C   0  0  1  0  0  3  0  0  0  0  0  0
  186.7040  178.2850  144.8340 C   0  0  0  0  0  0  0  0  0  0  0  0
  189.3020  176.6700  144.5710 C   0  0  0  0  0  0  0  0  0  0  0  0
  185.6320  179.3410  143.2300 C   0  0  0  0  0  3  0  0  0  0  0  0
  187.7360  176.8290  146.4870 N   0  0  0  0  0  0  0  0  0  0  0  0
  186.8920  177.8670  146.0450 N   0  0  0  0  0  0  0  0  0  0  0  0
  191.6630  175.9010  145.0750 C   0  0  0  0  0  2  0  0  0  0  0  0
  185.7040  179.2360  144.5190 N   0  0  0  0  0  0  0  0  0  0  0  0
  188.4670  177.1810  143.4860 C   0  0  0  0  0  3  0  0  0  0  0  0
  187.3110  177.8010  143.6220 C   0  0  0  0  0  0  0  0  0  0  0  0
  190.5790  176.4750  144.2160 C   0  0  0  0  0  3  0  0  0  0  0  0
  189.9870  174.0510  145.8580 C   0  0  0  0  0  2  0  0  0  0  0  0
  190.9030  173.1190  142.6540 C   0  0  0  0  0  0  0  0  0  0  0  0
  191.1360  173.5940  141.3280 N   0  0  0  0  0  2  0  0  0  0  0  0
  189.7190  172.9160  143.0400 O   0  0  0  0  0  0  0  0  0  0  0  0
  190.0680  173.8020  140.3580 C   0  0  0  0  0  2  0  0  0  0  0  0
  191.9210  172.9910  138.8800 C   0  0  0  0  0  1  0  0  0  0  0  0
  190.6030  173.7580  138.9250 C   0  0  1  0  0  3  0  0  0  0  0  0
  190.6210  172.5110  135.6130 C   0  0  0  0  0  2  0  0  0  0  0  0
  189.4870  170.9150  138.5900 O   0  0  0  0  0  0  0  0  0  0  0  0
  190.1310  171.2820  136.3540 C   0  0  0  0  0  2  0  0  0  0  0  0
  189.7130  171.7270  137.7070 C   0  0  0  0  0  0  0  0  0  0  0  0
  189.7960  173.9900  136.2890 S   0  0  0  0  0  0  0  0  0  0  0  0
  189.5610  173.2060  137.9230 C   0  0  2  0  0  0  0  0  0  0  0  0
  187.7190  174.7810  137.9380 O   0  0  0  0  0  1  0  0  0  0  0  0
  188.1490  173.5410  138.4180 C   0  0  0  0  0  2  0  0  0  0  0  0
  195.3970  171.6150  145.8780 N   0  0  0  0  0  2  0  0  0  0  0  0
  196.7610  171.9400  145.4880 C   0  0  0  0  0  2  0  0  0  0  0  0
  197.1270  173.3300  145.9760 C   0  0  0  0  0  2  0  0  0  0  0  0
  197.5680  174.1940  144.8120 C   0  0  0  0  0  2  0  0  0  0  0  0
  196.5020  175.1230  144.4700 N   0  0  0  0  0  2  0  0  0  0  0  0
  193.7110  175.6220  141.8890 C   0  0  0  0  0  2  0  0  0  0  0  0
  194.6580  176.0280  143.0140 C   0  0  0  0  0  2  0  0  0  0  0  0
  195.7140  174.9890  143.2860 C   0  0  0  0  0  0  0  0  0  0  0  0
  195.2280  173.8120  141.1930 C   0  0  0  0  0  2  0  0  0  0  0  0
  194.5130  175.0720  140.7220 C   0  0  0  0  0  2  0  0  0  0  0  0
  195.9910  174.0540  142.4190 N   0  0  0  0  0  0  0  0  0  0  0  0
  2  1  1  0  0  0  0
  2 36  1  0  0  0  0
  3  4  2  0  0  0  0
  3  5  1  0  0  0  0
  4  6  1  0  0  0  0
  5  2  2  0  0  0  0
  6  1  2  0  0  0  0
  7 14  2  0  0  0  0
  7  9  1  0  0  0  0
  8 13  1  0  0  0  0
  8 19  1  0  0  0  0
 10  6  1  6  0  0  0
 10 21  1  0  0  0  0
 11 15  2  0  0  0  0
 12  7  1  0  0  0  0
 13 17  2  0  0  0  0
 15 14  1  0  0  0  0
 16 10  1  0  0  0  0
 17 11  1  0  0  0  0
 18 19  2  0  0  0  0
 18 12  1  0  0  0  0
 19 11  1  0  0  0  0
 20 12  2  0  0  0  0
 20 16  1  0  0  0  0
 21  9  1  0  0  0  0
 22 24  2  0  0  0  0
 22  4  1  0  0  0  0
 23 22  1  0  0  0  0
 25 23  1  0  0  0  0
 27 26  1  1  0  0  0
 27 25  1  0  0  0  0
 28 32  1  0  0  0  0
 28 30  1  0  0  0  0
 30 31  1  0  0  0  0
 31 33  1  0  0  0  0
 31 29  2  0  0  0  0
 32 33  1  0  0  0  0
 33 35  1  1  0  0  0
 33 27  1  0  0  0  0
 34 35  1  0  0  0  0
 37 36  1  0  0  0  0
 37 38  1  0  0  0  0
 39 38  1  0  0  0  0
 40 39  1  0  0  0  0
 41 42  1  0  0  0  0
 42 43  1  0  0  0  0
 43 40  1  0  0  0  0
 44 46  1  0  0  0  0
 45 44  1  0  0  0  0
 45 41  1  0  0  0  0
 46 43  2  0  0  0  0
M  END
>  <MODEL>
5

>  <REMARK>
 VINA RESULT:      -7.0      3.176      8.530
  Name = 
  11 active torsions:
  status: ('A' for Active; 'I' for Inactive)
    1  A    between atoms: N_1  and  C_36
    2  A    between atoms: C_3  and  C_40
    3  A    between atoms: C_7  and  N_18
    4  A    between atoms: C_7  and  C_37
    5  A    between atoms: C_9  and  C_44
    6  A    between atoms: N_13  and  C_30
    7  A    between atoms: C_14  and  N_18
    8  A    between atoms: C_16  and  C_30
    9  A    between atoms: C_16  and  C_46
   10  A    between atoms: C_36  and  C_37
   11  A    between atoms: C_38  and  C_46
                            x       y       z     vdW  Elec       q    Type
                         _______ _______ _______ _____ _____    ______ ____

>  <TORSDO>
F 11

$$$$
=
 OpenBabel11042414343D

 46 51  0  0  1  0  0  0  0  0999 V2000
  188.6700  177.1490  142.5890 C   0  0  0  0  0  3  0  0  0  0  0  0
  187.5800  177.2120  141.7160 C   0  0  0  0  0  0  0  0  0  0  0  0
  188.2160  175.0700  140.8020 C   0  0  0  0  0  3  0  0  0  0  0  0
  189.3100  174.9800  141.6800 C   0  0  0  0  0  0  0  0  0  0  0  0
  187.3590  176.1710  140.8200 C   0  0  0  0  0  3  0  0  0  0  0  0
  189.5430  176.0530  142.5890 C   0  0  0  0  0  0  0  0  0  0  0  0
  193.6670  175.5550  144.7040 C   0  0  0  0  0  0  0  0  0  0  0  0
  195.4600  171.3440  145.0250 C   0  0  0  0  0  2  0  0  0  0  0  0
  193.0170  176.7890  144.1380 C   0  0  0  0  0  2  0  0  0  0  0  0
  190.6930  176.1570  143.5500 C   0  0  1  0  0  3  0  0  0  0  0  0
  195.7860  173.5680  145.7020 C   0  0  0  0  0  0  0  0  0  0  0  0
  192.9420  174.2420  144.7630 C   0  0  0  0  0  0  0  0  0  0  0  0
  196.6910  171.5690  145.8550 C   0  0  0  0  0  3  0  0  0  0  0  0
  194.8580  175.7570  145.1910 N   0  0  0  0  0  0  0  0  0  0  0  0
  195.7690  174.8600  145.7820 N   0  0  0  0  0  0  0  0  0  0  0  0
  190.6280  175.2740  144.8000 C   0  0  0  0  0  2  0  0  0  0  0  0
  196.8580  172.8010  146.2180 N   0  0  0  0  0  0  0  0  0  0  0  0
  193.6230  172.9540  144.6570 C   0  0  0  0  0  3  0  0  0  0  0  0
  194.8760  172.7090  144.9910 C   0  0  0  0  0  0  0  0  0  0  0  0
  191.6050  174.1400  144.7690 C   0  0  0  0  0  3  0  0  0  0  0  0
  192.0670  176.4940  142.9880 C   0  0  0  0  0  2  0  0  0  0  0  0
  190.1400  173.7560  141.5830 C   0  0  0  0  0  0  0  0  0  0  0  0
  191.3870  173.7640  140.8900 N   0  0  0  0  0  2  0  0  0  0  0  0
  189.7680  172.7070  142.1780 O   0  0  0  0  0  0  0  0  0  0  0  0
  192.3020  172.6280  140.8840 C   0  0  0  0  0  2  0  0  0  0  0  0
  192.1920  173.1670  138.4400 C   0  0  0  0  0  1  0  0  0  0  0  0
  193.0140  172.4950  139.5360 C   0  0  1  0  0  3  0  0  0  0  0  0
  194.6870  175.3790  140.7200 C   0  0  0  0  0  2  0  0  0  0  0  0
  195.2340  171.9670  141.5930 O   0  0  0  0  0  0  0  0  0  0  0  0
  195.3380  174.3210  141.5910 C   0  0  0  0  0  2  0  0  0  0  0  0
  195.0260  173.0040  140.9820 C   0  0  0  0  0  0  0  0  0  0  0  0
  194.5350  174.7460  139.0170 S   0  0  0  0  0  0  0  0  0  0  0  0
  194.4710  173.0100  139.5850 C   0  0  2  0  0  0  0  0  0  0  0  0
  194.6910  170.9940  138.2600 O   0  0  0  0  0  1  0  0  0  0  0  0
  195.3450  172.1660  138.6500 C   0  0  0  0  0  2  0  0  0  0  0  0
  186.6890  178.3310  141.7240 N   0  0  0  0  0  2  0  0  0  0  0  0
  185.3720  178.2900  141.1040 C   0  0  0  0  0  2  0  0  0  0  0  0
  184.2940  178.2340  142.1710 C   0  0  0  0  0  2  0  0  0  0  0  0
  184.7170  179.0400  143.3840 C   0  0  0  0  0  2  0  0  0  0  0  0
  184.4420  178.2750  144.5900 N   0  0  0  0  0  2  0  0  0  0  0  0
  186.2280  176.8010  147.6450 C   0  0  0  0  0  2  0  0  0  0  0  0
  185.0780  176.9940  146.6620 C   0  0  0  0  0  2  0  0  0  0  0  0
  185.4750  177.8060  145.4570 C   0  0  0  0  0  0  0  0  0  0  0  0
  187.8590  177.5750  145.9720 C   0  0  0  0  0  2  0  0  0  0  0  0
  187.4870  176.4160  146.8870 C   0  0  0  0  0  2  0  0  0  0  0  0
  186.7270  177.9870  145.1390 N   0  0  0  0  0  0  0  0  0  0  0  0
  1  6  1  0  0  0  0
  2 36  1  0  0  0  0
  2  1  2  0  0  0  0
  3  5  2  0  0  0  0
  3  4  1  0  0  0  0
  4  6  2  0  0  0  0
  5  2  1  0  0  0  0
  7 12  1  0  0  0  0
  7 14  2  0  0  0  0
  8 13  1  0  0  0  0
  9  7  1  0  0  0  0
 10  6  1  6  0  0  0
 10 16  1  0  0  0  0
 11 15  2  0  0  0  0
 11 17  1  0  0  0  0
 12 20  2  0  0  0  0
 13 17  2  0  0  0  0
 14 15  1  0  0  0  0
 18 12  1  0  0  0  0
 18 19  2  0  0  0  0
 19  8  1  0  0  0  0
 19 11  1  0  0  0  0
 20 16  1  0  0  0  0
 21 10  1  0  0  0  0
 21  9  1  0  0  0  0
 22  4  1  0  0  0  0
 22 24  2  0  0  0  0
 23 22  1  0  0  0  0
 25 23  1  0  0  0  0
 27 26  1  6  0  0  0
 27 33  1  0  0  0  0
 27 25  1  0  0  0  0
 28 30  1  0  0  0  0
 31 30  1  0  0  0  0
 31 29  2  0  0  0  0
 32 33  1  0  0  0  0
 32 28  1  0  0  0  0
 33 35  1  6  0  0  0
 33 31  1  0  0  0  0
 34 35  1  0  0  0  0
 37 36  1  0  0  0  0
 37 38  1  0  0  0  0
 38 39  1  0  0  0  0
 39 40  1  0  0  0  0
 40 43  1  0  0  0  0
 42 41  1  0  0  0  0
 43 42  1  0  0  0  0
 44 45  1  0  0  0  0
 45 41  1  0  0  0  0
 46 43  2  0  0  0  0
 46 44  1  0  0  0  0
M  END
>  <MODEL>
6

>  <REMARK>
 VINA RESULT:      -6.8      2.205      5.114
  Name = 
  11 active torsions:
  status: ('A' for Active; 'I' for Inactive)
    1  A    between atoms: N_1  and  C_36
    2  A    between atoms: C_3  and  C_40
    3  A    between atoms: C_7  and  N_18
    4  A    between atoms: C_7  and  C_37
    5  A    between atoms: C_9  and  C_44
    6  A    between atoms: N_13  and  C_30
    7  A    between atoms: C_14  and  N_18
    8  A    between atoms: C_16  and  C_30
    9  A    between atoms: C_16  and  C_46
   10  A    between atoms: C_36  and  C_37
   11  A    between atoms: C_38  and  C_46
                            x       y       z     vdW  Elec       q    Type
                         _______ _______ _______ _____ _____    ______ ____

>  <TORSDO>
F 11

$$$$
=
 OpenBabel11042414343D

 46 51  0  0  1  0  0  0  0  0999 V2000
  187.6070  175.9230  141.0970 C   0  0  0  0  0  3  0  0  0  0  0  0
  187.1880  177.2550  141.0250 C   0  0  0  0  0  0  0  0  0  0  0  0
  189.1110  177.9060  142.3320 C   0  0  0  0  0  3  0  0  0  0  0  0
  189.5570  176.5760  142.4050 C   0  0  0  0  0  0  0  0  0  0  0  0
  187.9420  178.2440  141.6490 C   0  0  0  0  0  3  0  0  0  0  0  0
  188.7780  175.5610  141.7770 C   0  0  0  0  0  0  0  0  0  0  0  0
  190.8470  171.4140  142.2720 C   0  0  0  0  0  0  0  0  0  0  0  0
  195.1210  170.9060  140.6820 C   0  0  0  0  0  2  0  0  0  0  0  0
  189.6470  171.9830  142.9810 C   0  0  0  0  0  2  0  0  0  0  0  0
  189.0650  174.0870  141.8060 C   0  0  1  0  0  3  0  0  0  0  0  0
  193.3300  169.7220  141.6320 C   0  0  0  0  0  0  0  0  0  0  0  0
  191.5040  172.1400  141.1330 C   0  0  0  0  0  0  0  0  0  0  0  0
  195.3870  169.4440  140.9050 C   0  0  0  0  0  3  0  0  0  0  0  0
  191.1970  170.2300  142.6850 N   0  0  0  0  0  0  0  0  0  0  0  0
  192.2580  169.3960  142.2820 N   0  0  0  0  0  0  0  0  0  0  0  0
  189.4260  173.4290  140.4710 C   0  0  0  0  0  2  0  0  0  0  0  0
  194.3900  168.8060  141.4320 N   0  0  0  0  0  0  0  0  0  0  0  0
  192.9340  172.0410  140.8500 C   0  0  0  0  0  3  0  0  0  0  0  0
  193.7160  171.0220  141.1500 C   0  0  0  0  0  0  0  0  0  0  0  0
  190.8710  173.0470  140.3770 C   0  0  0  0  0  3  0  0  0  0  0  0
  189.6690  173.5010  143.0750 C   0  0  0  0  0  2  0  0  0  0  0  0
  190.8210  176.3390  143.1420 C   0  0  0  0  0  0  0  0  0  0  0  0
  192.0570  176.1650  142.4500 N   0  0  0  0  0  2  0  0  0  0  0  0
  190.8150  176.3580  144.4030 O   0  0  0  0  0  0  0  0  0  0  0  0
  193.3430  176.0690  143.1300 C   0  0  0  0  0  2  0  0  0  0  0  0
  195.1130  174.7000  142.0030 C   0  0  0  0  0  1  0  0  0  0  0  0
  193.9460  174.6690  142.9840 C   0  0  1  0  0  3  0  0  0  0  0  0
  194.2940  175.7970  146.3200 C   0  0  0  0  0  2  0  0  0  0  0  0
  192.2190  173.1920  145.0520 O   0  0  0  0  0  0  0  0  0  0  0  0
  193.1840  174.7800  146.5010 C   0  0  0  0  0  2  0  0  0  0  0  0
  193.1560  173.9430  145.2750 C   0  0  0  0  0  0  0  0  0  0  0  0
  195.5540  175.1180  145.1900 S   0  0  0  0  0  0  0  0  0  0  0  0
  194.3330  174.0500  144.3480 C   0  0  2  0  0  0  0  0  0  0  0  0
  196.1630  172.5400  144.8400 O   0  0  0  0  0  1  0  0  0  0  0  0
  194.9720  172.6740  144.1220 C   0  0  0  0  0  2  0  0  0  0  0  0
  185.9950  177.6200  140.3260 N   0  0  0  0  0  2  0  0  0  0  0  0
  185.0140  178.5440  140.8760 C   0  0  0  0  0  2  0  0  0  0  0  0
  184.3970  177.9640  142.1350 C   0  0  0  0  0  2  0  0  0  0  0  0
  184.5520  178.9340  143.2890 C   0  0  0  0  0  2  0  0  0  0  0  0
  184.3350  178.2310  144.5430 N   0  0  0  0  0  2  0  0  0  0  0  0
  186.2740  176.8370  147.5420 C   0  0  0  0  0  2  0  0  0  0  0  0
  185.0680  177.0220  146.6260 C   0  0  0  0  0  2  0  0  0  0  0  0
  185.4080  177.7700  145.3640 C   0  0  0  0  0  0  0  0  0  0  0  0
  187.8140  177.4910  145.7370 C   0  0  0  0  0  2  0  0  0  0  0  0
  187.4710  176.3840  146.7250 C   0  0  0  0  0  2  0  0  0  0  0  0
  186.6420  177.8990  144.9590 N   0  0  0  0  0  0  0  0  0  0  0  0
  1  6  1  0  0  0  0
  2  1  2  0  0  0  0
  2  5  1  0  0  0  0
  3  4  1  0  0  0  0
  4 22  1  0  0  0  0
  5  3  2  0  0  0  0
  6  4  2  0  0  0  0
  7 14  2  0  0  0  0
  7  9  1  0  0  0  0
  8 13  1  0  0  0  0
  8 19  1  0  0  0  0
  9 21  1  0  0  0  0
 10  6  1  6  0  0  0
 10 21  1  0  0  0  0
 11 15  2  0  0  0  0
 12  7  1  0  0  0  0
 13 17  2  0  0  0  0
 15 14  1  0  0  0  0
 16 10  1  0  0  0  0
 17 11  1  0  0  0  0
 18 12  1  0  0  0  0
 18 19  2  0  0  0  0
 19 11  1  0  0  0  0
 20 16  1  0  0  0  0
 20 12  2  0  0  0  0
 22 24  2  0  0  0  0
 23 25  1  0  0  0  0
 23 22  1  0  0  0  0
 27 26  1  6  0  0  0
 27 25  1  0  0  0  0
 27 33  1  0  0  0  0
 28 30  1  0  0  0  0
 29 31  2  0  0  0  0
 31 30  1  0  0  0  0
 32 28  1  0  0  0  0
 33 35  1  6  0  0  0
 33 32  1  0  0  0  0
 33 31  1  0  0  0  0
 35 34  1  0  0  0  0
 36 37  1  0  0  0  0
 36  2  1  0  0  0  0
 37 38  1  0  0  0  0
 38 39  1  0  0  0  0
 39 40  1  0  0  0  0
 40 43  1  0  0  0  0
 42 41  1  0  0  0  0
 43 42  1  0  0  0  0
 44 45  1  0  0  0  0
 45 41  1  0  0  0  0
 46 43  2  0  0  0  0
 46 44  1  0  0  0  0
M  END
>  <MODEL>
7

>  <REMARK>
 VINA RESULT:      -6.7      1.848      3.720
  Name = 
  11 active torsions:
  status: ('A' for Active; 'I' for Inactive)
    1  A    between atoms: N_1  and  C_36
    2  A    between atoms: C_3  and  C_40
    3  A    between atoms: C_7  and  N_18
    4  A    between atoms: C_7  and  C_37
    5  A    between atoms: C_9  and  C_44
    6  A    between atoms: N_13  and  C_30
    7  A    between atoms: C_14  and  N_18
    8  A    between atoms: C_16  and  C_30
    9  A    between atoms: C_16  and  C_46
   10  A    between atoms: C_36  and  C_37
   11  A    between atoms: C_38  and  C_46
                            x       y       z     vdW  Elec       q    Type
                         _______ _______ _______ _____ _____    ______ ____

>  <TORSDO>
F 11

$$$$
=
 OpenBabel11042414343D

 46 51  0  0  1  0  0  0  0  0999 V2000
  188.9170  175.8110  142.8980 C   0  0  0  0  0  3  0  0  0  0  0  0
  188.0400  176.8790  142.6850 C   0  0  0  0  0  0  0  0  0  0  0  0
  187.4410  175.9310  140.5470 C   0  0  0  0  0  3  0  0  0  0  0  0
  188.3060  174.8420  140.7470 C   0  0  0  0  0  0  0  0  0  0  0  0
  187.3060  176.9370  141.5040 C   0  0  0  0  0  3  0  0  0  0  0  0
  189.0670  174.7890  141.9510 C   0  0  0  0  0  0  0  0  0  0  0  0
  192.4060  172.3310  144.0810 C   0  0  0  0  0  0  0  0  0  0  0  0
  196.0480  174.5760  145.7360 C   0  0  0  0  0  2  0  0  0  0  0  0
  190.9810  171.9560  143.7720 C   0  0  0  0  0  2  0  0  0  0  0  0
  190.0830  173.7400  142.3040 C   0  0  1  0  0  3  0  0  0  0  0  0
  195.1820  172.4220  145.3920 C   0  0  0  0  0  0  0  0  0  0  0  0
  193.0040  173.6160  143.5870 C   0  0  0  0  0  0  0  0  0  0  0  0
  196.9330  173.4630  146.2200 C   0  0  0  0  0  3  0  0  0  0  0  0
  193.0650  171.4190  144.7360 N   0  0  0  0  0  0  0  0  0  0  0  0
  194.3920  171.4120  145.2090 N   0  0  0  0  0  0  0  0  0  0  0  0
  191.4420  173.8340  141.6040 C   0  0  0  0  0  2  0  0  0  0  0  0
  196.4400  172.2810  146.0250 N   0  0  0  0  0  0  0  0  0  0  0  0
  194.0380  174.3420  144.3200 C   0  0  0  0  0  3  0  0  0  0  0  0
  194.9120  173.8160  145.1560 C   0  0  0  0  0  0  0  0  0  0  0  0
  192.5420  174.2780  142.5170 C   0  0  0  0  0  3  0  0  0  0  0  0
  190.0450  173.1520  143.7080 C   0  0  0  0  0  2  0  0  0  0  0  0
  188.3530  173.8250  139.6700 C   0  0  0  0  0  0  0  0  0  0  0  0
  189.0560  174.0710  138.4530 N   0  0  0  0  0  2  0  0  0  0  0  0
  187.8170  172.6990  139.8580 O   0  0  0  0  0  0  0  0  0  0  0  0
  189.2470  173.0560  137.4250 C   0  0  0  0  0  2  0  0  0  0  0  0
  191.5870  173.7040  138.0420 C   0  0  0  0  0  1  0  0  0  0  0  0
  190.7320  172.7400  137.2260 C   0  0  1  0  0  3  0  0  0  0  0  0
  193.6230  170.8500  137.9970 C   0  0  0  0  0  2  0  0  0  0  0  0
  190.6010  171.1630  139.8590 O   0  0  0  0  0  0  0  0  0  0  0  0
  192.8130  170.6170  139.2580 C   0  0  0  0  0  2  0  0  0  0  0  0
  191.4180  171.0330  138.9620 C   0  0  0  0  0  0  0  0  0  0  0  0
  192.5230  170.7440  136.5460 S   0  0  0  0  0  0  0  0  0  0  0  0
  191.0640  171.2580  137.5190 C   0  0  2  0  0  0  0  0  0  0  0  0
  190.0640  169.0510  137.5050 O   0  0  0  0  0  1  0  0  0  0  0  0
  189.8780  170.3770  137.1080 C   0  0  0  0  0  2  0  0  0  0  0  0
  187.8860  177.9170  143.6570 N   0  0  0  0  0  2  0  0  0  0  0  0
  186.5850  178.4380  144.0500 C   0  0  0  0  0  2  0  0  0  0  0  0
  185.9010  177.4740  145.0010 C   0  0  0  0  0  2  0  0  0  0  0  0
  186.4460  177.6480  146.4050 C   0  0  0  0  0  2  0  0  0  0  0  0
  187.0810  176.4120  146.8320 N   0  0  0  0  0  2  0  0  0  0  0  0
  190.5560  174.9200  147.4610 C   0  0  0  0  0  2  0  0  0  0  0  0
  189.0460  174.8940  147.2520 C   0  0  0  0  0  2  0  0  0  0  0  0
  188.4970  176.2280  146.8190 C   0  0  0  0  0  0  0  0  0  0  0  0
  190.7350  177.0840  146.3020 C   0  0  0  0  0  2  0  0  0  0  0  0
  191.2200  175.6400  146.3000 C   0  0  0  0  0  2  0  0  0  0  0  0
  189.2720  177.1590  146.3330 N   0  0  0  0  0  0  0  0  0  0  0  0
  2  1  1  0  0  0  0
  2 36  1  0  0  0  0
  3  4  2  0  0  0  0
  3  5  1  0  0  0  0
  4  6  1  0  0  0  0
  5  2  2  0  0  0  0
  6  1  2  0  0  0  0
  7 14  2  0  0  0  0
  8 13  1  0  0  0  0
  9  7  1  0  0  0  0
 10  6  1  1  0  0  0
 10 21  1  0  0  0  0
 11 17  1  0  0  0  0
 12  7  1  0  0  0  0
 12 18  1  0  0  0  0
 14 15  1  0  0  0  0
 15 11  2  0  0  0  0
 16 10  1  0  0  0  0
 16 20  1  0  0  0  0
 17 13  2  0  0  0  0
 18 19  2  0  0  0  0
 19 11  1  0  0  0  0
 19  8  1  0  0  0  0
 20 12  2  0  0  0  0
 21  9  1  0  0  0  0
 22 24  2  0  0  0  0
 22  4  1  0  0  0  0
 23 22  1  0  0  0  0
 25 23  1  0  0  0  0
 27 25  1  0  0  0  0
 27 33  1  0  0  0  0
 27 26  1  1  0  0  0
 28 30  1  0  0  0  0
 31 30  1  0  0  0  0
 31 29  2  0  0  0  0
 32 33  1  0  0  0  0
 32 28  1  0  0  0  0
 33 35  1  6  0  0  0
 33 31  1  0  0  0  0
 35 34  1  0  0  0  0
 36 37  1  0  0  0  0
 37 38  1  0  0  0  0
 38 39  1  0  0  0  0
 39 40  1  0  0  0  0
 42 41  1  0  0  0  0
 43 40  1  0  0  0  0
 43 42  1  0  0  0  0
 44 46  1  0  0  0  0
 45 44  1  0  0  0  0
 45 41  1  0  0  0  0
 46 43  2  0  0  0  0
M  END
>  <MODEL>
8

>  <REMARK>
 VINA RESULT:      -6.7      3.209      6.131
  Name = 
  11 active torsions:
  status: ('A' for Active; 'I' for Inactive)
    1  A    between atoms: N_1  and  C_36
    2  A    between atoms: C_3  and  C_40
    3  A    between atoms: C_7  and  N_18
    4  A    between atoms: C_7  and  C_37
    5  A    between atoms: C_9  and  C_44
    6  A    between atoms: N_13  and  C_30
    7  A    between atoms: C_14  and  N_18
    8  A    between atoms: C_16  and  C_30
    9  A    between atoms: C_16  and  C_46
   10  A    between atoms: C_36  and  C_37
   11  A    between atoms: C_38  and  C_46
                            x       y       z     vdW  Elec       q    Type
                         _______ _______ _______ _____ _____    ______ ____

>  <TORSDO>
F 11

$$$$
=
 OpenBabel11042414343D

 46 51  0  0  1  0  0  0  0  0999 V2000
  188.0430  176.1600  143.1460 C   0  0  0  0  0  3  0  0  0  0  0  0
  187.9530  177.5360  143.3750 C   0  0  0  0  0  0  0  0  0  0  0  0
  190.3640  177.6700  143.3770 C   0  0  0  0  0  3  0  0  0  0  0  0
  190.4760  176.2910  143.1330 C   0  0  0  0  0  0  0  0  0  0  0  0
  189.1190  178.2880  143.4950 C   0  0  0  0  0  3  0  0  0  0  0  0
  189.2830  175.5200  143.0230 C   0  0  0  0  0  0  0  0  0  0  0  0
  190.2800  171.0940  141.9500 C   0  0  0  0  0  0  0  0  0  0  0  0
  192.3010  170.2280  137.9230 C   0  0  0  0  0  2  0  0  0  0  0  0
  189.9690  171.7160  143.2860 C   0  0  0  0  0  2  0  0  0  0  0  0
  189.2130  174.0310  142.8280 C   0  0  1  0  0  3  0  0  0  0  0  0
  191.3520  169.1830  139.7980 C   0  0  0  0  0  0  0  0  0  0  0  0
  190.1790  171.8810  140.6760 C   0  0  0  0  0  0  0  0  0  0  0  0
  192.3420  168.7270  137.8880 C   0  0  0  0  0  3  0  0  0  0  0  0
  190.5630  169.8240  142.0080 N   0  0  0  0  0  0  0  0  0  0  0  0
  190.9140  168.9180  140.9880 N   0  0  0  0  0  0  0  0  0  0  0  0
  188.4840  173.5350  141.5760 C   0  0  0  0  0  2  0  0  0  0  0  0
  191.8170  168.1660  138.9310 N   0  0  0  0  0  0  0  0  0  0  0  0
  191.0290  171.6240  139.5160 C   0  0  0  0  0  3  0  0  0  0  0  0
  191.5910  170.4720  139.2050 C   0  0  0  0  0  0  0  0  0  0  0  0
  189.4100  172.9710  140.5440 C   0  0  0  0  0  3  0  0  0  0  0  0
  190.3560  173.1840  143.3690 C   0  0  0  0  0  2  0  0  0  0  0  0
  191.8510  175.7490  143.0080 C   0  0  0  0  0  0  0  0  0  0  0  0
  192.3320  175.2360  141.7670 N   0  0  0  0  0  2  0  0  0  0  0  0
  192.6290  175.8030  144.0000 O   0  0  0  0  0  0  0  0  0  0  0  0
  193.7140  174.8220  141.5590 C   0  0  0  0  0  2  0  0  0  0  0  0
  193.8030  172.3190  141.5840 C   0  0  0  0  0  1  0  0  0  0  0  0
  194.0560  173.5860  142.3950 C   0  0  1  0  0  3  0  0  0  0  0  0
  195.9770  175.8690  144.2980 C   0  0  0  0  0  2  0  0  0  0  0  0
  195.1770  172.4750  145.0310 O   0  0  0  0  0  0  0  0  0  0  0  0
  195.9520  174.6890  145.2500 C   0  0  0  0  0  2  0  0  0  0  0  0
  195.5020  173.5090  144.4690 C   0  0  0  0  0  0  0  0  0  0  0  0
  196.2450  175.2650  142.5980 S   0  0  0  0  0  0  0  0  0  0  0  0
  195.4900  173.6430  142.9730 C   0  0  2  0  0  0  0  0  0  0  0  0
  197.0770  173.0520  141.2410 O   0  0  0  0  0  1  0  0  0  0  0  0
  196.3480  172.5520  142.3220 C   0  0  0  0  0  2  0  0  0  0  0  0
  186.6850  178.1870  143.4950 N   0  0  0  0  0  2  0  0  0  0  0  0
  186.1230  178.5820  144.7780 C   0  0  0  0  0  2  0  0  0  0  0  0
  185.2950  177.4490  145.3560 C   0  0  0  0  0  2  0  0  0  0  0  0
  185.8250  177.0590  146.7220 C   0  0  0  0  0  2  0  0  0  0  0  0
  187.1500  177.6290  146.9060 N   0  0  0  0  0  2  0  0  0  0  0  0
  190.8500  176.6310  146.8210 C   0  0  0  0  0  2  0  0  0  0  0  0
  189.6550  177.5260  147.1320 C   0  0  0  0  0  2  0  0  0  0  0  0
  188.3370  176.8360  146.8980 C   0  0  0  0  0  0  0  0  0  0  0  0
  189.4090  174.6370  146.7560 C   0  0  0  0  0  2  0  0  0  0  0  0
  190.6290  175.2560  147.4260 C   0  0  0  0  0  2  0  0  0  0  0  0
  188.2550  175.5360  146.8050 N   0  0  0  0  0  0  0  0  0  0  0  0
  1  2  1  0  0  0  0
  2  5  2  0  0  0  0
  2 36  1  0  0  0  0
  3  5  1  0  0  0  0
  4  3  2  0  0  0  0
  6  4  1  0  0  0  0
  6  1  2  0  0  0  0
  7 14  2  0  0  0  0
  7  9  1  0  0  0  0
  8 19  1  0  0  0  0
  9 21  1  0  0  0  0
 10  6  1  6  0  0  0
 10 21  1  0  0  0  0
 11 15  2  0  0  0  0
 12  7  1  0  0  0  0
 13  8  1  0  0  0  0
 13 17  2  0  0  0  0
 15 14  1  0  0  0  0
 16 10  1  0  0  0  0
 17 11  1  0  0  0  0
 18 12  1  0  0  0  0
 19 18  2  0  0  0  0
 19 11  1  0  0  0  0
 20 12  2  0  0  0  0
 20 16  1  0  0  0  0
 22  4  1  0  0  0  0
 22 24  2  0  0  0  0
 23 22  1  0  0  0  0
 25 23  1  0  0  0  0
 25 27  1  0  0  0  0
 27 26  1  6  0  0  0
 27 33  1  0  0  0  0
 28 30  1  0  0  0  0
 31 29  2  0  0  0  0
 31 30  1  0  0  0  0
 32 33  1  0  0  0  0
 32 28  1  0  0  0  0
 33 35  1  6  0  0  0
 33 31  1  0  0  0  0
 34 35  1  0  0  0  0
 36 37  1  0  0  0  0
 37 38  1  0  0  0  0
 38 39  1  0  0  0  0
 39 40  1  0  0  0  0
 41 42  1  0  0  0  0
 41 45  1  0  0  0  0
 43 40  1  0  0  0  0
 43 42  1  0  0  0  0
 44 46  1  0  0  0  0
 44 45  1  0  0  0  0
 46 43  2  0  0  0  0
M  END
>  <MODEL>
9

>  <REMARK>
 VINA RESULT:      -6.6      2.010      3.485
  Name = 
  11 active torsions:
  status: ('A' for Active; 'I' for Inactive)
    1  A    between atoms: N_1  and  C_36
    2  A    between atoms: C_3  and  C_40
    3  A    between atoms: C_7  and  N_18
    4  A    between atoms: C_7  and  C_37
    5  A    between atoms: C_9  and  C_44
    6  A    between atoms: N_13  and  C_30
    7  A    between atoms: C_14  and  N_18
    8  A    between atoms: C_16  and  C_30
    9  A    between atoms: C_16  and  C_46
   10  A    between atoms: C_36  and  C_37
   11  A    between atoms: C_38  and  C_46
                            x       y       z     vdW  Elec       q    Type
                         _______ _______ _______ _____ _____    ______ ____

>  <TORSDO>
F 11

$$$$
