=
 OpenBabel11042415543D

 50 55  0  0  1  0  0  0  0  0999 V2000
  195.5200  175.9510  143.7860 C   0  0  0  0  0  0  0  0  0  0  0  0
  196.9080  175.6650  140.4640 N   0  0  0  0  0  0  0  0  0  0  0  0
  194.5570  176.0520  142.8850 C   0  0  0  0  0  3  0  0  0  0  0  0
  195.8780  175.2340  139.8150 C   0  0  0  0  0  0  0  0  0  0  0  0
  194.6750  173.4220  139.7640 C   0  0  1  0  0  3  0  0  0  0  0  0
  195.8120  173.8890  139.3620 N   0  0  0  0  0  2  0  0  0  0  0  0
  193.8900  174.4120  140.5170 C   0  0  0  0  0  0  0  0  0  0  0  0
  191.3260  174.2170  140.9370 C   0  0  0  0  0  3  0  0  0  0  0  0
  192.6060  174.3160  140.7270 C   0  0  0  0  0  0  0  0  0  0  0  0
  197.1770  176.1570  143.1130 S   0  0  0  0  0  0  0  0  0  0  0  0
  194.5890  175.7220  140.3570 C   0  0  1  0  0  3  0  0  0  0  0  0
  196.4580  176.5930  141.4920 C   0  0  2  0  0  3  0  0  0  0  0  0
  195.0240  176.3720  141.5830 N   0  0  0  0  0  0  0  0  0  0  0  0
  194.0580  171.0810  140.4480 O   0  0  0  0  0  1  0  0  0  0  0  0
  194.6560  171.5080  138.2390 O   0  0  0  0  0  0  0  0  0  0  0  0
  194.2410  172.0280  139.4390 C   0  0  0  0  0  0  0  0  0  0  0  0
  193.3740  171.9010  138.3820 O   0  0  0  0  0  0  0  0  0  0  0  0
  194.5530  176.7040  145.9620 C   0  0  0  0  0  0  0  0  0  0  0  0
  195.2620  175.7250  145.1880 N   0  0  0  0  0  0  0  0  0  0  0  0
  194.8680  177.9220  145.8850 O   0  0  0  0  0  0  0  0  0  0  0  0
  195.8150  174.5500  145.8680 C   0  0  0  0  0  2  0  0  0  0  0  0
  196.6210  172.5780  144.7730 F   0  0  0  0  0  0  0  0  0  0  0  0
  195.4750  173.2480  145.1470 C   0  0  0  0  0  3  0  0  0  0  0  0
  194.6860  172.4270  145.9310 F   0  0  0  0  0  0  0  0  0  0  0  0
  193.3940  176.3140  146.8120 C   0  0  0  0  0  2  0  0  0  0  0  0
  191.2470  176.8050  145.8030 C   0  0  1  0  0  3  0  0  0  0  0  0
  191.0060  175.6390  146.7600 C   0  0  0  0  0  0  0  0  0  0  0  0
  192.2710  175.8170  145.9220 C   0  0  2  0  0  3  0  0  0  0  0  0
  190.3260  175.0280  147.5670 O   0  0  0  0  0  0  0  0  0  0  0  0
  190.4630  176.5780  144.5240 C   0  0  0  0  0  2  0  0  0  0  0  0
  191.2210  177.1290  143.3280 C   0  0  0  0  0  2  0  0  0  0  0  0
  191.3750  178.5090  143.4580 O   0  0  0  0  0  1  0  0  0  0  0  0
  190.8160  173.3060  141.9950 C   0  0  2  0  0  3  0  0  0  0  0  0
  189.4070  173.7410  142.3810 C   0  0  0  0  0  2  0  0  0  0  0  0
  188.9810  174.8790  141.5830 N   0  0  0  0  0  2  0  0  0  0  0  0
  187.6460  175.2490  142.0350 C   0  0  0  0  0  2  0  0  0  0  0  0
  185.7850  176.9340  141.8540 C   0  0  0  0  0  2  0  0  0  0  0  0
  187.7560  178.5280  142.9160 C   0  0  0  0  0  2  0  0  0  0  0  0
  187.2010  176.5710  141.4160 C   0  0  1  0  0  3  0  0  0  0  0  0
  186.3720  179.0350  142.8140 N   0  0  0  0  0  0  0  0  0  0  0  0
  185.6100  178.3900  141.8040 N   0  0  0  0  0  2  0  0  0  0  0  0
  188.1930  177.6980  141.7050 C   0  0  0  0  0  2  0  0  0  0  0  0
  185.7130  178.8180  144.0970 C   0  0  0  0  0  2  0  0  0  0  0  0
  186.6900  178.2130  145.0950 C   0  0  0  0  0  2  0  0  0  0  0  0
  186.0520  178.1520  146.4710 C   0  0  0  0  0  3  0  0  0  0  0  0
  184.5440  178.1050  146.3270 C   0  0  0  0  0  1  0  0  0  0  0  0
  186.5190  176.9140  147.2150 C   0  0  0  0  0  1  0  0  0  0  0  0
  191.7470  173.3600  143.1930 C   0  0  0  0  0  2  0  0  0  0  0  0
  191.7320  171.1640  144.2200 N   0  0  0  0  0  1  0  0  0  0  0  0
  192.4850  172.0420  143.3460 C   0  0  0  0  0  2  0  0  0  0  0  0
  1 19  1  0  0  0  0
  3  1  2  0  0  0  0
  4  2  2  0  0  0  0
  5 16  1  6  0  0  0
  5  7  1  0  0  0  0
  6  5  1  0  0  0  0
  6  4  1  0  0  0  0
  7  9  2  0  0  0  0
  9  8  2  0  0  0  0
 10  1  1  0  0  0  0
 11  4  1  6  0  0  0
 11  7  1  0  0  0  0
 11 13  1  0  0  0  0
 12  2  1  6  0  0  0
 12 13  1  0  0  0  0
 12 10  1  0  0  0  0
 13  3  1  0  0  0  0
 15 17  1  0  0  0  0
 15 16  1  0  0  0  0
 16 14  1  0  0  0  0
 17 16  1  0  0  0  0
 18 25  1  0  0  0  0
 19 21  1  0  0  0  0
 19 18  1  0  0  0  0
 20 18  2  0  0  0  0
 22 23  1  0  0  0  0
 23 21  1  0  0  0  0
 23 24  1  0  0  0  0
 26 30  1  6  0  0  0
 26 28  1  0  0  0  0
 26 27  1  0  0  0  0
 27 29  2  0  0  0  0
 28 27  1  0  0  0  0
 28 25  1  1  0  0  0
 31 32  1  0  0  0  0
 31 30  1  0  0  0  0
 33  8  1  6  0  0  0
 33 34  1  0  0  0  0
 33 48  1  0  0  0  0
 35 36  1  0  0  0  0
 35 34  1  0  0  0  0
 39 42  1  0  0  0  0
 39 37  1  0  0  0  0
 39 36  1  1  0  0  0
 40 38  1  0  0  0  0
 40 43  1  0  0  0  0
 41 37  1  0  0  0  0
 41 40  1  0  0  0  0
 42 38  1  0  0  0  0
 43 44  1  0  0  0  0
 44 45  1  0  0  0  0
 45 47  1  0  0  0  0
 46 45  1  0  0  0  0
 48 50  1  0  0  0  0
 50 49  1  0  0  0  0
M  END
>  <MODEL>
1

>  <REMARK>
 VINA RESULT:      -6.5      0.000      0.000
  Name = 
  18 active torsions:
  status: ('A' for Active; 'I' for Inactive)
    1  A    between atoms: C_1  and  C_47
    2  A    between atoms: C_3  and  C_47
    3  A    between atoms: C_4  and  C_21
    4  A    between atoms: C_6  and  C_31
    5  A    between atoms: C_6  and  C_35
    6  A    between atoms: C_7  and  C_21
    7  A    between atoms: C_12  and  N_32
    8  A    between atoms: C_17  and  C_30
    9  A    between atoms: C_18  and  C_36
   10  A    between atoms: C_22  and  C_33
   11  A    between atoms: N_23  and  C_25
   12  A    between atoms: C_24  and  C_31
   13  A    between atoms: C_25  and  C_48
   14  A    between atoms: N_26  and  C_30
   15  A    between atoms: N_26  and  C_50
   16  A    between atoms: C_31  and  C_50
   17  A    between atoms: N_32  and  C_33
   18  A    between atoms: C_38  and  C_48
                            x       y       z     vdW  Elec       q    Type
                         _______ _______ _______ _____ _____    ______ ____

>  <TORSDO>
F 18

$$$$
=
 OpenBabel11042415543D

 50 55  0  0  1  0  0  0  0  0999 V2000
  189.5110  173.5160  140.9680 C   0  0  0  0  0  0  0  0  0  0  0  0
  189.8940  171.8710  137.7760 N   0  0  0  0  0  0  0  0  0  0  0  0
  190.6880  172.9160  140.9100 C   0  0  0  0  0  3  0  0  0  0  0  0
  191.1820  171.8510  137.6750 C   0  0  0  0  0  0  0  0  0  0  0  0
  192.7810  173.3050  137.4250 C   0  0  1  0  0  3  0  0  0  0  0  0
  191.8550  172.6990  136.7550 N   0  0  0  0  0  2  0  0  0  0  0  0
  192.8020  172.9150  138.8430 C   0  0  0  0  0  0  0  0  0  0  0  0
  194.8380  173.2990  140.4230 C   0  0  0  0  0  3  0  0  0  0  0  0
  193.8210  173.1050  139.6350 C   0  0  0  0  0  0  0  0  0  0  0  0
  188.3490  172.9750  139.7050 S   0  0  0  0  0  0  0  0  0  0  0  0
  191.8770  171.7500  138.9780 C   0  0  1  0  0  3  0  0  0  0  0  0
  189.5330  171.6900  139.1750 C   0  0  2  0  0  3  0  0  0  0  0  0
  190.7690  171.9150  139.9050 N   0  0  0  0  0  0  0  0  0  0  0  0
  193.7160  175.6190  137.1070 O   0  0  0  0  0  1  0  0  0  0  0  0
  194.0750  174.0040  135.4690 O   0  0  0  0  0  0  0  0  0  0  0  0
  193.7230  174.2640  136.7690 C   0  0  0  0  0  0  0  0  0  0  0  0
  194.9630  173.7670  136.4560 O   0  0  0  0  0  0  0  0  0  0  0  0
  188.0910  175.4090  141.7670 C   0  0  0  0  0  0  0  0  0  0  0  0
  189.1810  174.4980  141.9730 N   0  0  0  0  0  0  0  0  0  0  0  0
  187.9730  176.0190  140.6700 O   0  0  0  0  0  0  0  0  0  0  0  0
  190.0200  174.6570  143.1650 C   0  0  0  0  0  2  0  0  0  0  0  0
  190.9500  172.7770  144.3230 F   0  0  0  0  0  0  0  0  0  0  0  0
  189.8070  173.5350  144.1790 C   0  0  0  0  0  3  0  0  0  0  0  0
  189.4150  174.0330  145.4080 F   0  0  0  0  0  0  0  0  0  0  0  0
  187.0450  175.5980  142.8110 C   0  0  0  0  0  2  0  0  0  0  0  0
  185.8550  177.3030  144.0530 C   0  0  1  0  0  3  0  0  0  0  0  0
  185.3900  177.4360  142.6040 C   0  0  0  0  0  0  0  0  0  0  0  0
  186.8170  177.0820  143.0220 C   0  0  2  0  0  3  0  0  0  0  0  0
  184.5400  177.6600  141.7590 O   0  0  0  0  0  0  0  0  0  0  0  0
  186.0500  178.6850  144.6490 C   0  0  0  0  0  2  0  0  0  0  0  0
  184.7170  179.4000  144.7900 C   0  0  0  0  0  2  0  0  0  0  0  0
  183.8900  178.6940  145.6640 O   0  0  0  0  0  1  0  0  0  0  0  0
  195.0840  174.6470  141.0000 C   0  0  2  0  0  3  0  0  0  0  0  0
  193.7880  175.1640  141.6120 C   0  0  0  0  0  2  0  0  0  0  0  0
  194.0520  175.8940  142.8410 N   0  0  0  0  0  2  0  0  0  0  0  0
  195.2300  175.2970  143.4550 C   0  0  0  0  0  2  0  0  0  0  0  0
  194.5410  176.8510  145.3120 C   0  0  0  0  0  2  0  0  0  0  0  0
  193.2180  174.5740  146.0960 C   0  0  0  0  0  2  0  0  0  0  0  0
  195.2540  175.5490  144.9600 C   0  0  1  0  0  3  0  0  0  0  0  0
  192.9520  175.8540  146.7820 N   0  0  0  0  0  0  0  0  0  0  0  0
  194.0260  176.7780  146.6830 N   0  0  0  0  0  2  0  0  0  0  0  0
  194.6940  174.3630  145.7470 C   0  0  0  0  0  2  0  0  0  0  0  0
  191.7690  176.4570  146.1770 C   0  0  0  0  0  2  0  0  0  0  0  0
  190.6260  176.4960  147.1820 C   0  0  0  0  0  2  0  0  0  0  0  0
  189.4980  177.3610  146.6500 C   0  0  0  0  0  3  0  0  0  0  0  0
  189.7310  177.6450  145.1790 C   0  0  0  0  0  1  0  0  0  0  0  0
  188.1660  176.6510  146.8140 C   0  0  0  0  0  1  0  0  0  0  0  0
  195.5750  175.5770  139.9040 C   0  0  0  0  0  2  0  0  0  0  0  0
  197.3680  175.4060  138.2830 N   0  0  0  0  0  1  0  0  0  0  0  0
  197.0700  175.4070  139.7010 C   0  0  0  0  0  2  0  0  0  0  0  0
  1 19  1  0  0  0  0
  3  1  2  0  0  0  0
  4  2  2  0  0  0  0
  5 16  1  6  0  0  0
  5  7  1  0  0  0  0
  6  5  1  0  0  0  0
  6  4  1  0  0  0  0
  7 11  1  0  0  0  0
  7  9  2  0  0  0  0
  8 33  1  0  0  0  0
  9  8  2  0  0  0  0
 10  1  1  0  0  0  0
 11  4  1  6  0  0  0
 11 13  1  0  0  0  0
 12  2  1  6  0  0  0
 12 10  1  0  0  0  0
 12 13  1  0  0  0  0
 13  3  1  0  0  0  0
 15 17  1  0  0  0  0
 15 16  1  0  0  0  0
 16 14  1  0  0  0  0
 17 16  1  0  0  0  0
 18 19  1  0  0  0  0
 18 25  1  0  0  0  0
 19 21  1  0  0  0  0
 20 18  2  0  0  0  0
 21 23  1  0  0  0  0
 23 22  1  0  0  0  0
 23 24  1  0  0  0  0
 26 30  1  1  0  0  0
 27 28  1  0  0  0  0
 27 26  1  0  0  0  0
 28 25  1  6  0  0  0
 28 26  1  0  0  0  0
 29 27  2  0  0  0  0
 30 31  1  0  0  0  0
 31 32  1  0  0  0  0
 33 48  1  6  0  0  0
 33 34  1  0  0  0  0
 34 35  1  0  0  0  0
 35 36  1  0  0  0  0
 37 41  1  0  0  0  0
 38 40  1  0  0  0  0
 39 36  1  6  0  0  0
 39 37  1  0  0  0  0
 39 42  1  0  0  0  0
 41 40  1  0  0  0  0
 42 38  1  0  0  0  0
 43 40  1  0  0  0  0
 43 44  1  0  0  0  0
 45 47  1  0  0  0  0
 45 44  1  0  0  0  0
 46 45  1  0  0  0  0
 49 50  1  0  0  0  0
 50 48  1  0  0  0  0
M  END
>  <MODEL>
2

>  <REMARK>
 VINA RESULT:      -6.0      3.221      6.533
  Name = 
  18 active torsions:
  status: ('A' for Active; 'I' for Inactive)
    1  A    between atoms: C_1  and  C_47
    2  A    between atoms: C_3  and  C_47
    3  A    between atoms: C_4  and  C_21
    4  A    between atoms: C_6  and  C_31
    5  A    between atoms: C_6  and  C_35
    6  A    between atoms: C_7  and  C_21
    7  A    between atoms: C_12  and  N_32
    8  A    between atoms: C_17  and  C_30
    9  A    between atoms: C_18  and  C_36
   10  A    between atoms: C_22  and  C_33
   11  A    between atoms: N_23  and  C_25
   12  A    between atoms: C_24  and  C_31
   13  A    between atoms: C_25  and  C_48
   14  A    between atoms: N_26  and  C_30
   15  A    between atoms: N_26  and  C_50
   16  A    between atoms: C_31  and  C_50
   17  A    between atoms: N_32  and  C_33
   18  A    between atoms: C_38  and  C_48
                            x       y       z     vdW  Elec       q    Type
                         _______ _______ _______ _____ _____    ______ ____

>  <TORSDO>
F 18

$$$$
=
 OpenBabel11042415543D

 50 55  0  0  1  0  0  0  0  0999 V2000
  191.1840  174.2260  144.4320 C   0  0  0  0  0  0  0  0  0  0  0  0
  190.1540  171.2040  142.7440 N   0  0  0  0  0  0  0  0  0  0  0  0
  192.2390  173.6140  143.9210 C   0  0  0  0  0  3  0  0  0  0  0  0
  191.1180  171.0700  141.8940 C   0  0  0  0  0  0  0  0  0  0  0  0
  191.8490  172.1260  140.1380 C   0  0  1  0  0  3  0  0  0  0  0  0
  190.9100  171.3180  140.5110 N   0  0  0  0  0  2  0  0  0  0  0  0
  192.7570  172.4850  141.2380 C   0  0  0  0  0  0  0  0  0  0  0  0
  195.1350  173.4920  140.8880 C   0  0  0  0  0  3  0  0  0  0  0  0
  193.9490  172.9880  141.0640 C   0  0  0  0  0  0  0  0  0  0  0  0
  189.7130  173.1940  144.5260 S   0  0  0  0  0  0  0  0  0  0  0  0
  192.4160  171.5880  142.3830 C   0  0  1  0  0  3  0  0  0  0  0  0
  190.6950  171.7550  143.9790 C   0  0  2  0  0  3  0  0  0  0  0  0
  192.0140  172.2460  143.6150 N   0  0  0  0  0  0  0  0  0  0  0  0
  191.7150  173.9160  138.3750 O   0  0  0  0  0  1  0  0  0  0  0  0
  191.6700  171.6770  137.7400 O   0  0  0  0  0  0  0  0  0  0  0  0
  191.9700  172.5880  138.7210 C   0  0  0  0  0  0  0  0  0  0  0  0
  192.9590  171.9920  137.9790 O   0  0  0  0  0  0  0  0  0  0  0  0
  190.6750  176.6480  144.0940 C   0  0  0  0  0  0  0  0  0  0  0  0
  191.2200  175.5910  144.8990 N   0  0  0  0  0  0  0  0  0  0  0  0
  190.9570  176.7190  142.8680 O   0  0  0  0  0  0  0  0  0  0  0  0
  191.9110  175.9360  146.1450 C   0  0  0  0  0  2  0  0  0  0  0  0
  191.4770  176.1490  148.4920 F   0  0  0  0  0  0  0  0  0  0  0  0
  191.1950  175.3880  147.3770 C   0  0  0  0  0  3  0  0  0  0  0  0
  189.8260  175.3310  147.1820 F   0  0  0  0  0  0  0  0  0  0  0  0
  189.7170  177.6320  144.6710 C   0  0  0  0  0  2  0  0  0  0  0  0
  187.3270  178.0030  144.5340 C   0  0  1  0  0  3  0  0  0  0  0  0
  187.5980  177.5200  145.9580 C   0  0  0  0  0  0  0  0  0  0  0  0
  188.3350  177.0090  144.7210 C   0  0  2  0  0  3  0  0  0  0  0  0
  187.3860  177.5280  147.1590 O   0  0  0  0  0  0  0  0  0  0  0  0
  186.0580  177.3540  144.0140 C   0  0  0  0  0  2  0  0  0  0  0  0
  186.3900  176.2300  143.0460 C   0  0  0  0  0  2  0  0  0  0  0  0
  186.4570  176.7290  141.7450 O   0  0  0  0  0  1  0  0  0  0  0  0
  195.2880  174.9330  140.5610 C   0  0  2  0  0  3  0  0  0  0  0  0
  194.4970  175.7540  141.5730 C   0  0  0  0  0  2  0  0  0  0  0  0
  195.3800  176.3330  142.5720 N   0  0  0  0  0  2  0  0  0  0  0  0
  194.9430  175.8420  143.8720 C   0  0  0  0  0  2  0  0  0  0  0  0
  195.7300  174.4330  145.8040 C   0  0  0  0  0  2  0  0  0  0  0  0
  197.3440  173.4390  143.8150 C   0  0  0  0  0  2  0  0  0  0  0  0
  196.1340  175.4540  144.7440 C   0  0  1  0  0  3  0  0  0  0  0  0
  197.2950  172.7680  145.1290 N   0  0  0  0  0  0  0  0  0  0  0  0
  196.8960  173.6290  146.1850 N   0  0  0  0  0  2  0  0  0  0  0  0
  197.3180  174.9670  143.9080 C   0  0  0  0  0  2  0  0  0  0  0  0
  196.3380  171.6700  145.0450 C   0  0  0  0  0  2  0  0  0  0  0  0
  196.5860  170.6680  146.1630 C   0  0  0  0  0  2  0  0  0  0  0  0
  195.6450  169.4860  146.0190 C   0  0  0  0  0  3  0  0  0  0  0  0
  195.3280  168.9230  147.3900 C   0  0  0  0  0  1  0  0  0  0  0  0
  194.3540  169.9180  145.3480 C   0  0  0  0  0  1  0  0  0  0  0  0
  194.7860  175.1820  139.1490 C   0  0  0  0  0  2  0  0  0  0  0  0
  196.4270  175.3720  137.3760 N   0  0  0  0  0  1  0  0  0  0  0  0
  195.6400  174.4300  138.1460 C   0  0  0  0  0  2  0  0  0  0  0  0
  1 10  1  0  0  0  0
  1 19  1  0  0  0  0
  3  1  2  0  0  0  0
  4 11  1  0  0  0  0
  4  2  2  0  0  0  0
  5 16  1  6  0  0  0
  5  6  1  0  0  0  0
  5  7  1  0  0  0  0
  6  4  1  0  0  0  0
  8  9  2  0  0  0  0
  9  7  2  0  0  0  0
 11  7  1  6  0  0  0
 11 13  1  0  0  0  0
 12  2  1  6  0  0  0
 12 10  1  0  0  0  0
 13  3  1  0  0  0  0
 13 12  1  0  0  0  0
 14 16  1  0  0  0  0
 15 17  1  0  0  0  0
 15 16  1  0  0  0  0
 17 16  1  0  0  0  0
 18 25  1  0  0  0  0
 18 19  1  0  0  0  0
 19 21  1  0  0  0  0
 20 18  2  0  0  0  0
 21 23  1  0  0  0  0
 23 22  1  0  0  0  0
 24 23  1  0  0  0  0
 26 30  1  6  0  0  0
 26 28  1  0  0  0  0
 26 27  1  0  0  0  0
 27 29  2  0  0  0  0
 28 25  1  1  0  0  0
 28 27  1  0  0  0  0
 31 30  1  0  0  0  0
 32 31  1  0  0  0  0
 33 48  1  6  0  0  0
 33  8  1  0  0  0  0
 33 34  1  0  0  0  0
 34 35  1  0  0  0  0
 35 36  1  0  0  0  0
 37 41  1  0  0  0  0
 38 42  1  0  0  0  0
 38 40  1  0  0  0  0
 39 36  1  6  0  0  0
 39 37  1  0  0  0  0
 40 41  1  0  0  0  0
 42 39  1  0  0  0  0
 43 40  1  0  0  0  0
 43 44  1  0  0  0  0
 45 44  1  0  0  0  0
 45 46  1  0  0  0  0
 47 45  1  0  0  0  0
 49 50  1  0  0  0  0
 50 48  1  0  0  0  0
M  END
>  <MODEL>
3

>  <REMARK>
 VINA RESULT:      -5.9      2.913      7.305
  Name = 
  18 active torsions:
  status: ('A' for Active; 'I' for Inactive)
    1  A    between atoms: C_1  and  C_47
    2  A    between atoms: C_3  and  C_47
    3  A    between atoms: C_4  and  C_21
    4  A    between atoms: C_6  and  C_31
    5  A    between atoms: C_6  and  C_35
    6  A    between atoms: C_7  and  C_21
    7  A    between atoms: C_12  and  N_32
    8  A    between atoms: C_17  and  C_30
    9  A    between atoms: C_18  and  C_36
   10  A    between atoms: C_22  and  C_33
   11  A    between atoms: N_23  and  C_25
   12  A    between atoms: C_24  and  C_31
   13  A    between atoms: C_25  and  C_48
   14  A    between atoms: N_26  and  C_30
   15  A    between atoms: N_26  and  C_50
   16  A    between atoms: C_31  and  C_50
   17  A    between atoms: N_32  and  C_33
   18  A    between atoms: C_38  and  C_48
                            x       y       z     vdW  Elec       q    Type
                         _______ _______ _______ _____ _____    ______ ____

>  <TORSDO>
F 18

$$$$
=
 OpenBabel11042415543D

 50 55  0  0  1  0  0  0  0  0999 V2000
  191.5310  176.1710  145.1610 C   0  0  0  0  0  0  0  0  0  0  0  0
  194.8360  175.6370  146.5130 N   0  0  0  0  0  0  0  0  0  0  0  0
  192.4430  176.5070  144.2650 C   0  0  0  0  0  3  0  0  0  0  0  0
  195.5110  175.4660  145.4250 C   0  0  0  0  0  0  0  0  0  0  0  0
  195.6220  173.9790  143.8400 C   0  0  1  0  0  3  0  0  0  0  0  0
  195.9960  174.1810  145.0620 N   0  0  0  0  0  2  0  0  0  0  0  0
  194.8580  175.1090  143.2880 C   0  0  0  0  0  0  0  0  0  0  0  0
  194.4810  175.4990  140.7390 C   0  0  0  0  0  3  0  0  0  0  0  0
  194.6700  175.3060  142.0120 C   0  0  0  0  0  0  0  0  0  0  0  0
  192.1730  176.0030  146.8340 S   0  0  0  0  0  0  0  0  0  0  0  0
  194.9780  176.2260  144.2720 C   0  0  1  0  0  3  0  0  0  0  0  0
  193.7940  176.6230  146.2670 C   0  0  2  0  0  3  0  0  0  0  0  0
  193.7300  176.7350  144.8190 N   0  0  0  0  0  0  0  0  0  0  0  0
  195.0410  171.7230  142.8900 O   0  0  0  0  0  1  0  0  0  0  0  0
  197.2750  172.2800  143.2360 O   0  0  0  0  0  0  0  0  0  0  0  0
  195.9850  172.7290  143.1040 C   0  0  0  0  0  0  0  0  0  0  0  0
  196.8950  172.8750  142.0870 O   0  0  0  0  0  0  0  0  0  0  0  0
  189.1770  177.0070  145.1280 C   0  0  0  0  0  0  0  0  0  0  0  0
  190.1380  175.9830  144.8300 N   0  0  0  0  0  0  0  0  0  0  0  0
  189.1680  177.5560  146.2630 O   0  0  0  0  0  0  0  0  0  0  0  0
  189.6650  174.7040  144.2910 C   0  0  0  0  0  2  0  0  0  0  0  0
  189.2970  173.7940  146.4770 F   0  0  0  0  0  0  0  0  0  0  0  0
  189.8950  173.5460  145.2590 C   0  0  0  0  0  3  0  0  0  0  0  0
  189.4240  172.3530  144.7400 F   0  0  0  0  0  0  0  0  0  0  0  0
  188.2250  177.4880  144.0880 C   0  0  0  0  0  2  0  0  0  0  0  0
  186.2140  176.6500  145.1470 C   0  0  1  0  0  3  0  0  0  0  0  0
  185.7570  177.3440  143.8650 C   0  0  0  0  0  0  0  0  0  0  0  0
  186.9040  177.8340  144.7470 C   0  0  2  0  0  3  0  0  0  0  0  0
  185.0320  177.4390  142.8890 O   0  0  0  0  0  0  0  0  0  0  0  0
  185.2450  176.9750  146.2690 C   0  0  0  0  0  2  0  0  0  0  0  0
  185.4860  178.3810  146.7920 C   0  0  0  0  0  2  0  0  0  0  0  0
  186.1690  178.3250  148.0070 O   0  0  0  0  0  1  0  0  0  0  0  0
  193.4520  174.7090  140.0130 C   0  0  2  0  0  3  0  0  0  0  0  0
  193.0730  173.5000  140.8590 C   0  0  0  0  0  2  0  0  0  0  0  0
  191.7200  173.6320  141.3730 N   0  0  0  0  0  2  0  0  0  0  0  0
  191.3340  172.3370  141.9170 C   0  0  0  0  0  2  0  0  0  0  0  0
  189.1100  172.9790  140.9290 C   0  0  0  0  0  2  0  0  0  0  0  0
  190.2510  171.7510  138.7510 C   0  0  0  0  0  2  0  0  0  0  0  0
  190.0510  171.8260  141.2690 C   0  0  1  0  0  3  0  0  0  0  0  0
  188.9820  172.4910  138.5990 N   0  0  0  0  0  0  0  0  0  0  0  0
  188.2450  172.5950  139.8080 N   0  0  0  0  0  2  0  0  0  0  0  0
  190.3370  170.9460  140.0520 C   0  0  0  0  0  2  0  0  0  0  0  0
  189.2950  173.8380  138.1330 C   0  0  0  0  0  2  0  0  0  0  0  0
  190.6710  173.8640  137.4840 C   0  0  0  0  0  2  0  0  0  0  0  0
  190.5900  174.5340  136.1250 C   0  0  0  0  0  3  0  0  0  0  0  0
  191.8130  175.4070  135.9190 C   0  0  0  0  0  1  0  0  0  0  0  0
  190.5340  173.4910  135.0240 C   0  0  0  0  0  1  0  0  0  0  0  0
  194.0100  174.2770  138.6680 C   0  0  0  0  0  2  0  0  0  0  0  0
  195.3610  172.3830  137.9870 N   0  0  0  0  0  1  0  0  0  0  0  0
  195.3250  173.5430  138.8560 C   0  0  0  0  0  2  0  0  0  0  0  0
  1 10  1  0  0  0  0
  3 13  1  0  0  0  0
  3  1  2  0  0  0  0
  4  2  2  0  0  0  0
  5 16  1  6  0  0  0
  5  6  1  0  0  0  0
  6  4  1  0  0  0  0
  7  5  1  0  0  0  0
  8  9  2  0  0  0  0
  9  7  2  0  0  0  0
 11  7  1  6  0  0  0
 11 13  1  0  0  0  0
 11  4  1  0  0  0  0
 12  2  1  6  0  0  0
 12 10  1  0  0  0  0
 13 12  1  0  0  0  0
 14 16  1  0  0  0  0
 16 15  1  0  0  0  0
 17 16  1  0  0  0  0
 17 15  1  0  0  0  0
 18 20  2  0  0  0  0
 19 18  1  0  0  0  0
 19  1  1  0  0  0  0
 21 19  1  0  0  0  0
 21 23  1  0  0  0  0
 23 22  1  0  0  0  0
 24 23  1  0  0  0  0
 25 18  1  0  0  0  0
 26 30  1  1  0  0  0
 27 28  1  0  0  0  0
 27 26  1  0  0  0  0
 28 25  1  6  0  0  0
 28 26  1  0  0  0  0
 29 27  2  0  0  0  0
 30 31  1  0  0  0  0
 31 32  1  0  0  0  0
 33 48  1  6  0  0  0
 33  8  1  0  0  0  0
 33 34  1  0  0  0  0
 34 35  1  0  0  0  0
 35 36  1  0  0  0  0
 37 39  1  0  0  0  0
 38 42  1  0  0  0  0
 39 36  1  6  0  0  0
 40 38  1  0  0  0  0
 40 41  1  0  0  0  0
 41 37  1  0  0  0  0
 42 39  1  0  0  0  0
 43 40  1  0  0  0  0
 44 43  1  0  0  0  0
 45 44  1  0  0  0  0
 46 45  1  0  0  0  0
 47 45  1  0  0  0  0
 48 50  1  0  0  0  0
 49 50  1  0  0  0  0
M  END
>  <MODEL>
4

>  <REMARK>
 VINA RESULT:      -5.9      3.035      6.376
  Name = 
  18 active torsions:
  status: ('A' for Active; 'I' for Inactive)
    1  A    between atoms: C_1  and  C_47
    2  A    between atoms: C_3  and  C_47
    3  A    between atoms: C_4  and  C_21
    4  A    between atoms: C_6  and  C_31
    5  A    between atoms: C_6  and  C_35
    6  A    between atoms: C_7  and  C_21
    7  A    between atoms: C_12  and  N_32
    8  A    between atoms: C_17  and  C_30
    9  A    between atoms: C_18  and  C_36
   10  A    between atoms: C_22  and  C_33
   11  A    between atoms: N_23  and  C_25
   12  A    between atoms: C_24  and  C_31
   13  A    between atoms: C_25  and  C_48
   14  A    between atoms: N_26  and  C_30
   15  A    between atoms: N_26  and  C_50
   16  A    between atoms: C_31  and  C_50
   17  A    between atoms: N_32  and  C_33
   18  A    between atoms: C_38  and  C_48
                            x       y       z     vdW  Elec       q    Type
                         _______ _______ _______ _____ _____    ______ ____

>  <TORSDO>
F 18

$$$$
=
 OpenBabel11042415543D

 50 55  0  0  1  0  0  0  0  0999 V2000
  191.8070  175.5600  144.8870 C   0  0  0  0  0  0  0  0  0  0  0  0
  195.3790  175.0530  145.0210 N   0  0  0  0  0  0  0  0  0  0  0  0
  192.2280  175.0260  143.7530 C   0  0  0  0  0  3  0  0  0  0  0  0
  195.5120  174.0880  144.1730 C   0  0  0  0  0  0  0  0  0  0  0  0
  194.9450  171.9910  144.0480 C   0  0  1  0  0  3  0  0  0  0  0  0
  195.8120  172.7700  144.6090 N   0  0  0  0  0  2  0  0  0  0  0  0
  193.9960  172.7230  143.1950 C   0  0  0  0  0  0  0  0  0  0  0  0
  192.5340  171.5980  141.3540 C   0  0  0  0  0  3  0  0  0  0  0  0
  193.2640  172.1610  142.2710 C   0  0  0  0  0  0  0  0  0  0  0  0
  193.1200  176.2560  145.9020 S   0  0  0  0  0  0  0  0  0  0  0  0
  194.5140  174.1190  143.0790 C   0  0  1  0  0  3  0  0  0  0  0  0
  194.3170  175.9360  144.5610 C   0  0  2  0  0  3  0  0  0  0  0  0
  193.6240  175.1730  143.5370 N   0  0  0  0  0  0  0  0  0  0  0  0
  195.7610  169.6880  143.4460 O   0  0  0  0  0  1  0  0  0  0  0  0
  193.8180  169.9210  144.7070 O   0  0  0  0  0  0  0  0  0  0  0  0
  194.9710  170.5100  144.2530 C   0  0  0  0  0  0  0  0  0  0  0  0
  194.8570  170.0820  145.5520 O   0  0  0  0  0  0  0  0  0  0  0  0
  189.6140  176.7550  144.9450 C   0  0  0  0  0  0  0  0  0  0  0  0
  190.4130  175.6050  145.2620 N   0  0  0  0  0  0  0  0  0  0  0  0
  190.0490  177.9140  145.1810 O   0  0  0  0  0  0  0  0  0  0  0  0
  189.8230  174.5330  146.0690 C   0  0  0  0  0  2  0  0  0  0  0  0
  188.5640  174.1860  148.0780 F   0  0  0  0  0  0  0  0  0  0  0  0
  189.5360  174.9760  147.5020 C   0  0  0  0  0  3  0  0  0  0  0  0
  190.6810  174.9520  148.2770 F   0  0  0  0  0  0  0  0  0  0  0  0
  188.2940  176.6050  144.2720 C   0  0  0  0  0  2  0  0  0  0  0  0
  186.2080  177.8360  144.2170 C   0  0  1  0  0  3  0  0  0  0  0  0
  186.8640  178.0590  142.8550 C   0  0  0  0  0  0  0  0  0  0  0  0
  187.6290  177.9650  144.1750 C   0  0  2  0  0  3  0  0  0  0  0  0
  186.8170  178.2060  141.6460 O   0  0  0  0  0  0  0  0  0  0  0  0
  185.5890  179.1360  144.6970 C   0  0  0  0  0  2  0  0  0  0  0  0
  184.4990  178.8620  145.7200 C   0  0  0  0  0  2  0  0  0  0  0  0
  184.6120  177.5560  146.1970 O   0  0  0  0  0  1  0  0  0  0  0  0
  191.3050  170.8540  141.7350 C   0  0  2  0  0  3  0  0  0  0  0  0
  190.7820  171.4130  143.0530 C   0  0  0  0  0  2  0  0  0  0  0  0
  189.4120  171.8790  142.9090 N   0  0  0  0  0  2  0  0  0  0  0  0
  189.4630  173.3250  142.7350 C   0  0  0  0  0  2  0  0  0  0  0  0
  188.8460  174.8750  140.8510 C   0  0  0  0  0  2  0  0  0  0  0  0
  188.2420  172.4610  139.6840 C   0  0  0  0  0  2  0  0  0  0  0  0
  188.3430  173.8090  141.8200 C   0  0  1  0  0  3  0  0  0  0  0  0
  188.2350  173.6950  138.8720 N   0  0  0  0  0  0  0  0  0  0  0  0
  188.0200  174.8710  139.6390 N   0  0  0  0  0  2  0  0  0  0  0  0
  187.6610  172.6520  141.0890 C   0  0  0  0  0  2  0  0  0  0  0  0
  189.5290  173.8090  138.2080 C   0  0  0  0  0  2  0  0  0  0  0  0
  190.4030  172.6090  138.5470 C   0  0  0  0  0  2  0  0  0  0  0  0
  191.7040  172.6790  137.7700 C   0  0  0  0  0  3  0  0  0  0  0  0
  191.4050  172.9730  136.3120 C   0  0  0  0  0  1  0  0  0  0  0  0
  192.5930  173.7770  138.3260 C   0  0  0  0  0  1  0  0  0  0  0  0
  191.6350  169.3770  141.8650 C   0  0  0  0  0  2  0  0  0  0  0  0
  190.9280  169.1760  139.5560 N   0  0  0  0  0  1  0  0  0  0  0  0
  190.8270  168.5680  140.8680 C   0  0  0  0  0  2  0  0  0  0  0  0
  1 19  1  0  0  0  0
  1 10  1  0  0  0  0
  3  1  2  0  0  0  0
  4  6  1  0  0  0  0
  4  2  2  0  0  0  0
  5 16  1  6  0  0  0
  5  6  1  0  0  0  0
  7  5  1  0  0  0  0
  8  9  2  0  0  0  0
  9  7  2  0  0  0  0
 11  7  1  1  0  0  0
 11 13  1  0  0  0  0
 11  4  1  0  0  0  0
 12  2  1  1  0  0  0
 12 10  1  0  0  0  0
 13  3  1  0  0  0  0
 13 12  1  0  0  0  0
 14 16  1  0  0  0  0
 15 17  1  0  0  0  0
 16 15  1  0  0  0  0
 16 17  1  0  0  0  0
 18 20  2  0  0  0  0
 18 19  1  0  0  0  0
 19 21  1  0  0  0  0
 21 23  1  0  0  0  0
 23 22  1  0  0  0  0
 23 24  1  0  0  0  0
 25 18  1  0  0  0  0
 26 30  1  1  0  0  0
 27 28  1  0  0  0  0
 27 26  1  0  0  0  0
 28 26  1  0  0  0  0
 28 25  1  6  0  0  0
 29 27  2  0  0  0  0
 30 31  1  0  0  0  0
 31 32  1  0  0  0  0
 33  8  1  1  0  0  0
 33 48  1  0  0  0  0
 33 34  1  0  0  0  0
 35 34  1  0  0  0  0
 36 35  1  0  0  0  0
 37 39  1  0  0  0  0
 38 42  1  0  0  0  0
 39 36  1  6  0  0  0
 40 41  1  0  0  0  0
 40 38  1  0  0  0  0
 41 37  1  0  0  0  0
 42 39  1  0  0  0  0
 43 44  1  0  0  0  0
 43 40  1  0  0  0  0
 45 47  1  0  0  0  0
 45 44  1  0  0  0  0
 46 45  1  0  0  0  0
 49 50  1  0  0  0  0
 50 48  1  0  0  0  0
M  END
>  <MODEL>
5

>  <REMARK>
 VINA RESULT:      -5.8      3.119      5.979
  Name = 
  18 active torsions:
  status: ('A' for Active; 'I' for Inactive)
    1  A    between atoms: C_1  and  C_47
    2  A    between atoms: C_3  and  C_47
    3  A    between atoms: C_4  and  C_21
    4  A    between atoms: C_6  and  C_31
    5  A    between atoms: C_6  and  C_35
    6  A    between atoms: C_7  and  C_21
    7  A    between atoms: C_12  and  N_32
    8  A    between atoms: C_17  and  C_30
    9  A    between atoms: C_18  and  C_36
   10  A    between atoms: C_22  and  C_33
   11  A    between atoms: N_23  and  C_25
   12  A    between atoms: C_24  and  C_31
   13  A    between atoms: C_25  and  C_48
   14  A    between atoms: N_26  and  C_30
   15  A    between atoms: N_26  and  C_50
   16  A    between atoms: C_31  and  C_50
   17  A    between atoms: N_32  and  C_33
   18  A    between atoms: C_38  and  C_48
                            x       y       z     vdW  Elec       q    Type
                         _______ _______ _______ _____ _____    ______ ____

>  <TORSDO>
F 18

$$$$
=
 OpenBabel11042415543D

 50 55  0  0  1  0  0  0  0  0999 V2000
  189.3630  172.5810  140.7130 C   0  0  0  0  0  0  0  0  0  0  0  0
  190.4060  172.3270  137.2650 N   0  0  0  0  0  0  0  0  0  0  0  0
  190.4100  171.7800  140.6180 C   0  0  0  0  0  3  0  0  0  0  0  0
  191.6530  172.0240  137.4180 C   0  0  0  0  0  0  0  0  0  0  0  0
  193.4450  173.0010  138.1730 C   0  0  1  0  0  3  0  0  0  0  0  0
  192.6730  172.9720  137.1350 N   0  0  0  0  0  2  0  0  0  0  0  0
  193.0050  172.0800  139.2320 C   0  0  0  0  0  0  0  0  0  0  0  0
  194.5370  171.2660  141.1760 C   0  0  0  0  0  3  0  0  0  0  0  0
  193.7710  171.6700  140.2050 C   0  0  0  0  0  0  0  0  0  0  0  0
  188.5450  172.9080  139.1430 S   0  0  0  0  0  0  0  0  0  0  0  0
  191.9250  171.2340  138.6400 C   0  0  1  0  0  3  0  0  0  0  0  0
  189.6380  171.6940  138.3280 C   0  0  2  0  0  3  0  0  0  0  0  0
  190.6330  171.2850  139.3060 N   0  0  0  0  0  0  0  0  0  0  0  0
  194.6450  175.0850  138.9140 O   0  0  0  0  0  1  0  0  0  0  0  0
  195.4890  173.8500  137.1300 O   0  0  0  0  0  0  0  0  0  0  0  0
  194.6600  173.8710  138.2230 C   0  0  0  0  0  0  0  0  0  0  0  0
  195.8660  173.2160  138.2590 O   0  0  0  0  0  0  0  0  0  0  0  0
  188.7580  174.5400  142.1390 C   0  0  0  0  0  0  0  0  0  0  0  0
  188.9010  173.1220  141.9690 N   0  0  0  0  0  0  0  0  0  0  0  0
  189.6780  175.3190  141.7720 O   0  0  0  0  0  0  0  0  0  0  0  0
  188.6820  172.2450  143.1230 C   0  0  0  0  0  2  0  0  0  0  0  0
  189.9050  173.7710  144.5080 F   0  0  0  0  0  0  0  0  0  0  0  0
  189.7410  172.4350  144.2070 C   0  0  0  0  0  3  0  0  0  0  0  0
  189.4220  171.7310  145.3540 F   0  0  0  0  0  0  0  0  0  0  0  0
  187.4990  175.1210  142.6840 C   0  0  0  0  0  2  0  0  0  0  0  0
  186.3380  177.2220  143.0140 C   0  0  1  0  0  3  0  0  0  0  0  0
  186.5780  177.1050  141.5100 C   0  0  0  0  0  0  0  0  0  0  0  0
  187.5640  176.6330  142.5790 C   0  0  2  0  0  3  0  0  0  0  0  0
  186.2460  177.2680  140.3490 O   0  0  0  0  0  0  0  0  0  0  0  0
  186.5850  178.6520  143.4550 C   0  0  0  0  0  2  0  0  0  0  0  0
  185.3850  179.1920  144.2160 C   0  0  0  0  0  2  0  0  0  0  0  0
  184.4340  178.1840  144.3770 O   0  0  0  0  0  1  0  0  0  0  0  0
  194.7960  172.1560  142.3380 C   0  0  2  0  0  3  0  0  0  0  0  0
  193.6910  171.9530  143.3680 C   0  0  0  0  0  2  0  0  0  0  0  0
  192.9600  173.1890  143.5920 N   0  0  0  0  0  2  0  0  0  0  0  0
  193.2600  173.6300  144.9480 C   0  0  0  0  0  2  0  0  0  0  0  0
  192.6640  175.8650  143.9540 C   0  0  0  0  0  2  0  0  0  0  0  0
  191.8930  176.2920  146.5570 C   0  0  0  0  0  2  0  0  0  0  0  0
  193.5080  175.1350  144.9950 C   0  0  1  0  0  3  0  0  0  0  0  0
  191.5460  177.2780  145.5140 N   0  0  0  0  0  0  0  0  0  0  0  0
  192.4190  177.2420  144.3940 N   0  0  0  0  0  2  0  0  0  0  0  0
  193.2980  175.7040  146.3990 C   0  0  0  0  0  2  0  0  0  0  0  0
  190.1920  176.9930  145.0510 C   0  0  0  0  0  2  0  0  0  0  0  0
  189.1860  177.2800  146.1560 C   0  0  0  0  0  2  0  0  0  0  0  0
  188.1740  176.1520  146.2410 C   0  0  0  0  0  3  0  0  0  0  0  0
  188.6530  175.1190  147.2420 C   0  0  0  0  0  1  0  0  0  0  0  0
  186.8240  176.6870  146.6860 C   0  0  0  0  0  1  0  0  0  0  0  0
  194.8360  173.5980  141.8640 C   0  0  0  0  0  2  0  0  0  0  0  0
  197.0470  174.3940  141.2680 N   0  0  0  0  0  1  0  0  0  0  0  0
  196.0990  174.2790  142.3590 C   0  0  0  0  0  2  0  0  0  0  0  0
  1 19  1  0  0  0  0
  2  4  2  0  0  0  0
  3  1  2  0  0  0  0
  5 16  1  6  0  0  0
  5  7  1  0  0  0  0
  6  4  1  0  0  0  0
  6  5  1  0  0  0  0
  7  9  2  0  0  0  0
  9  8  2  0  0  0  0
 10  1  1  0  0  0  0
 11  4  1  6  0  0  0
 11  7  1  0  0  0  0
 11 13  1  0  0  0  0
 12  2  1  6  0  0  0
 12 10  1  0  0  0  0
 12 13  1  0  0  0  0
 13  3  1  0  0  0  0
 15 16  1  0  0  0  0
 15 17  1  0  0  0  0
 16 17  1  0  0  0  0
 16 14  1  0  0  0  0
 18 25  1  0  0  0  0
 19 18  1  0  0  0  0
 19 21  1  0  0  0  0
 20 18  2  0  0  0  0
 21 23  1  0  0  0  0
 23 22  1  0  0  0  0
 23 24  1  0  0  0  0
 26 30  1  6  0  0  0
 27 28  1  0  0  0  0
 27 26  1  0  0  0  0
 28 25  1  1  0  0  0
 28 26  1  0  0  0  0
 29 27  2  0  0  0  0
 30 31  1  0  0  0  0
 31 32  1  0  0  0  0
 33  8  1  6  0  0  0
 33 34  1  0  0  0  0
 34 35  1  0  0  0  0
 35 36  1  0  0  0  0
 37 41  1  0  0  0  0
 37 39  1  0  0  0  0
 39 36  1  1  0  0  0
 39 42  1  0  0  0  0
 40 38  1  0  0  0  0
 41 40  1  0  0  0  0
 42 38  1  0  0  0  0
 43 40  1  0  0  0  0
 43 44  1  0  0  0  0
 44 45  1  0  0  0  0
 45 47  1  0  0  0  0
 45 46  1  0  0  0  0
 48 33  1  0  0  0  0
 48 50  1  0  0  0  0
 49 50  1  0  0  0  0
M  END
>  <MODEL>
6

>  <REMARK>
 VINA RESULT:      -5.8      3.207      5.960
  Name = 
  18 active torsions:
  status: ('A' for Active; 'I' for Inactive)
    1  A    between atoms: C_1  and  C_47
    2  A    between atoms: C_3  and  C_47
    3  A    between atoms: C_4  and  C_21
    4  A    between atoms: C_6  and  C_31
    5  A    between atoms: C_6  and  C_35
    6  A    between atoms: C_7  and  C_21
    7  A    between atoms: C_12  and  N_32
    8  A    between atoms: C_17  and  C_30
    9  A    between atoms: C_18  and  C_36
   10  A    between atoms: C_22  and  C_33
   11  A    between atoms: N_23  and  C_25
   12  A    between atoms: C_24  and  C_31
   13  A    between atoms: C_25  and  C_48
   14  A    between atoms: N_26  and  C_30
   15  A    between atoms: N_26  and  C_50
   16  A    between atoms: C_31  and  C_50
   17  A    between atoms: N_32  and  C_33
   18  A    between atoms: C_38  and  C_48
                            x       y       z     vdW  Elec       q    Type
                         _______ _______ _______ _____ _____    ______ ____

>  <TORSDO>
F 18

$$$$
=
 OpenBabel11042415543D

 50 55  0  0  1  0  0  0  0  0999 V2000
  189.6910  174.7610  142.1350 C   0  0  0  0  0  0  0  0  0  0  0  0
  188.2140  173.1770  139.2450 N   0  0  0  0  0  0  0  0  0  0  0  0
  190.5270  173.8680  141.6350 C   0  0  0  0  0  3  0  0  0  0  0  0
  189.2770  172.8130  138.6070 C   0  0  0  0  0  0  0  0  0  0  0  0
  190.9230  173.7900  137.5710 C   0  0  1  0  0  3  0  0  0  0  0  0
  189.6770  173.4770  137.4160 N   0  0  0  0  0  2  0  0  0  0  0  0
  191.4560  173.3630  138.8740 C   0  0  0  0  0  0  0  0  0  0  0  0
  193.9990  173.1330  139.3960 C   0  0  0  0  0  3  0  0  0  0  0  0
  192.7290  173.2450  139.1360 C   0  0  0  0  0  0  0  0  0  0  0  0
  188.0000  174.5940  141.5410 S   0  0  0  0  0  0  0  0  0  0  0  0
  190.4180  172.4870  139.4940 C   0  0  1  0  0  3  0  0  0  0  0  0
  188.4630  173.0550  140.6740 C   0  0  2  0  0  3  0  0  0  0  0  0
  189.9050  172.9150  140.7850 N   0  0  0  0  0  0  0  0  0  0  0  0
  192.3800  175.6710  136.7520 O   0  0  0  0  0  1  0  0  0  0  0  0
  191.2270  174.3610  135.2110 O   0  0  0  0  0  0  0  0  0  0  0  0
  191.6980  174.4800  136.4940 C   0  0  0  0  0  0  0  0  0  0  0  0
  192.3180  173.6610  135.5830 O   0  0  0  0  0  0  0  0  0  0  0  0
  189.4660  177.0540  143.0990 C   0  0  0  0  0  0  0  0  0  0  0  0
  190.0940  175.7630  143.0930 N   0  0  0  0  0  0  0  0  0  0  0  0
  189.3050  177.6860  142.0210 O   0  0  0  0  0  0  0  0  0  0  0  0
  191.2230  175.5200  143.9950 C   0  0  0  0  0  2  0  0  0  0  0  0
  190.7690  175.8010  146.3310 F   0  0  0  0  0  0  0  0  0  0  0  0
  190.7880  174.8750  145.3090 C   0  0  0  0  0  3  0  0  0  0  0  0
  189.5440  174.2800  145.1920 F   0  0  0  0  0  0  0  0  0  0  0  0
  188.9330  177.6380  144.3620 C   0  0  0  0  0  2  0  0  0  0  0  0
  186.7560  177.9840  145.3650 C   0  0  1  0  0  3  0  0  0  0  0  0
  187.3990  176.8350  146.1400 C   0  0  0  0  0  0  0  0  0  0  0  0
  187.5600  177.0560  144.6360 C   0  0  2  0  0  3  0  0  0  0  0  0
  187.6150  176.2130  147.1660 O   0  0  0  0  0  0  0  0  0  0  0  0
  185.2870  177.6790  145.1370 C   0  0  0  0  0  2  0  0  0  0  0  0
  184.7320  178.5350  144.0110 C   0  0  0  0  0  2  0  0  0  0  0  0
  185.4050  179.7560  143.9680 O   0  0  0  0  0  1  0  0  0  0  0  0
  194.8070  174.3450  139.6890 C   0  0  2  0  0  3  0  0  0  0  0  0
  193.9350  175.3490  140.4340 C   0  0  0  0  0  2  0  0  0  0  0  0
  194.3100  175.4200  141.8360 N   0  0  0  0  0  2  0  0  0  0  0  0
  195.6880  175.8910  141.8930 C   0  0  0  0  0  2  0  0  0  0  0  0
  194.8720  176.3400  144.2320 C   0  0  0  0  0  2  0  0  0  0  0  0
  196.4730  174.1570  144.7080 C   0  0  0  0  0  2  0  0  0  0  0  0
  196.0930  176.2370  143.3230 C   0  0  1  0  0  3  0  0  0  0  0  0
  195.5930  174.6730  145.7760 N   0  0  0  0  0  0  0  0  0  0  0  0
  195.2590  176.0440  145.6150 N   0  0  0  0  0  2  0  0  0  0  0  0
  197.1330  175.2600  143.8740 C   0  0  0  0  0  2  0  0  0  0  0  0
  194.3590  173.8950  145.7640 C   0  0  0  0  0  2  0  0  0  0  0  0
  194.6500  172.4540  145.3690 C   0  0  0  0  0  2  0  0  0  0  0  0
  193.4360  171.8490  144.6880 C   0  0  0  0  0  3  0  0  0  0  0  0
  193.3660  172.3390  143.2540 C   0  0  0  0  0  1  0  0  0  0  0  0
  193.5300  170.3330  144.6900 C   0  0  0  0  0  1  0  0  0  0  0  0
  195.3200  174.9320  138.3860 C   0  0  0  0  0  2  0  0  0  0  0  0
  197.3150  174.0160  139.4130 N   0  0  0  0  0  1  0  0  0  0  0  0
  196.8340  174.8570  138.3350 C   0  0  0  0  0  2  0  0  0  0  0  0
  1 19  1  0  0  0  0
  3  1  2  0  0  0  0
  4  2  2  0  0  0  0
  5 16  1  6  0  0  0
  5  7  1  0  0  0  0
  6  5  1  0  0  0  0
  6  4  1  0  0  0  0
  7  9  2  0  0  0  0
  7 11  1  0  0  0  0
  8 33  1  0  0  0  0
  9  8  2  0  0  0  0
 10  1  1  0  0  0  0
 11  4  1  6  0  0  0
 11 13  1  0  0  0  0
 12  2  1  6  0  0  0
 12 13  1  0  0  0  0
 12 10  1  0  0  0  0
 13  3  1  0  0  0  0
 15 17  1  0  0  0  0
 15 16  1  0  0  0  0
 16 14  1  0  0  0  0
 17 16  1  0  0  0  0
 18 25  1  0  0  0  0
 19 18  1  0  0  0  0
 19 21  1  0  0  0  0
 20 18  2  0  0  0  0
 21 23  1  0  0  0  0
 23 22  1  0  0  0  0
 24 23  1  0  0  0  0
 26 30  1  6  0  0  0
 26 27  1  0  0  0  0
 27 29  2  0  0  0  0
 28 25  1  1  0  0  0
 28 26  1  0  0  0  0
 28 27  1  0  0  0  0
 31 30  1  0  0  0  0
 32 31  1  0  0  0  0
 33 48  1  6  0  0  0
 33 34  1  0  0  0  0
 34 35  1  0  0  0  0
 35 36  1  0  0  0  0
 37 41  1  0  0  0  0
 38 40  1  0  0  0  0
 39 36  1  6  0  0  0
 39 42  1  0  0  0  0
 39 37  1  0  0  0  0
 41 40  1  0  0  0  0
 42 38  1  0  0  0  0
 43 40  1  0  0  0  0
 44 43  1  0  0  0  0
 45 47  1  0  0  0  0
 45 44  1  0  0  0  0
 46 45  1  0  0  0  0
 50 48  1  0  0  0  0
 50 49  1  0  0  0  0
M  END
>  <MODEL>
7

>  <REMARK>
 VINA RESULT:      -5.7      3.023      7.011
  Name = 
  18 active torsions:
  status: ('A' for Active; 'I' for Inactive)
    1  A    between atoms: C_1  and  C_47
    2  A    between atoms: C_3  and  C_47
    3  A    between atoms: C_4  and  C_21
    4  A    between atoms: C_6  and  C_31
    5  A    between atoms: C_6  and  C_35
    6  A    between atoms: C_7  and  C_21
    7  A    between atoms: C_12  and  N_32
    8  A    between atoms: C_17  and  C_30
    9  A    between atoms: C_18  and  C_36
   10  A    between atoms: C_22  and  C_33
   11  A    between atoms: N_23  and  C_25
   12  A    between atoms: C_24  and  C_31
   13  A    between atoms: C_25  and  C_48
   14  A    between atoms: N_26  and  C_30
   15  A    between atoms: N_26  and  C_50
   16  A    between atoms: C_31  and  C_50
   17  A    between atoms: N_32  and  C_33
   18  A    between atoms: C_38  and  C_48
                            x       y       z     vdW  Elec       q    Type
                         _______ _______ _______ _____ _____    ______ ____

>  <TORSDO>
F 18

$$$$
=
 OpenBabel11042415543D

 50 55  0  0  1  0  0  0  0  0999 V2000
  192.4330  176.2880  145.1720 C   0  0  0  0  0  0  0  0  0  0  0  0
  195.8060  175.0140  145.3700 N   0  0  0  0  0  0  0  0  0  0  0  0
  192.7780  175.7480  144.0150 C   0  0  0  0  0  3  0  0  0  0  0  0
  195.7660  174.0980  144.4590 C   0  0  0  0  0  0  0  0  0  0  0  0
  194.7690  172.1860  144.1690 C   0  0  1  0  0  3  0  0  0  0  0  0
  195.7580  172.7220  144.8090 N   0  0  0  0  0  2  0  0  0  0  0  0
  194.0360  173.1580  143.3440 C   0  0  0  0  0  0  0  0  0  0  0  0
  192.4480  172.4940  141.3880 C   0  0  0  0  0  3  0  0  0  0  0  0
  193.2420  172.8270  142.3630 C   0  0  0  0  0  0  0  0  0  0  0  0
  193.8200  176.6170  146.2710 S   0  0  0  0  0  0  0  0  0  0  0  0
  194.8450  174.4130  143.3430 C   0  0  1  0  0  3  0  0  0  0  0  0
  194.9780  176.1330  144.9440 C   0  0  2  0  0  3  0  0  0  0  0  0
  194.1810  175.6040  143.8490 N   0  0  0  0  0  0  0  0  0  0  0  0
  193.2250  170.2750  144.7120 O   0  0  0  0  0  1  0  0  0  0  0  0
  195.5170  169.8920  144.5780 O   0  0  0  0  0  0  0  0  0  0  0  0
  194.4710  170.7240  144.2690 C   0  0  0  0  0  0  0  0  0  0  0  0
  195.0500  169.9270  143.3130 O   0  0  0  0  0  0  0  0  0  0  0  0
  190.1670  177.1000  144.5050 C   0  0  0  0  0  0  0  0  0  0  0  0
  191.0670  176.6090  145.5100 N   0  0  0  0  0  0  0  0  0  0  0  0
  190.5310  178.0210  143.7240 O   0  0  0  0  0  0  0  0  0  0  0  0
  190.6080  176.5470  146.9000 C   0  0  0  0  0  2  0  0  0  0  0  0
  191.3490  174.9150  148.4900 F   0  0  0  0  0  0  0  0  0  0  0  0
  190.5070  175.1140  147.4160 C   0  0  0  0  0  3  0  0  0  0  0  0
  189.2090  174.7950  147.7710 F   0  0  0  0  0  0  0  0  0  0  0  0
  188.8210  176.4900  144.3190 C   0  0  0  0  0  2  0  0  0  0  0  0
  186.7890  177.3920  145.2790 C   0  0  1  0  0  3  0  0  0  0  0  0
  186.4370  176.9960  143.8460 C   0  0  0  0  0  0  0  0  0  0  0  0
  187.7790  177.5910  144.2700 C   0  0  2  0  0  3  0  0  0  0  0  0
  185.6730  176.5520  143.0060 O   0  0  0  0  0  0  0  0  0  0  0  0
  186.1250  178.7150  145.6140 C   0  0  0  0  0  2  0  0  0  0  0  0
  185.2600  178.5800  146.8560 C   0  0  0  0  0  2  0  0  0  0  0  0
  184.1580  177.7710  146.5800 O   0  0  0  0  0  1  0  0  0  0  0  0
  191.0740  172.0100  141.6800 C   0  0  2  0  0  3  0  0  0  0  0  0
  190.4840  171.4060  140.4110 C   0  0  0  0  0  2  0  0  0  0  0  0
  190.2000  172.4400  139.4300 N   0  0  0  0  0  2  0  0  0  0  0  0
  189.2730  171.8740  138.4600 C   0  0  0  0  0  2  0  0  0  0  0  0
  189.7370  173.9940  137.1850 C   0  0  0  0  0  2  0  0  0  0  0  0
  191.9060  172.4980  136.4060 C   0  0  0  0  0  2  0  0  0  0  0  0
  189.4710  172.4950  137.0800 C   0  0  1  0  0  3  0  0  0  0  0  0
  191.8400  173.9330  136.0650 N   0  0  0  0  0  0  0  0  0  0  0  0
  190.5140  174.4400  136.0240 N   0  0  0  0  0  2  0  0  0  0  0  0
  190.5600  171.7780  136.2820 C   0  0  0  0  0  2  0  0  0  0  0  0
  192.5850  174.6750  137.0770 C   0  0  0  0  0  2  0  0  0  0  0  0
  193.2840  173.7140  138.0270 C   0  0  0  0  0  2  0  0  0  0  0  0
  194.6600  174.2450  138.3830 C   0  0  0  0  0  3  0  0  0  0  0  0
  195.2080  175.0460  137.2180 C   0  0  0  0  0  1  0  0  0  0  0  0
  194.5810  175.1400  139.6070 C   0  0  0  0  0  1  0  0  0  0  0  0
  190.2280  173.1720  142.1710 C   0  0  0  0  0  2  0  0  0  0  0  0
  187.8190  173.3460  141.9670 N   0  0  0  0  0  1  0  0  0  0  0  0
  188.8880  172.6710  142.6770 C   0  0  0  0  0  2  0  0  0  0  0  0
  1 19  1  0  0  0  0
  1 10  1  0  0  0  0
  3  1  2  0  0  0  0
  4  6  1  0  0  0  0
  4  2  2  0  0  0  0
  5 16  1  6  0  0  0
  5  6  1  0  0  0  0
  7  5  1  0  0  0  0
  8 33  1  0  0  0  0
  8  9  2  0  0  0  0
  9  7  2  0  0  0  0
 11  7  1  1  0  0  0
 11 13  1  0  0  0  0
 11  4  1  0  0  0  0
 12  2  1  1  0  0  0
 12 10  1  0  0  0  0
 13  3  1  0  0  0  0
 13 12  1  0  0  0  0
 16 15  1  0  0  0  0
 16 14  1  0  0  0  0
 17 16  1  0  0  0  0
 17 15  1  0  0  0  0
 18 19  1  0  0  0  0
 19 21  1  0  0  0  0
 20 18  2  0  0  0  0
 21 23  1  0  0  0  0
 23 24  1  0  0  0  0
 23 22  1  0  0  0  0
 25 18  1  0  0  0  0
 26 30  1  6  0  0  0
 27 28  1  0  0  0  0
 27 26  1  0  0  0  0
 28 25  1  1  0  0  0
 28 26  1  0  0  0  0
 29 27  2  0  0  0  0
 30 31  1  0  0  0  0
 32 31  1  0  0  0  0
 33 34  1  6  0  0  0
 33 48  1  0  0  0  0
 35 34  1  0  0  0  0
 36 35  1  0  0  0  0
 39 37  1  0  0  0  0
 39 36  1  1  0  0  0
 40 38  1  0  0  0  0
 40 43  1  0  0  0  0
 41 40  1  0  0  0  0
 41 37  1  0  0  0  0
 42 38  1  0  0  0  0
 42 39  1  0  0  0  0
 43 44  1  0  0  0  0
 44 45  1  0  0  0  0
 45 47  1  0  0  0  0
 46 45  1  0  0  0  0
 48 50  1  0  0  0  0
 49 50  1  0  0  0  0
M  END
>  <MODEL>
8

>  <REMARK>
 VINA RESULT:      -5.7      3.162      6.395
  Name = 
  18 active torsions:
  status: ('A' for Active; 'I' for Inactive)
    1  A    between atoms: C_1  and  C_47
    2  A    between atoms: C_3  and  C_47
    3  A    between atoms: C_4  and  C_21
    4  A    between atoms: C_6  and  C_31
    5  A    between atoms: C_6  and  C_35
    6  A    between atoms: C_7  and  C_21
    7  A    between atoms: C_12  and  N_32
    8  A    between atoms: C_17  and  C_30
    9  A    between atoms: C_18  and  C_36
   10  A    between atoms: C_22  and  C_33
   11  A    between atoms: N_23  and  C_25
   12  A    between atoms: C_24  and  C_31
   13  A    between atoms: C_25  and  C_48
   14  A    between atoms: N_26  and  C_30
   15  A    between atoms: N_26  and  C_50
   16  A    between atoms: C_31  and  C_50
   17  A    between atoms: N_32  and  C_33
   18  A    between atoms: C_38  and  C_48
                            x       y       z     vdW  Elec       q    Type
                         _______ _______ _______ _____ _____    ______ ____

>  <TORSDO>
F 18

$$$$
=
 OpenBabel11042415543D

 50 55  0  0  1  0  0  0  0  0999 V2000
  189.6850  174.9650  142.0130 C   0  0  0  0  0  0  0  0  0  0  0  0
  188.4210  177.6000  144.1320 N   0  0  0  0  0  0  0  0  0  0  0  0
  190.6760  175.7570  142.3850 C   0  0  0  0  0  3  0  0  0  0  0  0
  189.4830  177.8890  144.8080 C   0  0  0  0  0  0  0  0  0  0  0  0
  190.7320  176.9160  146.3010 C   0  0  1  0  0  3  0  0  0  0  0  0
  189.5980  177.5260  146.1770 N   0  0  0  0  0  2  0  0  0  0  0  0
  191.4650  176.8200  145.0290 C   0  0  0  0  0  0  0  0  0  0  0  0
  194.0170  176.3220  144.8590 C   0  0  0  0  0  3  0  0  0  0  0  0
  192.7430  176.5720  144.9430 C   0  0  0  0  0  0  0  0  0  0  0  0
  188.0480  175.6640  142.2770 S   0  0  0  0  0  0  0  0  0  0  0  0
  190.7400  177.6860  144.0520 C   0  0  1  0  0  3  0  0  0  0  0  0
  188.8120  177.2470  142.7760 C   0  0  2  0  0  3  0  0  0  0  0  0
  190.2470  177.0270  142.8530 N   0  0  0  0  0  0  0  0  0  0  0  0
  191.5490  177.2990  148.6490 O   0  0  0  0  0  1  0  0  0  0  0  0
  191.9280  175.2430  147.6260 O   0  0  0  0  0  0  0  0  0  0  0  0
  191.2120  176.4130  147.6250 C   0  0  0  0  0  0  0  0  0  0  0  0
  190.6510  175.2370  148.0580 O   0  0  0  0  0  0  0  0  0  0  0  0
  189.5620  173.4300  140.0450 C   0  0  0  0  0  0  0  0  0  0  0  0
  189.9000  173.6660  141.4210 N   0  0  0  0  0  0  0  0  0  0  0  0
  188.4490  173.8110  139.5930 O   0  0  0  0  0  0  0  0  0  0  0  0
  190.3590  172.5390  142.2390 C   0  0  0  0  0  2  0  0  0  0  0  0
  189.3260  172.6060  144.4000 F   0  0  0  0  0  0  0  0  0  0  0  0
  189.2630  172.0070  143.1590 C   0  0  0  0  0  3  0  0  0  0  0  0
  188.0070  172.1940  142.6100 F   0  0  0  0  0  0  0  0  0  0  0  0
  190.5390  172.8000  139.1150 C   0  0  0  0  0  2  0  0  0  0  0  0
  190.8530  170.8750  137.6780 C   0  0  1  0  0  3  0  0  0  0  0  0
  189.8330  171.7670  136.9720 C   0  0  0  0  0  0  0  0  0  0  0  0
  189.9060  171.5740  138.4860 C   0  0  2  0  0  3  0  0  0  0  0  0
  189.3350  172.2530  135.9710 O   0  0  0  0  0  0  0  0  0  0  0  0
  190.4360  169.4230  137.5390 C   0  0  0  0  0  2  0  0  0  0  0  0
  191.5650  168.5000  137.9670 C   0  0  0  0  0  2  0  0  0  0  0  0
  191.4330  168.1840  139.3190 O   0  0  0  0  0  1  0  0  0  0  0  0
  194.5130  174.9300  145.0170 C   0  0  2  0  0  3  0  0  0  0  0  0
  195.9990  174.8970  144.6830 C   0  0  0  0  0  2  0  0  0  0  0  0
  196.3720  176.0420  143.8690 N   0  0  0  0  0  2  0  0  0  0  0  0
  197.2830  175.5620  142.8380 C   0  0  0  0  0  2  0  0  0  0  0  0
  197.3970  175.2130  140.3470 C   0  0  0  0  0  2  0  0  0  0  0  0
  194.6700  175.2650  140.6860 C   0  0  0  0  0  2  0  0  0  0  0  0
  196.9130  176.1270  141.4700 C   0  0  1  0  0  3  0  0  0  0  0  0
  195.2450  174.8720  139.3830 N   0  0  0  0  0  0  0  0  0  0  0  0
  196.5490  175.3910  139.1650 N   0  0  0  0  0  2  0  0  0  0  0  0
  195.4170  176.4210  141.3580 C   0  0  0  0  0  2  0  0  0  0  0  0
  195.3150  173.4160  139.3370 C   0  0  0  0  0  2  0  0  0  0  0  0
  194.3410  172.8110  140.3380 C   0  0  0  0  0  2  0  0  0  0  0  0
  194.3620  171.2970  140.2310 C   0  0  0  0  0  3  0  0  0  0  0  0
  193.1400  170.7250  140.9230 C   0  0  0  0  0  1  0  0  0  0  0  0
  194.3540  170.8700  138.7750 C   0  0  0  0  0  1  0  0  0  0  0  0
  193.7290  174.0120  144.0960 C   0  0  0  0  0  2  0  0  0  0  0  0
  193.8340  171.8070  145.0950 N   0  0  0  0  0  1  0  0  0  0  0  0
  194.3770  172.6420  144.0430 C   0  0  0  0  0  2  0  0  0  0  0  0
  1 10  1  0  0  0  0
  1  3  2  0  0  0  0
  2  4  2  0  0  0  0
  3 13  1  0  0  0  0
  4  6  1  0  0  0  0
  5 16  1  1  0  0  0
  6  5  1  0  0  0  0
  7  5  1  0  0  0  0
  8  9  2  0  0  0  0
  8 33  1  0  0  0  0
  9  7  2  0  0  0  0
 11  4  1  1  0  0  0
 11  7  1  0  0  0  0
 12 10  1  1  0  0  0
 12 13  1  0  0  0  0
 12  2  1  0  0  0  0
 13 11  1  0  0  0  0
 15 17  1  0  0  0  0
 16 15  1  0  0  0  0
 16 17  1  0  0  0  0
 16 14  1  0  0  0  0
 18 19  1  0  0  0  0
 19  1  1  0  0  0  0
 19 21  1  0  0  0  0
 20 18  2  0  0  0  0
 21 23  1  0  0  0  0
 23 22  1  0  0  0  0
 24 23  1  0  0  0  0
 25 18  1  0  0  0  0
 26 30  1  6  0  0  0
 26 28  1  0  0  0  0
 27 26  1  0  0  0  0
 27 28  1  0  0  0  0
 28 25  1  1  0  0  0
 29 27  2  0  0  0  0
 30 31  1  0  0  0  0
 31 32  1  0  0  0  0
 33 48  1  6  0  0  0
 34 33  1  0  0  0  0
 35 34  1  0  0  0  0
 36 35  1  0  0  0  0
 37 39  1  0  0  0  0
 38 42  1  0  0  0  0
 39 36  1  1  0  0  0
 40 38  1  0  0  0  0
 41 40  1  0  0  0  0
 41 37  1  0  0  0  0
 42 39  1  0  0  0  0
 43 40  1  0  0  0  0
 43 44  1  0  0  0  0
 45 44  1  0  0  0  0
 45 46  1  0  0  0  0
 47 45  1  0  0  0  0
 50 48  1  0  0  0  0
 50 49  1  0  0  0  0
M  END
>  <MODEL>
9

>  <REMARK>
 VINA RESULT:      -5.7      3.057      8.869
  Name = 
  18 active torsions:
  status: ('A' for Active; 'I' for Inactive)
    1  A    between atoms: C_1  and  C_47
    2  A    between atoms: C_3  and  C_47
    3  A    between atoms: C_4  and  C_21
    4  A    between atoms: C_6  and  C_31
    5  A    between atoms: C_6  and  C_35
    6  A    between atoms: C_7  and  C_21
    7  A    between atoms: C_12  and  N_32
    8  A    between atoms: C_17  and  C_30
    9  A    between atoms: C_18  and  C_36
   10  A    between atoms: C_22  and  C_33
   11  A    between atoms: N_23  and  C_25
   12  A    between atoms: C_24  and  C_31
   13  A    between atoms: C_25  and  C_48
   14  A    between atoms: N_26  and  C_30
   15  A    between atoms: N_26  and  C_50
   16  A    between atoms: C_31  and  C_50
   17  A    between atoms: N_32  and  C_33
   18  A    between atoms: C_38  and  C_48
                            x       y       z     vdW  Elec       q    Type
                         _______ _______ _______ _____ _____    ______ ____

>  <TORSDO>
F 18

$$$$
