=
 OpenBabel11042415503D

 34 39  0  0  1  0  0  0  0  0999 V2000
  185.1630  178.7220  143.8480 C   0  0  0  0  0  2  0  0  0  0  0  0
  190.0490  176.6880  143.7770 N   0  0  0  0  0  2  0  0  0  0  0  0
  186.1910  178.4830  146.0740 C   0  0  0  0  0  0  0  0  0  0  0  0
  186.5950  176.3070  142.5530 N   0  0  0  0  0  2  0  0  0  0  0  0
  185.9200  177.2330  147.8430 N   0  0  0  0  0  0  0  0  0  0  0  0
  187.8670  176.1670  141.8630 C   0  0  1  0  0  3  0  0  0  0  0  0
  186.0930  178.6900  142.6480 C   0  0  0  0  0  2  0  0  0  0  0  0
  185.5640  177.2500  139.5130 O   0  0  0  0  0  1  0  0  0  0  0  0
  187.0220  176.7820  147.2170 C   0  0  0  0  0  0  0  0  0  0  0  0
  188.4360  174.7930  142.0390 C   0  0  0  0  0  0  0  0  0  0  0  0
  185.4170  178.2480  147.1520 N   0  0  0  0  0  0  0  0  0  0  0  0
  187.6320  176.5230  140.4180 C   0  0  0  0  0  2  0  0  0  0  0  0
  188.2150  177.5040  145.0640 C   0  0  0  0  0  3  0  0  0  0  0  0
  189.2270  176.5590  144.9440 C   0  0  0  0  0  0  0  0  0  0  0  0
  188.4460  172.4500  141.9050 C   0  0  0  0  0  3  0  0  0  0  0  0
  188.8290  175.1110  147.0060 C   0  0  0  0  0  3  0  0  0  0  0  0
  189.9130  172.8830  142.6050 S   0  0  0  0  0  0  0  0  0  0  0  0
  186.5190  177.5420  140.4840 C   0  0  2  0  0  3  0  0  0  0  0  0
  187.7340  175.6780  147.6450 C   0  0  0  0  0  3  0  0  0  0  0  0
  185.8280  179.4580  144.9990 C   0  0  0  0  0  2  0  0  0  0  0  0
  187.7500  173.6290  141.6540 C   0  0  0  0  0  3  0  0  0  0  0  0
  185.9060  177.3970  141.8680 C   0  0  1  0  0  3  0  0  0  0  0  0
  189.6810  174.5480  142.6200 C   0  0  0  0  0  0  0  0  0  0  0  0
  187.2440  177.5930  146.0430 C   0  0  0  0  0  0  0  0  0  0  0  0
  190.6900  175.5880  143.0570 C   0  0  2  0  0  3  0  0  0  0  0  0
  189.4660  175.4950  145.8250 C   0  0  0  0  0  3  0  0  0  0  0  0
  192.0850  174.9170  144.0030 S   0  0  0  0  0  0  0  0  0  0  0  0
  193.3520  176.3440  142.1770 N   0  0  0  0  0  1  0  0  0  0  0  0
  193.4300  175.5770  143.3830 C   0  0  2  0  0  3  0  0  0  0  0  0
  194.7150  175.1280  143.8630 N   0  0  0  0  0  0  0  0  0  0  0  0
  195.2820  175.9490  144.9750 C   0  0  1  0  0  3  0  0  0  0  0  0
  195.7130  176.1810  143.6020 C   0  0  0  0  0  2  0  0  0  0  0  0
  194.4330  177.1360  145.4350 C   0  0  0  0  0  2  0  0  0  0  0  0
  193.9330  176.8860  146.8420 C   0  0  0  0  0  1  0  0  0  0  0  0
  1 20  1  0  0  0  0
  2 14  1  0  0  0  0
  3 11  1  0  0  0  0
  6 12  1  6  0  0  0
  6 10  1  0  0  0  0
  6  4  1  0  0  0  0
  7  1  1  0  0  0  0
  9 19  2  0  0  0  0
  9  5  1  0  0  0  0
 10 23  2  0  0  0  0
 11  5  2  0  0  0  0
 12 18  1  0  0  0  0
 13 24  1  0  0  0  0
 14 13  2  0  0  0  0
 14 26  1  0  0  0  0
 15 17  1  0  0  0  0
 16 19  1  0  0  0  0
 17 23  1  0  0  0  0
 18  8  1  6  0  0  0
 18 22  1  0  0  0  0
 20  3  1  0  0  0  0
 21 15  2  0  0  0  0
 21 10  1  0  0  0  0
 22  4  1  0  0  0  0
 22  7  1  1  0  0  0
 23 25  1  0  0  0  0
 24  3  2  0  0  0  0
 24  9  1  0  0  0  0
 25  2  1  0  0  0  0
 25 27  1  1  0  0  0
 26 16  2  0  0  0  0
 29 28  1  6  0  0  0
 29 30  1  0  0  0  0
 29 27  1  0  0  0  0
 30 31  1  0  0  0  0
 31 33  1  6  0  0  0
 32 30  1  0  0  0  0
 32 31  1  0  0  0  0
 33 34  1  0  0  0  0
M  END
>  <MODEL>
1

>  <REMARK>
 VINA RESULT:      -9.2      0.000      0.000
  Name = 
  3 active torsions:
  status: ('A' for Active; 'I' for Inactive)
    1  A    between atoms: N_3  and  C_29
    2  A    between atoms: C_6  and  C_16
    3  A    between atoms: S_13  and  C_32
                            x       y       z     vdW  Elec       q    Type
                         _______ _______ _______ _____ _____    ______ ____

>  <TORSDO>
F 3

$$$$
=
 OpenBabel11042415503D

 34 39  0  0  1  0  0  0  0  0999 V2000
  186.7970  176.0430  142.5070 C   0  0  0  0  0  2  0  0  0  0  0  0
  191.9410  175.6010  143.6750 N   0  0  0  0  0  2  0  0  0  0  0  0
  187.4070  176.9090  144.7300 C   0  0  0  0  0  0  0  0  0  0  0  0
  188.9660  173.8430  142.3930 N   0  0  0  0  0  2  0  0  0  0  0  0
  187.0970  176.3420  146.8160 N   0  0  0  0  0  0  0  0  0  0  0  0
  190.3450  173.8390  141.9300 C   0  0  1  0  0  3  0  0  0  0  0  0
  187.9220  175.8570  141.5030 C   0  0  0  0  0  2  0  0  0  0  0  0
  188.3480  173.3160  139.1480 O   0  0  0  0  0  1  0  0  0  0  0  0
  188.3720  176.0330  146.5180 C   0  0  0  0  0  0  0  0  0  0  0  0
  191.1700  172.8380  142.6800 C   0  0  0  0  0  0  0  0  0  0  0  0
  186.5160  176.8590  145.7410 N   0  0  0  0  0  0  0  0  0  0  0  0
  190.3150  173.5780  140.4460 C   0  0  0  0  0  2  0  0  0  0  0  0
  189.7570  176.2580  144.3700 C   0  0  0  0  0  3  0  0  0  0  0  0
  190.9620  175.6630  144.7200 C   0  0  0  0  0  0  0  0  0  0  0  0
  191.7440  170.7060  143.4750 C   0  0  0  0  0  3  0  0  0  0  0  0
  190.5210  174.9860  147.1400 C   0  0  0  0  0  3  0  0  0  0  0  0
  192.9100  171.7570  144.0780 S   0  0  0  0  0  0  0  0  0  0  0  0
  189.0060  174.1910  140.0080 C   0  0  2  0  0  3  0  0  0  0  0  0
  189.2230  175.4040  147.4050 C   0  0  0  0  0  3  0  0  0  0  0  0
  187.0420  177.2950  143.3330 C   0  0  0  0  0  2  0  0  0  0  0  0
  190.8560  171.4690  142.7210 C   0  0  0  0  0  3  0  0  0  0  0  0
  188.1900  174.3760  141.2780 C   0  0  1  0  0  3  0  0  0  0  0  0
  192.3030  173.1810  143.4200 C   0  0  0  0  0  0  0  0  0  0  0  0
  188.6220  176.4050  145.1450 C   0  0  0  0  0  0  0  0  0  0  0  0
  192.9430  174.5500  143.5030 C   0  0  2  0  0  3  0  0  0  0  0  0
  191.2660  175.0930  145.9640 C   0  0  0  0  0  3  0  0  0  0  0  0
  194.2470  174.6830  144.7560 S   0  0  0  0  0  0  0  0  0  0  0  0
  195.6850  174.3870  142.5610 N   0  0  0  0  0  1  0  0  0  0  0  0
  195.6610  174.6780  143.9620 C   0  0  2  0  0  3  0  0  0  0  0  0
  196.8890  174.6490  144.7200 N   0  0  0  0  0  0  0  0  0  0  0  0
  197.3800  173.2780  145.0510 C   0  0  1  0  0  3  0  0  0  0  0  0
  196.6210  174.0390  146.0350 C   0  0  0  0  0  2  0  0  0  0  0  0
  196.5200  172.1160  144.5510 C   0  0  0  0  0  2  0  0  0  0  0  0
  196.3460  171.1000  145.6610 C   0  0  0  0  0  1  0  0  0  0  0  0
  1 20  1  0  0  0  0
  2 14  1  0  0  0  0
  3 24  2  0  0  0  0
  3 11  1  0  0  0  0
  6 12  1  6  0  0  0
  6  4  1  0  0  0  0
  6 10  1  0  0  0  0
  7  1  1  0  0  0  0
  9  5  1  0  0  0  0
  9 19  2  0  0  0  0
 10 21  1  0  0  0  0
 10 23  2  0  0  0  0
 11  5  2  0  0  0  0
 13 14  2  0  0  0  0
 13 24  1  0  0  0  0
 14 26  1  0  0  0  0
 15 17  1  0  0  0  0
 16 19  1  0  0  0  0
 18  8  1  6  0  0  0
 18 12  1  0  0  0  0
 18 22  1  0  0  0  0
 20  3  1  0  0  0  0
 21 15  2  0  0  0  0
 22  7  1  1  0  0  0
 22  4  1  0  0  0  0
 23 25  1  0  0  0  0
 23 17  1  0  0  0  0
 24  9  1  0  0  0  0
 25  2  1  0  0  0  0
 25 27  1  1  0  0  0
 26 16  2  0  0  0  0
 29 28  1  6  0  0  0
 29 30  1  0  0  0  0
 29 27  1  0  0  0  0
 30 31  1  0  0  0  0
 30 32  1  0  0  0  0
 31 33  1  6  0  0  0
 31 32  1  0  0  0  0
 33 34  1  0  0  0  0
M  END
>  <MODEL>
2

>  <REMARK>
 VINA RESULT:      -7.4      2.442      3.268
  Name = 
  3 active torsions:
  status: ('A' for Active; 'I' for Inactive)
    1  A    between atoms: N_3  and  C_29
    2  A    between atoms: C_6  and  C_16
    3  A    between atoms: S_13  and  C_32
                            x       y       z     vdW  Elec       q    Type
                         _______ _______ _______ _____ _____    ______ ____

>  <TORSDO>
F 3

$$$$
=
 OpenBabel11042415503D

 34 39  0  0  1  0  0  0  0  0999 V2000
  187.0470  177.3880  146.7540 C   0  0  0  0  0  2  0  0  0  0  0  0
  188.4670  174.0590  142.8910 N   0  0  0  0  0  2  0  0  0  0  0  0
  185.7090  177.5970  144.6960 C   0  0  0  0  0  0  0  0  0  0  0  0
  189.6670  176.5110  145.3660 N   0  0  0  0  0  2  0  0  0  0  0  0
  185.4650  179.0420  143.0780 N   0  0  0  0  0  0  0  0  0  0  0  0
  190.1950  175.2110  144.9850 C   0  0  1  0  0  3  0  0  0  0  0  0
  187.8460  176.1090  146.9350 C   0  0  0  0  0  2  0  0  0  0  0  0
  191.0260  175.6960  148.3130 O   0  0  0  0  0  1  0  0  0  0  0  0
  186.1870  178.0230  142.5790 C   0  0  0  0  0  0  0  0  0  0  0  0
  191.0830  175.3130  143.7830 C   0  0  0  0  0  0  0  0  0  0  0  0
  185.1860  178.7910  144.3500 N   0  0  0  0  0  0  0  0  0  0  0  0
  190.9020  174.6470  146.1890 C   0  0  0  0  0  2  0  0  0  0  0  0
  187.0530  175.8390  143.6110 C   0  0  0  0  0  3  0  0  0  0  0  0
  187.8070  175.2930  142.5800 C   0  0  0  0  0  0  0  0  0  0  0  0
  192.9150  176.0890  142.5380 C   0  0  0  0  0  3  0  0  0  0  0  0
  187.5180  177.0410  140.7450 C   0  0  0  0  0  3  0  0  0  0  0  0
  192.0840  175.0290  141.5310 S   0  0  0  0  0  0  0  0  0  0  0  0
  190.1330  175.2270  147.3520 C   0  0  2  0  0  3  0  0  0  0  0  0
  186.7020  178.0190  141.2970 C   0  0  0  0  0  3  0  0  0  0  0  0
  185.7120  177.0780  146.0980 C   0  0  0  0  0  2  0  0  0  0  0  0
  192.2260  176.1300  143.7470 C   0  0  0  0  0  3  0  0  0  0  0  0
  189.3330  176.3880  146.7820 C   0  0  1  0  0  3  0  0  0  0  0  0
  190.8410  174.6280  142.5910 C   0  0  0  0  0  0  0  0  0  0  0  0
  186.3620  177.0360  143.6190 C   0  0  0  0  0  0  0  0  0  0  0  0
  189.7470  173.6120  142.3440 C   0  0  2  0  0  3  0  0  0  0  0  0
  188.0040  175.8630  141.3140 C   0  0  0  0  0  3  0  0  0  0  0  0
  189.5750  173.1160  140.6080 S   0  0  0  0  0  0  0  0  0  0  0  0
  190.8540  171.0310  141.6050 N   0  0  0  0  0  1  0  0  0  0  0  0
  190.1640  171.6100  140.4920 C   0  0  2  0  0  3  0  0  0  0  0  0
  190.2700  170.9980  139.1890 N   0  0  0  0  0  0  0  0  0  0  0  0
  191.5790  171.2210  138.5050 C   0  0  1  0  0  3  0  0  0  0  0  0
  190.4330  172.0600  138.1790 C   0  0  0  0  0  2  0  0  0  0  0  0
  192.6040  172.0590  139.2710 C   0  0  0  0  0  2  0  0  0  0  0  0
  193.1840  173.1140  138.3520 C   0  0  0  0  0  1  0  0  0  0  0  0
  1  7  1  0  0  0  0
  3 20  1  0  0  0  0
  4 22  1  0  0  0  0
  5 11  2  0  0  0  0
  6  4  1  0  0  0  0
  6 12  1  1  0  0  0
  9  5  1  0  0  0  0
  9 24  1  0  0  0  0
 10  6  1  0  0  0  0
 11  3  1  0  0  0  0
 12 18  1  0  0  0  0
 13 24  1  0  0  0  0
 14  2  1  0  0  0  0
 14 13  2  0  0  0  0
 15 21  2  0  0  0  0
 16 19  1  0  0  0  0
 16 26  2  0  0  0  0
 17 15  1  0  0  0  0
 17 23  1  0  0  0  0
 18  8  1  1  0  0  0
 19  9  2  0  0  0  0
 20  1  1  0  0  0  0
 21 10  1  0  0  0  0
 22  7  1  6  0  0  0
 22 18  1  0  0  0  0
 23 10  2  0  0  0  0
 24  3  2  0  0  0  0
 25 27  1  6  0  0  0
 25 23  1  0  0  0  0
 25  2  1  0  0  0  0
 26 14  1  0  0  0  0
 29 27  1  0  0  0  0
 29 28  1  6  0  0  0
 30 29  1  0  0  0  0
 31 30  1  0  0  0  0
 31 33  1  1  0  0  0
 32 31  1  0  0  0  0
 32 30  1  0  0  0  0
 34 33  1  0  0  0  0
M  END
>  <MODEL>
3

>  <REMARK>
 VINA RESULT:      -7.2      3.266      5.680
  Name = 
  3 active torsions:
  status: ('A' for Active; 'I' for Inactive)
    1  A    between atoms: N_3  and  C_29
    2  A    between atoms: C_6  and  C_16
    3  A    between atoms: S_13  and  C_32
                            x       y       z     vdW  Elec       q    Type
                         _______ _______ _______ _____ _____    ______ ____

>  <TORSDO>
F 3

$$$$
=
 OpenBabel11042415503D

 34 39  0  0  1  0  0  0  0  0999 V2000
  186.7790  176.1430  143.0640 C   0  0  0  0  0  2  0  0  0  0  0  0
  192.0710  176.1120  142.9340 N   0  0  0  0  0  2  0  0  0  0  0  0
  187.8410  177.5530  144.7820 C   0  0  0  0  0  0  0  0  0  0  0  0
  189.0310  174.0290  142.9210 N   0  0  0  0  0  2  0  0  0  0  0  0
  188.1010  177.5220  146.9500 N   0  0  0  0  0  0  0  0  0  0  0  0
  190.2490  173.9360  142.1320 C   0  0  1  0  0  3  0  0  0  0  0  0
  187.6350  175.7330  141.8770 C   0  0  0  0  0  2  0  0  0  0  0  0
  187.6820  172.6910  140.1670 O   0  0  0  0  0  1  0  0  0  0  0  0
  189.2850  177.1740  146.4150 C   0  0  0  0  0  0  0  0  0  0  0  0
  191.3140  173.1730  142.8590 C   0  0  0  0  0  0  0  0  0  0  0  0
  187.2330  177.7400  145.9710 N   0  0  0  0  0  0  0  0  0  0  0  0
  189.8780  173.3110  140.8120 C   0  0  0  0  0  2  0  0  0  0  0  0
  190.0770  176.8790  143.9920 C   0  0  0  0  0  3  0  0  0  0  0  0
  191.3770  176.4150  144.1510 C   0  0  0  0  0  0  0  0  0  0  0  0
  192.2420  171.3220  143.9620 C   0  0  0  0  0  3  0  0  0  0  0  0
  191.6010  176.3600  146.6910 C   0  0  0  0  0  3  0  0  0  0  0  0
  193.4280  172.5140  143.9760 S   0  0  0  0  0  0  0  0  0  0  0  0
  188.4560  173.7670  140.5940 C   0  0  2  0  0  3  0  0  0  0  0  0
  190.3780  176.8050  147.1750 C   0  0  0  0  0  3  0  0  0  0  0  0
  187.1140  177.5670  143.4760 C   0  0  0  0  0  2  0  0  0  0  0  0
  191.1360  171.8530  143.3050 C   0  0  0  0  0  3  0  0  0  0  0  0
  187.9630  174.2490  141.9500 C   0  0  1  0  0  3  0  0  0  0  0  0
  192.5610  173.7140  143.1770 C   0  0  0  0  0  0  0  0  0  0  0  0
  189.1580  177.1930  144.9760 C   0  0  0  0  0  0  0  0  0  0  0  0
  193.0840  175.0720  142.7640 C   0  0  2  0  0  3  0  0  0  0  0  0
  192.0230  176.1830  145.3720 C   0  0  0  0  0  3  0  0  0  0  0  0
  194.6400  175.5430  143.5690 S   0  0  0  0  0  0  0  0  0  0  0  0
  195.1180  176.2780  141.0770 N   0  0  0  0  0  1  0  0  0  0  0  0
  195.5420  176.2860  142.4450 C   0  0  2  0  0  3  0  0  0  0  0  0
  196.8960  176.6650  142.7710 N   0  0  0  0  0  0  0  0  0  0  0  0
  197.9360  175.6910  142.3240 C   0  0  1  0  0  3  0  0  0  0  0  0
  197.4560  175.6670  143.7000 C   0  0  0  0  0  2  0  0  0  0  0  0
  197.4230  174.4450  141.5990 C   0  0  0  0  0  2  0  0  0  0  0  0
  197.6750  173.2210  142.4550 C   0  0  0  0  0  1  0  0  0  0  0  0
  1 20  1  0  0  0  0
  2 14  1  0  0  0  0
  3 24  2  0  0  0  0
  3 11  1  0  0  0  0
  6 12  1  6  0  0  0
  6 10  1  0  0  0  0
  6  4  1  0  0  0  0
  7  1  1  0  0  0  0
  9  5  1  0  0  0  0
  9 19  2  0  0  0  0
 10 23  2  0  0  0  0
 10 21  1  0  0  0  0
 11  5  2  0  0  0  0
 13 14  2  0  0  0  0
 13 24  1  0  0  0  0
 14 26  1  0  0  0  0
 15 17  1  0  0  0  0
 16 19  1  0  0  0  0
 18  8  1  1  0  0  0
 18 12  1  0  0  0  0
 18 22  1  0  0  0  0
 20  3  1  0  0  0  0
 21 15  2  0  0  0  0
 22  7  1  6  0  0  0
 22  4  1  0  0  0  0
 23 17  1  0  0  0  0
 24  9  1  0  0  0  0
 25  2  1  0  0  0  0
 25 23  1  0  0  0  0
 25 27  1  1  0  0  0
 26 16  2  0  0  0  0
 29 28  1  6  0  0  0
 29 30  1  0  0  0  0
 29 27  1  0  0  0  0
 30 32  1  0  0  0  0
 31 33  1  6  0  0  0
 31 30  1  0  0  0  0
 31 32  1  0  0  0  0
 33 34  1  0  0  0  0
M  END
>  <MODEL>
4

>  <REMARK>
 VINA RESULT:      -7.2      2.331      3.391
  Name = 
  3 active torsions:
  status: ('A' for Active; 'I' for Inactive)
    1  A    between atoms: N_3  and  C_29
    2  A    between atoms: C_6  and  C_16
    3  A    between atoms: S_13  and  C_32
                            x       y       z     vdW  Elec       q    Type
                         _______ _______ _______ _____ _____    ______ ____

>  <TORSDO>
F 3

$$$$
=
 OpenBabel11042415503D

 34 39  0  0  1  0  0  0  0  0999 V2000
  193.1760  171.9740  143.2730 C   0  0  0  0  0  2  0  0  0  0  0  0
  189.5420  174.7130  145.9760 N   0  0  0  0  0  2  0  0  0  0  0  0
  194.0310  173.0370  145.3240 C   0  0  0  0  0  0  0  0  0  0  0  0
  191.0240  174.1070  142.6570 N   0  0  0  0  0  2  0  0  0  0  0  0
  195.3610  174.6880  145.8440 N   0  0  0  0  0  0  0  0  0  0  0  0
  189.6360  174.2550  143.0640 C   0  0  1  0  0  3  0  0  0  0  0  0
  191.6710  171.8090  143.1520 C   0  0  0  0  0  2  0  0  0  0  0  0
  189.6580  172.1400  140.3200 O   0  0  0  0  0  1  0  0  0  0  0  0
  194.1060  175.1190  146.0690 C   0  0  0  0  0  0  0  0  0  0  0  0
  189.2340  175.6970  143.1200 C   0  0  0  0  0  0  0  0  0  0  0  0
  195.3150  173.4430  145.3880 N   0  0  0  0  0  0  0  0  0  0  0  0
  188.8020  173.4510  142.1010 C   0  0  0  0  0  2  0  0  0  0  0  0
  191.8110  174.0090  145.7770 C   0  0  0  0  0  3  0  0  0  0  0  0
  190.9330  175.0370  146.0970 C   0  0  0  0  0  0  0  0  0  0  0  0
  188.9040  177.8590  142.2700 C   0  0  0  0  0  3  0  0  0  0  0  0
  192.5410  176.9390  146.6480 C   0  0  0  0  0  3  0  0  0  0  0  0
  188.4300  177.9160  143.8830 S   0  0  0  0  0  0  0  0  0  0  0  0
  189.7180  172.3210  141.7000 C   0  0  2  0  0  3  0  0  0  0  0  0
  193.8110  176.4060  146.4740 C   0  0  0  0  0  3  0  0  0  0  0  0
  193.6100  171.7400  144.7100 C   0  0  0  0  0  2  0  0  0  0  0  0
  189.3220  176.5560  142.0120 C   0  0  0  0  0  3  0  0  0  0  0  0
  191.1180  172.7600  142.1010 C   0  0  1  0  0  3  0  0  0  0  0  0
  188.7630  176.3150  144.2790 C   0  0  0  0  0  0  0  0  0  0  0  0
  193.1930  174.0470  145.7470 C   0  0  0  0  0  0  0  0  0  0  0  0
  188.4770  175.6440  145.6050 C   0  0  2  0  0  3  0  0  0  0  0  0
  191.2930  176.3390  146.4720 C   0  0  0  0  0  3  0  0  0  0  0  0
  188.1210  176.7980  146.9590 S   0  0  0  0  0  0  0  0  0  0  0  0
  185.6800  176.2250  146.1270 N   0  0  0  0  0  1  0  0  0  0  0  0
  186.5070  176.8560  147.1100 C   0  0  2  0  0  3  0  0  0  0  0  0
  185.9250  177.7960  148.0380 N   0  0  0  0  0  0  0  0  0  0  0  0
  185.3560  179.0220  147.4020 C   0  0  1  0  0  3  0  0  0  0  0  0
  186.6920  179.0540  147.9830 C   0  0  0  0  0  2  0  0  0  0  0  0
  185.4760  179.1070  145.8800 C   0  0  0  0  0  2  0  0  0  0  0  0
  184.0960  179.0400  145.2580 C   0  0  0  0  0  1  0  0  0  0  0  0
  1 20  1  0  0  0  0
  2 14  1  0  0  0  0
  3 11  2  0  0  0  0
  3 24  1  0  0  0  0
  4  6  1  0  0  0  0
  5  9  2  0  0  0  0
  6 12  1  6  0  0  0
  6 10  1  0  0  0  0
  7  1  1  0  0  0  0
  9 19  1  0  0  0  0
 10 23  2  0  0  0  0
 11  5  1  0  0  0  0
 13 14  1  0  0  0  0
 14 26  2  0  0  0  0
 15 17  1  0  0  0  0
 17 23  1  0  0  0  0
 18  8  1  6  0  0  0
 18 22  1  0  0  0  0
 18 12  1  0  0  0  0
 19 16  2  0  0  0  0
 20  3  1  0  0  0  0
 21 15  2  0  0  0  0
 21 10  1  0  0  0  0
 22  4  1  0  0  0  0
 22  7  1  1  0  0  0
 23 25  1  0  0  0  0
 24 13  2  0  0  0  0
 24  9  1  0  0  0  0
 25  2  1  0  0  0  0
 25 27  1  1  0  0  0
 26 16  1  0  0  0  0
 27 29  1  0  0  0  0
 29 28  1  6  0  0  0
 29 30  1  0  0  0  0
 31 33  1  6  0  0  0
 31 32  1  0  0  0  0
 31 30  1  0  0  0  0
 32 30  1  0  0  0  0
 34 33  1  0  0  0  0
M  END
>  <MODEL>
5

>  <REMARK>
 VINA RESULT:      -7.2      2.634      7.226
  Name = 
  3 active torsions:
  status: ('A' for Active; 'I' for Inactive)
    1  A    between atoms: N_3  and  C_29
    2  A    between atoms: C_6  and  C_16
    3  A    between atoms: S_13  and  C_32
                            x       y       z     vdW  Elec       q    Type
                         _______ _______ _______ _____ _____    ______ ____

>  <TORSDO>
F 3

$$$$
=
 OpenBabel11042415503D

 34 39  0  0  1  0  0  0  0  0999 V2000
  187.1350  177.7210  146.7370 C   0  0  0  0  0  2  0  0  0  0  0  0
  189.0920  174.0800  143.4300 N   0  0  0  0  0  2  0  0  0  0  0  0
  185.8080  177.4000  144.6860 C   0  0  0  0  0  0  0  0  0  0  0  0
  189.8760  177.0430  145.4770 N   0  0  0  0  0  2  0  0  0  0  0  0
  185.3710  178.5200  142.8640 N   0  0  0  0  0  0  0  0  0  0  0  0
  190.5980  175.7940  145.2990 C   0  0  1  0  0  3  0  0  0  0  0  0
  188.1150  176.6210  147.1080 C   0  0  0  0  0  2  0  0  0  0  0  0
  191.3020  176.9150  148.5000 O   0  0  0  0  0  1  0  0  0  0  0  0
  186.2450  177.5560  142.5230 C   0  0  0  0  0  0  0  0  0  0  0  0
  191.4770  175.8390  144.0860 C   0  0  0  0  0  0  0  0  0  0  0  0
  185.1160  178.4330  144.1630 N   0  0  0  0  0  0  0  0  0  0  0  0
  191.3670  175.5390  146.5700 C   0  0  0  0  0  2  0  0  0  0  0  0
  187.4170  175.7170  143.8760 C   0  0  0  0  0  3  0  0  0  0  0  0
  188.2580  175.1360  142.9360 C   0  0  0  0  0  0  0  0  0  0  0  0
  193.1880  176.6780  142.7160 C   0  0  0  0  0  3  0  0  0  0  0  0
  187.7340  176.5120  140.8520 C   0  0  0  0  0  3  0  0  0  0  0  0
  192.5390  175.3600  141.8970 S   0  0  0  0  0  0  0  0  0  0  0  0
  190.5030  176.1710  147.6350 C   0  0  2  0  0  3  0  0  0  0  0  0
  186.7720  177.4290  141.2530 C   0  0  0  0  0  3  0  0  0  0  0  0
  185.8710  177.1140  146.1520 C   0  0  0  0  0  2  0  0  0  0  0  0
  192.4840  176.8030  143.9110 C   0  0  0  0  0  3  0  0  0  0  0  0
  189.5450  177.0950  146.8980 C   0  0  1  0  0  3  0  0  0  0  0  0
  191.3570  174.9470  143.0200 C   0  0  0  0  0  0  0  0  0  0  0  0
  186.5530  176.7820  143.7040 C   0  0  0  0  0  0  0  0  0  0  0  0
  190.4320  173.7520  142.9470 C   0  0  2  0  0  3  0  0  0  0  0  0
  188.3830  175.5240  141.5940 C   0  0  0  0  0  3  0  0  0  0  0  0
  190.3600  172.9690  141.3120 S   0  0  0  0  0  0  0  0  0  0  0  0
  192.4660  171.7650  142.3570 N   0  0  0  0  0  1  0  0  0  0  0  0
  191.5190  171.8350  141.2860 C   0  0  2  0  0  3  0  0  0  0  0  0
  191.7770  171.1270  140.0540 N   0  0  0  0  0  0  0  0  0  0  0  0
  191.4010  169.6820  140.0800 C   0  0  1  0  0  3  0  0  0  0  0  0
  192.7840  170.0810  140.3110 C   0  0  0  0  0  2  0  0  0  0  0  0
  190.8090  169.1640  141.3920 C   0  0  0  0  0  2  0  0  0  0  0  0
  191.7710  168.1850  142.0310 C   0  0  0  0  0  1  0  0  0  0  0  0
  1  7  1  0  0  0  0
  3 20  1  0  0  0  0
  4 22  1  0  0  0  0
  5 11  2  0  0  0  0
  6  4  1  0  0  0  0
  6 12  1  1  0  0  0
  9  5  1  0  0  0  0
  9 24  1  0  0  0  0
 10  6  1  0  0  0  0
 11  3  1  0  0  0  0
 12 18  1  0  0  0  0
 14  2  1  0  0  0  0
 14 13  2  0  0  0  0
 15 21  2  0  0  0  0
 16 19  1  0  0  0  0
 16 26  2  0  0  0  0
 17 15  1  0  0  0  0
 17 23  1  0  0  0  0
 18  8  1  1  0  0  0
 19  9  2  0  0  0  0
 20  1  1  0  0  0  0
 21 10  1  0  0  0  0
 22  7  1  6  0  0  0
 22 18  1  0  0  0  0
 23 10  2  0  0  0  0
 24 13  1  0  0  0  0
 24  3  2  0  0  0  0
 25 27  1  6  0  0  0
 25 23  1  0  0  0  0
 25  2  1  0  0  0  0
 26 14  1  0  0  0  0
 29 27  1  0  0  0  0
 29 28  1  6  0  0  0
 30 31  1  0  0  0  0
 30 32  1  0  0  0  0
 30 29  1  0  0  0  0
 31 32  1  0  0  0  0
 31 33  1  1  0  0  0
 33 34  1  0  0  0  0
M  END
>  <MODEL>
6

>  <REMARK>
 VINA RESULT:      -7.1      3.177      5.681
  Name = 
  3 active torsions:
  status: ('A' for Active; 'I' for Inactive)
    1  A    between atoms: N_3  and  C_29
    2  A    between atoms: C_6  and  C_16
    3  A    between atoms: S_13  and  C_32
                            x       y       z     vdW  Elec       q    Type
                         _______ _______ _______ _____ _____    ______ ____

>  <TORSDO>
F 3

$$$$
=
 OpenBabel11042415503D

 34 39  0  0  1  0  0  0  0  0999 V2000
  197.1780  172.2190  145.1580 C   0  0  0  0  0  2  0  0  0  0  0  0
  192.0870  173.6450  144.9000 N   0  0  0  0  0  2  0  0  0  0  0  0
  196.8200  174.6020  144.6470 C   0  0  0  0  0  0  0  0  0  0  0  0
  194.6020  171.1900  143.7940 N   0  0  0  0  0  2  0  0  0  0  0  0
  197.0640  175.9320  142.9330 N   0  0  0  0  0  0  0  0  0  0  0  0
  193.2400  171.0050  144.2680 C   0  0  1  0  0  3  0  0  0  0  0  0
  196.0120  171.4570  145.7640 C   0  0  0  0  0  2  0  0  0  0  0  0
  195.0100  168.1670  145.1700 O   0  0  0  0  0  1  0  0  0  0  0  0
  195.7450  175.6960  143.0520 C   0  0  0  0  0  0  0  0  0  0  0  0
  192.2480  171.1660  143.1570 C   0  0  0  0  0  0  0  0  0  0  0  0
  197.7090  175.2690  143.8840 N   0  0  0  0  0  0  0  0  0  0  0  0
  193.1750  169.6480  144.9200 C   0  0  0  0  0  2  0  0  0  0  0  0
  194.3770  174.2730  144.6920 C   0  0  0  0  0  3  0  0  0  0  0  0
  193.0860  174.3910  144.1940 C   0  0  0  0  0  0  0  0  0  0  0  0
  191.2720  170.6870  141.0770 C   0  0  0  0  0  3  0  0  0  0  0  0
  193.4460  175.9120  142.1780 C   0  0  0  0  0  3  0  0  0  0  0  0
  190.3620  171.9360  141.7410 S   0  0  0  0  0  0  0  0  0  0  0  0
  194.5680  169.4540  145.4670 C   0  0  2  0  0  3  0  0  0  0  0  0
  194.8080  176.1810  142.1610 C   0  0  0  0  0  3  0  0  0  0  0  0
  197.2180  173.6330  145.7140 C   0  0  0  0  0  2  0  0  0  0  0  0
  192.2750  170.3810  141.9920 C   0  0  0  0  0  3  0  0  0  0  0  0
  195.4400  170.4750  144.7520 C   0  0  1  0  0  3  0  0  0  0  0  0
  191.2300  172.1200  143.1710 C   0  0  0  0  0  0  0  0  0  0  0  0
  195.5390  174.8250  144.1860 C   0  0  0  0  0  0  0  0  0  0  0  0
  190.8870  173.0530  144.3120 C   0  0  2  0  0  3  0  0  0  0  0  0
  192.7060  175.1230  143.0600 C   0  0  0  0  0  3  0  0  0  0  0  0
  189.6720  174.3310  143.8860 S   0  0  0  0  0  0  0  0  0  0  0  0
  189.7240  174.5410  146.5180 N   0  0  0  0  0  1  0  0  0  0  0  0
  189.2730  175.0770  145.2690 C   0  0  2  0  0  3  0  0  0  0  0  0
  188.2240  176.0670  145.2530 N   0  0  0  0  0  0  0  0  0  0  0  0
  188.7040  177.4750  145.1150 C   0  0  1  0  0  3  0  0  0  0  0  0
  188.3780  176.9410  146.4310 C   0  0  0  0  0  2  0  0  0  0  0  0
  190.2190  177.6630  145.0180 C   0  0  0  0  0  2  0  0  0  0  0  0
  190.5730  178.2370  143.6620 C   0  0  0  0  0  1  0  0  0  0  0  0
  1 20  1  0  0  0  0
  1  7  1  0  0  0  0
  3 20  1  0  0  0  0
  4  6  1  0  0  0  0
  4 22  1  0  0  0  0
  5  9  2  0  0  0  0
  5 11  1  0  0  0  0
  6 12  1  6  0  0  0
  9 24  1  0  0  0  0
 10 23  2  0  0  0  0
 10  6  1  0  0  0  0
 11  3  2  0  0  0  0
 12 18  1  0  0  0  0
 14 13  1  0  0  0  0
 14  2  1  0  0  0  0
 15 17  1  0  0  0  0
 15 21  2  0  0  0  0
 16 26  1  0  0  0  0
 17 23  1  0  0  0  0
 18  8  1  6  0  0  0
 19 16  2  0  0  0  0
 19  9  1  0  0  0  0
 21 10  1  0  0  0  0
 22 18  1  0  0  0  0
 22  7  1  1  0  0  0
 23 25  1  0  0  0  0
 24  3  1  0  0  0  0
 24 13  2  0  0  0  0
 25 27  1  6  0  0  0
 25  2  1  0  0  0  0
 26 14  2  0  0  0  0
 27 29  1  0  0  0  0
 29 28  1  1  0  0  0
 30 29  1  0  0  0  0
 30 32  1  0  0  0  0
 31 33  1  1  0  0  0
 31 30  1  0  0  0  0
 31 32  1  0  0  0  0
 34 33  1  0  0  0  0
M  END
>  <MODEL>
7

>  <REMARK>
 VINA RESULT:      -7.1      3.995      8.523
  Name = 
  3 active torsions:
  status: ('A' for Active; 'I' for Inactive)
    1  A    between atoms: N_3  and  C_29
    2  A    between atoms: C_6  and  C_16
    3  A    between atoms: S_13  and  C_32
                            x       y       z     vdW  Elec       q    Type
                         _______ _______ _______ _____ _____    ______ ____

>  <TORSDO>
F 3

$$$$
=
 OpenBabel11042415503D

 34 39  0  0  1  0  0  0  0  0999 V2000
  194.8510  173.3540  142.2070 C   0  0  0  0  0  2  0  0  0  0  0  0
  190.1740  175.8060  142.5810 N   0  0  0  0  0  2  0  0  0  0  0  0
  193.0140  172.2160  141.0240 C   0  0  0  0  0  0  0  0  0  0  0  0
  193.1040  174.5760  144.4470 N   0  0  0  0  0  2  0  0  0  0  0  0
  191.8410  170.3890  141.2580 N   0  0  0  0  0  0  0  0  0  0  0  0
  192.3660  175.8250  144.5530 C   0  0  1  0  0  3  0  0  0  0  0  0
  194.6410  174.8140  142.5700 C   0  0  0  0  0  2  0  0  0  0  0  0
  195.6410  176.5130  145.4510 O   0  0  0  0  0  1  0  0  0  0  0  0
  191.0480  171.4070  141.6370 C   0  0  0  0  0  0  0  0  0  0  0  0
  191.1720  175.6790  145.4450 C   0  0  0  0  0  0  0  0  0  0  0  0
  193.0230  170.8730  140.8990 N   0  0  0  0  0  0  0  0  0  0  0  0
  193.3340  176.8740  145.0370 C   0  0  0  0  0  2  0  0  0  0  0  0
  191.4230  173.9420  141.7760 C   0  0  0  0  0  3  0  0  0  0  0  0
  190.2360  174.3950  142.3370 C   0  0  0  0  0  0  0  0  0  0  0  0
  190.0420  175.1880  147.4420 C   0  0  0  0  0  3  0  0  0  0  0  0
  188.9350  172.2200  142.6250 C   0  0  0  0  0  3  0  0  0  0  0  0
  188.8580  175.6420  146.3380 S   0  0  0  0  0  0  0  0  0  0  0  0
  194.6570  176.4200  144.4700 C   0  0  2  0  0  3  0  0  0  0  0  0
  189.7760  171.2250  142.1420 C   0  0  0  0  0  3  0  0  0  0  0  0
  194.2330  173.0640  140.8500 C   0  0  0  0  0  2  0  0  0  0  0  0
  191.2660  175.2640  146.7840 C   0  0  0  0  0  3  0  0  0  0  0  0
  194.4610  174.9640  144.0740 C   0  0  1  0  0  3  0  0  0  0  0  0
  189.8640  175.9190  145.0190 C   0  0  0  0  0  0  0  0  0  0  0  0
  191.7860  172.6400  141.4860 C   0  0  0  0  0  0  0  0  0  0  0  0
  189.4430  176.4550  143.6680 C   0  0  2  0  0  3  0  0  0  0  0  0
  189.1480  173.5960  142.7160 C   0  0  0  0  0  3  0  0  0  0  0  0
  187.6540  176.3980  143.3730 S   0  0  0  0  0  0  0  0  0  0  0  0
  188.3790  178.3180  141.7110 N   0  0  0  0  0  1  0  0  0  0  0  0
  187.3450  177.4420  142.1710 C   0  0  2  0  0  3  0  0  0  0  0  0
  185.9730  177.6980  141.8030 N   0  0  0  0  0  0  0  0  0  0  0  0
  185.2920  178.7360  142.6350 C   0  0  1  0  0  3  0  0  0  0  0  0
  185.1010  177.3220  142.9310 C   0  0  0  0  0  2  0  0  0  0  0  0
  186.1340  179.3650  143.7460 C   0  0  0  0  0  2  0  0  0  0  0  0
  185.3760  179.2990  145.0560 C   0  0  0  0  0  1  0  0  0  0  0  0
  1  7  1  0  0  0  0
  2 25  1  0  0  0  0
  3 24  1  0  0  0  0
  4  6  1  0  0  0  0
  5  9  2  0  0  0  0
  6 12  1  1  0  0  0
  6 10  1  0  0  0  0
  9 19  1  0  0  0  0
 10 21  1  0  0  0  0
 11  3  2  0  0  0  0
 11  5  1  0  0  0  0
 13 14  1  0  0  0  0
 14  2  1  0  0  0  0
 14 26  2  0  0  0  0
 16 26  1  0  0  0  0
 17 15  1  0  0  0  0
 18 12  1  0  0  0  0
 18  8  1  1  0  0  0
 19 16  2  0  0  0  0
 20  3  1  0  0  0  0
 20  1  1  0  0  0  0
 21 15  2  0  0  0  0
 22  7  1  6  0  0  0
 22  4  1  0  0  0  0
 22 18  1  0  0  0  0
 23 10  2  0  0  0  0
 23 17  1  0  0  0  0
 24  9  1  0  0  0  0
 24 13  2  0  0  0  0
 25 27  1  6  0  0  0
 25 23  1  0  0  0  0
 29 28  1  1  0  0  0
 29 27  1  0  0  0  0
 30 29  1  0  0  0  0
 30 31  1  0  0  0  0
 30 32  1  0  0  0  0
 31 32  1  0  0  0  0
 31 33  1  1  0  0  0
 33 34  1  0  0  0  0
M  END
>  <MODEL>
8

>  <REMARK>
 VINA RESULT:      -6.8      3.200      7.957
  Name = 
  3 active torsions:
  status: ('A' for Active; 'I' for Inactive)
    1  A    between atoms: N_3  and  C_29
    2  A    between atoms: C_6  and  C_16
    3  A    between atoms: S_13  and  C_32
                            x       y       z     vdW  Elec       q    Type
                         _______ _______ _______ _____ _____    ______ ____

>  <TORSDO>
F 3

$$$$
=
 OpenBabel11042415503D

 34 39  0  0  1  0  0  0  0  0999 V2000
  194.8490  173.8900  142.1020 C   0  0  0  0  0  2  0  0  0  0  0  0
  189.9280  175.7530  142.6730 N   0  0  0  0  0  2  0  0  0  0  0  0
  193.1240  172.5550  140.9570 C   0  0  0  0  0  0  0  0  0  0  0  0
  193.0460  174.8580  144.4190 N   0  0  0  0  0  2  0  0  0  0  0  0
  192.1880  170.5970  141.1930 N   0  0  0  0  0  0  0  0  0  0  0  0
  192.1680  176.0060  144.5740 C   0  0  1  0  0  3  0  0  0  0  0  0
  194.4790  175.3080  142.4990 C   0  0  0  0  0  2  0  0  0  0  0  0
  195.3650  177.0710  145.3790 O   0  0  0  0  0  1  0  0  0  0  0  0
  191.2910  171.5060  141.6170 C   0  0  0  0  0  0  0  0  0  0  0  0
  191.0310  175.7040  145.5000 C   0  0  0  0  0  0  0  0  0  0  0  0
  193.2900  171.2260  140.8060 N   0  0  0  0  0  0  0  0  0  0  0  0
  193.0180  177.1570  145.0460 C   0  0  0  0  0  2  0  0  0  0  0  0
  191.3630  174.0650  141.7920 C   0  0  0  0  0  3  0  0  0  0  0  0
  190.1500  174.3630  142.4000 C   0  0  0  0  0  0  0  0  0  0  0  0
  190.0370  175.0500  147.5230 C   0  0  0  0  0  3  0  0  0  0  0  0
  189.1310  172.0430  142.6880 C   0  0  0  0  0  3  0  0  0  0  0  0
  188.7700  175.3740  146.4660 S   0  0  0  0  0  0  0  0  0  0  0  0
  194.3670  176.8750  144.4270 C   0  0  2  0  0  3  0  0  0  0  0  0
  190.0680  171.1640  142.1590 C   0  0  0  0  0  3  0  0  0  0  0  0
  194.2250  173.5480  140.7600 C   0  0  0  0  0  2  0  0  0  0  0  0
  191.2200  175.2830  146.8270 C   0  0  0  0  0  3  0  0  0  0  0  0
  194.3340  175.4120  144.0100 C   0  0  1  0  0  3  0  0  0  0  0  0
  189.6900  175.7900  145.1210 C   0  0  0  0  0  0  0  0  0  0  0  0
  191.8700  172.8210  141.4660 C   0  0  0  0  0  0  0  0  0  0  0  0
  189.1610  176.2920  143.7950 C   0  0  2  0  0  3  0  0  0  0  0  0
  189.1800  173.4330  142.7980 C   0  0  0  0  0  3  0  0  0  0  0  0
  187.3830  176.0230  143.5570 S   0  0  0  0  0  0  0  0  0  0  0  0
  187.3810  178.3630  144.7820 N   0  0  0  0  0  1  0  0  0  0  0  0
  186.6340  177.3610  144.0850 C   0  0  2  0  0  3  0  0  0  0  0  0
  185.1910  177.3830  144.1310 N   0  0  0  0  0  0  0  0  0  0  0  0
  184.5440  178.0410  142.9570 C   0  0  1  0  0  3  0  0  0  0  0  0
  184.7400  178.7850  144.1940 C   0  0  0  0  0  2  0  0  0  0  0  0
  185.4900  178.5940  141.8900 C   0  0  0  0  0  2  0  0  0  0  0  0
  184.9370  178.2900  140.5130 C   0  0  0  0  0  1  0  0  0  0  0  0
  1  7  1  0  0  0  0
  2 25  1  0  0  0  0
  3 24  1  0  0  0  0
  4  6  1  0  0  0  0
  5  9  2  0  0  0  0
  6 12  1  1  0  0  0
  6 10  1  0  0  0  0
  9 19  1  0  0  0  0
 10 21  1  0  0  0  0
 11  3  2  0  0  0  0
 11  5  1  0  0  0  0
 13 14  1  0  0  0  0
 14  2  1  0  0  0  0
 14 26  2  0  0  0  0
 16 26  1  0  0  0  0
 17 15  1  0  0  0  0
 18 12  1  0  0  0  0
 18  8  1  1  0  0  0
 19 16  2  0  0  0  0
 20  3  1  0  0  0  0
 20  1  1  0  0  0  0
 21 15  2  0  0  0  0
 22  7  1  6  0  0  0
 22  4  1  0  0  0  0
 22 18  1  0  0  0  0
 23 10  2  0  0  0  0
 23 17  1  0  0  0  0
 24  9  1  0  0  0  0
 24 13  2  0  0  0  0
 25 27  1  6  0  0  0
 25 23  1  0  0  0  0
 27 29  1  0  0  0  0
 29 30  1  0  0  0  0
 29 28  1  1  0  0  0
 30 32  1  0  0  0  0
 31 33  1  6  0  0  0
 31 30  1  0  0  0  0
 31 32  1  0  0  0  0
 34 33  1  0  0  0  0
M  END
>  <MODEL>
9

>  <REMARK>
 VINA RESULT:      -6.8      3.153      8.103
  Name = 
  3 active torsions:
  status: ('A' for Active; 'I' for Inactive)
    1  A    between atoms: N_3  and  C_29
    2  A    between atoms: C_6  and  C_16
    3  A    between atoms: S_13  and  C_32
                            x       y       z     vdW  Elec       q    Type
                         _______ _______ _______ _____ _____    ______ ____

>  <TORSDO>
F 3

$$$$
