=
 OpenBabel11042415363D

 39 41  0  0  1  0  0  0  0  0999 V2000
  190.8250  171.7320  144.1260 O   0  0  0  0  0  0  0  0  0  0  0  0
  191.1400  172.8830  143.7100 C   0  0  0  0  0  0  0  0  0  0  0  0
  189.6920  174.3380  146.0650 C   0  0  0  0  0  3  0  0  0  0  0  0
  191.7730  175.3480  146.5220 C   0  0  0  0  0  0  0  0  0  0  0  0
  193.1680  174.1220  144.4620 C   0  0  0  0  0  3  0  0  0  0  0  0
  190.8900  175.9060  147.5660 C   0  0  0  0  0  3  0  0  0  0  0  0
  193.1280  175.6340  146.3650 C   0  0  0  0  0  3  0  0  0  0  0  0
  193.8340  175.0140  145.3240 C   0  0  0  0  0  0  0  0  0  0  0  0
  191.7990  173.8360  144.6280 C   0  0  0  0  0  0  0  0  0  0  0  0
  191.1200  174.4750  145.6850 C   0  0  0  0  0  0  0  0  0  0  0  0
  189.5210  175.2860  147.2590 C   0  0  0  0  0  2  0  0  0  0  0  0
  196.0490  174.5350  146.0230 O   0  0  0  0  0  1  0  0  0  0  0  0
  195.2860  175.3140  145.1480 C   0  0  1  0  0  3  0  0  0  0  0  0
  195.7160  175.0740  143.7070 C   0  0  0  0  0  2  0  0  0  0  0  0
  196.7400  177.2170  143.8790 O   0  0  0  0  0  0  0  0  0  0  0  0
  196.2930  176.3160  143.1190 C   0  0  0  0  0  0  0  0  0  0  0  0
  196.3710  176.4440  141.7300 O   0  0  0  0  0  0  0  0  0  0  0  0
  195.2520  176.2300  140.8810 C   0  0  0  0  0  2  0  0  0  0  0  0
  195.5740  175.1650  139.8480 C   0  0  0  0  0  2  0  0  0  0  0  0
  193.3120  174.6270  140.6880 C   0  0  0  0  0  1  0  0  0  0  0  0
  194.4110  174.2030  139.7380 C   0  0  0  0  0  2  0  0  0  0  0  0
  190.8460  173.2510  142.3930 O   0  0  0  0  0  0  0  0  0  0  0  0
  189.5570  173.0670  141.8220 C   0  0  0  0  0  2  0  0  0  0  0  0
  188.9960  174.3990  141.3550 C   0  0  0  0  0  2  0  0  0  0  0  0
  188.5610  175.2300  142.5490 C   0  0  0  0  0  2  0  0  0  0  0  0
  189.1520  176.5640  142.4770 N   0  0  0  0  0  2  0  0  0  0  0  0
  188.6540  177.4130  143.5660 C   0  0  1  0  0  3  0  0  0  0  0  0
  187.4800  176.7680  144.2950 C   0  0  2  0  0  3  0  0  0  0  0  0
  185.0420  177.4270  142.0230 O   0  0  0  0  0  0  0  0  0  0  0  0
  186.2390  177.5440  144.0110 N   0  0  0  0  0  0  0  0  0  0  0  0
  187.0090  177.6030  145.2890 C   0  0  1  0  0  3  0  0  0  0  0  0
  185.1550  177.9320  143.1710 C   0  0  0  0  0  0  0  0  0  0  0  0
  184.4810  179.7930  144.4750 O   0  0  0  0  0  0  0  0  0  0  0  0
  184.1680  178.9100  143.6330 C   0  0  0  0  0  3  0  0  0  0  0  0
  186.2730  176.8000  146.3460 C   0  0  0  0  0  2  0  0  0  0  0  0
  185.6900  178.9200  147.5150 C   0  0  0  0  0  1  0  0  0  0  0  0
  186.2900  177.5360  147.6730 C   0  0  0  0  0  2  0  0  0  0  0  0
  191.1080  177.7970  143.8430 C   0  0  0  0  0  1  0  0  0  0  0  0
  189.7610  177.8070  144.5400 C   0  0  0  0  0  2  0  0  0  0  0  0
  2  1  2  0  0  0  0
  2  9  1  0  0  0  0
  3 11  1  0  0  0  0
  4  6  2  0  0  0  0
  5  9  2  0  0  0  0
  5  8  1  0  0  0  0
  7  4  1  0  0  0  0
  8  7  2  0  0  0  0
  9 10  1  0  0  0  0
 10  3  2  0  0  0  0
 10  4  1  0  0  0  0
 11  6  1  0  0  0  0
 13  8  1  0  0  0  0
 13 12  1  1  0  0  0
 14 13  1  0  0  0  0
 16 14  1  0  0  0  0
 16 15  2  0  0  0  0
 17 16  1  0  0  0  0
 18 17  1  0  0  0  0
 19 18  1  0  0  0  0
 21 19  1  0  0  0  0
 21 20  1  0  0  0  0
 22  2  1  0  0  0  0
 23 22  1  0  0  0  0
 24 23  1  0  0  0  0
 24 25  1  0  0  0  0
 26 25  1  0  0  0  0
 26 27  1  0  0  0  0
 27 39  1  1  0  0  0
 28 27  1  6  0  0  0
 28 31  1  0  0  0  0
 29 32  2  0  0  0  0
 30 28  1  0  0  0  0
 30 31  1  0  0  0  0
 31 35  1  1  0  0  0
 32 34  1  0  0  0  0
 32 30  1  0  0  0  0
 34 33  2  0  0  0  0
 35 37  1  0  0  0  0
 36 37  1  0  0  0  0
 38 39  1  0  0  0  0
M  END
>  <MODEL>
1

>  <REMARK>
 VINA RESULT:      -6.0      0.000      0.000
  Name = 
  19 active torsions:
  status: ('A' for Active; 'I' for Inactive)
    1  A    between atoms: C_1  and  C_24
    2  A    between atoms: C_4  and  C_30
    3  A    between atoms: C_4  and  C_37
    4  A    between atoms: C_5  and  C_15
    5  A    between atoms: C_5  and  C_36
    6  A    between atoms: C_8  and  O_14
    7  A    between atoms: C_8  and  C_28
    8  A    between atoms: O_10  and  C_36
    9  A    between atoms: O_10  and  C_38
   10  A    between atoms: O_14  and  C_37
   11  A    between atoms: C_15  and  N_23
   12  A    between atoms: C_21  and  C_30
   13  A    between atoms: C_22  and  C_31
   14  A    between atoms: N_23  and  C_24
   15  A    between atoms: C_24  and  C_35
   16  A    between atoms: C_25  and  C_39
   17  A    between atoms: C_26  and  C_38
   18  A    between atoms: C_28  and  C_32
   19  A    between atoms: C_29  and  C_31
                            x       y       z     vdW  Elec       q    Type
                         _______ _______ _______ _____ _____    ______ ____

>  <TORSDO>
F 19

$$$$
=
 OpenBabel11042415363D

 39 41  0  0  1  0  0  0  0  0999 V2000
  191.0070  171.5870  143.7970 O   0  0  0  0  0  0  0  0  0  0  0  0
  191.0650  172.8250  143.5530 C   0  0  0  0  0  0  0  0  0  0  0  0
  189.5200  173.9080  146.0440 C   0  0  0  0  0  3  0  0  0  0  0  0
  191.5070  175.0540  146.5890 C   0  0  0  0  0  0  0  0  0  0  0  0
  192.9810  174.1660  144.4150 C   0  0  0  0  0  3  0  0  0  0  0  0
  190.5890  175.4250  147.6860 C   0  0  0  0  0  3  0  0  0  0  0  0
  192.8280  175.4760  146.4560 C   0  0  0  0  0  3  0  0  0  0  0  0
  193.5740  175.0280  145.3590 C   0  0  0  0  0  0  0  0  0  0  0  0
  191.6460  173.7420  144.5570 C   0  0  0  0  0  0  0  0  0  0  0  0
  190.9240  174.2100  145.6740 C   0  0  0  0  0  0  0  0  0  0  0  0
  189.2780  174.7160  147.3240 C   0  0  0  0  0  2  0  0  0  0  0  0
  195.1540  176.7540  145.7430 O   0  0  0  0  0  1  0  0  0  0  0  0
  194.9910  175.4740  145.2070 C   0  0  1  0  0  3  0  0  0  0  0  0
  195.9410  174.4900  145.8760 C   0  0  0  0  0  2  0  0  0  0  0  0
  197.5080  174.9720  144.1490 O   0  0  0  0  0  0  0  0  0  0  0  0
  197.0450  174.1130  144.9470 C   0  0  0  0  0  0  0  0  0  0  0  0
  197.5810  172.8250  145.0070 O   0  0  0  0  0  0  0  0  0  0  0  0
  196.7990  171.6620  144.7700 C   0  0  0  0  0  2  0  0  0  0  0  0
  196.7590  170.7950  146.0160 C   0  0  0  0  0  2  0  0  0  0  0  0
  194.3470  171.0730  145.5460 C   0  0  0  0  0  1  0  0  0  0  0  0
  195.3930  170.1540  146.1390 C   0  0  0  0  0  2  0  0  0  0  0  0
  190.5620  173.3200  142.3450 O   0  0  0  0  0  0  0  0  0  0  0  0
  189.6580  172.5780  141.5370 C   0  0  0  0  0  2  0  0  0  0  0  0
  188.2690  173.1900  141.6060 C   0  0  0  0  0  2  0  0  0  0  0  0
  188.3180  174.5130  142.3500 C   0  0  0  0  0  2  0  0  0  0  0  0
  187.4130  175.4760  141.7260 N   0  0  0  0  0  2  0  0  0  0  0  0
  186.7900  176.3350  142.7390 C   0  0  1  0  0  3  0  0  0  0  0  0
  187.6280  176.4110  144.0110 C   0  0  2  0  0  3  0  0  0  0  0  0
  185.1020  176.5370  146.2810 O   0  0  0  0  0  0  0  0  0  0  0  0
  186.9180  177.2510  145.0180 N   0  0  0  0  0  0  0  0  0  0  0  0
  188.0920  177.6960  144.2100 C   0  0  1  0  0  3  0  0  0  0  0  0
  185.9020  177.4660  145.9950 C   0  0  0  0  0  0  0  0  0  0  0  0
  184.9790  178.9120  147.6300 O   0  0  0  0  0  0  0  0  0  0  0  0
  185.7860  178.7570  146.6760 C   0  0  0  0  0  3  0  0  0  0  0  0
  189.3300  177.6790  145.0880 C   0  0  0  0  0  2  0  0  0  0  0  0
  190.3140  178.0790  142.8350 C   0  0  0  0  0  1  0  0  0  0  0  0
  190.5790  177.5560  144.2340 C   0  0  0  0  0  2  0  0  0  0  0  0
  186.1520  177.6610  140.7190 C   0  0  0  0  0  1  0  0  0  0  0  0
  186.4790  177.7290  142.1980 C   0  0  0  0  0  2  0  0  0  0  0  0
  2  1  2  0  0  0  0
  2  9  1  0  0  0  0
  3 11  1  0  0  0  0
  4  6  2  0  0  0  0
  5  9  2  0  0  0  0
  5  8  1  0  0  0  0
  7  4  1  0  0  0  0
  8  7  2  0  0  0  0
  9 10  1  0  0  0  0
 10  3  2  0  0  0  0
 10  4  1  0  0  0  0
 11  6  1  0  0  0  0
 13  8  1  0  0  0  0
 13 12  1  1  0  0  0
 13 14  1  0  0  0  0
 15 16  2  0  0  0  0
 16 17  1  0  0  0  0
 16 14  1  0  0  0  0
 18 17  1  0  0  0  0
 18 19  1  0  0  0  0
 19 21  1  0  0  0  0
 20 21  1  0  0  0  0
 22  2  1  0  0  0  0
 23 24  1  0  0  0  0
 23 22  1  0  0  0  0
 24 25  1  0  0  0  0
 26 25  1  0  0  0  0
 26 27  1  0  0  0  0
 27 39  1  6  0  0  0
 28 27  1  6  0  0  0
 28 31  1  0  0  0  0
 28 30  1  0  0  0  0
 30 32  1  0  0  0  0
 31 30  1  0  0  0  0
 31 35  1  1  0  0  0
 32 29  2  0  0  0  0
 32 34  1  0  0  0  0
 34 33  2  0  0  0  0
 36 37  1  0  0  0  0
 37 35  1  0  0  0  0
 38 39  1  0  0  0  0
M  END
>  <MODEL>
2

>  <REMARK>
 VINA RESULT:      -6.0      2.128      3.395
  Name = 
  19 active torsions:
  status: ('A' for Active; 'I' for Inactive)
    1  A    between atoms: C_1  and  C_24
    2  A    between atoms: C_4  and  C_30
    3  A    between atoms: C_4  and  C_37
    4  A    between atoms: C_5  and  C_15
    5  A    between atoms: C_5  and  C_36
    6  A    between atoms: C_8  and  O_14
    7  A    between atoms: C_8  and  C_28
    8  A    between atoms: O_10  and  C_36
    9  A    between atoms: O_10  and  C_38
   10  A    between atoms: O_14  and  C_37
   11  A    between atoms: C_15  and  N_23
   12  A    between atoms: C_21  and  C_30
   13  A    between atoms: C_22  and  C_31
   14  A    between atoms: N_23  and  C_24
   15  A    between atoms: C_24  and  C_35
   16  A    between atoms: C_25  and  C_39
   17  A    between atoms: C_26  and  C_38
   18  A    between atoms: C_28  and  C_32
   19  A    between atoms: C_29  and  C_31
                            x       y       z     vdW  Elec       q    Type
                         _______ _______ _______ _____ _____    ______ ____

>  <TORSDO>
F 19

$$$$
=
 OpenBabel11042415363D

 39 41  0  0  1  0  0  0  0  0999 V2000
  191.9910  171.4570  143.6880 O   0  0  0  0  0  0  0  0  0  0  0  0
  191.2490  172.4530  143.9190 C   0  0  0  0  0  0  0  0  0  0  0  0
  189.5720  173.8720  146.1400 C   0  0  0  0  0  3  0  0  0  0  0  0
  191.4840  175.1940  146.5290 C   0  0  0  0  0  0  0  0  0  0  0  0
  193.0720  174.0180  144.5830 C   0  0  0  0  0  3  0  0  0  0  0  0
  190.5130  175.7040  147.5190 C   0  0  0  0  0  3  0  0  0  0  0  0
  192.7880  175.6540  146.3590 C   0  0  0  0  0  3  0  0  0  0  0  0
  193.5910  175.0600  145.3770 C   0  0  0  0  0  0  0  0  0  0  0  0
  191.7530  173.5580  144.7630 C   0  0  0  0  0  0  0  0  0  0  0  0
  190.9730  174.1760  145.7600 C   0  0  0  0  0  0  0  0  0  0  0  0
  189.2490  174.8770  147.2530 C   0  0  0  0  0  2  0  0  0  0  0  0
  195.1340  176.8280  145.7190 O   0  0  0  0  0  1  0  0  0  0  0  0
  194.9920  175.5440  145.1870 C   0  0  1  0  0  3  0  0  0  0  0  0
  195.9860  174.5860  145.8280 C   0  0  0  0  0  2  0  0  0  0  0  0
  197.3620  174.9490  143.9180 O   0  0  0  0  0  0  0  0  0  0  0  0
  197.0150  174.1590  144.8380 C   0  0  0  0  0  0  0  0  0  0  0  0
  197.6160  172.9050  144.9720 O   0  0  0  0  0  0  0  0  0  0  0  0
  196.9670  171.7040  144.5780 C   0  0  0  0  0  2  0  0  0  0  0  0
  197.2780  170.5930  145.5660 C   0  0  0  0  0  2  0  0  0  0  0  0
  194.8400  170.9720  145.7240 C   0  0  0  0  0  1  0  0  0  0  0  0
  195.9980  170.1460  146.2400 C   0  0  0  0  0  2  0  0  0  0  0  0
  189.9540  172.4930  143.3920 O   0  0  0  0  0  0  0  0  0  0  0  0
  189.7040  172.5940  141.9960 C   0  0  0  0  0  2  0  0  0  0  0  0
  190.2900  173.8870  141.4520 C   0  0  0  0  0  2  0  0  0  0  0  0
  189.4240  175.0650  141.8600 C   0  0  0  0  0  2  0  0  0  0  0  0
  190.0680  175.8150  142.9360 N   0  0  0  0  0  2  0  0  0  0  0  0
  189.2210  176.9320  143.3710 C   0  0  1  0  0  3  0  0  0  0  0  0
  187.9120  176.4440  143.9830 C   0  0  2  0  0  3  0  0  0  0  0  0
  185.8100  177.3200  141.4620 O   0  0  0  0  0  0  0  0  0  0  0  0
  186.8040  177.3490  143.5610 N   0  0  0  0  0  0  0  0  0  0  0  0
  187.4420  177.3520  144.9110 C   0  0  1  0  0  3  0  0  0  0  0  0
  185.8650  177.8380  142.6080 C   0  0  0  0  0  0  0  0  0  0  0  0
  185.2970  179.8160  143.7830 O   0  0  0  0  0  0  0  0  0  0  0  0
  184.9560  178.9330  142.9510 C   0  0  0  0  0  3  0  0  0  0  0  0
  186.5150  176.6670  145.8970 C   0  0  0  0  0  2  0  0  0  0  0  0
  186.2530  178.0960  147.9210 C   0  0  0  0  0  1  0  0  0  0  0  0
  185.6370  177.6900  146.5950 C   0  0  0  0  0  2  0  0  0  0  0  0
  191.3920  178.0640  143.8690 C   0  0  0  0  0  1  0  0  0  0  0  0
  189.9570  177.8760  144.3180 C   0  0  0  0  0  2  0  0  0  0  0  0
  1  2  2  0  0  0  0
  2  9  1  0  0  0  0
  3 11  1  0  0  0  0
  4  6  2  0  0  0  0
  5  9  2  0  0  0  0
  5  8  1  0  0  0  0
  7  4  1  0  0  0  0
  8  7  2  0  0  0  0
  9 10  1  0  0  0  0
 10  3  2  0  0  0  0
 10  4  1  0  0  0  0
 11  6  1  0  0  0  0
 13  8  1  0  0  0  0
 13 12  1  1  0  0  0
 13 14  1  0  0  0  0
 15 16  2  0  0  0  0
 16 17  1  0  0  0  0
 16 14  1  0  0  0  0
 18 17  1  0  0  0  0
 18 19  1  0  0  0  0
 19 21  1  0  0  0  0
 20 21  1  0  0  0  0
 22  2  1  0  0  0  0
 23 22  1  0  0  0  0
 24 25  1  0  0  0  0
 24 23  1  0  0  0  0
 25 26  1  0  0  0  0
 26 27  1  0  0  0  0
 27 39  1  1  0  0  0
 28 27  1  6  0  0  0
 28 31  1  0  0  0  0
 29 32  2  0  0  0  0
 30 28  1  0  0  0  0
 30 31  1  0  0  0  0
 31 35  1  1  0  0  0
 32 34  1  0  0  0  0
 32 30  1  0  0  0  0
 34 33  2  0  0  0  0
 35 37  1  0  0  0  0
 37 36  1  0  0  0  0
 38 39  1  0  0  0  0
M  END
>  <MODEL>
3

>  <REMARK>
 VINA RESULT:      -5.8      1.784      2.607
  Name = 
  19 active torsions:
  status: ('A' for Active; 'I' for Inactive)
    1  A    between atoms: C_1  and  C_24
    2  A    between atoms: C_4  and  C_30
    3  A    between atoms: C_4  and  C_37
    4  A    between atoms: C_5  and  C_15
    5  A    between atoms: C_5  and  C_36
    6  A    between atoms: C_8  and  O_14
    7  A    between atoms: C_8  and  C_28
    8  A    between atoms: O_10  and  C_36
    9  A    between atoms: O_10  and  C_38
   10  A    between atoms: O_14  and  C_37
   11  A    between atoms: C_15  and  N_23
   12  A    between atoms: C_21  and  C_30
   13  A    between atoms: C_22  and  C_31
   14  A    between atoms: N_23  and  C_24
   15  A    between atoms: C_24  and  C_35
   16  A    between atoms: C_25  and  C_39
   17  A    between atoms: C_26  and  C_38
   18  A    between atoms: C_28  and  C_32
   19  A    between atoms: C_29  and  C_31
                            x       y       z     vdW  Elec       q    Type
                         _______ _______ _______ _____ _____    ______ ____

>  <TORSDO>
F 19

$$$$
=
 OpenBabel11042415363D

 39 41  0  0  1  0  0  0  0  0999 V2000
  188.9550  174.6140  147.1090 O   0  0  0  0  0  0  0  0  0  0  0  0
  189.4750  175.3780  146.2470 C   0  0  0  0  0  0  0  0  0  0  0  0
  190.4320  172.8810  144.6310 C   0  0  0  0  0  3  0  0  0  0  0  0
  189.3420  173.8490  142.7790 C   0  0  0  0  0  0  0  0  0  0  0  0
  188.4390  176.1130  144.1020 C   0  0  0  0  0  3  0  0  0  0  0  0
  189.8890  172.5920  142.2300 C   0  0  0  0  0  3  0  0  0  0  0  0
  188.5960  174.7890  142.0700 C   0  0  0  0  0  2  0  0  0  0  0  0
  188.1390  175.9330  142.7380 C   0  0  0  0  0  0  0  0  0  0  0  0
  189.1920  175.1580  144.8120 C   0  0  0  0  0  0  0  0  0  0  0  0
  189.6350  174.0180  144.1110 C   0  0  0  0  0  0  0  0  0  0  0  0
  190.6340  171.9670  143.4160 C   0  0  0  0  0  3  0  0  0  0  0  0
  187.4390  176.7180  140.6130 O   0  0  0  0  0  1  0  0  0  0  0  0
  187.3370  176.9460  141.9880 C   0  0  1  0  0  3  0  0  0  0  0  0
  185.8810  176.9150  142.4280 C   0  0  0  0  0  2  0  0  0  0  0  0
  186.1160  179.2410  142.8840 O   0  0  0  0  0  0  0  0  0  0  0  0
  185.5310  178.1610  143.1690 C   0  0  0  0  0  0  0  0  0  0  0  0
  184.5270  178.1220  144.1390 O   0  0  0  0  0  0  0  0  0  0  0  0
  184.5700  178.9220  145.3130 C   0  0  0  0  0  2  0  0  0  0  0  0
  184.2280  178.0840  146.5310 C   0  0  0  0  0  2  0  0  0  0  0  0
  186.5950  177.5330  146.9860 C   0  0  0  0  0  1  0  0  0  0  0  0
  185.2320  176.9590  146.6660 C   0  0  0  0  0  2  0  0  0  0  0  0
  190.3260  176.4100  146.6550 O   0  0  0  0  0  0  0  0  0  0  0  0
  190.9510  176.4190  147.9320 C   0  0  0  0  0  2  0  0  0  0  0  0
  192.3980  176.8650  147.8030 C   0  0  0  0  0  2  0  0  0  0  0  0
  193.1010  176.0550  146.7280 C   0  0  0  0  0  2  0  0  0  0  0  0
  194.0880  176.8830  146.0390 N   0  0  0  0  0  2  0  0  0  0  0  0
  194.1420  176.5460  144.6110 C   0  0  1  0  0  3  0  0  0  0  0  0
  195.3560  175.6850  144.2790 C   0  0  2  0  0  3  0  0  0  0  0  0
  196.0900  176.9910  141.2290 O   0  0  0  0  0  0  0  0  0  0  0  0
  195.3940  175.4350  142.8090 N   0  0  0  0  0  0  0  0  0  0  0  0
  194.9600  174.4390  143.8330 C   0  0  1  0  0  3  0  0  0  0  0  0
  195.6470  175.8360  141.4650 C   0  0  0  0  0  0  0  0  0  0  0  0
  196.0320  175.0280  139.2700 O   0  0  0  0  0  0  0  0  0  0  0  0
  195.4010  174.9140  140.3550 C   0  0  0  0  0  3  0  0  0  0  0  0
  196.0710  173.4280  144.0400 C   0  0  0  0  0  2  0  0  0  0  0  0
  194.2140  172.4810  145.4030 C   0  0  0  0  0  1  0  0  0  0  0  0
  195.7110  172.4710  145.1630 C   0  0  0  0  0  2  0  0  0  0  0  0
  192.0980  176.8310  143.2020 C   0  0  0  0  0  1  0  0  0  0  0  0
  192.8510  175.8930  144.1250 C   0  0  0  0  0  2  0  0  0  0  0  0
  2 22  1  0  0  0  0
  2  1  2  0  0  0  0
  4 10  1  0  0  0  0
  5  9  1  0  0  0  0
  6  4  2  0  0  0  0
  6 11  1  0  0  0  0
  7  8  1  0  0  0  0
  7  4  1  0  0  0  0
  8  5  2  0  0  0  0
  9  2  1  0  0  0  0
 10  3  1  0  0  0  0
 10  9  2  0  0  0  0
 11  3  2  0  0  0  0
 13 12  1  6  0  0  0
 13 14  1  0  0  0  0
 13  8  1  0  0  0  0
 14 16  1  0  0  0  0
 15 16  2  0  0  0  0
 16 17  1  0  0  0  0
 17 18  1  0  0  0  0
 18 19  1  0  0  0  0
 19 21  1  0  0  0  0
 21 20  1  0  0  0  0
 22 23  1  0  0  0  0
 24 23  1  0  0  0  0
 25 24  1  0  0  0  0
 26 25  1  0  0  0  0
 27 39  1  1  0  0  0
 27 26  1  0  0  0  0
 28 27  1  6  0  0  0
 29 32  2  0  0  0  0
 30 31  1  0  0  0  0
 30 28  1  0  0  0  0
 31 35  1  1  0  0  0
 31 28  1  0  0  0  0
 32 30  1  0  0  0  0
 33 34  2  0  0  0  0
 34 32  1  0  0  0  0
 35 37  1  0  0  0  0
 37 36  1  0  0  0  0
 38 39  1  0  0  0  0
M  END
>  <MODEL>
4

>  <REMARK>
 VINA RESULT:      -5.7      2.531      8.618
  Name = 
  19 active torsions:
  status: ('A' for Active; 'I' for Inactive)
    1  A    between atoms: C_1  and  C_24
    2  A    between atoms: C_4  and  C_30
    3  A    between atoms: C_4  and  C_37
    4  A    between atoms: C_5  and  C_15
    5  A    between atoms: C_5  and  C_36
    6  A    between atoms: C_8  and  O_14
    7  A    between atoms: C_8  and  C_28
    8  A    between atoms: O_10  and  C_36
    9  A    between atoms: O_10  and  C_38
   10  A    between atoms: O_14  and  C_37
   11  A    between atoms: C_15  and  N_23
   12  A    between atoms: C_21  and  C_30
   13  A    between atoms: C_22  and  C_31
   14  A    between atoms: N_23  and  C_24
   15  A    between atoms: C_24  and  C_35
   16  A    between atoms: C_25  and  C_39
   17  A    between atoms: C_26  and  C_38
   18  A    between atoms: C_28  and  C_32
   19  A    between atoms: C_29  and  C_31
                            x       y       z     vdW  Elec       q    Type
                         _______ _______ _______ _____ _____    ______ ____

>  <TORSDO>
F 19

$$$$
=
 OpenBabel11042415363D

 39 41  0  0  1  0  0  0  0  0999 V2000
  189.6500  172.5020  142.5310 O   0  0  0  0  0  0  0  0  0  0  0  0
  190.0630  173.6950  142.4670 C   0  0  0  0  0  0  0  0  0  0  0  0
  189.9720  174.0140  145.5740 C   0  0  0  0  0  3  0  0  0  0  0  0
  188.6070  175.8970  145.1900 C   0  0  0  0  0  0  0  0  0  0  0  0
  188.6060  175.7160  142.4230 C   0  0  0  0  0  3  0  0  0  0  0  0
  188.7160  175.8520  146.6620 C   0  0  0  0  0  3  0  0  0  0  0  0
  187.8990  176.8450  144.4560 C   0  0  0  0  0  3  0  0  0  0  0  0
  187.8980  176.7560  143.0580 C   0  0  0  0  0  0  0  0  0  0  0  0
  189.3210  174.7620  143.1720 C   0  0  0  0  0  0  0  0  0  0  0  0
  189.3020  174.8830  144.5760 C   0  0  0  0  0  0  0  0  0  0  0  0
  189.5730  174.6080  146.9300 C   0  0  0  0  0  2  0  0  0  0  0  0
  187.7150  177.9110  140.9950 O   0  0  0  0  0  1  0  0  0  0  0  0
  187.1420  177.7690  142.2610 C   0  0  1  0  0  3  0  0  0  0  0  0
  185.6760  177.3780  142.1440 C   0  0  0  0  0  2  0  0  0  0  0  0
  183.5500  178.3370  142.6270 O   0  0  0  0  0  0  0  0  0  0  0  0
  184.8030  178.4360  142.7270 C   0  0  0  0  0  0  0  0  0  0  0  0
  185.3860  179.5010  143.4180 O   0  0  0  0  0  0  0  0  0  0  0  0
  185.4540  179.5440  144.8360 C   0  0  0  0  0  2  0  0  0  0  0  0
  184.2080  178.9210  145.4390 C   0  0  0  0  0  2  0  0  0  0  0  0
  185.0460  176.8250  146.4460 C   0  0  0  0  0  1  0  0  0  0  0  0
  184.5670  178.2300  146.7370 C   0  0  0  0  0  2  0  0  0  0  0  0
  191.2040  173.9970  141.7170 O   0  0  0  0  0  0  0  0  0  0  0  0
  192.4850  174.1550  142.3120 C   0  0  0  0  0  2  0  0  0  0  0  0
  193.1460  175.4250  141.8020 C   0  0  0  0  0  2  0  0  0  0  0  0
  194.5850  175.1440  141.4110 C   0  0  0  0  0  2  0  0  0  0  0  0
  195.2500  174.3700  142.4560 N   0  0  0  0  0  2  0  0  0  0  0  0
  196.2640  175.1820  143.1390 C   0  0  1  0  0  3  0  0  0  0  0  0
  196.0750  175.1690  144.6520 C   0  0  2  0  0  3  0  0  0  0  0  0
  196.7290  171.8850  145.2230 O   0  0  0  0  0  0  0  0  0  0  0  0
  195.5060  173.8540  145.0660 N   0  0  0  0  0  0  0  0  0  0  0  0
  194.7320  175.1280  144.9720 C   0  0  1  0  0  3  0  0  0  0  0  0
  195.6150  172.4590  145.3380 C   0  0  0  0  0  0  0  0  0  0  0  0
  194.5330  170.4570  146.0000 O   0  0  0  0  0  0  0  0  0  0  0  0
  194.4420  171.6890  145.7560 C   0  0  0  0  0  3  0  0  0  0  0  0
  194.5070  175.6720  146.3710 C   0  0  0  0  0  2  0  0  0  0  0  0
  192.4780  176.6550  145.3130 C   0  0  0  0  0  1  0  0  0  0  0  0
  193.0440  176.0240  146.5700 C   0  0  0  0  0  2  0  0  0  0  0  0
  197.6880  173.3710  142.1680 C   0  0  0  0  0  1  0  0  0  0  0  0
  197.6830  174.7690  142.7560 C   0  0  0  0  0  2  0  0  0  0  0  0
  2  1  2  0  0  0  0
  2  9  1  0  0  0  0
  3 11  1  0  0  0  0
  4  6  2  0  0  0  0
  5  8  1  0  0  0  0
  5  9  2  0  0  0  0
  6 11  1  0  0  0  0
  7  4  1  0  0  0  0
  8  7  2  0  0  0  0
  9 10  1  0  0  0  0
 10  4  1  0  0  0  0
 10  3  2  0  0  0  0
 13 12  1  6  0  0  0
 13  8  1  0  0  0  0
 14 13  1  0  0  0  0
 14 16  1  0  0  0  0
 15 16  2  0  0  0  0
 16 17  1  0  0  0  0
 17 18  1  0  0  0  0
 18 19  1  0  0  0  0
 19 21  1  0  0  0  0
 20 21  1  0  0  0  0
 22 23  1  0  0  0  0
 22  2  1  0  0  0  0
 24 23  1  0  0  0  0
 25 24  1  0  0  0  0
 25 26  1  0  0  0  0
 26 27  1  0  0  0  0
 27 39  1  1  0  0  0
 28 27  1  6  0  0  0
 28 31  1  0  0  0  0
 28 30  1  0  0  0  0
 29 32  2  0  0  0  0
 30 32  1  0  0  0  0
 31 30  1  0  0  0  0
 31 35  1  1  0  0  0
 32 34  1  0  0  0  0
 34 33  2  0  0  0  0
 35 37  1  0  0  0  0
 36 37  1  0  0  0  0
 38 39  1  0  0  0  0
M  END
>  <MODEL>
5

>  <REMARK>
 VINA RESULT:      -5.6      2.674      8.557
  Name = 
  19 active torsions:
  status: ('A' for Active; 'I' for Inactive)
    1  A    between atoms: C_1  and  C_24
    2  A    between atoms: C_4  and  C_30
    3  A    between atoms: C_4  and  C_37
    4  A    between atoms: C_5  and  C_15
    5  A    between atoms: C_5  and  C_36
    6  A    between atoms: C_8  and  O_14
    7  A    between atoms: C_8  and  C_28
    8  A    between atoms: O_10  and  C_36
    9  A    between atoms: O_10  and  C_38
   10  A    between atoms: O_14  and  C_37
   11  A    between atoms: C_15  and  N_23
   12  A    between atoms: C_21  and  C_30
   13  A    between atoms: C_22  and  C_31
   14  A    between atoms: N_23  and  C_24
   15  A    between atoms: C_24  and  C_35
   16  A    between atoms: C_25  and  C_39
   17  A    between atoms: C_26  and  C_38
   18  A    between atoms: C_28  and  C_32
   19  A    between atoms: C_29  and  C_31
                            x       y       z     vdW  Elec       q    Type
                         _______ _______ _______ _____ _____    ______ ____

>  <TORSDO>
F 19

$$$$
=
 OpenBabel11042415363D

 39 41  0  0  1  0  0  0  0  0999 V2000
  188.3700  172.1410  142.8220 O   0  0  0  0  0  0  0  0  0  0  0  0
  189.0630  173.1260  142.4400 C   0  0  0  0  0  0  0  0  0  0  0  0
  190.2320  173.9400  145.2210 C   0  0  0  0  0  3  0  0  0  0  0  0
  189.2040  176.0320  144.8730 C   0  0  0  0  0  0  0  0  0  0  0  0
  188.1080  175.4280  142.3980 C   0  0  0  0  0  3  0  0  0  0  0  0
  189.8580  176.1910  146.1870 C   0  0  0  0  0  3  0  0  0  0  0  0
  188.4600  177.0080  144.2120 C   0  0  0  0  0  3  0  0  0  0  0  0
  187.9070  176.7040  142.9610 C   0  0  0  0  0  0  0  0  0  0  0  0
  188.8630  174.4490  143.0710 C   0  0  0  0  0  0  0  0  0  0  0  0
  189.4070  174.7880  144.3260 C   0  0  0  0  0  0  0  0  0  0  0  0
  190.5020  174.8230  146.4450 C   0  0  0  0  0  2  0  0  0  0  0  0
  187.5810  177.8970  140.9370 O   0  0  0  0  0  1  0  0  0  0  0  0
  187.1080  177.7430  142.2430 C   0  0  1  0  0  3  0  0  0  0  0  0
  185.6300  177.3790  142.2370 C   0  0  0  0  0  2  0  0  0  0  0  0
  183.5740  178.4400  142.8000 O   0  0  0  0  0  0  0  0  0  0  0  0
  184.8290  178.4320  142.9230 C   0  0  0  0  0  0  0  0  0  0  0  0
  185.4770  179.3710  143.7290 O   0  0  0  0  0  0  0  0  0  0  0  0
  185.6710  179.1730  145.1230 C   0  0  0  0  0  2  0  0  0  0  0  0
  184.6640  178.1690  145.6550 C   0  0  0  0  0  2  0  0  0  0  0  0
  186.1490  177.0070  147.2540 C   0  0  0  0  0  1  0  0  0  0  0  0
  185.3690  176.8660  145.9650 C   0  0  0  0  0  2  0  0  0  0  0  0
  189.9980  172.9620  141.4120 O   0  0  0  0  0  0  0  0  0  0  0  0
  190.7890  171.7880  141.2860 C   0  0  0  0  0  2  0  0  0  0  0  0
  192.0580  171.9210  142.1100 C   0  0  0  0  0  2  0  0  0  0  0  0
  193.2430  172.2070  141.2040 C   0  0  0  0  0  2  0  0  0  0  0  0
  193.6980  173.5830  141.3890 N   0  0  0  0  0  2  0  0  0  0  0  0
  193.1540  174.1480  142.6300 C   0  0  1  0  0  3  0  0  0  0  0  0
  194.2570  174.5110  143.6180 C   0  0  2  0  0  3  0  0  0  0  0  0
  196.4930  172.0870  142.8040 O   0  0  0  0  0  0  0  0  0  0  0  0
  194.9420  173.2660  144.0690 N   0  0  0  0  0  0  0  0  0  0  0  0
  193.9530  174.0380  144.8790 C   0  0  1  0  0  3  0  0  0  0  0  0
  195.8420  172.1780  143.8770 C   0  0  0  0  0  0  0  0  0  0  0  0
  195.2250  171.0960  145.8940 O   0  0  0  0  0  0  0  0  0  0  0  0
  196.0230  171.1680  144.9220 C   0  0  0  0  0  3  0  0  0  0  0  0
  194.6950  174.8360  145.9340 C   0  0  0  0  0  2  0  0  0  0  0  0
  194.5940  177.3250  145.9990 C   0  0  0  0  0  1  0  0  0  0  0  0
  193.8730  176.0400  146.3600 C   0  0  0  0  0  2  0  0  0  0  0  0
  192.9070  176.6300  142.7860 C   0  0  0  0  0  1  0  0  0  0  0  0
  192.2350  175.3380  142.3640 C   0  0  0  0  0  2  0  0  0  0  0  0
  2  1  2  0  0  0  0
  2  9  1  0  0  0  0
  3 11  1  0  0  0  0
  4  6  2  0  0  0  0
  5  8  1  0  0  0  0
  5  9  2  0  0  0  0
  6 11  1  0  0  0  0
  7  4  1  0  0  0  0
  8  7  2  0  0  0  0
  9 10  1  0  0  0  0
 10  4  1  0  0  0  0
 10  3  2  0  0  0  0
 13 12  1  6  0  0  0
 13  8  1  0  0  0  0
 14 13  1  0  0  0  0
 14 16  1  0  0  0  0
 15 16  2  0  0  0  0
 16 17  1  0  0  0  0
 17 18  1  0  0  0  0
 18 19  1  0  0  0  0
 19 21  1  0  0  0  0
 21 20  1  0  0  0  0
 22  2  1  0  0  0  0
 23 22  1  0  0  0  0
 23 24  1  0  0  0  0
 25 26  1  0  0  0  0
 25 24  1  0  0  0  0
 26 27  1  0  0  0  0
 27 39  1  6  0  0  0
 28 27  1  6  0  0  0
 28 30  1  0  0  0  0
 28 31  1  0  0  0  0
 29 32  2  0  0  0  0
 30 31  1  0  0  0  0
 31 35  1  1  0  0  0
 32 30  1  0  0  0  0
 32 34  1  0  0  0  0
 34 33  2  0  0  0  0
 35 37  1  0  0  0  0
 36 37  1  0  0  0  0
 39 38  1  0  0  0  0
M  END
>  <MODEL>
6

>  <REMARK>
 VINA RESULT:      -5.5      2.647      8.274
  Name = 
  19 active torsions:
  status: ('A' for Active; 'I' for Inactive)
    1  A    between atoms: C_1  and  C_24
    2  A    between atoms: C_4  and  C_30
    3  A    between atoms: C_4  and  C_37
    4  A    between atoms: C_5  and  C_15
    5  A    between atoms: C_5  and  C_36
    6  A    between atoms: C_8  and  O_14
    7  A    between atoms: C_8  and  C_28
    8  A    between atoms: O_10  and  C_36
    9  A    between atoms: O_10  and  C_38
   10  A    between atoms: O_14  and  C_37
   11  A    between atoms: C_15  and  N_23
   12  A    between atoms: C_21  and  C_30
   13  A    between atoms: C_22  and  C_31
   14  A    between atoms: N_23  and  C_24
   15  A    between atoms: C_24  and  C_35
   16  A    between atoms: C_25  and  C_39
   17  A    between atoms: C_26  and  C_38
   18  A    between atoms: C_28  and  C_32
   19  A    between atoms: C_29  and  C_31
                            x       y       z     vdW  Elec       q    Type
                         _______ _______ _______ _____ _____    ______ ____

>  <TORSDO>
F 19

$$$$
=
 OpenBabel11042415363D

 39 41  0  0  1  0  0  0  0  0999 V2000
  194.6050  177.4290  146.2120 O   0  0  0  0  0  0  0  0  0  0  0  0
  193.7740  176.5290  145.9030 C   0  0  0  0  0  0  0  0  0  0  0  0
  195.9290  174.2780  146.1270 C   0  0  0  0  0  3  0  0  0  0  0  0
  195.3380  173.6990  143.9200 C   0  0  0  0  0  0  0  0  0  0  0  0
  193.4040  175.6600  143.5960 C   0  0  0  0  0  3  0  0  0  0  0  0
  196.3870  172.7160  144.2580 C   0  0  0  0  0  3  0  0  0  0  0  0
  194.6530  173.7730  142.7090 C   0  0  0  0  0  3  0  0  0  0  0  0
  193.6750  174.7630  142.5440 C   0  0  0  0  0  0  0  0  0  0  0  0
  194.0980  175.5780  144.8180 C   0  0  0  0  0  0  0  0  0  0  0  0
  195.0740  174.5690  144.9510 C   0  0  0  0  0  0  0  0  0  0  0  0
  196.8090  173.1040  145.6810 C   0  0  0  0  0  2  0  0  0  0  0  0
  193.8210  175.1170  140.2040 O   0  0  0  0  0  1  0  0  0  0  0  0
  192.9340  174.8500  141.2500 C   0  0  1  0  0  3  0  0  0  0  0  0
  192.1630  173.5660  140.9820 C   0  0  0  0  0  2  0  0  0  0  0  0
  189.8860  173.9790  140.4170 O   0  0  0  0  0  0  0  0  0  0  0  0
  190.7230  173.7370  141.3290 C   0  0  0  0  0  0  0  0  0  0  0  0
  190.3150  173.5820  142.6560 O   0  0  0  0  0  0  0  0  0  0  0  0
  189.6520  172.4130  143.1180 C   0  0  0  0  0  2  0  0  0  0  0  0
  190.1570  172.0360  144.4990 C   0  0  0  0  0  2  0  0  0  0  0  0
  192.4820  171.2270  144.2680 C   0  0  0  0  0  1  0  0  0  0  0  0
  191.6170  172.4170  144.6230 C   0  0  0  0  0  2  0  0  0  0  0  0
  192.5500  176.4530  146.5740 O   0  0  0  0  0  0  0  0  0  0  0  0
  191.9720  175.2140  146.9630 C   0  0  0  0  0  2  0  0  0  0  0  0
  190.7090  175.4560  147.7710 C   0  0  0  0  0  2  0  0  0  0  0  0
  189.4830  175.1740  146.9210 C   0  0  0  0  0  2  0  0  0  0  0  0
  189.7980  175.3560  145.5060 N   0  0  0  0  0  2  0  0  0  0  0  0
  189.0340  176.4750  144.9430 C   0  0  1  0  0  3  0  0  0  0  0  0
  187.5720  176.4360  145.3750 C   0  0  2  0  0  3  0  0  0  0  0  0
  186.1260  176.7720  142.3190 O   0  0  0  0  0  0  0  0  0  0  0  0
  186.7720  177.3230  144.4820 N   0  0  0  0  0  0  0  0  0  0  0  0
  187.1820  177.6620  145.8770 C   0  0  1  0  0  3  0  0  0  0  0  0
  186.1200  177.6200  143.2490 C   0  0  0  0  0  0  0  0  0  0  0  0
  185.2480  179.6810  144.0290 O   0  0  0  0  0  0  0  0  0  0  0  0
  185.4380  178.9010  143.0580 C   0  0  0  0  0  3  0  0  0  0  0  0
  185.9870  177.4990  146.7970 C   0  0  0  0  0  2  0  0  0  0  0  0
  187.0750  179.0580  148.4060 C   0  0  0  0  0  1  0  0  0  0  0  0
  185.8010  178.7440  147.6460 C   0  0  0  0  0  2  0  0  0  0  0  0
  190.5650  178.2720  144.1240 C   0  0  0  0  0  1  0  0  0  0  0  0
  189.6710  177.8250  145.2640 C   0  0  0  0  0  2  0  0  0  0  0  0
  2  1  2  0  0  0  0
  2 22  1  0  0  0  0
  4  6  2  0  0  0  0
  4 10  1  0  0  0  0
  5  9  2  0  0  0  0
  6 11  1  0  0  0  0
  7  4  1  0  0  0  0
  8  7  2  0  0  0  0
  8  5  1  0  0  0  0
  9 10  1  0  0  0  0
  9  2  1  0  0  0  0
 10  3  2  0  0  0  0
 11  3  1  0  0  0  0
 13 12  1  6  0  0  0
 13  8  1  0  0  0  0
 14 13  1  0  0  0  0
 14 16  1  0  0  0  0
 15 16  2  0  0  0  0
 16 17  1  0  0  0  0
 17 18  1  0  0  0  0
 18 19  1  0  0  0  0
 19 21  1  0  0  0  0
 20 21  1  0  0  0  0
 22 23  1  0  0  0  0
 23 24  1  0  0  0  0
 25 24  1  0  0  0  0
 26 25  1  0  0  0  0
 27 39  1  1  0  0  0
 27 26  1  0  0  0  0
 28 27  1  6  0  0  0
 28 31  1  0  0  0  0
 29 32  2  0  0  0  0
 30 28  1  0  0  0  0
 30 31  1  0  0  0  0
 31 35  1  1  0  0  0
 32 30  1  0  0  0  0
 34 32  1  0  0  0  0
 34 33  2  0  0  0  0
 35 37  1  0  0  0  0
 37 36  1  0  0  0  0
 38 39  1  0  0  0  0
M  END
>  <MODEL>
7

>  <REMARK>
 VINA RESULT:      -5.5      1.755      4.735
  Name = 
  19 active torsions:
  status: ('A' for Active; 'I' for Inactive)
    1  A    between atoms: C_1  and  C_24
    2  A    between atoms: C_4  and  C_30
    3  A    between atoms: C_4  and  C_37
    4  A    between atoms: C_5  and  C_15
    5  A    between atoms: C_5  and  C_36
    6  A    between atoms: C_8  and  O_14
    7  A    between atoms: C_8  and  C_28
    8  A    between atoms: O_10  and  C_36
    9  A    between atoms: O_10  and  C_38
   10  A    between atoms: O_14  and  C_37
   11  A    between atoms: C_15  and  N_23
   12  A    between atoms: C_21  and  C_30
   13  A    between atoms: C_22  and  C_31
   14  A    between atoms: N_23  and  C_24
   15  A    between atoms: C_24  and  C_35
   16  A    between atoms: C_25  and  C_39
   17  A    between atoms: C_26  and  C_38
   18  A    between atoms: C_28  and  C_32
   19  A    between atoms: C_29  and  C_31
                            x       y       z     vdW  Elec       q    Type
                         _______ _______ _______ _____ _____    ______ ____

>  <TORSDO>
F 19

$$$$
=
 OpenBabel11042415363D

 39 41  0  0  1  0  0  0  0  0999 V2000
  190.5130  178.0030  142.6440 O   0  0  0  0  0  0  0  0  0  0  0  0
  190.4770  176.8430  143.1430 C   0  0  0  0  0  0  0  0  0  0  0  0
  191.9100  175.7760  145.7070 C   0  0  0  0  0  3  0  0  0  0  0  0
  189.8190  175.9730  146.7760 C   0  0  0  0  0  0  0  0  0  0  0  0
  188.4340  176.9220  144.5680 C   0  0  0  0  0  3  0  0  0  0  0  0
  190.7010  175.4690  147.8480 C   0  0  0  0  0  3  0  0  0  0  0  0
  188.4620  176.2630  146.9080 C   0  0  0  0  0  3  0  0  0  0  0  0
  187.7620  176.7440  145.7930 C   0  0  0  0  0  0  0  0  0  0  0  0
  189.8050  176.6290  144.4430 C   0  0  0  0  0  0  0  0  0  0  0  0
  190.4800  176.1490  145.5840 C   0  0  0  0  0  0  0  0  0  0  0  0
  192.0590  175.3000  147.1570 C   0  0  0  0  0  2  0  0  0  0  0  0
  185.8480  176.6950  147.1930 O   0  0  0  0  0  1  0  0  0  0  0  0
  186.3070  177.0590  145.9250 C   0  0  1  0  0  3  0  0  0  0  0  0
  186.0500  178.5370  145.6660 C   0  0  0  0  0  2  0  0  0  0  0  0
  183.7270  178.7470  146.1470 O   0  0  0  0  0  0  0  0  0  0  0  0
  184.6310  178.7600  145.2680 C   0  0  0  0  0  0  0  0  0  0  0  0
  184.3280  179.0260  143.9300 O   0  0  0  0  0  0  0  0  0  0  0  0
  185.2990  178.9330  142.8960 C   0  0  0  0  0  2  0  0  0  0  0  0
  184.8900  177.8750  141.8870 C   0  0  0  0  0  2  0  0  0  0  0  0
  187.2650  177.8790  141.2000 C   0  0  0  0  0  1  0  0  0  0  0  0
  185.8350  177.9150  140.7060 C   0  0  0  0  0  2  0  0  0  0  0  0
  191.0890  175.7780  142.4740 O   0  0  0  0  0  0  0  0  0  0  0  0
  190.4920  174.4900  142.3910 C   0  0  0  0  0  2  0  0  0  0  0  0
  190.8190  173.8470  141.0540 C   0  0  0  0  0  2  0  0  0  0  0  0
  191.8680  172.7650  141.2360 C   0  0  0  0  0  2  0  0  0  0  0  0
  193.1830  173.3680  141.4410 N   0  0  0  0  0  2  0  0  0  0  0  0
  193.8450  172.7840  142.6150 C   0  0  1  0  0  3  0  0  0  0  0  0
  194.1480  173.8370  143.6760 C   0  0  2  0  0  3  0  0  0  0  0  0
  194.3610  176.5570  141.6520 O   0  0  0  0  0  0  0  0  0  0  0  0
  195.0500  174.8730  143.0960 N   0  0  0  0  0  0  0  0  0  0  0  0
  195.4800  173.7940  144.0350 C   0  0  1  0  0  3  0  0  0  0  0  0
  195.3070  176.0120  142.2790 C   0  0  0  0  0  0  0  0  0  0  0  0
  197.1940  177.1610  143.1350 O   0  0  0  0  0  0  0  0  0  0  0  0
  196.6600  176.5580  142.1660 C   0  0  0  0  0  3  0  0  0  0  0  0
  195.6730  174.3890  145.4170 C   0  0  0  0  0  2  0  0  0  0  0  0
  196.7430  172.1920  145.8980 C   0  0  0  0  0  1  0  0  0  0  0  0
  196.8090  173.6880  146.1400 C   0  0  0  0  0  2  0  0  0  0  0  0
  192.6610  171.9140  144.6360 C   0  0  0  0  0  1  0  0  0  0  0  0
  193.0510  171.6200  143.2010 C   0  0  0  0  0  2  0  0  0  0  0  0
  1  2  2  0  0  0  0
  2  9  1  0  0  0  0
  3 11  1  0  0  0  0
  4  7  1  0  0  0  0
  4  6  2  0  0  0  0
  5  8  1  0  0  0  0
  8 13  1  0  0  0  0
  8  7  2  0  0  0  0
  9  5  2  0  0  0  0
  9 10  1  0  0  0  0
 10  3  2  0  0  0  0
 10  4  1  0  0  0  0
 11  6  1  0  0  0  0
 13 12  1  1  0  0  0
 14 13  1  0  0  0  0
 16 14  1  0  0  0  0
 16 15  2  0  0  0  0
 17 16  1  0  0  0  0
 18 17  1  0  0  0  0
 19 18  1  0  0  0  0
 21 20  1  0  0  0  0
 21 19  1  0  0  0  0
 22  2  1  0  0  0  0
 23 22  1  0  0  0  0
 24 25  1  0  0  0  0
 24 23  1  0  0  0  0
 25 26  1  0  0  0  0
 26 27  1  0  0  0  0
 27 39  1  1  0  0  0
 28 27  1  6  0  0  0
 28 31  1  0  0  0  0
 29 32  2  0  0  0  0
 30 28  1  0  0  0  0
 30 31  1  0  0  0  0
 31 35  1  1  0  0  0
 32 30  1  0  0  0  0
 34 32  1  0  0  0  0
 34 33  2  0  0  0  0
 35 37  1  0  0  0  0
 36 37  1  0  0  0  0
 39 38  1  0  0  0  0
M  END
>  <MODEL>
8

>  <REMARK>
 VINA RESULT:      -5.4      2.443      8.299
  Name = 
  19 active torsions:
  status: ('A' for Active; 'I' for Inactive)
    1  A    between atoms: C_1  and  C_24
    2  A    between atoms: C_4  and  C_30
    3  A    between atoms: C_4  and  C_37
    4  A    between atoms: C_5  and  C_15
    5  A    between atoms: C_5  and  C_36
    6  A    between atoms: C_8  and  O_14
    7  A    between atoms: C_8  and  C_28
    8  A    between atoms: O_10  and  C_36
    9  A    between atoms: O_10  and  C_38
   10  A    between atoms: O_14  and  C_37
   11  A    between atoms: C_15  and  N_23
   12  A    between atoms: C_21  and  C_30
   13  A    between atoms: C_22  and  C_31
   14  A    between atoms: N_23  and  C_24
   15  A    between atoms: C_24  and  C_35
   16  A    between atoms: C_25  and  C_39
   17  A    between atoms: C_26  and  C_38
   18  A    between atoms: C_28  and  C_32
   19  A    between atoms: C_29  and  C_31
                            x       y       z     vdW  Elec       q    Type
                         _______ _______ _______ _____ _____    ______ ____

>  <TORSDO>
F 19

$$$$
=
 OpenBabel11042415363D

 39 41  0  0  1  0  0  0  0  0999 V2000
  191.0640  178.6700  143.3380 O   0  0  0  0  0  0  0  0  0  0  0  0
  190.6290  177.5470  143.7200 C   0  0  0  0  0  0  0  0  0  0  0  0
  189.9300  174.5520  143.1690 C   0  0  0  0  0  3  0  0  0  0  0  0
  187.7820  175.3180  142.5750 C   0  0  0  0  0  0  0  0  0  0  0  0
  188.2810  178.0090  143.0230 C   0  0  0  0  0  3  0  0  0  0  0  0
  187.6820  173.8560  142.3920 C   0  0  0  0  0  3  0  0  0  0  0  0
  186.7570  176.2370  142.3560 C   0  0  0  0  0  2  0  0  0  0  0  0
  187.0080  177.5970  142.5830 C   0  0  0  0  0  0  0  0  0  0  0  0
  189.3100  177.0750  143.2440 C   0  0  0  0  0  0  0  0  0  0  0  0
  189.0240  175.7150  143.0080 C   0  0  0  0  0  0  0  0  0  0  0  0
  189.0860  173.3460  142.7390 C   0  0  0  0  0  3  0  0  0  0  0  0
  185.5260  178.5750  141.0100 O   0  0  0  0  0  1  0  0  0  0  0  0
  185.9160  178.5900  142.3520 C   0  0  1  0  0  3  0  0  0  0  0  0
  184.7260  178.3030  143.2570 C   0  0  0  0  0  2  0  0  0  0  0  0
  185.1620  180.4130  144.2700 O   0  0  0  0  0  0  0  0  0  0  0  0
  184.7050  179.2460  144.4110 C   0  0  0  0  0  0  0  0  0  0  0  0
  184.1390  178.8370  145.6200 O   0  0  0  0  0  0  0  0  0  0  0  0
  184.9080  178.6680  146.8030 C   0  0  0  0  0  2  0  0  0  0  0  0
  186.3200  178.2330  146.4520 C   0  0  0  0  0  2  0  0  0  0  0  0
  187.7080  176.1890  146.5250 C   0  0  0  0  0  1  0  0  0  0  0  0
  186.3380  176.7420  146.1960 C   0  0  0  0  0  2  0  0  0  0  0  0
  191.3870  176.7700  144.6020 O   0  0  0  0  0  0  0  0  0  0  0  0
  191.1900  176.8090  146.0090 C   0  0  0  0  0  2  0  0  0  0  0  0
  191.3950  175.4260  146.6040 C   0  0  0  0  0  2  0  0  0  0  0  0
  192.8760  175.0950  146.6600 C   0  0  0  0  0  2  0  0  0  0  0  0
  193.1780  173.9840  145.7590 N   0  0  0  0  0  2  0  0  0  0  0  0
  194.0790  174.4170  144.6850 C   0  0  1  0  0  3  0  0  0  0  0  0
  195.5420  174.3510  145.1110 C   0  0  2  0  0  3  0  0  0  0  0  0
  196.6570  177.1550  143.5520 O   0  0  0  0  0  0  0  0  0  0  0  0
  196.3980  174.8940  144.0180 N   0  0  0  0  0  0  0  0  0  0  0  0
  196.2330  173.4440  144.3330 C   0  0  1  0  0  3  0  0  0  0  0  0
  196.9480  175.9670  143.2570 C   0  0  0  0  0  0  0  0  0  0  0  0
  197.4350  175.1370  141.0910 O   0  0  0  0  0  0  0  0  0  0  0  0
  197.8530  175.6980  142.1390 C   0  0  0  0  0  3  0  0  0  0  0  0
  197.4680  172.9550  145.0660 C   0  0  0  0  0  2  0  0  0  0  0  0
  196.6830  170.6080  144.7780 C   0  0  0  0  0  1  0  0  0  0  0  0
  197.1780  171.6420  145.7710 C   0  0  0  0  0  2  0  0  0  0  0  0
  192.9170  172.4680  143.6390 C   0  0  0  0  0  1  0  0  0  0  0  0
  193.8440  173.6410  143.3910 C   0  0  0  0  0  2  0  0  0  0  0  0
  1  2  2  0  0  0  0
  2 22  1  0  0  0  0
  4 10  1  0  0  0  0
  5  9  1  0  0  0  0
  6  4  2  0  0  0  0
  6 11  1  0  0  0  0
  7  4  1  0  0  0  0
  7  8  1  0  0  0  0
  8  5  2  0  0  0  0
  9  2  1  0  0  0  0
 10  3  1  0  0  0  0
 10  9  2  0  0  0  0
 11  3  2  0  0  0  0
 13 12  1  6  0  0  0
 13  8  1  0  0  0  0
 13 14  1  0  0  0  0
 14 16  1  0  0  0  0
 15 16  2  0  0  0  0
 16 17  1  0  0  0  0
 17 18  1  0  0  0  0
 19 18  1  0  0  0  0
 21 19  1  0  0  0  0
 21 20  1  0  0  0  0
 22 23  1  0  0  0  0
 23 24  1  0  0  0  0
 24 25  1  0  0  0  0
 26 25  1  0  0  0  0
 27 39  1  6  0  0  0
 27 26  1  0  0  0  0
 28 27  1  6  0  0  0
 30 31  1  0  0  0  0
 30 28  1  0  0  0  0
 31 35  1  1  0  0  0
 31 28  1  0  0  0  0
 32 29  2  0  0  0  0
 32 30  1  0  0  0  0
 33 34  2  0  0  0  0
 34 32  1  0  0  0  0
 35 37  1  0  0  0  0
 36 37  1  0  0  0  0
 39 38  1  0  0  0  0
M  END
>  <MODEL>
9

>  <REMARK>
 VINA RESULT:      -5.4      2.511      9.349
  Name = 
  19 active torsions:
  status: ('A' for Active; 'I' for Inactive)
    1  A    between atoms: C_1  and  C_24
    2  A    between atoms: C_4  and  C_30
    3  A    between atoms: C_4  and  C_37
    4  A    between atoms: C_5  and  C_15
    5  A    between atoms: C_5  and  C_36
    6  A    between atoms: C_8  and  O_14
    7  A    between atoms: C_8  and  C_28
    8  A    between atoms: O_10  and  C_36
    9  A    between atoms: O_10  and  C_38
   10  A    between atoms: O_14  and  C_37
   11  A    between atoms: C_15  and  N_23
   12  A    between atoms: C_21  and  C_30
   13  A    between atoms: C_22  and  C_31
   14  A    between atoms: N_23  and  C_24
   15  A    between atoms: C_24  and  C_35
   16  A    between atoms: C_25  and  C_39
   17  A    between atoms: C_26  and  C_38
   18  A    between atoms: C_28  and  C_32
   19  A    between atoms: C_29  and  C_31
                            x       y       z     vdW  Elec       q    Type
                         _______ _______ _______ _____ _____    ______ ____

>  <TORSDO>
F 19

$$$$
