=
 OpenBabel11042414493D

 28 31  0  0  1  0  0  0  0  0999 V2000
  192.0670  176.7810  145.2080 C   0  0  0  0  0  0  0  0  0  0  0  0
  188.5890  177.5250  144.0900 N   0  0  0  0  0  0  0  0  0  0  0  0
  187.3820  177.7010  144.5390 C   0  0  0  0  0  0  0  0  0  0  0  0
  184.7450  177.9520  146.8790 O   0  0  0  0  0  0  0  0  0  0  0  0
  191.8780  176.6830  146.5520 N   0  0  0  0  0  0  0  0  0  0  0  0
  188.2000  177.3130  146.9750 C   0  0  0  0  0  2  0  0  0  0  0  0
  189.5420  177.1320  146.3280 C   0  0  0  0  0  0  0  0  0  0  0  0
  185.8920  177.7850  146.4470 C   0  0  0  0  0  0  0  0  0  0  0  0
  190.9710  177.0630  144.3770 C   0  0  0  0  0  3  0  0  0  0  0  0
  189.7070  177.2380  144.9380 C   0  0  0  0  0  0  0  0  0  0  0  0
  190.6540  176.8500  147.1220 C   0  0  0  0  0  3  0  0  0  0  0  0
  186.3190  177.9840  143.6250 N   0  0  0  0  0  0  0  0  0  0  0  0
  187.1030  177.6090  145.9920 C   0  0  0  0  0  0  0  0  0  0  0  0
  184.1070  178.2450  141.6790 N   0  0  0  0  0  0  0  0  0  0  0  0
  185.7970  178.2710  140.0670 O   0  0  0  0  0  0  0  0  0  0  0  0
  183.7570  178.1860  142.9870 O   0  0  0  0  0  1  0  0  0  0  0  0
  186.5480  178.0780  142.2460 N   0  0  0  0  0  0  0  0  0  0  0  0
  185.4920  178.2010  141.2880 C   0  0  0  0  0  0  0  0  0  0  0  0
  183.0760  178.3600  140.6470 C   0  0  0  0  0  2  0  0  0  0  0  0
  179.3740  179.1380  141.6060 N   0  0  0  0  0  0  0  0  0  0  0  0
  180.7370  179.1780  140.9610 C   0  0  1  0  0  0  0  0  0  0  0  0
  180.5350  179.4360  142.4030 C   0  0  0  0  0  2  0  0  0  0  0  0
  179.0040  177.8830  141.9750 O   0  0  0  0  0  1  0  0  0  0  0  0
  181.6960  177.9880  141.1690 C   0  0  1  0  0  3  0  0  0  0  0  0
  180.7470  177.9290  140.0470 C   0  0  0  0  0  2  0  0  0  0  0  0
  193.3520  176.5980  144.6890 O   0  0  0  0  0  0  0  0  0  0  0  0
  195.1290  175.2460  145.8760 N   0  0  0  0  0  0  0  0  0  0  0  0
  194.3160  175.8640  145.3320 C   0  0  0  0  0  0  0  0  0  0  0  0
  1  5  2  0  0  0  0
  2  3  2  0  0  0  0
  2 10  1  0  0  0  0
  3 13  1  0  0  0  0
  5 11  1  0  0  0  0
  7  6  1  0  0  0  0
  7 11  2  0  0  0  0
  8  4  2  0  0  0  0
  9 10  2  0  0  0  0
  9  1  1  0  0  0  0
 10  7  1  0  0  0  0
 12  3  1  0  0  0  0
 13  8  2  0  0  0  0
 13  6  1  0  0  0  0
 14 16  1  0  0  0  0
 15 18  2  0  0  0  0
 17 12  2  0  0  0  0
 18 14  1  0  0  0  0
 18 17  1  0  0  0  0
 19 14  1  0  0  0  0
 20 23  1  0  0  0  0
 20 22  1  0  0  0  0
 21 25  1  6  0  0  0
 21 24  1  0  0  0  0
 21 20  1  0  0  0  0
 21 22  1  0  0  0  0
 24 19  1  6  0  0  0
 25 24  1  0  0  0  0
 26  1  1  0  0  0  0
 26 28  1  0  0  0  0
 28 27  3  0  0  0  0
M  END
>  <MODEL>
1

>  <REMARK>
 VINA RESULT:      -7.3      0.000      0.000
  Name = 
  5 active torsions:
  status: ('A' for Active; 'I' for Inactive)
    1  A    between atoms: N_1  and  C_14
    2  A    between atoms: C_2  and  O_19
    3  A    between atoms: C_14  and  C_23
    4  A    between atoms: C_15  and  O_19
    5  A    between atoms: N_24  and  N_25
                            x       y       z     vdW  Elec       q    Type
                         _______ _______ _______ _____ _____    ______ ____

>  <TORSDO>
F 5

$$$$
=
 OpenBabel11042414493D

 28 31  0  0  1  0  0  0  0  0999 V2000
  195.1700  176.3520  144.2470 C   0  0  0  0  0  0  0  0  0  0  0  0
  191.6230  175.2120  144.1230 N   0  0  0  0  0  0  0  0  0  0  0  0
  190.6170  174.9030  144.8860 C   0  0  0  0  0  0  0  0  0  0  0  0
  188.7840  174.3680  147.8610 O   0  0  0  0  0  0  0  0  0  0  0  0
  195.3560  176.4350  145.5920 N   0  0  0  0  0  0  0  0  0  0  0  0
  192.0360  175.3970  147.0060 C   0  0  0  0  0  2  0  0  0  0  0  0
  193.1140  175.7250  146.0160 C   0  0  0  0  0  0  0  0  0  0  0  0
  189.7400  174.6620  147.1310 C   0  0  0  0  0  0  0  0  0  0  0  0
  193.9230  175.9430  143.7470 C   0  0  0  0  0  3  0  0  0  0  0  0
  192.8940  175.6290  144.6330 C   0  0  0  0  0  0  0  0  0  0  0  0
  194.3670  176.1340  146.4760 C   0  0  0  0  0  3  0  0  0  0  0  0
  189.3790  174.4950  144.2980 N   0  0  0  0  0  2  0  0  0  0  0  0
  190.7480  174.9710  146.3610 C   0  0  0  0  0  0  0  0  0  0  0  0
  187.3930  176.1400  142.8480 N   0  0  0  0  0  0  0  0  0  0  0  0
  188.1920  175.0610  140.9380 O   0  0  0  0  0  0  0  0  0  0  0  0
  187.4640  176.3210  144.1900 O   0  0  0  0  0  1  0  0  0  0  0  0
  189.2220  174.4200  142.9070 N   0  0  0  0  0  2  0  0  0  0  0  0
  188.2650  175.2040  142.1880 C   0  0  0  0  0  0  0  0  0  0  0  0
  186.4290  176.9020  142.0540 C   0  0  0  0  0  2  0  0  0  0  0  0
  184.6370  179.7540  144.0260 N   0  0  0  0  0  0  0  0  0  0  0  0
  185.4910  178.9970  143.0400 C   0  0  1  0  0  0  0  0  0  0  0  0
  185.7490  178.9700  144.4960 C   0  0  0  0  0  2  0  0  0  0  0  0
  183.5300  179.0600  144.4040 O   0  0  0  0  0  1  0  0  0  0  0  0
  185.3050  177.4720  142.9070 C   0  0  1  0  0  3  0  0  0  0  0  0
  184.4620  178.3500  142.0830 C   0  0  0  0  0  2  0  0  0  0  0  0
  196.2310  176.6770  143.3950 O   0  0  0  0  0  0  0  0  0  0  0  0
  196.0940  176.4380  140.8820 N   0  0  0  0  0  0  0  0  0  0  0  0
  196.1560  176.5470  142.0320 C   0  0  0  0  0  0  0  0  0  0  0  0
  1  5  2  0  0  0  0
  2 10  1  0  0  0  0
  2  3  2  0  0  0  0
  3 13  1  0  0  0  0
  5 11  1  0  0  0  0
  7 11  2  0  0  0  0
  7  6  1  0  0  0  0
  8  4  2  0  0  0  0
  9  1  1  0  0  0  0
  9 10  2  0  0  0  0
 10  7  1  0  0  0  0
 12  3  1  0  0  0  0
 13  6  1  0  0  0  0
 13  8  2  0  0  0  0
 14 16  1  0  0  0  0
 15 18  2  0  0  0  0
 17 12  1  0  0  0  0
 18 14  1  0  0  0  0
 18 17  1  0  0  0  0
 19 14  1  0  0  0  0
 20 23  1  0  0  0  0
 20 22  1  0  0  0  0
 21 25  1  6  0  0  0
 21 20  1  0  0  0  0
 21 22  1  0  0  0  0
 24 19  1  6  0  0  0
 24 21  1  0  0  0  0
 25 24  1  0  0  0  0
 26  1  1  0  0  0  0
 27 28  3  0  0  0  0
 28 26  1  0  0  0  0
M  END
>  <MODEL>
2

>  <REMARK>
 VINA RESULT:      -7.2      2.975      4.384
  Name = 
  5 active torsions:
  status: ('A' for Active; 'I' for Inactive)
    1  A    between atoms: N_1  and  C_14
    2  A    between atoms: C_2  and  O_19
    3  A    between atoms: C_14  and  C_23
    4  A    between atoms: C_15  and  O_19
    5  A    between atoms: N_24  and  N_25
                            x       y       z     vdW  Elec       q    Type
                         _______ _______ _______ _____ _____    ______ ____

>  <TORSDO>
F 5

$$$$
=
 OpenBabel11042414493D

 28 31  0  0  1  0  0  0  0  0999 V2000
  196.4370  175.7170  143.2640 C   0  0  0  0  0  0  0  0  0  0  0  0
  192.8630  176.5330  143.9430 N   0  0  0  0  0  0  0  0  0  0  0  0
  191.9250  176.3740  144.8280 C   0  0  0  0  0  0  0  0  0  0  0  0
  190.3630  175.3100  147.8150 O   0  0  0  0  0  0  0  0  0  0  0  0
  196.7490  175.0200  144.3890 N   0  0  0  0  0  0  0  0  0  0  0  0
  193.5480  175.0360  146.3530 C   0  0  0  0  0  2  0  0  0  0  0  0
  194.5390  175.2900  145.2550 C   0  0  0  0  0  0  0  0  0  0  0  0
  191.2540  175.4640  146.9700 C   0  0  0  0  0  0  0  0  0  0  0  0
  195.1380  176.2270  143.1070 C   0  0  0  0  0  3  0  0  0  0  0  0
  194.1880  176.0130  144.1040 C   0  0  0  0  0  0  0  0  0  0  0  0
  195.8390  174.7980  145.3760 C   0  0  0  0  0  3  0  0  0  0  0  0
  190.6260  176.9260  144.5920 N   0  0  0  0  0  2  0  0  0  0  0  0
  192.1940  175.6250  146.0790 C   0  0  0  0  0  0  0  0  0  0  0  0
  187.9680  176.8180  143.3010 N   0  0  0  0  0  0  0  0  0  0  0  0
  188.8990  178.2670  141.7230 O   0  0  0  0  0  0  0  0  0  0  0  0
  188.1140  176.1020  144.4420 O   0  0  0  0  0  1  0  0  0  0  0  0
  190.3390  177.6390  143.4210 N   0  0  0  0  0  2  0  0  0  0  0  0
  189.0600  177.5970  142.7780 C   0  0  0  0  0  0  0  0  0  0  0  0
  186.6900  176.8100  142.5870 C   0  0  0  0  0  2  0  0  0  0  0  0
  184.7740  179.7200  144.3460 N   0  0  0  0  0  0  0  0  0  0  0  0
  185.6450  178.9270  143.4040 C   0  0  1  0  0  0  0  0  0  0  0  0
  185.9530  179.0620  144.8430 C   0  0  0  0  0  2  0  0  0  0  0  0
  183.7320  178.9970  144.8340 O   0  0  0  0  0  1  0  0  0  0  0  0
  185.5590  177.3880  143.4260 C   0  0  1  0  0  3  0  0  0  0  0  0
  184.6300  178.1230  142.5560 C   0  0  0  0  0  2  0  0  0  0  0  0
  197.4220  175.9080  142.2900 O   0  0  0  0  0  0  0  0  0  0  0  0
  196.9900  175.5750  139.8210 N   0  0  0  0  0  0  0  0  0  0  0  0
  197.1890  175.7280  140.9510 C   0  0  0  0  0  0  0  0  0  0  0  0
  1  5  2  0  0  0  0
  2 10  1  0  0  0  0
  2  3  2  0  0  0  0
  3 13  1  0  0  0  0
  5 11  1  0  0  0  0
  7 11  2  0  0  0  0
  7  6  1  0  0  0  0
  8  4  2  0  0  0  0
  9  1  1  0  0  0  0
  9 10  2  0  0  0  0
 10  7  1  0  0  0  0
 12  3  1  0  0  0  0
 13  6  1  0  0  0  0
 13  8  2  0  0  0  0
 14 16  1  0  0  0  0
 15 18  2  0  0  0  0
 17 12  1  0  0  0  0
 18 14  1  0  0  0  0
 18 17  1  0  0  0  0
 19 14  1  0  0  0  0
 20 23  1  0  0  0  0
 20 22  1  0  0  0  0
 21 25  1  6  0  0  0
 21 24  1  0  0  0  0
 21 20  1  0  0  0  0
 21 22  1  0  0  0  0
 24 19  1  6  0  0  0
 25 24  1  0  0  0  0
 26  1  1  0  0  0  0
 27 28  3  0  0  0  0
 28 26  1  0  0  0  0
M  END
>  <MODEL>
3

>  <REMARK>
 VINA RESULT:      -7.2      3.057      5.125
  Name = 
  5 active torsions:
  status: ('A' for Active; 'I' for Inactive)
    1  A    between atoms: N_1  and  C_14
    2  A    between atoms: C_2  and  O_19
    3  A    between atoms: C_14  and  C_23
    4  A    between atoms: C_15  and  O_19
    5  A    between atoms: N_24  and  N_25
                            x       y       z     vdW  Elec       q    Type
                         _______ _______ _______ _____ _____    ______ ____

>  <TORSDO>
F 5

$$$$
=
 OpenBabel11042414493D

 28 31  0  0  1  0  0  0  0  0999 V2000
  192.1190  175.2820  145.7210 C   0  0  0  0  0  0  0  0  0  0  0  0
  189.5910  176.0680  143.0960 N   0  0  0  0  0  0  0  0  0  0  0  0
  188.9300  175.5300  142.1140 C   0  0  0  0  0  0  0  0  0  0  0  0
  187.8370  173.0430  139.8540 O   0  0  0  0  0  0  0  0  0  0  0  0
  192.3460  173.9660  145.4590 N   0  0  0  0  0  0  0  0  0  0  0  0
  190.0860  173.2440  142.5480 C   0  0  0  0  0  2  0  0  0  0  0  0
  190.7830  173.9840  143.6520 C   0  0  0  0  0  0  0  0  0  0  0  0
  188.4650  173.5580  140.7880 C   0  0  0  0  0  0  0  0  0  0  0  0
  191.1990  175.9930  144.9340 C   0  0  0  0  0  3  0  0  0  0  0  0
  190.5300  175.3420  143.8980 C   0  0  0  0  0  0  0  0  0  0  0  0
  191.7050  173.3100  144.4540 C   0  0  0  0  0  3  0  0  0  0  0  0
  188.0090  176.3240  141.3610 N   0  0  0  0  0  2  0  0  0  0  0  0
  189.1260  174.1010  141.7730 C   0  0  0  0  0  0  0  0  0  0  0  0
  185.8600  177.2200  143.1840 N   0  0  0  0  0  0  0  0  0  0  0  0
  186.6490  179.3710  142.7320 O   0  0  0  0  0  0  0  0  0  0  0  0
  185.9740  175.8820  142.9960 O   0  0  0  0  0  1  0  0  0  0  0  0
  187.8000  177.6770  141.6570 N   0  0  0  0  0  2  0  0  0  0  0  0
  186.7640  178.1320  142.5330 C   0  0  0  0  0  0  0  0  0  0  0  0
  184.8140  177.7520  144.0590 C   0  0  0  0  0  2  0  0  0  0  0  0
  186.5410  178.3570  147.5060 N   0  0  0  0  0  0  0  0  0  0  0  0
  185.9540  178.5560  146.1300 C   0  0  1  0  0  0  0  0  0  0  0  0
  187.1230  177.6840  146.3750 C   0  0  0  0  0  2  0  0  0  0  0  0
  185.9080  177.3820  148.2110 O   0  0  0  0  0  1  0  0  0  0  0  0
  185.0770  177.4420  145.5250 C   0  0  1  0  0  3  0  0  0  0  0  0
  184.4280  178.4590  146.3650 C   0  0  0  0  0  2  0  0  0  0  0  0
  192.8130  175.8930  146.7700 O   0  0  0  0  0  0  0  0  0  0  0  0
  194.6720  177.5650  146.3930 N   0  0  0  0  0  0  0  0  0  0  0  0
  193.8210  176.8000  146.5670 C   0  0  0  0  0  0  0  0  0  0  0  0
  1 26  1  0  0  0  0
  2 10  1  0  0  0  0
  3  2  2  0  0  0  0
  4  8  2  0  0  0  0
  5  1  2  0  0  0  0
  6  7  1  0  0  0  0
  7 10  1  0  0  0  0
  7 11  2  0  0  0  0
  8 13  2  0  0  0  0
  9  1  1  0  0  0  0
 10  9  2  0  0  0  0
 11  5  1  0  0  0  0
 12 17  1  0  0  0  0
 12  3  1  0  0  0  0
 13  3  1  0  0  0  0
 13  6  1  0  0  0  0
 14 19  1  0  0  0  0
 16 14  1  0  0  0  0
 17 18  1  0  0  0  0
 18 15  2  0  0  0  0
 18 14  1  0  0  0  0
 20 23  1  0  0  0  0
 21 25  1  6  0  0  0
 21 22  1  0  0  0  0
 21 20  1  0  0  0  0
 22 20  1  0  0  0  0
 24 19  1  6  0  0  0
 24 21  1  0  0  0  0
 24 25  1  0  0  0  0
 27 28  3  0  0  0  0
 28 26  1  0  0  0  0
M  END
>  <MODEL>
4

>  <REMARK>
 VINA RESULT:      -7.0      3.304      5.116
  Name = 
  5 active torsions:
  status: ('A' for Active; 'I' for Inactive)
    1  A    between atoms: N_1  and  C_14
    2  A    between atoms: C_2  and  O_19
    3  A    between atoms: C_14  and  C_23
    4  A    between atoms: C_15  and  O_19
    5  A    between atoms: N_24  and  N_25
                            x       y       z     vdW  Elec       q    Type
                         _______ _______ _______ _____ _____    ______ ____

>  <TORSDO>
F 5

$$$$
=
 OpenBabel11042414493D

 28 31  0  0  1  0  0  0  0  0999 V2000
  184.8260  177.8830  143.8500 C   0  0  0  0  0  0  0  0  0  0  0  0
  187.9840  175.9060  143.9970 N   0  0  0  0  0  0  0  0  0  0  0  0
  188.9290  175.5420  144.8110 C   0  0  0  0  0  0  0  0  0  0  0  0
  190.7520  175.2660  147.8270 O   0  0  0  0  0  0  0  0  0  0  0  0
  184.7450  178.3140  145.1380 N   0  0  0  0  0  0  0  0  0  0  0  0
  187.7960  176.8400  146.7560 C   0  0  0  0  0  2  0  0  0  0  0  0
  186.7720  177.1890  145.7170 C   0  0  0  0  0  0  0  0  0  0  0  0
  189.8540  175.6110  147.0490 C   0  0  0  0  0  0  0  0  0  0  0  0
  185.9070  177.0760  143.4600 C   0  0  0  0  0  3  0  0  0  0  0  0
  186.8810  176.7290  144.3950 C   0  0  0  0  0  0  0  0  0  0  0  0
  185.6830  177.9880  146.0680 C   0  0  0  0  0  3  0  0  0  0  0  0
  189.9980  174.7190  144.3340 N   0  0  0  0  0  2  0  0  0  0  0  0
  188.9060  175.9750  146.2280 C   0  0  0  0  0  0  0  0  0  0  0  0
  192.3680  175.1860  142.6280 N   0  0  0  0  0  0  0  0  0  0  0  0
  191.1370  174.0970  140.9680 O   0  0  0  0  0  0  0  0  0  0  0  0
  192.4480  175.6270  143.9070 O   0  0  0  0  0  1  0  0  0  0  0  0
  190.0500  174.2920  143.0010 N   0  0  0  0  0  2  0  0  0  0  0  0
  191.1860  174.5110  142.1570 C   0  0  0  0  0  0  0  0  0  0  0  0
  193.4890  175.3880  141.7090 C   0  0  0  0  0  2  0  0  0  0  0  0
  197.1020  175.8480  143.1100 N   0  0  0  0  0  0  0  0  0  0  0  0
  195.9080  175.3570  142.3300 C   0  0  1  0  0  0  0  0  0  0  0  0
  195.9990  175.2350  143.8010 C   0  0  0  0  0  2  0  0  0  0  0  0
  197.0220  177.1700  143.4170 O   0  0  0  0  0  1  0  0  0  0  0  0
  194.6130  176.1940  142.3430 C   0  0  1  0  0  3  0  0  0  0  0  0
  195.6300  176.5010  141.3260 C   0  0  0  0  0  2  0  0  0  0  0  0
  183.8260  178.2560  142.9470 O   0  0  0  0  0  0  0  0  0  0  0  0
  184.1590  178.2120  140.4410 N   0  0  0  0  0  0  0  0  0  0  0  0
  184.0060  178.2320  141.5880 C   0  0  0  0  0  0  0  0  0  0  0  0
  1  5  2  0  0  0  0
  2 10  1  0  0  0  0
  2  3  2  0  0  0  0
  3 13  1  0  0  0  0
  5 11  1  0  0  0  0
  7 11  2  0  0  0  0
  7  6  1  0  0  0  0
  8  4  2  0  0  0  0
  9  1  1  0  0  0  0
  9 10  2  0  0  0  0
 10  7  1  0  0  0  0
 12  3  1  0  0  0  0
 13  6  1  0  0  0  0
 13  8  2  0  0  0  0
 14 16  1  0  0  0  0
 15 18  2  0  0  0  0
 17 12  1  0  0  0  0
 18 14  1  0  0  0  0
 18 17  1  0  0  0  0
 19 14  1  0  0  0  0
 20 23  1  0  0  0  0
 20 22  1  0  0  0  0
 21 25  1  6  0  0  0
 21 24  1  0  0  0  0
 21 20  1  0  0  0  0
 21 22  1  0  0  0  0
 24 19  1  6  0  0  0
 25 24  1  0  0  0  0
 26  1  1  0  0  0  0
 27 28  3  0  0  0  0
 28 26  1  0  0  0  0
M  END
>  <MODEL>
5

>  <REMARK>
 VINA RESULT:      -7.0      2.781      9.684
  Name = 
  5 active torsions:
  status: ('A' for Active; 'I' for Inactive)
    1  A    between atoms: N_1  and  C_14
    2  A    between atoms: C_2  and  O_19
    3  A    between atoms: C_14  and  C_23
    4  A    between atoms: C_15  and  O_19
    5  A    between atoms: N_24  and  N_25
                            x       y       z     vdW  Elec       q    Type
                         _______ _______ _______ _____ _____    ______ ____

>  <TORSDO>
F 5

$$$$
=
 OpenBabel11042414493D

 28 31  0  0  1  0  0  0  0  0999 V2000
  195.3450  176.2430  141.9980 C   0  0  0  0  0  0  0  0  0  0  0  0
  192.0810  175.5940  143.6790 N   0  0  0  0  0  0  0  0  0  0  0  0
  191.5350  175.4920  144.8540 C   0  0  0  0  0  0  0  0  0  0  0  0
  191.2900  175.4680  148.3800 O   0  0  0  0  0  0  0  0  0  0  0  0
  196.1510  176.4140  143.0810 N   0  0  0  0  0  0  0  0  0  0  0  0
  193.8220  175.9640  145.9920 C   0  0  0  0  0  2  0  0  0  0  0  0
  194.3270  176.0560  144.5830 C   0  0  0  0  0  0  0  0  0  0  0  0
  191.8070  175.5650  147.2600 C   0  0  0  0  0  0  0  0  0  0  0  0
  193.9820  175.9680  142.1900 C   0  0  0  0  0  3  0  0  0  0  0  0
  193.4720  175.8740  143.4840 C   0  0  0  0  0  0  0  0  0  0  0  0
  195.6770  176.3270  144.3530 C   0  0  0  0  0  3  0  0  0  0  0  0
  190.1370  175.2090  144.9640 N   0  0  0  0  0  2  0  0  0  0  0  0
  192.3530  175.6660  146.0780 C   0  0  0  0  0  0  0  0  0  0  0  0
  188.2060  177.2670  144.0790 N   0  0  0  0  0  0  0  0  0  0  0  0
  187.7110  175.7720  142.3550 O   0  0  0  0  0  0  0  0  0  0  0  0
  188.9390  177.5610  145.1810 O   0  0  0  0  0  1  0  0  0  0  0  0
  189.3360  175.0380  143.8280 N   0  0  0  0  0  2  0  0  0  0  0  0
  188.3930  176.0200  143.3840 C   0  0  0  0  0  0  0  0  0  0  0  0
  187.2160  178.2220  143.5790 C   0  0  0  0  0  2  0  0  0  0  0  0
  184.8550  179.0420  146.5770 N   0  0  0  0  0  0  0  0  0  0  0  0
  185.9480  179.1110  145.5390 C   0  0  1  0  0  0  0  0  0  0  0  0
  185.8990  178.0510  146.5690 C   0  0  0  0  0  2  0  0  0  0  0  0
  183.7470  178.3930  146.1310 O   0  0  0  0  0  1  0  0  0  0  0  0
  185.9020  178.1400  144.3420 C   0  0  1  0  0  3  0  0  0  0  0  0
  185.1880  179.4200  144.2270 C   0  0  0  0  0  2  0  0  0  0  0  0
  195.8990  176.3460  140.7180 O   0  0  0  0  0  0  0  0  0  0  0  0
  196.0440  174.3880  139.1260 N   0  0  0  0  0  0  0  0  0  0  0  0
  195.9770  175.2840  139.8540 C   0  0  0  0  0  0  0  0  0  0  0  0
  1  9  1  0  0  0  0
  1  5  2  0  0  0  0
  2  3  2  0  0  0  0
  3 12  1  0  0  0  0
  3 13  1  0  0  0  0
  5 11  1  0  0  0  0
  6 13  1  0  0  0  0
  7  6  1  0  0  0  0
  8  4  2  0  0  0  0
  9 10  2  0  0  0  0
 10  2  1  0  0  0  0
 10  7  1  0  0  0  0
 11  7  2  0  0  0  0
 13  8  2  0  0  0  0
 14 16  1  0  0  0  0
 15 18  2  0  0  0  0
 17 12  1  0  0  0  0
 18 17  1  0  0  0  0
 18 14  1  0  0  0  0
 19 14  1  0  0  0  0
 21 25  1  1  0  0  0
 21 22  1  0  0  0  0
 21 20  1  0  0  0  0
 22 20  1  0  0  0  0
 23 20  1  0  0  0  0
 24 19  1  6  0  0  0
 24 21  1  0  0  0  0
 25 24  1  0  0  0  0
 26  1  1  0  0  0  0
 27 28  3  0  0  0  0
 28 26  1  0  0  0  0
M  END
>  <MODEL>
6

>  <REMARK>
 VINA RESULT:      -6.9      3.638      5.540
  Name = 
  5 active torsions:
  status: ('A' for Active; 'I' for Inactive)
    1  A    between atoms: N_1  and  C_14
    2  A    between atoms: C_2  and  O_19
    3  A    between atoms: C_14  and  C_23
    4  A    between atoms: C_15  and  O_19
    5  A    between atoms: N_24  and  N_25
                            x       y       z     vdW  Elec       q    Type
                         _______ _______ _______ _____ _____    ______ ____

>  <TORSDO>
F 5

$$$$
=
 OpenBabel11042414493D

 28 31  0  0  1  0  0  0  0  0999 V2000
  186.5720  178.0640  142.1280 C   0  0  0  0  0  0  0  0  0  0  0  0
  189.8770  177.2650  143.6580 N   0  0  0  0  0  0  0  0  0  0  0  0
  190.4600  177.0890  144.8060 C   0  0  0  0  0  0  0  0  0  0  0  0
  190.8220  176.8670  148.3150 O   0  0  0  0  0  0  0  0  0  0  0  0
  185.8070  178.1910  143.2460 N   0  0  0  0  0  0  0  0  0  0  0  0
  188.2220  177.5390  146.0460 C   0  0  0  0  0  2  0  0  0  0  0  0
  187.6720  177.7170  144.6620 C   0  0  0  0  0  0  0  0  0  0  0  0
  190.2700  177.0350  147.2200 C   0  0  0  0  0  0  0  0  0  0  0  0
  187.9350  177.7540  142.2570 C   0  0  0  0  0  3  0  0  0  0  0  0
  188.4860  177.5810  143.5260 C   0  0  0  0  0  0  0  0  0  0  0  0
  186.3210  178.0260  144.4940 C   0  0  0  0  0  3  0  0  0  0  0  0
  191.8550  176.7750  144.8520 N   0  0  0  0  0  0  0  0  0  0  0  0
  189.6880  177.2110  146.0650 C   0  0  0  0  0  0  0  0  0  0  0  0
  194.5550  175.5690  144.8490 N   0  0  0  0  0  0  0  0  0  0  0  0
  194.5320  176.0160  142.5570 O   0  0  0  0  0  0  0  0  0  0  0  0
  193.9130  175.6090  146.0420 O   0  0  0  0  0  1  0  0  0  0  0  0
  192.6140  176.6530  143.6810 N   0  0  0  0  0  0  0  0  0  0  0  0
  193.9240  176.0750  143.6590 C   0  0  0  0  0  0  0  0  0  0  0  0
  195.9020  175.0020  144.7580 C   0  0  0  0  0  2  0  0  0  0  0  0
  197.3740  171.4030  145.0860 N   0  0  0  0  0  0  0  0  0  0  0  0
  197.2110  172.8750  144.8030 C   0  0  1  0  0  0  0  0  0  0  0  0
  196.4220  171.8410  144.0990 C   0  0  0  0  0  2  0  0  0  0  0  0
  196.6240  170.9840  146.1400 O   0  0  0  0  0  1  0  0  0  0  0  0
  195.9850  173.6140  145.3760 C   0  0  1  0  0  3  0  0  0  0  0  0
  197.1920  173.5200  146.2090 C   0  0  0  0  0  2  0  0  0  0  0  0
  185.9770  178.2470  140.8750 O   0  0  0  0  0  0  0  0  0  0  0  0
  183.4720  178.3260  140.5460 N   0  0  0  0  0  0  0  0  0  0  0  0
  184.6190  178.2910  140.6970 C   0  0  0  0  0  0  0  0  0  0  0  0
  1  9  1  0  0  0  0
  1  5  2  0  0  0  0
  2  3  2  0  0  0  0
  3 12  1  0  0  0  0
  3 13  1  0  0  0  0
  5 11  1  0  0  0  0
  6 13  1  0  0  0  0
  7  6  1  0  0  0  0
  8  4  2  0  0  0  0
  9 10  2  0  0  0  0
 10  2  1  0  0  0  0
 10  7  1  0  0  0  0
 11  7  2  0  0  0  0
 13  8  2  0  0  0  0
 14 16  1  0  0  0  0
 15 18  2  0  0  0  0
 17 12  2  0  0  0  0
 18 17  1  0  0  0  0
 18 14  1  0  0  0  0
 19 14  1  0  0  0  0
 20 23  1  0  0  0  0
 21 22  1  6  0  0  0
 21 20  1  0  0  0  0
 21 24  1  0  0  0  0
 21 25  1  0  0  0  0
 22 20  1  0  0  0  0
 24 19  1  6  0  0  0
 24 25  1  0  0  0  0
 26  1  1  0  0  0  0
 27 28  3  0  0  0  0
 28 26  1  0  0  0  0
M  END
>  <MODEL>
7

>  <REMARK>
 VINA RESULT:      -6.9      2.723     10.774
  Name = 
  5 active torsions:
  status: ('A' for Active; 'I' for Inactive)
    1  A    between atoms: N_1  and  C_14
    2  A    between atoms: C_2  and  O_19
    3  A    between atoms: C_14  and  C_23
    4  A    between atoms: C_15  and  O_19
    5  A    between atoms: N_24  and  N_25
                            x       y       z     vdW  Elec       q    Type
                         _______ _______ _______ _____ _____    ______ ____

>  <TORSDO>
F 5

$$$$
=
 OpenBabel11042414493D

 28 31  0  0  1  0  0  0  0  0999 V2000
  186.2270  178.7210  144.3110 C   0  0  0  0  0  0  0  0  0  0  0  0
  188.2740  175.7370  143.4130 N   0  0  0  0  0  0  0  0  0  0  0  0
  188.6380  175.0110  142.3980 C   0  0  0  0  0  0  0  0  0  0  0  0
  188.8760  173.9250  139.0430 O   0  0  0  0  0  0  0  0  0  0  0  0
  185.7590  179.0780  143.0850 N   0  0  0  0  0  0  0  0  0  0  0  0
  187.2620  176.5150  140.7880 C   0  0  0  0  0  2  0  0  0  0  0  0
  186.9170  177.2690  142.0390 C   0  0  0  0  0  0  0  0  0  0  0  0
  188.5310  174.6140  140.0110 C   0  0  0  0  0  0  0  0  0  0  0  0
  187.0700  177.6040  144.4300 C   0  0  0  0  0  3  0  0  0  0  0  0
  187.4140  176.8770  143.2920 C   0  0  0  0  0  0  0  0  0  0  0  0
  186.0820  178.3840  141.9600 C   0  0  0  0  0  3  0  0  0  0  0  0
  189.5000  173.8880  142.6030 N   0  0  0  0  0  2  0  0  0  0  0  0
  188.1660  175.3410  141.0320 C   0  0  0  0  0  0  0  0  0  0  0  0
  192.3520  174.1130  143.3520 N   0  0  0  0  0  0  0  0  0  0  0  0
  191.6620  173.3100  145.4320 O   0  0  0  0  0  0  0  0  0  0  0  0
  192.0260  174.4940  142.0920 O   0  0  0  0  0  1  0  0  0  0  0  0
  189.9630  173.5480  143.8810 N   0  0  0  0  0  2  0  0  0  0  0  0
  191.3400  173.6460  144.2620 C   0  0  0  0  0  0  0  0  0  0  0  0
  193.7430  174.1780  143.8010 C   0  0  0  0  0  2  0  0  0  0  0  0
  194.4060  176.8750  146.5430 N   0  0  0  0  0  0  0  0  0  0  0  0
  194.2590  175.5620  145.8160 C   0  0  1  0  0  0  0  0  0  0  0  0
  193.1170  176.4710  146.0480 C   0  0  0  0  0  2  0  0  0  0  0  0
  194.7980  177.8880  145.7250 O   0  0  0  0  0  1  0  0  0  0  0  0
  194.1290  175.5700  144.2800 C   0  0  1  0  0  3  0  0  0  0  0  0
  195.4780  175.5310  144.8630 C   0  0  0  0  0  2  0  0  0  0  0  0
  185.8550  179.4800  145.4260 O   0  0  0  0  0  0  0  0  0  0  0  0
  184.8270  178.4610  147.4980 N   0  0  0  0  0  0  0  0  0  0  0  0
  185.2980  178.9270  146.5490 C   0  0  0  0  0  0  0  0  0  0  0  0
  1  9  1  0  0  0  0
  1 26  1  0  0  0  0
  3 12  1  0  0  0  0
  3  2  2  0  0  0  0
  4  8  2  0  0  0  0
  5  1  2  0  0  0  0
  6 13  1  0  0  0  0
  6  7  1  0  0  0  0
  7 10  1  0  0  0  0
  8 13  2  0  0  0  0
 10  2  1  0  0  0  0
 10  9  2  0  0  0  0
 11  7  2  0  0  0  0
 11  5  1  0  0  0  0
 12 17  1  0  0  0  0
 13  3  1  0  0  0  0
 14 19  1  0  0  0  0
 14 18  1  0  0  0  0
 16 14  1  0  0  0  0
 17 18  1  0  0  0  0
 18 15  2  0  0  0  0
 21 25  1  1  0  0  0
 21 22  1  0  0  0  0
 21 20  1  0  0  0  0
 22 20  1  0  0  0  0
 23 20  1  0  0  0  0
 24 19  1  6  0  0  0
 24 25  1  0  0  0  0
 24 21  1  0  0  0  0
 26 28  1  0  0  0  0
 28 27  3  0  0  0  0
M  END
>  <MODEL>
8

>  <REMARK>
 VINA RESULT:      -6.8      3.548      9.583
  Name = 
  5 active torsions:
  status: ('A' for Active; 'I' for Inactive)
    1  A    between atoms: N_1  and  C_14
    2  A    between atoms: C_2  and  O_19
    3  A    between atoms: C_14  and  C_23
    4  A    between atoms: C_15  and  O_19
    5  A    between atoms: N_24  and  N_25
                            x       y       z     vdW  Elec       q    Type
                         _______ _______ _______ _____ _____    ______ ____

>  <TORSDO>
F 5

$$$$
=
 OpenBabel11042414493D

 28 31  0  0  1  0  0  0  0  0999 V2000
  186.0500  178.0480  144.6480 C   0  0  0  0  0  0  0  0  0  0  0  0
  189.5400  176.8420  144.1290 N   0  0  0  0  0  0  0  0  0  0  0  0
  190.2470  176.0300  143.4010 C   0  0  0  0  0  0  0  0  0  0  0  0
  190.9780  173.6190  140.9230 O   0  0  0  0  0  0  0  0  0  0  0  0
  185.3960  177.3230  143.7020 N   0  0  0  0  0  0  0  0  0  0  0  0
  188.1210  175.2940  142.1030 C   0  0  0  0  0  2  0  0  0  0  0  0
  187.4220  176.2650  143.0080 C   0  0  0  0  0  0  0  0  0  0  0  0
  190.3070  174.3930  141.6180 C   0  0  0  0  0  0  0  0  0  0  0  0
  187.4380  177.8930  144.7980 C   0  0  0  0  0  3  0  0  0  0  0  0
  188.1250  177.0000  143.9770 C   0  0  0  0  0  0  0  0  0  0  0  0
  186.0440  176.4460  142.8890 C   0  0  0  0  0  3  0  0  0  0  0  0
  191.6580  175.9310  143.6170 N   0  0  0  0  0  0  0  0  0  0  0  0
  189.6000  175.2090  142.3510 C   0  0  0  0  0  0  0  0  0  0  0  0
  194.4270  175.3600  144.4860 N   0  0  0  0  0  0  0  0  0  0  0  0
  194.1290  177.1660  145.9360 O   0  0  0  0  0  0  0  0  0  0  0  0
  193.9240  174.5650  143.5100 O   0  0  0  0  0  1  0  0  0  0  0  0
  192.3010  176.6920  144.6020 N   0  0  0  0  0  0  0  0  0  0  0  0
  193.6390  176.4300  145.0390 C   0  0  0  0  0  0  0  0  0  0  0  0
  195.7840  175.1390  144.9880 C   0  0  0  0  0  2  0  0  0  0  0  0
  197.5270  171.6490  145.1070 N   0  0  0  0  0  0  0  0  0  0  0  0
  197.2500  173.1180  144.9080 C   0  0  1  0  0  0  0  0  0  0  0  0
  196.5380  172.0680  144.1480 C   0  0  0  0  0  2  0  0  0  0  0  0
  196.8170  171.1150  146.1360 O   0  0  0  0  0  1  0  0  0  0  0  0
  195.9760  173.7280  145.5250 C   0  0  1  0  0  3  0  0  0  0  0  0
  197.1920  173.6790  146.3490 C   0  0  0  0  0  2  0  0  0  0  0  0
  185.3210  178.9320  145.4500 O   0  0  0  0  0  0  0  0  0  0  0  0
  185.8680  179.3450  147.8830 N   0  0  0  0  0  0  0  0  0  0  0  0
  185.6170  179.1560  146.7700 C   0  0  0  0  0  0  0  0  0  0  0  0
  1  9  1  0  0  0  0
  1 26  1  0  0  0  0
  3 12  1  0  0  0  0
  3  2  2  0  0  0  0
  4  8  2  0  0  0  0
  5  1  2  0  0  0  0
  6 13  1  0  0  0  0
  6  7  1  0  0  0  0
  7 10  1  0  0  0  0
  8 13  2  0  0  0  0
 10  2  1  0  0  0  0
 10  9  2  0  0  0  0
 11  7  2  0  0  0  0
 11  5  1  0  0  0  0
 12 17  2  0  0  0  0
 13  3  1  0  0  0  0
 14 19  1  0  0  0  0
 14 18  1  0  0  0  0
 16 14  1  0  0  0  0
 17 18  1  0  0  0  0
 18 15  2  0  0  0  0
 20 23  1  0  0  0  0
 21 22  1  6  0  0  0
 21 20  1  0  0  0  0
 21 24  1  0  0  0  0
 21 25  1  0  0  0  0
 22 20  1  0  0  0  0
 24 19  1  6  0  0  0
 24 25  1  0  0  0  0
 26 28  1  0  0  0  0
 28 27  3  0  0  0  0
M  END
>  <MODEL>
9

>  <REMARK>
 VINA RESULT:      -6.5      3.604     10.887
  Name = 
  5 active torsions:
  status: ('A' for Active; 'I' for Inactive)
    1  A    between atoms: N_1  and  C_14
    2  A    between atoms: C_2  and  O_19
    3  A    between atoms: C_14  and  C_23
    4  A    between atoms: C_15  and  O_19
    5  A    between atoms: N_24  and  N_25
                            x       y       z     vdW  Elec       q    Type
                         _______ _______ _______ _____ _____    ______ ____

>  <TORSDO>
F 5

$$$$
