=
 OpenBabel11042414263D

 41 46  0  0  1  0  0  0  0  0999 V2000
  190.5850  176.6790  145.8880 C   0  0  0  0  0  3  0  0  0  0  0  0
  189.2200  176.0170  145.6180 C   0  0  0  0  0  0  0  0  0  0  0  0
  189.7640  175.5740  143.1910 C   0  0  0  0  0  0  0  0  0  0  0  0
  192.5850  176.9520  144.0180 C   0  0  1  0  0  0  0  0  0  0  0  0
  188.8680  175.5390  144.3830 C   0  0  0  0  0  3  0  0  0  0  0  0
  192.2130  176.4340  142.7580 N   0  0  0  0  0  2  0  0  0  0  0  0
  191.3800  176.6490  144.6760 N   0  0  0  0  0  0  0  0  0  0  0  0
  190.9380  176.1170  143.4150 C   0  0  2  0  0  0  0  0  0  0  0  0
  188.2170  175.9430  146.7090 C   0  0  0  0  0  0  0  0  0  0  0  0
  188.3330  175.0330  147.5760 O   0  0  0  0  0  0  0  0  0  0  0  0
  187.2230  178.1390  147.4430 C   0  0  0  0  0  3  0  0  0  0  0  0
  184.8810  178.6270  147.0630 C   0  0  0  0  0  3  0  0  0  0  0  0
  185.8140  176.5130  146.3420 C   0  0  0  0  0  3  0  0  0  0  0  0
  184.7220  177.3790  146.4560 C   0  0  0  0  0  3  0  0  0  0  0  0
  187.0790  176.8880  146.8240 C   0  0  0  0  0  0  0  0  0  0  0  0
  186.1320  179.0070  147.5580 C   0  0  0  0  0  3  0  0  0  0  0  0
  189.3640  175.0440  141.8580 C   0  0  0  0  0  2  0  0  0  0  0  0
  187.9230  175.4130  141.5620 C   0  0  0  0  0  2  0  0  0  0  0  0
  187.8510  176.8130  141.1780 N   0  0  0  0  0  2  0  0  0  0  0  0
  185.7200  177.6170  140.5430 C   0  0  0  0  0  3  0  0  0  0  0  0
  184.2130  178.4410  143.0770 C   0  0  0  0  0  3  0  0  0  0  0  0
  185.6050  178.8250  143.3700 C   0  0  0  0  0  3  0  0  0  0  0  0
  183.7200  178.2430  141.8540 C   0  0  0  0  0  3  0  0  0  0  0  0
  186.6860  178.4790  142.6600 C   0  0  0  0  0  3  0  0  0  0  0  0
  186.7090  177.6330  141.4410 C   0  0  0  0  0  0  0  0  0  0  0  0
  184.5100  178.4880  140.6140 C   0  0  0  0  0  2  0  0  0  0  0  0
  193.7320  176.1320  144.6020 C   0  0  0  0  0  2  0  0  0  0  0  0
  195.0210  176.3800  143.8380 C   0  0  0  0  0  2  0  0  0  0  0  0
  196.1190  175.6700  144.4690 N   0  0  0  0  0  2  0  0  0  0  0  0
  196.6350  174.7930  143.5060 N   0  0  0  0  0  2  0  0  0  0  0  0
  196.7360  173.4850  144.1380 C   0  0  0  0  0  2  0  0  0  0  0  0
  192.1710  172.5720  143.9680 C   0  0  0  0  0  2  0  0  0  0  0  0
  195.7920  172.4840  143.4790 C   0  0  2  0  0  3  0  0  0  0  0  0
  195.2610  173.0120  142.1360 C   0  0  0  0  0  2  0  0  0  0  0  0
  194.5840  172.1820  144.3790 C   0  0  1  0  0  3  0  0  0  0  0  0
  193.8160  172.9720  142.2440 N   0  0  0  0  0  0  0  0  0  0  0  0
  192.9230  173.4640  141.2070 C   0  0  0  0  0  1  0  0  0  0  0  0
  193.4190  172.4950  143.5150 C   0  0  0  0  0  0  0  0  0  0  0  0
  194.3540  170.4180  145.9920 O   0  0  0  0  0  1  0  0  0  0  0  0
  194.8500  169.7580  143.8550 O   0  0  0  0  0  0  0  0  0  0  0  0
  194.5930  170.7440  144.7990 C   0  0  0  0  0  0  0  0  0  0  0  0
  2  1  2  0  0  0  0
  2  9  1  0  0  0  0
  3  8  1  0  0  0  0
  3  5  2  0  0  0  0
  4 27  1  1  0  0  0
  4  7  1  0  0  0  0
  5  2  1  0  0  0  0
  6  4  1  0  0  0  0
  7  1  1  0  0  0  0
  8  6  1  1  0  0  0
  8  4  1  0  0  0  0
  8  7  1  0  0  0  0
  9 15  1  0  0  0  0
  9 10  2  0  0  0  0
 11 16  1  0  0  0  0
 12 16  2  0  0  0  0
 13 14  2  0  0  0  0
 13 15  1  0  0  0  0
 14 12  1  0  0  0  0
 15 11  2  0  0  0  0
 17  3  1  0  0  0  0
 18 17  1  0  0  0  0
 19 25  1  0  0  0  0
 19 18  1  0  0  0  0
 20 26  1  0  0  0  0
 20 25  2  0  0  0  0
 21 22  1  0  0  0  0
 23 21  2  0  0  0  0
 24 22  2  0  0  0  0
 25 24  1  0  0  0  0
 26 23  1  0  0  0  0
 28 29  1  0  0  0  0
 28 27  1  0  0  0  0
 30 31  1  0  0  0  0
 30 29  1  0  0  0  0
 33 31  1  1  0  0  0
 33 35  1  0  0  0  0
 34 36  1  0  0  0  0
 34 33  1  0  0  0  0
 35 41  1  6  0  0  0
 36 38  1  0  0  0  0
 37 36  1  0  0  0  0
 38 32  2  0  0  0  0
 38 35  1  0  0  0  0
 40 41  2  0  0  0  0
 41 39  1  0  0  0  0
M  END
>  <MODEL>
1

>  <REMARK>
 VINA RESULT:      -7.2      0.000      0.000
  Name = 
  13 active torsions:
  status: ('A' for Active; 'I' for Inactive)
    1  A    between atoms: C_2  and  N_10
    2  A    between atoms: C_2  and  C_11
    3  A    between atoms: N_4  and  C_20
    4  A    between atoms: N_4  and  C_25
    5  A    between atoms: C_9  and  C_19
    6  A    between atoms: C_9  and  C_20
    7  A    between atoms: N_10  and  N_18
    8  A    between atoms: C_11  and  C_21
    9  A    between atoms: C_16  and  C_22
   10  A    between atoms: N_18  and  C_41
   11  A    between atoms: C_22  and  C_31
   12  A    between atoms: C_29  and  C_41
   13  A    between atoms: C_33  and  C_36
                            x       y       z     vdW  Elec       q    Type
                         _______ _______ _______ _____ _____    ______ ____

>  <TORSDO>
F 13

$$$$
=
 OpenBabel11042414263D

 41 46  0  0  1  0  0  0  0  0999 V2000
  190.6090  175.1650  142.6120 C   0  0  0  0  0  3  0  0  0  0  0  0
  190.1120  176.5870  142.9350 C   0  0  0  0  0  0  0  0  0  0  0  0
  188.1430  176.4000  141.3620 C   0  0  0  0  0  0  0  0  0  0  0  0
  189.3520  173.4240  140.8910 C   0  0  1  0  0  0  0  0  0  0  0  0
  189.0010  177.1270  142.3430 C   0  0  0  0  0  3  0  0  0  0  0  0
  188.1980  173.9910  140.3070 N   0  0  0  0  0  2  0  0  0  0  0  0
  189.7030  174.5440  141.6660 N   0  0  0  0  0  0  0  0  0  0  0  0
  188.5460  175.1790  141.0950 C   0  0  2  0  0  0  0  0  0  0  0  0
  190.8880  177.4350  143.8720 C   0  0  0  0  0  0  0  0  0  0  0  0
  191.4500  178.4740  143.4250 O   0  0  0  0  0  0  0  0  0  0  0  0
  192.1710  176.4420  145.8000 C   0  0  0  0  0  3  0  0  0  0  0  0
  191.2640  176.4850  148.0450 C   0  0  0  0  0  3  0  0  0  0  0  0
  190.0150  177.4530  146.2120 C   0  0  0  0  0  3  0  0  0  0  0  0
  190.1270  177.1450  147.5710 C   0  0  0  0  0  3  0  0  0  0  0  0
  191.0400  177.1150  145.3130 C   0  0  0  0  0  0  0  0  0  0  0  0
  192.2850  176.1320  147.1590 C   0  0  0  0  0  3  0  0  0  0  0  0
  186.9370  177.0050  140.7330 C   0  0  0  0  0  2  0  0  0  0  0  0
  186.3770  178.0970  141.6240 C   0  0  0  0  0  2  0  0  0  0  0  0
  185.2810  177.5620  142.4150 N   0  0  0  0  0  2  0  0  0  0  0  0
  186.1460  176.8550  144.4980 C   0  0  0  0  0  3  0  0  0  0  0  0
  185.5890  179.0470  146.5610 C   0  0  0  0  0  3  0  0  0  0  0  0
  184.3900  179.0750  145.7030 C   0  0  0  0  0  3  0  0  0  0  0  0
  186.4270  178.0150  146.6620 C   0  0  0  0  0  3  0  0  0  0  0  0
  184.2460  178.4500  144.5290 C   0  0  0  0  0  3  0  0  0  0  0  0
  185.2580  177.6080  143.8440 C   0  0  0  0  0  0  0  0  0  0  0  0
  186.1900  176.7100  145.9830 C   0  0  0  0  0  2  0  0  0  0  0  0
  188.9630  172.2540  141.7910 C   0  0  0  0  0  2  0  0  0  0  0  0
  190.1970  171.5340  142.3060 C   0  0  0  0  0  2  0  0  0  0  0  0
  190.3160  171.7160  143.7420 N   0  0  0  0  0  2  0  0  0  0  0  0
  191.6220  171.3410  144.0860 N   0  0  0  0  0  2  0  0  0  0  0  0
  192.2990  172.5440  144.5470 C   0  0  0  0  0  2  0  0  0  0  0  0
  196.4390  174.1370  145.9710 C   0  0  0  0  0  2  0  0  0  0  0  0
  193.7420  172.5830  144.0550 C   0  0  2  0  0  3  0  0  0  0  0  0
  194.5480  171.3830  144.5790 C   0  0  0  0  0  2  0  0  0  0  0  0
  194.4530  173.8660  144.5130 C   0  0  1  0  0  3  0  0  0  0  0  0
  195.6900  171.9490  145.2670 N   0  0  0  0  0  0  0  0  0  0  0  0
  196.6720  171.1490  145.9810 C   0  0  0  0  0  1  0  0  0  0  0  0
  195.6510  173.3630  145.2300 C   0  0  0  0  0  0  0  0  0  0  0  0
  194.3810  175.8770  143.2020 O   0  0  0  0  0  1  0  0  0  0  0  0
  195.6900  174.1910  142.3720 O   0  0  0  0  0  0  0  0  0  0  0  0
  194.8270  174.7060  143.3300 C   0  0  0  0  0  0  0  0  0  0  0  0
  1  2  2  0  0  0  0
  2  9  1  0  0  0  0
  3  5  2  0  0  0  0
  4  8  1  0  0  0  0
  4  7  1  0  0  0  0
  4 27  1  1  0  0  0
  5  2  1  0  0  0  0
  6  4  1  0  0  0  0
  7  1  1  0  0  0  0
  8  6  1  1  0  0  0
  8  3  1  0  0  0  0
  8  7  1  0  0  0  0
  9 15  1  0  0  0  0
 10  9  2  0  0  0  0
 11 16  1  0  0  0  0
 13 14  2  0  0  0  0
 14 12  1  0  0  0  0
 15 11  2  0  0  0  0
 15 13  1  0  0  0  0
 16 12  2  0  0  0  0
 17  3  1  0  0  0  0
 17 18  1  0  0  0  0
 18 19  1  0  0  0  0
 19 25  1  0  0  0  0
 20 26  1  0  0  0  0
 21 23  2  0  0  0  0
 22 21  1  0  0  0  0
 24 22  2  0  0  0  0
 25 20  2  0  0  0  0
 25 24  1  0  0  0  0
 26 23  1  0  0  0  0
 27 28  1  0  0  0  0
 28 29  1  0  0  0  0
 29 30  1  0  0  0  0
 30 31  1  0  0  0  0
 33 35  1  0  0  0  0
 33 31  1  1  0  0  0
 33 34  1  0  0  0  0
 34 36  1  0  0  0  0
 35 41  1  6  0  0  0
 35 38  1  0  0  0  0
 36 37  1  0  0  0  0
 38 36  1  0  0  0  0
 38 32  2  0  0  0  0
 39 41  1  0  0  0  0
 40 41  2  0  0  0  0
M  END
>  <MODEL>
2

>  <REMARK>
 VINA RESULT:      -7.1      2.439      4.701
  Name = 
  13 active torsions:
  status: ('A' for Active; 'I' for Inactive)
    1  A    between atoms: C_2  and  N_10
    2  A    between atoms: C_2  and  C_11
    3  A    between atoms: N_4  and  C_20
    4  A    between atoms: N_4  and  C_25
    5  A    between atoms: C_9  and  C_19
    6  A    between atoms: C_9  and  C_20
    7  A    between atoms: N_10  and  N_18
    8  A    between atoms: C_11  and  C_21
    9  A    between atoms: C_16  and  C_22
   10  A    between atoms: N_18  and  C_41
   11  A    between atoms: C_22  and  C_31
   12  A    between atoms: C_29  and  C_41
   13  A    between atoms: C_33  and  C_36
                            x       y       z     vdW  Elec       q    Type
                         _______ _______ _______ _____ _____    ______ ____

>  <TORSDO>
F 13

$$$$
=
 OpenBabel11042414263D

 41 46  0  0  1  0  0  0  0  0999 V2000
  190.3510  175.4690  142.4600 C   0  0  0  0  0  3  0  0  0  0  0  0
  189.9390  176.8680  142.9560 C   0  0  0  0  0  0  0  0  0  0  0  0
  187.9420  176.9750  141.4120 C   0  0  0  0  0  0  0  0  0  0  0  0
  188.9750  174.0140  140.5720 C   0  0  1  0  0  0  0  0  0  0  0  0
  188.8530  177.5340  142.4530 C   0  0  0  0  0  3  0  0  0  0  0  0
  187.8460  174.7080  140.0820 N   0  0  0  0  0  2  0  0  0  0  0  0
  189.3990  175.0140  141.4650 N   0  0  0  0  0  0  0  0  0  0  0  0
  188.2720  175.7750  140.9960 C   0  0  2  0  0  0  0  0  0  0  0  0
  190.7750  177.5570  143.9700 C   0  0  0  0  0  0  0  0  0  0  0  0
  191.3490  178.6350  143.6510 O   0  0  0  0  0  0  0  0  0  0  0  0
  190.0530  177.2940  146.3700 C   0  0  0  0  0  3  0  0  0  0  0  0
  191.4140  176.0550  147.9450 C   0  0  0  0  0  3  0  0  0  0  0  0
  192.1260  176.2870  145.6430 C   0  0  0  0  0  3  0  0  0  0  0  0
  192.3440  175.7970  146.9350 C   0  0  0  0  0  3  0  0  0  0  0  0
  190.9730  177.0310  145.3440 C   0  0  0  0  0  0  0  0  0  0  0  0
  190.2690  176.8060  147.6620 C   0  0  0  0  0  3  0  0  0  0  0  0
  186.7630  177.7150  140.8830 C   0  0  0  0  0  2  0  0  0  0  0  0
  186.0390  178.4200  142.0130 C   0  0  0  0  0  2  0  0  0  0  0  0
  185.3750  177.4360  142.8510 N   0  0  0  0  0  2  0  0  0  0  0  0
  186.2810  176.8000  144.9400 C   0  0  0  0  0  3  0  0  0  0  0  0
  185.6700  179.0140  146.9630 C   0  0  0  0  0  3  0  0  0  0  0  0
  184.4640  178.9860  146.1160 C   0  0  0  0  0  3  0  0  0  0  0  0
  186.5420  178.0130  147.0770 C   0  0  0  0  0  3  0  0  0  0  0  0
  184.3300  178.3320  144.9560 C   0  0  0  0  0  3  0  0  0  0  0  0
  185.3630  177.5100  144.2780 C   0  0  0  0  0  0  0  0  0  0  0  0
  186.3420  176.6860  146.4270 C   0  0  0  0  0  2  0  0  0  0  0  0
  188.5320  172.7690  141.3370 C   0  0  0  0  0  2  0  0  0  0  0  0
  189.7330  171.9650  141.8030 C   0  0  0  0  0  2  0  0  0  0  0  0
  189.8180  171.9900  143.2520 N   0  0  0  0  0  2  0  0  0  0  0  0
  191.0570  171.4330  143.5910 N   0  0  0  0  0  2  0  0  0  0  0  0
  191.7520  172.4150  144.4100 C   0  0  0  0  0  2  0  0  0  0  0  0
  194.8540  175.6430  143.1210 C   0  0  0  0  0  2  0  0  0  0  0  0
  193.2280  172.4990  144.0320 C   0  0  2  0  0  3  0  0  0  0  0  0
  194.1040  172.8170  145.2540 C   0  0  0  0  0  2  0  0  0  0  0  0
  193.4710  173.5900  142.9780 C   0  0  1  0  0  3  0  0  0  0  0  0
  194.8490  174.0090  144.9020 N   0  0  0  0  0  0  0  0  0  0  0  0
  195.7470  174.6920  145.8200 C   0  0  0  0  0  1  0  0  0  0  0  0
  194.5010  174.4550  143.6050 C   0  0  0  0  0  0  0  0  0  0  0  0
  195.0870  172.4200  141.6410 O   0  0  0  0  0  1  0  0  0  0  0  0
  193.1530  173.0220  140.5710 O   0  0  0  0  0  0  0  0  0  0  0  0
  193.9610  172.9820  141.7000 C   0  0  0  0  0  0  0  0  0  0  0  0
  1  2  2  0  0  0  0
  2  9  1  0  0  0  0
  3  5  2  0  0  0  0
  4  8  1  0  0  0  0
  4 27  1  1  0  0  0
  4  7  1  0  0  0  0
  5  2  1  0  0  0  0
  6  4  1  0  0  0  0
  7  1  1  0  0  0  0
  8  6  1  1  0  0  0
  8  3  1  0  0  0  0
  8  7  1  0  0  0  0
  9 15  1  0  0  0  0
 10  9  2  0  0  0  0
 11 16  1  0  0  0  0
 13 14  2  0  0  0  0
 14 12  1  0  0  0  0
 15 13  1  0  0  0  0
 15 11  2  0  0  0  0
 16 12  2  0  0  0  0
 17  3  1  0  0  0  0
 17 18  1  0  0  0  0
 18 19  1  0  0  0  0
 19 25  1  0  0  0  0
 20 26  1  0  0  0  0
 21 23  2  0  0  0  0
 22 21  1  0  0  0  0
 24 22  2  0  0  0  0
 25 20  2  0  0  0  0
 25 24  1  0  0  0  0
 26 23  1  0  0  0  0
 27 28  1  0  0  0  0
 28 29  1  0  0  0  0
 29 30  1  0  0  0  0
 30 31  1  0  0  0  0
 32 38  2  0  0  0  0
 33 31  1  1  0  0  0
 33 34  1  0  0  0  0
 35 41  1  6  0  0  0
 35 38  1  0  0  0  0
 35 33  1  0  0  0  0
 36 34  1  0  0  0  0
 36 37  1  0  0  0  0
 38 36  1  0  0  0  0
 39 41  1  0  0  0  0
 40 41  2  0  0  0  0
M  END
>  <MODEL>
3

>  <REMARK>
 VINA RESULT:      -7.1      2.238      4.781
  Name = 
  13 active torsions:
  status: ('A' for Active; 'I' for Inactive)
    1  A    between atoms: C_2  and  N_10
    2  A    between atoms: C_2  and  C_11
    3  A    between atoms: N_4  and  C_20
    4  A    between atoms: N_4  and  C_25
    5  A    between atoms: C_9  and  C_19
    6  A    between atoms: C_9  and  C_20
    7  A    between atoms: N_10  and  N_18
    8  A    between atoms: C_11  and  C_21
    9  A    between atoms: C_16  and  C_22
   10  A    between atoms: N_18  and  C_41
   11  A    between atoms: C_22  and  C_31
   12  A    between atoms: C_29  and  C_41
   13  A    between atoms: C_33  and  C_36
                            x       y       z     vdW  Elec       q    Type
                         _______ _______ _______ _____ _____    ______ ____

>  <TORSDO>
F 13

$$$$
=
 OpenBabel11042414263D

 41 46  0  0  1  0  0  0  0  0999 V2000
  192.4110  176.5470  144.0090 C   0  0  0  0  0  3  0  0  0  0  0  0
  192.5740  176.3750  145.5320 C   0  0  0  0  0  0  0  0  0  0  0  0
  190.1690  176.9950  145.9960 C   0  0  0  0  0  0  0  0  0  0  0  0
  190.0580  177.2370  142.7600 C   0  0  1  0  0  0  0  0  0  0  0  0
  191.5470  176.5990  146.4100 C   0  0  0  0  0  3  0  0  0  0  0  0
  189.0060  177.4420  143.6790 N   0  0  0  0  0  2  0  0  0  0  0  0
  191.0400  176.9170  143.7140 N   0  0  0  0  0  0  0  0  0  0  0  0
  190.0130  177.1240  144.6990 C   0  0  2  0  0  0  0  0  0  0  0  0
  193.9020  176.0130  146.0860 C   0  0  0  0  0  0  0  0  0  0  0  0
  194.5420  176.8820  146.7400 O   0  0  0  0  0  0  0  0  0  0  0  0
  193.7320  173.5180  145.7750 C   0  0  0  0  0  3  0  0  0  0  0  0
  195.7250  172.1530  145.5990 C   0  0  0  0  0  3  0  0  0  0  0  0
  195.9160  174.5480  145.8910 C   0  0  0  0  0  3  0  0  0  0  0  0
  196.5170  173.2950  145.7360 C   0  0  0  0  0  3  0  0  0  0  0  0
  194.5170  174.6750  145.9010 C   0  0  0  0  0  0  0  0  0  0  0  0
  194.3310  172.2640  145.6200 C   0  0  0  0  0  3  0  0  0  0  0  0
  189.0650  177.2290  146.9670 C   0  0  0  0  0  2  0  0  0  0  0  0
  188.0140  176.1450  146.8330 C   0  0  0  0  0  2  0  0  0  0  0  0
  186.7100  176.6890  147.1730 N   0  0  0  0  0  2  0  0  0  0  0  0
  185.0000  178.2180  146.6010 C   0  0  0  0  0  3  0  0  0  0  0  0
  185.2030  178.8060  143.6040 C   0  0  0  0  0  3  0  0  0  0  0  0
  185.5600  177.3790  143.6940 C   0  0  0  0  0  3  0  0  0  0  0  0
  184.5210  179.4800  144.5300 C   0  0  0  0  0  3  0  0  0  0  0  0
  185.8240  176.7020  144.8180 C   0  0  0  0  0  3  0  0  0  0  0  0
  185.8210  177.2440  146.2000 C   0  0  0  0  0  0  0  0  0  0  0  0
  183.9440  178.8310  145.7420 C   0  0  0  0  0  2  0  0  0  0  0  0
  189.7550  176.0270  141.8800 C   0  0  0  0  0  2  0  0  0  0  0  0
  188.2580  175.8290  141.7270 C   0  0  0  0  0  2  0  0  0  0  0  0
  187.9600  175.2700  140.4200 N   0  0  0  0  0  2  0  0  0  0  0  0
  188.9510  174.3150  140.1580 N   0  0  0  0  0  2  0  0  0  0  0  0
  188.3380  173.0080  140.3460 C   0  0  0  0  0  2  0  0  0  0  0  0
  192.4430  173.1990  142.5410 C   0  0  0  0  0  2  0  0  0  0  0  0
  189.2060  172.1190  141.2310 C   0  0  2  0  0  3  0  0  0  0  0  0
  188.9260  172.3660  142.7230 C   0  0  0  0  0  2  0  0  0  0  0  0
  190.7010  172.3740  140.9830 C   0  0  1  0  0  3  0  0  0  0  0  0
  190.2070  172.7030  143.3110 N   0  0  0  0  0  0  0  0  0  0  0  0
  190.3710  173.0870  144.7040 C   0  0  0  0  0  1  0  0  0  0  0  0
  191.2270  172.7050  142.3300 C   0  0  0  0  0  0  0  0  0  0  0  0
  191.5000  171.0110  139.1740 O   0  0  0  0  0  0  0  0  0  0  0  0
  191.8150  170.1620  141.2790 O   0  0  0  0  0  1  0  0  0  0  0  0
  191.3520  171.1490  140.4180 C   0  0  0  0  0  0  0  0  0  0  0  0
  1  2  2  0  0  0  0
  2  9  1  0  0  0  0
  2  5  1  0  0  0  0
  3  5  2  0  0  0  0
  3 17  1  0  0  0  0
  4 27  1  6  0  0  0
  4  6  1  0  0  0  0
  4  7  1  0  0  0  0
  4  8  1  0  0  0  0
  7  1  1  0  0  0  0
  7  8  1  0  0  0  0
  8  6  1  6  0  0  0
  8  3  1  0  0  0  0
  9 10  2  0  0  0  0
 11 15  1  0  0  0  0
 12 16  1  0  0  0  0
 12 14  2  0  0  0  0
 13 15  2  0  0  0  0
 14 13  1  0  0  0  0
 15  9  1  0  0  0  0
 16 11  2  0  0  0  0
 18 17  1  0  0  0  0
 18 19  1  0  0  0  0
 21 22  1  0  0  0  0
 21 23  2  0  0  0  0
 22 24  2  0  0  0  0
 23 26  1  0  0  0  0
 24 25  1  0  0  0  0
 25 20  2  0  0  0  0
 25 19  1  0  0  0  0
 26 20  1  0  0  0  0
 28 27  1  0  0  0  0
 29 28  1  0  0  0  0
 30 31  1  0  0  0  0
 30 29  1  0  0  0  0
 33 31  1  6  0  0  0
 33 34  1  0  0  0  0
 34 36  1  0  0  0  0
 35 41  1  1  0  0  0
 35 33  1  0  0  0  0
 35 38  1  0  0  0  0
 36 37  1  0  0  0  0
 38 32  2  0  0  0  0
 38 36  1  0  0  0  0
 39 41  2  0  0  0  0
 41 40  1  0  0  0  0
M  END
>  <MODEL>
4

>  <REMARK>
 VINA RESULT:      -7.0      2.547      6.220
  Name = 
  13 active torsions:
  status: ('A' for Active; 'I' for Inactive)
    1  A    between atoms: C_2  and  N_10
    2  A    between atoms: C_2  and  C_11
    3  A    between atoms: N_4  and  C_20
    4  A    between atoms: N_4  and  C_25
    5  A    between atoms: C_9  and  C_19
    6  A    between atoms: C_9  and  C_20
    7  A    between atoms: N_10  and  N_18
    8  A    between atoms: C_11  and  C_21
    9  A    between atoms: C_16  and  C_22
   10  A    between atoms: N_18  and  C_41
   11  A    between atoms: C_22  and  C_31
   12  A    between atoms: C_29  and  C_41
   13  A    between atoms: C_33  and  C_36
                            x       y       z     vdW  Elec       q    Type
                         _______ _______ _______ _____ _____    ______ ____

>  <TORSDO>
F 13

$$$$
=
 OpenBabel11042414263D

 41 46  0  0  1  0  0  0  0  0999 V2000
  190.6710  175.2430  142.7240 C   0  0  0  0  0  3  0  0  0  0  0  0
  190.3510  176.7240  143.0090 C   0  0  0  0  0  0  0  0  0  0  0  0
  188.2290  176.6680  141.6390 C   0  0  0  0  0  0  0  0  0  0  0  0
  189.0850  173.5630  141.2290 C   0  0  1  0  0  0  0  0  0  0  0  0
  189.2460  177.3480  142.4920 C   0  0  0  0  0  3  0  0  0  0  0  0
  187.9410  174.2190  140.7230 N   0  0  0  0  0  2  0  0  0  0  0  0
  189.6190  174.6760  141.9030 N   0  0  0  0  0  0  0  0  0  0  0  0
  188.4810  175.4010  141.4060 C   0  0  2  0  0  0  0  0  0  0  0  0
  191.2960  177.5300  143.8210 C   0  0  0  0  0  0  0  0  0  0  0  0
  191.2390  178.7890  143.7420 O   0  0  0  0  0  0  0  0  0  0  0  0
  193.6460  176.7660  144.3120 C   0  0  0  0  0  3  0  0  0  0  0  0
  194.1920  175.7240  146.4300 C   0  0  0  0  0  3  0  0  0  0  0  0
  191.9280  176.4560  145.9850 C   0  0  0  0  0  3  0  0  0  0  0  0
  192.8630  175.8640  146.8390 C   0  0  0  0  0  3  0  0  0  0  0  0
  192.3110  176.9240  144.7170 C   0  0  0  0  0  0  0  0  0  0  0  0
  194.5830  176.1740  145.1650 C   0  0  0  0  0  3  0  0  0  0  0  0
  187.0330  177.3650  141.0900 C   0  0  0  0  0  2  0  0  0  0  0  0
  186.4410  178.2870  142.1380 C   0  0  0  0  0  2  0  0  0  0  0  0
  185.4810  177.5510  142.9440 N   0  0  0  0  0  2  0  0  0  0  0  0
  186.4940  176.9050  144.9800 C   0  0  0  0  0  3  0  0  0  0  0  0
  185.7370  178.9580  147.1210 C   0  0  0  0  0  3  0  0  0  0  0  0
  184.5170  178.8590  146.2990 C   0  0  0  0  0  3  0  0  0  0  0  0
  186.6990  178.0370  147.1680 C   0  0  0  0  0  3  0  0  0  0  0  0
  184.4130  178.2500  145.1120 C   0  0  0  0  0  3  0  0  0  0  0  0
  185.4990  177.5580  144.3740 C   0  0  0  0  0  0  0  0  0  0  0  0
  186.6030  176.7290  146.4590 C   0  0  0  0  0  2  0  0  0  0  0  0
  188.6720  172.4840  142.2270 C   0  0  0  0  0  2  0  0  0  0  0  0
  189.8210  171.5310  142.5010 C   0  0  0  0  0  2  0  0  0  0  0  0
  190.6810  171.4370  141.3340 N   0  0  0  0  0  2  0  0  0  0  0  0
  191.9810  171.2290  141.8100 N   0  0  0  0  0  2  0  0  0  0  0  0
  192.8190  172.2590  141.2150 C   0  0  0  0  0  2  0  0  0  0  0  0
  196.5640  172.5580  143.9710 C   0  0  0  0  0  2  0  0  0  0  0  0
  193.3840  173.1910  142.2840 C   0  0  2  0  0  3  0  0  0  0  0  0
  194.3290  174.2390  141.6730 C   0  0  0  0  0  2  0  0  0  0  0  0
  194.1690  172.4080  143.3470 C   0  0  1  0  0  3  0  0  0  0  0  0
  195.5840  174.0940  142.3830 N   0  0  0  0  0  0  0  0  0  0  0  0
  196.7800  174.8550  142.0570 C   0  0  0  0  0  1  0  0  0  0  0  0
  195.5030  173.0580  143.3440 C   0  0  0  0  0  0  0  0  0  0  0  0
  192.3490  173.0280  144.7850 O   0  0  0  0  0  0  0  0  0  0  0  0
  194.1470  172.0510  145.8150 O   0  0  0  0  0  1  0  0  0  0  0  0
  193.4990  172.5230  144.6810 C   0  0  0  0  0  0  0  0  0  0  0  0
  1  2  2  0  0  0  0
  2  9  1  0  0  0  0
  3  5  2  0  0  0  0
  4  8  1  0  0  0  0
  4  7  1  0  0  0  0
  4 27  1  1  0  0  0
  5  2  1  0  0  0  0
  6  4  1  0  0  0  0
  7  1  1  0  0  0  0
  8  6  1  1  0  0  0
  8  3  1  0  0  0  0
  8  7  1  0  0  0  0
  9 15  1  0  0  0  0
 10  9  2  0  0  0  0
 11 15  2  0  0  0  0
 11 16  1  0  0  0  0
 12 14  1  0  0  0  0
 13 14  2  0  0  0  0
 15 13  1  0  0  0  0
 16 12  2  0  0  0  0
 17  3  1  0  0  0  0
 17 18  1  0  0  0  0
 18 19  1  0  0  0  0
 19 25  1  0  0  0  0
 20 26  1  0  0  0  0
 21 23  2  0  0  0  0
 22 21  1  0  0  0  0
 24 22  2  0  0  0  0
 25 20  2  0  0  0  0
 25 24  1  0  0  0  0
 26 23  1  0  0  0  0
 27 28  1  0  0  0  0
 29 30  1  0  0  0  0
 29 28  1  0  0  0  0
 31 30  1  0  0  0  0
 33 31  1  6  0  0  0
 33 35  1  0  0  0  0
 34 33  1  0  0  0  0
 34 36  1  0  0  0  0
 35 41  1  1  0  0  0
 36 38  1  0  0  0  0
 37 36  1  0  0  0  0
 38 35  1  0  0  0  0
 38 32  2  0  0  0  0
 41 39  2  0  0  0  0
 41 40  1  0  0  0  0
M  END
>  <MODEL>
5

>  <REMARK>
 VINA RESULT:      -6.8      2.012      5.009
  Name = 
  13 active torsions:
  status: ('A' for Active; 'I' for Inactive)
    1  A    between atoms: C_2  and  N_10
    2  A    between atoms: C_2  and  C_11
    3  A    between atoms: N_4  and  C_20
    4  A    between atoms: N_4  and  C_25
    5  A    between atoms: C_9  and  C_19
    6  A    between atoms: C_9  and  C_20
    7  A    between atoms: N_10  and  N_18
    8  A    between atoms: C_11  and  C_21
    9  A    between atoms: C_16  and  C_22
   10  A    between atoms: N_18  and  C_41
   11  A    between atoms: C_22  and  C_31
   12  A    between atoms: C_29  and  C_41
   13  A    between atoms: C_33  and  C_36
                            x       y       z     vdW  Elec       q    Type
                         _______ _______ _______ _____ _____    ______ ____

>  <TORSDO>
F 13

$$$$
=
 OpenBabel11042414263D

 41 46  0  0  1  0  0  0  0  0999 V2000
  188.2520  175.1040  141.3970 C   0  0  0  0  0  3  0  0  0  0  0  0
  188.3820  176.2110  142.4610 C   0  0  0  0  0  0  0  0  0  0  0  0
  189.3140  174.6240  144.1920 C   0  0  0  0  0  0  0  0  0  0  0  0
  189.0000  172.4820  141.7720 C   0  0  1  0  0  0  0  0  0  0  0  0
  188.8520  175.9630  143.7240 C   0  0  0  0  0  3  0  0  0  0  0  0
  189.5020  172.2510  143.0720 N   0  0  0  0  0  2  0  0  0  0  0  0
  188.7380  173.8530  141.9460 N   0  0  0  0  0  0  0  0  0  0  0  0
  189.2270  173.6770  143.2870 C   0  0  2  0  0  0  0  0  0  0  0  0
  187.9290  177.5870  142.1400 C   0  0  0  0  0  0  0  0  0  0  0  0
  188.6750  178.3200  141.4330 O   0  0  0  0  0  0  0  0  0  0  0  0
  185.4100  177.6490  142.1580 C   0  0  0  0  0  3  0  0  0  0  0  0
  184.2200  179.2630  143.5160 C   0  0  0  0  0  3  0  0  0  0  0  0
  186.6400  179.2190  143.5220 C   0  0  0  0  0  3  0  0  0  0  0  0
  185.4380  179.7730  143.9730 C   0  0  0  0  0  3  0  0  0  0  0  0
  186.6390  178.1440  142.6180 C   0  0  0  0  0  0  0  0  0  0  0  0
  184.2060  178.2010  142.6070 C   0  0  0  0  0  3  0  0  0  0  0  0
  189.8260  174.3770  145.5680 C   0  0  0  0  0  2  0  0  0  0  0  0
  189.7700  175.6550  146.3830 C   0  0  0  0  0  2  0  0  0  0  0  0
  188.5330  175.6890  147.1450 N   0  0  0  0  0  2  0  0  0  0  0  0
  186.3590  176.0470  146.2860 C   0  0  0  0  0  3  0  0  0  0  0  0
  185.2060  178.5530  147.6120 C   0  0  0  0  0  3  0  0  0  0  0  0
  186.6340  178.8830  147.4480 C   0  0  0  0  0  3  0  0  0  0  0  0
  184.5580  177.6160  146.9220 C   0  0  0  0  0  3  0  0  0  0  0  0
  187.6060  178.0280  147.1100 C   0  0  0  0  0  3  0  0  0  0  0  0
  187.4540  176.5760  146.8380 C   0  0  0  0  0  0  0  0  0  0  0  0
  185.1900  176.8440  145.8130 C   0  0  0  0  0  2  0  0  0  0  0  0
  190.1060  172.2780  140.7400 C   0  0  0  0  0  2  0  0  0  0  0  0
  190.7920  173.5930  140.4130 C   0  0  0  0  0  2  0  0  0  0  0  0
  192.2090  173.5070  140.7190 N   0  0  0  0  0  2  0  0  0  0  0  0
  192.4220  174.2920  141.8590 N   0  0  0  0  0  2  0  0  0  0  0  0
  193.5730  175.1370  141.5810 C   0  0  0  0  0  2  0  0  0  0  0  0
  193.3990  174.1930  146.1400 C   0  0  0  0  0  2  0  0  0  0  0  0
  194.2360  175.6040  142.8740 C   0  0  2  0  0  3  0  0  0  0  0  0
  195.4630  174.7450  143.2190 C   0  0  0  0  0  2  0  0  0  0  0  0
  193.2590  175.5310  144.0580 C   0  0  1  0  0  3  0  0  0  0  0  0
  195.2230  174.2390  144.5550 N   0  0  0  0  0  0  0  0  0  0  0  0
  196.1160  173.3130  145.2330 C   0  0  0  0  0  1  0  0  0  0  0  0
  193.9730  174.6860  145.0460 C   0  0  0  0  0  0  0  0  0  0  0  0
  191.9540  177.5380  144.2520 O   0  0  0  0  0  0  0  0  0  0  0  0
  193.8770  177.4730  145.4960 O   0  0  0  0  0  1  0  0  0  0  0  0
  192.9870  176.9030  144.5950 C   0  0  0  0  0  0  0  0  0  0  0  0
  1  7  1  0  0  0  0
  1  2  2  0  0  0  0
  2  5  1  0  0  0  0
  3 17  1  0  0  0  0
  4 27  1  6  0  0  0
  4  7  1  0  0  0  0
  4  6  1  0  0  0  0
  4  8  1  0  0  0  0
  5  3  2  0  0  0  0
  7  8  1  0  0  0  0
  8  6  1  6  0  0  0
  8  3  1  0  0  0  0
  9  2  1  0  0  0  0
  9 15  1  0  0  0  0
 10  9  2  0  0  0  0
 11 16  2  0  0  0  0
 11 15  1  0  0  0  0
 12 14  2  0  0  0  0
 13 14  1  0  0  0  0
 15 13  2  0  0  0  0
 16 12  1  0  0  0  0
 17 18  1  0  0  0  0
 18 19  1  0  0  0  0
 20 25  2  0  0  0  0
 22 21  1  0  0  0  0
 23 21  2  0  0  0  0
 24 22  2  0  0  0  0
 25 24  1  0  0  0  0
 25 19  1  0  0  0  0
 26 20  1  0  0  0  0
 26 23  1  0  0  0  0
 28 29  1  0  0  0  0
 28 27  1  0  0  0  0
 29 30  1  0  0  0  0
 31 30  1  0  0  0  0
 33 31  1  6  0  0  0
 33 34  1  0  0  0  0
 33 35  1  0  0  0  0
 34 36  1  0  0  0  0
 35 41  1  1  0  0  0
 35 38  1  0  0  0  0
 36 38  1  0  0  0  0
 36 37  1  0  0  0  0
 38 32  2  0  0  0  0
 39 41  2  0  0  0  0
 41 40  1  0  0  0  0
M  END
>  <MODEL>
6

>  <REMARK>
 VINA RESULT:      -6.8      2.495      4.915
  Name = 
  13 active torsions:
  status: ('A' for Active; 'I' for Inactive)
    1  A    between atoms: C_2  and  N_10
    2  A    between atoms: C_2  and  C_11
    3  A    between atoms: N_4  and  C_20
    4  A    between atoms: N_4  and  C_25
    5  A    between atoms: C_9  and  C_19
    6  A    between atoms: C_9  and  C_20
    7  A    between atoms: N_10  and  N_18
    8  A    between atoms: C_11  and  C_21
    9  A    between atoms: C_16  and  C_22
   10  A    between atoms: N_18  and  C_41
   11  A    between atoms: C_22  and  C_31
   12  A    between atoms: C_29  and  C_41
   13  A    between atoms: C_33  and  C_36
                            x       y       z     vdW  Elec       q    Type
                         _______ _______ _______ _____ _____    ______ ____

>  <TORSDO>
F 13

$$$$
=
 OpenBabel11042414263D

 41 46  0  0  1  0  0  0  0  0999 V2000
  190.4000  175.6020  145.4240 C   0  0  0  0  0  3  0  0  0  0  0  0
  189.0050  176.2550  145.4030 C   0  0  0  0  0  0  0  0  0  0  0  0
  188.4120  175.2340  143.1690 C   0  0  0  0  0  0  0  0  0  0  0  0
  191.3690  173.9270  143.4670 C   0  0  1  0  0  0  0  0  0  0  0  0
  188.1300  176.0840  144.3620 C   0  0  0  0  0  3  0  0  0  0  0  0
  190.4460  173.7460  142.4140 N   0  0  0  0  0  2  0  0  0  0  0  0
  190.5670  174.7910  144.2340 N   0  0  0  0  0  0  0  0  0  0  0  0
  189.5910  174.6560  143.1860 C   0  0  2  0  0  0  0  0  0  0  0  0
  188.6030  177.1530  146.5150 C   0  0  0  0  0  0  0  0  0  0  0  0
  189.4930  177.5690  147.3080 O   0  0  0  0  0  0  0  0  0  0  0  0
  186.8950  178.7620  147.4320 C   0  0  0  0  0  3  0  0  0  0  0  0
  184.5250  178.3240  147.1880 C   0  0  0  0  0  3  0  0  0  0  0  0
  186.1460  176.7660  146.2920 C   0  0  0  0  0  3  0  0  0  0  0  0
  184.8160  177.1370  146.5100 C   0  0  0  0  0  3  0  0  0  0  0  0
  187.2000  177.5790  146.7410 C   0  0  0  0  0  0  0  0  0  0  0  0
  185.5650  179.1350  147.6510 C   0  0  0  0  0  3  0  0  0  0  0  0
  187.4460  175.0590  142.0500 C   0  0  0  0  0  2  0  0  0  0  0  0
  187.8810  175.8780  140.8520 C   0  0  0  0  0  2  0  0  0  0  0  0
  187.8260  177.2920  141.1860 N   0  0  0  0  0  2  0  0  0  0  0  0
  185.6090  177.8560  140.5890 C   0  0  0  0  0  3  0  0  0  0  0  0
  184.0560  178.4810  143.1510 C   0  0  0  0  0  3  0  0  0  0  0  0
  185.4000  179.0170  143.4300 C   0  0  0  0  0  3  0  0  0  0  0  0
  183.5710  178.2400  141.9340 C   0  0  0  0  0  3  0  0  0  0  0  0
  186.5020  178.8020  142.7020 C   0  0  0  0  0  3  0  0  0  0  0  0
  186.6030  177.9760  141.4730 C   0  0  0  0  0  0  0  0  0  0  0  0
  184.3090  178.5850  140.6850 C   0  0  0  0  0  2  0  0  0  0  0  0
  191.5870  172.6090  144.2050 C   0  0  0  0  0  2  0  0  0  0  0  0
  193.0510  172.2080  144.1770 C   0  0  0  0  0  2  0  0  0  0  0  0
  193.7670  172.8600  145.2590 N   0  0  0  0  0  2  0  0  0  0  0  0
  194.9720  172.1630  145.4200 N   0  0  0  0  0  2  0  0  0  0  0  0
  196.0290  173.0270  144.9150 C   0  0  0  0  0  2  0  0  0  0  0  0
  197.2750  177.1540  143.1470 C   0  0  0  0  0  2  0  0  0  0  0  0
  195.4680  174.0850  143.9700 C   0  0  2  0  0  3  0  0  0  0  0  0
  195.9330  173.8510  142.5240 C   0  0  0  0  0  2  0  0  0  0  0  0
  195.9110  175.4960  144.3870 C   0  0  1  0  0  3  0  0  0  0  0  0
  196.5730  175.0850  142.1140 N   0  0  0  0  0  0  0  0  0  0  0  0
  197.2250  175.2590  140.8260 C   0  0  0  0  0  1  0  0  0  0  0  0
  196.5610  176.0320  143.1660 C   0  0  0  0  0  0  0  0  0  0  0  0
  194.6700  176.8570  145.9270 O   0  0  0  0  0  1  0  0  0  0  0  0
  193.6820  176.5000  143.8910 O   0  0  0  0  0  0  0  0  0  0  0  0
  194.7250  176.3180  144.7900 C   0  0  0  0  0  0  0  0  0  0  0  0
  2  1  2  0  0  0  0
  2  9  1  0  0  0  0
  3  8  1  0  0  0  0
  3  5  2  0  0  0  0
  4 27  1  1  0  0  0
  4  7  1  0  0  0  0
  5  2  1  0  0  0  0
  6  4  1  0  0  0  0
  7  1  1  0  0  0  0
  8  6  1  1  0  0  0
  8  4  1  0  0  0  0
  8  7  1  0  0  0  0
  9 15  1  0  0  0  0
  9 10  2  0  0  0  0
 11 16  1  0  0  0  0
 12 16  2  0  0  0  0
 13 14  2  0  0  0  0
 13 15  1  0  0  0  0
 14 12  1  0  0  0  0
 15 11  2  0  0  0  0
 17  3  1  0  0  0  0
 18 19  1  0  0  0  0
 18 17  1  0  0  0  0
 19 25  1  0  0  0  0
 20 26  1  0  0  0  0
 20 25  2  0  0  0  0
 21 22  1  0  0  0  0
 23 21  2  0  0  0  0
 24 22  2  0  0  0  0
 25 24  1  0  0  0  0
 26 23  1  0  0  0  0
 28 27  1  0  0  0  0
 28 29  1  0  0  0  0
 29 30  1  0  0  0  0
 31 30  1  0  0  0  0
 32 38  2  0  0  0  0
 33 35  1  0  0  0  0
 33 31  1  1  0  0  0
 34 33  1  0  0  0  0
 35 41  1  6  0  0  0
 36 34  1  0  0  0  0
 36 38  1  0  0  0  0
 37 36  1  0  0  0  0
 38 35  1  0  0  0  0
 40 41  2  0  0  0  0
 41 39  1  0  0  0  0
M  END
>  <MODEL>
7

>  <REMARK>
 VINA RESULT:      -6.8      2.042      2.957
  Name = 
  13 active torsions:
  status: ('A' for Active; 'I' for Inactive)
    1  A    between atoms: C_2  and  N_10
    2  A    between atoms: C_2  and  C_11
    3  A    between atoms: N_4  and  C_20
    4  A    between atoms: N_4  and  C_25
    5  A    between atoms: C_9  and  C_19
    6  A    between atoms: C_9  and  C_20
    7  A    between atoms: N_10  and  N_18
    8  A    between atoms: C_11  and  C_21
    9  A    between atoms: C_16  and  C_22
   10  A    between atoms: N_18  and  C_41
   11  A    between atoms: C_22  and  C_31
   12  A    between atoms: C_29  and  C_41
   13  A    between atoms: C_33  and  C_36
                            x       y       z     vdW  Elec       q    Type
                         _______ _______ _______ _____ _____    ______ ____

>  <TORSDO>
F 13

$$$$
=
 OpenBabel11042414263D

 41 46  0  0  1  0  0  0  0  0999 V2000
  190.5360  175.0390  142.3220 C   0  0  0  0  0  3  0  0  0  0  0  0
  189.9180  176.2830  142.9890 C   0  0  0  0  0  0  0  0  0  0  0  0
  187.9420  176.3100  141.4150 C   0  0  0  0  0  0  0  0  0  0  0  0
  189.4070  173.6720  140.2180 C   0  0  1  0  0  0  0  0  0  0  0  0
  188.7500  176.8480  142.5480 C   0  0  0  0  0  3  0  0  0  0  0  0
  188.1930  174.2550  139.7920 N   0  0  0  0  0  2  0  0  0  0  0  0
  189.6710  174.5910  141.2490 N   0  0  0  0  0  0  0  0  0  0  0  0
  188.4480  175.2380  140.8520 C   0  0  2  0  0  0  0  0  0  0  0  0
  190.6340  176.9410  144.1100 C   0  0  0  0  0  0  0  0  0  0  0  0
  191.1960  178.0520  143.9010 O   0  0  0  0  0  0  0  0  0  0  0  0
  189.7230  175.5030  145.9680 C   0  0  0  0  0  3  0  0  0  0  0  0
  190.9170  175.2830  148.0640 C   0  0  0  0  0  3  0  0  0  0  0  0
  191.8180  176.6650  146.2910 C   0  0  0  0  0  3  0  0  0  0  0  0
  191.9170  176.1330  147.5810 C   0  0  0  0  0  3  0  0  0  0  0  0
  190.7260  176.3470  145.4670 C   0  0  0  0  0  0  0  0  0  0  0  0
  189.8190  174.9700  147.2570 C   0  0  0  0  0  3  0  0  0  0  0  0
  186.6720  176.9370  140.9540 C   0  0  0  0  0  2  0  0  0  0  0  0
  186.5500  178.3400  141.5160 C   0  0  0  0  0  2  0  0  0  0  0  0
  185.3450  178.4350  142.3240 N   0  0  0  0  0  0  0  0  0  0  0  0
  184.2010  178.6120  144.3850 C   0  0  0  0  0  2  0  0  0  0  0  0
  185.8350  177.1450  146.5170 C   0  0  0  0  0  3  0  0  0  0  0  0
  186.8660  177.7530  145.6580 C   0  0  0  0  0  3  0  0  0  0  0  0
  184.5670  177.5500  146.5870 C   0  0  0  0  0  3  0  0  0  0  0  0
  186.6630  178.3210  144.4630 C   0  0  0  0  0  3  0  0  0  0  0  0
  185.3660  178.4500  143.7530 C   0  0  0  0  0  0  0  0  0  0  0  0
  184.0610  178.7520  145.8640 C   0  0  0  0  0  2  0  0  0  0  0  0
  189.1450  172.2840  140.7960 C   0  0  0  0  0  2  0  0  0  0  0  0
  190.4140  171.4500  140.8000 C   0  0  0  0  0  2  0  0  0  0  0  0
  190.6710  170.9390  142.1340 N   0  0  0  0  0  2  0  0  0  0  0  0
  191.7620  171.6610  142.6370 N   0  0  0  0  0  2  0  0  0  0  0  0
  191.9850  171.1970  143.9980 C   0  0  0  0  0  2  0  0  0  0  0  0
  195.9250  173.3410  142.7390 C   0  0  0  0  0  2  0  0  0  0  0  0
  193.1380  171.9520  144.6530 C   0  0  2  0  0  3  0  0  0  0  0  0
  192.8730  173.4670  144.6800 C   0  0  0  0  0  2  0  0  0  0  0  0
  194.4570  171.7160  143.9010 C   0  0  1  0  0  3  0  0  0  0  0  0
  194.0090  174.0740  144.0160 N   0  0  0  0  0  0  0  0  0  0  0  0
  194.1160  175.5020  143.7600 C   0  0  0  0  0  1  0  0  0  0  0  0
  194.9210  173.0870  143.5730 C   0  0  0  0  0  0  0  0  0  0  0  0
  195.7830  171.4750  145.8880 O   0  0  0  0  0  1  0  0  0  0  0  0
  195.9470  169.7710  144.3650 O   0  0  0  0  0  0  0  0  0  0  0  0
  195.4340  170.9940  144.7770 C   0  0  0  0  0  0  0  0  0  0  0  0
  1  2  2  0  0  0  0
  2  9  1  0  0  0  0
  3  5  2  0  0  0  0
  4 27  1  1  0  0  0
  4  8  1  0  0  0  0
  4  7  1  0  0  0  0
  5  2  1  0  0  0  0
  6  4  1  0  0  0  0
  7  1  1  0  0  0  0
  8  6  1  1  0  0  0
  8  7  1  0  0  0  0
  8  3  1  0  0  0  0
  9 15  1  0  0  0  0
 10  9  2  0  0  0  0
 11 16  1  0  0  0  0
 13 14  2  0  0  0  0
 14 12  1  0  0  0  0
 15 11  2  0  0  0  0
 15 13  1  0  0  0  0
 16 12  2  0  0  0  0
 17  3  1  0  0  0  0
 17 18  1  0  0  0  0
 18 19  1  0  0  0  0
 19 25  2  0  0  0  0
 20 26  1  0  0  0  0
 21 23  2  0  0  0  0
 22 21  1  0  0  0  0
 24 22  2  0  0  0  0
 25 20  1  0  0  0  0
 25 24  1  0  0  0  0
 26 23  1  0  0  0  0
 27 28  1  0  0  0  0
 28 29  1  0  0  0  0
 29 30  1  0  0  0  0
 30 31  1  0  0  0  0
 32 38  2  0  0  0  0
 33 31  1  6  0  0  0
 33 34  1  0  0  0  0
 35 33  1  0  0  0  0
 35 41  1  1  0  0  0
 36 34  1  0  0  0  0
 37 36  1  0  0  0  0
 38 35  1  0  0  0  0
 38 36  1  0  0  0  0
 40 41  2  0  0  0  0
 41 39  1  0  0  0  0
M  END
>  <MODEL>
8

>  <REMARK>
 VINA RESULT:      -6.8      1.962      4.420
  Name = 
  13 active torsions:
  status: ('A' for Active; 'I' for Inactive)
    1  A    between atoms: C_2  and  N_10
    2  A    between atoms: C_2  and  C_11
    3  A    between atoms: N_4  and  C_20
    4  A    between atoms: N_4  and  C_25
    5  A    between atoms: C_9  and  C_19
    6  A    between atoms: C_9  and  C_20
    7  A    between atoms: N_10  and  N_18
    8  A    between atoms: C_11  and  C_21
    9  A    between atoms: C_16  and  C_22
   10  A    between atoms: N_18  and  C_41
   11  A    between atoms: C_22  and  C_31
   12  A    between atoms: C_29  and  C_41
   13  A    between atoms: C_33  and  C_36
                            x       y       z     vdW  Elec       q    Type
                         _______ _______ _______ _____ _____    ______ ____

>  <TORSDO>
F 13

$$$$
=
 OpenBabel11042414263D

 41 46  0  0  1  0  0  0  0  0999 V2000
  190.0630  173.2000  141.7980 C   0  0  0  0  0  3  0  0  0  0  0  0
  189.5190  173.8820  143.0680 C   0  0  0  0  0  0  0  0  0  0  0  0
  187.9290  175.3490  141.7620 C   0  0  0  0  0  0  0  0  0  0  0  0
  189.1890  173.7330  139.2440 C   0  0  1  0  0  0  0  0  0  0  0  0
  188.5630  174.8630  143.0220 C   0  0  0  0  0  3  0  0  0  0  0  0
  188.1900  174.7310  139.2190 N   0  0  0  0  0  2  0  0  0  0  0  0
  189.3750  173.7310  140.6370 N   0  0  0  0  0  0  0  0  0  0  0  0
  188.3710  174.7600  140.6750 C   0  0  2  0  0  0  0  0  0  0  0  0
  190.0840  173.5170  144.3910 C   0  0  0  0  0  0  0  0  0  0  0  0
  190.2930  172.2980  144.6430 O   0  0  0  0  0  0  0  0  0  0  0  0
  191.4690  175.4270  145.2770 C   0  0  0  0  0  3  0  0  0  0  0  0
  191.0190  176.3740  147.4600 C   0  0  0  0  0  3  0  0  0  0  0  0
  189.6700  174.5440  146.6290 C   0  0  0  0  0  3  0  0  0  0  0  0
  189.9690  175.4680  147.6350 C   0  0  0  0  0  3  0  0  0  0  0  0
  190.4090  174.5200  145.4350 C   0  0  0  0  0  0  0  0  0  0  0  0
  191.7700  176.3510  146.2810 C   0  0  0  0  0  3  0  0  0  0  0  0
  186.8890  176.4140  141.7350 C   0  0  0  0  0  2  0  0  0  0  0  0
  187.5430  177.7820  141.7420 C   0  0  0  0  0  2  0  0  0  0  0  0
  186.7230  178.7060  142.5080 N   0  0  0  0  0  2  0  0  0  0  0  0
  185.2540  178.9490  144.3450 C   0  0  0  0  0  3  0  0  0  0  0  0
  185.9310  176.7880  146.4050 C   0  0  0  0  0  3  0  0  0  0  0  0
  187.2480  177.1620  145.8610 C   0  0  0  0  0  3  0  0  0  0  0  0
  184.8360  177.5460  146.3370 C   0  0  0  0  0  3  0  0  0  0  0  0
  187.4690  177.9170  144.7780 C   0  0  0  0  0  3  0  0  0  0  0  0
  186.4400  178.5260  143.8980 C   0  0  0  0  0  0  0  0  0  0  0  0
  184.8430  178.9290  145.7800 C   0  0  0  0  0  2  0  0  0  0  0  0
  188.6080  172.3990  138.7820 C   0  0  0  0  0  2  0  0  0  0  0  0
  189.7050  171.4750  138.2830 C   0  0  0  0  0  2  0  0  0  0  0  0
  190.7880  172.2510  137.7060 N   0  0  0  0  0  2  0  0  0  0  0  0
  191.9710  171.5530  137.9780 N   0  0  0  0  0  2  0  0  0  0  0  0
  192.0720  171.4410  139.4260 C   0  0  0  0  0  2  0  0  0  0  0  0
  193.1640  175.3220  141.7620 C   0  0  0  0  0  2  0  0  0  0  0  0
  193.3170  172.1540  139.9450 C   0  0  2  0  0  3  0  0  0  0  0  0
  193.6310  171.7520  141.3950 C   0  0  0  0  0  2  0  0  0  0  0  0
  193.1440  173.6800  139.9040 C   0  0  1  0  0  3  0  0  0  0  0  0
  193.6810  172.9920  142.1430 N   0  0  0  0  0  0  0  0  0  0  0  0
  193.8780  173.0510  143.5830 C   0  0  0  0  0  1  0  0  0  0  0  0
  193.4100  174.0980  141.3030 C   0  0  0  0  0  0  0  0  0  0  0  0
  193.8070  175.2980  138.2580 O   0  0  0  0  0  0  0  0  0  0  0  0
  195.3940  173.7480  138.8310 O   0  0  0  0  0  1  0  0  0  0  0  0
  194.1210  174.2910  138.9470 C   0  0  0  0  0  0  0  0  0  0  0  0
  1  2  2  0  0  0  0
  2  9  1  0  0  0  0
  3  5  2  0  0  0  0
  4 27  1  1  0  0  0
  4  7  1  0  0  0  0
  4  8  1  0  0  0  0
  5  2  1  0  0  0  0
  6  4  1  0  0  0  0
  7  8  1  0  0  0  0
  7  1  1  0  0  0  0
  8  6  1  1  0  0  0
  8  3  1  0  0  0  0
  9 10  2  0  0  0  0
  9 15  1  0  0  0  0
 11 15  2  0  0  0  0
 11 16  1  0  0  0  0
 12 14  1  0  0  0  0
 13 14  2  0  0  0  0
 15 13  1  0  0  0  0
 16 12  2  0  0  0  0
 17 18  1  0  0  0  0
 17  3  1  0  0  0  0
 18 19  1  0  0  0  0
 19 25  1  0  0  0  0
 20 26  1  0  0  0  0
 22 21  1  0  0  0  0
 23 21  2  0  0  0  0
 24 22  2  0  0  0  0
 25 20  2  0  0  0  0
 25 24  1  0  0  0  0
 26 23  1  0  0  0  0
 28 27  1  0  0  0  0
 29 30  1  0  0  0  0
 29 28  1  0  0  0  0
 30 31  1  0  0  0  0
 33 31  1  1  0  0  0
 33 34  1  0  0  0  0
 34 36  1  0  0  0  0
 35 41  1  6  0  0  0
 35 33  1  0  0  0  0
 35 38  1  0  0  0  0
 36 37  1  0  0  0  0
 38 32  2  0  0  0  0
 38 36  1  0  0  0  0
 39 41  2  0  0  0  0
 40 41  1  0  0  0  0
M  END
>  <MODEL>
9

>  <REMARK>
 VINA RESULT:      -6.7      2.836      5.217
  Name = 
  13 active torsions:
  status: ('A' for Active; 'I' for Inactive)
    1  A    between atoms: C_2  and  N_10
    2  A    between atoms: C_2  and  C_11
    3  A    between atoms: N_4  and  C_20
    4  A    between atoms: N_4  and  C_25
    5  A    between atoms: C_9  and  C_19
    6  A    between atoms: C_9  and  C_20
    7  A    between atoms: N_10  and  N_18
    8  A    between atoms: C_11  and  C_21
    9  A    between atoms: C_16  and  C_22
   10  A    between atoms: N_18  and  C_41
   11  A    between atoms: C_22  and  C_31
   12  A    between atoms: C_29  and  C_41
   13  A    between atoms: C_33  and  C_36
                            x       y       z     vdW  Elec       q    Type
                         _______ _______ _______ _____ _____    ______ ____

>  <TORSDO>
F 13

$$$$
