=
 OpenBabel11042419263D

 40 45  0  0  1  0  0  0  0  0999 V2000
  189.3440  175.1420  143.9270 N   0  0  0  0  0  0  0  0  0  0  0  0
  188.6060  174.9870  141.5580 C   0  0  0  0  0  3  0  0  0  0  0  0
  192.0150  174.5260  141.6380 C   0  0  0  0  0  2  0  0  0  0  0  0
  190.7260  173.6950  141.8790 C   0  0  2  0  0  3  0  0  0  0  0  0
  193.3960  174.6590  144.6250 C   0  0  2  0  0  3  0  0  0  0  0  0
  190.3650  171.2180  141.3680 N   0  0  0  0  0  0  0  0  0  0  0  0
  191.8320  176.6570  145.4670 O   0  0  0  0  0  1  0  0  0  0  0  0
  189.1680  175.5460  145.2210 C   0  0  0  0  0  0  0  0  0  0  0  0
  189.7270  174.9830  147.5930 C   0  0  0  0  0  1  0  0  0  0  0  0
  194.4960  173.7540  141.4530 C   0  0  0  0  0  2  0  0  0  0  0  0
  193.0710  171.1440  140.8090 N   0  0  0  0  0  0  0  0  0  0  0  0
  187.3040  176.1860  143.2710 C   0  0  0  0  0  3  0  0  0  0  0  0
  191.5700  175.3680  145.9610 C   0  0  2  0  0  3  0  0  0  0  0  0
  192.0460  174.3300  145.0480 N   0  0  0  0  0  2  0  0  0  0  0  0
  191.1250  172.3400  141.4190 C   0  0  0  0  0  0  0  0  0  0  0  0
  193.9670  173.5350  143.8680 N   0  0  2  0  0  0  0  0  0  0  0  0
  193.0580  173.5590  141.2710 N   0  0  0  0  0  0  0  0  0  0  0  0
  188.4400  175.4370  142.9520 C   0  0  0  0  0  0  0  0  0  0  0  0
  194.3580  173.7860  145.2870 C   0  0  1  0  0  3  0  0  0  0  0  0
  194.8480  174.1610  142.8840 C   0  0  0  0  0  2  0  0  0  0  0  0
  188.0380  176.3050  145.5600 C   0  0  0  0  0  3  0  0  0  0  0  0
  189.5880  174.2250  141.0720 C   0  0  0  0  0  3  0  0  0  0  0  0
  192.9540  168.7770  140.3630 N   0  0  0  0  0  1  0  0  0  0  0  0
  190.1430  175.2230  146.2210 N   0  0  0  0  0  0  0  0  0  0  0  0
  187.0940  176.6330  144.5830 C   0  0  0  0  0  0  0  0  0  0  0  0
  192.4520  172.2990  141.1490 C   0  0  0  0  0  0  0  0  0  0  0  0
  190.9490  170.0390  141.0030 C   0  0  0  0  0  3  0  0  0  0  0  0
  192.3320  170.0020  140.7240 C   0  0  0  0  0  0  0  0  0  0  0  0
  185.2370  177.2170  146.1780 C   0  0  0  0  0  2  0  0  0  0  0  0
  184.4570  178.4790  146.5450 C   0  0  0  0  0  2  0  0  0  0  0  0
  183.6140  178.8400  145.4760 O   0  0  0  0  0  0  0  0  0  0  0  0
  185.9410  177.4320  144.9090 N   0  0  0  0  0  0  0  0  0  0  0  0
  184.4580  179.3270  144.4600 C   0  0  0  0  0  2  0  0  0  0  0  0
  185.2470  178.1690  143.8490 C   0  0  0  0  0  2  0  0  0  0  0  0
  195.6910  174.5250  145.4820 C   0  0  0  0  0  2  0  0  0  0  0  0
  196.6860  173.6290  146.2040 C   0  0  0  0  0  2  0  0  0  0  0  0
  197.2090  172.5400  145.2740 C   0  0  0  0  0  2  0  0  0  0  0  0
  196.8680  171.1770  145.8340 C   0  0  0  0  0  2  0  0  0  0  0  0
  195.8360  170.6170  145.0860 O   0  0  0  0  0  0  0  0  0  0  0  0
  194.9450  170.1050  146.0390 C   0  0  0  0  0  1  0  0  0  0  0  0
  1  8  1  0  0  0  0
  2 18  1  0  0  0  0
  3  4  1  0  0  0  0
  4 22  1  6  0  0  0
  5 14  1  1  0  0  0
  5 19  1  0  0  0  0
  6 15  1  0  0  0  0
  8 21  2  0  0  0  0
  8 24  1  0  0  0  0
 10 20  1  0  0  0  0
 11 26  1  0  0  0  0
 12 25  2  0  0  0  0
 13  7  1  6  0  0  0
 13 24  1  0  0  0  0
 14 13  1  0  0  0  0
 15  4  1  0  0  0  0
 16 20  1  6  0  0  0
 16  5  1  0  0  0  0
 16 19  1  0  0  0  0
 17 10  1  0  0  0  0
 17  3  1  0  0  0  0
 18 12  1  0  0  0  0
 18  1  2  0  0  0  0
 19 35  1  6  0  0  0
 22  2  2  0  0  0  0
 23 28  1  0  0  0  0
 24  9  1  0  0  0  0
 25 32  1  0  0  0  0
 25 21  1  0  0  0  0
 26 17  1  0  0  0  0
 26 15  2  0  0  0  0
 27  6  2  0  0  0  0
 28 11  2  0  0  0  0
 28 27  1  0  0  0  0
 29 30  1  0  0  0  0
 31 30  1  0  0  0  0
 32 29  1  0  0  0  0
 33 31  1  0  0  0  0
 34 33  1  0  0  0  0
 34 32  1  0  0  0  0
 35 36  1  0  0  0  0
 37 38  1  0  0  0  0
 37 36  1  0  0  0  0
 39 38  1  0  0  0  0
 39 40  1  0  0  0  0
M  END
>  <MODEL>
1

>  <REMARK>
 VINA RESULT:      -7.8      0.000      0.000
  Name = 
  6 active torsions:
  status: ('A' for Active; 'I' for Inactive)
    1  A    between atoms: C_4  and  C_8
    2  A    between atoms: C_4  and  C_30
    3  A    between atoms: C_8  and  C_25
    4  A    between atoms: C_24  and  C_30
    5  A    between atoms: C_25  and  O_27
    6  A    between atoms: N_32  and  C_35
                            x       y       z     vdW  Elec       q    Type
                         _______ _______ _______ _____ _____    ______ ____

>  <TORSDO>
F 6

$$$$
=
 OpenBabel11042419263D

 40 45  0  0  1  0  0  0  0  0999 V2000
  189.8930  175.6240  144.3760 N   0  0  0  0  0  0  0  0  0  0  0  0
  191.0650  176.0430  146.5280 C   0  0  0  0  0  3  0  0  0  0  0  0
  192.6260  173.4020  144.9700 C   0  0  0  0  0  2  0  0  0  0  0  0
  192.6260  174.9530  144.9040 C   0  0  2  0  0  3  0  0  0  0  0  0
  191.3610  172.5230  142.0580 C   0  0  2  0  0  3  0  0  0  0  0  0
  194.6120  176.4770  144.3910 N   0  0  0  0  0  0  0  0  0  0  0  0
  188.8310  172.9180  142.8240 O   0  0  0  0  0  1  0  0  0  0  0  0
  188.8030  175.7200  143.5590 C   0  0  0  0  0  0  0  0  0  0  0  0
  188.0940  175.8240  141.1620 C   0  0  0  0  0  1  0  0  0  0  0  0
  194.2200  171.6760  143.8460 C   0  0  0  0  0  2  0  0  0  0  0  0
  195.9830  174.1540  143.7890 N   0  0  0  0  0  0  0  0  0  0  0  0
  188.7330  176.7330  146.1380 C   0  0  0  0  0  3  0  0  0  0  0  0
  189.4090  173.8660  141.9640 C   0  0  2  0  0  3  0  0  0  0  0  0
  190.8660  173.8890  142.0830 N   0  0  0  0  0  2  0  0  0  0  0  0
  194.0350  175.2590  144.5440 C   0  0  0  0  0  0  0  0  0  0  0  0
  192.8290  172.5290  141.9760 N   0  0  2  0  0  0  0  0  0  0  0  0
  193.9330  172.9730  144.4570 N   0  0  0  0  0  0  0  0  0  0  0  0
  189.8880  176.1190  145.6450 C   0  0  0  0  0  0  0  0  0  0  0  0
  191.9920  172.2400  140.7740 C   0  0  1  0  0  3  0  0  0  0  0  0
  193.2460  171.3400  142.7170 C   0  0  0  0  0  2  0  0  0  0  0  0
  187.6320  176.3270  144.0370 C   0  0  0  0  0  3  0  0  0  0  0  0
  192.2660  175.5450  146.2250 C   0  0  0  0  0  3  0  0  0  0  0  0
  197.9410  175.4220  143.1780 N   0  0  0  0  0  1  0  0  0  0  0  0
  188.8410  175.1820  142.2310 N   0  0  0  0  0  0  0  0  0  0  0  0
  187.5880  176.8390  145.3370 C   0  0  0  0  0  0  0  0  0  0  0  0
  194.7090  174.1230  144.2430 C   0  0  0  0  0  0  0  0  0  0  0  0
  195.9050  176.5470  143.9590 C   0  0  0  0  0  3  0  0  0  0  0  0
  196.6020  175.3600  143.6460 C   0  0  0  0  0  0  0  0  0  0  0  0
  186.1370  177.4580  147.2980 C   0  0  0  0  0  2  0  0  0  0  0  0
  185.1600  178.5840  147.6320 C   0  0  0  0  0  2  0  0  0  0  0  0
  183.9950  178.4440  146.8510 O   0  0  0  0  0  0  0  0  0  0  0  0
  186.3860  177.4430  145.8530 N   0  0  0  0  0  0  0  0  0  0  0  0
  184.3630  178.7840  145.5360 C   0  0  0  0  0  2  0  0  0  0  0  0
  185.2550  177.6880  144.9530 C   0  0  0  0  0  2  0  0  0  0  0  0
  191.8290  170.7510  140.4270 C   0  0  0  0  0  2  0  0  0  0  0  0
  190.9540  170.5940  139.1920 C   0  0  0  0  0  2  0  0  0  0  0  0
  190.9130  171.8890  138.3890 C   0  0  0  0  0  2  0  0  0  0  0  0
  189.4850  172.3750  138.2680 C   0  0  0  0  0  2  0  0  0  0  0  0
  189.4530  173.7560  138.4450 O   0  0  0  0  0  0  0  0  0  0  0  0
  188.2440  174.1600  137.8630 C   0  0  0  0  0  1  0  0  0  0  0  0
  1 18  1  0  0  0  0
  4  3  1  1  0  0  0
  4 22  1  0  0  0  0
  5 14  1  6  0  0  0
  6 15  1  0  0  0  0
  8 21  1  0  0  0  0
  8  1  2  0  0  0  0
  9 24  1  0  0  0  0
 10 17  1  0  0  0  0
 11 26  1  0  0  0  0
 13 14  1  0  0  0  0
 13 24  1  0  0  0  0
 13  7  1  1  0  0  0
 15  4  1  0  0  0  0
 16  5  1  0  0  0  0
 16 20  1  1  0  0  0
 17  3  1  0  0  0  0
 18 12  2  0  0  0  0
 18  2  1  0  0  0  0
 19 35  1  1  0  0  0
 19 16  1  0  0  0  0
 19  5  1  0  0  0  0
 20 10  1  0  0  0  0
 21 25  2  0  0  0  0
 22  2  2  0  0  0  0
 23 28  1  0  0  0  0
 24  8  1  0  0  0  0
 25 32  1  0  0  0  0
 25 12  1  0  0  0  0
 26 17  1  0  0  0  0
 26 15  2  0  0  0  0
 27  6  2  0  0  0  0
 28 11  2  0  0  0  0
 28 27  1  0  0  0  0
 29 30  1  0  0  0  0
 31 30  1  0  0  0  0
 32 29  1  0  0  0  0
 33 31  1  0  0  0  0
 34 33  1  0  0  0  0
 34 32  1  0  0  0  0
 36 35  1  0  0  0  0
 37 36  1  0  0  0  0
 38 37  1  0  0  0  0
 38 39  1  0  0  0  0
 40 39  1  0  0  0  0
M  END
>  <MODEL>
2

>  <REMARK>
 VINA RESULT:      -7.6      2.351      5.573
  Name = 
  6 active torsions:
  status: ('A' for Active; 'I' for Inactive)
    1  A    between atoms: C_4  and  C_8
    2  A    between atoms: C_4  and  C_30
    3  A    between atoms: C_8  and  C_25
    4  A    between atoms: C_24  and  C_30
    5  A    between atoms: C_25  and  O_27
    6  A    between atoms: N_32  and  C_35
                            x       y       z     vdW  Elec       q    Type
                         _______ _______ _______ _____ _____    ______ ____

>  <TORSDO>
F 6

$$$$
=
 OpenBabel11042419263D

 40 45  0  0  1  0  0  0  0  0999 V2000
  189.3980  175.3640  143.4500 N   0  0  0  0  0  0  0  0  0  0  0  0
  188.0560  174.1950  141.7140 C   0  0  0  0  0  3  0  0  0  0  0  0
  191.3470  174.1510  140.7130 C   0  0  0  0  0  2  0  0  0  0  0  0
  190.4160  173.3630  141.6720 C   0  0  2  0  0  3  0  0  0  0  0  0
  193.4730  175.6140  142.7610 C   0  0  2  0  0  3  0  0  0  0  0  0
  190.5070  170.8660  142.2090 N   0  0  0  0  0  0  0  0  0  0  0  0
  191.8050  177.6120  143.3680 O   0  0  0  0  0  1  0  0  0  0  0  0
  189.5210  176.2330  144.4960 C   0  0  0  0  0  0  0  0  0  0  0  0
  190.8660  176.7320  146.5450 C   0  0  0  0  0  1  0  0  0  0  0  0
  193.7730  173.6260  139.9240 C   0  0  0  0  0  2  0  0  0  0  0  0
  192.8700  170.8480  140.7750 N   0  0  0  0  0  0  0  0  0  0  0  0
  187.0720  175.8440  143.2570 C   0  0  0  0  0  3  0  0  0  0  0  0
  192.0060  176.6110  144.3330 C   0  0  2  0  0  3  0  0  0  0  0  0
  192.4220  175.3480  143.7270 N   0  0  0  0  0  2  0  0  0  0  0  0
  190.9660  171.9850  141.5950 C   0  0  0  0  0  0  0  0  0  0  0  0
  194.0420  174.3440  142.2840 N   0  0  2  0  0  0  0  0  0  0  0  0
  192.4320  173.2300  140.3510 N   0  0  0  0  0  0  0  0  0  0  0  0
  188.2060  175.1490  142.8280 C   0  0  0  0  0  0  0  0  0  0  0  0
  194.7620  175.1820  143.2880 C   0  0  1  0  0  3  0  0  0  0  0  0
  194.4250  174.6070  140.8980 C   0  0  0  0  0  2  0  0  0  0  0  0
  188.3970  176.9460  144.9370 C   0  0  0  0  0  3  0  0  0  0  0  0
  189.0010  173.4050  141.2000 C   0  0  0  0  0  3  0  0  0  0  0  0
  193.1810  168.5030  141.2420 N   0  0  0  0  0  1  0  0  0  0  0  0
  190.7930  176.4410  145.1230 N   0  0  0  0  0  0  0  0  0  0  0  0
  187.1580  176.7570  144.3170 C   0  0  0  0  0  0  0  0  0  0  0  0
  192.1270  171.9730  140.8960 C   0  0  0  0  0  0  0  0  0  0  0  0
  191.2160  169.7060  142.0870 C   0  0  0  0  0  3  0  0  0  0  0  0
  192.4250  169.7000  141.3590 C   0  0  0  0  0  0  0  0  0  0  0  0
  185.2780  177.0990  145.9550 C   0  0  0  0  0  2  0  0  0  0  0  0
  184.4900  178.2930  146.4930 C   0  0  0  0  0  2  0  0  0  0  0  0
  183.6600  178.8060  145.4760 O   0  0  0  0  0  0  0  0  0  0  0  0
  185.9980  177.4990  144.7410 N   0  0  0  0  0  0  0  0  0  0  0  0
  184.5160  179.4380  144.5550 C   0  0  0  0  0  2  0  0  0  0  0  0
  185.3170  178.3830  143.7910 C   0  0  0  0  0  2  0  0  0  0  0  0
  195.8840  176.0690  142.7230 C   0  0  0  0  0  2  0  0  0  0  0  0
  197.2100  175.7170  143.3810 C   0  0  0  0  0  2  0  0  0  0  0  0
  197.6400  174.3020  143.0120 C   0  0  0  0  0  2  0  0  0  0  0  0
  197.9410  173.5120  144.2670 C   0  0  0  0  0  2  0  0  0  0  0  0
  197.4430  174.1960  145.3720 O   0  0  0  0  0  0  0  0  0  0  0  0
  196.9520  173.1920  146.2190 C   0  0  0  0  0  1  0  0  0  0  0  0
  1  8  1  0  0  0  0
  2 18  1  0  0  0  0
  4  3  1  6  0  0  0
  5 19  1  0  0  0  0
  5 14  1  1  0  0  0
  8 21  2  0  0  0  0
  8 24  1  0  0  0  0
 10 17  1  0  0  0  0
 10 20  1  0  0  0  0
 11 26  2  0  0  0  0
 11 28  1  0  0  0  0
 12 25  2  0  0  0  0
 13  7  1  6  0  0  0
 13 24  1  0  0  0  0
 14 13  1  0  0  0  0
 15  4  1  0  0  0  0
 15  6  2  0  0  0  0
 16 20  1  6  0  0  0
 16  5  1  0  0  0  0
 16 19  1  0  0  0  0
 17  3  1  0  0  0  0
 17 26  1  0  0  0  0
 18 12  1  0  0  0  0
 18  1  2  0  0  0  0
 19 35  1  6  0  0  0
 22  4  1  0  0  0  0
 22  2  2  0  0  0  0
 23 28  1  0  0  0  0
 24  9  1  0  0  0  0
 25 32  1  0  0  0  0
 25 21  1  0  0  0  0
 26 15  1  0  0  0  0
 27  6  1  0  0  0  0
 28 27  2  0  0  0  0
 29 30  1  0  0  0  0
 31 30  1  0  0  0  0
 32 29  1  0  0  0  0
 33 31  1  0  0  0  0
 34 33  1  0  0  0  0
 34 32  1  0  0  0  0
 35 36  1  0  0  0  0
 37 36  1  0  0  0  0
 37 38  1  0  0  0  0
 38 39  1  0  0  0  0
 39 40  1  0  0  0  0
M  END
>  <MODEL>
3

>  <REMARK>
 VINA RESULT:      -7.2      1.466      1.757
  Name = 
  6 active torsions:
  status: ('A' for Active; 'I' for Inactive)
    1  A    between atoms: C_4  and  C_8
    2  A    between atoms: C_4  and  C_30
    3  A    between atoms: C_8  and  C_25
    4  A    between atoms: C_24  and  C_30
    5  A    between atoms: C_25  and  O_27
    6  A    between atoms: N_32  and  C_35
                            x       y       z     vdW  Elec       q    Type
                         _______ _______ _______ _____ _____    ______ ____

>  <TORSDO>
F 6

$$$$
=
 OpenBabel11042419263D

 40 45  0  0  1  0  0  0  0  0999 V2000
  189.8590  175.5140  144.4750 N   0  0  0  0  0  0  0  0  0  0  0  0
  190.9500  176.6220  146.4160 C   0  0  0  0  0  3  0  0  0  0  0  0
  192.6640  173.7120  145.7580 C   0  0  0  0  0  2  0  0  0  0  0  0
  192.6020  175.1680  145.2240 C   0  0  2  0  0  3  0  0  0  0  0  0
  191.5230  171.9320  143.2320 C   0  0  2  0  0  3  0  0  0  0  0  0
  194.5360  176.5600  144.3020 N   0  0  0  0  0  0  0  0  0  0  0  0
  188.9570  172.4170  143.8040 O   0  0  0  0  0  1  0  0  0  0  0  0
  188.7910  175.3050  143.6510 C   0  0  0  0  0  0  0  0  0  0  0  0
  188.1490  174.6430  141.3260 C   0  0  0  0  0  1  0  0  0  0  0  0
  194.3610  171.8060  145.2370 C   0  0  0  0  0  2  0  0  0  0  0  0
  196.0210  174.2340  144.4550 N   0  0  0  0  0  0  0  0  0  0  0  0
  188.6030  177.0470  145.7980 C   0  0  0  0  0  3  0  0  0  0  0  0
  189.5210  173.0870  142.7050 C   0  0  2  0  0  3  0  0  0  0  0  0
  190.9710  173.2150  142.8330 N   0  0  0  0  0  2  0  0  0  0  0  0
  194.0060  175.4190  144.8090 C   0  0  0  0  0  0  0  0  0  0  0  0
  192.9920  171.9840  143.1750 N   0  0  2  0  0  0  0  0  0  0  0  0
  194.0030  173.2120  145.4200 N   0  0  0  0  0  0  0  0  0  0  0  0
  189.7960  176.3690  145.5330 C   0  0  0  0  0  0  0  0  0  0  0  0
  192.2030  171.3040  142.1050 C   0  0  1  0  0  3  0  0  0  0  0  0
  193.4360  171.0970  144.2480 C   0  0  0  0  0  2  0  0  0  0  0  0
  187.5820  175.9690  143.9040 C   0  0  0  0  0  3  0  0  0  0  0  0
  192.1780  176.1150  146.2970 C   0  0  0  0  0  3  0  0  0  0  0  0
  197.9410  175.3510  143.5180 N   0  0  0  0  0  1  0  0  0  0  0  0
  188.8900  174.3910  142.5500 N   0  0  0  0  0  0  0  0  0  0  0  0
  187.4780  176.8490  144.9850 C   0  0  0  0  0  0  0  0  0  0  0  0
  194.7360  174.2800  144.8790 C   0  0  0  0  0  0  0  0  0  0  0  0
  195.8370  176.5590  143.8890 C   0  0  0  0  0  3  0  0  0  0  0  0
  196.5920  175.3690  143.9630 C   0  0  0  0  0  0  0  0  0  0  0  0
  185.6580  177.4400  146.6200 C   0  0  0  0  0  2  0  0  0  0  0  0
  184.7160  178.6240  146.8380 C   0  0  0  0  0  2  0  0  0  0  0  0
  183.7610  178.6630  145.8030 O   0  0  0  0  0  0  0  0  0  0  0  0
  186.2380  177.5220  145.2750 N   0  0  0  0  0  0  0  0  0  0  0  0
  184.4520  179.0740  144.6480 C   0  0  0  0  0  2  0  0  0  0  0  0
  185.3710  177.9500  144.1720 C   0  0  0  0  0  2  0  0  0  0  0  0
  192.1130  169.7740  142.2250 C   0  0  0  0  0  2  0  0  0  0  0  0
  190.8040  169.2780  141.6290 C   0  0  0  0  0  2  0  0  0  0  0  0
  190.8890  169.2180  140.1080 C   0  0  0  0  0  2  0  0  0  0  0  0
  192.1450  168.4860  139.6910 C   0  0  0  0  0  2  0  0  0  0  0  0
  192.7880  169.2080  138.6890 O   0  0  0  0  0  0  0  0  0  0  0  0
  191.8400  170.1510  138.2680 C   0  0  0  0  0  1  0  0  0  0  0  0
  1 18  1  0  0  0  0
  4  3  1  1  0  0  0
  4 22  1  0  0  0  0
  5 14  1  6  0  0  0
  6 15  1  0  0  0  0
  8 21  1  0  0  0  0
  8  1  2  0  0  0  0
  9 24  1  0  0  0  0
 10 17  1  0  0  0  0
 11 26  1  0  0  0  0
 13 14  1  0  0  0  0
 13  7  1  1  0  0  0
 15 26  2  0  0  0  0
 15  4  1  0  0  0  0
 16  5  1  0  0  0  0
 16 20  1  1  0  0  0
 17  3  1  0  0  0  0
 18 12  2  0  0  0  0
 18  2  1  0  0  0  0
 19 35  1  1  0  0  0
 19 16  1  0  0  0  0
 19  5  1  0  0  0  0
 20 10  1  0  0  0  0
 21 25  2  0  0  0  0
 22  2  2  0  0  0  0
 23 28  1  0  0  0  0
 24 13  1  0  0  0  0
 24  8  1  0  0  0  0
 25 32  1  0  0  0  0
 25 12  1  0  0  0  0
 26 17  1  0  0  0  0
 27 28  1  0  0  0  0
 27  6  2  0  0  0  0
 28 11  2  0  0  0  0
 29 30  1  0  0  0  0
 31 30  1  0  0  0  0
 32 29  1  0  0  0  0
 33 31  1  0  0  0  0
 34 33  1  0  0  0  0
 34 32  1  0  0  0  0
 36 35  1  0  0  0  0
 37 36  1  0  0  0  0
 38 37  1  0  0  0  0
 39 38  1  0  0  0  0
 40 39  1  0  0  0  0
M  END
>  <MODEL>
4

>  <REMARK>
 VINA RESULT:      -7.2      2.281      5.167
  Name = 
  6 active torsions:
  status: ('A' for Active; 'I' for Inactive)
    1  A    between atoms: C_4  and  C_8
    2  A    between atoms: C_4  and  C_30
    3  A    between atoms: C_8  and  C_25
    4  A    between atoms: C_24  and  C_30
    5  A    between atoms: C_25  and  O_27
    6  A    between atoms: N_32  and  C_35
                            x       y       z     vdW  Elec       q    Type
                         _______ _______ _______ _____ _____    ______ ____

>  <TORSDO>
F 6

$$$$
=
 OpenBabel11042419263D

 40 45  0  0  1  0  0  0  0  0999 V2000
  189.2040  175.3140  143.1740 N   0  0  0  0  0  0  0  0  0  0  0  0
  187.6960  174.1550  141.5730 C   0  0  0  0  0  3  0  0  0  0  0  0
  190.8830  174.0620  140.2810 C   0  0  0  0  0  2  0  0  0  0  0  0
  190.0310  173.2910  141.3240 C   0  0  2  0  0  3  0  0  0  0  0  0
  193.2030  175.5060  142.1210 C   0  0  2  0  0  3  0  0  0  0  0  0
  190.1380  170.7960  141.8660 N   0  0  0  0  0  0  0  0  0  0  0  0
  191.6220  177.5300  142.8640 O   0  0  0  0  0  1  0  0  0  0  0  0
  189.4310  176.1870  144.2000 C   0  0  0  0  0  0  0  0  0  0  0  0
  190.9610  176.6770  146.1170 C   0  0  0  0  0  1  0  0  0  0  0  0
  193.2210  173.5000  139.2810 C   0  0  0  0  0  2  0  0  0  0  0  0
  192.3620  170.7390  140.2260 N   0  0  0  0  0  0  0  0  0  0  0  0
  186.8760  175.8250  143.1880 C   0  0  0  0  0  3  0  0  0  0  0  0
  191.8960  176.5310  143.8130 C   0  0  2  0  0  3  0  0  0  0  0  0
  192.2390  175.2590  143.1790 N   0  0  0  0  0  2  0  0  0  0  0  0
  190.5550  171.9050  141.2060 C   0  0  0  0  0  0  0  0  0  0  0  0
  193.7100  174.2260  141.6030 N   0  0  2  0  0  0  0  0  0  0  0  0
  191.9190  173.1250  139.8290 N   0  0  0  0  0  0  0  0  0  0  0  0
  187.9580  175.1120  142.6630 C   0  0  0  0  0  0  0  0  0  0  0  0
  194.5280  175.0590  142.5330 C   0  0  1  0  0  3  0  0  0  0  0  0
  193.9710  174.4770  140.1870 C   0  0  0  0  0  2  0  0  0  0  0  0
  188.3600  176.9170  144.7360 C   0  0  0  0  0  3  0  0  0  0  0  0
  188.5800  173.3500  140.9810 C   0  0  0  0  0  3  0  0  0  0  0  0
  192.6840  168.3920  140.6780 N   0  0  0  0  0  1  0  0  0  0  0  0
  190.7570  176.3800  144.7090 N   0  0  0  0  0  0  0  0  0  0  0  0
  187.0680  176.7410  144.2310 C   0  0  0  0  0  0  0  0  0  0  0  0
  191.6480  171.8740  140.4070 C   0  0  0  0  0  0  0  0  0  0  0  0
  190.8180  169.6260  141.6880 C   0  0  0  0  0  3  0  0  0  0  0  0
  191.9570  169.6000  140.8550 C   0  0  0  0  0  0  0  0  0  0  0  0
  185.4080  177.1760  146.0720 C   0  0  0  0  0  2  0  0  0  0  0  0
  184.6770  178.3960  146.6300 C   0  0  0  0  0  2  0  0  0  0  0  0
  183.7160  178.8370  145.6980 O   0  0  0  0  0  0  0  0  0  0  0  0
  185.9610  177.5010  144.7530 N   0  0  0  0  0  0  0  0  0  0  0  0
  184.4380  179.4130  144.6350 C   0  0  0  0  0  2  0  0  0  0  0  0
  185.1500  178.3170  143.8440 C   0  0  0  0  0  2  0  0  0  0  0  0
  195.6060  175.9280  141.8650 C   0  0  0  0  0  2  0  0  0  0  0  0
  196.3060  176.7880  142.9070 C   0  0  0  0  0  2  0  0  0  0  0  0
  195.9530  176.3270  144.3160 C   0  0  0  0  0  2  0  0  0  0  0  0
  195.3160  177.4640  145.0850 C   0  0  0  0  0  2  0  0  0  0  0  0
  194.5250  176.9420  146.1050 O   0  0  0  0  0  0  0  0  0  0  0  0
  194.8420  175.5770  146.1380 C   0  0  0  0  0  1  0  0  0  0  0  0
  1  8  1  0  0  0  0
  2 18  1  0  0  0  0
  4  3  1  6  0  0  0
  5 19  1  0  0  0  0
  5 14  1  1  0  0  0
  8 24  1  0  0  0  0
  8 21  2  0  0  0  0
 10 17  1  0  0  0  0
 10 20  1  0  0  0  0
 11 26  2  0  0  0  0
 11 28  1  0  0  0  0
 12 25  2  0  0  0  0
 13  7  1  6  0  0  0
 13 24  1  0  0  0  0
 14 13  1  0  0  0  0
 15  4  1  0  0  0  0
 15  6  2  0  0  0  0
 16 20  1  6  0  0  0
 16  5  1  0  0  0  0
 16 19  1  0  0  0  0
 17  3  1  0  0  0  0
 17 26  1  0  0  0  0
 18  1  2  0  0  0  0
 18 12  1  0  0  0  0
 19 35  1  6  0  0  0
 22  4  1  0  0  0  0
 22  2  2  0  0  0  0
 23 28  1  0  0  0  0
 24  9  1  0  0  0  0
 25 21  1  0  0  0  0
 25 32  1  0  0  0  0
 26 15  1  0  0  0  0
 27  6  1  0  0  0  0
 28 27  2  0  0  0  0
 29 30  1  0  0  0  0
 31 30  1  0  0  0  0
 32 29  1  0  0  0  0
 33 31  1  0  0  0  0
 34 33  1  0  0  0  0
 34 32  1  0  0  0  0
 35 36  1  0  0  0  0
 36 37  1  0  0  0  0
 37 38  1  0  0  0  0
 38 39  1  0  0  0  0
 39 40  1  0  0  0  0
M  END
>  <MODEL>
5

>  <REMARK>
 VINA RESULT:      -7.1      2.126      2.518
  Name = 
  6 active torsions:
  status: ('A' for Active; 'I' for Inactive)
    1  A    between atoms: C_4  and  C_8
    2  A    between atoms: C_4  and  C_30
    3  A    between atoms: C_8  and  C_25
    4  A    between atoms: C_24  and  C_30
    5  A    between atoms: C_25  and  O_27
    6  A    between atoms: N_32  and  C_35
                            x       y       z     vdW  Elec       q    Type
                         _______ _______ _______ _____ _____    ______ ____

>  <TORSDO>
F 6

$$$$
=
 OpenBabel11042419263D

 40 45  0  0  1  0  0  0  0  0999 V2000
  191.2410  174.0680  144.4500 N   0  0  0  0  0  0  0  0  0  0  0  0
  191.7640  175.7840  146.1730 C   0  0  0  0  0  3  0  0  0  0  0  0
  189.7050  177.2320  143.8270 C   0  0  0  0  0  2  0  0  0  0  0  0
  189.5790  176.3160  145.0730 C   0  0  2  0  0  3  0  0  0  0  0  0
  188.7730  175.2700  141.3510 C   0  0  2  0  0  3  0  0  0  0  0  0
  187.6740  176.2740  146.7760 N   0  0  0  0  0  0  0  0  0  0  0  0
  191.1530  174.0680  141.1570 O   0  0  0  0  0  1  0  0  0  0  0  0
  191.5110  172.9060  143.7860 C   0  0  0  0  0  0  0  0  0  0  0  0
  190.4520  171.0120  142.5420 C   0  0  0  0  0  1  0  0  0  0  0  0
  187.8600  178.4420  142.4430 C   0  0  0  0  0  2  0  0  0  0  0  0
  186.3720  178.0070  145.0610 N   0  0  0  0  0  0  0  0  0  0  0  0
  193.2150  173.8350  145.7650 C   0  0  0  0  0  3  0  0  0  0  0  0
  190.1010  173.3460  141.7450 C   0  0  2  0  0  3  0  0  0  0  0  0
  189.0880  174.2320  142.3160 N   0  0  0  0  0  2  0  0  0  0  0  0
  188.2710  176.7270  145.6450 C   0  0  0  0  0  0  0  0  0  0  0  0
  187.6200  176.0530  141.8210 N   0  0  2  0  0  0  0  0  0  0  0  0
  188.4110  177.9110  143.6900 N   0  0  0  0  0  0  0  0  0  0  0  0
  192.0570  174.5430  145.4310 C   0  0  0  0  0  0  0  0  0  0  0  0
  187.4670  175.0220  140.7520 C   0  0  1  0  0  3  0  0  0  0  0  0
  187.8610  177.4040  141.3210 C   0  0  0  0  0  2  0  0  0  0  0  0
  192.6710  172.1830  144.1000 C   0  0  0  0  0  3  0  0  0  0  0  0
  190.6910  176.5650  146.0370 C   0  0  0  0  0  3  0  0  0  0  0  0
  184.4350  178.0370  146.4970 N   0  0  0  0  0  1  0  0  0  0  0  0
  190.6330  172.4380  142.7530 N   0  0  0  0  0  0  0  0  0  0  0  0
  193.5370  172.6460  145.0960 C   0  0  0  0  0  0  0  0  0  0  0  0
  187.6280  177.5730  144.8050 C   0  0  0  0  0  0  0  0  0  0  0  0
  186.4170  176.7110  147.0800 C   0  0  0  0  0  3  0  0  0  0  0  0
  185.7510  177.5910  146.2000 C   0  0  0  0  0  0  0  0  0  0  0  0
  194.6680  170.5640  145.9450 C   0  0  0  0  0  2  0  0  0  0  0  0
  195.9880  169.8420  145.6790 C   0  0  0  0  0  2  0  0  0  0  0  0
  197.0540  170.6000  146.2020 O   0  0  0  0  0  0  0  0  0  0  0  0
  194.7450  171.9290  145.4160 N   0  0  0  0  0  0  0  0  0  0  0  0
  197.1840  171.7230  145.3630 C   0  0  0  0  0  2  0  0  0  0  0  0
  196.0020  172.6670  145.5820 C   0  0  0  0  0  2  0  0  0  0  0  0
  187.4380  175.5640  139.3130 C   0  0  0  0  0  2  0  0  0  0  0  0
  188.0510  174.5500  138.3590 C   0  0  0  0  0  2  0  0  0  0  0  0
  187.8640  174.9880  136.9110 C   0  0  0  0  0  2  0  0  0  0  0  0
  186.7780  176.0370  136.8250 C   0  0  0  0  0  2  0  0  0  0  0  0
  186.6410  176.4500  135.5030 O   0  0  0  0  0  0  0  0  0  0  0  0
  187.8060  177.1820  135.2370 C   0  0  0  0  0  1  0  0  0  0  0  0
  1 18  1  0  0  0  0
  4  3  1  6  0  0  0
  4 15  1  0  0  0  0
  4 22  1  0  0  0  0
  5 16  1  0  0  0  0
  5 14  1  1  0  0  0
  6 27  1  0  0  0  0
  8 21  1  0  0  0  0
  8  1  2  0  0  0  0
  9 24  1  0  0  0  0
 10 17  1  0  0  0  0
 11 28  1  0  0  0  0
 13  7  1  1  0  0  0
 13 14  1  0  0  0  0
 13 24  1  0  0  0  0
 15  6  2  0  0  0  0
 16 20  1  6  0  0  0
 17  3  1  0  0  0  0
 17 26  1  0  0  0  0
 18 12  2  0  0  0  0
 18  2  1  0  0  0  0
 19 35  1  6  0  0  0
 19  5  1  0  0  0  0
 19 16  1  0  0  0  0
 20 10  1  0  0  0  0
 21 25  2  0  0  0  0
 22  2  2  0  0  0  0
 24  8  1  0  0  0  0
 25 32  1  0  0  0  0
 25 12  1  0  0  0  0
 26 11  2  0  0  0  0
 26 15  1  0  0  0  0
 28 23  1  0  0  0  0
 28 27  2  0  0  0  0
 30 29  1  0  0  0  0
 30 31  1  0  0  0  0
 32 34  1  0  0  0  0
 32 29  1  0  0  0  0
 33 34  1  0  0  0  0
 33 31  1  0  0  0  0
 36 35  1  0  0  0  0
 37 36  1  0  0  0  0
 38 37  1  0  0  0  0
 39 38  1  0  0  0  0
 40 39  1  0  0  0  0
M  END
>  <MODEL>
6

>  <REMARK>
 VINA RESULT:      -7.0      2.941      9.435
  Name = 
  6 active torsions:
  status: ('A' for Active; 'I' for Inactive)
    1  A    between atoms: C_4  and  C_8
    2  A    between atoms: C_4  and  C_30
    3  A    between atoms: C_8  and  C_25
    4  A    between atoms: C_24  and  C_30
    5  A    between atoms: C_25  and  O_27
    6  A    between atoms: N_32  and  C_35
                            x       y       z     vdW  Elec       q    Type
                         _______ _______ _______ _____ _____    ______ ____

>  <TORSDO>
F 6

$$$$
=
 OpenBabel11042419263D

 40 45  0  0  1  0  0  0  0  0999 V2000
  190.7110  173.7790  140.9100 N   0  0  0  0  0  0  0  0  0  0  0  0
  188.3380  173.0420  140.8280 C   0  0  0  0  0  3  0  0  0  0  0  0
  188.9100  174.4240  143.9260 C   0  0  0  0  0  2  0  0  0  0  0  0
  188.5970  174.9010  142.4820 C   0  0  2  0  0  3  0  0  0  0  0  0
  191.9670  175.5360  144.4430 C   0  0  2  0  0  3  0  0  0  0  0  0
  187.2060  176.9300  141.7920 N   0  0  0  0  0  0  0  0  0  0  0  0
  193.1260  173.5120  143.1360 O   0  0  0  0  0  1  0  0  0  0  0  0
  192.0050  173.7300  140.4740 C   0  0  0  0  0  0  0  0  0  0  0  0
  194.0990  175.0780  140.2460 C   0  0  0  0  0  1  0  0  0  0  0  0
  188.9530  175.7620  146.1610 C   0  0  0  0  0  2  0  0  0  0  0  0
  187.1890  177.5820  144.4780 N   0  0  0  0  0  0  0  0  0  0  0  0
  190.0740  172.0720  139.3730 C   0  0  0  0  0  3  0  0  0  0  0  0
  193.0860  174.7650  142.5000 C   0  0  2  0  0  3  0  0  0  0  0  0
  191.9830  175.5870  142.9920 N   0  0  0  0  0  2  0  0  0  0  0  0
  187.7850  176.1240  142.7160 C   0  0  0  0  0  0  0  0  0  0  0  0
  190.9940  176.5080  144.9640 N   0  0  2  0  0  0  0  0  0  0  0  0
  188.4410  175.4930  144.8170 N   0  0  0  0  0  0  0  0  0  0  0  0
  189.7420  172.9810  140.3820 C   0  0  0  0  0  0  0  0  0  0  0  0
  192.4600  176.7910  144.9970 C   0  0  1  0  0  3  0  0  0  0  0  0
  190.4750  175.8940  146.1850 C   0  0  0  0  0  2  0  0  0  0  0  0
  192.3600  172.8200  139.4670 C   0  0  0  0  0  3  0  0  0  0  0  0
  187.8180  173.8710  141.7340 C   0  0  0  0  0  3  0  0  0  0  0  0
  185.9420  179.5950  144.0220 N   0  0  0  0  0  1  0  0  0  0  0  0
  193.0010  174.5800  141.0570 N   0  0  0  0  0  0  0  0  0  0  0  0
  191.3930  171.9800  138.9080 C   0  0  0  0  0  0  0  0  0  0  0  0
  187.7790  176.4490  144.0310 C   0  0  0  0  0  0  0  0  0  0  0  0
  186.5780  178.0690  142.2090 C   0  0  0  0  0  3  0  0  0  0  0  0
  186.5760  178.4030  143.5790 C   0  0  0  0  0  0  0  0  0  0  0  0
  190.6930  170.2850  137.1830 C   0  0  0  0  0  2  0  0  0  0  0  0
  191.2330  169.7920  135.8420 C   0  0  0  0  0  2  0  0  0  0  0  0
  192.4110  169.0470  136.0540 O   0  0  0  0  0  0  0  0  0  0  0  0
  191.7460  171.0220  137.8910 N   0  0  0  0  0  0  0  0  0  0  0  0
  193.4010  169.9780  136.4210 C   0  0  0  0  0  2  0  0  0  0  0  0
  193.1150  170.5040  137.8270 C   0  0  0  0  0  2  0  0  0  0  0  0
  193.1510  176.5340  146.3460 C   0  0  0  0  0  2  0  0  0  0  0  0
  194.6620  176.6140  146.1840 C   0  0  0  0  0  2  0  0  0  0  0  0
  195.2480  175.2380  145.8880 C   0  0  0  0  0  2  0  0  0  0  0  0
  196.0660  175.2890  144.6160 C   0  0  0  0  0  2  0  0  0  0  0  0
  195.8320  176.4980  143.9670 O   0  0  0  0  0  0  0  0  0  0  0  0
  196.9470  176.6760  143.1370 C   0  0  0  0  0  1  0  0  0  0  0  0
  2 22  2  0  0  0  0
  3 17  1  0  0  0  0
  4 22  1  6  0  0  0
  4 15  1  0  0  0  0
  4  3  1  0  0  0  0
  5 14  1  6  0  0  0
  5 16  1  0  0  0  0
  5 19  1  0  0  0  0
  6 27  2  0  0  0  0
  6 15  1  0  0  0  0
  8  1  1  0  0  0  0
  8 24  1  0  0  0  0
  9 24  1  0  0  0  0
 10 20  1  0  0  0  0
 12 18  1  0  0  0  0
 13 14  1  0  0  0  0
 13  7  1  1  0  0  0
 15 26  2  0  0  0  0
 16 19  1  0  0  0  0
 16 20  1  1  0  0  0
 17 10  1  0  0  0  0
 18  2  1  0  0  0  0
 18  1  2  0  0  0  0
 19 35  1  1  0  0  0
 21  8  2  0  0  0  0
 24 13  1  0  0  0  0
 25 12  2  0  0  0  0
 25 21  1  0  0  0  0
 26 11  1  0  0  0  0
 26 17  1  0  0  0  0
 27 28  1  0  0  0  0
 28 23  1  0  0  0  0
 28 11  2  0  0  0  0
 29 32  1  0  0  0  0
 30 31  1  0  0  0  0
 30 29  1  0  0  0  0
 31 33  1  0  0  0  0
 32 25  1  0  0  0  0
 33 34  1  0  0  0  0
 34 32  1  0  0  0  0
 36 35  1  0  0  0  0
 37 36  1  0  0  0  0
 38 37  1  0  0  0  0
 39 38  1  0  0  0  0
 40 39  1  0  0  0  0
M  END
>  <MODEL>
7

>  <REMARK>
 VINA RESULT:      -7.0      2.992      7.870
  Name = 
  6 active torsions:
  status: ('A' for Active; 'I' for Inactive)
    1  A    between atoms: C_4  and  C_8
    2  A    between atoms: C_4  and  C_30
    3  A    between atoms: C_8  and  C_25
    4  A    between atoms: C_24  and  C_30
    5  A    between atoms: C_25  and  O_27
    6  A    between atoms: N_32  and  C_35
                            x       y       z     vdW  Elec       q    Type
                         _______ _______ _______ _____ _____    ______ ____

>  <TORSDO>
F 6

$$$$
=
 OpenBabel11042419263D

 40 45  0  0  1  0  0  0  0  0999 V2000
  189.4820  175.8050  143.3600 N   0  0  0  0  0  0  0  0  0  0  0  0
  191.1560  175.8960  145.1970 C   0  0  0  0  0  3  0  0  0  0  0  0
  192.0830  173.3780  143.0430 C   0  0  0  0  0  2  0  0  0  0  0  0
  192.1970  174.9230  143.1400 C   0  0  2  0  0  3  0  0  0  0  0  0
  190.1040  172.9280  140.4490 C   0  0  2  0  0  3  0  0  0  0  0  0
  194.1280  176.3830  142.3230 N   0  0  0  0  0  0  0  0  0  0  0  0
  187.8650  173.3700  141.8410 O   0  0  0  0  0  1  0  0  0  0  0  0
  188.2430  176.0610  142.8450 C   0  0  0  0  0  0  0  0  0  0  0  0
  187.0050  176.4910  140.7140 C   0  0  0  0  0  1  0  0  0  0  0  0
  193.2200  171.7120  141.3960 C   0  0  0  0  0  2  0  0  0  0  0  0
  195.1220  174.0760  141.1700 N   0  0  0  0  0  0  0  0  0  0  0  0
  188.8630  176.7590  145.4550 C   0  0  0  0  0  3  0  0  0  0  0  0
  188.3030  174.3800  140.9680 C   0  0  2  0  0  3  0  0  0  0  0  0
  189.7440  174.3060  140.7330 N   0  0  0  0  0  2  0  0  0  0  0  0
  193.5030  175.1900  142.4840 C   0  0  0  0  0  0  0  0  0  0  0  0
  191.5080  172.8600  140.0160 N   0  0  2  0  0  0  0  0  0  0  0  0
  193.1940  172.9400  142.1890 N   0  0  0  0  0  0  0  0  0  0  0  0
  189.8150  176.1440  144.6360 C   0  0  0  0  0  0  0  0  0  0  0  0
  190.3920  172.7650  139.0290 C   0  0  1  0  0  3  0  0  0  0  0  0
  191.9850  171.5690  140.5070 C   0  0  0  0  0  2  0  0  0  0  0  0
  187.2710  176.6700  143.6510 C   0  0  0  0  0  3  0  0  0  0  0  0
  192.2060  175.3720  144.5630 C   0  0  0  0  0  3  0  0  0  0  0  0
  196.9820  175.2950  140.2380 N   0  0  0  0  0  1  0  0  0  0  0  0
  187.9250  175.6840  141.4980 N   0  0  0  0  0  0  0  0  0  0  0  0
  187.5750  177.0250  144.9690 C   0  0  0  0  0  0  0  0  0  0  0  0
  193.9910  174.0620  141.9140 C   0  0  0  0  0  0  0  0  0  0  0  0
  195.2860  176.4310  141.6000 C   0  0  0  0  0  3  0  0  0  0  0  0
  195.7880  175.2530  141.0080 C   0  0  0  0  0  0  0  0  0  0  0  0
  186.9210  177.9880  147.2010 C   0  0  0  0  0  2  0  0  0  0  0  0
  185.9610  179.0690  147.6940 C   0  0  0  0  0  2  0  0  0  0  0  0
  184.6320  178.6320  147.5250 O   0  0  0  0  0  0  0  0  0  0  0  0
  186.5810  177.6290  145.8190 N   0  0  0  0  0  0  0  0  0  0  0  0
  184.3840  178.6600  146.1400 C   0  0  0  0  0  2  0  0  0  0  0  0
  185.1640  177.5360  145.4570 C   0  0  0  0  0  2  0  0  0  0  0  0
  190.0290  171.3400  138.5800 C   0  0  0  0  0  2  0  0  0  0  0  0
  190.1230  171.2290  137.0650 C   0  0  0  0  0  2  0  0  0  0  0  0
  191.5190  170.7900  136.6400 C   0  0  0  0  0  2  0  0  0  0  0  0
  192.2090  171.9120  135.8970 C   0  0  0  0  0  2  0  0  0  0  0  0
  193.5240  172.0180  136.3400 O   0  0  0  0  0  0  0  0  0  0  0  0
  194.1080  172.9740  135.4980 C   0  0  0  0  0  1  0  0  0  0  0  0
  1 18  1  0  0  0  0
  4  3  1  1  0  0  0
  4 22  1  0  0  0  0
  5 14  1  6  0  0  0
  6 15  1  0  0  0  0
  8  1  2  0  0  0  0
  8 21  1  0  0  0  0
  9 24  1  0  0  0  0
 10 17  1  0  0  0  0
 11 26  1  0  0  0  0
 13 24  1  0  0  0  0
 13  7  1  1  0  0  0
 14 13  1  0  0  0  0
 15  4  1  0  0  0  0
 16  5  1  0  0  0  0
 16 20  1  1  0  0  0
 17  3  1  0  0  0  0
 18  2  1  0  0  0  0
 18 12  2  0  0  0  0
 19 35  1  1  0  0  0
 19 16  1  0  0  0  0
 19  5  1  0  0  0  0
 20 10  1  0  0  0  0
 21 25  2  0  0  0  0
 22  2  2  0  0  0  0
 23 28  1  0  0  0  0
 24  8  1  0  0  0  0
 25 12  1  0  0  0  0
 25 32  1  0  0  0  0
 26 17  1  0  0  0  0
 26 15  2  0  0  0  0
 27  6  2  0  0  0  0
 28 11  2  0  0  0  0
 28 27  1  0  0  0  0
 29 30  1  0  0  0  0
 31 30  1  0  0  0  0
 32 29  1  0  0  0  0
 33 31  1  0  0  0  0
 34 32  1  0  0  0  0
 34 33  1  0  0  0  0
 36 35  1  0  0  0  0
 37 36  1  0  0  0  0
 38 39  1  0  0  0  0
 38 37  1  0  0  0  0
 40 39  1  0  0  0  0
M  END
>  <MODEL>
8

>  <REMARK>
 VINA RESULT:      -6.6      2.982      5.718
  Name = 
  6 active torsions:
  status: ('A' for Active; 'I' for Inactive)
    1  A    between atoms: C_4  and  C_8
    2  A    between atoms: C_4  and  C_30
    3  A    between atoms: C_8  and  C_25
    4  A    between atoms: C_24  and  C_30
    5  A    between atoms: C_25  and  O_27
    6  A    between atoms: N_32  and  C_35
                            x       y       z     vdW  Elec       q    Type
                         _______ _______ _______ _____ _____    ______ ____

>  <TORSDO>
F 6

$$$$
=
 OpenBabel11042419263D

 40 45  0  0  1  0  0  0  0  0999 V2000
  191.6290  173.9250  140.8600 N   0  0  0  0  0  0  0  0  0  0  0  0
  193.8690  174.4980  139.9470 C   0  0  0  0  0  3  0  0  0  0  0  0
  193.5030  176.1300  142.9540 C   0  0  0  0  0  2  0  0  0  0  0  0
  193.8820  174.7150  142.4400 C   0  0  2  0  0  3  0  0  0  0  0  0
  190.6390  175.6270  144.5020 C   0  0  2  0  0  3  0  0  0  0  0  0
  195.5550  173.0890  143.4830 N   0  0  0  0  0  0  0  0  0  0  0  0
  189.1990  175.6620  142.2500 O   0  0  0  0  0  1  0  0  0  0  0  0
  190.3420  173.4900  140.7120 C   0  0  0  0  0  0  0  0  0  0  0  0
  188.4670  172.3320  141.8950 C   0  0  0  0  0  1  0  0  0  0  0  0
  193.6530  177.1390  145.3500 C   0  0  0  0  0  2  0  0  0  0  0  0
  195.6650  174.8700  145.5940 N   0  0  0  0  0  0  0  0  0  0  0  0
  192.0110  173.7460  138.5140 C   0  0  0  0  0  3  0  0  0  0  0  0
  189.4210  174.4190  142.8660 C   0  0  2  0  0  3  0  0  0  0  0  0
  190.6330  174.4270  143.6840 N   0  0  0  0  0  2  0  0  0  0  0  0
  194.8630  174.2560  143.4570 C   0  0  0  0  0  0  0  0  0  0  0  0
  191.7430  175.5610  145.4720 N   0  0  2  0  0  0  0  0  0  0  0  0
  194.1210  176.2600  144.2790 N   0  0  0  0  0  0  0  0  0  0  0  0
  192.4710  174.0530  139.7980 C   0  0  0  0  0  0  0  0  0  0  0  0
  190.3340  175.2920  145.8880 C   0  0  1  0  0  3  0  0  0  0  0  0
  192.1660  176.9480  145.6470 C   0  0  0  0  0  2  0  0  0  0  0  0
  189.8590  173.1830  139.4320 C   0  0  0  0  0  3  0  0  0  0  0  0
  194.5030  174.7860  141.0850 C   0  0  0  0  0  3  0  0  0  0  0  0
  197.1920  173.4290  146.7810 N   0  0  0  0  0  1  0  0  0  0  0  0
  189.4800  173.3730  141.8520 N   0  0  0  0  0  0  0  0  0  0  0  0
  190.6930  173.3100  138.3180 C   0  0  0  0  0  0  0  0  0  0  0  0
  194.9160  175.1240  144.4960 C   0  0  0  0  0  0  0  0  0  0  0  0
  196.3420  172.8110  144.5640 C   0  0  0  0  0  3  0  0  0  0  0  0
  196.3920  173.7180  145.6430 C   0  0  0  0  0  0  0  0  0  0  0  0
  189.3760  174.0070  136.2900 C   0  0  0  0  0  2  0  0  0  0  0  0
  189.4570  173.7550  134.7850 C   0  0  0  0  0  2  0  0  0  0  0  0
  189.1130  172.4150  134.5130 O   0  0  0  0  0  0  0  0  0  0  0  0
  190.2060  173.0230  136.9930 N   0  0  0  0  0  0  0  0  0  0  0  0
  190.1870  171.6340  134.9780 C   0  0  0  0  0  2  0  0  0  0  0  0
  190.2030  171.6400  136.5060 C   0  0  0  0  0  2  0  0  0  0  0  0
  189.6120  176.4690  146.5650 C   0  0  0  0  0  2  0  0  0  0  0  0
  188.3940  176.8750  145.7490 C   0  0  0  0  0  2  0  0  0  0  0  0
  187.1380  176.8770  146.6140 C   0  0  0  0  0  2  0  0  0  0  0  0
  185.9090  176.7830  145.7380 C   0  0  0  0  0  2  0  0  0  0  0  0
  184.7730  177.0000  146.5140 O   0  0  0  0  0  0  0  0  0  0  0  0
  184.4800  178.3600  146.3410 C   0  0  0  0  0  1  0  0  0  0  0  0
  2 22  2  0  0  0  0
  3 17  1  0  0  0  0
  4 22  1  6  0  0  0
  4  3  1  0  0  0  0
  4 15  1  0  0  0  0
  5 14  1  6  0  0  0
  5 16  1  0  0  0  0
  5 19  1  0  0  0  0
  6 27  1  0  0  0  0
  8  1  1  0  0  0  0
  8 24  1  0  0  0  0
 10 20  1  0  0  0  0
 11 28  1  0  0  0  0
 12 18  1  0  0  0  0
 13  7  1  6  0  0  0
 13 14  1  0  0  0  0
 15  6  2  0  0  0  0
 15 26  1  0  0  0  0
 16 20  1  1  0  0  0
 16 19  1  0  0  0  0
 17 26  1  0  0  0  0
 17 10  1  0  0  0  0
 18  2  1  0  0  0  0
 18  1  2  0  0  0  0
 19 35  1  1  0  0  0
 21  8  2  0  0  0  0
 24  9  1  0  0  0  0
 24 13  1  0  0  0  0
 25 12  2  0  0  0  0
 25 21  1  0  0  0  0
 26 11  2  0  0  0  0
 27 28  2  0  0  0  0
 28 23  1  0  0  0  0
 29 32  1  0  0  0  0
 30 29  1  0  0  0  0
 31 30  1  0  0  0  0
 31 33  1  0  0  0  0
 32 25  1  0  0  0  0
 33 34  1  0  0  0  0
 34 32  1  0  0  0  0
 36 35  1  0  0  0  0
 36 37  1  0  0  0  0
 38 39  1  0  0  0  0
 38 37  1  0  0  0  0
 40 39  1  0  0  0  0
M  END
>  <MODEL>
9

>  <REMARK>
 VINA RESULT:      -6.6      3.305      7.857
  Name = 
  6 active torsions:
  status: ('A' for Active; 'I' for Inactive)
    1  A    between atoms: C_4  and  C_8
    2  A    between atoms: C_4  and  C_30
    3  A    between atoms: C_8  and  C_25
    4  A    between atoms: C_24  and  C_30
    5  A    between atoms: C_25  and  O_27
    6  A    between atoms: N_32  and  C_35
                            x       y       z     vdW  Elec       q    Type
                         _______ _______ _______ _____ _____    ______ ____

>  <TORSDO>
F 6

$$$$
