=
 OpenBabel11042414573D

 39 46  0  0  1  0  0  0  0  0999 V2000
  187.1270  176.2830  141.0720 C   0  0  1  0  0  3  0  0  0  0  0  0
  188.5560  176.2740  141.3520 C   0  0  2  0  0  3  0  0  0  0  0  0
  188.8820  175.1200  142.1790 C   0  0  2  0  0  0  0  0  0  0  0  0
  187.5900  175.7960  142.3830 N   0  0  2  0  0  0  0  0  0  0  0  0
  189.8600  175.3490  143.2970 C   0  0  0  0  0  0  0  0  0  0  0  0
  190.3090  175.1200  146.8870 N   0  0  0  0  0  0  0  0  0  0  0  0
  193.6750  176.4160  146.7330 C   0  0  0  0  0  1  0  0  0  0  0  0
  190.4260  175.3100  145.5640 C   0  0  0  0  0  0  0  0  0  0  0  0
  189.5120  175.0700  144.5950 N   0  0  0  0  0  0  0  0  0  0  0  0
  191.4480  175.4860  147.4710 N   0  0  0  0  0  0  0  0  0  0  0  0
  191.6520  175.8080  145.2850 C   0  0  0  0  0  0  0  0  0  0  0  0
  191.1460  175.8860  143.0140 C   0  0  0  0  0  3  0  0  0  0  0  0
  189.1520  174.6030  147.5960 C   0  0  0  0  0  1  0  0  0  0  0  0
  192.2940  175.9180  146.4970 C   0  0  0  0  0  0  0  0  0  0  0  0
  192.0410  176.1100  144.0250 N   0  0  0  0  0  0  0  0  0  0  0  0
  188.7240  173.7330  141.5610 C   0  0  0  0  0  2  0  0  0  0  0  0
  191.2040  173.0960  138.9440 O   0  0  0  0  0  0  0  0  0  0  0  0
  188.9640  173.8040  138.5890 C   0  0  0  0  0  1  0  0  0  0  0  0
  190.0990  173.4010  139.4670 C   0  0  0  0  0  0  0  0  0  0  0  0
  189.9530  173.3480  140.8850 N   0  0  0  0  0  2  0  0  0  0  0  0
  186.6210  177.6010  141.2110 O   0  0  0  0  0  0  0  0  0  0  0  0
  184.1490  178.3180  146.1090 C   0  0  0  0  0  1  0  0  0  0  0  0
  184.3670  179.2010  144.8970 C   0  0  1  0  0  3  0  0  0  0  0  0
  183.4520  178.6880  142.7720 C   0  0  0  0  0  0  0  0  0  0  0  0
  182.9620  178.0310  140.4520 C   0  0  0  0  0  3  0  0  0  0  0  0
  184.8380  178.3720  142.5440 C   0  0  0  0  0  0  0  0  0  0  0  0
  185.2600  177.9080  141.3600 C   0  0  0  0  0  0  0  0  0  0  0  0
  185.8580  178.6370  143.9800 S   0  0  0  0  0  0  0  0  0  0  0  0
  183.1760  179.1140  143.9920 C   0  0  0  0  0  3  0  0  0  0  0  0
  184.6440  177.2770  139.0020 O   0  0  0  0  0  1  0  0  0  0  0  0
  182.4910  178.5170  141.7210 N   0  0  0  0  0  0  0  0  0  0  0  0
  184.2570  177.7360  140.2560 C   0  0  0  0  0  0  0  0  0  0  0  0
  178.7140  178.3820  140.5360 C   0  0  1  0  0  3  0  0  0  0  0  0
  179.0700  179.8500  140.6710 C   0  0  0  0  0  2  0  0  0  0  0  0
  180.2890  177.6730  141.9560 O   0  0  0  0  0  0  0  0  0  0  0  0
  181.0850  178.8590  141.9070 C   0  0  2  0  0  3  0  0  0  0  0  0
  180.6180  179.8880  140.8150 C   0  0  0  0  0  2  0  0  0  0  0  0
  178.9830  178.1660  142.0040 C   0  0  2  0  0  3  0  0  0  0  0  0
  177.9750  177.4910  141.3550 O   0  0  0  0  0  0  0  0  0  0  0  0
  1 21  1  1  0  0  0
  1  2  1  0  0  0  0
  1  4  1  0  0  0  0
  2  3  1  0  0  0  0
  2  4  1  0  0  0  0
  3  4  1  0  0  0  0
  3  5  1  0  0  0  0
  5  9  1  0  0  0  0
  6 10  1  0  0  0  0
  6 13  1  0  0  0  0
  8  6  1  0  0  0  0
  9  8  2  0  0  0  0
 11  8  1  0  0  0  0
 11 14  1  0  0  0  0
 12  5  2  0  0  0  0
 12 15  1  0  0  0  0
 14  7  1  0  0  0  0
 14 10  2  0  0  0  0
 15 11  2  0  0  0  0
 16  3  1  0  0  0  0
 17 19  2  0  0  0  0
 18 19  1  0  0  0  0
 19 20  1  0  0  0  0
 20 16  1  0  0  0  0
 21 27  1  0  0  0  0
 23 22  1  0  0  0  0
 24 29  2  0  0  0  0
 25 31  1  0  0  0  0
 26 24  1  0  0  0  0
 26 28  1  0  0  0  0
 27 26  2  0  0  0  0
 28 23  1  0  0  0  0
 29 23  1  0  0  0  0
 30 32  1  0  0  0  0
 31 36  1  0  0  0  0
 31 24  1  0  0  0  0
 32 25  2  0  0  0  0
 32 27  1  0  0  0  0
 33 34  1  0  0  0  0
 33 39  1  0  0  0  0
 33 38  1  0  0  0  0
 34 37  1  0  0  0  0
 35 38  1  0  0  0  0
 36 35  1  0  0  0  0
 37 36  1  0  0  0  0
 39 38  1  0  0  0  0
M  END
>  <MODEL>
1

>  <REMARK>
 VINA RESULT:      -7.7      0.000      0.000
  Name = 
  6 active torsions:
  status: ('A' for Active; 'I' for Inactive)
    1  A    between atoms: C_1  and  C_15
    2  A    between atoms: C_5  and  O_32
    3  A    between atoms: C_15  and  C_22
    4  A    between atoms: C_21  and  O_32
    5  A    between atoms: C_22  and  N_36
    6  A    between atoms: C_23  and  N_38
                            x       y       z     vdW  Elec       q    Type
                         _______ _______ _______ _____ _____    ______ ____

>  <TORSDO>
F 6

$$$$
=
 OpenBabel11042414573D

 39 46  0  0  1  0  0  0  0  0999 V2000
  190.5190  175.7730  147.3220 C   0  0  1  0  0  3  0  0  0  0  0  0
  190.2690  176.6680  146.2020 C   0  0  2  0  0  3  0  0  0  0  0  0
  188.8380  176.7320  145.9400 C   0  0  2  0  0  0  0  0  0  0  0  0
  189.4190  175.4580  146.3950 N   0  0  2  0  0  0  0  0  0  0  0  0
  188.4170  176.7160  144.4970 C   0  0  0  0  0  0  0  0  0  0  0  0
  188.5130  174.7690  141.4410 N   0  0  0  0  0  0  0  0  0  0  0  0
  186.7350  177.2880  139.5630 C   0  0  0  0  0  1  0  0  0  0  0  0
  188.3280  175.6890  142.4000 C   0  0  0  0  0  0  0  0  0  0  0  0
  188.7180  175.6440  143.6960 N   0  0  0  0  0  0  0  0  0  0  0  0
  187.9690  175.2190  140.3120 N   0  0  0  0  0  0  0  0  0  0  0  0
  187.6610  176.7480  141.8890 C   0  0  0  0  0  0  0  0  0  0  0  0
  187.7280  177.8320  143.9480 C   0  0  0  0  0  3  0  0  0  0  0  0
  189.1860  173.4890  141.5760 C   0  0  0  0  0  1  0  0  0  0  0  0
  187.4370  176.4440  140.5660 C   0  0  0  0  0  0  0  0  0  0  0  0
  187.3490  177.8350  142.6330 N   0  0  0  0  0  0  0  0  0  0  0  0
  187.9480  177.3790  146.9980 C   0  0  0  0  0  2  0  0  0  0  0  0
  184.3120  177.1890  146.6190 O   0  0  0  0  0  0  0  0  0  0  0  0
  185.5900  179.1880  146.7490 C   0  0  0  0  0  1  0  0  0  0  0  0
  185.4540  177.7030  146.7470 C   0  0  0  0  0  0  0  0  0  0  0  0
  186.5940  176.8580  146.8960 N   0  0  0  0  0  2  0  0  0  0  0  0
  191.6320  174.9420  147.0330 O   0  0  0  0  0  0  0  0  0  0  0  0
  193.4290  171.6540  142.9630 C   0  0  0  0  0  1  0  0  0  0  0  0
  192.8030  173.0330  143.0070 C   0  0  1  0  0  3  0  0  0  0  0  0
  193.8500  174.8690  144.0780 C   0  0  0  0  0  0  0  0  0  0  0  0
  194.6000  176.7040  145.5360 C   0  0  0  0  0  3  0  0  0  0  0  0
  192.8010  174.5790  145.0210 C   0  0  0  0  0  0  0  0  0  0  0  0
  192.6630  175.2900  146.1480 C   0  0  0  0  0  0  0  0  0  0  0  0
  191.7850  173.2010  144.5300 S   0  0  0  0  0  0  0  0  0  0  0  0
  193.8800  174.0740  143.0230 C   0  0  0  0  0  3  0  0  0  0  0  0
  193.5090  177.2000  147.5530 O   0  0  0  0  0  1  0  0  0  0  0  0
  194.7690  175.9410  144.3290 N   0  0  0  0  0  0  0  0  0  0  0  0
  193.6190  176.4180  146.4090 C   0  0  0  0  0  0  0  0  0  0  0  0
  196.9390  175.1020  141.1240 C   0  0  1  0  0  3  0  0  0  0  0  0
  197.9190  175.3240  142.2610 C   0  0  0  0  0  2  0  0  0  0  0  0
  195.3000  176.3090  142.0480 O   0  0  0  0  0  0  0  0  0  0  0  0
  195.8220  176.2840  143.3790 C   0  0  2  0  0  3  0  0  0  0  0  0
  197.0560  175.3270  143.5540 C   0  0  0  0  0  2  0  0  0  0  0  0
  196.4360  176.5170  141.2630 C   0  0  2  0  0  3  0  0  0  0  0  0
  196.5340  175.9110  140.0320 O   0  0  0  0  0  0  0  0  0  0  0  0
  1 21  1  6  0  0  0
  2  4  1  0  0  0  0
  2  1  1  0  0  0  0
  3  2  1  0  0  0  0
  3  4  1  0  0  0  0
  3 16  1  0  0  0  0
  4  1  1  0  0  0  0
  5  3  1  0  0  0  0
  6 13  1  0  0  0  0
  6  8  1  0  0  0  0
  7 14  1  0  0  0  0
  8  9  1  0  0  0  0
  9  5  2  0  0  0  0
 10 14  2  0  0  0  0
 10  6  1  0  0  0  0
 11  8  2  0  0  0  0
 11 15  1  0  0  0  0
 12  5  1  0  0  0  0
 14 11  1  0  0  0  0
 15 12  2  0  0  0  0
 17 19  2  0  0  0  0
 19 18  1  0  0  0  0
 19 20  1  0  0  0  0
 20 16  1  0  0  0  0
 22 23  1  0  0  0  0
 23 29  1  0  0  0  0
 23 28  1  0  0  0  0
 24 31  1  0  0  0  0
 24 26  1  0  0  0  0
 25 32  2  0  0  0  0
 26 27  2  0  0  0  0
 27 32  1  0  0  0  0
 27 21  1  0  0  0  0
 28 26  1  0  0  0  0
 29 24  2  0  0  0  0
 31 25  1  0  0  0  0
 32 30  1  0  0  0  0
 33 38  1  0  0  0  0
 33 34  1  0  0  0  0
 34 37  1  0  0  0  0
 35 36  1  0  0  0  0
 36 37  1  0  0  0  0
 36 31  1  0  0  0  0
 38 35  1  0  0  0  0
 39 33  1  0  0  0  0
 39 38  1  0  0  0  0
M  END
>  <MODEL>
2

>  <REMARK>
 VINA RESULT:      -7.6      4.382     10.719
  Name = 
  6 active torsions:
  status: ('A' for Active; 'I' for Inactive)
    1  A    between atoms: C_1  and  C_15
    2  A    between atoms: C_5  and  O_32
    3  A    between atoms: C_15  and  C_22
    4  A    between atoms: C_21  and  O_32
    5  A    between atoms: C_22  and  N_36
    6  A    between atoms: C_23  and  N_38
                            x       y       z     vdW  Elec       q    Type
                         _______ _______ _______ _____ _____    ______ ____

>  <TORSDO>
F 6

$$$$
=
 OpenBabel11042414573D

 39 46  0  0  1  0  0  0  0  0999 V2000
  190.4540  174.1880  140.8890 C   0  0  1  0  0  3  0  0  0  0  0  0
  191.5980  174.6890  141.6380 C   0  0  2  0  0  3  0  0  0  0  0  0
  192.7990  173.9770  141.2250 C   0  0  2  0  0  0  0  0  0  0  0  0
  191.5220  173.2460  141.2670 N   0  0  2  0  0  0  0  0  0  0  0  0
  193.7530  173.5780  142.3150 C   0  0  0  0  0  0  0  0  0  0  0  0
  195.3360  174.7030  145.3760 N   0  0  0  0  0  0  0  0  0  0  0  0
  197.1920  171.6310  145.7630 C   0  0  0  0  0  1  0  0  0  0  0  0
  194.9120  174.0350  144.2920 C   0  0  0  0  0  0  0  0  0  0  0  0
  194.0330  174.4400  143.3450 N   0  0  0  0  0  0  0  0  0  0  0  0
  196.1970  173.9330  146.0380 N   0  0  0  0  0  0  0  0  0  0  0  0
  195.5060  172.8220  144.2470 C   0  0  0  0  0  0  0  0  0  0  0  0
  194.3940  172.3090  142.2670 C   0  0  0  0  0  3  0  0  0  0  0  0
  194.9410  176.0380  145.7900 C   0  0  0  0  0  1  0  0  0  0  0  0
  196.3200  172.7640  145.3540 C   0  0  0  0  0  0  0  0  0  0  0  0
  195.2730  171.9390  143.2480 N   0  0  0  0  0  0  0  0  0  0  0  0
  193.3010  174.1940  139.8000 C   0  0  0  0  0  2  0  0  0  0  0  0
  196.7170  175.4340  139.3520 O   0  0  0  0  0  0  0  0  0  0  0  0
  195.9750  173.2220  138.9020 C   0  0  0  0  0  1  0  0  0  0  0  0
  195.7530  174.6230  139.3590 C   0  0  0  0  0  0  0  0  0  0  0  0
  194.4710  175.0590  139.8110 N   0  0  0  0  0  2  0  0  0  0  0  0
  189.3470  174.0200  141.7610 O   0  0  0  0  0  0  0  0  0  0  0  0
  189.0350  174.4960  147.2640 C   0  0  0  0  0  1  0  0  0  0  0  0
  189.6270  175.3510  146.1620 C   0  0  1  0  0  3  0  0  0  0  0  0
  188.3010  176.3230  144.4560 C   0  0  0  0  0  0  0  0  0  0  0  0
  187.1180  176.9820  142.4020 C   0  0  0  0  0  3  0  0  0  0  0  0
  188.9490  175.2700  143.7170 C   0  0  0  0  0  0  0  0  0  0  0  0
  188.6960  175.0760  142.4160 C   0  0  0  0  0  0  0  0  0  0  0  0
  190.0510  174.2930  144.7190 S   0  0  0  0  0  0  0  0  0  0  0  0
  188.6300  176.3830  145.7340 C   0  0  0  0  0  3  0  0  0  0  0  0
  187.4420  175.8480  140.3740 O   0  0  0  0  0  1  0  0  0  0  0  0
  187.3690  177.1940  143.8020 N   0  0  0  0  0  0  0  0  0  0  0  0
  187.7260  175.9920  141.7270 C   0  0  0  0  0  0  0  0  0  0  0  0
  184.1020  179.0160  145.1040 C   0  0  1  0  0  3  0  0  0  0  0  0
  184.8540  180.0300  144.2630 C   0  0  0  0  0  2  0  0  0  0  0  0
  185.9070  177.7830  145.5720 O   0  0  0  0  0  0  0  0  0  0  0  0
  186.7200  178.2910  144.5120 C   0  0  2  0  0  3  0  0  0  0  0  0
  185.9410  179.2150  143.5080 C   0  0  0  0  0  2  0  0  0  0  0  0
  185.2660  178.9240  146.0590 C   0  0  2  0  0  3  0  0  0  0  0  0
  183.9670  178.8380  146.5040 O   0  0  0  0  0  0  0  0  0  0  0  0
  1  4  1  0  0  0  0
  1  2  1  0  0  0  0
  1 21  1  1  0  0  0
  3  4  1  0  0  0  0
  3  2  1  0  0  0  0
  3  5  1  0  0  0  0
  4  2  1  0  0  0  0
  5  9  1  0  0  0  0
  6 13  1  0  0  0  0
  6 10  1  0  0  0  0
  8  6  1  0  0  0  0
  9  8  2  0  0  0  0
 11  8  1  0  0  0  0
 11 14  1  0  0  0  0
 12  5  2  0  0  0  0
 12 15  1  0  0  0  0
 14  7  1  0  0  0  0
 14 10  2  0  0  0  0
 15 11  2  0  0  0  0
 16 20  1  0  0  0  0
 16  3  1  0  0  0  0
 17 19  2  0  0  0  0
 18 19  1  0  0  0  0
 19 20  1  0  0  0  0
 21 27  1  0  0  0  0
 23 22  1  0  0  0  0
 24 29  2  0  0  0  0
 25 31  1  0  0  0  0
 26 24  1  0  0  0  0
 26 28  1  0  0  0  0
 27 26  2  0  0  0  0
 28 23  1  0  0  0  0
 29 23  1  0  0  0  0
 30 32  1  0  0  0  0
 31 24  1  0  0  0  0
 31 36  1  0  0  0  0
 32 25  2  0  0  0  0
 32 27  1  0  0  0  0
 33 38  1  0  0  0  0
 33 39  1  0  0  0  0
 34 33  1  0  0  0  0
 35 38  1  0  0  0  0
 36 35  1  0  0  0  0
 37 34  1  0  0  0  0
 37 36  1  0  0  0  0
 38 39  1  0  0  0  0
M  END
>  <MODEL>
3

>  <REMARK>
 VINA RESULT:      -7.5      3.685      5.584
  Name = 
  6 active torsions:
  status: ('A' for Active; 'I' for Inactive)
    1  A    between atoms: C_1  and  C_15
    2  A    between atoms: C_5  and  O_32
    3  A    between atoms: C_15  and  C_22
    4  A    between atoms: C_21  and  O_32
    5  A    between atoms: C_22  and  N_36
    6  A    between atoms: C_23  and  N_38
                            x       y       z     vdW  Elec       q    Type
                         _______ _______ _______ _____ _____    ______ ____

>  <TORSDO>
F 6

$$$$
=
 OpenBabel11042414573D

 39 46  0  0  1  0  0  0  0  0999 V2000
  189.6710  176.4350  145.0540 C   0  0  1  0  0  3  0  0  0  0  0  0
  188.7290  177.4820  144.6820 C   0  0  2  0  0  3  0  0  0  0  0  0
  187.3720  177.0400  144.9720 C   0  0  2  0  0  0  0  0  0  0  0  0
  188.3570  176.0470  144.5120 N   0  0  2  0  0  0  0  0  0  0  0  0
  186.3260  177.3650  143.9440 C   0  0  0  0  0  0  0  0  0  0  0  0
  185.6950  177.6020  140.3820 N   0  0  0  0  0  0  0  0  0  0  0  0
  182.2840  178.6790  140.8710 C   0  0  0  0  0  1  0  0  0  0  0  0
  185.6400  177.6040  141.7230 C   0  0  0  0  0  0  0  0  0  0  0  0
  186.6160  177.2840  142.6060 N   0  0  0  0  0  0  0  0  0  0  0  0
  184.5100  177.9820  139.9090 N   0  0  0  0  0  0  0  0  0  0  0  0
  184.4090  177.9910  142.1250 C   0  0  0  0  0  0  0  0  0  0  0  0
  185.0330  177.7880  144.3590 C   0  0  0  0  0  3  0  0  0  0  0  0
  186.8350  177.2500  139.5550 C   0  0  0  0  0  1  0  0  0  0  0  0
  183.6980  178.2300  140.9720 C   0  0  0  0  0  0  0  0  0  0  0  0
  184.0740  178.0980  143.4320 N   0  0  0  0  0  0  0  0  0  0  0  0
  186.9850  176.8430  146.4350 C   0  0  0  0  0  2  0  0  0  0  0  0
  186.4550  179.8850  148.4020 O   0  0  0  0  0  0  0  0  0  0  0  0
  184.7460  178.5040  147.4990 C   0  0  0  0  0  1  0  0  0  0  0  0
  186.1760  178.8610  147.7260 C   0  0  0  0  0  0  0  0  0  0  0  0
  187.2300  178.0670  147.1840 N   0  0  0  0  0  2  0  0  0  0  0  0
  190.6570  176.2960  144.0430 O   0  0  0  0  0  0  0  0  0  0  0  0
  190.2530  171.0900  142.2170 C   0  0  0  0  0  1  0  0  0  0  0  0
  191.1210  172.2740  141.8450 C   0  0  1  0  0  3  0  0  0  0  0  0
  192.6490  173.2570  143.3670 C   0  0  0  0  0  0  0  0  0  0  0  0
  193.9030  174.6360  144.9730 C   0  0  0  0  0  3  0  0  0  0  0  0
  191.6150  174.2600  143.3480 C   0  0  0  0  0  0  0  0  0  0  0  0
  191.7090  175.3690  144.0940 C   0  0  0  0  0  0  0  0  0  0  0  0
  190.2540  173.8370  142.2800 S   0  0  0  0  0  0  0  0  0  0  0  0
  192.4130  172.2080  142.5990 C   0  0  0  0  0  3  0  0  0  0  0  0
  193.0850  176.7020  145.7270 O   0  0  0  0  0  1  0  0  0  0  0  0
  193.8110  173.4350  144.1880 N   0  0  0  0  0  0  0  0  0  0  0  0
  192.9280  175.5610  144.9490 C   0  0  0  0  0  0  0  0  0  0  0  0
  196.9320  171.7630  145.9620 C   0  0  1  0  0  3  0  0  0  0  0  0
  197.4140  172.2430  144.6070 C   0  0  0  0  0  2  0  0  0  0  0  0
  194.7840  171.6190  145.3600 O   0  0  0  0  0  0  0  0  0  0  0  0
  194.8920  172.4550  144.2050 C   0  0  2  0  0  3  0  0  0  0  0  0
  196.2860  173.1680  144.0710 C   0  0  0  0  0  2  0  0  0  0  0  0
  195.9410  170.8390  145.2990 C   0  0  2  0  0  3  0  0  0  0  0  0
  196.5840  170.4820  146.4620 O   0  0  0  0  0  0  0  0  0  0  0  0
  1 21  1  6  0  0  0
  2  3  1  0  0  0  0
  2  1  1  0  0  0  0
  3 16  1  0  0  0  0
  4  2  1  0  0  0  0
  4  3  1  0  0  0  0
  4  1  1  0  0  0  0
  5 12  1  0  0  0  0
  5  3  1  0  0  0  0
  6  8  1  0  0  0  0
  7 14  1  0  0  0  0
  8 11  2  0  0  0  0
  8  9  1  0  0  0  0
  9  5  2  0  0  0  0
 10  6  1  0  0  0  0
 10 14  2  0  0  0  0
 11 15  1  0  0  0  0
 13  6  1  0  0  0  0
 14 11  1  0  0  0  0
 15 12  2  0  0  0  0
 16 20  1  0  0  0  0
 18 19  1  0  0  0  0
 19 17  2  0  0  0  0
 20 19  1  0  0  0  0
 21 27  1  0  0  0  0
 23 22  1  0  0  0  0
 23 28  1  0  0  0  0
 23 29  1  0  0  0  0
 24 31  1  0  0  0  0
 26 24  1  0  0  0  0
 26 27  2  0  0  0  0
 27 32  1  0  0  0  0
 28 26  1  0  0  0  0
 29 24  2  0  0  0  0
 31 36  1  0  0  0  0
 31 25  1  0  0  0  0
 32 25  2  0  0  0  0
 32 30  1  0  0  0  0
 33 39  1  0  0  0  0
 34 33  1  0  0  0  0
 36 35  1  0  0  0  0
 37 36  1  0  0  0  0
 37 34  1  0  0  0  0
 38 35  1  0  0  0  0
 38 33  1  0  0  0  0
 38 39  1  0  0  0  0
M  END
>  <MODEL>
4

>  <REMARK>
 VINA RESULT:      -7.5      4.121     11.215
  Name = 
  6 active torsions:
  status: ('A' for Active; 'I' for Inactive)
    1  A    between atoms: C_1  and  C_15
    2  A    between atoms: C_5  and  O_32
    3  A    between atoms: C_15  and  C_22
    4  A    between atoms: C_21  and  O_32
    5  A    between atoms: C_22  and  N_36
    6  A    between atoms: C_23  and  N_38
                            x       y       z     vdW  Elec       q    Type
                         _______ _______ _______ _____ _____    ______ ____

>  <TORSDO>
F 6

$$$$
=
 OpenBabel11042414573D

 39 46  0  0  1  0  0  0  0  0999 V2000
  190.5800  173.4700  141.8540 C   0  0  1  0  0  3  0  0  0  0  0  0
  191.8550  172.7690  141.9090 C   0  0  2  0  0  3  0  0  0  0  0  0
  191.6910  171.5200  142.6400 C   0  0  2  0  0  0  0  0  0  0  0  0
  190.9100  172.6940  143.0620 N   0  0  2  0  0  0  0  0  0  0  0  0
  192.7870  171.1540  143.6010 C   0  0  0  0  0  0  0  0  0  0  0  0
  195.8080  172.3680  145.1950 N   0  0  0  0  0  0  0  0  0  0  0  0
  196.3430  169.2660  146.9610 C   0  0  0  0  0  1  0  0  0  0  0  0
  194.7490  171.6670  144.7620 C   0  0  0  0  0  0  0  0  0  0  0  0
  193.7780  172.0540  143.9020 N   0  0  0  0  0  0  0  0  0  0  0  0
  196.5080  171.6060  146.0320 N   0  0  0  0  0  0  0  0  0  0  0  0
  194.7630  170.4360  145.3210 C   0  0  0  0  0  0  0  0  0  0  0  0
  192.8170  169.8560  144.1810 C   0  0  0  0  0  3  0  0  0  0  0  0
  196.1610  173.7300  144.8340 C   0  0  0  0  0  1  0  0  0  0  0  0
  195.8790  170.4030  146.1240 C   0  0  0  0  0  0  0  0  0  0  0  0
  193.8160  169.5070  145.0490 N   0  0  0  0  0  0  0  0  0  0  0  0
  190.8210  170.4350  142.0100 C   0  0  0  0  0  2  0  0  0  0  0  0
  192.0350  169.3520  138.7310 O   0  0  0  0  0  0  0  0  0  0  0  0
  190.2430  170.8640  139.1150 C   0  0  0  0  0  1  0  0  0  0  0  0
  191.3260  169.9510  139.5820 C   0  0  0  0  0  0  0  0  0  0  0  0
  191.5660  169.7400  140.9720 N   0  0  0  0  0  2  0  0  0  0  0  0
  190.7800  174.8510  142.1100 O   0  0  0  0  0  0  0  0  0  0  0  0
  190.9670  175.8600  147.5460 C   0  0  0  0  0  1  0  0  0  0  0  0
  191.0530  176.7290  146.3080 C   0  0  1  0  0  3  0  0  0  0  0  0
  189.2640  176.9250  144.7670 C   0  0  0  0  0  0  0  0  0  0  0  0
  187.6840  176.8420  142.8820 C   0  0  0  0  0  3  0  0  0  0  0  0
  190.1720  176.1000  144.0110 C   0  0  0  0  0  0  0  0  0  0  0  0
  189.8590  175.6670  142.7830 C   0  0  0  0  0  0  0  0  0  0  0  0
  191.6740  175.7290  144.8940 S   0  0  0  0  0  0  0  0  0  0  0  0
  189.6940  177.2600  145.9700 C   0  0  0  0  0  3  0  0  0  0  0  0
  188.1720  175.6640  140.9140 O   0  0  0  0  0  1  0  0  0  0  0  0
  188.0000  177.3050  144.2070 N   0  0  0  0  0  0  0  0  0  0  0  0
  188.5390  176.0690  142.1920 C   0  0  0  0  0  0  0  0  0  0  0  0
  184.3120  178.3070  145.2490 C   0  0  1  0  0  3  0  0  0  0  0  0
  184.9300  179.5390  144.6140 C   0  0  0  0  0  2  0  0  0  0  0  0
  186.2680  177.3890  145.8240 O   0  0  0  0  0  0  0  0  0  0  0  0
  187.0710  178.1660  144.9310 C   0  0  2  0  0  3  0  0  0  0  0  0
  186.2330  179.0410  143.9290 C   0  0  0  0  0  2  0  0  0  0  0  0
  185.3620  178.3220  146.3330 C   0  0  2  0  0  3  0  0  0  0  0  0
  184.0670  177.9400  146.5970 O   0  0  0  0  0  0  0  0  0  0  0  0
  1  2  1  0  0  0  0
  1 21  1  1  0  0  0
  1  4  1  0  0  0  0
  2  3  1  0  0  0  0
  2  4  1  0  0  0  0
  3  4  1  0  0  0  0
  3  5  1  0  0  0  0
  5  9  2  0  0  0  0
  5 12  1  0  0  0  0
  6 10  1  0  0  0  0
  8  6  1  0  0  0  0
  8 11  2  0  0  0  0
  9  8  1  0  0  0  0
 10 14  2  0  0  0  0
 11 14  1  0  0  0  0
 12 15  2  0  0  0  0
 13  6  1  0  0  0  0
 14  7  1  0  0  0  0
 15 11  1  0  0  0  0
 16  3  1  0  0  0  0
 17 19  2  0  0  0  0
 18 19  1  0  0  0  0
 19 20  1  0  0  0  0
 20 16  1  0  0  0  0
 21 27  1  0  0  0  0
 23 22  1  0  0  0  0
 24 29  2  0  0  0  0
 25 31  1  0  0  0  0
 26 24  1  0  0  0  0
 26 28  1  0  0  0  0
 27 26  2  0  0  0  0
 28 23  1  0  0  0  0
 29 23  1  0  0  0  0
 30 32  1  0  0  0  0
 31 24  1  0  0  0  0
 31 36  1  0  0  0  0
 32 27  1  0  0  0  0
 32 25  2  0  0  0  0
 33 38  1  0  0  0  0
 33 39  1  0  0  0  0
 34 33  1  0  0  0  0
 35 38  1  0  0  0  0
 36 35  1  0  0  0  0
 37 34  1  0  0  0  0
 37 36  1  0  0  0  0
 38 39  1  0  0  0  0
M  END
>  <MODEL>
5

>  <REMARK>
 VINA RESULT:      -7.4      4.062      6.034
  Name = 
  6 active torsions:
  status: ('A' for Active; 'I' for Inactive)
    1  A    between atoms: C_1  and  C_15
    2  A    between atoms: C_5  and  O_32
    3  A    between atoms: C_15  and  C_22
    4  A    between atoms: C_21  and  O_32
    5  A    between atoms: C_22  and  N_36
    6  A    between atoms: C_23  and  N_38
                            x       y       z     vdW  Elec       q    Type
                         _______ _______ _______ _____ _____    ______ ____

>  <TORSDO>
F 6

$$$$
=
 OpenBabel11042414573D

 39 46  0  0  1  0  0  0  0  0999 V2000
  193.0470  176.3660  145.8310 C   0  0  1  0  0  3  0  0  0  0  0  0
  194.2240  175.5900  146.1950 C   0  0  2  0  0  3  0  0  0  0  0  0
  195.0230  175.3320  145.0040 C   0  0  2  0  0  0  0  0  0  0  0  0
  193.5570  175.3630  144.8800 N   0  0  2  0  0  0  0  0  0  0  0  0
  195.6060  173.9540  144.8720 C   0  0  0  0  0  0  0  0  0  0  0  0
  195.5980  170.9550  142.8350 N   0  0  0  0  0  0  0  0  0  0  0  0
  197.9280  169.2530  145.0040 C   0  0  0  0  0  1  0  0  0  0  0  0
  195.7960  171.9080  143.7580 C   0  0  0  0  0  0  0  0  0  0  0  0
  195.2530  173.1470  143.8200 N   0  0  0  0  0  0  0  0  0  0  0  0
  196.3300  169.8920  143.1580 N   0  0  0  0  0  0  0  0  0  0  0  0
  196.6640  171.4590  144.6920 C   0  0  0  0  0  0  0  0  0  0  0  0
  196.5080  173.4680  145.8580 C   0  0  0  0  0  3  0  0  0  0  0  0
  194.7370  171.0350  141.6670 C   0  0  0  0  0  1  0  0  0  0  0  0
  196.9980  170.1810  144.3070 C   0  0  0  0  0  0  0  0  0  0  0  0
  197.0370  172.2100  145.7550 N   0  0  0  0  0  0  0  0  0  0  0  0
  195.6920  176.5240  144.3240 C   0  0  0  0  0  2  0  0  0  0  0  0
  197.4780  175.6680  141.2450 O   0  0  0  0  0  0  0  0  0  0  0  0
  195.2360  176.4420  141.3770 C   0  0  0  0  0  1  0  0  0  0  0  0
  196.5330  176.0390  141.9910 C   0  0  0  0  0  0  0  0  0  0  0  0
  196.7190  176.0590  143.4050 N   0  0  0  0  0  2  0  0  0  0  0  0
  191.9060  175.8470  146.4970 O   0  0  0  0  0  0  0  0  0  0  0  0
  189.4990  174.5710  141.6820 C   0  0  0  0  0  1  0  0  0  0  0  0
  189.2100  174.2300  143.1300 C   0  0  1  0  0  3  0  0  0  0  0  0
  188.6560  175.8800  144.7380 C   0  0  0  0  0  0  0  0  0  0  0  0
  188.5370  177.5200  146.5690 C   0  0  0  0  0  3  0  0  0  0  0  0
  190.0040  175.5660  145.1380 C   0  0  0  0  0  0  0  0  0  0  0  0
  190.5850  176.1880  146.1730 C   0  0  0  0  0  0  0  0  0  0  0  0
  190.7640  174.3260  144.1100 S   0  0  0  0  0  0  0  0  0  0  0  0
  188.2200  175.2050  143.6890 C   0  0  0  0  0  3  0  0  0  0  0  0
  190.3440  177.8810  148.0200 O   0  0  0  0  0  1  0  0  0  0  0  0
  187.9050  176.8700  145.4520 N   0  0  0  0  0  0  0  0  0  0  0  0
  189.7970  177.2190  146.9270 C   0  0  0  0  0  0  0  0  0  0  0  0
  184.8310  179.3680  145.4230 C   0  0  1  0  0  3  0  0  0  0  0  0
  184.3440  178.0940  146.0870 C   0  0  0  0  0  2  0  0  0  0  0  0
  186.4840  178.3730  144.2940 O   0  0  0  0  0  0  0  0  0  0  0  0
  186.5260  177.1890  145.0950 C   0  0  2  0  0  3  0  0  0  0  0  0
  185.6260  177.2650  146.3800 C   0  0  0  0  0  2  0  0  0  0  0  0
  185.1160  178.6120  144.1490 C   0  0  2  0  0  3  0  0  0  0  0  0
  184.6490  179.9060  144.1240 O   0  0  0  0  0  0  0  0  0  0  0  0
  1  2  1  0  0  0  0
  1 21  1  1  0  0  0
  3  2  1  0  0  0  0
  4  3  1  0  0  0  0
  4  1  1  0  0  0  0
  4  2  1  0  0  0  0
  5  3  1  0  0  0  0
  5 12  1  0  0  0  0
  6 10  1  0  0  0  0
  6  8  1  0  0  0  0
  8  9  1  0  0  0  0
  8 11  2  0  0  0  0
  9  5  2  0  0  0  0
 10 14  2  0  0  0  0
 11 15  1  0  0  0  0
 13  6  1  0  0  0  0
 14 11  1  0  0  0  0
 14  7  1  0  0  0  0
 15 12  2  0  0  0  0
 16  3  1  0  0  0  0
 17 19  2  0  0  0  0
 18 19  1  0  0  0  0
 19 20  1  0  0  0  0
 20 16  1  0  0  0  0
 22 23  1  0  0  0  0
 23 29  1  0  0  0  0
 23 28  1  0  0  0  0
 24 26  1  0  0  0  0
 24 31  1  0  0  0  0
 25 32  2  0  0  0  0
 26 27  2  0  0  0  0
 27 21  1  0  0  0  0
 27 32  1  0  0  0  0
 28 26  1  0  0  0  0
 29 24  2  0  0  0  0
 31 25  1  0  0  0  0
 32 30  1  0  0  0  0
 33 34  1  0  0  0  0
 34 37  1  0  0  0  0
 35 36  1  0  0  0  0
 36 31  1  0  0  0  0
 36 37  1  0  0  0  0
 38 35  1  0  0  0  0
 38 33  1  0  0  0  0
 39 38  1  0  0  0  0
 39 33  1  0  0  0  0
M  END
>  <MODEL>
6

>  <REMARK>
 VINA RESULT:      -7.4      4.541      7.422
  Name = 
  6 active torsions:
  status: ('A' for Active; 'I' for Inactive)
    1  A    between atoms: C_1  and  C_15
    2  A    between atoms: C_5  and  O_32
    3  A    between atoms: C_15  and  C_22
    4  A    between atoms: C_21  and  O_32
    5  A    between atoms: C_22  and  N_36
    6  A    between atoms: C_23  and  N_38
                            x       y       z     vdW  Elec       q    Type
                         _______ _______ _______ _____ _____    ______ ____

>  <TORSDO>
F 6

$$$$
=
 OpenBabel11042414573D

 39 46  0  0  1  0  0  0  0  0999 V2000
  187.5220  176.4030  141.7680 C   0  0  1  0  0  3  0  0  0  0  0  0
  188.9760  176.4580  141.7260 C   0  0  2  0  0  3  0  0  0  0  0  0
  189.5270  175.4250  142.5910 C   0  0  2  0  0  0  0  0  0  0  0  0
  188.2790  176.0940  142.9930 N   0  0  2  0  0  0  0  0  0  0  0  0
  190.7110  175.8130  143.4320 C   0  0  0  0  0  0  0  0  0  0  0  0
  194.2950  176.3550  143.3680 N   0  0  0  0  0  0  0  0  0  0  0  0
  194.4210  177.1590  146.8850 C   0  0  0  0  0  1  0  0  0  0  0  0
  192.9970  176.2260  143.6840 C   0  0  0  0  0  0  0  0  0  0  0  0
  191.9640  175.8870  142.8780 N   0  0  0  0  0  0  0  0  0  0  0  0
  194.9660  176.7050  144.4630 N   0  0  0  0  0  0  0  0  0  0  0  0
  192.8230  176.4910  144.9980 C   0  0  0  0  0  0  0  0  0  0  0  0
  190.5390  176.0790  144.8180 C   0  0  0  0  0  3  0  0  0  0  0  0
  194.9000  176.1570  142.0630 C   0  0  0  0  0  1  0  0  0  0  0  0
  194.0740  176.7930  145.4860 C   0  0  0  0  0  0  0  0  0  0  0  0
  191.6110  176.4230  145.5970 N   0  0  0  0  0  0  0  0  0  0  0  0
  189.3070  173.9690  142.1910 C   0  0  0  0  0  2  0  0  0  0  0  0
  191.6980  171.6790  143.7550 O   0  0  0  0  0  0  0  0  0  0  0  0
  189.5790  172.2880  144.6410 C   0  0  0  0  0  1  0  0  0  0  0  0
  190.6490  172.3600  143.6060 C   0  0  0  0  0  0  0  0  0  0  0  0
  190.5090  173.1930  142.4560 N   0  0  0  0  0  2  0  0  0  0  0  0
  186.9940  177.7160  141.8580 O   0  0  0  0  0  0  0  0  0  0  0  0
  184.0650  178.0820  146.5380 C   0  0  0  0  0  1  0  0  0  0  0  0
  184.3900  179.0490  145.4170 C   0  0  1  0  0  3  0  0  0  0  0  0
  183.6830  178.6880  143.1840 C   0  0  0  0  0  0  0  0  0  0  0  0
  183.4200  178.1970  140.7880 C   0  0  0  0  0  3  0  0  0  0  0  0
  185.0880  178.3890  143.0670 C   0  0  0  0  0  0  0  0  0  0  0  0
  185.6230  178.0110  141.8980 C   0  0  0  0  0  0  0  0  0  0  0  0
  185.9650  178.5520  144.6080 S   0  0  0  0  0  0  0  0  0  0  0  0
  183.2910  179.0260  144.3990 C   0  0  0  0  0  3  0  0  0  0  0  0
  185.2370  177.5480  139.4540 O   0  0  0  0  0  1  0  0  0  0  0  0
  182.8280  178.5910  142.0380 N   0  0  0  0  0  0  0  0  0  0  0  0
  184.7300  177.9170  140.6950 C   0  0  0  0  0  0  0  0  0  0  0  0
  179.1190  178.2220  140.6970 C   0  0  1  0  0  3  0  0  0  0  0  0
  179.4400  179.7040  140.6710 C   0  0  0  0  0  2  0  0  0  0  0  0
  180.6330  177.7270  142.2670 O   0  0  0  0  0  0  0  0  0  0  0  0
  181.4080  178.9190  142.1140 C   0  0  2  0  0  3  0  0  0  0  0  0
  180.9780  179.7970  140.8840 C   0  0  0  0  0  2  0  0  0  0  0  0
  179.3170  178.1900  142.1920 C   0  0  2  0  0  3  0  0  0  0  0  0
  178.3560  177.4180  141.5810 O   0  0  0  0  0  0  0  0  0  0  0  0
  1 21  1  1  0  0  0
  1  4  1  0  0  0  0
  2  1  1  0  0  0  0
  2  3  1  0  0  0  0
  2  4  1  0  0  0  0
  3  4  1  0  0  0  0
  3  5  1  0  0  0  0
  5 12  1  0  0  0  0
  6  8  1  0  0  0  0
  6 10  1  0  0  0  0
  8 11  2  0  0  0  0
  9  5  2  0  0  0  0
  9  8  1  0  0  0  0
 10 14  2  0  0  0  0
 11 14  1  0  0  0  0
 11 15  1  0  0  0  0
 12 15  2  0  0  0  0
 13  6  1  0  0  0  0
 14  7  1  0  0  0  0
 16 20  1  0  0  0  0
 16  3  1  0  0  0  0
 19 17  2  0  0  0  0
 19 18  1  0  0  0  0
 20 19  1  0  0  0  0
 21 27  1  0  0  0  0
 23 22  1  0  0  0  0
 24 29  2  0  0  0  0
 25 31  1  0  0  0  0
 26 24  1  0  0  0  0
 26 28  1  0  0  0  0
 27 26  2  0  0  0  0
 28 23  1  0  0  0  0
 29 23  1  0  0  0  0
 30 32  1  0  0  0  0
 31 36  1  0  0  0  0
 31 24  1  0  0  0  0
 32 25  2  0  0  0  0
 32 27  1  0  0  0  0
 33 39  1  0  0  0  0
 33 38  1  0  0  0  0
 34 33  1  0  0  0  0
 34 37  1  0  0  0  0
 36 35  1  0  0  0  0
 37 36  1  0  0  0  0
 38 35  1  0  0  0  0
 39 38  1  0  0  0  0
M  END
>  <MODEL>
7

>  <REMARK>
 VINA RESULT:      -7.4      1.616      2.531
  Name = 
  6 active torsions:
  status: ('A' for Active; 'I' for Inactive)
    1  A    between atoms: C_1  and  C_15
    2  A    between atoms: C_5  and  O_32
    3  A    between atoms: C_15  and  C_22
    4  A    between atoms: C_21  and  O_32
    5  A    between atoms: C_22  and  N_36
    6  A    between atoms: C_23  and  N_38
                            x       y       z     vdW  Elec       q    Type
                         _______ _______ _______ _____ _____    ______ ____

>  <TORSDO>
F 6

$$$$
=
 OpenBabel11042414573D

 39 46  0  0  1  0  0  0  0  0999 V2000
  190.6190  172.9960  144.9880 C   0  0  1  0  0  3  0  0  0  0  0  0
  190.1410  174.3110  144.5860 C   0  0  2  0  0  3  0  0  0  0  0  0
  189.8460  175.1050  145.7710 C   0  0  2  0  0  0  0  0  0  0  0  0
  189.5870  173.6560  145.8060 N   0  0  2  0  0  0  0  0  0  0  0  0
  188.5950  175.9350  145.7300 C   0  0  0  0  0  0  0  0  0  0  0  0
  186.5900  178.1080  143.6310 N   0  0  0  0  0  0  0  0  0  0  0  0
  184.1620  178.6910  146.2370 C   0  0  0  0  0  1  0  0  0  0  0  0
  187.1180  177.3620  144.6140 C   0  0  0  0  0  0  0  0  0  0  0  0
  188.2490  176.6170  144.5900 N   0  0  0  0  0  0  0  0  0  0  0  0
  185.4730  178.6730  144.0810 N   0  0  0  0  0  0  0  0  0  0  0  0
  186.3380  177.4460  145.7140 C   0  0  0  0  0  0  0  0  0  0  0  0
  187.7760  176.0410  146.8880 C   0  0  0  0  0  3  0  0  0  0  0  0
  187.1210  178.2890  142.2910 C   0  0  0  0  0  1  0  0  0  0  0  0
  185.2980  178.2780  145.3710 C   0  0  0  0  0  0  0  0  0  0  0  0
  186.6390  176.8030  146.8670 N   0  0  0  0  0  0  0  0  0  0  0  0
  191.0150  175.5110  146.6640 C   0  0  0  0  0  2  0  0  0  0  0  0
  193.8070  177.1640  144.9680 O   0  0  0  0  0  0  0  0  0  0  0  0
  193.8410  174.9690  145.8750 C   0  0  0  0  0  1  0  0  0  0  0  0
  193.1710  176.2680  145.5830 C   0  0  0  0  0  0  0  0  0  0  0  0
  191.8280  176.5160  145.9940 N   0  0  0  0  0  2  0  0  0  0  0  0
  190.0150  171.9980  144.1810 O   0  0  0  0  0  0  0  0  0  0  0  0
  194.8750  170.6510  141.9060 C   0  0  0  0  0  1  0  0  0  0  0  0
  193.4980  170.0190  141.9060 C   0  0  1  0  0  3  0  0  0  0  0  0
  191.6070  171.0970  140.9690 C   0  0  0  0  0  0  0  0  0  0  0  0
  189.5160  172.2910  140.4640 C   0  0  0  0  0  3  0  0  0  0  0  0
  191.3230  171.2420  142.3740 C   0  0  0  0  0  0  0  0  0  0  0  0
  190.2210  171.8750  142.7990 C   0  0  0  0  0  0  0  0  0  0  0  0
  192.5810  170.5330  143.4160 S   0  0  0  0  0  0  0  0  0  0  0  0
  192.7380  170.4710  140.6970 C   0  0  0  0  0  3  0  0  0  0  0  0
  188.0990  173.0710  142.1630 O   0  0  0  0  0  1  0  0  0  0  0  0
  190.7010  171.6260  139.9920 N   0  0  0  0  0  0  0  0  0  0  0  0
  189.2670  172.4230  141.7770 C   0  0  0  0  0  0  0  0  0  0  0  0
  189.6890  172.2980  136.2220 C   0  0  1  0  0  3  0  0  0  0  0  0
  189.7710  170.7920  136.3840 C   0  0  0  0  0  2  0  0  0  0  0  0
  191.0550  172.7470  137.9340 O   0  0  0  0  0  0  0  0  0  0  0  0
  190.9410  171.4680  138.5620 C   0  0  2  0  0  3  0  0  0  0  0  0
  189.8450  170.5450  137.9170 C   0  0  0  0  0  2  0  0  0  0  0  0
  191.1490  172.4300  136.5770 C   0  0  2  0  0  3  0  0  0  0  0  0
  190.5630  173.2520  135.6420 O   0  0  0  0  0  0  0  0  0  0  0  0
  1 21  1  6  0  0  0
  1  4  1  0  0  0  0
  2  1  1  0  0  0  0
  2  3  1  0  0  0  0
  2  4  1  0  0  0  0
  3  4  1  0  0  0  0
  3 16  1  0  0  0  0
  5  3  1  0  0  0  0
  5 12  1  0  0  0  0
  6 10  1  0  0  0  0
  6  8  1  0  0  0  0
  8 11  2  0  0  0  0
  9  8  1  0  0  0  0
  9  5  2  0  0  0  0
 10 14  2  0  0  0  0
 11 15  1  0  0  0  0
 13  6  1  0  0  0  0
 14 11  1  0  0  0  0
 14  7  1  0  0  0  0
 15 12  2  0  0  0  0
 17 19  2  0  0  0  0
 19 18  1  0  0  0  0
 19 20  1  0  0  0  0
 20 16  1  0  0  0  0
 22 23  1  0  0  0  0
 23 28  1  0  0  0  0
 24 26  1  0  0  0  0
 25 32  2  0  0  0  0
 26 27  2  0  0  0  0
 26 28  1  0  0  0  0
 27 21  1  0  0  0  0
 29 24  2  0  0  0  0
 29 23  1  0  0  0  0
 31 25  1  0  0  0  0
 31 24  1  0  0  0  0
 32 30  1  0  0  0  0
 32 27  1  0  0  0  0
 33 34  1  0  0  0  0
 33 38  1  0  0  0  0
 34 37  1  0  0  0  0
 35 36  1  0  0  0  0
 36 31  1  0  0  0  0
 37 36  1  0  0  0  0
 38 35  1  0  0  0  0
 39 33  1  0  0  0  0
 39 38  1  0  0  0  0
M  END
>  <MODEL>
8

>  <REMARK>
 VINA RESULT:      -7.3      4.440      9.280
  Name = 
  6 active torsions:
  status: ('A' for Active; 'I' for Inactive)
    1  A    between atoms: C_1  and  C_15
    2  A    between atoms: C_5  and  O_32
    3  A    between atoms: C_15  and  C_22
    4  A    between atoms: C_21  and  O_32
    5  A    between atoms: C_22  and  N_36
    6  A    between atoms: C_23  and  N_38
                            x       y       z     vdW  Elec       q    Type
                         _______ _______ _______ _____ _____    ______ ____

>  <TORSDO>
F 6

$$$$
=
 OpenBabel11042414573D

 39 46  0  0  1  0  0  0  0  0999 V2000
  192.6150  174.5200  144.9570 C   0  0  1  0  0  3  0  0  0  0  0  0
  193.3130  173.9330  143.8230 C   0  0  2  0  0  3  0  0  0  0  0  0
  194.0480  174.9720  143.1140 C   0  0  2  0  0  0  0  0  0  0  0  0
  192.7510  175.3110  143.7220 N   0  0  2  0  0  0  0  0  0  0  0  0
  194.0080  174.9180  141.6130 C   0  0  0  0  0  0  0  0  0  0  0  0
  192.4070  173.3180  138.7820 N   0  0  0  0  0  0  0  0  0  0  0  0
  194.3930  175.1480  136.3880 C   0  0  0  0  0  1  0  0  0  0  0  0
  193.1560  174.0560  139.6150 C   0  0  0  0  0  0  0  0  0  0  0  0
  193.1380  174.0750  140.9690 N   0  0  0  0  0  0  0  0  0  0  0  0
  192.7490  173.6130  137.5300 N   0  0  0  0  0  0  0  0  0  0  0  0
  193.9950  174.8360  138.8980 C   0  0  0  0  0  0  0  0  0  0  0  0
  194.8980  175.7250  140.8510 C   0  0  0  0  0  3  0  0  0  0  0  0
  191.3850  172.3520  139.1480 C   0  0  0  0  0  1  0  0  0  0  0  0
  193.7330  174.5500  137.5780 C   0  0  0  0  0  0  0  0  0  0  0  0
  194.8800  175.6760  139.4830 N   0  0  0  0  0  0  0  0  0  0  0  0
  195.2210  175.6310  143.8340 C   0  0  0  0  0  2  0  0  0  0  0  0
  197.9410  173.3020  144.5970 O   0  0  0  0  0  0  0  0  0  0  0  0
  196.3070  174.0780  146.1370 C   0  0  0  0  0  1  0  0  0  0  0  0
  196.9320  174.0320  144.7850 C   0  0  0  0  0  0  0  0  0  0  0  0
  196.4120  174.8050  143.7040 N   0  0  0  0  0  2  0  0  0  0  0  0
  191.3000  173.9920  145.0370 O   0  0  0  0  0  0  0  0  0  0  0  0
  188.5700  174.4570  140.2470 C   0  0  0  0  0  1  0  0  0  0  0  0
  188.2090  173.9300  141.6210 C   0  0  1  0  0  3  0  0  0  0  0  0
  188.1870  175.3130  143.5460 C   0  0  0  0  0  0  0  0  0  0  0  0
  188.5790  176.5150  145.6570 C   0  0  0  0  0  3  0  0  0  0  0  0
  189.3840  174.5490  143.7850 C   0  0  0  0  0  0  0  0  0  0  0  0
  190.1350  174.7570  144.8750 C   0  0  0  0  0  0  0  0  0  0  0  0
  189.7320  173.3760  142.4910 S   0  0  0  0  0  0  0  0  0  0  0  0
  187.5590  175.0170  142.4220 C   0  0  0  0  0  3  0  0  0  0  0  0
  190.4280  176.0400  147.0210 O   0  0  0  0  0  1  0  0  0  0  0  0
  187.7700  176.3130  144.4850 N   0  0  0  0  0  0  0  0  0  0  0  0
  189.6970  175.7980  145.8630 C   0  0  0  0  0  0  0  0  0  0  0  0
  185.4730  179.4280  145.3260 C   0  0  1  0  0  3  0  0  0  0  0  0
  184.6340  178.1920  145.5890 C   0  0  0  0  0  2  0  0  0  0  0  0
  186.8560  178.4170  143.8890 O   0  0  0  0  0  0  0  0  0  0  0  0
  186.5450  177.0810  144.2910 C   0  0  2  0  0  3  0  0  0  0  0  0
  185.6350  177.0020  145.5700 C   0  0  0  0  0  2  0  0  0  0  0  0
  185.6080  179.0450  143.8730 C   0  0  2  0  0  3  0  0  0  0  0  0
  185.5030  180.3620  144.2590 O   0  0  0  0  0  0  0  0  0  0  0  0
  1 21  1  6  0  0  0
  2  1  1  0  0  0  0
  3  4  1  0  0  0  0
  3  2  1  0  0  0  0
  3 16  1  0  0  0  0
  4  2  1  0  0  0  0
  4  1  1  0  0  0  0
  5  3  1  0  0  0  0
  6 13  1  0  0  0  0
  6  8  1  0  0  0  0
  7 14  1  0  0  0  0
  8  9  2  0  0  0  0
  9  5  1  0  0  0  0
 10 14  2  0  0  0  0
 10  6  1  0  0  0  0
 11 15  2  0  0  0  0
 11  8  1  0  0  0  0
 12  5  2  0  0  0  0
 14 11  1  0  0  0  0
 15 12  1  0  0  0  0
 17 19  2  0  0  0  0
 19 18  1  0  0  0  0
 20 16  1  0  0  0  0
 20 19  1  0  0  0  0
 22 23  1  0  0  0  0
 23 29  1  0  0  0  0
 23 28  1  0  0  0  0
 24 26  1  0  0  0  0
 24 31  1  0  0  0  0
 25 32  2  0  0  0  0
 26 27  2  0  0  0  0
 27 21  1  0  0  0  0
 27 32  1  0  0  0  0
 28 26  1  0  0  0  0
 29 24  2  0  0  0  0
 31 25  1  0  0  0  0
 32 30  1  0  0  0  0
 33 34  1  0  0  0  0
 35 36  1  0  0  0  0
 36 31  1  0  0  0  0
 36 37  1  0  0  0  0
 37 34  1  0  0  0  0
 38 35  1  0  0  0  0
 38 39  1  0  0  0  0
 38 33  1  0  0  0  0
 39 33  1  0  0  0  0
M  END
>  <MODEL>
9

>  <REMARK>
 VINA RESULT:      -7.2      4.066      7.464
  Name = 
  6 active torsions:
  status: ('A' for Active; 'I' for Inactive)
    1  A    between atoms: C_1  and  C_15
    2  A    between atoms: C_5  and  O_32
    3  A    between atoms: C_15  and  C_22
    4  A    between atoms: C_21  and  O_32
    5  A    between atoms: C_22  and  N_36
    6  A    between atoms: C_23  and  N_38
                            x       y       z     vdW  Elec       q    Type
                         _______ _______ _______ _____ _____    ______ ____

>  <TORSDO>
F 6

$$$$
