=
 OpenBabel11042415013D

 39 43  0  0  1  0  0  0  0  0999 V2000
  189.6530  175.5040  146.7950 C   0  0  0  0  0  0  0  0  0  0  0  0
  191.2940  172.1460  144.3080 C   0  0  0  0  0  0  0  0  0  0  0  0
  190.2210  174.4990  146.0500 C   0  0  0  0  0  0  0  0  0  0  0  0
  190.6500  176.3770  147.2070 C   0  0  0  0  0  3  0  0  0  0  0  0
  195.9310  173.4170  144.5800 N   0  0  0  0  0  0  0  0  0  0  0  0
  194.5810  173.3180  144.6910 C   0  0  0  0  0  0  0  0  0  0  0  0
  193.6590  172.4280  144.2070 C   0  0  0  0  0  3  0  0  0  0  0  0
  196.4000  174.4850  145.2360 N   0  0  0  0  0  0  0  0  0  0  0  0
  189.5290  173.5100  145.4550 N   0  0  0  0  0  0  0  0  0  0  0  0
  191.8680  175.9010  146.7380 C   0  0  0  0  0  3  0  0  0  0  0  0
  191.6370  174.7400  146.0150 C   0  0  0  0  0  0  0  0  0  0  0  0
  189.9840  172.4860  144.6950 C   0  0  0  0  0  3  0  0  0  0  0  0
  195.1160  175.3040  145.9520 S   0  0  0  0  0  0  0  0  0  0  0  0
  192.6080  173.9790  145.3840 C   0  0  0  0  0  0  0  0  0  0  0  0
  192.4250  172.8410  144.6410 N   0  0  0  0  0  0  0  0  0  0  0  0
  193.9530  174.2530  145.3990 C   0  0  0  0  0  0  0  0  0  0  0  0
  188.1860  175.6810  147.0360 C   0  0  0  0  0  2  0  0  0  0  0  0
  187.6500  176.9410  146.3620 C   0  0  2  0  0  3  0  0  0  0  0  0
  186.4440  177.4650  147.1260 C   0  0  0  0  0  2  0  0  0  0  0  0
  185.1700  176.8490  146.5830 C   0  0  0  0  0  1  0  0  0  0  0  0
  187.2700  176.6470  144.9860 N   0  0  0  0  0  2  0  0  0  0  0  0
  188.0890  177.4770  144.1090 C   0  0  0  0  0  2  0  0  0  0  0  0
  183.5240  178.2990  142.6690 O   0  0  0  0  0  1  0  0  0  0  0  0
  184.7950  177.7840  142.4070 C   0  0  2  0  0  3  0  0  0  0  0  0
  187.2730  178.0300  142.9450 C   0  0  2  0  0  3  0  0  0  0  0  0
  185.8360  178.3650  143.3750 C   0  0  1  0  0  3  0  0  0  0  0  0
  187.3180  177.1190  141.8000 N   0  0  0  0  0  2  0  0  0  0  0  0
  185.1710  178.0190  140.9420 C   0  0  0  0  0  2  0  0  0  0  0  0
  186.6650  177.7840  140.6750 C   0  0  0  0  0  2  0  0  0  0  0  0
  185.6960  179.7510  143.4770 O   0  0  0  0  0  1  0  0  0  0  0  0
  191.4680  171.0060  143.4940 O   0  0  0  0  0  0  0  0  0  0  0  0
  191.0370  171.9850  141.3050 N   0  0  0  0  0  2  0  0  0  0  0  0
  190.6280  171.9990  139.9340 C   0  0  0  0  0  0  0  0  0  0  0  0
  190.2350  170.7940  139.2720 N   0  0  0  0  0  2  0  0  0  0  0  0
  191.0640  170.8370  142.1600 C   0  0  0  0  0  0  0  0  0  0  0  0
  190.7440  169.7020  141.7100 O   0  0  0  0  0  0  0  0  0  0  0  0
  190.6150  173.0930  139.3110 O   0  0  0  0  0  0  0  0  0  0  0  0
  190.8910  170.6250  137.0390 O   0  0  0  0  0  1  0  0  0  0  0  0
  189.7930  170.7690  137.8860 C   0  0  0  0  0  2  0  0  0  0  0  0
  1 17  1  0  0  0  0
  1  4  2  0  0  0  0
  2 15  1  0  0  0  0
  2 12  2  0  0  0  0
  3  1  1  0  0  0  0
  5  6  1  0  0  0  0
  5  8  2  0  0  0  0
  6 16  1  0  0  0  0
  7 15  1  0  0  0  0
  7  6  2  0  0  0  0
  8 13  1  0  0  0  0
  9  3  2  0  0  0  0
 10  4  1  0  0  0  0
 11  3  1  0  0  0  0
 11 10  2  0  0  0  0
 12  9  1  0  0  0  0
 14 16  2  0  0  0  0
 14 11  1  0  0  0  0
 15 14  1  0  0  0  0
 16 13  1  0  0  0  0
 18 17  1  1  0  0  0
 18 19  1  0  0  0  0
 20 19  1  0  0  0  0
 21 18  1  0  0  0  0
 22 21  1  0  0  0  0
 24 23  1  1  0  0  0
 24 26  1  0  0  0  0
 25 26  1  0  0  0  0
 25 22  1  1  0  0  0
 26 30  1  6  0  0  0
 27 25  1  0  0  0  0
 28 24  1  0  0  0  0
 29 28  1  0  0  0  0
 29 27  1  0  0  0  0
 31  2  1  0  0  0  0
 32 35  1  0  0  0  0
 33 32  1  0  0  0  0
 34 33  1  0  0  0  0
 35 31  1  0  0  0  0
 36 35  2  0  0  0  0
 37 33  2  0  0  0  0
 38 39  1  0  0  0  0
 39 34  1  0  0  0  0
M  END
>  <MODEL>
1

>  <REMARK>
 VINA RESULT:      -7.7      0.000      0.000
  Name = 
  9 active torsions:
  status: ('A' for Active; 'I' for Inactive)
    1  A    between atoms: C_4  and  C_27
    2  A    between atoms: C_5  and  C_24
    3  A    between atoms: C_7  and  C_37
    4  A    between atoms: C_9  and  O_26
    5  A    between atoms: C_11  and  N_30
    6  A    between atoms: N_12  and  C_27
    7  A    between atoms: N_12  and  C_37
    8  A    between atoms: C_24  and  C_37
    9  A    between atoms: O_26  and  C_31
                            x       y       z     vdW  Elec       q    Type
                         _______ _______ _______ _____ _____    ______ ____

>  <TORSDO>
F 9

$$$$
=
 OpenBabel11042415013D

 39 43  0  0  1  0  0  0  0  0999 V2000
  189.6330  174.6620  146.0440 C   0  0  0  0  0  0  0  0  0  0  0  0
  187.4670  177.2890  143.1170 C   0  0  0  0  0  0  0  0  0  0  0  0
  188.9800  175.4170  145.0980 C   0  0  0  0  0  0  0  0  0  0  0  0
  190.1990  173.5580  145.4250 C   0  0  0  0  0  3  0  0  0  0  0  0
  188.2220  174.5740  139.2110 N   0  0  0  0  0  0  0  0  0  0  0  0
  188.1740  175.1040  140.4610 C   0  0  0  0  0  0  0  0  0  0  0  0
  187.6150  176.2420  140.9800 C   0  0  0  0  0  3  0  0  0  0  0  0
  188.9020  173.4210  139.1940 N   0  0  0  0  0  0  0  0  0  0  0  0
  188.3610  176.5840  145.3510 N   0  0  0  0  0  0  0  0  0  0  0  0
  189.8770  173.6000  144.0750 C   0  0  0  0  0  3  0  0  0  0  0  0
  189.1240  174.7400  143.8380 C   0  0  0  0  0  0  0  0  0  0  0  0
  187.7050  177.4050  144.4990 C   0  0  0  0  0  3  0  0  0  0  0  0
  189.4420  173.0730  140.7500 S   0  0  0  0  0  0  0  0  0  0  0  0
  188.6220  175.1320  142.6070 C   0  0  0  0  0  0  0  0  0  0  0  0
  187.8950  176.2590  142.3220 N   0  0  0  0  0  0  0  0  0  0  0  0
  188.7800  174.4340  141.4360 C   0  0  0  0  0  0  0  0  0  0  0  0
  189.7910  175.0300  147.4860 C   0  0  0  0  0  2  0  0  0  0  0  0
  191.1520  175.6600  147.7630 C   0  0  2  0  0  3  0  0  0  0  0  0
  191.0230  177.1760  147.8010 C   0  0  0  0  0  2  0  0  0  0  0  0
  191.3620  177.6970  149.1840 C   0  0  0  0  0  1  0  0  0  0  0  0
  192.1010  175.2740  146.7270 N   0  0  0  0  0  2  0  0  0  0  0  0
  193.1860  176.2490  146.7280 C   0  0  0  0  0  2  0  0  0  0  0  0
  192.1990  175.3250  142.0640 O   0  0  0  0  0  1  0  0  0  0  0  0
  193.1220  175.3900  143.1090 C   0  0  2  0  0  3  0  0  0  0  0  0
  193.6670  176.5470  145.3130 C   0  0  2  0  0  3  0  0  0  0  0  0
  192.5800  176.2340  144.2720 C   0  0  1  0  0  3  0  0  0  0  0  0
  194.9260  175.8530  145.0350 N   0  0  0  0  0  2  0  0  0  0  0  0
  194.4690  175.9050  142.5960 C   0  0  0  0  0  2  0  0  0  0  0  0
  195.4130  176.3140  143.7370 C   0  0  0  0  0  2  0  0  0  0  0  0
  192.0350  177.4320  143.8010 O   0  0  0  0  0  1  0  0  0  0  0  0
  186.7440  178.3210  142.4800 O   0  0  0  0  0  0  0  0  0  0  0  0
  184.6470  178.0140  141.2780 N   0  0  0  0  0  2  0  0  0  0  0  0
  183.2390  178.1240  141.0520 C   0  0  0  0  0  0  0  0  0  0  0  0
  182.3800  178.7100  142.0350 N   0  0  0  0  0  2  0  0  0  0  0  0
  185.3500  178.4860  142.4320 C   0  0  0  0  0  0  0  0  0  0  0  0
  184.7210  179.0260  143.3830 O   0  0  0  0  0  0  0  0  0  0  0  0
  182.7580  177.6990  139.9690 O   0  0  0  0  0  0  0  0  0  0  0  0
  180.7000  179.8750  140.9110 O   0  0  0  0  0  1  0  0  0  0  0  0
  180.9480  178.8600  141.8340 C   0  0  0  0  0  2  0  0  0  0  0  0
  1 17  1  0  0  0  0
  2 12  2  0  0  0  0
  3  9  2  0  0  0  0
  3  1  1  0  0  0  0
  4  1  2  0  0  0  0
  5  6  1  0  0  0  0
  6  7  2  0  0  0  0
  6 16  1  0  0  0  0
  7 15  1  0  0  0  0
  8  5  2  0  0  0  0
  8 13  1  0  0  0  0
 10  4  1  0  0  0  0
 11 10  2  0  0  0  0
 11  3  1  0  0  0  0
 12  9  1  0  0  0  0
 13 16  1  0  0  0  0
 14 11  1  0  0  0  0
 15 14  1  0  0  0  0
 15  2  1  0  0  0  0
 16 14  2  0  0  0  0
 18 17  1  6  0  0  0
 18 19  1  0  0  0  0
 19 20  1  0  0  0  0
 21 22  1  0  0  0  0
 21 18  1  0  0  0  0
 24 23  1  6  0  0  0
 24 26  1  0  0  0  0
 25 22  1  1  0  0  0
 26 30  1  6  0  0  0
 26 25  1  0  0  0  0
 27 25  1  0  0  0  0
 28 24  1  0  0  0  0
 28 29  1  0  0  0  0
 29 27  1  0  0  0  0
 31  2  1  0  0  0  0
 32 35  1  0  0  0  0
 33 32  1  0  0  0  0
 33 34  1  0  0  0  0
 35 31  1  0  0  0  0
 35 36  2  0  0  0  0
 37 33  2  0  0  0  0
 38 39  1  0  0  0  0
 39 34  1  0  0  0  0
M  END
>  <MODEL>
2

>  <REMARK>
 VINA RESULT:      -7.7      3.092      7.766
  Name = 
  9 active torsions:
  status: ('A' for Active; 'I' for Inactive)
    1  A    between atoms: C_4  and  C_27
    2  A    between atoms: C_5  and  C_24
    3  A    between atoms: C_7  and  C_37
    4  A    between atoms: C_9  and  O_26
    5  A    between atoms: C_11  and  N_30
    6  A    between atoms: N_12  and  C_27
    7  A    between atoms: N_12  and  C_37
    8  A    between atoms: C_24  and  C_37
    9  A    between atoms: O_26  and  C_31
                            x       y       z     vdW  Elec       q    Type
                         _______ _______ _______ _____ _____    ______ ____

>  <TORSDO>
F 9

$$$$
=
 OpenBabel11042415013D

 39 43  0  0  1  0  0  0  0  0999 V2000
  189.7410  175.2980  146.9310 C   0  0  0  0  0  0  0  0  0  0  0  0
  191.4550  172.0830  144.3080 C   0  0  0  0  0  0  0  0  0  0  0  0
  190.3310  174.3400  146.1420 C   0  0  0  0  0  0  0  0  0  0  0  0
  190.7070  176.2140  147.3230 C   0  0  0  0  0  3  0  0  0  0  0  0
  196.0270  173.5910  144.4290 N   0  0  0  0  0  0  0  0  0  0  0  0
  194.6900  173.4200  144.5890 C   0  0  0  0  0  0  0  0  0  0  0  0
  193.7960  172.4920  144.1220 C   0  0  0  0  0  3  0  0  0  0  0  0
  196.4650  174.6690  145.0900 N   0  0  0  0  0  0  0  0  0  0  0  0
  189.6690  173.3280  145.5520 N   0  0  0  0  0  0  0  0  0  0  0  0
  191.9290  175.8130  146.7970 C   0  0  0  0  0  3  0  0  0  0  0  0
  191.7310  174.6560  146.0580 C   0  0  0  0  0  0  0  0  0  0  0  0
  190.1460  172.3460  144.7530 C   0  0  0  0  0  3  0  0  0  0  0  0
  195.1700  175.4040  145.8740 S   0  0  0  0  0  0  0  0  0  0  0  0
  192.7140  173.9610  145.3730 C   0  0  0  0  0  0  0  0  0  0  0  0
  192.5610  172.8300  144.6130 N   0  0  0  0  0  0  0  0  0  0  0  0
  194.0420  174.3050  145.3420 C   0  0  0  0  0  0  0  0  0  0  0  0
  188.2780  175.3930  147.2320 C   0  0  0  0  0  2  0  0  0  0  0  0
  187.6710  176.6810  146.6860 C   0  0  2  0  0  3  0  0  0  0  0  0
  186.3640  176.9830  147.4040 C   0  0  0  0  0  2  0  0  0  0  0  0
  186.3580  178.4140  147.9060 C   0  0  0  0  0  1  0  0  0  0  0  0
  187.4260  176.5510  145.2560 N   0  0  0  0  0  2  0  0  0  0  0  0
  187.6910  177.8460  144.6370 C   0  0  0  0  0  2  0  0  0  0  0  0
  190.4660  174.7560  142.1170 O   0  0  0  0  0  1  0  0  0  0  0  0
  190.3570  175.8090  143.0290 C   0  0  2  0  0  3  0  0  0  0  0  0
  188.9180  177.7900  143.7340 C   0  0  2  0  0  3  0  0  0  0  0  0
  188.9750  176.4720  142.9440 C   0  0  1  0  0  3  0  0  0  0  0  0
  190.1400  178.0370  144.5000 N   0  0  0  0  0  2  0  0  0  0  0  0
  191.4960  176.8100  142.8230 C   0  0  0  0  0  2  0  0  0  0  0  0
  191.2490  178.1380  143.5540 C   0  0  0  0  0  2  0  0  0  0  0  0
  188.6260  176.7170  141.6130 O   0  0  0  0  0  1  0  0  0  0  0  0
  191.6560  170.9700  143.4620 O   0  0  0  0  0  0  0  0  0  0  0  0
  191.5050  171.7430  141.1560 N   0  0  0  0  0  2  0  0  0  0  0  0
  191.0690  171.7220  139.7940 C   0  0  0  0  0  0  0  0  0  0  0  0
  190.2450  170.6610  139.3020 N   0  0  0  0  0  2  0  0  0  0  0  0
  191.1610  170.7830  142.1610 C   0  0  0  0  0  0  0  0  0  0  0  0
  190.4390  169.7900  141.8710 O   0  0  0  0  0  0  0  0  0  0  0  0
  191.4170  172.6570  139.0260 O   0  0  0  0  0  0  0  0  0  0  0  0
  190.1860  169.4370  137.3170 O   0  0  0  0  0  1  0  0  0  0  0  0
  189.7630  170.6150  137.9310 C   0  0  0  0  0  2  0  0  0  0  0  0
  1 17  1  0  0  0  0
  1  4  2  0  0  0  0
  2 15  1  0  0  0  0
  2 12  2  0  0  0  0
  3  1  1  0  0  0  0
  5  6  1  0  0  0  0
  5  8  2  0  0  0  0
  6 16  1  0  0  0  0
  7  6  2  0  0  0  0
  7 15  1  0  0  0  0
  8 13  1  0  0  0  0
  9  3  2  0  0  0  0
 10  4  1  0  0  0  0
 11  3  1  0  0  0  0
 11 10  2  0  0  0  0
 12  9  1  0  0  0  0
 14 11  1  0  0  0  0
 15 14  1  0  0  0  0
 16 14  2  0  0  0  0
 16 13  1  0  0  0  0
 18 17  1  1  0  0  0
 18 19  1  0  0  0  0
 19 20  1  0  0  0  0
 21 18  1  0  0  0  0
 22 21  1  0  0  0  0
 24 23  1  6  0  0  0
 25 27  1  0  0  0  0
 25 22  1  1  0  0  0
 26 30  1  6  0  0  0
 26 24  1  0  0  0  0
 26 25  1  0  0  0  0
 28 24  1  0  0  0  0
 28 29  1  0  0  0  0
 29 27  1  0  0  0  0
 31  2  1  0  0  0  0
 32 35  1  0  0  0  0
 33 32  1  0  0  0  0
 34 33  1  0  0  0  0
 35 31  1  0  0  0  0
 36 35  2  0  0  0  0
 37 33  2  0  0  0  0
 38 39  1  0  0  0  0
 39 34  1  0  0  0  0
M  END
>  <MODEL>
3

>  <REMARK>
 VINA RESULT:      -7.6      1.790      2.461
  Name = 
  9 active torsions:
  status: ('A' for Active; 'I' for Inactive)
    1  A    between atoms: C_4  and  C_27
    2  A    between atoms: C_5  and  C_24
    3  A    between atoms: C_7  and  C_37
    4  A    between atoms: C_9  and  O_26
    5  A    between atoms: C_11  and  N_30
    6  A    between atoms: N_12  and  C_27
    7  A    between atoms: N_12  and  C_37
    8  A    between atoms: C_24  and  C_37
    9  A    between atoms: O_26  and  C_31
                            x       y       z     vdW  Elec       q    Type
                         _______ _______ _______ _____ _____    ______ ____

>  <TORSDO>
F 9

$$$$
=
 OpenBabel11042415013D

 39 43  0  0  1  0  0  0  0  0999 V2000
  189.4010  175.8570  146.4700 C   0  0  0  0  0  0  0  0  0  0  0  0
  191.0720  173.5700  142.9860 C   0  0  0  0  0  0  0  0  0  0  0  0
  189.9780  175.1650  145.4310 C   0  0  0  0  0  0  0  0  0  0  0  0
  190.4040  176.4030  147.2570 C   0  0  0  0  0  3  0  0  0  0  0  0
  195.7280  174.1810  144.0520 N   0  0  0  0  0  0  0  0  0  0  0  0
  194.3710  174.1800  144.0230 C   0  0  0  0  0  0  0  0  0  0  0  0
  193.4480  173.6380  143.1670 C   0  0  0  0  0  3  0  0  0  0  0  0
  196.1950  174.8650  145.1050 N   0  0  0  0  0  0  0  0  0  0  0  0
  189.2890  174.5530  144.4510 N   0  0  0  0  0  0  0  0  0  0  0  0
  191.6310  176.0280  146.7250 C   0  0  0  0  0  3  0  0  0  0  0  0
  191.4030  175.2620  145.5910 C   0  0  0  0  0  0  0  0  0  0  0  0
  189.7540  173.8610  143.3850 C   0  0  0  0  0  3  0  0  0  0  0  0
  194.8980  175.4660  145.9940 S   0  0  0  0  0  0  0  0  0  0  0  0
  192.3830  174.7120  144.7810 C   0  0  0  0  0  0  0  0  0  0  0  0
  192.2050  173.9700  143.6420 N   0  0  0  0  0  0  0  0  0  0  0  0
  193.7340  174.8270  144.9950 C   0  0  0  0  0  0  0  0  0  0  0  0
  187.9320  176.0700  146.6580 C   0  0  0  0  0  2  0  0  0  0  0  0
  187.5570  177.5450  146.5590 C   0  0  2  0  0  3  0  0  0  0  0  0
  186.4330  177.8610  147.5350 C   0  0  0  0  0  2  0  0  0  0  0  0
  186.7620  179.1110  148.3280 C   0  0  0  0  0  1  0  0  0  0  0  0
  187.1310  177.8610  145.2020 N   0  0  0  0  0  2  0  0  0  0  0  0
  185.7080  177.5600  145.0970 C   0  0  0  0  0  2  0  0  0  0  0  0
  187.3970  177.7680  140.5480 O   0  0  0  0  0  1  0  0  0  0  0  0
  186.4230  178.1120  141.4890 C   0  0  2  0  0  3  0  0  0  0  0  0
  185.2830  177.3750  143.6450 C   0  0  2  0  0  3  0  0  0  0  0  0
  186.5000  177.2000  142.7210 C   0  0  1  0  0  3  0  0  0  0  0  0
  184.4070  178.4660  143.2170 N   0  0  0  0  0  2  0  0  0  0  0  0
  185.0350  178.1020  140.8440 C   0  0  0  0  0  2  0  0  0  0  0  0
  183.9050  178.1400  141.8840 C   0  0  0  0  0  2  0  0  0  0  0  0
  186.5990  175.8600  142.3380 O   0  0  0  0  0  1  0  0  0  0  0  0
  191.2560  172.8190  141.8050 O   0  0  0  0  0  0  0  0  0  0  0  0
  189.6760  173.0520  139.9650 N   0  0  0  0  0  2  0  0  0  0  0  0
  189.2480  173.3820  138.6400 C   0  0  0  0  0  0  0  0  0  0  0  0
  190.1500  173.9750  137.7020 N   0  0  0  0  0  2  0  0  0  0  0  0
  190.9990  173.2230  140.4850 C   0  0  0  0  0  0  0  0  0  0  0  0
  191.9020  173.7360  139.7690 O   0  0  0  0  0  0  0  0  0  0  0  0
  188.0590  173.1400  138.3040 O   0  0  0  0  0  0  0  0  0  0  0  0
  190.7120  173.8220  135.4430 O   0  0  0  0  0  1  0  0  0  0  0  0
  189.7600  174.3050  136.3400 C   0  0  0  0  0  2  0  0  0  0  0  0
  1 17  1  0  0  0  0
  1  4  2  0  0  0  0
  2 12  2  0  0  0  0
  2 15  1  0  0  0  0
  3 11  1  0  0  0  0
  3  1  1  0  0  0  0
  5  8  2  0  0  0  0
  6  5  1  0  0  0  0
  6 16  1  0  0  0  0
  7 15  1  0  0  0  0
  7  6  2  0  0  0  0
  8 13  1  0  0  0  0
  9  3  2  0  0  0  0
 10  4  1  0  0  0  0
 11 10  2  0  0  0  0
 12  9  1  0  0  0  0
 14 16  2  0  0  0  0
 14 11  1  0  0  0  0
 15 14  1  0  0  0  0
 16 13  1  0  0  0  0
 18 17  1  6  0  0  0
 18 19  1  0  0  0  0
 19 20  1  0  0  0  0
 21 18  1  0  0  0  0
 22 21  1  0  0  0  0
 24 23  1  6  0  0  0
 24 26  1  0  0  0  0
 25 22  1  1  0  0  0
 26 30  1  6  0  0  0
 26 25  1  0  0  0  0
 27 25  1  0  0  0  0
 28 24  1  0  0  0  0
 28 29  1  0  0  0  0
 29 27  1  0  0  0  0
 31  2  1  0  0  0  0
 32 35  1  0  0  0  0
 33 32  1  0  0  0  0
 34 33  1  0  0  0  0
 35 31  1  0  0  0  0
 36 35  2  0  0  0  0
 37 33  2  0  0  0  0
 38 39  1  0  0  0  0
 39 34  1  0  0  0  0
M  END
>  <MODEL>
4

>  <REMARK>
 VINA RESULT:      -7.5      1.939      2.285
  Name = 
  9 active torsions:
  status: ('A' for Active; 'I' for Inactive)
    1  A    between atoms: C_4  and  C_27
    2  A    between atoms: C_5  and  C_24
    3  A    between atoms: C_7  and  C_37
    4  A    between atoms: C_9  and  O_26
    5  A    between atoms: C_11  and  N_30
    6  A    between atoms: N_12  and  C_27
    7  A    between atoms: N_12  and  C_37
    8  A    between atoms: C_24  and  C_37
    9  A    between atoms: O_26  and  C_31
                            x       y       z     vdW  Elec       q    Type
                         _______ _______ _______ _____ _____    ______ ____

>  <TORSDO>
F 9

$$$$
=
 OpenBabel11042415013D

 39 43  0  0  1  0  0  0  0  0999 V2000
  190.6550  176.9800  144.4350 C   0  0  0  0  0  0  0  0  0  0  0  0
  186.9200  178.2610  142.2990 C   0  0  0  0  0  0  0  0  0  0  0  0
  189.4800  177.3810  143.8440 C   0  0  0  0  0  0  0  0  0  0  0  0
  190.4440  176.8250  145.7970 C   0  0  0  0  0  3  0  0  0  0  0  0
  184.0870  178.5590  146.1820 N   0  0  0  0  0  0  0  0  0  0  0  0
  185.1100  178.3920  145.3040 C   0  0  0  0  0  0  0  0  0  0  0  0
  185.2180  178.5310  143.9450 C   0  0  0  0  0  3  0  0  0  0  0  0
  184.4700  178.2930  147.4360 N   0  0  0  0  0  0  0  0  0  0  0  0
  189.3220  177.5760  142.5220 N   0  0  0  0  0  0  0  0  0  0  0  0
  189.1240  177.1590  146.0750 C   0  0  0  0  0  3  0  0  0  0  0  0
  188.4990  177.5050  144.8860 C   0  0  0  0  0  0  0  0  0  0  0  0
  188.2150  177.9540  141.8420 C   0  0  0  0  0  3  0  0  0  0  0  0
  186.0930  177.8470  147.4390 S   0  0  0  0  0  0  0  0  0  0  0  0
  187.1740  177.8900  144.7570 C   0  0  0  0  0  0  0  0  0  0  0  0
  186.5090  178.2180  143.6040 N   0  0  0  0  0  0  0  0  0  0  0  0
  186.2840  178.0060  145.7960 C   0  0  0  0  0  0  0  0  0  0  0  0
  191.9260  176.6650  143.7090 C   0  0  0  0  0  2  0  0  0  0  0  0
  192.8660  175.8140  144.5570 C   0  0  2  0  0  3  0  0  0  0  0  0
  194.1170  176.6080  144.9000 C   0  0  0  0  0  2  0  0  0  0  0  0
  194.5190  176.3580  146.3400 C   0  0  0  0  0  1  0  0  0  0  0  0
  193.2350  174.6050  143.8320 N   0  0  0  0  0  2  0  0  0  0  0  0
  192.7390  173.4610  144.5890 C   0  0  0  0  0  2  0  0  0  0  0  0
  189.9650  173.7770  140.6150 O   0  0  0  0  0  1  0  0  0  0  0  0
  190.0740  173.6210  141.9980 C   0  0  2  0  0  3  0  0  0  0  0  0
  191.5830  172.7750  143.8690 C   0  0  2  0  0  3  0  0  0  0  0  0
  191.4990  173.2130  142.3970 C   0  0  1  0  0  3  0  0  0  0  0  0
  190.3250  172.9830  144.5880 N   0  0  0  0  0  2  0  0  0  0  0  0
  189.0230  172.6310  142.5050 C   0  0  0  0  0  2  0  0  0  0  0  0
  189.3010  172.1650  143.9420 C   0  0  0  0  0  2  0  0  0  0  0  0
  191.9630  172.1780  141.5810 O   0  0  0  0  0  1  0  0  0  0  0  0
  185.9500  178.6270  141.3400 O   0  0  0  0  0  0  0  0  0  0  0  0
  186.6250  177.2490  139.4480 N   0  0  0  0  0  2  0  0  0  0  0  0
  186.4490  176.5210  138.2290 C   0  0  0  0  0  0  0  0  0  0  0  0
  185.1550  176.3830  137.6360 N   0  0  0  0  0  2  0  0  0  0  0  0
  185.5970  177.9340  140.1710 C   0  0  0  0  0  0  0  0  0  0  0  0
  184.4030  177.8990  139.7650 O   0  0  0  0  0  0  0  0  0  0  0  0
  187.4540  175.9990  137.6780 O   0  0  0  0  0  0  0  0  0  0  0  0
  183.5800  175.6730  136.0680 O   0  0  0  0  0  1  0  0  0  0  0  0
  184.9370  175.6690  136.3870 C   0  0  0  0  0  2  0  0  0  0  0  0
  1  4  2  0  0  0  0
  2 15  1  0  0  0  0
  3  1  1  0  0  0  0
  3 11  1  0  0  0  0
  4 10  1  0  0  0  0
  5  8  2  0  0  0  0
  6 16  1  0  0  0  0
  6  5  1  0  0  0  0
  7  6  2  0  0  0  0
  8 13  1  0  0  0  0
  9  3  2  0  0  0  0
 11 10  2  0  0  0  0
 12  2  2  0  0  0  0
 12  9  1  0  0  0  0
 14 11  1  0  0  0  0
 14 16  2  0  0  0  0
 15  7  1  0  0  0  0
 15 14  1  0  0  0  0
 16 13  1  0  0  0  0
 17  1  1  0  0  0  0
 18 17  1  6  0  0  0
 18 19  1  0  0  0  0
 19 20  1  0  0  0  0
 21 18  1  0  0  0  0
 21 22  1  0  0  0  0
 24 23  1  6  0  0  0
 24 26  1  0  0  0  0
 24 28  1  0  0  0  0
 25 27  1  0  0  0  0
 25 22  1  1  0  0  0
 26 30  1  6  0  0  0
 26 25  1  0  0  0  0
 28 29  1  0  0  0  0
 29 27  1  0  0  0  0
 31  2  1  0  0  0  0
 32 35  1  0  0  0  0
 33 32  1  0  0  0  0
 34 33  1  0  0  0  0
 35 31  1  0  0  0  0
 36 35  2  0  0  0  0
 37 33  2  0  0  0  0
 38 39  1  0  0  0  0
 39 34  1  0  0  0  0
M  END
>  <MODEL>
5

>  <REMARK>
 VINA RESULT:      -7.1      3.062      7.739
  Name = 
  9 active torsions:
  status: ('A' for Active; 'I' for Inactive)
    1  A    between atoms: C_4  and  C_27
    2  A    between atoms: C_5  and  C_24
    3  A    between atoms: C_7  and  C_37
    4  A    between atoms: C_9  and  O_26
    5  A    between atoms: C_11  and  N_30
    6  A    between atoms: N_12  and  C_27
    7  A    between atoms: N_12  and  C_37
    8  A    between atoms: C_24  and  C_37
    9  A    between atoms: O_26  and  C_31
                            x       y       z     vdW  Elec       q    Type
                         _______ _______ _______ _____ _____    ______ ____

>  <TORSDO>
F 9

$$$$
=
 OpenBabel11042415013D

 39 43  0  0  1  0  0  0  0  0999 V2000
  193.3650  172.0770  144.6690 C   0  0  0  0  0  0  0  0  0  0  0  0
  190.7990  175.7420  144.2950 C   0  0  0  0  0  0  0  0  0  0  0  0
  192.5460  173.1680  144.4990 C   0  0  0  0  0  0  0  0  0  0  0  0
  193.1700  171.2010  143.6110 C   0  0  0  0  0  3  0  0  0  0  0  0
  188.5260  174.4660  140.2460 N   0  0  0  0  0  0  0  0  0  0  0  0
  189.3110  174.5390  141.3510 C   0  0  0  0  0  0  0  0  0  0  0  0
  189.4680  175.4800  142.3350 C   0  0  0  0  0  3  0  0  0  0  0  0
  188.7330  173.3290  139.5720 N   0  0  0  0  0  0  0  0  0  0  0  0
  192.5200  174.2330  145.3210 N   0  0  0  0  0  0  0  0  0  0  0  0
  192.1960  171.7330  142.7760 C   0  0  0  0  0  3  0  0  0  0  0  0
  191.7900  172.9530  143.2960 C   0  0  0  0  0  0  0  0  0  0  0  0
  191.7680  175.3560  145.2400 C   0  0  0  0  0  3  0  0  0  0  0  0
  189.9050  172.4190  140.3660 S   0  0  0  0  0  0  0  0  0  0  0  0
  190.8360  173.7880  142.7370 C   0  0  0  0  0  0  0  0  0  0  0  0
  190.4210  175.0100  143.2020 N   0  0  0  0  0  0  0  0  0  0  0  0
  190.1330  173.5210  141.5900 C   0  0  0  0  0  0  0  0  0  0  0  0
  194.3730  171.9120  145.7630 C   0  0  0  0  0  2  0  0  0  0  0  0
  195.7680  172.3360  145.3140 C   0  0  2  0  0  3  0  0  0  0  0  0
  196.8180  171.4870  146.0140 C   0  0  0  0  0  2  0  0  0  0  0  0
  197.0780  170.2180  145.2260 C   0  0  0  0  0  1  0  0  0  0  0  0
  195.9860  173.7430  145.6270 N   0  0  0  0  0  2  0  0  0  0  0  0
  197.2140  174.1630  144.9620 C   0  0  0  0  0  2  0  0  0  0  0  0
  193.6170  176.2550  142.4570 O   0  0  0  0  0  1  0  0  0  0  0  0
  194.8780  175.6540  142.4810 C   0  0  2  0  0  3  0  0  0  0  0  0
  196.9410  175.2390  143.9170 C   0  0  2  0  0  3  0  0  0  0  0  0
  195.4580  175.6440  143.9020 C   0  0  1  0  0  3  0  0  0  0  0  0
  197.4200  174.8180  142.5990 N   0  0  0  0  0  2  0  0  0  0  0  0
  195.8100  176.3370  141.4770 C   0  0  0  0  0  2  0  0  0  0  0  0
  197.2820  175.9530  141.6900 C   0  0  0  0  0  2  0  0  0  0  0  0
  195.3170  176.8990  144.5010 O   0  0  0  0  0  1  0  0  0  0  0  0
  190.1710  176.9950  144.4670 O   0  0  0  0  0  0  0  0  0  0  0  0
  187.9150  177.9160  144.5110 N   0  0  0  0  0  2  0  0  0  0  0  0
  186.6670  178.2960  145.0980 C   0  0  0  0  0  0  0  0  0  0  0  0
  186.3820  178.0080  146.4700 N   0  0  0  0  0  2  0  0  0  0  0  0
  188.9990  177.2730  145.1900 C   0  0  0  0  0  0  0  0  0  0  0  0
  188.8900  176.9580  146.4060 O   0  0  0  0  0  0  0  0  0  0  0  0
  185.8150  178.8940  144.3890 O   0  0  0  0  0  0  0  0  0  0  0  0
  184.0670  177.7200  146.5190 O   0  0  0  0  0  1  0  0  0  0  0  0
  185.1350  178.3970  147.1090 C   0  0  0  0  0  2  0  0  0  0  0  0
  1 17  1  0  0  0  0
  2 31  1  0  0  0  0
  2 12  2  0  0  0  0
  3  1  1  0  0  0  0
  3  9  2  0  0  0  0
  4  1  2  0  0  0  0
  5  6  1  0  0  0  0
  6 16  1  0  0  0  0
  6  7  2  0  0  0  0
  7 15  1  0  0  0  0
  8  5  2  0  0  0  0
  8 13  1  0  0  0  0
 10 11  2  0  0  0  0
 10  4  1  0  0  0  0
 11  3  1  0  0  0  0
 12  9  1  0  0  0  0
 13 16  1  0  0  0  0
 14 15  1  0  0  0  0
 14 11  1  0  0  0  0
 15  2  1  0  0  0  0
 16 14  2  0  0  0  0
 18 21  1  0  0  0  0
 18 17  1  1  0  0  0
 18 19  1  0  0  0  0
 20 19  1  0  0  0  0
 22 21  1  0  0  0  0
 24 23  1  1  0  0  0
 24 26  1  0  0  0  0
 25 22  1  1  0  0  0
 26 25  1  0  0  0  0
 26 30  1  6  0  0  0
 27 25  1  0  0  0  0
 28 29  1  0  0  0  0
 28 24  1  0  0  0  0
 29 27  1  0  0  0  0
 31 35  1  0  0  0  0
 32 33  1  0  0  0  0
 32 35  1  0  0  0  0
 33 34  1  0  0  0  0
 34 39  1  0  0  0  0
 35 36  2  0  0  0  0
 37 33  2  0  0  0  0
 38 39  1  0  0  0  0
M  END
>  <MODEL>
6

>  <REMARK>
 VINA RESULT:      -7.0      3.353      8.612
  Name = 
  9 active torsions:
  status: ('A' for Active; 'I' for Inactive)
    1  A    between atoms: C_4  and  C_27
    2  A    between atoms: C_5  and  C_24
    3  A    between atoms: C_7  and  C_37
    4  A    between atoms: C_9  and  O_26
    5  A    between atoms: C_11  and  N_30
    6  A    between atoms: N_12  and  C_27
    7  A    between atoms: N_12  and  C_37
    8  A    between atoms: C_24  and  C_37
    9  A    between atoms: O_26  and  C_31
                            x       y       z     vdW  Elec       q    Type
                         _______ _______ _______ _____ _____    ______ ____

>  <TORSDO>
F 9

$$$$
=
 OpenBabel11042415013D

 39 43  0  0  1  0  0  0  0  0999 V2000
  189.8620  174.2930  145.3560 C   0  0  0  0  0  0  0  0  0  0  0  0
  187.9670  176.4100  141.8810 C   0  0  0  0  0  0  0  0  0  0  0  0
  189.2920  174.8830  144.2530 C   0  0  0  0  0  0  0  0  0  0  0  0
  190.4190  173.0790  144.9800 C   0  0  0  0  0  3  0  0  0  0  0  0
  188.8310  173.0170  138.5750 N   0  0  0  0  0  0  0  0  0  0  0  0
  188.7340  173.7640  139.7040 C   0  0  0  0  0  0  0  0  0  0  0  0
  188.1920  174.9930  139.9770 C   0  0  0  0  0  3  0  0  0  0  0  0
  189.4650  171.8610  138.8050 N   0  0  0  0  0  0  0  0  0  0  0  0
  188.7070  176.0940  144.2560 N   0  0  0  0  0  0  0  0  0  0  0  0
  190.1740  172.8870  143.6260 C   0  0  0  0  0  3  0  0  0  0  0  0
  189.4800  173.9870  143.1450 C   0  0  0  0  0  0  0  0  0  0  0  0
  188.1310  176.7670  143.2320 C   0  0  0  0  0  3  0  0  0  0  0  0
  189.9040  171.7830  140.4280 S   0  0  0  0  0  0  0  0  0  0  0  0
  189.0630  174.1650  141.8350 C   0  0  0  0  0  0  0  0  0  0  0  0
  188.3980  175.2430  141.3100 N   0  0  0  0  0  0  0  0  0  0  0  0
  189.2590  173.2640  140.8190 C   0  0  0  0  0  0  0  0  0  0  0  0
  189.9530  174.9090  146.7180 C   0  0  0  0  0  2  0  0  0  0  0  0
  191.3770  175.3500  147.0440 C   0  0  2  0  0  3  0  0  0  0  0  0
  191.3490  176.4910  148.0500 C   0  0  0  0  0  2  0  0  0  0  0  0
  190.3280  177.5320  147.6340 C   0  0  0  0  0  1  0  0  0  0  0  0
  192.0560  175.7830  145.8290 N   0  0  0  0  0  2  0  0  0  0  0  0
  193.4920  175.6660  146.0550 C   0  0  0  0  0  2  0  0  0  0  0  0
  197.2230  176.7580  143.1430 O   0  0  0  0  0  1  0  0  0  0  0  0
  195.8770  176.4210  143.3010 C   0  0  2  0  0  3  0  0  0  0  0  0
  194.2170  175.1980  144.7970 C   0  0  2  0  0  3  0  0  0  0  0  0
  195.6180  175.8220  144.6910 C   0  0  1  0  0  3  0  0  0  0  0  0
  193.4020  175.4430  143.6060 N   0  0  0  0  0  2  0  0  0  0  0  0
  195.4270  175.4890  142.1730 C   0  0  0  0  0  2  0  0  0  0  0  0
  194.0750  174.8220  142.4680 C   0  0  0  0  0  2  0  0  0  0  0  0
  196.5780  174.8540  144.9980 O   0  0  0  0  0  1  0  0  0  0  0  0
  187.3210  177.3320  141.0280 O   0  0  0  0  0  0  0  0  0  0  0  0
  185.2790  178.0280  142.1600 N   0  0  0  0  0  2  0  0  0  0  0  0
  183.8860  178.3330  142.2790 C   0  0  0  0  0  0  0  0  0  0  0  0
  183.0240  178.2890  141.1390 N   0  0  0  0  0  2  0  0  0  0  0  0
  185.9480  177.6210  140.9620 C   0  0  0  0  0  0  0  0  0  0  0  0
  185.3120  177.5380  139.8750 O   0  0  0  0  0  0  0  0  0  0  0  0
  183.4220  178.6400  143.4080 O   0  0  0  0  0  0  0  0  0  0  0  0
  180.9360  177.9960  140.1380 O   0  0  0  0  0  1  0  0  0  0  0  0
  181.5990  178.5710  141.2220 C   0  0  0  0  0  2  0  0  0  0  0  0
  1 17  1  0  0  0  0
  2 12  2  0  0  0  0
  3  9  2  0  0  0  0
  3  1  1  0  0  0  0
  4  1  2  0  0  0  0
  5  8  2  0  0  0  0
  5  6  1  0  0  0  0
  6  7  2  0  0  0  0
  6 16  1  0  0  0  0
  7 15  1  0  0  0  0
  8 13  1  0  0  0  0
 10  4  1  0  0  0  0
 11 10  2  0  0  0  0
 11  3  1  0  0  0  0
 12  9  1  0  0  0  0
 13 16  1  0  0  0  0
 14 11  1  0  0  0  0
 15 14  1  0  0  0  0
 15  2  1  0  0  0  0
 16 14  2  0  0  0  0
 18 17  1  6  0  0  0
 18 19  1  0  0  0  0
 20 19  1  0  0  0  0
 21 22  1  0  0  0  0
 21 18  1  0  0  0  0
 24 23  1  6  0  0  0
 24 26  1  0  0  0  0
 25 22  1  1  0  0  0
 26 25  1  0  0  0  0
 26 30  1  6  0  0  0
 27 25  1  0  0  0  0
 28 29  1  0  0  0  0
 28 24  1  0  0  0  0
 29 27  1  0  0  0  0
 31  2  1  0  0  0  0
 32 33  1  0  0  0  0
 33 37  2  0  0  0  0
 34 39  1  0  0  0  0
 34 33  1  0  0  0  0
 35 31  1  0  0  0  0
 35 32  1  0  0  0  0
 36 35  2  0  0  0  0
 38 39  1  0  0  0  0
M  END
>  <MODEL>
7

>  <REMARK>
 VINA RESULT:      -7.0      3.454      7.980
  Name = 
  9 active torsions:
  status: ('A' for Active; 'I' for Inactive)
    1  A    between atoms: C_4  and  C_27
    2  A    between atoms: C_5  and  C_24
    3  A    between atoms: C_7  and  C_37
    4  A    between atoms: C_9  and  O_26
    5  A    between atoms: C_11  and  N_30
    6  A    between atoms: N_12  and  C_27
    7  A    between atoms: N_12  and  C_37
    8  A    between atoms: C_24  and  C_37
    9  A    between atoms: O_26  and  C_31
                            x       y       z     vdW  Elec       q    Type
                         _______ _______ _______ _____ _____    ______ ____

>  <TORSDO>
F 9

$$$$
=
 OpenBabel11042415013D

 39 43  0  0  1  0  0  0  0  0999 V2000
  192.5530  172.1580  142.9630 C   0  0  0  0  0  0  0  0  0  0  0  0
  188.7090  174.1900  141.8460 C   0  0  0  0  0  0  0  0  0  0  0  0
  191.3880  172.7620  142.5530 C   0  0  0  0  0  0  0  0  0  0  0  0
  193.2760  171.7690  141.8440 C   0  0  0  0  0  3  0  0  0  0  0  0
  189.1630  173.7400  137.0730 N   0  0  0  0  0  0  0  0  0  0  0  0
  189.3170  173.7090  138.4220 C   0  0  0  0  0  0  0  0  0  0  0  0
  188.5570  174.1630  139.4670 C   0  0  0  0  0  3  0  0  0  0  0  0
  190.1960  173.1620  136.4490 N   0  0  0  0  0  0  0  0  0  0  0  0
  190.4790  173.3010  143.3850 N   0  0  0  0  0  0  0  0  0  0  0  0
  192.5450  172.1080  140.7120 C   0  0  0  0  0  3  0  0  0  0  0  0
  191.3710  172.7270  141.1160 C   0  0  0  0  0  0  0  0  0  0  0  0
  189.3150  173.9250  143.0890 C   0  0  0  0  0  3  0  0  0  0  0  0
  191.3020  172.6160  137.5950 S   0  0  0  0  0  0  0  0  0  0  0  0
  190.3870  173.2150  140.2710 C   0  0  0  0  0  0  0  0  0  0  0  0
  189.2260  173.8530  140.6240 N   0  0  0  0  0  0  0  0  0  0  0  0
  190.4190  173.1390  138.9020 C   0  0  0  0  0  0  0  0  0  0  0  0
  193.0110  172.0330  144.3820 C   0  0  0  0  0  2  0  0  0  0  0  0
  193.8390  173.2380  144.8180 C   0  0  2  0  0  3  0  0  0  0  0  0
  195.1600  172.7740  145.4100 C   0  0  0  0  0  2  0  0  0  0  0  0
  195.2140  171.2590  145.4510 C   0  0  0  0  0  1  0  0  0  0  0  0
  193.1040  174.0160  145.8070 N   0  0  0  0  0  2  0  0  0  0  0  0
  193.0040  175.3860  145.3140 C   0  0  0  0  0  2  0  0  0  0  0  0
  188.8260  174.5410  147.6410 O   0  0  0  0  0  1  0  0  0  0  0  0
  189.5170  175.1430  146.5880 C   0  0  2  0  0  3  0  0  0  0  0  0
  191.7720  176.0890  145.8720 C   0  0  2  0  0  3  0  0  0  0  0  0
  191.0240  175.2000  146.8780 C   0  0  1  0  0  3  0  0  0  0  0  0
  190.9070  176.5600  144.7890 N   0  0  0  0  0  2  0  0  0  0  0  0
  188.9310  176.5250  146.2890 C   0  0  0  0  0  2  0  0  0  0  0  0
  189.8430  177.3660  145.3840 C   0  0  0  0  0  2  0  0  0  0  0  0
  191.2600  175.6690  148.1730 O   0  0  0  0  0  1  0  0  0  0  0  0
  187.4750  174.8750  141.8450 O   0  0  0  0  0  0  0  0  0  0  0  0
  186.3600  175.9060  143.7510 N   0  0  0  0  0  2  0  0  0  0  0  0
  185.9090  176.9810  144.5800 C   0  0  0  0  0  0  0  0  0  0  0  0
  186.2590  178.3360  144.2820 N   0  0  0  0  0  2  0  0  0  0  0  0
  187.1400  176.0380  142.5580 C   0  0  0  0  0  0  0  0  0  0  0  0
  187.5230  177.1760  142.1720 O   0  0  0  0  0  0  0  0  0  0  0  0
  185.1920  176.7220  145.5820 O   0  0  0  0  0  0  0  0  0  0  0  0
  185.4970  180.5410  144.2630 O   0  0  0  0  0  1  0  0  0  0  0  0
  185.8020  179.4580  145.0870 C   0  0  0  0  0  2  0  0  0  0  0  0
  1 17  1  0  0  0  0
  2 12  2  0  0  0  0
  3  1  1  0  0  0  0
  3  9  2  0  0  0  0
  4  1  2  0  0  0  0
  5  6  1  0  0  0  0
  6 16  1  0  0  0  0
  6  7  2  0  0  0  0
  7 15  1  0  0  0  0
  8  5  2  0  0  0  0
  8 13  1  0  0  0  0
 10 11  2  0  0  0  0
 10  4  1  0  0  0  0
 11  3  1  0  0  0  0
 12  9  1  0  0  0  0
 13 16  1  0  0  0  0
 14 15  1  0  0  0  0
 14 11  1  0  0  0  0
 15  2  1  0  0  0  0
 16 14  2  0  0  0  0
 18 17  1  1  0  0  0
 18 19  1  0  0  0  0
 18 21  1  0  0  0  0
 19 20  1  0  0  0  0
 22 21  1  0  0  0  0
 24 26  1  0  0  0  0
 24 23  1  1  0  0  0
 25 22  1  6  0  0  0
 25 26  1  0  0  0  0
 26 30  1  1  0  0  0
 27 29  1  0  0  0  0
 27 25  1  0  0  0  0
 28 24  1  0  0  0  0
 29 28  1  0  0  0  0
 31  2  1  0  0  0  0
 31 35  1  0  0  0  0
 32 33  1  0  0  0  0
 33 37  2  0  0  0  0
 34 33  1  0  0  0  0
 34 39  1  0  0  0  0
 35 32  1  0  0  0  0
 36 35  2  0  0  0  0
 38 39  1  0  0  0  0
M  END
>  <MODEL>
8

>  <REMARK>
 VINA RESULT:      -7.0      3.150      7.655
  Name = 
  9 active torsions:
  status: ('A' for Active; 'I' for Inactive)
    1  A    between atoms: C_4  and  C_27
    2  A    between atoms: C_5  and  C_24
    3  A    between atoms: C_7  and  C_37
    4  A    between atoms: C_9  and  O_26
    5  A    between atoms: C_11  and  N_30
    6  A    between atoms: N_12  and  C_27
    7  A    between atoms: N_12  and  C_37
    8  A    between atoms: C_24  and  C_37
    9  A    between atoms: O_26  and  C_31
                            x       y       z     vdW  Elec       q    Type
                         _______ _______ _______ _____ _____    ______ ____

>  <TORSDO>
F 9

$$$$
=
 OpenBabel11042415013D

 39 43  0  0  1  0  0  0  0  0999 V2000
  189.0260  176.0670  146.6780 C   0  0  0  0  0  0  0  0  0  0  0  0
  191.2610  172.9210  144.3840 C   0  0  0  0  0  0  0  0  0  0  0  0
  189.7690  175.1430  145.9820 C   0  0  0  0  0  0  0  0  0  0  0  0
  189.8010  177.1970  146.8930 C   0  0  0  0  0  3  0  0  0  0  0  0
  195.4390  175.2900  144.0420 N   0  0  0  0  0  0  0  0  0  0  0  0
  194.1700  174.8850  144.3020 C   0  0  0  0  0  0  0  0  0  0  0  0
  193.4650  173.7470  144.0090 C   0  0  0  0  0  3  0  0  0  0  0  0
  195.6750  176.5110  144.5350 N   0  0  0  0  0  0  0  0  0  0  0  0
  189.3040  173.9520  145.5650 N   0  0  0  0  0  0  0  0  0  0  0  0
  191.0600  176.9740  146.3500 C   0  0  0  0  0  3  0  0  0  0  0  0
  191.0730  175.7110  145.7760 C   0  0  0  0  0  0  0  0  0  0  0  0
  189.9410  172.9820  144.8690 C   0  0  0  0  0  3  0  0  0  0  0  0
  194.2850  177.0800  145.2950 S   0  0  0  0  0  0  0  0  0  0  0  0
  192.1530  175.1340  145.1270 C   0  0  0  0  0  0  0  0  0  0  0  0
  192.2040  173.9030  144.5260 N   0  0  0  0  0  0  0  0  0  0  0  0
  193.3840  175.7210  144.9740 C   0  0  0  0  0  0  0  0  0  0  0  0
  187.5840  175.9150  147.0500 C   0  0  0  0  0  2  0  0  0  0  0  0
  186.7800  177.1680  146.7180 C   0  0  2  0  0  3  0  0  0  0  0  0
  186.2400  177.7920  147.9970 C   0  0  0  0  0  2  0  0  0  0  0  0
  186.9880  179.0720  148.3130 C   0  0  0  0  0  1  0  0  0  0  0  0
  185.6740  176.8310  145.8320 N   0  0  0  0  0  2  0  0  0  0  0  0
  185.3420  178.0210  145.0570 C   0  0  0  0  0  2  0  0  0  0  0  0
  187.3250  177.7620  140.6300 O   0  0  0  0  0  1  0  0  0  0  0  0
  186.2870  178.1880  141.4630 C   0  0  2  0  0  3  0  0  0  0  0  0
  185.0170  177.6700  143.6100 C   0  0  2  0  0  3  0  0  0  0  0  0
  186.2930  177.4190  142.7910 C   0  0  1  0  0  3  0  0  0  0  0  0
  184.1570  178.6910  143.0080 N   0  0  0  0  0  2  0  0  0  0  0  0
  184.9450  178.0800  140.7350 C   0  0  0  0  0  2  0  0  0  0  0  0
  183.7480  178.2100  141.6900 C   0  0  0  0  0  2  0  0  0  0  0  0
  186.4340  176.0470  142.5660 O   0  0  0  0  0  1  0  0  0  0  0  0
  191.6520  171.7640  143.6750 O   0  0  0  0  0  0  0  0  0  0  0  0
  191.2220  169.9810  142.0710 N   0  0  0  0  0  2  0  0  0  0  0  0
  190.8740  169.4160  140.8030 C   0  0  0  0  0  0  0  0  0  0  0  0
  190.4780  170.2490  139.7100 N   0  0  0  0  0  2  0  0  0  0  0  0
  191.2590  171.3780  142.3830 C   0  0  0  0  0  0  0  0  0  0  0  0
  190.9340  172.2330  141.5140 O   0  0  0  0  0  0  0  0  0  0  0  0
  190.9230  168.1660  140.6570 O   0  0  0  0  0  0  0  0  0  0  0  0
  191.2930  169.5600  137.6350 O   0  0  0  0  0  1  0  0  0  0  0  0
  190.1380  169.7150  138.4010 C   0  0  0  0  0  2  0  0  0  0  0  0
  1  4  2  0  0  0  0
  1 17  1  0  0  0  0
  2 15  1  0  0  0  0
  2 12  2  0  0  0  0
  3  1  1  0  0  0  0
  5  6  1  0  0  0  0
  5  8  2  0  0  0  0
  6 16  1  0  0  0  0
  7  6  2  0  0  0  0
  7 15  1  0  0  0  0
  8 13  1  0  0  0  0
  9  3  2  0  0  0  0
 10  4  1  0  0  0  0
 11  3  1  0  0  0  0
 11 10  2  0  0  0  0
 12  9  1  0  0  0  0
 14 11  1  0  0  0  0
 15 14  1  0  0  0  0
 16 14  2  0  0  0  0
 16 13  1  0  0  0  0
 18 17  1  1  0  0  0
 18 19  1  0  0  0  0
 19 20  1  0  0  0  0
 21 18  1  0  0  0  0
 22 21  1  0  0  0  0
 24 23  1  6  0  0  0
 24 26  1  0  0  0  0
 25 22  1  1  0  0  0
 26 30  1  6  0  0  0
 26 25  1  0  0  0  0
 27 25  1  0  0  0  0
 28 24  1  0  0  0  0
 28 29  1  0  0  0  0
 29 27  1  0  0  0  0
 31  2  1  0  0  0  0
 32 35  1  0  0  0  0
 33 32  1  0  0  0  0
 34 33  1  0  0  0  0
 35 31  1  0  0  0  0
 36 35  2  0  0  0  0
 37 33  2  0  0  0  0
 38 39  1  0  0  0  0
 39 34  1  0  0  0  0
M  END
>  <MODEL>
9

>  <REMARK>
 VINA RESULT:      -7.0      1.690      2.112
  Name = 
  9 active torsions:
  status: ('A' for Active; 'I' for Inactive)
    1  A    between atoms: C_4  and  C_27
    2  A    between atoms: C_5  and  C_24
    3  A    between atoms: C_7  and  C_37
    4  A    between atoms: C_9  and  O_26
    5  A    between atoms: C_11  and  N_30
    6  A    between atoms: N_12  and  C_27
    7  A    between atoms: N_12  and  C_37
    8  A    between atoms: C_24  and  C_37
    9  A    between atoms: O_26  and  C_31
                            x       y       z     vdW  Elec       q    Type
                         _______ _______ _______ _____ _____    ______ ____

>  <TORSDO>
F 9

$$$$
