=
 OpenBabel11042415233D

 47 52  0  0  1  0  0  0  0  0999 V2000
  193.7370  172.9520  145.2860 C   0  0  0  0  0  2  0  0  0  0  0  0
  191.0070  172.7200  141.2480 C   0  0  0  0  0  0  0  0  0  0  0  0
  190.2840  172.2930  142.5020 C   0  0  1  0  0  3  0  0  0  0  0  0
  192.7840  173.9680  140.1590 C   0  0  0  0  0  3  0  0  0  0  0  0
  191.1430  172.4650  143.7650 C   0  0  2  0  0  3  0  0  0  0  0  0
  192.5750  174.0460  142.5630 O   0  0  0  0  0  0  0  0  0  0  0  0
  190.5660  172.2660  140.0000 C   0  0  0  0  0  3  0  0  0  0  0  0
  192.3500  173.5020  138.9120 C   0  0  0  0  0  0  0  0  0  0  0  0
  192.6910  174.0430  145.0180 C   0  0  2  0  0  3  0  0  0  0  0  0
  193.8470  171.9450  144.1490 C   0  0  0  0  0  2  0  0  0  0  0  0
  192.1170  173.5850  141.3250 C   0  0  0  0  0  0  0  0  0  0  0  0
  191.8300  173.8410  143.7650 C   0  0  2  0  0  3  0  0  0  0  0  0
  192.2800  171.0280  143.9430 S   0  0  0  0  0  0  0  0  0  0  0  0
  191.2310  172.6600  138.8350 C   0  0  0  0  0  3  0  0  0  0  0  0
  195.7170  173.8890  137.9380 C   0  0  0  0  0  2  0  0  0  0  0  0
  192.2360  174.9250  136.9200 N   0  0  0  0  0  0  0  0  0  0  0  0
  193.0580  173.9680  137.6800 C   0  0  1  0  0  3  0  0  0  0  0  0
  193.9720  176.3890  135.9330 N   0  0  0  0  0  0  0  0  0  0  0  0
  192.6070  175.9440  136.1730 C   0  0  0  0  0  3  0  0  0  0  0  0
  195.0400  174.3610  136.6760 C   0  0  1  0  0  3  0  0  0  0  0  0
  194.3820  174.5940  138.0220 C   0  0  2  0  0  3  0  0  0  0  0  0
  195.0900  175.7490  136.1700 C   0  0  0  0  0  0  0  0  0  0  0  0
  197.3560  175.6450  135.1960 C   0  0  0  0  0  1  0  0  0  0  0  0
  196.3290  176.3350  135.8990 O   0  0  0  0  0  0  0  0  0  0  0  0
  188.6350  174.0440  141.9600 C   0  0  0  0  0  0  0  0  0  0  0  0
  188.3280  175.1180  141.2780 C   0  0  0  0  0  3  0  0  0  0  0  0
  188.9490  172.9680  142.6360 C   0  0  0  0  0  3  0  0  0  0  0  0
  186.9780  178.5830  142.0020 C   0  0  0  0  0  3  0  0  0  0  0  0
  185.7870  176.9580  143.3450 C   0  0  0  0  0  3  0  0  0  0  0  0
  186.5590  175.9340  142.7900 C   0  0  0  0  0  3  0  0  0  0  0  0
  185.9910  178.2900  142.9520 C   0  0  0  0  0  0  0  0  0  0  0  0
  187.5410  176.2250  141.8390 C   0  0  0  0  0  0  0  0  0  0  0  0
  187.7500  177.5570  141.4470 C   0  0  0  0  0  3  0  0  0  0  0  0
  185.2350  179.3360  143.4840 O   0  0  0  0  0  0  0  0  0  0  0  0
  184.7090  179.3050  144.8040 C   0  0  0  0  0  1  0  0  0  0  0  0
  193.2840  175.4470  145.1110 C   0  0  0  0  0  2  0  0  0  0  0  0
  192.7140  176.1850  146.2330 N   0  0  0  0  0  2  0  0  0  0  0  0
  191.9610  175.2340  147.0330 C   0  0  0  0  0  2  0  0  0  0  0  0
  190.7590  175.9210  147.6550 C   0  0  0  0  0  2  0  0  0  0  0  0
  189.4960  175.3930  147.0470 C   0  0  0  0  0  0  0  0  0  0  0  0
  189.1140  174.2730  147.3500 O   0  0  0  0  0  0  0  0  0  0  0  0
  188.6910  176.1950  146.0560 C   0  0  1  0  0  3  0  0  0  0  0  0
  188.2350  177.3710  146.6620 O   0  0  0  0  0  0  0  0  0  0  0  0
  186.8930  177.1300  146.9590 C   0  0  0  0  0  1  0  0  0  0  0  0
  189.4840  176.5410  144.7940 C   0  0  0  0  0  2  0  0  0  0  0  0
  189.4500  177.9170  144.5720 O   0  0  0  0  0  0  0  0  0  0  0  0
  190.6810  178.2040  143.9830 C   0  0  0  0  0  1  0  0  0  0  0  0
  2 11  1  0  0  0  0
  2  3  1  0  0  0  0
  3 27  1  1  0  0  0
  3  5  1  0  0  0  0
  4 11  2  0  0  0  0
  5 13  1  6  0  0  0
  7  2  2  0  0  0  0
  8  4  1  0  0  0  0
  9 36  1  6  0  0  0
  9  1  1  0  0  0  0
 10  1  1  0  0  0  0
 11  6  1  0  0  0  0
 12  6  1  6  0  0  0
 12  5  1  0  0  0  0
 12  9  1  0  0  0  0
 13 10  1  0  0  0  0
 14  8  2  0  0  0  0
 14  7  1  0  0  0  0
 16 17  1  0  0  0  0
 17 21  1  0  0  0  0
 17  8  1  1  0  0  0
 18 22  2  0  0  0  0
 18 19  1  0  0  0  0
 19 16  2  0  0  0  0
 20 15  1  1  0  0  0
 20 21  1  0  0  0  0
 21 15  1  1  0  0  0
 22 20  1  0  0  0  0
 23 24  1  0  0  0  0
 24 22  1  0  0  0  0
 25 27  2  0  0  0  0
 26 32  1  0  0  0  0
 26 25  2  0  0  0  0
 28 31  1  0  0  0  0
 30 29  1  0  0  0  0
 31 29  2  0  0  0  0
 31 34  1  0  0  0  0
 32 30  2  0  0  0  0
 33 32  1  0  0  0  0
 33 28  2  0  0  0  0
 34 35  1  0  0  0  0
 36 37  1  0  0  0  0
 37 38  1  0  0  0  0
 38 39  1  0  0  0  0
 40 41  2  0  0  0  0
 40 39  1  0  0  0  0
 42 45  1  6  0  0  0
 42 43  1  0  0  0  0
 42 40  1  0  0  0  0
 43 44  1  0  0  0  0
 46 45  1  0  0  0  0
 47 46  1  0  0  0  0
M  END
>  <MODEL>
1

>  <REMARK>
 VINA RESULT:      -6.8      0.000      0.000
  Name = 
  14 active torsions:
  status: ('A' for Active; 'I' for Inactive)
    1  A    between atoms: C_6  and  C_17
    2  A    between atoms: C_6  and  O_19
    3  A    between atoms: O_8  and  C_24
    4  A    between atoms: C_11  and  N_23
    5  A    between atoms: C_11  and  C_41
    6  A    between atoms: C_12  and  C_27
    7  A    between atoms: C_13  and  C_44
    8  A    between atoms: O_14  and  C_17
    9  A    between atoms: C_17  and  C_30
   10  A    between atoms: C_22  and  N_23
   11  A    between atoms: C_22  and  C_34
   12  A    between atoms: C_25  and  C_43
   13  A    between atoms: C_30  and  C_41
   14  A    between atoms: O_35  and  C_46
                            x       y       z     vdW  Elec       q    Type
                         _______ _______ _______ _____ _____    ______ ____

>  <TORSDO>
F 14

$$$$
=
 OpenBabel11042415233D

 47 52  0  0  1  0  0  0  0  0999 V2000
  193.0970  173.6350  138.1770 C   0  0  0  0  0  2  0  0  0  0  0  0
  189.5180  172.9390  141.4210 C   0  0  0  0  0  0  0  0  0  0  0  0
  190.1890  171.6660  140.9650 C   0  0  1  0  0  3  0  0  0  0  0  0
  189.5690  175.3430  141.7630 C   0  0  0  0  0  3  0  0  0  0  0  0
  191.3680  171.9280  140.0160 C   0  0  2  0  0  3  0  0  0  0  0  0
  191.5000  174.2330  140.8330 O   0  0  0  0  0  0  0  0  0  0  0  0
  188.2170  172.8970  141.9330 C   0  0  0  0  0  3  0  0  0  0  0  0
  188.2620  175.3020  142.2630 C   0  0  0  0  0  0  0  0  0  0  0  0
  193.4520  173.3340  139.6410 C   0  0  2  0  0  3  0  0  0  0  0  0
  191.5980  173.7730  137.9480 C   0  0  0  0  0  2  0  0  0  0  0  0
  190.2010  174.1700  141.3460 C   0  0  0  0  0  0  0  0  0  0  0  0
  192.2620  173.0530  140.5650 C   0  0  2  0  0  3  0  0  0  0  0  0
  190.7410  172.2000  138.3060 S   0  0  0  0  0  0  0  0  0  0  0  0
  187.5920  174.0730  142.3590 C   0  0  0  0  0  3  0  0  0  0  0  0
  188.2160  177.0970  145.2980 C   0  0  0  0  0  2  0  0  0  0  0  0
  186.3900  176.8640  142.0050 N   0  0  0  0  0  0  0  0  0  0  0  0
  187.6310  176.5700  142.7440 C   0  0  1  0  0  3  0  0  0  0  0  0
  185.0400  177.9980  143.7430 N   0  0  0  0  0  0  0  0  0  0  0  0
  185.2950  177.4720  142.4090 C   0  0  0  0  0  3  0  0  0  0  0  0
  187.3380  177.9980  144.4660 C   0  0  1  0  0  3  0  0  0  0  0  0
  187.3410  176.5020  144.2180 C   0  0  2  0  0  3  0  0  0  0  0  0
  185.8970  178.2170  144.7090 C   0  0  0  0  0  0  0  0  0  0  0  0
  184.3700  178.1540  146.6470 C   0  0  0  0  0  1  0  0  0  0  0  0
  185.4780  178.7090  145.9470 O   0  0  0  0  0  0  0  0  0  0  0  0
  191.4100  171.1980  143.0550 C   0  0  0  0  0  0  0  0  0  0  0  0
  192.2360  171.6100  143.9830 C   0  0  0  0  0  3  0  0  0  0  0  0
  190.5840  170.7960  142.1240 C   0  0  0  0  0  3  0  0  0  0  0  0
  194.1860  168.5460  145.0600 C   0  0  0  0  0  3  0  0  0  0  0  0
  195.2510  170.5310  145.9470 C   0  0  0  0  0  3  0  0  0  0  0  0
  194.2710  171.3250  145.3470 C   0  0  0  0  0  3  0  0  0  0  0  0
  195.2160  169.1350  145.8050 C   0  0  0  0  0  0  0  0  0  0  0  0
  193.2450  170.7390  144.6010 C   0  0  0  0  0  0  0  0  0  0  0  0
  193.2050  169.3420  144.4600 C   0  0  0  0  0  3  0  0  0  0  0  0
  196.1820  168.3130  146.3890 O   0  0  0  0  0  0  0  0  0  0  0  0
  196.8380  168.6480  147.6040 C   0  0  0  0  0  1  0  0  0  0  0  0
  194.4280  174.3550  140.2210 C   0  0  0  0  0  2  0  0  0  0  0  0
  195.4210  173.7100  141.0710 N   0  0  0  0  0  2  0  0  0  0  0  0
  195.6840  174.6110  142.1800 C   0  0  0  0  0  2  0  0  0  0  0  0
  194.4440  175.4300  142.4850 C   0  0  0  0  0  2  0  0  0  0  0  0
  194.5980  176.1230  143.8050 C   0  0  0  0  0  0  0  0  0  0  0  0
  195.7130  176.4580  144.1720 O   0  0  0  0  0  0  0  0  0  0  0  0
  193.4190  176.3990  144.7030 C   0  0  1  0  0  3  0  0  0  0  0  0
  192.2320  176.2760  143.9730 O   0  0  0  0  0  0  0  0  0  0  0  0
  191.7060  177.5680  143.9130 C   0  0  0  0  0  1  0  0  0  0  0  0
  193.3740  175.4720  145.9190 C   0  0  0  0  0  2  0  0  0  0  0  0
  192.8180  176.1420  147.0080 O   0  0  0  0  0  0  0  0  0  0  0  0
  191.6580  175.4250  147.3010 C   0  0  0  0  0  1  0  0  0  0  0  0
  1  9  1  0  0  0  0
  2  7  1  0  0  0  0
  3  2  1  0  0  0  0
  3 27  1  1  0  0  0
  4  8  2  0  0  0  0
  5 13  1  6  0  0  0
  5 12  1  0  0  0  0
  5  3  1  0  0  0  0
  6 11  1  0  0  0  0
  7 14  2  0  0  0  0
  8 14  1  0  0  0  0
  9 36  1  1  0  0  0
  9 12  1  0  0  0  0
 10  1  1  0  0  0  0
 10 13  1  0  0  0  0
 11  2  2  0  0  0  0
 11  4  1  0  0  0  0
 12  6  1  6  0  0  0
 16 19  2  0  0  0  0
 16 17  1  0  0  0  0
 17  8  1  6  0  0  0
 17 21  1  0  0  0  0
 18 22  2  0  0  0  0
 19 18  1  0  0  0  0
 20 22  1  0  0  0  0
 20 15  1  1  0  0  0
 21 20  1  0  0  0  0
 21 15  1  1  0  0  0
 22 24  1  0  0  0  0
 24 23  1  0  0  0  0
 25 26  2  0  0  0  0
 26 32  1  0  0  0  0
 27 25  2  0  0  0  0
 28 31  1  0  0  0  0
 30 29  1  0  0  0  0
 31 29  2  0  0  0  0
 31 34  1  0  0  0  0
 32 30  2  0  0  0  0
 33 32  1  0  0  0  0
 33 28  2  0  0  0  0
 34 35  1  0  0  0  0
 36 37  1  0  0  0  0
 37 38  1  0  0  0  0
 38 39  1  0  0  0  0
 39 40  1  0  0  0  0
 40 41  2  0  0  0  0
 40 42  1  0  0  0  0
 42 45  1  1  0  0  0
 43 42  1  0  0  0  0
 44 43  1  0  0  0  0
 45 46  1  0  0  0  0
 46 47  1  0  0  0  0
M  END
>  <MODEL>
2

>  <REMARK>
 VINA RESULT:      -6.4      3.103      8.489
  Name = 
  14 active torsions:
  status: ('A' for Active; 'I' for Inactive)
    1  A    between atoms: C_6  and  C_17
    2  A    between atoms: C_6  and  O_19
    3  A    between atoms: O_8  and  C_24
    4  A    between atoms: C_11  and  N_23
    5  A    between atoms: C_11  and  C_41
    6  A    between atoms: C_12  and  C_27
    7  A    between atoms: C_13  and  C_44
    8  A    between atoms: O_14  and  C_17
    9  A    between atoms: C_17  and  C_30
   10  A    between atoms: C_22  and  N_23
   11  A    between atoms: C_22  and  C_34
   12  A    between atoms: C_25  and  C_43
   13  A    between atoms: C_30  and  C_41
   14  A    between atoms: O_35  and  C_46
                            x       y       z     vdW  Elec       q    Type
                         _______ _______ _______ _____ _____    ______ ____

>  <TORSDO>
F 14

$$$$
=
 OpenBabel11042415233D

 47 52  0  0  1  0  0  0  0  0999 V2000
  193.5440  172.2230  144.2850 C   0  0  0  0  0  2  0  0  0  0  0  0
  190.6640  172.5130  140.3570 C   0  0  0  0  0  0  0  0  0  0  0  0
  189.9650  172.0030  141.5930 C   0  0  1  0  0  3  0  0  0  0  0  0
  192.4630  173.7740  139.3200 C   0  0  0  0  0  3  0  0  0  0  0  0
  190.8760  172.0100  142.8310 C   0  0  2  0  0  3  0  0  0  0  0  0
  192.3440  173.6290  141.7280 O   0  0  0  0  0  0  0  0  0  0  0  0
  190.1560  172.2040  139.0900 C   0  0  0  0  0  3  0  0  0  0  0  0
  191.9620  173.4530  138.0540 C   0  0  0  0  0  0  0  0  0  0  0  0
  192.5470  173.3840  144.1640 C   0  0  2  0  0  3  0  0  0  0  0  0
  193.5620  171.3270  143.0550 C   0  0  0  0  0  2  0  0  0  0  0  0
  191.8190  173.3130  140.4710 C   0  0  0  0  0  0  0  0  0  0  0  0
  191.6330  173.3450  142.9340 C   0  0  2  0  0  3  0  0  0  0  0  0
  191.9430  170.5100  142.8260 S   0  0  0  0  0  0  0  0  0  0  0  0
  190.7980  172.6770  137.9420 C   0  0  0  0  0  3  0  0  0  0  0  0
  195.1170  173.0220  136.5390 C   0  0  0  0  0  2  0  0  0  0  0  0
  192.1420  175.3410  136.5010 N   0  0  0  0  0  0  0  0  0  0  0  0
  192.6480  174.0010  136.8430 C   0  0  1  0  0  3  0  0  0  0  0  0
  194.1650  176.4020  135.5460 N   0  0  0  0  0  0  0  0  0  0  0  0
  192.7660  176.3600  135.9470 C   0  0  0  0  0  3  0  0  0  0  0  0
  194.5180  174.0190  135.5800 C   0  0  1  0  0  3  0  0  0  0  0  0
  194.1370  174.0560  137.0470 C   0  0  2  0  0  3  0  0  0  0  0  0
  195.0020  175.4040  135.4030 C   0  0  0  0  0  0  0  0  0  0  0  0
  197.3140  176.0670  135.9570 C   0  0  0  0  0  1  0  0  0  0  0  0
  196.3300  175.6230  135.0300 O   0  0  0  0  0  0  0  0  0  0  0  0
  188.4420  173.9320  141.3930 C   0  0  0  0  0  0  0  0  0  0  0  0
  188.2200  175.1380  140.9370 C   0  0  0  0  0  3  0  0  0  0  0  0
  188.6720  172.7250  141.8440 C   0  0  0  0  0  3  0  0  0  0  0  0
  185.9790  176.8290  143.4790 C   0  0  0  0  0  3  0  0  0  0  0  0
  186.9670  178.5040  142.0370 C   0  0  0  0  0  3  0  0  0  0  0  0
  187.6410  177.5020  141.3350 C   0  0  0  0  0  3  0  0  0  0  0  0
  186.1330  178.1730  143.1170 C   0  0  0  0  0  0  0  0  0  0  0  0
  187.4910  176.1610  141.6990 C   0  0  0  0  0  0  0  0  0  0  0  0
  186.6540  175.8270  142.7760 C   0  0  0  0  0  3  0  0  0  0  0  0
  185.4480  179.1510  143.8410 O   0  0  0  0  0  0  0  0  0  0  0  0
  184.3360  178.8470  144.6730 C   0  0  0  0  0  1  0  0  0  0  0  0
  193.2140  174.7420  144.3660 C   0  0  0  0  0  2  0  0  0  0  0  0
  192.3820  175.6220  145.1790 N   0  0  0  0  0  2  0  0  0  0  0  0
  192.5380  175.2010  146.5620 C   0  0  0  0  0  2  0  0  0  0  0  0
  191.1870  175.1870  147.2520 C   0  0  0  0  0  2  0  0  0  0  0  0
  190.7300  176.5900  147.5140 C   0  0  0  0  0  0  0  0  0  0  0  0
  191.2840  177.2400  148.3880 O   0  0  0  0  0  0  0  0  0  0  0  0
  189.5940  177.2160  146.7470 C   0  0  1  0  0  3  0  0  0  0  0  0
  190.1050  178.0060  145.7120 O   0  0  0  0  0  0  0  0  0  0  0  0
  189.5350  177.4910  144.5460 C   0  0  0  0  0  1  0  0  0  0  0  0
  188.6270  176.1780  146.1740 C   0  0  0  0  0  2  0  0  0  0  0  0
  187.5980  175.9320  147.0820 O   0  0  0  0  0  0  0  0  0  0  0  0
  186.8520  177.1100  147.0880 C   0  0  0  0  0  1  0  0  0  0  0  0
  2 11  1  0  0  0  0
  2  3  1  0  0  0  0
  3 27  1  1  0  0  0
  3  5  1  0  0  0  0
  4 11  2  0  0  0  0
  5 13  1  6  0  0  0
  5 12  1  0  0  0  0
  7  2  2  0  0  0  0
  8  4  1  0  0  0  0
  9  1  1  0  0  0  0
  9 36  1  6  0  0  0
 10  1  1  0  0  0  0
 11  6  1  0  0  0  0
 12  6  1  6  0  0  0
 12  9  1  0  0  0  0
 13 10  1  0  0  0  0
 14  8  2  0  0  0  0
 14  7  1  0  0  0  0
 16 17  1  0  0  0  0
 17 21  1  0  0  0  0
 17  8  1  1  0  0  0
 18 19  1  0  0  0  0
 19 16  2  0  0  0  0
 20 15  1  1  0  0  0
 20 21  1  0  0  0  0
 21 15  1  1  0  0  0
 22 18  2  0  0  0  0
 22 20  1  0  0  0  0
 24 22  1  0  0  0  0
 24 23  1  0  0  0  0
 25 27  2  0  0  0  0
 26 25  2  0  0  0  0
 26 32  1  0  0  0  0
 29 31  2  0  0  0  0
 30 32  2  0  0  0  0
 30 29  1  0  0  0  0
 31 28  1  0  0  0  0
 31 34  1  0  0  0  0
 32 33  1  0  0  0  0
 33 28  2  0  0  0  0
 34 35  1  0  0  0  0
 36 37  1  0  0  0  0
 37 38  1  0  0  0  0
 38 39  1  0  0  0  0
 39 40  1  0  0  0  0
 40 41  2  0  0  0  0
 42 45  1  6  0  0  0
 42 40  1  0  0  0  0
 43 42  1  0  0  0  0
 44 43  1  0  0  0  0
 45 46  1  0  0  0  0
 46 47  1  0  0  0  0
M  END
>  <MODEL>
3

>  <REMARK>
 VINA RESULT:      -6.4      1.002      1.696
  Name = 
  14 active torsions:
  status: ('A' for Active; 'I' for Inactive)
    1  A    between atoms: C_6  and  C_17
    2  A    between atoms: C_6  and  O_19
    3  A    between atoms: O_8  and  C_24
    4  A    between atoms: C_11  and  N_23
    5  A    between atoms: C_11  and  C_41
    6  A    between atoms: C_12  and  C_27
    7  A    between atoms: C_13  and  C_44
    8  A    between atoms: O_14  and  C_17
    9  A    between atoms: C_17  and  C_30
   10  A    between atoms: C_22  and  N_23
   11  A    between atoms: C_22  and  C_34
   12  A    between atoms: C_25  and  C_43
   13  A    between atoms: C_30  and  C_41
   14  A    between atoms: O_35  and  C_46
                            x       y       z     vdW  Elec       q    Type
                         _______ _______ _______ _____ _____    ______ ____

>  <TORSDO>
F 14

$$$$
=
 OpenBabel11042415233D

 47 52  0  0  1  0  0  0  0  0999 V2000
  196.1010  174.3620  144.3220 C   0  0  0  0  0  2  0  0  0  0  0  0
  191.2810  173.8730  143.7310 C   0  0  0  0  0  0  0  0  0  0  0  0
  191.6830  174.3910  145.0910 C   0  0  1  0  0  3  0  0  0  0  0  0
  191.7560  173.5560  141.3700 C   0  0  0  0  0  3  0  0  0  0  0  0
  193.1980  174.6180  145.2110 C   0  0  2  0  0  3  0  0  0  0  0  0
  193.3710  174.6810  142.7700 O   0  0  0  0  0  0  0  0  0  0  0  0
  190.0490  173.2300  143.5660 C   0  0  0  0  0  3  0  0  0  0  0  0
  190.5310  172.9010  141.2090 C   0  0  0  0  0  0  0  0  0  0  0  0
  195.2400  175.6080  144.0680 C   0  0  2  0  0  3  0  0  0  0  0  0
  195.3010  173.0680  144.2590 C   0  0  0  0  0  2  0  0  0  0  0  0
  192.1350  174.0460  142.6230 C   0  0  0  0  0  0  0  0  0  0  0  0
  193.7300  175.3610  143.9740 C   0  0  2  0  0  3  0  0  0  0  0  0
  194.0390  173.0230  145.5800 S   0  0  0  0  0  0  0  0  0  0  0  0
  189.6710  172.7510  142.3080 C   0  0  0  0  0  3  0  0  0  0  0  0
  192.0840  171.0550  138.6380 C   0  0  0  0  0  2  0  0  0  0  0  0
  189.1270  173.3190  139.2430 N   0  0  0  0  0  0  0  0  0  0  0  0
  190.1360  172.4300  139.8460 C   0  0  1  0  0  3  0  0  0  0  0  0
  189.7010  173.1560  136.8400 N   0  0  0  0  0  0  0  0  0  0  0  0
  188.9270  173.6270  137.9790 C   0  0  0  0  0  3  0  0  0  0  0  0
  190.7490  171.3120  137.9840 C   0  0  1  0  0  3  0  0  0  0  0  0
  191.3330  172.3330  138.9410 C   0  0  2  0  0  3  0  0  0  0  0  0
  190.5530  172.1610  136.7900 C   0  0  0  0  0  0  0  0  0  0  0  0
  190.6430  171.0820  134.5720 C   0  0  0  0  0  1  0  0  0  0  0  0
  191.2350  171.8530  135.6110 O   0  0  0  0  0  0  0  0  0  0  0  0
  189.7530  175.5410  146.1060 C   0  0  0  0  0  0  0  0  0  0  0  0
  188.6070  175.4620  146.7340 C   0  0  0  0  0  3  0  0  0  0  0  0
  190.8990  175.6120  145.4790 C   0  0  0  0  0  3  0  0  0  0  0  0
  185.5570  177.6650  147.1680 C   0  0  0  0  0  3  0  0  0  0  0  0
  186.1950  177.6240  144.8330 C   0  0  0  0  0  3  0  0  0  0  0  0
  187.2570  176.7690  145.1380 C   0  0  0  0  0  3  0  0  0  0  0  0
  185.3390  178.0800  145.8480 C   0  0  0  0  0  0  0  0  0  0  0  0
  187.4770  176.3580  146.4560 C   0  0  0  0  0  0  0  0  0  0  0  0
  186.6200  176.8090  147.4730 C   0  0  0  0  0  3  0  0  0  0  0  0
  184.2710  178.9370  145.5770 O   0  0  0  0  0  0  0  0  0  0  0  0
  183.8100  179.1920  144.2570 C   0  0  0  0  0  1  0  0  0  0  0  0
  195.7770  176.4560  142.9170 C   0  0  0  0  0  2  0  0  0  0  0  0
  197.0200  175.9050  142.3920 N   0  0  0  0  0  2  0  0  0  0  0  0
  196.8850  175.8470  140.9460 C   0  0  0  0  0  2  0  0  0  0  0  0
  196.3110  174.5030  140.5360 C   0  0  0  0  0  2  0  0  0  0  0  0
  195.3720  174.6770  139.3810 C   0  0  0  0  0  0  0  0  0  0  0  0
  194.2970  175.2260  139.5680 O   0  0  0  0  0  0  0  0  0  0  0  0
  195.7050  174.1760  137.9990 C   0  0  1  0  0  3  0  0  0  0  0  0
  194.7960  173.1800  137.6270 O   0  0  0  0  0  0  0  0  0  0  0  0
  194.2180  173.6380  136.4420 C   0  0  0  0  0  1  0  0  0  0  0  0
  195.7040  175.2910  136.9510 C   0  0  0  0  0  2  0  0  0  0  0  0
  197.0040  175.7470  136.7390 O   0  0  0  0  0  0  0  0  0  0  0  0
  196.9290  176.4690  135.5480 C   0  0  0  0  0  1  0  0  0  0  0  0
  2  3  1  0  0  0  0
  3  5  1  0  0  0  0
  3 27  1  6  0  0  0
  4 11  1  0  0  0  0
  5 13  1  6  0  0  0
  7  2  1  0  0  0  0
  8  4  2  0  0  0  0
  8 14  1  0  0  0  0
  9 36  1  6  0  0  0
  9  1  1  0  0  0  0
 10  1  1  0  0  0  0
 10 13  1  0  0  0  0
 11  6  1  0  0  0  0
 11  2  2  0  0  0  0
 12  6  1  6  0  0  0
 12  9  1  0  0  0  0
 12  5  1  0  0  0  0
 14  7  2  0  0  0  0
 16 17  1  0  0  0  0
 17  8  1  1  0  0  0
 18 19  1  0  0  0  0
 19 16  2  0  0  0  0
 20 15  1  6  0  0  0
 20 21  1  0  0  0  0
 21 15  1  1  0  0  0
 21 17  1  0  0  0  0
 22 18  2  0  0  0  0
 22 20  1  0  0  0  0
 23 24  1  0  0  0  0
 24 22  1  0  0  0  0
 25 26  2  0  0  0  0
 27 25  2  0  0  0  0
 28 33  1  0  0  0  0
 29 30  2  0  0  0  0
 29 31  1  0  0  0  0
 30 32  1  0  0  0  0
 31 28  2  0  0  0  0
 32 26  1  0  0  0  0
 32 33  2  0  0  0  0
 34 31  1  0  0  0  0
 35 34  1  0  0  0  0
 37 36  1  0  0  0  0
 38 37  1  0  0  0  0
 39 38  1  0  0  0  0
 40 41  2  0  0  0  0
 40 39  1  0  0  0  0
 42 45  1  6  0  0  0
 42 40  1  0  0  0  0
 43 42  1  0  0  0  0
 44 43  1  0  0  0  0
 46 45  1  0  0  0  0
 47 46  1  0  0  0  0
M  END
>  <MODEL>
4

>  <REMARK>
 VINA RESULT:      -6.1      2.498      6.086
  Name = 
  14 active torsions:
  status: ('A' for Active; 'I' for Inactive)
    1  A    between atoms: C_6  and  C_17
    2  A    between atoms: C_6  and  O_19
    3  A    between atoms: O_8  and  C_24
    4  A    between atoms: C_11  and  N_23
    5  A    between atoms: C_11  and  C_41
    6  A    between atoms: C_12  and  C_27
    7  A    between atoms: C_13  and  C_44
    8  A    between atoms: O_14  and  C_17
    9  A    between atoms: C_17  and  C_30
   10  A    between atoms: C_22  and  N_23
   11  A    between atoms: C_22  and  C_34
   12  A    between atoms: C_25  and  C_43
   13  A    between atoms: C_30  and  C_41
   14  A    between atoms: O_35  and  C_46
                            x       y       z     vdW  Elec       q    Type
                         _______ _______ _______ _____ _____    ______ ____

>  <TORSDO>
F 14

$$$$
=
 OpenBabel11042415233D

 47 52  0  0  1  0  0  0  0  0999 V2000
  194.5760  170.0500  145.0920 C   0  0  0  0  0  2  0  0  0  0  0  0
  193.9240  174.5870  143.4190 C   0  0  0  0  0  0  0  0  0  0  0  0
  195.0680  173.8510  142.7640 C   0  0  1  0  0  3  0  0  0  0  0  0
  191.8140  174.5640  144.6210 C   0  0  0  0  0  3  0  0  0  0  0  0
  195.1870  172.3980  143.2490 C   0  0  2  0  0  3  0  0  0  0  0  0
  192.8640  172.4750  144.0200 O   0  0  0  0  0  0  0  0  0  0  0  0
  193.9080  175.9860  143.4240 C   0  0  0  0  0  3  0  0  0  0  0  0
  191.8050  175.9630  144.6380 C   0  0  0  0  0  0  0  0  0  0  0  0
  193.8960  170.2630  143.7330 C   0  0  2  0  0  3  0  0  0  0  0  0
  194.8860  171.3560  145.8100 C   0  0  0  0  0  2  0  0  0  0  0  0
  192.8630  173.8730  144.0120 C   0  0  0  0  0  0  0  0  0  0  0  0
  193.8070  171.7180  143.2580 C   0  0  2  0  0  3  0  0  0  0  0  0
  196.0860  172.3500  144.8550 S   0  0  0  0  0  0  0  0  0  0  0  0
  192.8490  176.6730  144.0260 C   0  0  0  0  0  3  0  0  0  0  0  0
  189.5440  175.2770  147.2550 C   0  0  0  0  0  2  0  0  0  0  0  0
  189.9870  177.5700  144.2920 N   0  0  0  0  0  0  0  0  0  0  0  0
  190.6440  176.6720  145.2580 C   0  0  1  0  0  3  0  0  0  0  0  0
  187.6300  177.4610  145.0440 N   0  0  0  0  0  0  0  0  0  0  0  0
  188.7200  177.9180  144.1950 C   0  0  0  0  0  3  0  0  0  0  0  0
  189.0210  176.6250  146.8250 C   0  0  1  0  0  3  0  0  0  0  0  0
  189.6430  175.6920  145.8040 C   0  0  2  0  0  3  0  0  0  0  0  0
  187.7010  176.8480  146.2000 C   0  0  0  0  0  0  0  0  0  0  0  0
  185.2440  176.8160  146.4330 C   0  0  0  0  0  1  0  0  0  0  0  0
  186.5450  176.4550  146.8800 O   0  0  0  0  0  0  0  0  0  0  0  0
  193.8760  173.9460  140.6080 C   0  0  0  0  0  0  0  0  0  0  0  0
  192.7400  173.9550  139.9580 C   0  0  0  0  0  3  0  0  0  0  0  0
  195.0070  173.9390  141.2660 C   0  0  0  0  0  3  0  0  0  0  0  0
  191.9380  173.2530  136.3230 C   0  0  0  0  0  3  0  0  0  0  0  0
  192.6410  171.2030  137.4030 C   0  0  0  0  0  3  0  0  0  0  0  0
  192.8090  171.8940  138.6060 C   0  0  0  0  0  3  0  0  0  0  0  0
  192.2060  171.8800  136.2530 C   0  0  0  0  0  0  0  0  0  0  0  0
  192.5460  173.2650  138.6760 C   0  0  0  0  0  0  0  0  0  0  0  0
  192.1070  173.9440  137.5270 C   0  0  0  0  0  3  0  0  0  0  0  0
  192.0310  171.2200  135.0350 O   0  0  0  0  0  0  0  0  0  0  0  0
  191.4510  169.9250  134.9430 C   0  0  0  0  0  1  0  0  0  0  0  0
  192.5650  169.5220  143.6300 C   0  0  0  0  0  2  0  0  0  0  0  0
  192.2570  169.1800  142.2460 N   0  0  0  0  0  2  0  0  0  0  0  0
  190.8980  169.6250  141.9870 C   0  0  0  0  0  2  0  0  0  0  0  0
  190.9120  171.0550  141.4780 C   0  0  0  0  0  2  0  0  0  0  0  0
  189.9120  171.8780  142.2320 C   0  0  0  0  0  0  0  0  0  0  0  0
  189.8270  171.7450  143.4440 O   0  0  0  0  0  0  0  0  0  0  0  0
  188.9920  172.8490  141.5380 C   0  0  1  0  0  3  0  0  0  0  0  0
  189.3280  174.1570  141.9020 O   0  0  0  0  0  0  0  0  0  0  0  0
  188.1530  174.7050  142.4200 C   0  0  0  0  0  1  0  0  0  0  0  0
  189.0300  172.7120  140.0150 C   0  0  0  0  0  2  0  0  0  0  0  0
  188.8940  173.9660  139.4200 O   0  0  0  0  0  0  0  0  0  0  0  0
  188.4900  173.6890  138.1150 C   0  0  0  0  0  1  0  0  0  0  0  0
  1 10  1  0  0  0  0
  2  7  2  0  0  0  0
  2 11  1  0  0  0  0
  3 27  1  6  0  0  0
  3  5  1  0  0  0  0
  3  2  1  0  0  0  0
  4  8  1  0  0  0  0
  5 12  1  0  0  0  0
  5 13  1  1  0  0  0
  7 14  1  0  0  0  0
  9 36  1  1  0  0  0
  9  1  1  0  0  0  0
 11  6  1  0  0  0  0
 11  4  2  0  0  0  0
 12  9  1  0  0  0  0
 12  6  1  1  0  0  0
 13 10  1  0  0  0  0
 14  8  2  0  0  0  0
 16 17  1  0  0  0  0
 17  8  1  6  0  0  0
 17 21  1  0  0  0  0
 18 22  2  0  0  0  0
 19 16  2  0  0  0  0
 19 18  1  0  0  0  0
 20 15  1  1  0  0  0
 21 20  1  0  0  0  0
 21 15  1  1  0  0  0
 22 20  1  0  0  0  0
 22 24  1  0  0  0  0
 23 24  1  0  0  0  0
 25 27  2  0  0  0  0
 26 25  2  0  0  0  0
 28 33  1  0  0  0  0
 29 30  2  0  0  0  0
 30 32  1  0  0  0  0
 31 28  2  0  0  0  0
 31 29  1  0  0  0  0
 32 26  1  0  0  0  0
 33 32  2  0  0  0  0
 34 31  1  0  0  0  0
 35 34  1  0  0  0  0
 37 36  1  0  0  0  0
 38 37  1  0  0  0  0
 39 38  1  0  0  0  0
 39 40  1  0  0  0  0
 40 41  2  0  0  0  0
 42 45  1  6  0  0  0
 42 43  1  0  0  0  0
 42 40  1  0  0  0  0
 43 44  1  0  0  0  0
 46 45  1  0  0  0  0
 47 46  1  0  0  0  0
M  END
>  <MODEL>
5

>  <REMARK>
 VINA RESULT:      -5.9      3.126      8.157
  Name = 
  14 active torsions:
  status: ('A' for Active; 'I' for Inactive)
    1  A    between atoms: C_6  and  C_17
    2  A    between atoms: C_6  and  O_19
    3  A    between atoms: O_8  and  C_24
    4  A    between atoms: C_11  and  N_23
    5  A    between atoms: C_11  and  C_41
    6  A    between atoms: C_12  and  C_27
    7  A    between atoms: C_13  and  C_44
    8  A    between atoms: O_14  and  C_17
    9  A    between atoms: C_17  and  C_30
   10  A    between atoms: C_22  and  N_23
   11  A    between atoms: C_22  and  C_34
   12  A    between atoms: C_25  and  C_43
   13  A    between atoms: C_30  and  C_41
   14  A    between atoms: O_35  and  C_46
                            x       y       z     vdW  Elec       q    Type
                         _______ _______ _______ _____ _____    ______ ____

>  <TORSDO>
F 14

$$$$
=
 OpenBabel11042415233D

 47 52  0  0  1  0  0  0  0  0999 V2000
  196.6660  171.0150  145.0900 C   0  0  0  0  0  2  0  0  0  0  0  0
  194.5890  175.3900  144.4920 C   0  0  0  0  0  0  0  0  0  0  0  0
  196.0760  175.3770  144.2290 C   0  0  1  0  0  3  0  0  0  0  0  0
  192.4600  174.2290  144.6260 C   0  0  0  0  0  3  0  0  0  0  0  0
  196.6800  173.9680  144.3380 C   0  0  2  0  0  3  0  0  0  0  0  0
  194.4520  173.0000  144.0310 O   0  0  0  0  0  0  0  0  0  0  0  0
  193.9540  176.5880  144.8400 C   0  0  0  0  0  3  0  0  0  0  0  0
  191.8280  175.4230  144.9870 C   0  0  0  0  0  0  0  0  0  0  0  0
  196.3900  171.5330  143.6710 C   0  0  2  0  0  3  0  0  0  0  0  0
  196.1420  171.9480  146.1720 C   0  0  0  0  0  2  0  0  0  0  0  0
  193.8340  174.2060  144.3740 C   0  0  0  0  0  0  0  0  0  0  0  0
  195.8090  172.9490  143.5840 C   0  0  2  0  0  3  0  0  0  0  0  0
  196.9970  173.5620  146.1050 S   0  0  0  0  0  0  0  0  0  0  0  0
  192.5770  176.6070  145.0810 C   0  0  0  0  0  3  0  0  0  0  0  0
  189.1510  177.5350  144.0910 C   0  0  0  0  0  2  0  0  0  0  0  0
  189.9910  174.7100  146.4450 N   0  0  0  0  0  0  0  0  0  0  0  0
  190.3490  175.4220  145.2060 C   0  0  1  0  0  3  0  0  0  0  0  0
  187.9840  175.9650  147.1720 N   0  0  0  0  0  0  0  0  0  0  0  0
  188.9940  174.9220  147.2780 C   0  0  0  0  0  3  0  0  0  0  0  0
  188.3880  176.4810  144.8530 C   0  0  1  0  0  3  0  0  0  0  0  0
  189.8100  176.8250  145.2520 C   0  0  2  0  0  3  0  0  0  0  0  0
  187.6960  176.7160  146.1370 C   0  0  0  0  0  0  0  0  0  0  0  0
  185.3350  177.3730  146.4320 C   0  0  0  0  0  1  0  0  0  0  0  0
  186.7030  177.6960  146.2120 O   0  0  0  0  0  0  0  0  0  0  0  0
  195.8230  175.7270  141.8020 C   0  0  0  0  0  0  0  0  0  0  0  0
  195.2200  175.4120  140.6840 C   0  0  0  0  0  3  0  0  0  0  0  0
  196.4200  176.0360  142.9250 C   0  0  0  0  0  3  0  0  0  0  0  0
  197.9350  175.4170  138.0420 C   0  0  0  0  0  3  0  0  0  0  0  0
  195.7930  174.9950  136.9950 C   0  0  0  0  0  3  0  0  0  0  0  0
  195.1660  175.0820  138.2410 C   0  0  0  0  0  3  0  0  0  0  0  0
  197.1830  175.1600  136.8880 C   0  0  0  0  0  0  0  0  0  0  0  0
  195.9170  175.3330  139.3930 C   0  0  0  0  0  0  0  0  0  0  0  0
  197.3070  175.5030  139.2890 C   0  0  0  0  0  3  0  0  0  0  0  0
  197.8400  175.0770  135.6590 O   0  0  0  0  0  0  0  0  0  0  0  0
  197.8950  173.8760  134.9010 C   0  0  0  0  0  1  0  0  0  0  0  0
  195.6200  170.5210  142.8260 C   0  0  0  0  0  2  0  0  0  0  0  0
  195.1740  171.1140  141.5700 N   0  0  0  0  0  2  0  0  0  0  0  0
  193.9760  170.4000  141.1620 C   0  0  0  0  0  2  0  0  0  0  0  0
  192.7530  171.0470  141.7860 C   0  0  0  0  0  2  0  0  0  0  0  0
  191.8270  171.5350  140.7140 C   0  0  0  0  0  0  0  0  0  0  0  0
  192.0920  171.2920  139.5460 O   0  0  0  0  0  0  0  0  0  0  0  0
  190.5910  172.3370  141.0300 C   0  0  1  0  0  3  0  0  0  0  0  0
  190.5670  172.6450  142.3950 O   0  0  0  0  0  0  0  0  0  0  0  0
  189.4620  171.9620  142.9040 C   0  0  0  0  0  1  0  0  0  0  0  0
  190.4960  173.6240  140.2100 C   0  0  0  0  0  2  0  0  0  0  0  0
  189.5150  173.4930  139.2280 O   0  0  0  0  0  0  0  0  0  0  0  0
  188.4060  174.1530  139.7540 C   0  0  0  0  0  1  0  0  0  0  0  0
  1 10  1  0  0  0  0
  2  7  1  0  0  0  0
  3 27  1  6  0  0  0
  3  5  1  0  0  0  0
  3  2  1  0  0  0  0
  4  8  2  0  0  0  0
  5 13  1  1  0  0  0
  6 11  1  0  0  0  0
  7 14  2  0  0  0  0
  8 14  1  0  0  0  0
  9 36  1  1  0  0  0
  9  1  1  0  0  0  0
 11  2  2  0  0  0  0
 11  4  1  0  0  0  0
 12  9  1  0  0  0  0
 12  6  1  1  0  0  0
 12  5  1  0  0  0  0
 13 10  1  0  0  0  0
 16 19  2  0  0  0  0
 17  8  1  1  0  0  0
 17 21  1  0  0  0  0
 17 16  1  0  0  0  0
 18 19  1  0  0  0  0
 20 15  1  6  0  0  0
 20 21  1  0  0  0  0
 20 22  1  0  0  0  0
 21 15  1  6  0  0  0
 22 24  1  0  0  0  0
 22 18  2  0  0  0  0
 24 23  1  0  0  0  0
 25 27  2  0  0  0  0
 26 25  2  0  0  0  0
 28 33  1  0  0  0  0
 29 30  2  0  0  0  0
 30 32  1  0  0  0  0
 31 29  1  0  0  0  0
 31 28  2  0  0  0  0
 32 26  1  0  0  0  0
 33 32  2  0  0  0  0
 34 31  1  0  0  0  0
 35 34  1  0  0  0  0
 37 36  1  0  0  0  0
 38 37  1  0  0  0  0
 38 39  1  0  0  0  0
 40 42  1  0  0  0  0
 40 39  1  0  0  0  0
 41 40  2  0  0  0  0
 42 45  1  6  0  0  0
 42 43  1  0  0  0  0
 43 44  1  0  0  0  0
 46 47  1  0  0  0  0
 46 45  1  0  0  0  0
M  END
>  <MODEL>
6

>  <REMARK>
 VINA RESULT:      -5.8      2.739      9.020
  Name = 
  14 active torsions:
  status: ('A' for Active; 'I' for Inactive)
    1  A    between atoms: C_6  and  C_17
    2  A    between atoms: C_6  and  O_19
    3  A    between atoms: O_8  and  C_24
    4  A    between atoms: C_11  and  N_23
    5  A    between atoms: C_11  and  C_41
    6  A    between atoms: C_12  and  C_27
    7  A    between atoms: C_13  and  C_44
    8  A    between atoms: O_14  and  C_17
    9  A    between atoms: C_17  and  C_30
   10  A    between atoms: C_22  and  N_23
   11  A    between atoms: C_22  and  C_34
   12  A    between atoms: C_25  and  C_43
   13  A    between atoms: C_30  and  C_41
   14  A    between atoms: O_35  and  C_46
                            x       y       z     vdW  Elec       q    Type
                         _______ _______ _______ _____ _____    ______ ____

>  <TORSDO>
F 14

$$$$
=
 OpenBabel11042415233D

 47 52  0  0  1  0  0  0  0  0999 V2000
  192.7320  170.5370  143.3210 C   0  0  0  0  0  2  0  0  0  0  0  0
  190.1640  172.8490  139.8750 C   0  0  0  0  0  0  0  0  0  0  0  0
  189.3220  172.2950  140.9990 C   0  0  1  0  0  3  0  0  0  0  0  0
  192.2990  173.6460  139.0330 C   0  0  0  0  0  3  0  0  0  0  0  0
  190.1700  171.6550  142.1090 C   0  0  2  0  0  3  0  0  0  0  0  0
  192.1240  172.9050  141.3250 O   0  0  0  0  0  0  0  0  0  0  0  0
  189.5860  173.0870  138.6220 C   0  0  0  0  0  3  0  0  0  0  0  0
  191.7230  173.8710  137.7780 C   0  0  0  0  0  0  0  0  0  0  0  0
  192.2130  171.9570  143.5900 C   0  0  2  0  0  3  0  0  0  0  0  0
  192.4370  170.0580  141.9060 C   0  0  0  0  0  2  0  0  0  0  0  0
  191.5280  173.1410  140.0830 C   0  0  0  0  0  0  0  0  0  0  0  0
  191.3510  172.5680  142.4790 C   0  0  2  0  0  3  0  0  0  0  0  0
  190.6360  169.9410  141.6250 S   0  0  0  0  0  0  0  0  0  0  0  0
  190.3610  173.6020  137.5790 C   0  0  0  0  0  3  0  0  0  0  0  0
  195.1810  174.1180  137.1310 C   0  0  0  0  0  2  0  0  0  0  0  0
  191.8830  175.5800  136.0280 N   0  0  0  0  0  0  0  0  0  0  0  0
  192.5660  174.4550  136.6900 C   0  0  1  0  0  3  0  0  0  0  0  0
  193.7960  177.0260  135.4140 N   0  0  0  0  0  0  0  0  0  0  0  0
  192.3870  176.6650  135.4790 C   0  0  0  0  0  3  0  0  0  0  0  0
  194.6510  174.8290  135.9110 C   0  0  1  0  0  3  0  0  0  0  0  0
  193.8960  174.9110  137.2240 C   0  0  2  0  0  3  0  0  0  0  0  0
  194.8420  176.2670  135.6330 C   0  0  0  0  0  0  0  0  0  0  0  0
  197.1800  176.1030  134.8610 C   0  0  0  0  0  1  0  0  0  0  0  0
  196.1370  176.7830  135.5490 O   0  0  0  0  0  0  0  0  0  0  0  0
  188.7630  174.3230  142.2850 C   0  0  0  0  0  0  0  0  0  0  0  0
  189.1660  175.3230  143.0260 C   0  0  0  0  0  3  0  0  0  0  0  0
  188.3690  173.3210  141.5410 C   0  0  0  0  0  3  0  0  0  0  0  0
  188.1480  176.2760  146.5480 C   0  0  0  0  0  3  0  0  0  0  0  0
  186.3750  176.8690  145.0090 C   0  0  0  0  0  3  0  0  0  0  0  0
  187.1330  176.3740  143.9450 C   0  0  0  0  0  3  0  0  0  0  0  0
  186.8790  176.8250  146.3180 C   0  0  0  0  0  0  0  0  0  0  0  0
  188.4000  175.8300  144.1730 C   0  0  0  0  0  0  0  0  0  0  0  0
  188.9060  175.7810  145.4830 C   0  0  0  0  0  3  0  0  0  0  0  0
  186.1490  177.3140  147.4030 O   0  0  0  0  0  0  0  0  0  0  0  0
  185.8030  178.6860  147.5360 C   0  0  0  0  0  1  0  0  0  0  0  0
  193.3170  172.8950  144.0700 C   0  0  0  0  0  2  0  0  0  0  0  0
  193.0720  173.3430  145.4360 N   0  0  0  0  0  2  0  0  0  0  0  0
  194.0930  174.3270  145.7530 C   0  0  0  0  0  2  0  0  0  0  0  0
  193.4520  175.5500  146.3840 C   0  0  0  0  0  2  0  0  0  0  0  0
  193.4360  176.6840  145.4050 C   0  0  0  0  0  0  0  0  0  0  0  0
  194.3270  177.5190  145.4500 O   0  0  0  0  0  0  0  0  0  0  0  0
  192.3440  176.8370  144.3780 C   0  0  1  0  0  3  0  0  0  0  0  0
  192.0350  178.1920  144.2180 O   0  0  0  0  0  0  0  0  0  0  0  0
  191.0690  178.2290  143.2110 C   0  0  0  0  0  1  0  0  0  0  0  0
  192.7180  176.2310  143.0240 C   0  0  0  0  0  2  0  0  0  0  0  0
  194.1030  176.2450  142.8620 O   0  0  0  0  0  0  0  0  0  0  0  0
  194.2990  175.9450  141.5140 C   0  0  0  0  0  1  0  0  0  0  0  0
  1  9  1  0  0  0  0
  2 11  1  0  0  0  0
  2  3  1  0  0  0  0
  3 27  1  1  0  0  0
  3  5  1  0  0  0  0
  4 11  2  0  0  0  0
  5 13  1  6  0  0  0
  5 12  1  0  0  0  0
  7  2  2  0  0  0  0
  8  4  1  0  0  0  0
  9 36  1  6  0  0  0
 10  1  1  0  0  0  0
 11  6  1  0  0  0  0
 12  6  1  6  0  0  0
 12  9  1  0  0  0  0
 13 10  1  0  0  0  0
 14  8  2  0  0  0  0
 14  7  1  0  0  0  0
 16 17  1  0  0  0  0
 17 21  1  0  0  0  0
 17  8  1  1  0  0  0
 18 19  1  0  0  0  0
 18 22  2  0  0  0  0
 19 16  2  0  0  0  0
 20 15  1  1  0  0  0
 20 21  1  0  0  0  0
 21 15  1  1  0  0  0
 22 20  1  0  0  0  0
 23 24  1  0  0  0  0
 24 22  1  0  0  0  0
 25 26  2  0  0  0  0
 26 32  1  0  0  0  0
 27 25  2  0  0  0  0
 29 31  2  0  0  0  0
 30 32  2  0  0  0  0
 30 29  1  0  0  0  0
 31 28  1  0  0  0  0
 31 34  1  0  0  0  0
 32 33  1  0  0  0  0
 33 28  2  0  0  0  0
 34 35  1  0  0  0  0
 36 37  1  0  0  0  0
 37 38  1  0  0  0  0
 38 39  1  0  0  0  0
 40 41  2  0  0  0  0
 40 39  1  0  0  0  0
 42 45  1  6  0  0  0
 42 40  1  0  0  0  0
 43 42  1  0  0  0  0
 44 43  1  0  0  0  0
 46 45  1  0  0  0  0
 47 46  1  0  0  0  0
M  END
>  <MODEL>
7

>  <REMARK>
 VINA RESULT:      -5.7      1.848      2.964
  Name = 
  14 active torsions:
  status: ('A' for Active; 'I' for Inactive)
    1  A    between atoms: C_6  and  C_17
    2  A    between atoms: C_6  and  O_19
    3  A    between atoms: O_8  and  C_24
    4  A    between atoms: C_11  and  N_23
    5  A    between atoms: C_11  and  C_41
    6  A    between atoms: C_12  and  C_27
    7  A    between atoms: C_13  and  C_44
    8  A    between atoms: O_14  and  C_17
    9  A    between atoms: C_17  and  C_30
   10  A    between atoms: C_22  and  N_23
   11  A    between atoms: C_22  and  C_34
   12  A    between atoms: C_25  and  C_43
   13  A    between atoms: C_30  and  C_41
   14  A    between atoms: O_35  and  C_46
                            x       y       z     vdW  Elec       q    Type
                         _______ _______ _______ _____ _____    ______ ____

>  <TORSDO>
F 14

$$$$
=
 OpenBabel11042415233D

 47 52  0  0  1  0  0  0  0  0999 V2000
  196.7590  172.3720  146.0390 C   0  0  0  0  0  2  0  0  0  0  0  0
  194.1170  175.1950  143.0620 C   0  0  0  0  0  0  0  0  0  0  0  0
  195.3070  174.5480  142.3970 C   0  0  1  0  0  3  0  0  0  0  0  0
  192.4470  175.2300  144.8260 C   0  0  0  0  0  3  0  0  0  0  0  0
  196.0630  173.5960  143.3380 C   0  0  2  0  0  3  0  0  0  0  0  0
  194.0800  173.4520  144.7680 O   0  0  0  0  0  0  0  0  0  0  0  0
  193.5690  176.3660  142.5260 C   0  0  0  0  0  3  0  0  0  0  0  0
  191.9090  176.4080  144.2970 C   0  0  0  0  0  0  0  0  0  0  0  0
  195.8030  171.7200  145.0310 C   0  0  2  0  0  3  0  0  0  0  0  0
  196.6780  173.8930  146.0330 C   0  0  0  0  0  2  0  0  0  0  0  0
  193.5440  174.6190  144.2140 C   0  0  0  0  0  0  0  0  0  0  0  0
  195.0760  172.6850  144.0880 C   0  0  2  0  0  3  0  0  0  0  0  0
  197.2010  174.5620  144.4150 S   0  0  0  0  0  0  0  0  0  0  0  0
  192.4650  176.9670  143.1360 C   0  0  0  0  0  3  0  0  0  0  0  0
  189.9170  175.6390  147.1030 C   0  0  0  0  0  2  0  0  0  0  0  0
  189.8820  177.7490  143.9760 N   0  0  0  0  0  0  0  0  0  0  0  0
  190.7070  177.0120  144.9500 C   0  0  1  0  0  3  0  0  0  0  0  0
  187.6090  177.4060  144.8960 N   0  0  0  0  0  0  0  0  0  0  0  0
  188.5790  177.9310  143.9450 C   0  0  0  0  0  3  0  0  0  0  0  0
  189.2010  176.8780  146.6250 C   0  0  1  0  0  3  0  0  0  0  0  0
  189.8740  175.9570  145.6250 C   0  0  2  0  0  3  0  0  0  0  0  0
  187.8280  176.8910  146.0810 C   0  0  0  0  0  0  0  0  0  0  0  0
  185.9600  177.2680  147.6500 C   0  0  0  0  0  1  0  0  0  0  0  0
  186.7760  176.4080  146.8620 O   0  0  0  0  0  0  0  0  0  0  0  0
  194.8050  174.5390  139.9830 C   0  0  0  0  0  0  0  0  0  0  0  0
  194.6830  175.2080  138.8640 C   0  0  0  0  0  3  0  0  0  0  0  0
  194.9320  173.8790  141.1050 C   0  0  0  0  0  3  0  0  0  0  0  0
  191.8490  173.5340  136.9890 C   0  0  0  0  0  3  0  0  0  0  0  0
  192.4870  175.5660  135.8380 C   0  0  0  0  0  3  0  0  0  0  0  0
  193.4670  175.8060  136.8040 C   0  0  0  0  0  3  0  0  0  0  0  0
  191.6700  174.4280  135.9260 C   0  0  0  0  0  0  0  0  0  0  0  0
  193.6440  174.9160  137.8670 C   0  0  0  0  0  0  0  0  0  0  0  0
  192.8300  173.7750  137.9560 C   0  0  0  0  0  3  0  0  0  0  0  0
  190.6790  174.1610  134.9790 O   0  0  0  0  0  0  0  0  0  0  0  0
  189.3040  174.0510  135.3200 C   0  0  0  0  0  1  0  0  0  0  0  0
  194.8620  170.7150  145.6940 C   0  0  0  0  0  2  0  0  0  0  0  0
  195.1110  169.3630  145.2100 N   0  0  0  0  0  2  0  0  0  0  0  0
  194.3230  169.1890  144.0010 C   0  0  0  0  0  2  0  0  0  0  0  0
  192.8800  169.5770  144.2660 C   0  0  0  0  0  2  0  0  0  0  0  0
  192.3410  170.3670  143.1120 C   0  0  0  0  0  0  0  0  0  0  0  0
  193.0660  170.5860  142.1530 O   0  0  0  0  0  0  0  0  0  0  0  0
  190.9380  170.9180  143.1080 C   0  0  1  0  0  3  0  0  0  0  0  0
  190.9610  172.2660  143.4800 O   0  0  0  0  0  0  0  0  0  0  0  0
  190.1770  172.3400  144.6320 C   0  0  0  0  0  1  0  0  0  0  0  0
  190.2510  170.7710  141.7490 C   0  0  0  0  0  2  0  0  0  0  0  0
  189.9810  172.0290  141.2120 O   0  0  0  0  0  0  0  0  0  0  0  0
  190.2050  171.8790  139.8440 C   0  0  0  0  0  1  0  0  0  0  0  0
  2 11  1  0  0  0  0
  3 27  1  6  0  0  0
  3  2  1  0  0  0  0
  3  5  1  0  0  0  0
  5 12  1  0  0  0  0
  5 13  1  1  0  0  0
  7  2  2  0  0  0  0
  7 14  1  0  0  0  0
  8  4  1  0  0  0  0
  9 36  1  1  0  0  0
  9  1  1  0  0  0  0
 10  1  1  0  0  0  0
 11  6  1  0  0  0  0
 11  4  2  0  0  0  0
 12  6  1  1  0  0  0
 12  9  1  0  0  0  0
 13 10  1  0  0  0  0
 14  8  2  0  0  0  0
 16 17  1  0  0  0  0
 17  8  1  6  0  0  0
 17 21  1  0  0  0  0
 18 22  2  0  0  0  0
 19 16  2  0  0  0  0
 19 18  1  0  0  0  0
 20 15  1  1  0  0  0
 21 20  1  0  0  0  0
 21 15  1  1  0  0  0
 22 20  1  0  0  0  0
 22 24  1  0  0  0  0
 24 23  1  0  0  0  0
 25 27  2  0  0  0  0
 26 25  2  0  0  0  0
 28 33  1  0  0  0  0
 29 31  1  0  0  0  0
 29 30  2  0  0  0  0
 30 32  1  0  0  0  0
 31 28  2  0  0  0  0
 32 33  2  0  0  0  0
 32 26  1  0  0  0  0
 34 35  1  0  0  0  0
 34 31  1  0  0  0  0
 37 36  1  0  0  0  0
 38 39  1  0  0  0  0
 38 37  1  0  0  0  0
 40 39  1  0  0  0  0
 41 40  2  0  0  0  0
 42 45  1  6  0  0  0
 42 40  1  0  0  0  0
 42 43  1  0  0  0  0
 43 44  1  0  0  0  0
 46 45  1  0  0  0  0
 47 46  1  0  0  0  0
M  END
>  <MODEL>
8

>  <REMARK>
 VINA RESULT:      -5.5      3.145      8.071
  Name = 
  14 active torsions:
  status: ('A' for Active; 'I' for Inactive)
    1  A    between atoms: C_6  and  C_17
    2  A    between atoms: C_6  and  O_19
    3  A    between atoms: O_8  and  C_24
    4  A    between atoms: C_11  and  N_23
    5  A    between atoms: C_11  and  C_41
    6  A    between atoms: C_12  and  C_27
    7  A    between atoms: C_13  and  C_44
    8  A    between atoms: O_14  and  C_17
    9  A    between atoms: C_17  and  C_30
   10  A    between atoms: C_22  and  N_23
   11  A    between atoms: C_22  and  C_34
   12  A    between atoms: C_25  and  C_43
   13  A    between atoms: C_30  and  C_41
   14  A    between atoms: O_35  and  C_46
                            x       y       z     vdW  Elec       q    Type
                         _______ _______ _______ _____ _____    ______ ____

>  <TORSDO>
F 14

$$$$
=
 OpenBabel11042415233D

 47 52  0  0  1  0  0  0  0  0999 V2000
  194.3600  170.8510  145.1200 C   0  0  0  0  0  2  0  0  0  0  0  0
  191.4980  171.6520  141.2490 C   0  0  0  0  0  0  0  0  0  0  0  0
  190.7650  171.1050  142.4500 C   0  0  1  0  0  3  0  0  0  0  0  0
  193.3850  172.8470  140.2930 C   0  0  0  0  0  3  0  0  0  0  0  0
  191.6780  170.9510  143.6760 C   0  0  2  0  0  3  0  0  0  0  0  0
  193.2630  172.5320  142.6840 O   0  0  0  0  0  0  0  0  0  0  0  0
  190.9640  171.4780  139.9670 C   0  0  0  0  0  3  0  0  0  0  0  0
  192.8570  172.6600  139.0110 C   0  0  0  0  0  0  0  0  0  0  0  0
  193.4530  172.0900  145.0930 C   0  0  2  0  0  3  0  0  0  0  0  0
  194.3050  170.0510  143.8250 C   0  0  0  0  0  2  0  0  0  0  0  0
  192.7110  172.3520  141.4120 C   0  0  0  0  0  0  0  0  0  0  0  0
  192.5350  172.2130  143.8720 C   0  0  2  0  0  3  0  0  0  0  0  0
  192.6280  169.3790  143.5510 S   0  0  0  0  0  0  0  0  0  0  0  0
  191.6370  171.9850  138.8520 C   0  0  0  0  0  3  0  0  0  0  0  0
  195.8360  171.9280  137.2730 C   0  0  0  0  0  2  0  0  0  0  0  0
  193.2920  174.6810  137.6930 N   0  0  0  0  0  0  0  0  0  0  0  0
  193.5790  173.2430  137.8380 C   0  0  1  0  0  3  0  0  0  0  0  0
  195.4260  175.5180  136.7580 N   0  0  0  0  0  0  0  0  0  0  0  0
  194.0560  175.6490  137.2320 C   0  0  0  0  0  3  0  0  0  0  0  0
  195.3770  173.1250  136.4800 C   0  0  1  0  0  3  0  0  0  0  0  0
  195.0630  173.0320  137.9600 C   0  0  2  0  0  3  0  0  0  0  0  0
  196.0780  174.4250  136.4460 C   0  0  0  0  0  0  0  0  0  0  0  0
  197.9410  175.5920  135.3240 C   0  0  0  0  0  1  0  0  0  0  0  0
  197.4100  174.4740  136.0250 O   0  0  0  0  0  0  0  0  0  0  0  0
  189.4470  173.1870  142.5290 C   0  0  0  0  0  0  0  0  0  0  0  0
  189.3690  174.4710  142.2880 C   0  0  0  0  0  3  0  0  0  0  0  0
  189.5320  171.9020  142.7650 C   0  0  0  0  0  3  0  0  0  0  0  0
  186.8150  176.8480  143.7630 C   0  0  0  0  0  3  0  0  0  0  0  0
  188.7090  176.6700  145.2610 C   0  0  0  0  0  3  0  0  0  0  0  0
  189.3240  175.7780  144.3790 C   0  0  0  0  0  3  0  0  0  0  0  0
  187.4480  177.2090  144.9600 C   0  0  0  0  0  0  0  0  0  0  0  0
  188.6910  175.4140  143.1870 C   0  0  0  0  0  0  0  0  0  0  0  0
  187.4310  175.9550  142.8810 C   0  0  0  0  0  3  0  0  0  0  0  0
  186.8060  178.1000  145.8210 O   0  0  0  0  0  0  0  0  0  0  0  0
  186.5000  177.7730  147.1700 C   0  0  0  0  0  1  0  0  0  0  0  0
  194.2230  173.3750  145.3900 C   0  0  0  0  0  2  0  0  0  0  0  0
  193.3200  174.5150  145.5070 N   0  0  0  0  0  2  0  0  0  0  0  0
  194.1450  175.6990  145.6780 C   0  0  0  0  0  2  0  0  0  0  0  0
  193.7970  176.7270  144.6170 C   0  0  0  0  0  2  0  0  0  0  0  0
  193.7090  176.0680  143.2740 C   0  0  0  0  0  0  0  0  0  0  0  0
  192.6090  175.7870  142.8230 O   0  0  0  0  0  0  0  0  0  0  0  0
  194.9370  175.7220  142.4720 C   0  0  1  0  0  3  0  0  0  0  0  0
  194.7100  176.0030  141.1200 O   0  0  0  0  0  0  0  0  0  0  0  0
  195.9030  175.6720  140.4740 C   0  0  0  0  0  1  0  0  0  0  0  0
  196.1830  176.4690  142.9500 C   0  0  0  0  0  2  0  0  0  0  0  0
  196.8730  175.6960  143.8840 O   0  0  0  0  0  0  0  0  0  0  0  0
  197.0070  174.4500  143.2720 C   0  0  0  0  0  1  0  0  0  0  0  0
  2 11  1  0  0  0  0
  2  3  1  0  0  0  0
  3 27  1  1  0  0  0
  3  5  1  0  0  0  0
  4 11  2  0  0  0  0
  5 13  1  6  0  0  0
  5 12  1  0  0  0  0
  7  2  2  0  0  0  0
  8  4  1  0  0  0  0
  9  1  1  0  0  0  0
  9 36  1  6  0  0  0
 10  1  1  0  0  0  0
 11  6  1  0  0  0  0
 12  6  1  6  0  0  0
 12  9  1  0  0  0  0
 13 10  1  0  0  0  0
 14  8  2  0  0  0  0
 14  7  1  0  0  0  0
 16 17  1  0  0  0  0
 17 21  1  0  0  0  0
 17  8  1  1  0  0  0
 18 19  1  0  0  0  0
 19 16  2  0  0  0  0
 20 15  1  1  0  0  0
 20 21  1  0  0  0  0
 21 15  1  6  0  0  0
 22 20  1  0  0  0  0
 22 18  2  0  0  0  0
 23 24  1  0  0  0  0
 24 22  1  0  0  0  0
 25 27  2  0  0  0  0
 26 25  2  0  0  0  0
 26 32  1  0  0  0  0
 28 31  1  0  0  0  0
 30 29  1  0  0  0  0
 31 29  2  0  0  0  0
 31 34  1  0  0  0  0
 32 30  2  0  0  0  0
 33 32  1  0  0  0  0
 33 28  2  0  0  0  0
 34 35  1  0  0  0  0
 36 37  1  0  0  0  0
 37 38  1  0  0  0  0
 39 38  1  0  0  0  0
 40 39  1  0  0  0  0
 41 40  2  0  0  0  0
 42 45  1  1  0  0  0
 42 40  1  0  0  0  0
 43 42  1  0  0  0  0
 44 43  1  0  0  0  0
 45 46  1  0  0  0  0
 47 46  1  0  0  0  0
M  END
>  <MODEL>
9

>  <REMARK>
 VINA RESULT:      -5.3      1.859      3.714
  Name = 
  14 active torsions:
  status: ('A' for Active; 'I' for Inactive)
    1  A    between atoms: C_6  and  C_17
    2  A    between atoms: C_6  and  O_19
    3  A    between atoms: O_8  and  C_24
    4  A    between atoms: C_11  and  N_23
    5  A    between atoms: C_11  and  C_41
    6  A    between atoms: C_12  and  C_27
    7  A    between atoms: C_13  and  C_44
    8  A    between atoms: O_14  and  C_17
    9  A    between atoms: C_17  and  C_30
   10  A    between atoms: C_22  and  N_23
   11  A    between atoms: C_22  and  C_34
   12  A    between atoms: C_25  and  C_43
   13  A    between atoms: C_30  and  C_41
   14  A    between atoms: O_35  and  C_46
                            x       y       z     vdW  Elec       q    Type
                         _______ _______ _______ _____ _____    ______ ____

>  <TORSDO>
F 14

$$$$
