=
 OpenBabel11042419073D

 57 62  0  0  1  0  0  0  0  0999 V2000
  195.0580  174.2200  142.6530 C   0  0  1  0  0  3  0  0  0  0  0  0
  195.1750  174.5730  144.1040 C   0  0  0  0  0  3  0  0  0  0  0  0
  192.3920  173.9300  143.1560 C   0  0  2  0  0  3  0  0  0  0  0  0
  192.7690  173.8690  144.6410 C   0  0  1  0  0  3  0  0  0  0  0  0
  194.1540  174.4200  144.9730 C   0  0  0  0  0  3  0  0  0  0  0  0
  192.7210  175.2360  142.4120 C   0  0  0  0  0  2  0  0  0  0  0  0
  194.1640  175.2060  141.8790 C   0  0  0  0  0  2  0  0  0  0  0  0
  191.0810  173.3720  142.8230 N   0  0  0  0  0  0  0  0  0  0  0  0
  190.2500  174.8030  134.9450 C   0  0  0  0  0  1  0  0  0  0  0  0
  191.9680  172.4200  140.7770 C   0  0  0  0  0  3  0  0  0  0  0  0
  190.1730  172.4390  137.6040 N   0  0  0  0  0  0  0  0  0  0  0  0
  192.3350  172.1050  136.4940 C   0  0  0  0  0  1  0  0  0  0  0  0
  190.8740  172.7060  141.7300 C   0  0  0  0  0  0  0  0  0  0  0  0
  189.3480  172.4570  139.8280 N   0  0  0  0  0  0  0  0  0  0  0  0
  190.9260  171.5580  136.7190 C   0  0  2  0  0  3  0  0  0  0  0  0
  189.4830  172.3620  141.2930 C   0  0  0  0  0  2  0  0  0  0  0  0
  191.6920  172.1940  139.5280 N   0  0  0  0  0  0  0  0  0  0  0  0
  190.3540  172.2850  139.0200 C   0  0  0  0  0  0  0  0  0  0  0  0
  190.2090  171.4220  135.4090 C   0  0  0  0  0  3  0  0  0  0  0  0
  189.7030  173.7420  137.1280 C   0  0  0  0  0  2  0  0  0  0  0  0
  189.4840  172.4400  134.9250 C   0  0  0  0  0  3  0  0  0  0  0  0
  189.3620  173.7690  135.6280 C   0  0  2  0  0  3  0  0  0  0  0  0
  191.8360  175.7640  145.8240 N   0  0  0  0  0  0  0  0  0  0  0  0
  191.7330  174.5060  145.5170 C   0  0  0  0  0  3  0  0  0  0  0  0
  190.8140  176.4180  146.5400 N   0  0  0  0  0  2  0  0  0  0  0  0
  189.9710  177.4150  145.9490 C   0  0  0  0  0  0  0  0  0  0  0  0
  190.1660  177.8220  144.7700 O   0  0  0  0  0  0  0  0  0  0  0  0
  188.8820  178.0340  146.7810 C   0  0  0  0  0  2  0  0  0  0  0  0
  186.0670  177.1520  144.7150 C   0  0  2  0  0  3  0  0  0  0  0  0
  185.6980  177.7440  143.3560 C   0  0  0  0  0  2  0  0  0  0  0  0
  186.5020  178.7940  148.0710 O   0  0  0  0  0  1  0  0  0  0  0  0
  187.8120  176.0070  146.0580 C   0  0  0  0  0  2  0  0  0  0  0  0
  187.8110  177.0710  147.0850 N   0  0  0  0  0  0  0  0  0  0  0  0
  184.6090  178.8170  145.8500 C   0  0  0  0  0  2  0  0  0  0  0  0
  184.1630  179.3820  144.5060 C   0  0  0  0  0  2  0  0  0  0  0  0
  186.0450  178.2800  145.7550 C   0  0  1  0  0  3  0  0  0  0  0  0
  187.4440  176.5220  144.6640 C   0  0  0  0  0  2  0  0  0  0  0  0
  184.2770  178.3120  143.4150 C   0  0  0  0  0  2  0  0  0  0  0  0
  186.4930  177.7540  147.1290 C   0  0  2  0  0  3  0  0  0  0  0  0
  196.4130  174.0870  142.0130 C   0  0  0  0  0  2  0  0  0  0  0  0
  197.1760  173.0020  142.7640 C   0  0  0  0  0  2  0  0  0  0  0  0
  196.5990  171.6240  142.4750 C   0  0  2  0  0  3  0  0  0  0  0  0
  194.8260  170.7260  144.0000 C   0  0  0  0  0  1  0  0  0  0  0  0
  196.3240  170.9240  143.7950 C   0  0  0  0  0  2  0  0  0  0  0  0
  197.5560  170.8520  141.6690 N   0  0  0  0  0  2  0  0  0  0  0  0
  196.9500  170.1860  140.5020 C   0  0  0  0  0  0  0  0  0  0  0  0
  196.4680  168.8970  140.8250 O   0  0  0  0  0  1  0  0  0  0  0  0
  197.9380  170.0820  139.5220 O   0  0  0  0  0  1  0  0  0  0  0  0
  194.5460  169.6080  138.5240 C   0  0  0  0  0  0  0  0  0  0  0  0
  195.6880  169.6880  137.5530 C   0  0  0  0  0  2  0  0  0  0  0  0
  194.9980  173.0020  138.5930 C   0  0  0  0  0  1  0  0  0  0  0  0
  196.1100  171.1620  137.3780 C   0  0  0  0  0  2  0  0  0  0  0  0
  196.1190  171.9720  138.7080 C   0  0  0  0  0  0  0  0  0  0  0  0
  193.2620  168.9740  138.1050 C   0  0  0  0  0  1  0  0  0  0  0  0
  197.4330  172.7340  138.8600 C   0  0  0  0  0  1  0  0  0  0  0  0
  194.5910  170.3040  139.6150 N   0  0  0  0  0  0  0  0  0  0  0  0
  195.7890  171.0710  139.9410 C   0  0  1  0  0  3  0  0  0  0  0  0
  1 40  1  6  0  0  0
  1  2  1  0  0  0  0
  2  5  2  0  0  0  0
  3  8  1  1  0  0  0
  3  4  1  0  0  0  0
  4  5  1  0  0  0  0
  4 24  1  1  0  0  0
  6  3  1  0  0  0  0
  7  6  1  0  0  0  0
  7  1  1  0  0  0  0
 10 13  1  0  0  0  0
 11 18  1  0  0  0  0
 13  8  2  0  0  0  0
 14 16  1  0  0  0  0
 15 12  1  6  0  0  0
 15 11  1  0  0  0  0
 16 13  1  0  0  0  0
 17 10  2  0  0  0  0
 18 17  1  0  0  0  0
 18 14  2  0  0  0  0
 19 15  1  0  0  0  0
 20 11  1  0  0  0  0
 21 19  2  0  0  0  0
 21 22  1  0  0  0  0
 22  9  1  6  0  0  0
 22 20  1  0  0  0  0
 23 25  1  0  0  0  0
 24 23  2  0  0  0  0
 26 25  1  0  0  0  0
 26 28  1  0  0  0  0
 27 26  2  0  0  0  0
 28 33  1  0  0  0  0
 29 30  1  6  0  0  0
 29 36  1  0  0  0  0
 30 38  1  0  0  0  0
 32 33  1  0  0  0  0
 33 39  1  0  0  0  0
 35 34  1  0  0  0  0
 36 34  1  1  0  0  0
 36 39  1  0  0  0  0
 37 29  1  0  0  0  0
 37 32  1  0  0  0  0
 38 35  1  0  0  0  0
 39 31  1  1  0  0  0
 40 41  1  0  0  0  0
 42 41  1  1  0  0  0
 42 44  1  0  0  0  0
 44 43  1  0  0  0  0
 45 42  1  0  0  0  0
 46 47  1  0  0  0  0
 46 45  1  0  0  0  0
 48 46  1  0  0  0  0
 49 56  2  0  0  0  0
 50 49  1  0  0  0  0
 51 53  1  0  0  0  0
 52 50  1  0  0  0  0
 52 53  1  0  0  0  0
 53 55  1  0  0  0  0
 53 57  1  0  0  0  0
 54 49  1  0  0  0  0
 56 57  1  0  0  0  0
 57 46  1  6  0  0  0
M  END
>  <MODEL>
1

>  <REMARK>
 VINA RESULT:      -6.4      0.000      0.000
  Name = 
  12 active torsions:
  status: ('A' for Active; 'I' for Inactive)
    1  A    between atoms: N_1  and  C_9
    2  A    between atoms: C_2  and  C_3
    3  A    between atoms: C_2  and  C_22
    4  A    between atoms: N_18  and  C_52
    5  A    between atoms: N_20  and  N_21
    6  A    between atoms: C_22  and  C_28
    7  A    between atoms: C_23  and  N_29
    8  A    between atoms: C_23  and  C_56
    9  A    between atoms: C_26  and  C_52
   10  A    between atoms: C_27  and  C_39
   11  A    between atoms: C_28  and  N_29
   12  A    between atoms: C_28  and  C_40
                            x       y       z     vdW  Elec       q    Type
                         _______ _______ _______ _____ _____    ______ ____

>  <TORSDO>
F 12

$$$$
=
 OpenBabel11042419073D

 57 62  0  0  1  0  0  0  0  0999 V2000
  192.2420  176.1220  146.2820 C   0  0  1  0  0  3  0  0  0  0  0  0
  191.7990  174.7260  145.9680 C   0  0  0  0  0  3  0  0  0  0  0  0
  194.3720  175.5870  144.6650 C   0  0  2  0  0  3  0  0  0  0  0  0
  194.0100  174.1050  144.8270 C   0  0  1  0  0  3  0  0  0  0  0  0
  192.5880  173.8440  145.3170 C   0  0  0  0  0  3  0  0  0  0  0  0
  193.3210  176.4850  143.9910 C   0  0  0  0  0  2  0  0  0  0  0  0
  192.3140  177.0110  145.0280 C   0  0  0  0  0  2  0  0  0  0  0  0
  195.7440  175.8480  144.2280 N   0  0  0  0  0  0  0  0  0  0  0  0
  196.5440  171.5090  137.4940 C   0  0  0  0  0  1  0  0  0  0  0  0
  195.0070  176.0510  141.9260 C   0  0  0  0  0  3  0  0  0  0  0  0
  196.8430  174.6730  139.0950 N   0  0  0  0  0  0  0  0  0  0  0  0
  194.7520  174.7820  137.8150 C   0  0  0  0  0  1  0  0  0  0  0  0
  196.0440  176.0340  142.9800 C   0  0  0  0  0  0  0  0  0  0  0  0
  197.6220  175.4040  141.2120 N   0  0  0  0  0  0  0  0  0  0  0  0
  196.2100  175.2310  137.9040 C   0  0  2  0  0  3  0  0  0  0  0  0
  197.4730  176.0510  142.5290 C   0  0  0  0  0  2  0  0  0  0  0  0
  195.3280  175.7670  140.7010 N   0  0  0  0  0  0  0  0  0  0  0  0
  196.6560  175.3610  140.3410 C   0  0  0  0  0  0  0  0  0  0  0  0
  196.9610  174.7970  136.6810 C   0  0  0  0  0  3  0  0  0  0  0  0
  197.1700  173.2470  139.1600 C   0  0  0  0  0  2  0  0  0  0  0  0
  197.5740  173.6060  136.6490 C   0  0  0  0  0  3  0  0  0  0  0  0
  197.5320  172.6290  137.7990 C   0  0  2  0  0  3  0  0  0  0  0  0
  193.4480  172.3920  143.2120 N   0  0  0  0  0  0  0  0  0  0  0  0
  194.2830  173.3140  143.5830 C   0  0  0  0  0  3  0  0  0  0  0  0
  193.6140  171.7200  141.9840 N   0  0  0  0  0  2  0  0  0  0  0  0
  192.9200  170.5070  141.6660 C   0  0  0  0  0  0  0  0  0  0  0  0
  192.1860  169.9300  142.5160 O   0  0  0  0  0  0  0  0  0  0  0  0
  193.1330  169.8790  140.3160 C   0  0  0  0  0  2  0  0  0  0  0  0
  192.7060  169.1990  136.8050 C   0  0  2  0  0  3  0  0  0  0  0  0
  193.8030  169.0630  135.7500 C   0  0  0  0  0  2  0  0  0  0  0  0
  191.8420  172.0560  139.0940 O   0  0  0  0  0  1  0  0  0  0  0  0
  191.8190  168.3790  138.9730 C   0  0  0  0  0  2  0  0  0  0  0  0
  191.8680  169.7290  139.5760 N   0  0  0  0  0  0  0  0  0  0  0  0
  192.4860  171.6210  136.2800 C   0  0  0  0  0  2  0  0  0  0  0  0
  193.5240  171.5020  135.1710 C   0  0  0  0  0  2  0  0  0  0  0  0
  192.7820  170.6120  137.4000 C   0  0  1  0  0  3  0  0  0  0  0  0
  192.8890  168.1660  137.8980 C   0  0  0  0  0  2  0  0  0  0  0  0
  193.5580  170.0710  134.6240 C   0  0  0  0  0  2  0  0  0  0  0  0
  191.7500  170.7750  138.5290 C   0  0  2  0  0  3  0  0  0  0  0  0
  191.3760  176.7410  147.3470 C   0  0  0  0  0  2  0  0  0  0  0  0
  190.0250  176.0380  147.3120 C   0  0  0  0  0  2  0  0  0  0  0  0
  188.9980  176.8600  146.5470 C   0  0  2  0  0  3  0  0  0  0  0  0
  186.6050  176.7810  147.2860 C   0  0  0  0  0  1  0  0  0  0  0  0
  187.9750  177.4020  147.5320 C   0  0  0  0  0  2  0  0  0  0  0  0
  188.3460  176.0130  145.5380 N   0  0  0  0  0  2  0  0  0  0  0  0
  188.4910  176.5120  144.1590 C   0  0  0  0  0  0  0  0  0  0  0  0
  189.4520  175.7740  143.4300 O   0  0  0  0  0  1  0  0  0  0  0  0
  188.8920  177.8470  144.2370 O   0  0  0  0  0  1  0  0  0  0  0  0
  187.6430  176.3570  141.1110 C   0  0  0  0  0  0  0  0  0  0  0  0
  188.0420  177.8000  141.2120 C   0  0  0  0  0  2  0  0  0  0  0  0
  184.9220  177.4880  142.8580 C   0  0  0  0  0  1  0  0  0  0  0  0
  186.9520  178.5820  141.9750 C   0  0  0  0  0  2  0  0  0  0  0  0
  186.3730  177.8140  143.2000 C   0  0  0  0  0  0  0  0  0  0  0  0
  187.5300  175.7130  139.7700 C   0  0  0  0  0  1  0  0  0  0  0  0
  186.3660  178.7090  144.4370 C   0  0  0  0  0  1  0  0  0  0  0  0
  187.1590  175.7580  142.1530 N   0  0  0  0  0  0  0  0  0  0  0  0
  187.1060  176.4540  143.4340 C   0  0  1  0  0  3  0  0  0  0  0  0
  1 40  1  1  0  0  0
  2  1  1  0  0  0  0
  3  8  1  6  0  0  0
  3  4  1  0  0  0  0
  4 24  1  6  0  0  0
  4  5  1  0  0  0  0
  5  2  2  0  0  0  0
  6  3  1  0  0  0  0
  6  7  1  0  0  0  0
  7  1  1  0  0  0  0
 10 13  1  0  0  0  0
 11 20  1  0  0  0  0
 11 18  1  0  0  0  0
 13  8  2  0  0  0  0
 14 16  1  0  0  0  0
 15 12  1  6  0  0  0
 15 11  1  0  0  0  0
 16 13  1  0  0  0  0
 17 10  2  0  0  0  0
 18 17  1  0  0  0  0
 18 14  2  0  0  0  0
 19 15  1  0  0  0  0
 21 19  2  0  0  0  0
 21 22  1  0  0  0  0
 22  9  1  6  0  0  0
 22 20  1  0  0  0  0
 23 24  2  0  0  0  0
 25 23  1  0  0  0  0
 26 25  1  0  0  0  0
 26 27  2  0  0  0  0
 28 26  1  0  0  0  0
 29 30  1  6  0  0  0
 29 36  1  0  0  0  0
 29 37  1  0  0  0  0
 32 33  1  0  0  0  0
 33 28  1  0  0  0  0
 35 34  1  0  0  0  0
 36 34  1  6  0  0  0
 36 39  1  0  0  0  0
 37 32  1  0  0  0  0
 38 35  1  0  0  0  0
 38 30  1  0  0  0  0
 39 31  1  1  0  0  0
 39 33  1  0  0  0  0
 41 40  1  0  0  0  0
 42 41  1  1  0  0  0
 42 44  1  0  0  0  0
 43 44  1  0  0  0  0
 45 42  1  0  0  0  0
 46 48  1  0  0  0  0
 46 45  1  0  0  0  0
 47 46  1  0  0  0  0
 49 50  1  0  0  0  0
 49 56  2  0  0  0  0
 50 52  1  0  0  0  0
 51 53  1  0  0  0  0
 52 53  1  0  0  0  0
 53 57  1  0  0  0  0
 53 55  1  0  0  0  0
 54 49  1  0  0  0  0
 56 57  1  0  0  0  0
 57 46  1  6  0  0  0
M  END
>  <MODEL>
2

>  <REMARK>
 VINA RESULT:      -6.4      2.611      9.618
  Name = 
  12 active torsions:
  status: ('A' for Active; 'I' for Inactive)
    1  A    between atoms: N_1  and  C_9
    2  A    between atoms: C_2  and  C_3
    3  A    between atoms: C_2  and  C_22
    4  A    between atoms: N_18  and  C_52
    5  A    between atoms: N_20  and  N_21
    6  A    between atoms: C_22  and  C_28
    7  A    between atoms: C_23  and  N_29
    8  A    between atoms: C_23  and  C_56
    9  A    between atoms: C_26  and  C_52
   10  A    between atoms: C_27  and  C_39
   11  A    between atoms: C_28  and  N_29
   12  A    between atoms: C_28  and  C_40
                            x       y       z     vdW  Elec       q    Type
                         _______ _______ _______ _____ _____    ______ ____

>  <TORSDO>
F 12

$$$$
=
 OpenBabel11042419073D

 57 62  0  0  1  0  0  0  0  0999 V2000
  188.3730  177.0920  144.2300 C   0  0  1  0  0  3  0  0  0  0  0  0
  187.0540  177.7070  144.5870 C   0  0  0  0  0  3  0  0  0  0  0  0
  187.3730  176.9250  141.6980 C   0  0  2  0  0  3  0  0  0  0  0  0
  185.9890  177.1360  142.3250 C   0  0  1  0  0  3  0  0  0  0  0  0
  186.0090  177.7260  143.7330 C   0  0  0  0  0  3  0  0  0  0  0  0
  188.3880  178.0680  141.8650 C   0  0  0  0  0  2  0  0  0  0  0  0
  189.1480  177.9260  143.1950 C   0  0  0  0  0  2  0  0  0  0  0  0
  187.3650  176.3290  140.3620 N   0  0  0  0  0  0  0  0  0  0  0  0
  194.3000  172.2590  139.9630 C   0  0  0  0  0  1  0  0  0  0  0  0
  188.2130  174.2390  141.2550 C   0  0  0  0  0  3  0  0  0  0  0  0
  190.7600  172.2270  139.5960 N   0  0  0  0  0  0  0  0  0  0  0  0
  191.2020  171.1780  141.7700 C   0  0  0  0  0  1  0  0  0  0  0  0
  187.7700  175.1150  140.1490 C   0  0  0  0  0  0  0  0  0  0  0  0
  189.1640  173.7260  138.6860 N   0  0  0  0  0  0  0  0  0  0  0  0
  190.7900  170.9580  140.3150 C   0  0  2  0  0  3  0  0  0  0  0  0
  187.9870  174.6120  138.7540 C   0  0  0  0  0  2  0  0  0  0  0  0
  189.0280  173.2580  141.0130 N   0  0  0  0  0  0  0  0  0  0  0  0
  189.5790  173.0350  139.7080 C   0  0  0  0  0  0  0  0  0  0  0  0
  191.7460  170.0180  139.6430 C   0  0  0  0  0  3  0  0  0  0  0  0
  192.0070  172.9110  139.2480 C   0  0  0  0  0  2  0  0  0  0  0  0
  192.8340  170.4900  139.0190 C   0  0  0  0  0  3  0  0  0  0  0  0
  193.1820  171.9570  138.9710 C   0  0  2  0  0  3  0  0  0  0  0  0
  183.7930  177.7990  141.5510 N   0  0  0  0  0  0  0  0  0  0  0  0
  185.0790  177.9350  141.4400 C   0  0  0  0  0  3  0  0  0  0  0  0
  182.9150  178.6250  140.8220 N   0  0  0  0  0  2  0  0  0  0  0  0
  181.6400  179.0390  141.3310 C   0  0  0  0  0  0  0  0  0  0  0  0
  181.2020  178.6030  142.4320 O   0  0  0  0  0  0  0  0  0  0  0  0
  180.7830  179.9510  140.4950 C   0  0  0  0  0  2  0  0  0  0  0  0
  178.4250  177.8950  138.7120 C   0  0  2  0  0  3  0  0  0  0  0  0
  178.6870  177.0660  137.4560 C   0  0  0  0  0  2  0  0  0  0  0  0
  178.8060  181.5830  139.3440 O   0  0  0  0  0  1  0  0  0  0  0  0
  179.0900  178.3410  141.0610 C   0  0  0  0  0  2  0  0  0  0  0  0
  179.3510  179.7710  140.7830 N   0  0  0  0  0  0  0  0  0  0  0  0
  177.6920  179.8130  137.3080 C   0  0  0  0  0  2  0  0  0  0  0  0
  177.8720  178.9880  136.0400 C   0  0  0  0  0  2  0  0  0  0  0  0
  178.6950  179.3690  138.3830 C   0  0  1  0  0  3  0  0  0  0  0  0
  179.3260  177.4440  139.8440 C   0  0  0  0  0  2  0  0  0  0  0  0
  177.7200  177.4950  136.3490 C   0  0  0  0  0  2  0  0  0  0  0  0
  178.5270  180.2400  139.6390 C   0  0  2  0  0  3  0  0  0  0  0  0
  189.2020  176.8300  145.4590 C   0  0  0  0  0  2  0  0  0  0  0  0
  190.1520  175.6810  145.1400 C   0  0  0  0  0  2  0  0  0  0  0  0
  191.3090  175.6350  146.1260 C   0  0  2  0  0  3  0  0  0  0  0  0
  191.7240  176.5260  148.4300 C   0  0  0  0  0  1  0  0  0  0  0  0
  190.7550  175.7620  147.5350 C   0  0  0  0  0  2  0  0  0  0  0  0
  192.2440  176.7320  145.8360 N   0  0  0  0  0  2  0  0  0  0  0  0
  193.4230  176.3190  145.0550 C   0  0  0  0  0  0  0  0  0  0  0  0
  194.5960  176.9820  145.4830 O   0  0  0  0  0  1  0  0  0  0  0  0
  193.1720  176.6340  143.7190 O   0  0  0  0  0  1  0  0  0  0  0  0
  195.9580  174.4620  145.4560 C   0  0  0  0  0  0  0  0  0  0  0  0
  196.1140  174.8310  144.0100 C   0  0  0  0  0  2  0  0  0  0  0  0
  193.4590  172.4940  144.1840 C   0  0  0  0  0  1  0  0  0  0  0  0
  195.0790  174.0570  143.1680 C   0  0  0  0  0  2  0  0  0  0  0  0
  193.6740  173.9640  143.8330 C   0  0  0  0  0  0  0  0  0  0  0  0
  197.1200  173.9050  146.2070 C   0  0  0  0  0  1  0  0  0  0  0  0
  192.5860  174.3660  142.8400 C   0  0  0  0  0  1  0  0  0  0  0  0
  194.7700  174.3900  145.9680 N   0  0  0  0  0  0  0  0  0  0  0  0
  193.6090  174.7690  145.1700 C   0  0  1  0  0  3  0  0  0  0  0  0
  1  2  1  0  0  0  0
  1 40  1  1  0  0  0
  3  8  1  6  0  0  0
  3  6  1  0  0  0  0
  3  4  1  0  0  0  0
  4 24  1  6  0  0  0
  4  5  1  0  0  0  0
  5  2  2  0  0  0  0
  6  7  1  0  0  0  0
  7  1  1  0  0  0  0
 11 18  1  0  0  0  0
 11 15  1  0  0  0  0
 13  8  2  0  0  0  0
 13 10  1  0  0  0  0
 14 16  1  0  0  0  0
 14 18  2  0  0  0  0
 15 12  1  1  0  0  0
 16 13  1  0  0  0  0
 17 10  2  0  0  0  0
 18 17  1  0  0  0  0
 19 15  1  0  0  0  0
 20 11  1  0  0  0  0
 21 19  2  0  0  0  0
 22 21  1  0  0  0  0
 22 20  1  0  0  0  0
 22  9  1  1  0  0  0
 24 23  2  0  0  0  0
 25 26  1  0  0  0  0
 25 23  1  0  0  0  0
 26 27  2  0  0  0  0
 28 33  1  0  0  0  0
 28 26  1  0  0  0  0
 29 30  1  6  0  0  0
 29 37  1  0  0  0  0
 33 32  1  0  0  0  0
 35 38  1  0  0  0  0
 35 34  1  0  0  0  0
 36 34  1  6  0  0  0
 36 29  1  0  0  0  0
 36 39  1  0  0  0  0
 37 32  1  0  0  0  0
 38 30  1  0  0  0  0
 39 31  1  6  0  0  0
 39 33  1  0  0  0  0
 41 40  1  0  0  0  0
 42 41  1  6  0  0  0
 42 44  1  0  0  0  0
 44 43  1  0  0  0  0
 45 42  1  0  0  0  0
 46 47  1  0  0  0  0
 46 45  1  0  0  0  0
 48 46  1  0  0  0  0
 49 56  2  0  0  0  0
 49 54  1  0  0  0  0
 50 49  1  0  0  0  0
 52 53  1  0  0  0  0
 52 50  1  0  0  0  0
 53 51  1  0  0  0  0
 53 57  1  0  0  0  0
 55 53  1  0  0  0  0
 57 46  1  6  0  0  0
 57 56  1  0  0  0  0
M  END
>  <MODEL>
3

>  <REMARK>
 VINA RESULT:      -6.3      4.666      7.894
  Name = 
  12 active torsions:
  status: ('A' for Active; 'I' for Inactive)
    1  A    between atoms: N_1  and  C_9
    2  A    between atoms: C_2  and  C_3
    3  A    between atoms: C_2  and  C_22
    4  A    between atoms: N_18  and  C_52
    5  A    between atoms: N_20  and  N_21
    6  A    between atoms: C_22  and  C_28
    7  A    between atoms: C_23  and  N_29
    8  A    between atoms: C_23  and  C_56
    9  A    between atoms: C_26  and  C_52
   10  A    between atoms: C_27  and  C_39
   11  A    between atoms: C_28  and  N_29
   12  A    between atoms: C_28  and  C_40
                            x       y       z     vdW  Elec       q    Type
                         _______ _______ _______ _____ _____    ______ ____

>  <TORSDO>
F 12

$$$$
=
 OpenBabel11042419073D

 57 62  0  0  1  0  0  0  0  0999 V2000
  188.1520  176.9610  144.8060 C   0  0  1  0  0  3  0  0  0  0  0  0
  186.8260  177.6240  145.0180 C   0  0  0  0  0  3  0  0  0  0  0  0
  187.3500  176.6570  142.2170 C   0  0  2  0  0  3  0  0  0  0  0  0
  185.9270  176.9360  142.7180 C   0  0  1  0  0  3  0  0  0  0  0  0
  185.8520  177.6130  144.0840 C   0  0  0  0  0  3  0  0  0  0  0  0
  188.3790  177.7860  142.3950 C   0  0  0  0  0  2  0  0  0  0  0  0
  189.0280  177.7120  143.7880 C   0  0  0  0  0  2  0  0  0  0  0  0
  187.4320  175.9780  140.9240 N   0  0  0  0  0  0  0  0  0  0  0  0
  194.3880  171.9370  141.2360 C   0  0  0  0  0  1  0  0  0  0  0  0
  188.2240  173.9540  142.0000 C   0  0  0  0  0  3  0  0  0  0  0  0
  190.8800  171.8590  140.6410 N   0  0  0  0  0  0  0  0  0  0  0  0
  191.1810  170.9500  142.9010 C   0  0  0  0  0  1  0  0  0  0  0  0
  187.8530  174.7560  140.8140 C   0  0  0  0  0  0  0  0  0  0  0  0
  189.3440  173.2870  139.5360 N   0  0  0  0  0  0  0  0  0  0  0  0
  190.8660  170.6370  141.4390 C   0  0  2  0  0  3  0  0  0  0  0  0
  188.1630  174.1680  139.4710 C   0  0  0  0  0  2  0  0  0  0  0  0
  189.0560  172.9640  141.8740 N   0  0  0  0  0  0  0  0  0  0  0  0
  189.6920  172.6640  140.6240 C   0  0  0  0  0  0  0  0  0  0  0  0
  191.8670  169.6630  140.8910 C   0  0  0  0  0  3  0  0  0  0  0  0
  192.1460  172.5280  140.3330 C   0  0  0  0  0  2  0  0  0  0  0  0
  192.9920  170.1020  140.3110 C   0  0  0  0  0  3  0  0  0  0  0  0
  193.3390  171.5660  140.1940 C   0  0  2  0  0  3  0  0  0  0  0  0
  183.8190  177.7300  141.8330 N   0  0  0  0  0  0  0  0  0  0  0  0
  185.1110  177.6970  141.7160 C   0  0  0  0  0  3  0  0  0  0  0  0
  183.0380  178.5370  140.9810 N   0  0  0  0  0  2  0  0  0  0  0  0
  181.6050  178.5380  141.0160 C   0  0  0  0  0  0  0  0  0  0  0  0
  180.9670  177.7410  141.7590 O   0  0  0  0  0  0  0  0  0  0  0  0
  180.8550  179.4600  140.0930 C   0  0  0  0  0  2  0  0  0  0  0  0
  178.2760  181.2740  138.3530 C   0  0  2  0  0  3  0  0  0  0  0  0
  178.4580  182.2680  137.2090 C   0  0  0  0  0  2  0  0  0  0  0  0
  179.6450  181.2840  141.8570 O   0  0  0  0  0  1  0  0  0  0  0  0
  178.6940  178.9650  139.1630 C   0  0  0  0  0  2  0  0  0  0  0  0
  179.4080  179.4480  140.3650 N   0  0  0  0  0  0  0  0  0  0  0  0
  178.3620  183.1350  140.0010 C   0  0  0  0  0  2  0  0  0  0  0  0
  178.4700  184.1600  138.8770 C   0  0  0  0  0  2  0  0  0  0  0  0
  179.0190  181.8120  139.5830 C   0  0  1  0  0  3  0  0  0  0  0  0
  178.8260  179.9150  137.9690 C   0  0  0  0  0  2  0  0  0  0  0  0
  177.8350  183.6120  137.5950 C   0  0  0  0  0  2  0  0  0  0  0  0
  178.9390  180.8050  140.7430 C   0  0  2  0  0  3  0  0  0  0  0  0
  188.8750  176.7590  146.1110 C   0  0  0  0  0  2  0  0  0  0  0  0
  190.1670  176.0060  145.8130 C   0  0  0  0  0  2  0  0  0  0  0  0
  191.2930  176.4630  146.7280 C   0  0  2  0  0  3  0  0  0  0  0  0
  191.5860  177.5100  148.9850 C   0  0  0  0  0  1  0  0  0  0  0  0
  190.7370  177.4720  147.7200 C   0  0  0  0  0  2  0  0  0  0  0  0
  192.3650  177.0660  145.9220 N   0  0  0  0  0  2  0  0  0  0  0  0
  193.6870  176.4490  146.1330 C   0  0  0  0  0  0  0  0  0  0  0  0
  193.5900  175.2270  146.8380 O   0  0  0  0  0  1  0  0  0  0  0  0
  194.4560  177.3510  146.8690 O   0  0  0  0  0  1  0  0  0  0  0  0
  192.6570  175.3610  143.3430 C   0  0  0  0  0  0  0  0  0  0  0  0
  192.7540  174.0790  144.1180 C   0  0  0  0  0  2  0  0  0  0  0  0
  196.0690  175.0580  143.3450 C   0  0  0  0  0  1  0  0  0  0  0  0
  194.2380  173.6840  144.2710 C   0  0  0  0  0  2  0  0  0  0  0  0
  195.1790  174.8870  144.5730 C   0  0  0  0  0  0  0  0  0  0  0  0
  191.8520  175.4060  142.0880 C   0  0  0  0  0  1  0  0  0  0  0  0
  196.0850  174.5710  145.7600 C   0  0  0  0  0  1  0  0  0  0  0  0
  193.4640  176.3340  143.6220 N   0  0  0  0  0  0  0  0  0  0  0  0
  194.3820  176.2190  144.7510 C   0  0  1  0  0  3  0  0  0  0  0  0
  1  2  1  0  0  0  0
  1 40  1  1  0  0  0
  3  8  1  6  0  0  0
  3  6  1  0  0  0  0
  3  4  1  0  0  0  0
  4 24  1  6  0  0  0
  4  5  1  0  0  0  0
  5  2  2  0  0  0  0
  6  7  1  0  0  0  0
  7  1  1  0  0  0  0
 11 15  1  0  0  0  0
 13  8  2  0  0  0  0
 13 10  1  0  0  0  0
 14 18  2  0  0  0  0
 15 12  1  1  0  0  0
 16 14  1  0  0  0  0
 16 13  1  0  0  0  0
 17 10  2  0  0  0  0
 18 11  1  0  0  0  0
 18 17  1  0  0  0  0
 19 15  1  0  0  0  0
 20 11  1  0  0  0  0
 21 19  2  0  0  0  0
 22 21  1  0  0  0  0
 22 20  1  0  0  0  0
 22  9  1  1  0  0  0
 24 23  2  0  0  0  0
 25 26  1  0  0  0  0
 25 23  1  0  0  0  0
 26 27  2  0  0  0  0
 28 33  1  0  0  0  0
 28 26  1  0  0  0  0
 29 30  1  6  0  0  0
 29 36  1  0  0  0  0
 30 38  1  0  0  0  0
 32 33  1  0  0  0  0
 33 39  1  0  0  0  0
 35 34  1  0  0  0  0
 36 34  1  1  0  0  0
 36 39  1  0  0  0  0
 37 29  1  0  0  0  0
 37 32  1  0  0  0  0
 38 35  1  0  0  0  0
 39 31  1  1  0  0  0
 41 40  1  0  0  0  0
 42 41  1  6  0  0  0
 42 44  1  0  0  0  0
 44 43  1  0  0  0  0
 45 46  1  0  0  0  0
 45 42  1  0  0  0  0
 46 47  1  0  0  0  0
 46 48  1  0  0  0  0
 49 56  2  0  0  0  0
 49 50  1  0  0  0  0
 50 52  1  0  0  0  0
 51 53  1  0  0  0  0
 52 53  1  0  0  0  0
 53 57  1  0  0  0  0
 53 55  1  0  0  0  0
 54 49  1  0  0  0  0
 56 57  1  0  0  0  0
 57 46  1  1  0  0  0
M  END
>  <MODEL>
4

>  <REMARK>
 VINA RESULT:      -6.2      4.681      8.084
  Name = 
  12 active torsions:
  status: ('A' for Active; 'I' for Inactive)
    1  A    between atoms: N_1  and  C_9
    2  A    between atoms: C_2  and  C_3
    3  A    between atoms: C_2  and  C_22
    4  A    between atoms: N_18  and  C_52
    5  A    between atoms: N_20  and  N_21
    6  A    between atoms: C_22  and  C_28
    7  A    between atoms: C_23  and  N_29
    8  A    between atoms: C_23  and  C_56
    9  A    between atoms: C_26  and  C_52
   10  A    between atoms: C_27  and  C_39
   11  A    between atoms: C_28  and  N_29
   12  A    between atoms: C_28  and  C_40
                            x       y       z     vdW  Elec       q    Type
                         _______ _______ _______ _____ _____    ______ ____

>  <TORSDO>
F 12

$$$$
=
 OpenBabel11042419073D

 57 62  0  0  1  0  0  0  0  0999 V2000
  193.2420  170.4640  141.0440 C   0  0  1  0  0  3  0  0  0  0  0  0
  191.9620  170.2130  140.3090 C   0  0  0  0  0  3  0  0  0  0  0  0
  192.4140  173.0600  141.1720 C   0  0  2  0  0  3  0  0  0  0  0  0
  191.4250  172.7070  140.0550 C   0  0  1  0  0  3  0  0  0  0  0  0
  191.1620  171.2130  139.8820 C   0  0  0  0  0  3  0  0  0  0  0  0
  192.2460  172.3140  142.5060 C   0  0  0  0  0  2  0  0  0  0  0  0
  193.0060  170.9760  142.4770 C   0  0  0  0  0  2  0  0  0  0  0  0
  192.6980  174.4880  141.3230 N   0  0  0  0  0  0  0  0  0  0  0  0
  187.6470  176.9220  147.0990 C   0  0  0  0  0  1  0  0  0  0  0  0
  192.5870  174.2890  143.7370 C   0  0  0  0  0  3  0  0  0  0  0  0
  190.9900  176.7590  145.8890 N   0  0  0  0  0  0  0  0  0  0  0  0
  190.8300  175.0120  147.6050 C   0  0  0  0  0  1  0  0  0  0  0  0
  192.7530  175.0590  142.4860 C   0  0  0  0  0  0  0  0  0  0  0  0
  192.0080  177.0150  143.7630 N   0  0  0  0  0  0  0  0  0  0  0  0
  191.3670  176.3990  147.2520 C   0  0  2  0  0  3  0  0  0  0  0  0
  192.7970  176.5520  142.6060 C   0  0  0  0  0  2  0  0  0  0  0  0
  192.1790  174.8890  144.8140 N   0  0  0  0  0  0  0  0  0  0  0  0
  191.8080  176.2740  144.8140 C   0  0  0  0  0  0  0  0  0  0  0  0
  190.8350  177.4200  148.2120 C   0  0  0  0  0  3  0  0  0  0  0  0
  189.6020  177.1030  145.5710 C   0  0  0  0  0  2  0  0  0  0  0  0
  189.6850  178.0570  147.9540 C   0  0  0  0  0  3  0  0  0  0  0  0
  188.8500  177.7820  146.7280 C   0  0  2  0  0  3  0  0  0  0  0  0
  189.5580  173.5430  141.3500 N   0  0  0  0  0  0  0  0  0  0  0  0
  190.1290  173.4500  140.1870 C   0  0  0  0  0  3  0  0  0  0  0  0
  188.4080  174.3380  141.5270 N   0  0  0  0  0  2  0  0  0  0  0  0
  188.1080  175.0010  142.7620 C   0  0  0  0  0  0  0  0  0  0  0  0
  188.8240  174.8290  143.7880 O   0  0  0  0  0  0  0  0  0  0  0  0
  186.8750  175.8590  142.8480 C   0  0  0  0  0  2  0  0  0  0  0  0
  184.5600  178.6150  142.7650 C   0  0  2  0  0  3  0  0  0  0  0  0
  183.0620  178.5720  143.0600 C   0  0  0  0  0  2  0  0  0  0  0  0
  186.6110  176.7760  140.2040 O   0  0  0  0  0  1  0  0  0  0  0  0
  186.8420  178.1370  143.6140 C   0  0  0  0  0  2  0  0  0  0  0  0
  187.1520  177.2540  142.4690 N   0  0  0  0  0  0  0  0  0  0  0  0
  184.1040  178.2650  140.3450 C   0  0  0  0  0  2  0  0  0  0  0  0
  182.6010  178.2920  140.5960 C   0  0  0  0  0  2  0  0  0  0  0  0
  184.8410  177.6990  141.5670 C   0  0  1  0  0  3  0  0  0  0  0  0
  185.3530  178.1520  143.9700 C   0  0  0  0  0  2  0  0  0  0  0  0
  182.2870  179.1090  141.8540 C   0  0  0  0  0  2  0  0  0  0  0  0
  186.3510  177.6390  141.2790 C   0  0  2  0  0  3  0  0  0  0  0  0
  194.1250  169.2450  141.0340 C   0  0  0  0  0  2  0  0  0  0  0  0
  195.3130  169.5260  141.9470 C   0  0  0  0  0  2  0  0  0  0  0  0
  196.1920  170.6300  141.3800 C   0  0  2  0  0  3  0  0  0  0  0  0
  197.4480  171.2480  139.3020 C   0  0  0  0  0  1  0  0  0  0  0  0
  196.9060  170.1010  140.1470 C   0  0  0  0  0  2  0  0  0  0  0  0
  197.1640  171.0540  142.3980 N   0  0  0  0  0  2  0  0  0  0  0  0
  197.0150  172.4600  142.8150 C   0  0  0  0  0  0  0  0  0  0  0  0
  195.7030  172.9380  142.5930 O   0  0  0  0  0  1  0  0  0  0  0  0
  197.9180  173.2150  142.0660 O   0  0  0  0  0  1  0  0  0  0  0  0
  196.5270  170.6220  145.3470 C   0  0  0  0  0  0  0  0  0  0  0  0
  195.1570  171.2060  145.1640 C   0  0  0  0  0  2  0  0  0  0  0  0
  197.1910  173.7760  146.5060 C   0  0  0  0  0  1  0  0  0  0  0  0
  195.1600  172.6770  145.6310 C   0  0  0  0  0  2  0  0  0  0  0  0
  196.4380  173.4630  145.2150 C   0  0  0  0  0  0  0  0  0  0  0  0
  196.7030  169.4010  146.1860 C   0  0  0  0  0  1  0  0  0  0  0  0
  196.0610  174.7920  144.5660 C   0  0  0  0  0  1  0  0  0  0  0  0
  197.5640  171.3120  144.9940 N   0  0  0  0  0  0  0  0  0  0  0  0
  197.3900  172.5990  144.3280 C   0  0  1  0  0  3  0  0  0  0  0  0
  1 40  1  1  0  0  0
  1  7  1  0  0  0  0
  2  1  1  0  0  0  0
  3  8  1  1  0  0  0
  3  6  1  0  0  0  0
  4 24  1  1  0  0  0
  4  3  1  0  0  0  0
  5  4  1  0  0  0  0
  5  2  2  0  0  0  0
  7  6  1  0  0  0  0
  8 13  2  0  0  0  0
 10 17  2  0  0  0  0
 11 15  1  0  0  0  0
 13 16  1  0  0  0  0
 13 10  1  0  0  0  0
 14 18  2  0  0  0  0
 15 12  1  1  0  0  0
 15 19  1  0  0  0  0
 16 14  1  0  0  0  0
 17 18  1  0  0  0  0
 18 11  1  0  0  0  0
 20 11  1  0  0  0  0
 20 22  1  0  0  0  0
 21 19  2  0  0  0  0
 22  9  1  1  0  0  0
 22 21  1  0  0  0  0
 23 25  1  0  0  0  0
 24 23  2  0  0  0  0
 25 26  1  0  0  0  0
 26 28  1  0  0  0  0
 26 27  2  0  0  0  0
 29 30  1  1  0  0  0
 29 37  1  0  0  0  0
 32 37  1  0  0  0  0
 33 28  1  0  0  0  0
 33 32  1  0  0  0  0
 34 35  1  0  0  0  0
 35 38  1  0  0  0  0
 36 34  1  6  0  0  0
 36 29  1  0  0  0  0
 38 30  1  0  0  0  0
 39 31  1  6  0  0  0
 39 36  1  0  0  0  0
 39 33  1  0  0  0  0
 40 41  1  0  0  0  0
 42 44  1  6  0  0  0
 42 41  1  0  0  0  0
 42 45  1  0  0  0  0
 43 44  1  0  0  0  0
 45 46  1  0  0  0  0
 47 46  1  0  0  0  0
 48 46  1  0  0  0  0
 49 54  1  0  0  0  0
 50 49  1  0  0  0  0
 50 52  1  0  0  0  0
 53 52  1  0  0  0  0
 53 51  1  0  0  0  0
 55 53  1  0  0  0  0
 56 49  2  0  0  0  0
 57 46  1  6  0  0  0
 57 56  1  0  0  0  0
 57 53  1  0  0  0  0
M  END
>  <MODEL>
5

>  <REMARK>
 VINA RESULT:      -6.2      2.611      6.616
  Name = 
  12 active torsions:
  status: ('A' for Active; 'I' for Inactive)
    1  A    between atoms: N_1  and  C_9
    2  A    between atoms: C_2  and  C_3
    3  A    between atoms: C_2  and  C_22
    4  A    between atoms: N_18  and  C_52
    5  A    between atoms: N_20  and  N_21
    6  A    between atoms: C_22  and  C_28
    7  A    between atoms: C_23  and  N_29
    8  A    between atoms: C_23  and  C_56
    9  A    between atoms: C_26  and  C_52
   10  A    between atoms: C_27  and  C_39
   11  A    between atoms: C_28  and  N_29
   12  A    between atoms: C_28  and  C_40
                            x       y       z     vdW  Elec       q    Type
                         _______ _______ _______ _____ _____    ______ ____

>  <TORSDO>
F 12

$$$$
=
 OpenBabel11042419073D

 57 62  0  0  1  0  0  0  0  0999 V2000
  193.3320  175.7230  145.9400 C   0  0  1  0  0  3  0  0  0  0  0  0
  192.6280  174.4160  145.7400 C   0  0  0  0  0  3  0  0  0  0  0  0
  195.0030  174.8870  143.9520 C   0  0  2  0  0  3  0  0  0  0  0  0
  194.4550  173.4770  144.2050 C   0  0  1  0  0  3  0  0  0  0  0  0
  193.1310  173.4320  144.9640 C   0  0  0  0  0  3  0  0  0  0  0  0
  193.9930  175.9460  143.4780 C   0  0  0  0  0  2  0  0  0  0  0  0
  193.2970  176.6070  144.6800 C   0  0  0  0  0  2  0  0  0  0  0  0
  196.2880  174.9390  143.2550 N   0  0  0  0  0  0  0  0  0  0  0  0
  194.7710  171.7050  136.0410 C   0  0  0  0  0  1  0  0  0  0  0  0
  195.1920  175.6630  141.2170 C   0  0  0  0  0  3  0  0  0  0  0  0
  196.0870  174.4360  137.9040 N   0  0  0  0  0  0  0  0  0  0  0  0
  193.8720  175.1700  137.1440 C   0  0  0  0  0  1  0  0  0  0  0  0
  196.3790  175.2660  142.0040 C   0  0  0  0  0  0  0  0  0  0  0  0
  197.4030  174.6370  139.8670 N   0  0  0  0  0  0  0  0  0  0  0  0
  195.3840  175.2990  136.9600 C   0  0  2  0  0  3  0  0  0  0  0  0
  197.6610  175.0730  141.2510 C   0  0  0  0  0  2  0  0  0  0  0  0
  195.1990  175.5280  139.9260 N   0  0  0  0  0  0  0  0  0  0  0  0
  196.3040  174.9310  139.2340 C   0  0  0  0  0  0  0  0  0  0  0  0
  195.7670  174.9330  135.5570 C   0  0  0  0  0  3  0  0  0  0  0  0
  196.0850  172.9830  137.7230 C   0  0  0  0  0  2  0  0  0  0  0  0
  196.0730  173.6660  135.2470 C   0  0  0  0  0  3  0  0  0  0  0  0
  196.0290  172.5410  136.2500 C   0  0  2  0  0  3  0  0  0  0  0  0
  193.3670  171.8470  142.7840 N   0  0  0  0  0  0  0  0  0  0  0  0
  194.3580  172.6700  142.9460 C   0  0  0  0  0  3  0  0  0  0  0  0
  193.1830  171.1700  141.5620 N   0  0  0  0  0  2  0  0  0  0  0  0
  192.1770  170.1660  141.3770 C   0  0  0  0  0  0  0  0  0  0  0  0
  191.4590  169.7740  142.3390 O   0  0  0  0  0  0  0  0  0  0  0  0
  192.0310  169.5210  140.0260 C   0  0  0  0  0  2  0  0  0  0  0  0
  190.7140  169.3360  136.6790 C   0  0  2  0  0  3  0  0  0  0  0  0
  191.5010  169.4090  135.3720 C   0  0  0  0  0  2  0  0  0  0  0  0
  190.4410  171.7840  139.5220 O   0  0  0  0  0  1  0  0  0  0  0  0
  190.4310  168.1660  138.8500 C   0  0  0  0  0  2  0  0  0  0  0  0
  190.6200  169.4150  139.6200 N   0  0  0  0  0  0  0  0  0  0  0  0
  190.3370  171.7930  136.6050 C   0  0  0  0  0  2  0  0  0  0  0  0
  191.0520  171.8890  135.2620 C   0  0  0  0  0  2  0  0  0  0  0  0
  190.9250  170.6490  137.4440 C   0  0  1  0  0  3  0  0  0  0  0  0
  191.1870  168.1660  137.5190 C   0  0  0  0  0  2  0  0  0  0  0  0
  190.9590  170.5560  134.5130 C   0  0  0  0  0  2  0  0  0  0  0  0
  190.2210  170.5950  138.8100 C   0  0  2  0  0  3  0  0  0  0  0  0
  192.7930  176.4540  147.1400 C   0  0  0  0  0  2  0  0  0  0  0  0
  191.3390  176.0360  147.3230 C   0  0  0  0  0  2  0  0  0  0  0  0
  190.3910  177.1490  146.9010 C   0  0  2  0  0  3  0  0  0  0  0  0
  191.2490  177.9170  149.1260 C   0  0  0  0  0  1  0  0  0  0  0  0
  190.1320  178.0490  148.0980 C   0  0  0  0  0  2  0  0  0  0  0  0
  189.1350  176.5620  146.4130 N   0  0  0  0  0  2  0  0  0  0  0  0
  188.9100  176.7540  144.9690 C   0  0  0  0  0  0  0  0  0  0  0  0
  188.4070  175.5830  144.3550 O   0  0  0  0  0  1  0  0  0  0  0  0
  190.1370  177.0890  144.3960 O   0  0  0  0  0  1  0  0  0  0  0  0
  186.2490  177.6600  146.4270 C   0  0  0  0  0  0  0  0  0  0  0  0
  185.7420  176.4950  145.6280 C   0  0  0  0  0  2  0  0  0  0  0  0
  186.2640  179.1480  143.3420 C   0  0  0  0  0  1  0  0  0  0  0  0
  185.6370  176.8980  144.1420 C   0  0  0  0  0  2  0  0  0  0  0  0
  186.8310  177.7640  143.6430 C   0  0  0  0  0  0  0  0  0  0  0  0
  185.4430  178.1800  147.5690 C   0  0  0  0  0  1  0  0  0  0  0  0
  187.3910  177.2000  142.3400 C   0  0  0  0  0  1  0  0  0  0  0  0
  187.2400  178.3580  145.9710 N   0  0  0  0  0  0  0  0  0  0  0  0
  187.9200  177.9450  144.7480 C   0  0  1  0  0  3  0  0  0  0  0  0
  1 40  1  1  0  0  0
  2  1  1  0  0  0  0
  3  8  1  6  0  0  0
  3  4  1  0  0  0  0
  4 24  1  6  0  0  0
  4  5  1  0  0  0  0
  5  2  2  0  0  0  0
  6  3  1  0  0  0  0
  6  7  1  0  0  0  0
  7  1  1  0  0  0  0
 10 13  1  0  0  0  0
 11 18  1  0  0  0  0
 13  8  2  0  0  0  0
 14 16  1  0  0  0  0
 15 12  1  6  0  0  0
 15 11  1  0  0  0  0
 16 13  1  0  0  0  0
 17 10  2  0  0  0  0
 18 14  2  0  0  0  0
 18 17  1  0  0  0  0
 19 15  1  0  0  0  0
 20 11  1  0  0  0  0
 21 19  2  0  0  0  0
 21 22  1  0  0  0  0
 22  9  1  1  0  0  0
 22 20  1  0  0  0  0
 23 24  2  0  0  0  0
 25 23  1  0  0  0  0
 26 25  1  0  0  0  0
 26 27  2  0  0  0  0
 28 26  1  0  0  0  0
 29 30  1  6  0  0  0
 29 36  1  0  0  0  0
 29 37  1  0  0  0  0
 32 33  1  0  0  0  0
 33 28  1  0  0  0  0
 35 34  1  0  0  0  0
 36 34  1  6  0  0  0
 36 39  1  0  0  0  0
 37 32  1  0  0  0  0
 38 35  1  0  0  0  0
 38 30  1  0  0  0  0
 39 31  1  1  0  0  0
 39 33  1  0  0  0  0
 40 41  1  0  0  0  0
 42 41  1  1  0  0  0
 42 44  1  0  0  0  0
 44 43  1  0  0  0  0
 45 42  1  0  0  0  0
 46 45  1  0  0  0  0
 47 46  1  0  0  0  0
 48 46  1  0  0  0  0
 49 54  1  0  0  0  0
 50 49  1  0  0  0  0
 51 53  1  0  0  0  0
 52 50  1  0  0  0  0
 53 52  1  0  0  0  0
 53 57  1  0  0  0  0
 55 53  1  0  0  0  0
 56 49  2  0  0  0  0
 57 46  1  1  0  0  0
 57 56  1  0  0  0  0
M  END
>  <MODEL>
6

>  <REMARK>
 VINA RESULT:      -6.1      2.531      9.478
  Name = 
  12 active torsions:
  status: ('A' for Active; 'I' for Inactive)
    1  A    between atoms: N_1  and  C_9
    2  A    between atoms: C_2  and  C_3
    3  A    between atoms: C_2  and  C_22
    4  A    between atoms: N_18  and  C_52
    5  A    between atoms: N_20  and  N_21
    6  A    between atoms: C_22  and  C_28
    7  A    between atoms: C_23  and  N_29
    8  A    between atoms: C_23  and  C_56
    9  A    between atoms: C_26  and  C_52
   10  A    between atoms: C_27  and  C_39
   11  A    between atoms: C_28  and  N_29
   12  A    between atoms: C_28  and  C_40
                            x       y       z     vdW  Elec       q    Type
                         _______ _______ _______ _____ _____    ______ ____

>  <TORSDO>
F 12

$$$$
=
 OpenBabel11042419073D

 57 62  0  0  1  0  0  0  0  0999 V2000
  191.8240  171.3510  143.2780 C   0  0  1  0  0  3  0  0  0  0  0  0
  190.7280  171.8770  144.1530 C   0  0  0  0  0  3  0  0  0  0  0  0
  190.2830  172.2030  141.1950 C   0  0  2  0  0  3  0  0  0  0  0  0
  189.1200  172.2590  142.1940 C   0  0  1  0  0  3  0  0  0  0  0  0
  189.5380  172.2820  143.6620 C   0  0  0  0  0  3  0  0  0  0  0  0
  191.4770  173.1310  141.4730 C   0  0  0  0  0  2  0  0  0  0  0  0
  192.4770  172.4550  142.4280 C   0  0  0  0  0  2  0  0  0  0  0  0
  189.8910  172.1470  139.7870 N   0  0  0  0  0  0  0  0  0  0  0  0
  196.7890  170.8180  135.8550 C   0  0  0  0  0  1  0  0  0  0  0  0
  191.3500  170.2440  139.4230 C   0  0  0  0  0  3  0  0  0  0  0  0
  193.4210  169.8340  136.4510 N   0  0  0  0  0  0  0  0  0  0  0  0
  194.7990  168.2730  137.7500 C   0  0  0  0  0  1  0  0  0  0  0  0
  190.3920  171.2740  138.9680 C   0  0  0  0  0  0  0  0  0  0  0  0
  191.3710  170.9920  136.7380 N   0  0  0  0  0  0  0  0  0  0  0  0
  193.9280  168.4670  136.5090 C   0  0  2  0  0  3  0  0  0  0  0  0
  190.1680  171.3900  137.4910 C   0  0  0  0  0  2  0  0  0  0  0  0
  192.1760  169.7120  138.5740 N   0  0  0  0  0  0  0  0  0  0  0  0
  192.2420  170.1460  137.2090 C   0  0  0  0  0  0  0  0  0  0  0  0
  194.7190  168.1680  135.2710 C   0  0  0  0  0  3  0  0  0  0  0  0
  194.3190  170.9440  136.1230 C   0  0  0  0  0  2  0  0  0  0  0  0
  195.4060  169.1390  134.6540 C   0  0  0  0  0  3  0  0  0  0  0  0
  195.4560  170.5590  135.1610 C   0  0  2  0  0  3  0  0  0  0  0  0
  188.5270  174.6060  142.1860 N   0  0  0  0  0  0  0  0  0  0  0  0
  188.1770  173.3880  141.9050 C   0  0  0  0  0  3  0  0  0  0  0  0
  187.7150  175.6960  141.8120 N   0  0  0  0  0  2  0  0  0  0  0  0
  186.5470  176.0790  142.5510 C   0  0  0  0  0  0  0  0  0  0  0  0
  186.1380  175.3960  143.5300 O   0  0  0  0  0  0  0  0  0  0  0  0
  185.7610  177.2780  142.0970 C   0  0  0  0  0  2  0  0  0  0  0  0
  186.8480  178.0740  145.4360 C   0  0  2  0  0  3  0  0  0  0  0  0
  186.7320  177.1940  146.6790 C   0  0  0  0  0  2  0  0  0  0  0  0
  184.2070  179.3930  143.1060 O   0  0  0  0  0  1  0  0  0  0  0  0
  187.7060  178.2560  143.1150 C   0  0  0  0  0  2  0  0  0  0  0  0
  186.3600  178.5370  142.5710 N   0  0  0  0  0  0  0  0  0  0  0  0
  184.6700  179.1470  145.9770 C   0  0  0  0  0  2  0  0  0  0  0  0
  184.5610  178.3370  147.2640 C   0  0  0  0  0  2  0  0  0  0  0  0
  185.4350  178.3520  144.9080 C   0  0  1  0  0  3  0  0  0  0  0  0
  187.6730  177.3810  144.3700 C   0  0  0  0  0  2  0  0  0  0  0  0
  185.9540  177.9430  147.7650 C   0  0  0  0  0  2  0  0  0  0  0  0
  185.4980  179.1660  143.6050 C   0  0  2  0  0  3  0  0  0  0  0  0
  192.8490  170.5960  144.0820 C   0  0  0  0  0  2  0  0  0  0  0  0
  194.2270  171.0380  143.6060 C   0  0  0  0  0  2  0  0  0  0  0  0
  195.1200  171.4140  144.7790 C   0  0  2  0  0  3  0  0  0  0  0  0
  196.4300  170.0800  146.4470 C   0  0  0  0  0  1  0  0  0  0  0  0
  195.0620  170.3000  145.8120 C   0  0  0  0  0  2  0  0  0  0  0  0
  194.6580  172.6820  145.3590 N   0  0  0  0  0  2  0  0  0  0  0  0
  195.5010  173.8400  145.0070 C   0  0  0  0  0  0  0  0  0  0  0  0
  195.5710  174.0320  143.6080 O   0  0  0  0  0  1  0  0  0  0  0  0
  196.7800  173.5940  145.5070 O   0  0  0  0  0  1  0  0  0  0  0  0
  192.5670  174.9010  145.5520 C   0  0  0  0  0  0  0  0  0  0  0  0
  192.6980  175.1960  144.0870 C   0  0  0  0  0  2  0  0  0  0  0  0
  194.6720  177.5930  145.7890 C   0  0  0  0  0  1  0  0  0  0  0  0
  193.6210  176.4160  143.8890 C   0  0  0  0  0  2  0  0  0  0  0  0
  194.8620  176.4210  144.8300 C   0  0  0  0  0  0  0  0  0  0  0  0
  191.2160  174.8760  146.1840 C   0  0  0  0  0  1  0  0  0  0  0  0
  196.1370  176.6790  144.0310 C   0  0  0  0  0  1  0  0  0  0  0  0
  193.6240  174.9220  146.3010 N   0  0  0  0  0  0  0  0  0  0  0  0
  194.9380  175.1250  145.6990 C   0  0  1  0  0  3  0  0  0  0  0  0
  1 40  1  1  0  0  0
  1  2  1  0  0  0  0
  3  8  1  6  0  0  0
  3  6  1  0  0  0  0
  3  4  1  0  0  0  0
  4 24  1  6  0  0  0
  4  5  1  0  0  0  0
  5  2  2  0  0  0  0
  6  7  1  0  0  0  0
  7  1  1  0  0  0  0
 11 15  1  0  0  0  0
 11 18  1  0  0  0  0
 13 10  1  0  0  0  0
 13  8  2  0  0  0  0
 14 18  2  0  0  0  0
 14 16  1  0  0  0  0
 15 12  1  1  0  0  0
 16 13  1  0  0  0  0
 17 10  2  0  0  0  0
 18 17  1  0  0  0  0
 19 15  1  0  0  0  0
 20 11  1  0  0  0  0
 21 22  1  0  0  0  0
 21 19  2  0  0  0  0
 22  9  1  1  0  0  0
 22 20  1  0  0  0  0
 24 23  2  0  0  0  0
 25 23  1  0  0  0  0
 25 26  1  0  0  0  0
 26 27  2  0  0  0  0
 28 26  1  0  0  0  0
 28 33  1  0  0  0  0
 29 37  1  6  0  0  0
 29 30  1  0  0  0  0
 30 38  1  0  0  0  0
 32 37  1  0  0  0  0
 33 32  1  0  0  0  0
 33 39  1  0  0  0  0
 34 35  1  0  0  0  0
 35 38  1  0  0  0  0
 36 29  1  0  0  0  0
 36 34  1  1  0  0  0
 39 31  1  6  0  0  0
 39 36  1  0  0  0  0
 41 40  1  0  0  0  0
 42 41  1  6  0  0  0
 42 45  1  0  0  0  0
 42 44  1  0  0  0  0
 44 43  1  0  0  0  0
 46 45  1  0  0  0  0
 46 48  1  0  0  0  0
 47 46  1  0  0  0  0
 49 54  1  0  0  0  0
 49 56  2  0  0  0  0
 50 49  1  0  0  0  0
 52 50  1  0  0  0  0
 52 53  1  0  0  0  0
 53 57  1  0  0  0  0
 53 51  1  0  0  0  0
 55 53  1  0  0  0  0
 57 46  1  6  0  0  0
 57 56  1  0  0  0  0
M  END
>  <MODEL>
7

>  <REMARK>
 VINA RESULT:      -5.8      2.725      5.335
  Name = 
  12 active torsions:
  status: ('A' for Active; 'I' for Inactive)
    1  A    between atoms: N_1  and  C_9
    2  A    between atoms: C_2  and  C_3
    3  A    between atoms: C_2  and  C_22
    4  A    between atoms: N_18  and  C_52
    5  A    between atoms: N_20  and  N_21
    6  A    between atoms: C_22  and  C_28
    7  A    between atoms: C_23  and  N_29
    8  A    between atoms: C_23  and  C_56
    9  A    between atoms: C_26  and  C_52
   10  A    between atoms: C_27  and  C_39
   11  A    between atoms: C_28  and  N_29
   12  A    between atoms: C_28  and  C_40
                            x       y       z     vdW  Elec       q    Type
                         _______ _______ _______ _____ _____    ______ ____

>  <TORSDO>
F 12

$$$$
=
 OpenBabel11042419073D

 57 62  0  0  1  0  0  0  0  0999 V2000
  187.5150  177.4840  141.8540 C   0  0  1  0  0  3  0  0  0  0  0  0
  187.4590  176.7360  140.5580 C   0  0  0  0  0  3  0  0  0  0  0  0
  189.2370  175.5300  142.6650 C   0  0  2  0  0  3  0  0  0  0  0  0
  188.7110  174.7010  141.4860 C   0  0  1  0  0  3  0  0  0  0  0  0
  187.9970  175.5080  140.4050 C   0  0  0  0  0  3  0  0  0  0  0  0
  189.9500  176.8480  142.3190 C   0  0  0  0  0  2  0  0  0  0  0  0
  188.9310  177.9930  142.1770 C   0  0  0  0  0  2  0  0  0  0  0  0
  189.8930  174.7610  143.7220 N   0  0  0  0  0  0  0  0  0  0  0  0
  197.1560  173.0310  140.7120 C   0  0  0  0  0  1  0  0  0  0  0  0
  191.9640  175.9710  143.3640 C   0  0  0  0  0  3  0  0  0  0  0  0
  195.2490  174.3930  143.3910 N   0  0  0  0  0  0  0  0  0  0  0  0
  196.0770  176.3270  142.1280 C   0  0  0  0  0  1  0  0  0  0  0  0
  191.1410  174.9390  144.0290 C   0  0  0  0  0  0  0  0  0  0  0  0
  193.2450  173.7710  144.4960 N   0  0  0  0  0  0  0  0  0  0  0  0
  196.2140  175.4880  143.3980 C   0  0  2  0  0  3  0  0  0  0  0  0
  191.8530  173.9790  144.9340 C   0  0  0  0  0  2  0  0  0  0  0  0
  193.2550  175.8370  143.3190 N   0  0  0  0  0  0  0  0  0  0  0  0
  193.9120  174.6710  143.8340 C   0  0  0  0  0  0  0  0  0  0  0  0
  197.6040  174.9370  143.5080 C   0  0  0  0  0  3  0  0  0  0  0  0
  195.4320  173.2510  142.4920 C   0  0  0  0  0  2  0  0  0  0  0  0
  197.9060  173.7480  142.9700 C   0  0  0  0  0  3  0  0  0  0  0  0
  196.9060  172.9110  142.2110 C   0  0  2  0  0  3  0  0  0  0  0  0
  189.8960  173.7880  139.5830 N   0  0  0  0  0  0  0  0  0  0  0  0
  189.7780  173.8430  140.8740 C   0  0  0  0  0  3  0  0  0  0  0  0
  190.9640  173.0900  138.9850 N   0  0  0  0  0  2  0  0  0  0  0  0
  191.5970  173.5320  137.7760 C   0  0  0  0  0  0  0  0  0  0  0  0
  191.1620  174.5290  137.1360 O   0  0  0  0  0  0  0  0  0  0  0  0
  192.7550  172.7420  137.2300 C   0  0  0  0  0  2  0  0  0  0  0  0
  196.0420  174.2100  137.1660 C   0  0  2  0  0  3  0  0  0  0  0  0
  196.6420  175.0840  136.0670 C   0  0  0  0  0  2  0  0  0  0  0  0
  194.6830  170.7050  137.0490 O   0  0  0  0  0  1  0  0  0  0  0  0
  194.1750  173.9150  138.7740 C   0  0  0  0  0  2  0  0  0  0  0  0
  193.8280  172.5850  138.2250 N   0  0  0  0  0  0  0  0  0  0  0  0
  197.0150  172.1830  136.1020 C   0  0  0  0  0  2  0  0  0  0  0  0
  197.6880  173.0350  135.0330 C   0  0  0  0  0  2  0  0  0  0  0  0
  195.7060  172.8400  136.5630 C   0  0  1  0  0  3  0  0  0  0  0  0
  194.7890  174.8500  137.7300 C   0  0  0  0  0  2  0  0  0  0  0  0
  197.9410  174.4510  135.5620 C   0  0  0  0  0  2  0  0  0  0  0  0
  195.0190  171.9460  137.6100 C   0  0  2  0  0  3  0  0  0  0  0  0
  186.5090  178.6030  141.8830 C   0  0  0  0  0  2  0  0  0  0  0  0
  185.1530  178.0160  141.5090 C   0  0  0  0  0  2  0  0  0  0  0  0
  184.2030  178.0270  142.6970 C   0  0  2  0  0  3  0  0  0  0  0  0
  182.2310  177.9170  141.1550 C   0  0  0  0  0  1  0  0  0  0  0  0
  182.9050  178.6970  142.2780 C   0  0  0  0  0  2  0  0  0  0  0  0
  184.8230  178.7530  143.8140 N   0  0  0  0  0  2  0  0  0  0  0  0
  185.2270  177.8870  144.9360 C   0  0  0  0  0  0  0  0  0  0  0  0
  185.8820  176.7160  144.4880 O   0  0  0  0  0  1  0  0  0  0  0  0
  184.0690  177.5350  145.6310 O   0  0  0  0  0  1  0  0  0  0  0  0
  188.1030  177.3220  146.1370 C   0  0  0  0  0  0  0  0  0  0  0  0
  187.2690  176.3960  146.9740 C   0  0  0  0  0  2  0  0  0  0  0  0
  186.6220  179.6780  148.1350 C   0  0  0  0  0  1  0  0  0  0  0  0
  186.4690  177.2170  148.0070 C   0  0  0  0  0  2  0  0  0  0  0  0
  185.8820  178.5410  147.4350 C   0  0  0  0  0  0  0  0  0  0  0  0
  189.5810  177.1330  146.0750 C   0  0  0  0  0  1  0  0  0  0  0  0
  184.4020  178.6650  147.7880 C   0  0  0  0  0  1  0  0  0  0  0  0
  187.5770  178.4170  145.6870 N   0  0  0  0  0  0  0  0  0  0  0  0
  186.1600  178.6870  145.9050 C   0  0  1  0  0  3  0  0  0  0  0  0
  1 40  1  6  0  0  0
  1  7  1  0  0  0  0
  2  1  1  0  0  0  0
  3  8  1  6  0  0  0
  4 24  1  6  0  0  0
  4  3  1  0  0  0  0
  5  2  2  0  0  0  0
  5  4  1  0  0  0  0
  6  3  1  0  0  0  0
  7  6  1  0  0  0  0
  8 13  2  0  0  0  0
 10 13  1  0  0  0  0
 11 15  1  0  0  0  0
 11 18  1  0  0  0  0
 13 16  1  0  0  0  0
 14 16  1  0  0  0  0
 15 12  1  6  0  0  0
 15 19  1  0  0  0  0
 17 10  2  0  0  0  0
 17 18  1  0  0  0  0
 18 14  2  0  0  0  0
 20 11  1  0  0  0  0
 21 19  2  0  0  0  0
 22  9  1  6  0  0  0
 22 20  1  0  0  0  0
 22 21  1  0  0  0  0
 23 24  2  0  0  0  0
 25 23  1  0  0  0  0
 26 25  1  0  0  0  0
 27 26  2  0  0  0  0
 28 26  1  0  0  0  0
 28 33  1  0  0  0  0
 29 30  1  6  0  0  0
 29 37  1  0  0  0  0
 33 32  1  0  0  0  0
 35 38  1  0  0  0  0
 35 34  1  0  0  0  0
 36 34  1  1  0  0  0
 36 29  1  0  0  0  0
 36 39  1  0  0  0  0
 37 32  1  0  0  0  0
 38 30  1  0  0  0  0
 39 31  1  6  0  0  0
 39 33  1  0  0  0  0
 41 40  1  0  0  0  0
 42 41  1  6  0  0  0
 42 45  1  0  0  0  0
 43 44  1  0  0  0  0
 44 42  1  0  0  0  0
 45 46  1  0  0  0  0
 46 48  1  0  0  0  0
 47 46  1  0  0  0  0
 49 50  1  0  0  0  0
 50 52  1  0  0  0  0
 53 55  1  0  0  0  0
 53 52  1  0  0  0  0
 53 51  1  0  0  0  0
 54 49  1  0  0  0  0
 56 57  1  0  0  0  0
 56 49  2  0  0  0  0
 57 46  1  6  0  0  0
 57 53  1  0  0  0  0
M  END
>  <MODEL>
8

>  <REMARK>
 VINA RESULT:      -5.8      2.601     11.465
  Name = 
  12 active torsions:
  status: ('A' for Active; 'I' for Inactive)
    1  A    between atoms: N_1  and  C_9
    2  A    between atoms: C_2  and  C_3
    3  A    between atoms: C_2  and  C_22
    4  A    between atoms: N_18  and  C_52
    5  A    between atoms: N_20  and  N_21
    6  A    between atoms: C_22  and  C_28
    7  A    between atoms: C_23  and  N_29
    8  A    between atoms: C_23  and  C_56
    9  A    between atoms: C_26  and  C_52
   10  A    between atoms: C_27  and  C_39
   11  A    between atoms: C_28  and  N_29
   12  A    between atoms: C_28  and  C_40
                            x       y       z     vdW  Elec       q    Type
                         _______ _______ _______ _____ _____    ______ ____

>  <TORSDO>
F 12

$$$$
=
 OpenBabel11042419073D

 57 62  0  0  1  0  0  0  0  0999 V2000
  187.7800  177.3190  141.9640 C   0  0  1  0  0  3  0  0  0  0  0  0
  187.6010  176.6050  140.6600 C   0  0  0  0  0  3  0  0  0  0  0  0
  189.1500  175.0960  142.7530 C   0  0  2  0  0  3  0  0  0  0  0  0
  188.4940  174.3800  141.5660 C   0  0  1  0  0  3  0  0  0  0  0  0
  187.9270  175.3060  140.4940 C   0  0  0  0  0  3  0  0  0  0  0  0
  190.0740  176.2800  142.4210 C   0  0  0  0  0  2  0  0  0  0  0  0
  189.2610  177.5810  142.2920 C   0  0  0  0  0  2  0  0  0  0  0  0
  189.6660  174.2170  143.8020 N   0  0  0  0  0  0  0  0  0  0  0  0
  196.6060  171.4280  140.8230 C   0  0  0  0  0  1  0  0  0  0  0  0
  191.9040  175.0960  143.4830 C   0  0  0  0  0  3  0  0  0  0  0  0
  194.9040  173.0250  143.5090 N   0  0  0  0  0  0  0  0  0  0  0  0
  196.0360  174.8280  142.2880 C   0  0  0  0  0  1  0  0  0  0  0  0
  190.9230  174.1930  144.1220 C   0  0  0  0  0  0  0  0  0  0  0  0
  192.8150  172.7050  144.5860 N   0  0  0  0  0  0  0  0  0  0  0  0
  196.0260  173.9570  143.5440 C   0  0  2  0  0  3  0  0  0  0  0  0
  191.4670  173.1200  145.0150 C   0  0  0  0  0  2  0  0  0  0  0  0
  193.1590  174.7630  143.4470 N   0  0  0  0  0  0  0  0  0  0  0  0
  193.6210  173.5010  143.9460 C   0  0  0  0  0  0  0  0  0  0  0  0
  197.3130  173.1950  143.6550 C   0  0  0  0  0  3  0  0  0  0  0  0
  194.9170  171.8840  142.5920 C   0  0  0  0  0  2  0  0  0  0  0  0
  197.4330  171.9820  143.0990 C   0  0  0  0  0  3  0  0  0  0  0  0
  196.3230  171.3240  142.3170 C   0  0  2  0  0  3  0  0  0  0  0  0
  189.9450  173.6040  139.7900 N   0  0  0  0  0  0  0  0  0  0  0  0
  189.4030  173.3620  140.9440 C   0  0  0  0  0  3  0  0  0  0  0  0
  190.8980  172.7230  139.2410 N   0  0  0  0  0  2  0  0  0  0  0  0
  192.2790  173.0750  139.0870 C   0  0  0  0  0  0  0  0  0  0  0  0
  192.6920  174.2360  139.3580 O   0  0  0  0  0  0  0  0  0  0  0  0
  193.2320  172.0560  138.5240 C   0  0  0  0  0  2  0  0  0  0  0  0
  195.1570  170.0380  136.2460 C   0  0  2  0  0  3  0  0  0  0  0  0
  195.7680  168.6640  136.5190 C   0  0  0  0  0  2  0  0  0  0  0  0
  195.6700  173.3400  137.9710 O   0  0  0  0  0  1  0  0  0  0  0  0
  193.0830  171.4010  136.2160 C   0  0  0  0  0  2  0  0  0  0  0  0
  193.6480  172.3960  137.1530 N   0  0  0  0  0  0  0  0  0  0  0  0
  197.2790  171.1330  136.9420 C   0  0  0  0  0  2  0  0  0  0  0  0
  197.9410  169.7770  137.1530 C   0  0  0  0  0  2  0  0  0  0  0  0
  195.7730  171.0430  137.2280 C   0  0  1  0  0  3  0  0  0  0  0  0
  193.6530  169.9950  136.4240 C   0  0  0  0  0  2  0  0  0  0  0  0
  197.2770  168.7170  136.2670 C   0  0  0  0  0  2  0  0  0  0  0  0
  195.1290  172.4290  137.0520 C   0  0  2  0  0  3  0  0  0  0  0  0
  186.9750  178.5910  142.0050 C   0  0  0  0  0  2  0  0  0  0  0  0
  185.6000  178.2870  141.4220 C   0  0  0  0  0  2  0  0  0  0  0  0
  184.6030  177.9400  142.5170 C   0  0  2  0  0  3  0  0  0  0  0  0
  183.1450  178.2910  140.5100 C   0  0  0  0  0  1  0  0  0  0  0  0
  183.2060  178.2900  142.0330 C   0  0  0  0  0  2  0  0  0  0  0  0
  184.9320  178.6940  143.7360 N   0  0  0  0  0  2  0  0  0  0  0  0
  185.2580  177.8410  144.8930 C   0  0  0  0  0  0  0  0  0  0  0  0
  185.8480  176.6190  144.4960 O   0  0  0  0  0  1  0  0  0  0  0  0
  184.0660  177.5830  145.5710 O   0  0  0  0  0  1  0  0  0  0  0  0
  188.1110  177.1810  146.0990 C   0  0  0  0  0  0  0  0  0  0  0  0
  187.2440  176.2910  146.9410 C   0  0  0  0  0  2  0  0  0  0  0  0
  186.7140  179.6010  148.0820 C   0  0  0  0  0  1  0  0  0  0  0  0
  186.4740  177.1460  147.9680 C   0  0  0  0  0  2  0  0  0  0  0  0
  185.9350  178.4860  147.3880 C   0  0  0  0  0  0  0  0  0  0  0  0
  189.5820  176.9390  146.0390 C   0  0  0  0  0  1  0  0  0  0  0  0
  184.4600  178.6660  147.7390 C   0  0  0  0  0  1  0  0  0  0  0  0
  187.6250  178.2920  145.6420 N   0  0  0  0  0  0  0  0  0  0  0  0
  186.2180  178.6140  145.8570 C   0  0  1  0  0  3  0  0  0  0  0  0
  1 40  1  6  0  0  0
  1  7  1  0  0  0  0
  2  1  1  0  0  0  0
  3  8  1  6  0  0  0
  4 24  1  6  0  0  0
  4  3  1  0  0  0  0
  5  2  2  0  0  0  0
  5  4  1  0  0  0  0
  6  3  1  0  0  0  0
  7  6  1  0  0  0  0
  8 13  2  0  0  0  0
 10 13  1  0  0  0  0
 11 15  1  0  0  0  0
 11 18  1  0  0  0  0
 13 16  1  0  0  0  0
 14 16  1  0  0  0  0
 15 12  1  6  0  0  0
 15 19  1  0  0  0  0
 17 10  2  0  0  0  0
 17 18  1  0  0  0  0
 18 14  2  0  0  0  0
 20 11  1  0  0  0  0
 21 19  2  0  0  0  0
 22  9  1  6  0  0  0
 22 20  1  0  0  0  0
 22 21  1  0  0  0  0
 23 24  2  0  0  0  0
 25 23  1  0  0  0  0
 26 25  1  0  0  0  0
 26 27  2  0  0  0  0
 28 26  1  0  0  0  0
 29 37  1  1  0  0  0
 29 30  1  0  0  0  0
 29 36  1  0  0  0  0
 32 37  1  0  0  0  0
 32 33  1  0  0  0  0
 33 28  1  0  0  0  0
 34 35  1  0  0  0  0
 36 34  1  6  0  0  0
 38 30  1  0  0  0  0
 38 35  1  0  0  0  0
 39 33  1  0  0  0  0
 39 36  1  0  0  0  0
 39 31  1  1  0  0  0
 41 40  1  0  0  0  0
 42 41  1  6  0  0  0
 42 45  1  0  0  0  0
 43 44  1  0  0  0  0
 44 42  1  0  0  0  0
 45 46  1  0  0  0  0
 46 48  1  0  0  0  0
 47 46  1  0  0  0  0
 49 50  1  0  0  0  0
 50 52  1  0  0  0  0
 53 55  1  0  0  0  0
 53 52  1  0  0  0  0
 53 51  1  0  0  0  0
 54 49  1  0  0  0  0
 56 57  1  0  0  0  0
 56 49  2  0  0  0  0
 57 46  1  6  0  0  0
 57 53  1  0  0  0  0
M  END
>  <MODEL>
9

>  <REMARK>
 VINA RESULT:      -5.6      2.342     11.499
  Name = 
  12 active torsions:
  status: ('A' for Active; 'I' for Inactive)
    1  A    between atoms: N_1  and  C_9
    2  A    between atoms: C_2  and  C_3
    3  A    between atoms: C_2  and  C_22
    4  A    between atoms: N_18  and  C_52
    5  A    between atoms: N_20  and  N_21
    6  A    between atoms: C_22  and  C_28
    7  A    between atoms: C_23  and  N_29
    8  A    between atoms: C_23  and  C_56
    9  A    between atoms: C_26  and  C_52
   10  A    between atoms: C_27  and  C_39
   11  A    between atoms: C_28  and  N_29
   12  A    between atoms: C_28  and  C_40
                            x       y       z     vdW  Elec       q    Type
                         _______ _______ _______ _____ _____    ______ ____

>  <TORSDO>
F 12

$$$$
