=
 OpenBabel11042419553D

 41 42  0  0  1  0  0  0  0  0999 V2000
  192.2570  174.8390  146.1490 C   0  0  0  0  0  0  0  0  0  0  0  0
  193.3450  173.9920  145.9160 C   0  0  0  0  0  3  0  0  0  0  0  0
  194.8590  175.8620  146.1670 C   0  0  0  0  0  3  0  0  0  0  0  0
  193.7720  176.7110  146.3980 C   0  0  0  0  0  3  0  0  0  0  0  0
  194.6550  174.4950  145.9270 C   0  0  0  0  0  0  0  0  0  0  0  0
  192.4720  176.2000  146.3870 C   0  0  0  0  0  3  0  0  0  0  0  0
  195.8000  173.6010  145.6770 C   0  0  0  0  0  0  0  0  0  0  0  0
  196.9740  173.9920  145.9280 O   0  0  0  0  0  0  0  0  0  0  0  0
  196.3820  171.1850  145.8260 C   0  0  0  0  0  1  0  0  0  0  0  0
  195.5820  172.2420  145.0850 C   0  0  2  0  0  3  0  0  0  0  0  0
  195.9370  172.2460  143.6750 N   0  0  0  0  0  2  0  0  0  0  0  0
  195.3700  172.3310  141.2780 N   0  0  0  0  0  2  0  0  0  0  0  0
  194.6520  172.1050  139.0850 O   0  0  0  0  0  0  0  0  0  0  0  0
  194.5570  172.7340  140.1690 C   0  0  0  0  0  0  0  0  0  0  0  0
  193.7340  172.4680  142.9410 O   0  0  0  0  0  0  0  0  0  0  0  0
  194.9560  172.3630  142.6460 C   0  0  0  0  0  0  0  0  0  0  0  0
  193.6910  173.8320  140.2380 O   0  0  0  0  0  0  0  0  0  0  0  0
  194.1330  175.1820  140.1700 C   0  0  2  0  0  3  0  0  0  0  0  0
  196.7040  175.9080  140.7730 S   0  0  0  0  0  1  0  0  0  0  0  0
  195.5280  175.2150  139.5750 C   0  0  0  0  0  2  0  0  0  0  0  0
  194.1600  175.8030  141.5610 C   0  0  0  0  0  2  0  0  0  0  0  0
  192.8630  175.5420  142.3020 C   0  0  0  0  0  2  0  0  0  0  0  0
  192.2930  176.8400  142.8360 C   0  0  0  0  0  1  0  0  0  0  0  0
  190.8700  174.2940  146.1020 C   0  0  0  0  0  2  0  0  0  0  0  0
  190.2900  171.8530  143.2610 C   0  0  0  0  0  2  0  0  0  0  0  0
  189.9980  172.4710  144.6200 C   0  0  0  0  0  2  0  0  0  0  0  0
  189.6990  173.8260  141.8210 C   0  0  0  0  0  2  0  0  0  0  0  0
  189.0880  174.7900  142.7970 C   0  0  0  0  0  3  0  0  0  0  0  0
  189.4170  174.8430  144.0960 C   0  0  0  0  0  0  0  0  0  0  0  0
  189.3550  172.3870  142.1820 C   0  0  0  0  0  2  0  0  0  0  0  0
  190.4730  173.9210  144.6730 C   0  0  1  0  0  3  0  0  0  0  0  0
  188.7400  175.8840  144.9370 C   0  0  0  0  0  2  0  0  0  0  0  0
  187.5140  177.5530  143.5880 N   0  0  0  0  0  0  0  0  0  0  0  0
  188.6100  177.1610  144.1690 C   0  0  0  0  0  3  0  0  0  0  0  0
  186.0780  175.8510  142.8360 O   0  0  0  0  0  0  0  0  0  0  0  0
  186.2500  176.8700  143.5580 C   0  0  0  0  0  0  0  0  0  0  0  0
  185.1610  177.3460  144.3490 N   0  0  0  0  0  2  0  0  0  0  0  0
  185.7000  180.1050  144.4520 O   0  0  0  0  0  0  0  0  0  0  0  0
  186.4860  178.4890  146.5470 O   0  0  0  0  0  1  0  0  0  0  0  0
  183.9680  179.0010  146.0710 O   0  0  0  0  0  1  0  0  0  0  0  0
  185.2910  178.7560  145.3830 P   0  0  0  0  0  0  0  0  0  0  0  0
  1  6  1  0  0  0  0
  2  5  1  0  0  0  0
  2  1  2  0  0  0  0
  3  4  1  0  0  0  0
  5  3  2  0  0  0  0
  6  4  2  0  0  0  0
  7  5  1  0  0  0  0
  7  8  2  0  0  0  0
 10  7  1  0  0  0  0
 10  9  1  1  0  0  0
 11 10  1  0  0  0  0
 12 16  1  0  0  0  0
 13 14  2  0  0  0  0
 14 17  1  0  0  0  0
 14 12  1  0  0  0  0
 16 15  2  0  0  0  0
 16 11  1  0  0  0  0
 18 20  1  1  0  0  0
 18 17  1  0  0  0  0
 18 21  1  0  0  0  0
 20 19  1  0  0  0  0
 21 22  1  0  0  0  0
 22 23  1  0  0  0  0
 24  1  1  0  0  0  0
 25 26  1  0  0  0  0
 26 31  1  0  0  0  0
 27 30  1  0  0  0  0
 27 28  1  0  0  0  0
 28 29  2  0  0  0  0
 29 31  1  0  0  0  0
 29 32  1  0  0  0  0
 30 25  1  0  0  0  0
 31 24  1  1  0  0  0
 33 34  2  0  0  0  0
 34 32  1  0  0  0  0
 35 36  2  0  0  0  0
 36 33  1  0  0  0  0
 36 37  1  0  0  0  0
 37 41  1  0  0  0  0
 38 41  2  0  0  0  0
 41 40  1  0  0  0  0
 41 39  1  0  0  0  0
M  END
>  <MODEL>
1

>  <REMARK>
 VINA RESULT:      -6.2      0.000      0.000
  Name = 
  14 active torsions:
  status: ('A' for Active; 'I' for Inactive)
    1  A    between atoms: N_1  and  C_30
    2  A    between atoms: C_3  and  C_29
    3  A    between atoms: C_3  and  C_30
    4  A    between atoms: O_5  and  C_24
    5  A    between atoms: O_5  and  C_25
    6  A    between atoms: C_12  and  C_19
    7  A    between atoms: C_13  and  C_18
    8  A    between atoms: C_13  and  C_25
    9  A    between atoms: C_19  and  C_36
   10  A    between atoms: C_22  and  C_32
   11  A    between atoms: C_23  and  C_25
   12  A    between atoms: C_26  and  N_27
   13  A    between atoms: C_31  and  C_32
   14  A    between atoms: N_34  and  P_40
                            x       y       z     vdW  Elec       q    Type
                         _______ _______ _______ _____ _____    ______ ____

>  <TORSDO>
F 14

$$$$
=
 OpenBabel11042419553D

 41 42  0  0  1  0  0  0  0  0999 V2000
  190.6790  174.8540  146.2280 C   0  0  0  0  0  0  0  0  0  0  0  0
  191.9020  175.1100  145.6010 C   0  0  0  0  0  3  0  0  0  0  0  0
  192.5300  176.5800  147.4160 C   0  0  0  0  0  3  0  0  0  0  0  0
  191.3070  176.3270  148.0440 C   0  0  0  0  0  3  0  0  0  0  0  0
  192.8390  175.9710  146.1910 C   0  0  0  0  0  0  0  0  0  0  0  0
  190.3810  175.4670  147.4500 C   0  0  0  0  0  3  0  0  0  0  0  0
  194.1270  176.2430  145.5250 C   0  0  0  0  0  0  0  0  0  0  0  0
  194.6140  177.4070  145.5430 O   0  0  0  0  0  0  0  0  0  0  0  0
  195.8300  174.4350  145.6940 C   0  0  0  0  0  1  0  0  0  0  0  0
  194.8420  175.1510  144.7900 C   0  0  2  0  0  3  0  0  0  0  0  0
  195.5240  175.6930  143.6270 N   0  0  0  0  0  2  0  0  0  0  0  0
  196.0830  175.7030  141.2260 N   0  0  0  0  0  2  0  0  0  0  0  0
  196.7470  175.3830  139.0280 O   0  0  0  0  0  0  0  0  0  0  0  0
  195.7930  175.4580  139.8440 C   0  0  0  0  0  0  0  0  0  0  0  0
  194.6010  174.1470  142.1440 O   0  0  0  0  0  0  0  0  0  0  0  0
  195.3590  175.1400  142.3220 C   0  0  0  0  0  0  0  0  0  0  0  0
  194.4840  175.3410  139.3640 O   0  0  0  0  0  0  0  0  0  0  0  0
  194.1460  174.6280  138.1800 C   0  0  2  0  0  3  0  0  0  0  0  0
  194.9170  175.7900  135.8230 S   0  0  0  0  0  1  0  0  0  0  0  0
  193.6690  175.6140  137.1300 C   0  0  0  0  0  2  0  0  0  0  0  0
  193.0440  173.6160  138.4640 C   0  0  0  0  0  2  0  0  0  0  0  0
  191.8300  173.8700  137.5910 C   0  0  0  0  0  2  0  0  0  0  0  0
  190.8800  172.6910  137.6590 C   0  0  0  0  0  1  0  0  0  0  0  0
  189.6810  173.9620  145.5710 C   0  0  0  0  0  2  0  0  0  0  0  0
  190.7670  171.6930  142.7360 C   0  0  0  0  0  2  0  0  0  0  0  0
  189.7940  172.2050  143.7880 C   0  0  0  0  0  2  0  0  0  0  0  0
  190.8260  173.7300  141.2640 C   0  0  0  0  0  2  0  0  0  0  0  0
  189.7430  174.5970  141.8370 C   0  0  0  0  0  3  0  0  0  0  0  0
  189.3790  174.5780  143.1280 C   0  0  0  0  0  0  0  0  0  0  0  0
  190.4540  172.2550  141.3540 C   0  0  0  0  0  2  0  0  0  0  0  0
  190.0730  173.6680  144.1230 C   0  0  1  0  0  3  0  0  0  0  0  0
  188.3010  175.5280  143.5550 C   0  0  0  0  0  2  0  0  0  0  0  0
  186.7640  176.5510  141.9110 N   0  0  0  0  0  0  0  0  0  0  0  0
  187.1760  175.5070  142.5680 C   0  0  0  0  0  3  0  0  0  0  0  0
  188.3470  178.2140  141.4120 O   0  0  0  0  0  0  0  0  0  0  0  0
  187.2760  177.8910  141.9920 C   0  0  0  0  0  0  0  0  0  0  0  0
  186.5750  178.8800  142.7470 N   0  0  0  0  0  2  0  0  0  0  0  0
  185.3610  177.3590  144.7780 O   0  0  0  0  0  1  0  0  0  0  0  0
  183.9290  177.9700  142.5000 O   0  0  0  0  0  0  0  0  0  0  0  0
  184.5720  179.7970  144.2540 O   0  0  0  0  0  1  0  0  0  0  0  0
  185.0820  178.5360  143.5980 P   0  0  0  0  0  0  0  0  0  0  0  0
  1  6  1  0  0  0  0
  2  5  1  0  0  0  0
  2  1  2  0  0  0  0
  3  4  1  0  0  0  0
  5  3  2  0  0  0  0
  6  4  2  0  0  0  0
  7  8  2  0  0  0  0
  7  5  1  0  0  0  0
 10  7  1  0  0  0  0
 10  9  1  1  0  0  0
 11 10  1  0  0  0  0
 12 16  1  0  0  0  0
 13 14  2  0  0  0  0
 14 12  1  0  0  0  0
 15 16  2  0  0  0  0
 16 11  1  0  0  0  0
 17 14  1  0  0  0  0
 18 20  1  6  0  0  0
 18 21  1  0  0  0  0
 18 17  1  0  0  0  0
 19 20  1  0  0  0  0
 22 23  1  0  0  0  0
 22 21  1  0  0  0  0
 24  1  1  0  0  0  0
 25 26  1  0  0  0  0
 26 31  1  0  0  0  0
 27 30  1  0  0  0  0
 27 28  1  0  0  0  0
 28 29  2  0  0  0  0
 29 32  1  0  0  0  0
 29 31  1  0  0  0  0
 30 25  1  0  0  0  0
 31 24  1  1  0  0  0
 33 36  1  0  0  0  0
 33 34  2  0  0  0  0
 34 32  1  0  0  0  0
 35 36  2  0  0  0  0
 36 37  1  0  0  0  0
 37 41  1  0  0  0  0
 39 41  2  0  0  0  0
 41 40  1  0  0  0  0
 41 38  1  0  0  0  0
M  END
>  <MODEL>
2

>  <REMARK>
 VINA RESULT:      -6.0      2.300      2.966
  Name = 
  14 active torsions:
  status: ('A' for Active; 'I' for Inactive)
    1  A    between atoms: N_1  and  C_30
    2  A    between atoms: C_3  and  C_29
    3  A    between atoms: C_3  and  C_30
    4  A    between atoms: O_5  and  C_24
    5  A    between atoms: O_5  and  C_25
    6  A    between atoms: C_12  and  C_19
    7  A    between atoms: C_13  and  C_18
    8  A    between atoms: C_13  and  C_25
    9  A    between atoms: C_19  and  C_36
   10  A    between atoms: C_22  and  C_32
   11  A    between atoms: C_23  and  C_25
   12  A    between atoms: C_26  and  N_27
   13  A    between atoms: C_31  and  C_32
   14  A    between atoms: N_34  and  P_40
                            x       y       z     vdW  Elec       q    Type
                         _______ _______ _______ _____ _____    ______ ____

>  <TORSDO>
F 14

$$$$
=
 OpenBabel11042419553D

 41 42  0  0  1  0  0  0  0  0999 V2000
  191.9750  172.6840  143.7430 C   0  0  0  0  0  0  0  0  0  0  0  0
  191.6090  172.7680  142.3960 C   0  0  0  0  0  3  0  0  0  0  0  0
  189.3120  172.2930  142.9870 C   0  0  0  0  0  3  0  0  0  0  0  0
  189.6770  172.2060  144.3340 C   0  0  0  0  0  3  0  0  0  0  0  0
  190.2750  172.5770  142.0070 C   0  0  0  0  0  0  0  0  0  0  0  0
  191.0080  172.3990  144.7120 C   0  0  0  0  0  3  0  0  0  0  0  0
  189.8910  172.6620  140.5860 C   0  0  0  0  0  0  0  0  0  0  0  0
  190.6820  172.2520  139.6920 O   0  0  0  0  0  0  0  0  0  0  0  0
  188.2010  172.8930  138.7720 C   0  0  0  0  0  1  0  0  0  0  0  0
  188.5810  173.2720  140.1930 C   0  0  2  0  0  3  0  0  0  0  0  0
  188.6400  174.7190  140.3300 N   0  0  0  0  0  2  0  0  0  0  0  0
  188.0150  176.8390  141.4180 N   0  0  0  0  0  2  0  0  0  0  0  0
  187.0890  178.7520  142.3460 O   0  0  0  0  0  0  0  0  0  0  0  0
  187.6250  177.6320  142.5470 C   0  0  0  0  0  0  0  0  0  0  0  0
  187.2350  174.7770  142.1910 O   0  0  0  0  0  0  0  0  0  0  0  0
  187.9380  175.4140  141.3590 C   0  0  0  0  0  0  0  0  0  0  0  0
  187.8580  177.2220  143.8640 O   0  0  0  0  0  0  0  0  0  0  0  0
  189.1220  176.7600  144.3280 C   0  0  2  0  0  3  0  0  0  0  0  0
  189.2310  177.2800  147.0140 S   0  0  0  0  0  1  0  0  0  0  0  0
  188.9370  176.0880  145.6750 C   0  0  0  0  0  2  0  0  0  0  0  0
  190.0940  177.9240  144.4700 C   0  0  0  0  0  2  0  0  0  0  0  0
  191.2760  177.7660  143.5330 C   0  0  0  0  0  2  0  0  0  0  0  0
  191.2640  176.3890  142.9000 C   0  0  0  0  0  1  0  0  0  0  0  0
  193.4040  172.8570  144.1340 C   0  0  0  0  0  2  0  0  0  0  0  0
  192.7170  175.8000  146.4220 C   0  0  0  0  0  2  0  0  0  0  0  0
  193.1580  174.3770  146.1110 C   0  0  0  0  0  2  0  0  0  0  0  0
  194.5560  177.0270  145.2270 C   0  0  0  0  0  2  0  0  0  0  0  0
  195.5040  175.9290  144.8390 C   0  0  0  0  0  3  0  0  0  0  0  0
  195.1210  174.6680  144.5930 C   0  0  0  0  0  0  0  0  0  0  0  0
  193.9060  176.7410  146.5740 C   0  0  0  0  0  2  0  0  0  0  0  0
  193.6620  174.2630  144.6740 C   0  0  1  0  0  3  0  0  0  0  0  0
  196.1830  173.6910  144.1850 C   0  0  0  0  0  2  0  0  0  0  0  0
  196.8490  173.7530  141.8050 N   0  0  0  0  0  0  0  0  0  0  0  0
  196.9480  174.2230  143.0150 C   0  0  0  0  0  3  0  0  0  0  0  0
  196.2910  171.4750  141.6610 O   0  0  0  0  0  0  0  0  0  0  0  0
  196.0220  172.6680  141.3560 C   0  0  0  0  0  0  0  0  0  0  0  0
  194.8770  172.9300  140.5440 N   0  0  0  0  0  2  0  0  0  0  0  0
  193.0520  174.4760  139.0620 O   0  0  0  0  0  0  0  0  0  0  0  0
  195.6920  175.2660  139.2130 O   0  0  0  0  0  1  0  0  0  0  0  0
  194.1020  175.3750  141.2840 O   0  0  0  0  0  1  0  0  0  0  0  0
  194.4160  174.5500  140.0570 P   0  0  0  0  0  0  0  0  0  0  0  0
  1 24  1  0  0  0  0
  1  6  1  0  0  0  0
  2  1  2  0  0  0  0
  3  4  1  0  0  0  0
  4  6  2  0  0  0  0
  5  2  1  0  0  0  0
  5  3  2  0  0  0  0
  7  5  1  0  0  0  0
  8  7  2  0  0  0  0
 10  9  1  6  0  0  0
 10 11  1  0  0  0  0
 10  7  1  0  0  0  0
 11 16  1  0  0  0  0
 12 14  1  0  0  0  0
 13 14  2  0  0  0  0
 14 17  1  0  0  0  0
 16 12  1  0  0  0  0
 16 15  2  0  0  0  0
 17 18  1  0  0  0  0
 18 21  1  1  0  0  0
 18 20  1  0  0  0  0
 20 19  1  0  0  0  0
 22 21  1  0  0  0  0
 23 22  1  0  0  0  0
 25 30  1  0  0  0  0
 26 25  1  0  0  0  0
 27 30  1  0  0  0  0
 28 27  1  0  0  0  0
 29 31  1  0  0  0  0
 29 28  2  0  0  0  0
 31 24  1  1  0  0  0
 31 26  1  0  0  0  0
 32 29  1  0  0  0  0
 33 34  2  0  0  0  0
 34 32  1  0  0  0  0
 36 35  2  0  0  0  0
 36 33  1  0  0  0  0
 37 36  1  0  0  0  0
 38 41  2  0  0  0  0
 39 41  1  0  0  0  0
 41 37  1  0  0  0  0
 41 40  1  0  0  0  0
M  END
>  <MODEL>
3

>  <REMARK>
 VINA RESULT:      -6.0      3.250      8.090
  Name = 
  14 active torsions:
  status: ('A' for Active; 'I' for Inactive)
    1  A    between atoms: N_1  and  C_30
    2  A    between atoms: C_3  and  C_29
    3  A    between atoms: C_3  and  C_30
    4  A    between atoms: O_5  and  C_24
    5  A    between atoms: O_5  and  C_25
    6  A    between atoms: C_12  and  C_19
    7  A    between atoms: C_13  and  C_18
    8  A    between atoms: C_13  and  C_25
    9  A    between atoms: C_19  and  C_36
   10  A    between atoms: C_22  and  C_32
   11  A    between atoms: C_23  and  C_25
   12  A    between atoms: C_26  and  N_27
   13  A    between atoms: C_31  and  C_32
   14  A    between atoms: N_34  and  P_40
                            x       y       z     vdW  Elec       q    Type
                         _______ _______ _______ _____ _____    ______ ____

>  <TORSDO>
F 14

$$$$
=
 OpenBabel11042419553D

 41 42  0  0  1  0  0  0  0  0999 V2000
  190.9180  176.6640  145.0320 C   0  0  0  0  0  0  0  0  0  0  0  0
  192.1150  176.1860  144.4890 C   0  0  0  0  0  3  0  0  0  0  0  0
  192.9730  175.7920  146.7160 C   0  0  0  0  0  3  0  0  0  0  0  0
  191.7780  176.2720  147.2610 C   0  0  0  0  0  3  0  0  0  0  0  0
  193.1500  175.7420  145.3250 C   0  0  0  0  0  0  0  0  0  0  0  0
  190.7520  176.7100  146.4200 C   0  0  0  0  0  3  0  0  0  0  0  0
  194.4120  175.2420  144.7500 C   0  0  0  0  0  0  0  0  0  0  0  0
  194.9940  175.8950  143.8400 O   0  0  0  0  0  0  0  0  0  0  0  0
  196.3400  174.1400  145.8750 C   0  0  0  0  0  1  0  0  0  0  0  0
  194.9880  173.9390  145.2130 C   0  0  2  0  0  3  0  0  0  0  0  0
  195.1070  173.0180  144.0940 N   0  0  0  0  0  2  0  0  0  0  0  0
  194.2580  171.2100  142.6510 N   0  0  0  0  0  2  0  0  0  0  0  0
  193.4540  169.3090  141.5950 O   0  0  0  0  0  0  0  0  0  0  0  0
  193.2120  170.4720  142.0060 C   0  0  0  0  0  0  0  0  0  0  0  0
  192.9930  172.0840  144.4120 O   0  0  0  0  0  0  0  0  0  0  0  0
  194.0640  172.1090  143.7450 C   0  0  0  0  0  0  0  0  0  0  0  0
  191.9430  171.0170  141.7790 O   0  0  0  0  0  0  0  0  0  0  0  0
  191.5310  171.5430  140.5230 C   0  0  2  0  0  3  0  0  0  0  0  0
  189.9120  170.7250  138.4710 S   0  0  0  0  0  1  0  0  0  0  0  0
  191.3390  170.3980  139.5480 C   0  0  0  0  0  2  0  0  0  0  0  0
  192.5810  172.5030  139.9790 C   0  0  0  0  0  2  0  0  0  0  0  0
  192.1410  173.9450  140.1440 C   0  0  0  0  0  2  0  0  0  0  0  0
  192.8380  174.5730  141.3340 C   0  0  0  0  0  1  0  0  0  0  0  0
  189.8410  177.1620  144.1290 C   0  0  0  0  0  2  0  0  0  0  0  0
  189.5540  173.6010  142.8640 C   0  0  0  0  0  2  0  0  0  0  0  0
  189.2280  174.7540  143.8010 C   0  0  0  0  0  2  0  0  0  0  0  0
  188.5510  174.5380  140.7580 C   0  0  0  0  0  2  0  0  0  0  0  0
  187.8300  175.7640  141.2400 C   0  0  0  0  0  3  0  0  0  0  0  0
  188.2120  176.4800  142.3080 C   0  0  0  0  0  0  0  0  0  0  0  0
  188.4850  173.4210  141.7930 C   0  0  0  0  0  2  0  0  0  0  0  0
  189.4420  176.0980  143.1070 C   0  0  1  0  0  3  0  0  0  0  0  0
  187.4070  177.7000  142.6440 C   0  0  0  0  0  2  0  0  0  0  0  0
  185.2090  177.9740  143.7410 N   0  0  0  0  0  0  0  0  0  0  0  0
  185.9900  177.3170  142.9340 C   0  0  0  0  0  3  0  0  0  0  0  0
  185.5420  180.2910  143.9530 O   0  0  0  0  0  0  0  0  0  0  0  0
  185.5290  179.1540  144.4960 C   0  0  0  0  0  0  0  0  0  0  0  0
  185.8480  179.0490  145.8850 N   0  0  0  0  0  2  0  0  0  0  0  0
  186.0740  177.7910  148.3910 O   0  0  0  0  0  1  0  0  0  0  0  0
  187.1350  176.5660  146.1570 O   0  0  0  0  0  0  0  0  0  0  0  0
  184.5550  176.7980  146.5070 O   0  0  0  0  0  1  0  0  0  0  0  0
  185.8640  177.5170  146.7360 P   0  0  0  0  0  0  0  0  0  0  0  0
  1  6  1  0  0  0  0
  2  1  2  0  0  0  0
  2  5  1  0  0  0  0
  3  4  1  0  0  0  0
  5  3  2  0  0  0  0
  6  4  2  0  0  0  0
  7 10  1  0  0  0  0
  7  5  1  0  0  0  0
  8  7  2  0  0  0  0
 10  9  1  6  0  0  0
 11 10  1  0  0  0  0
 12 16  1  0  0  0  0
 13 14  2  0  0  0  0
 14 12  1  0  0  0  0
 16 11  1  0  0  0  0
 16 15  2  0  0  0  0
 17 14  1  0  0  0  0
 18 20  1  6  0  0  0
 18 17  1  0  0  0  0
 19 20  1  0  0  0  0
 21 22  1  0  0  0  0
 21 18  1  0  0  0  0
 22 23  1  0  0  0  0
 24  1  1  0  0  0  0
 25 26  1  0  0  0  0
 27 28  1  0  0  0  0
 27 30  1  0  0  0  0
 28 29  2  0  0  0  0
 29 32  1  0  0  0  0
 29 31  1  0  0  0  0
 30 25  1  0  0  0  0
 31 26  1  0  0  0  0
 31 24  1  1  0  0  0
 32 34  1  0  0  0  0
 33 36  1  0  0  0  0
 34 33  2  0  0  0  0
 35 36  2  0  0  0  0
 36 37  1  0  0  0  0
 37 41  1  0  0  0  0
 39 41  2  0  0  0  0
 40 41  1  0  0  0  0
 41 38  1  0  0  0  0
M  END
>  <MODEL>
4

>  <REMARK>
 VINA RESULT:      -5.9      2.412      3.208
  Name = 
  14 active torsions:
  status: ('A' for Active; 'I' for Inactive)
    1  A    between atoms: N_1  and  C_30
    2  A    between atoms: C_3  and  C_29
    3  A    between atoms: C_3  and  C_30
    4  A    between atoms: O_5  and  C_24
    5  A    between atoms: O_5  and  C_25
    6  A    between atoms: C_12  and  C_19
    7  A    between atoms: C_13  and  C_18
    8  A    between atoms: C_13  and  C_25
    9  A    between atoms: C_19  and  C_36
   10  A    between atoms: C_22  and  C_32
   11  A    between atoms: C_23  and  C_25
   12  A    between atoms: C_26  and  N_27
   13  A    between atoms: C_31  and  C_32
   14  A    between atoms: N_34  and  P_40
                            x       y       z     vdW  Elec       q    Type
                         _______ _______ _______ _____ _____    ______ ____

>  <TORSDO>
F 14

$$$$
=
 OpenBabel11042419553D

 41 42  0  0  1  0  0  0  0  0999 V2000
  190.0220  174.3220  143.0000 C   0  0  0  0  0  0  0  0  0  0  0  0
  190.1250  174.1420  141.6170 C   0  0  0  0  0  3  0  0  0  0  0  0
  190.0290  171.7440  141.9160 C   0  0  0  0  0  3  0  0  0  0  0  0
  189.9270  171.9210  143.3000 C   0  0  0  0  0  3  0  0  0  0  0  0
  190.1250  172.8540  141.0630 C   0  0  0  0  0  0  0  0  0  0  0  0
  189.9260  173.2080  143.8410 C   0  0  0  0  0  3  0  0  0  0  0  0
  190.2390  172.6670  139.6050 C   0  0  0  0  0  0  0  0  0  0  0  0
  189.5460  171.7860  139.0250 O   0  0  0  0  0  0  0  0  0  0  0  0
  190.7560  173.6300  137.3680 C   0  0  0  0  0  1  0  0  0  0  0  0
  191.2060  173.4920  138.8120 C   0  0  2  0  0  3  0  0  0  0  0  0
  192.5340  172.9020  138.8710 N   0  0  0  0  0  2  0  0  0  0  0  0
  194.8580  172.8270  139.6870 N   0  0  0  0  0  2  0  0  0  0  0  0
  197.0800  173.0810  140.2980 O   0  0  0  0  0  0  0  0  0  0  0  0
  195.8780  173.0580  140.6670 C   0  0  0  0  0  0  0  0  0  0  0  0
  193.3460  174.4550  140.4110 O   0  0  0  0  0  0  0  0  0  0  0  0
  193.5660  173.4380  139.6980 C   0  0  0  0  0  0  0  0  0  0  0  0
  195.5870  173.2150  142.0260 O   0  0  0  0  0  0  0  0  0  0  0  0
  195.7750  174.4380  142.7300 C   0  0  2  0  0  3  0  0  0  0  0  0
  197.2980  172.6860  144.1830 S   0  0  0  0  0  1  0  0  0  0  0  0
  197.0710  174.3600  143.5150 C   0  0  0  0  0  2  0  0  0  0  0  0
  194.6160  174.6860  143.6860 C   0  0  0  0  0  2  0  0  0  0  0  0
  193.6290  173.5350  143.6590 C   0  0  0  0  0  2  0  0  0  0  0  0
  193.4680  172.9500  145.0470 C   0  0  0  0  0  1  0  0  0  0  0  0
  190.0560  175.6970  143.5740 C   0  0  0  0  0  2  0  0  0  0  0  0
  192.7620  176.3850  146.1370 C   0  0  0  0  0  2  0  0  0  0  0  0
  191.7000  176.7830  145.1230 C   0  0  0  0  0  2  0  0  0  0  0  0
  191.2600  175.3340  147.8550 C   0  0  0  0  0  2  0  0  0  0  0  0
  189.8840  175.6700  147.3570 C   0  0  0  0  0  3  0  0  0  0  0  0
  189.5840  175.8460  146.0620 C   0  0  0  0  0  0  0  0  0  0  0  0
  192.2390  176.4640  147.5660 C   0  0  0  0  0  2  0  0  0  0  0  0
  190.6400  175.6910  144.9860 C   0  0  1  0  0  3  0  0  0  0  0  0
  188.1550  176.1460  145.7200 C   0  0  0  0  0  2  0  0  0  0  0  0
  186.6210  178.0530  146.0670 N   0  0  0  0  0  0  0  0  0  0  0  0
  187.8250  177.5590  146.0830 C   0  0  0  0  0  3  0  0  0  0  0  0
  184.8310  176.5980  146.5190 O   0  0  0  0  0  0  0  0  0  0  0  0
  185.4050  177.3750  145.7100 C   0  0  0  0  0  0  0  0  0  0  0  0
  184.8320  177.5710  144.4160 N   0  0  0  0  0  2  0  0  0  0  0  0
  187.0720  178.0310  142.7780 O   0  0  0  0  0  1  0  0  0  0  0  0
  185.7160  180.1780  143.8570 O   0  0  0  0  0  1  0  0  0  0  0  0
  184.6620  178.6790  141.9940 O   0  0  0  0  0  0  0  0  0  0  0  0
  185.5510  178.6240  143.2150 P   0  0  0  0  0  0  0  0  0  0  0  0
  1 24  1  0  0  0  0
  1  6  1  0  0  0  0
  2  1  2  0  0  0  0
  3  4  1  0  0  0  0
  4  6  2  0  0  0  0
  5  2  1  0  0  0  0
  5  3  2  0  0  0  0
  7  5  1  0  0  0  0
  8  7  2  0  0  0  0
 10  9  1  6  0  0  0
 10 11  1  0  0  0  0
 10  7  1  0  0  0  0
 11 16  1  0  0  0  0
 12 16  1  0  0  0  0
 12 14  1  0  0  0  0
 13 14  2  0  0  0  0
 14 17  1  0  0  0  0
 16 15  2  0  0  0  0
 17 18  1  0  0  0  0
 18 20  1  1  0  0  0
 18 21  1  0  0  0  0
 20 19  1  0  0  0  0
 22 21  1  0  0  0  0
 22 23  1  0  0  0  0
 25 30  1  0  0  0  0
 26 25  1  0  0  0  0
 28 27  1  0  0  0  0
 29 28  2  0  0  0  0
 30 27  1  0  0  0  0
 31 24  1  6  0  0  0
 31 26  1  0  0  0  0
 31 29  1  0  0  0  0
 32 29  1  0  0  0  0
 32 34  1  0  0  0  0
 33 34  2  0  0  0  0
 36 33  1  0  0  0  0
 36 35  2  0  0  0  0
 37 36  1  0  0  0  0
 38 41  1  0  0  0  0
 40 41  2  0  0  0  0
 41 39  1  0  0  0  0
 41 37  1  0  0  0  0
M  END
>  <MODEL>
5

>  <REMARK>
 VINA RESULT:      -5.9      2.261      4.923
  Name = 
  14 active torsions:
  status: ('A' for Active; 'I' for Inactive)
    1  A    between atoms: N_1  and  C_30
    2  A    between atoms: C_3  and  C_29
    3  A    between atoms: C_3  and  C_30
    4  A    between atoms: O_5  and  C_24
    5  A    between atoms: O_5  and  C_25
    6  A    between atoms: C_12  and  C_19
    7  A    between atoms: C_13  and  C_18
    8  A    between atoms: C_13  and  C_25
    9  A    between atoms: C_19  and  C_36
   10  A    between atoms: C_22  and  C_32
   11  A    between atoms: C_23  and  C_25
   12  A    between atoms: C_26  and  N_27
   13  A    between atoms: C_31  and  C_32
   14  A    between atoms: N_34  and  P_40
                            x       y       z     vdW  Elec       q    Type
                         _______ _______ _______ _____ _____    ______ ____

>  <TORSDO>
F 14

$$$$
=
 OpenBabel11042419553D

 41 42  0  0  1  0  0  0  0  0999 V2000
  192.1380  175.0810  146.3900 C   0  0  0  0  0  0  0  0  0  0  0  0
  193.2080  174.3200  145.9080 C   0  0  0  0  0  3  0  0  0  0  0  0
  194.7050  176.1840  146.2750 C   0  0  0  0  0  3  0  0  0  0  0  0
  193.6370  176.9470  146.7560 C   0  0  0  0  0  3  0  0  0  0  0  0
  194.4990  174.8620  145.8490 C   0  0  0  0  0  0  0  0  0  0  0  0
  192.3540  176.3970  146.8120 C   0  0  0  0  0  3  0  0  0  0  0  0
  195.6250  174.0600  145.3350 C   0  0  0  0  0  0  0  0  0  0  0  0
  196.7320  174.6110  145.0860 O   0  0  0  0  0  0  0  0  0  0  0  0
  196.5180  171.7760  145.7670 C   0  0  0  0  0  1  0  0  0  0  0  0
  195.4480  172.5960  145.0680 C   0  0  2  0  0  3  0  0  0  0  0  0
  195.4720  172.3420  143.6370 N   0  0  0  0  0  2  0  0  0  0  0  0
  194.4330  171.5930  141.5310 N   0  0  0  0  0  2  0  0  0  0  0  0
  193.4210  170.5680  139.7140 O   0  0  0  0  0  0  0  0  0  0  0  0
  193.3160  171.3950  140.6550 C   0  0  0  0  0  0  0  0  0  0  0  0
  193.2550  171.6200  143.5500 O   0  0  0  0  0  0  0  0  0  0  0  0
  194.3320  171.8500  142.9330 C   0  0  0  0  0  0  0  0  0  0  0  0
  192.1260  172.1200  140.7850 O   0  0  0  0  0  0  0  0  0  0  0  0
  191.9020  173.3740  140.1500 C   0  0  2  0  0  3  0  0  0  0  0  0
  190.3350  172.6530  138.0230 S   0  0  0  0  0  1  0  0  0  0  0  0
  191.9570  173.1820  138.6460 C   0  0  0  0  0  2  0  0  0  0  0  0
  192.9630  174.3810  140.5720 C   0  0  0  0  0  2  0  0  0  0  0  0
  192.6190  175.0110  141.9080 C   0  0  0  0  0  2  0  0  0  0  0  0
  193.8400  175.6830  142.5020 C   0  0  0  0  0  1  0  0  0  0  0  0
  190.7660  174.4990  146.4140 C   0  0  0  0  0  2  0  0  0  0  0  0
  189.9380  172.5570  143.2660 C   0  0  0  0  0  2  0  0  0  0  0  0
  189.7970  172.9050  144.7410 C   0  0  0  0  0  2  0  0  0  0  0  0
  189.0670  174.7040  142.2930 C   0  0  0  0  0  2  0  0  0  0  0  0
  188.5420  175.4360  143.4940 C   0  0  0  0  0  3  0  0  0  0  0  0
  189.0360  175.2850  144.7320 C   0  0  0  0  0  0  0  0  0  0  0  0
  188.8450  173.2030  142.4240 C   0  0  0  0  0  2  0  0  0  0  0  0
  190.2030  174.3540  145.0010 C   0  0  1  0  0  3  0  0  0  0  0  0
  188.4260  176.1110  145.8240 C   0  0  0  0  0  2  0  0  0  0  0  0
  187.2580  178.2690  145.5240 N   0  0  0  0  0  0  0  0  0  0  0  0
  188.3290  177.5410  145.3950 C   0  0  0  0  0  3  0  0  0  0  0  0
  185.9030  177.4620  147.2660 O   0  0  0  0  0  0  0  0  0  0  0  0
  185.9940  177.8690  146.0770 C   0  0  0  0  0  0  0  0  0  0  0  0
  184.8130  177.9230  145.2740 N   0  0  0  0  0  2  0  0  0  0  0  0
  183.2410  178.6670  143.0630 O   0  0  0  0  0  1  0  0  0  0  0  0
  185.6140  177.3200  142.6500 O   0  0  0  0  0  0  0  0  0  0  0  0
  185.5630  179.7850  143.5150 O   0  0  0  0  0  1  0  0  0  0  0  0
  184.8280  178.4680  143.6090 P   0  0  0  0  0  0  0  0  0  0  0  0
  1 24  1  0  0  0  0
  1  6  1  0  0  0  0
  2  1  2  0  0  0  0
  3  4  1  0  0  0  0
  4  6  2  0  0  0  0
  5  2  1  0  0  0  0
  5  3  2  0  0  0  0
  7  5  1  0  0  0  0
  8  7  2  0  0  0  0
 10  7  1  0  0  0  0
 10  9  1  1  0  0  0
 11 10  1  0  0  0  0
 12 16  1  0  0  0  0
 13 14  2  0  0  0  0
 14 17  1  0  0  0  0
 14 12  1  0  0  0  0
 16 15  2  0  0  0  0
 16 11  1  0  0  0  0
 18 20  1  6  0  0  0
 18 21  1  0  0  0  0
 18 17  1  0  0  0  0
 19 20  1  0  0  0  0
 21 22  1  0  0  0  0
 22 23  1  0  0  0  0
 25 26  1  0  0  0  0
 26 31  1  0  0  0  0
 27 30  1  0  0  0  0
 27 28  1  0  0  0  0
 28 29  2  0  0  0  0
 29 31  1  0  0  0  0
 29 32  1  0  0  0  0
 30 25  1  0  0  0  0
 31 24  1  1  0  0  0
 33 36  1  0  0  0  0
 34 33  2  0  0  0  0
 34 32  1  0  0  0  0
 36 35  2  0  0  0  0
 37 36  1  0  0  0  0
 38 41  1  0  0  0  0
 39 41  2  0  0  0  0
 40 41  1  0  0  0  0
 41 37  1  0  0  0  0
M  END
>  <MODEL>
6

>  <REMARK>
 VINA RESULT:      -5.9      1.834      2.197
  Name = 
  14 active torsions:
  status: ('A' for Active; 'I' for Inactive)
    1  A    between atoms: N_1  and  C_30
    2  A    between atoms: C_3  and  C_29
    3  A    between atoms: C_3  and  C_30
    4  A    between atoms: O_5  and  C_24
    5  A    between atoms: O_5  and  C_25
    6  A    between atoms: C_12  and  C_19
    7  A    between atoms: C_13  and  C_18
    8  A    between atoms: C_13  and  C_25
    9  A    between atoms: C_19  and  C_36
   10  A    between atoms: C_22  and  C_32
   11  A    between atoms: C_23  and  C_25
   12  A    between atoms: C_26  and  N_27
   13  A    between atoms: C_31  and  C_32
   14  A    between atoms: N_34  and  P_40
                            x       y       z     vdW  Elec       q    Type
                         _______ _______ _______ _____ _____    ______ ____

>  <TORSDO>
F 14

$$$$
=
 OpenBabel11042419553D

 41 42  0  0  1  0  0  0  0  0999 V2000
  190.4320  176.5430  145.2960 C   0  0  0  0  0  0  0  0  0  0  0  0
  191.8120  176.5990  145.0720 C   0  0  0  0  0  3  0  0  0  0  0  0
  192.2130  176.2120  147.4260 C   0  0  0  0  0  3  0  0  0  0  0  0
  190.8340  176.1580  147.6520 C   0  0  0  0  0  3  0  0  0  0  0  0
  192.7130  176.4310  146.1330 C   0  0  0  0  0  0  0  0  0  0  0  0
  189.9450  176.3250  146.5880 C   0  0  0  0  0  3  0  0  0  0  0  0
  194.1670  176.4940  145.8950 C   0  0  0  0  0  0  0  0  0  0  0  0
  194.8230  177.5100  146.2590 O   0  0  0  0  0  0  0  0  0  0  0  0
  195.7360  174.5760  146.1410 C   0  0  0  0  0  1  0  0  0  0  0  0
  194.8660  175.3750  145.1860 C   0  0  2  0  0  3  0  0  0  0  0  0
  195.6680  175.8990  144.0920 N   0  0  0  0  0  2  0  0  0  0  0  0
  196.4210  175.9140  141.7450 N   0  0  0  0  0  2  0  0  0  0  0  0
  197.2450  175.5930  139.6020 O   0  0  0  0  0  0  0  0  0  0  0  0
  196.2330  175.7040  140.3400 C   0  0  0  0  0  0  0  0  0  0  0  0
  194.7920  174.4230  142.5110 O   0  0  0  0  0  0  0  0  0  0  0  0
  195.5820  175.3730  142.7680 C   0  0  0  0  0  0  0  0  0  0  0  0
  194.9630  175.6620  139.7530 O   0  0  0  0  0  0  0  0  0  0  0  0
  194.4890  174.5570  138.9930 C   0  0  2  0  0  3  0  0  0  0  0  0
  195.6960  173.9980  136.5990 S   0  0  0  0  0  1  0  0  0  0  0  0
  194.4540  174.9450  137.5270 C   0  0  0  0  0  2  0  0  0  0  0  0
  193.0900  174.1600  139.4460 C   0  0  0  0  0  2  0  0  0  0  0  0
  192.8910  172.6590  139.3530 C   0  0  0  0  0  2  0  0  0  0  0  0
  192.8130  172.0530  140.7400 C   0  0  0  0  0  1  0  0  0  0  0  0
  189.4880  176.7580  144.1620 C   0  0  0  0  0  2  0  0  0  0  0  0
  190.0230  173.1230  143.2320 C   0  0  0  0  0  2  0  0  0  0  0  0
  189.3080  174.2690  143.9310 C   0  0  0  0  0  2  0  0  0  0  0  0
  189.5140  173.7610  140.8550 C   0  0  0  0  0  2  0  0  0  0  0  0
  188.5360  174.8900  141.0070 C   0  0  0  0  0  3  0  0  0  0  0  0
  188.5170  175.7220  142.0590 C   0  0  0  0  0  0  0  0  0  0  0  0
  189.3180  172.7150  141.9450 C   0  0  0  0  0  2  0  0  0  0  0  0
  189.5240  175.5830  143.1840 C   0  0  1  0  0  3  0  0  0  0  0  0
  187.4990  176.8220  142.0500 C   0  0  0  0  0  2  0  0  0  0  0  0
  185.5750  177.2570  143.5400 N   0  0  0  0  0  0  0  0  0  0  0  0
  186.3020  176.4230  142.8550 C   0  0  0  0  0  3  0  0  0  0  0  0
  185.9370  179.4020  142.6520 O   0  0  0  0  0  0  0  0  0  0  0  0
  185.7600  178.6760  143.6670 C   0  0  0  0  0  0  0  0  0  0  0  0
  185.7530  179.2850  144.9580 N   0  0  0  0  0  2  0  0  0  0  0  0
  185.8780  179.3410  147.7680 O   0  0  0  0  0  1  0  0  0  0  0  0
  186.5430  177.0240  146.4260 O   0  0  0  0  0  0  0  0  0  0  0  0
  184.0840  177.9040  146.5180 O   0  0  0  0  0  1  0  0  0  0  0  0
  185.5200  178.3680  146.4340 P   0  0  0  0  0  0  0  0  0  0  0  0
  1  6  1  0  0  0  0
  2  1  2  0  0  0  0
  2  5  1  0  0  0  0
  3  4  1  0  0  0  0
  5  3  2  0  0  0  0
  6  4  2  0  0  0  0
  7  5  1  0  0  0  0
  7  8  2  0  0  0  0
 10  7  1  0  0  0  0
 10  9  1  1  0  0  0
 11 10  1  0  0  0  0
 12 16  1  0  0  0  0
 13 14  2  0  0  0  0
 14 12  1  0  0  0  0
 15 16  2  0  0  0  0
 16 11  1  0  0  0  0
 17 14  1  0  0  0  0
 18 20  1  6  0  0  0
 18 21  1  0  0  0  0
 18 17  1  0  0  0  0
 19 20  1  0  0  0  0
 22 21  1  0  0  0  0
 22 23  1  0  0  0  0
 24  1  1  0  0  0  0
 25 26  1  0  0  0  0
 27 28  1  0  0  0  0
 27 30  1  0  0  0  0
 28 29  2  0  0  0  0
 29 31  1  0  0  0  0
 30 25  1  0  0  0  0
 31 26  1  0  0  0  0
 31 24  1  1  0  0  0
 32 29  1  0  0  0  0
 32 34  1  0  0  0  0
 33 36  1  0  0  0  0
 34 33  2  0  0  0  0
 35 36  2  0  0  0  0
 36 37  1  0  0  0  0
 37 41  1  0  0  0  0
 39 41  2  0  0  0  0
 41 40  1  0  0  0  0
 41 38  1  0  0  0  0
M  END
>  <MODEL>
7

>  <REMARK>
 VINA RESULT:      -5.8      2.181      2.940
  Name = 
  14 active torsions:
  status: ('A' for Active; 'I' for Inactive)
    1  A    between atoms: N_1  and  C_30
    2  A    between atoms: C_3  and  C_29
    3  A    between atoms: C_3  and  C_30
    4  A    between atoms: O_5  and  C_24
    5  A    between atoms: O_5  and  C_25
    6  A    between atoms: C_12  and  C_19
    7  A    between atoms: C_13  and  C_18
    8  A    between atoms: C_13  and  C_25
    9  A    between atoms: C_19  and  C_36
   10  A    between atoms: C_22  and  C_32
   11  A    between atoms: C_23  and  C_25
   12  A    between atoms: C_26  and  N_27
   13  A    between atoms: C_31  and  C_32
   14  A    between atoms: N_34  and  P_40
                            x       y       z     vdW  Elec       q    Type
                         _______ _______ _______ _____ _____    ______ ____

>  <TORSDO>
F 14

$$$$
=
 OpenBabel11042419553D

 41 42  0  0  1  0  0  0  0  0999 V2000
  193.3770  172.5920  142.4080 C   0  0  0  0  0  0  0  0  0  0  0  0
  192.5670  172.8930  141.3090 C   0  0  0  0  0  3  0  0  0  0  0  0
  190.6770  173.2130  142.7830 C   0  0  0  0  0  3  0  0  0  0  0  0
  191.4850  172.9110  143.8840 C   0  0  0  0  0  3  0  0  0  0  0  0
  191.2130  173.2090  141.4870 C   0  0  0  0  0  0  0  0  0  0  0  0
  192.8330  172.5980  143.6960 C   0  0  0  0  0  3  0  0  0  0  0  0
  190.3590  173.5220  140.3250 C   0  0  0  0  0  0  0  0  0  0  0  0
  190.8840  173.7850  139.2080 O   0  0  0  0  0  0  0  0  0  0  0  0
  188.1820  172.7500  139.3970 C   0  0  0  0  0  1  0  0  0  0  0  0
  188.8690  173.5700  140.4750 C   0  0  2  0  0  3  0  0  0  0  0  0
  188.4060  174.9480  140.4330 N   0  0  0  0  0  2  0  0  0  0  0  0
  187.3930  176.9460  141.4590 N   0  0  0  0  0  2  0  0  0  0  0  0
  186.1490  178.6180  142.4750 O   0  0  0  0  0  0  0  0  0  0  0  0
  187.1090  177.8110  142.5660 C   0  0  0  0  0  0  0  0  0  0  0  0
  187.7610  174.9840  142.6740 O   0  0  0  0  0  0  0  0  0  0  0  0
  187.8580  175.6000  141.5770 C   0  0  0  0  0  0  0  0  0  0  0  0
  187.8890  177.8200  143.7280 O   0  0  0  0  0  0  0  0  0  0  0  0
  187.3370  177.8320  145.0400 C   0  0  2  0  0  3  0  0  0  0  0  0
  188.6900  175.7460  146.1900 S   0  0  0  0  0  1  0  0  0  0  0  0
  188.4400  177.5390  146.0410 C   0  0  0  0  0  2  0  0  0  0  0  0
  186.2440  176.7790  145.1670 C   0  0  0  0  0  2  0  0  0  0  0  0
  185.1690  177.2220  146.1390 C   0  0  0  0  0  2  0  0  0  0  0  0
  184.6300  178.5820  145.7420 C   0  0  0  0  0  1  0  0  0  0  0  0
  194.8070  172.2250  142.1970 C   0  0  0  0  0  2  0  0  0  0  0  0
  195.9800  169.8330  144.8930 C   0  0  0  0  0  2  0  0  0  0  0  0
  195.9850  170.4340  143.4950 C   0  0  0  0  0  2  0  0  0  0  0  0
  196.8210  171.8340  146.1600 C   0  0  0  0  0  2  0  0  0  0  0  0
  197.2100  172.7900  145.0690 C   0  0  0  0  0  3  0  0  0  0  0  0
  196.6260  172.8200  143.8620 C   0  0  0  0  0  0  0  0  0  0  0  0
  197.1050  170.3930  145.7540 C   0  0  0  0  0  2  0  0  0  0  0  0
  195.4880  171.8780  143.5200 C   0  0  1  0  0  3  0  0  0  0  0  0
  197.1050  173.8550  142.8890 C   0  0  0  0  0  2  0  0  0  0  0  0
  196.2710  176.1010  143.4980 N   0  0  0  0  0  0  0  0  0  0  0  0
  197.1970  175.1890  143.5610 C   0  0  0  0  0  3  0  0  0  0  0  0
  194.9810  175.9450  141.5400 O   0  0  0  0  0  0  0  0  0  0  0  0
  195.0190  176.0260  142.7970 C   0  0  0  0  0  0  0  0  0  0  0  0
  193.7900  176.0510  143.5240 N   0  0  0  0  0  2  0  0  0  0  0  0
  194.5700  177.5440  145.7770 O   0  0  0  0  0  1  0  0  0  0  0  0
  194.4400  174.7930  145.9510 O   0  0  0  0  0  1  0  0  0  0  0  0
  192.2900  176.2620  145.7220 O   0  0  0  0  0  0  0  0  0  0  0  0
  193.7300  176.1680  145.2720 P   0  0  0  0  0  0  0  0  0  0  0  0
  1  6  1  0  0  0  0
  2  5  1  0  0  0  0
  2  1  2  0  0  0  0
  3  4  1  0  0  0  0
  5  3  2  0  0  0  0
  6  4  2  0  0  0  0
  7 10  1  0  0  0  0
  7  5  1  0  0  0  0
  8  7  2  0  0  0  0
 10  9  1  6  0  0  0
 11 10  1  0  0  0  0
 11 16  1  0  0  0  0
 12 16  1  0  0  0  0
 12 14  1  0  0  0  0
 13 14  2  0  0  0  0
 14 17  1  0  0  0  0
 16 15  2  0  0  0  0
 17 18  1  0  0  0  0
 18 21  1  6  0  0  0
 18 20  1  0  0  0  0
 20 19  1  0  0  0  0
 21 22  1  0  0  0  0
 23 22  1  0  0  0  0
 24  1  1  0  0  0  0
 25 30  1  0  0  0  0
 26 31  1  0  0  0  0
 26 25  1  0  0  0  0
 28 27  1  0  0  0  0
 29 28  2  0  0  0  0
 30 27  1  0  0  0  0
 31 24  1  6  0  0  0
 31 29  1  0  0  0  0
 32 34  1  0  0  0  0
 32 29  1  0  0  0  0
 33 34  2  0  0  0  0
 35 36  2  0  0  0  0
 36 33  1  0  0  0  0
 36 37  1  0  0  0  0
 37 41  1  0  0  0  0
 41 40  2  0  0  0  0
 41 38  1  0  0  0  0
 41 39  1  0  0  0  0
M  END
>  <MODEL>
8

>  <REMARK>
 VINA RESULT:      -5.8      3.373      8.155
  Name = 
  14 active torsions:
  status: ('A' for Active; 'I' for Inactive)
    1  A    between atoms: N_1  and  C_30
    2  A    between atoms: C_3  and  C_29
    3  A    between atoms: C_3  and  C_30
    4  A    between atoms: O_5  and  C_24
    5  A    between atoms: O_5  and  C_25
    6  A    between atoms: C_12  and  C_19
    7  A    between atoms: C_13  and  C_18
    8  A    between atoms: C_13  and  C_25
    9  A    between atoms: C_19  and  C_36
   10  A    between atoms: C_22  and  C_32
   11  A    between atoms: C_23  and  C_25
   12  A    between atoms: C_26  and  N_27
   13  A    between atoms: C_31  and  C_32
   14  A    between atoms: N_34  and  P_40
                            x       y       z     vdW  Elec       q    Type
                         _______ _______ _______ _____ _____    ______ ____

>  <TORSDO>
F 14

$$$$
=
 OpenBabel11042419553D

 41 42  0  0  1  0  0  0  0  0999 V2000
  193.6490  175.2220  143.6400 C   0  0  0  0  0  0  0  0  0  0  0  0
  194.0360  174.1130  144.4000 C   0  0  0  0  0  3  0  0  0  0  0  0
  196.3610  174.6340  143.9840 C   0  0  0  0  0  3  0  0  0  0  0  0
  195.9760  175.7420  143.2230 C   0  0  0  0  0  3  0  0  0  0  0  0
  195.3940  173.8120  144.5820 C   0  0  0  0  0  0  0  0  0  0  0  0
  194.6220  176.0350  143.0490 C   0  0  0  0  0  3  0  0  0  0  0  0
  195.7990  172.6400  145.3790 C   0  0  0  0  0  0  0  0  0  0  0  0
  196.8430  172.6880  146.0870 O   0  0  0  0  0  0  0  0  0  0  0  0
  195.6800  170.2580  146.0930 C   0  0  0  0  0  1  0  0  0  0  0  0
  194.9990  171.3750  145.3220 C   0  0  2  0  0  3  0  0  0  0  0  0
  194.7880  170.9780  143.9400 N   0  0  0  0  0  2  0  0  0  0  0  0
  193.4640  169.9330  142.1430 N   0  0  0  0  0  2  0  0  0  0  0  0
  192.2470  168.6460  140.6460 O   0  0  0  0  0  0  0  0  0  0  0  0
  192.2320  169.5530  141.5160 C   0  0  0  0  0  0  0  0  0  0  0  0
  192.6770  170.0690  144.3390 O   0  0  0  0  0  0  0  0  0  0  0  0
  193.5940  170.3230  143.5110 C   0  0  0  0  0  0  0  0  0  0  0  0
  191.0180  170.1870  141.8080 O   0  0  0  0  0  0  0  0  0  0  0  0
  190.6070  171.4070  141.2010 C   0  0  2  0  0  3  0  0  0  0  0  0
  191.0430  171.6690  138.5100 S   0  0  0  0  0  1  0  0  0  0  0  0
  191.6670  171.8440  140.2070 C   0  0  0  0  0  2  0  0  0  0  0  0
  190.4230  172.4900  142.2560 C   0  0  0  0  0  2  0  0  0  0  0  0
  189.3080  172.1310  143.2190 C   0  0  0  0  0  2  0  0  0  0  0  0
  189.8480  172.0300  144.6310 C   0  0  0  0  0  1  0  0  0  0  0  0
  192.2010  175.5070  143.4300 C   0  0  0  0  0  2  0  0  0  0  0  0
  191.8170  175.8720  147.1830 C   0  0  0  0  0  2  0  0  0  0  0  0
  192.0090  176.3930  145.7660 C   0  0  0  0  0  2  0  0  0  0  0  0
  189.4890  174.9590  146.9320 C   0  0  0  0  0  2  0  0  0  0  0  0
  189.0770  175.4440  145.5720 C   0  0  0  0  0  3  0  0  0  0  0  0
  189.9390  175.6680  144.5690 C   0  0  0  0  0  0  0  0  0  0  0  0
  190.3670  175.9850  147.6370 C   0  0  0  0  0  2  0  0  0  0  0  0
  191.4250  175.4200  144.7440 C   0  0  1  0  0  3  0  0  0  0  0  0
  189.3700  176.1210  143.2580 C   0  0  0  0  0  2  0  0  0  0  0  0
  187.0440  176.2090  142.4260 N   0  0  0  0  0  0  0  0  0  0  0  0
  187.9780  175.5970  143.0930 C   0  0  0  0  0  3  0  0  0  0  0  0
  187.6690  177.5450  140.5970 O   0  0  0  0  0  0  0  0  0  0  0  0
  187.1440  177.4670  141.7400 C   0  0  0  0  0  0  0  0  0  0  0  0
  186.6510  178.6580  142.3550 N   0  0  0  0  0  2  0  0  0  0  0  0
  185.2620  180.1910  144.2610 O   0  0  0  0  0  1  0  0  0  0  0  0
  187.0740  178.2910  145.1080 O   0  0  0  0  0  1  0  0  0  0  0  0
  184.8080  177.6290  143.9880 O   0  0  0  0  0  0  0  0  0  0  0  0
  185.9090  178.6630  143.9430 P   0  0  0  0  0  0  0  0  0  0  0  0
  1  2  1  0  0  0  0
  2  5  2  0  0  0  0
  3  5  1  0  0  0  0
  4  3  2  0  0  0  0
  5  7  1  0  0  0  0
  6  4  1  0  0  0  0
  6  1  2  0  0  0  0
  7  8  2  0  0  0  0
 10  7  1  0  0  0  0
 10  9  1  1  0  0  0
 11 10  1  0  0  0  0
 12 16  1  0  0  0  0
 13 14  2  0  0  0  0
 14 17  1  0  0  0  0
 14 12  1  0  0  0  0
 16 11  1  0  0  0  0
 16 15  2  0  0  0  0
 18 20  1  6  0  0  0
 18 17  1  0  0  0  0
 18 21  1  0  0  0  0
 19 20  1  0  0  0  0
 21 22  1  0  0  0  0
 22 23  1  0  0  0  0
 24  1  1  0  0  0  0
 25 30  1  0  0  0  0
 26 25  1  0  0  0  0
 27 30  1  0  0  0  0
 28 27  1  0  0  0  0
 29 31  1  0  0  0  0
 29 28  2  0  0  0  0
 31 24  1  6  0  0  0
 31 26  1  0  0  0  0
 32 29  1  0  0  0  0
 33 34  2  0  0  0  0
 34 32  1  0  0  0  0
 35 36  2  0  0  0  0
 36 37  1  0  0  0  0
 36 33  1  0  0  0  0
 37 41  1  0  0  0  0
 41 40  2  0  0  0  0
 41 38  1  0  0  0  0
 41 39  1  0  0  0  0
M  END
>  <MODEL>
9

>  <REMARK>
 VINA RESULT:      -5.7      2.409      3.613
  Name = 
  14 active torsions:
  status: ('A' for Active; 'I' for Inactive)
    1  A    between atoms: N_1  and  C_30
    2  A    between atoms: C_3  and  C_29
    3  A    between atoms: C_3  and  C_30
    4  A    between atoms: O_5  and  C_24
    5  A    between atoms: O_5  and  C_25
    6  A    between atoms: C_12  and  C_19
    7  A    between atoms: C_13  and  C_18
    8  A    between atoms: C_13  and  C_25
    9  A    between atoms: C_19  and  C_36
   10  A    between atoms: C_22  and  C_32
   11  A    between atoms: C_23  and  C_25
   12  A    between atoms: C_26  and  N_27
   13  A    between atoms: C_31  and  C_32
   14  A    between atoms: N_34  and  P_40
                            x       y       z     vdW  Elec       q    Type
                         _______ _______ _______ _____ _____    ______ ____

>  <TORSDO>
F 14

$$$$
