=
 OpenBabel11042418163D

 68 75  0  0  1  0  0  0  0  0999 V2000
  190.4800  176.6530  146.3830 C   0  0  0  0  0  0  0  0  0  0  0  0
  189.8250  177.4760  147.3720 N   0  0  0  0  0  0  0  0  0  0  0  0
  188.3480  174.9770  140.4080 C   0  0  1  0  0  3  0  0  0  0  0  0
  189.8060  175.4590  143.0230 C   0  0  0  0  0  2  0  0  0  0  0  0
  186.1000  178.3480  144.5340 O   0  0  0  0  0  0  0  0  0  0  0  0
  194.6990  171.0720  142.0260 C   0  0  1  0  0  3  0  0  0  0  0  0
  192.4730  171.0870  140.8840 C   0  0  1  0  0  3  0  0  0  0  0  0
  193.3380  171.0900  139.6930 N   0  0  0  0  0  0  0  0  0  0  0  0
  186.6560  177.5980  143.4870 C   0  0  0  0  0  0  0  0  0  0  0  0
  194.0790  173.8950  145.6730 C   0  0  0  0  0  2  0  0  0  0  0  0
  194.5170  171.9570  139.6300 C   0  0  0  0  0  2  0  0  0  0  0  0
  187.8030  175.8990  141.4600 C   0  0  0  0  0  0  0  0  0  0  0  0
  188.7450  176.4420  142.5090 C   0  0  1  0  0  3  0  0  0  0  0  0
  195.4180  171.7670  140.8640 C   0  0  0  0  0  2  0  0  0  0  0  0
  187.9550  177.8790  145.9600 C   0  0  0  0  0  0  0  0  0  0  0  0
  190.5740  176.0880  144.0300 O   0  0  0  0  0  0  0  0  0  0  0  0
  193.3740  170.6820  137.2410 N   0  0  0  0  0  2  0  0  0  0  0  0
  195.4930  171.1220  143.3400 C   0  0  0  0  0  2  0  0  0  0  0  0
  188.0020  177.0480  143.6670 C   0  0  0  0  0  0  0  0  0  0  0  0
  189.7380  176.2080  145.1590 C   0  0  2  0  0  3  0  0  0  0  0  0
  188.2330  172.4780  140.3530 C   0  0  0  0  0  2  0  0  0  0  0  0
  193.2400  171.5070  142.1400 C   0  0  0  0  0  2  0  0  0  0  0  0
  192.5640  175.2480  147.0550 C   0  0  0  0  0  3  0  0  0  0  0  0
  186.7700  178.4880  145.7680 C   0  0  0  0  0  0  0  0  0  0  0  0
  197.2850  173.4990  145.6650 C   0  0  0  0  0  2  0  0  0  0  0  0
  188.6830  178.0200  147.1870 N   0  0  0  0  0  0  0  0  0  0  0  0
  197.6800  174.3610  144.4510 C   0  0  0  0  0  2  0  0  0  0  0  0
  196.5790  172.2060  145.2450 C   0  0  0  0  0  2  0  0  0  0  0  0
  188.5660  177.1040  144.8730 C   0  0  0  0  0  0  0  0  0  0  0  0
  190.2270  171.3750  139.8160 C   0  0  0  0  0  2  0  0  0  0  0  0
  197.2920  173.7870  143.2210 O   0  0  0  0  0  0  0  0  0  0  0  0
  185.9620  177.2820  142.3840 C   0  0  0  0  0  0  0  0  0  0  0  0
  192.3180  169.2230  138.7220 O   0  0  0  0  0  0  0  0  0  0  0  0
  195.8980  173.6290  143.2670 C   0  0  0  0  0  2  0  0  0  0  0  0
  192.7470  173.9290  146.3910 C   0  0  0  0  0  2  0  0  0  0  0  0
  186.5390  176.3590  141.3780 C   0  0  0  0  0  3  0  0  0  0  0  0
  192.9860  170.2810  138.5580 C   0  0  0  0  0  0  0  0  0  0  0  0
  189.2810  172.3720  139.3500 N   0  0  0  0  0  2  0  0  0  0  0  0
  187.4470  173.7710  140.1590 C   0  0  0  0  0  2  0  0  0  0  0  0
  191.5350  175.9740  146.7330 C   0  0  0  0  0  0  0  0  0  0  0  0
  195.5180  172.4280  144.1540 C   0  0  1  0  0  0  0  0  0  0  0  0
  194.1440  172.6400  144.8050 C   0  0  0  0  0  2  0  0  0  0  0  0
  191.2910  172.0280  140.6880 C   0  0  0  0  0  2  0  0  0  0  0  0
  188.6590  175.7130  139.1180 C   0  0  0  0  0  2  0  0  0  0  0  0
  187.7290  175.2810  138.0850 N   0  0  0  0  0  1  0  0  0  0  0  0
  185.0240  178.7990  147.5410 C   0  0  0  0  0  1  0  0  0  0  0  0
  186.1880  179.2680  146.8110 N   0  0  0  0  0  2  0  0  0  0  0  0
  183.4370  177.9920  142.0920 C   0  0  0  0  0  0  0  0  0  0  0  0
  184.5830  177.6660  142.2510 C   0  0  0  0  0  0  0  0  0  0  0  0
  182.0490  178.3970  141.8760 C   0  0  0  0  0  2  0  0  0  0  0  0
  181.5100  177.7530  140.6160 C   0  0  0  0  0  2  0  0  0  0  0  0
  180.5050  178.5550  140.0760 O   0  0  0  0  0  0  0  0  0  0  0  0
  179.3140  177.8430  140.2610 C   0  0  1  0  0  3  0  0  0  0  0  0
  178.2240  178.7590  140.8320 C   0  0  1  0  0  3  0  0  0  0  0  0
  178.6150  179.2670  142.0710 O   0  0  0  0  0  1  0  0  0  0  0  0
  177.8130  179.9000  139.8950 C   0  0  0  0  0  2  0  0  0  0  0  0
  179.0310  182.1140  139.7890 C   0  0  0  0  0  3  0  0  0  0  0  0
  179.4380  181.8890  138.6180 O   0  0  0  0  0  0  0  0  0  0  0  0
  178.1540  181.2010  140.4500 N   0  0  0  0  0  2  0  0  0  0  0  0
  178.8770  177.1930  138.9490 C   0  0  0  0  0  2  0  0  0  0  0  0
  177.7650  176.1780  139.1620 C   0  0  0  0  0  2  0  0  0  0  0  0
  177.7670  175.2410  138.1270 O   0  0  0  0  0  0  0  0  0  0  0  0
  179.5560  173.8040  137.5780 C   0  0  0  0  0  2  0  0  0  0  0  0
  179.0800  175.2360  137.6600 C   0  0  0  0  0  3  0  0  0  0  0  0
  179.1440  174.5290  136.3170 C   0  0  0  0  0  2  0  0  0  0  0  0
  192.9350  169.9400  136.0670 C   0  0  0  0  0  2  0  0  0  0  0  0
  194.1380  169.4870  135.2510 C   0  0  0  0  0  2  0  0  0  0  0  0
  195.2890  169.0930  136.1600 C   0  0  0  0  0  1  0  0  0  0  0  0
  1 40  2  0  0  0  0
  1  2  1  0  0  0  0
  3 44  1  6  0  0  0
  3 12  1  0  0  0  0
  4 16  1  0  0  0  0
  5 24  1  0  0  0  0
  6 14  1  6  0  0  0
  6 22  1  0  0  0  0
  6 18  1  0  0  0  0
  7 43  1  6  0  0  0
  7 22  1  0  0  0  0
  8  7  1  0  0  0  0
  9 19  1  0  0  0  0
  9  5  1  0  0  0  0
 10 35  1  0  0  0  0
 11  8  1  0  0  0  0
 11 14  1  0  0  0  0
 12 13  1  0  0  0  0
 13  4  1  1  0  0  0
 13 19  1  0  0  0  0
 15 26  1  0  0  0  0
 17 37  1  0  0  0  0
 18 41  1  0  0  0  0
 19 29  2  0  0  0  0
 20 16  1  6  0  0  0
 20  1  1  0  0  0  0
 24 15  2  0  0  0  0
 24 47  1  0  0  0  0
 26  2  2  0  0  0  0
 27 25  1  0  0  0  0
 28 25  1  0  0  0  0
 29 20  1  0  0  0  0
 29 15  1  0  0  0  0
 30 43  1  0  0  0  0
 31 34  1  0  0  0  0
 31 27  1  0  0  0  0
 32  9  2  0  0  0  0
 35 23  1  0  0  0  0
 36 12  2  0  0  0  0
 36 32  1  0  0  0  0
 37 33  2  0  0  0  0
 37  8  1  0  0  0  0
 38 30  1  0  0  0  0
 38 21  1  0  0  0  0
 39 21  1  0  0  0  0
 39  3  1  0  0  0  0
 40 23  2  0  0  0  0
 41 34  1  6  0  0  0
 41 42  1  0  0  0  0
 41 28  1  0  0  0  0
 42 10  1  0  0  0  0
 45 44  1  0  0  0  0
 47 46  1  0  0  0  0
 48 49  3  0  0  0  0
 49 32  1  0  0  0  0
 50 48  1  0  0  0  0
 51 50  1  0  0  0  0
 52 53  1  0  0  0  0
 52 51  1  0  0  0  0
 53 60  1  6  0  0  0
 53 54  1  0  0  0  0
 54 55  1  1  0  0  0
 56 59  1  0  0  0  0
 56 54  1  0  0  0  0
 57 59  1  0  0  0  0
 58 57  2  0  0  0  0
 60 61  1  0  0  0  0
 62 61  1  0  0  0  0
 63 64  1  0  0  0  0
 64 62  1  0  0  0  0
 65 63  1  0  0  0  0
 65 64  1  0  0  0  0
 66 17  1  0  0  0  0
 67 66  1  0  0  0  0
 67 68  1  0  0  0  0
M  END
>  <MODEL>
1

>  <REMARK>
 VINA RESULT:      -5.5      0.000      0.000
  Name = 
  16 active torsions:
  status: ('A' for Active; 'I' for Inactive)
    1  A    between atoms: C_2  and  C_13
    2  A    between atoms: C_2  and  N_56
    3  A    between atoms: C_5  and  C_54
    4  A    between atoms: O_9  and  C_39
    5  A    between atoms: O_9  and  C_68
    6  A    between atoms: C_13  and  C_68
    7  A    between atoms: C_21  and  O_46
    8  A    between atoms: N_23  and  C_29
    9  A    between atoms: C_29  and  C_45
   10  A    between atoms: C_32  and  N_64
   11  A    between atoms: C_39  and  C_52
   12  A    between atoms: C_41  and  C_52
   13  A    between atoms: C_44  and  C_55
   14  A    between atoms: O_46  and  C_53
   15  A    between atoms: C_53  and  C_61
   16  A    between atoms: C_61  and  C_68
                            x       y       z     vdW  Elec       q    Type
                         _______ _______ _______ _____ _____    ______ ____

>  <TORSDO>
F 16

$$$$
=
 OpenBabel11042418163D

 68 75  0  0  1  0  0  0  0  0999 V2000
  190.0070  173.8760  135.4310 C   0  0  0  0  0  0  0  0  0  0  0  0
  189.0330  174.4230  134.5160 N   0  0  0  0  0  0  0  0  0  0  0  0
  190.1170  174.2530  141.9800 C   0  0  1  0  0  3  0  0  0  0  0  0
  190.5380  173.7570  139.0190 C   0  0  0  0  0  2  0  0  0  0  0  0
  186.3360  176.1540  138.0400 O   0  0  0  0  0  0  0  0  0  0  0  0
  196.6500  171.1900  139.5040 C   0  0  1  0  0  3  0  0  0  0  0  0
  195.5160  172.6350  141.2020 C   0  0  1  0  0  3  0  0  0  0  0  0
  195.8520  171.4920  142.0660 N   0  0  0  0  0  0  0  0  0  0  0  0
  187.1960  175.6390  139.0210 C   0  0  0  0  0  0  0  0  0  0  0  0
  194.0920  171.7960  135.6640 C   0  0  0  0  0  2  0  0  0  0  0  0
  195.6440  170.1180  141.6010 C   0  0  0  0  0  2  0  0  0  0  0  0
  189.1120  174.6880  140.9540 C   0  0  0  0  0  0  0  0  0  0  0  0
  189.1420  174.0430  139.5890 C   0  0  1  0  0  3  0  0  0  0  0  0
  196.3100  169.8850  140.2330 C   0  0  0  0  0  2  0  0  0  0  0  0
  187.7100  175.3110  136.2800 C   0  0  0  0  0  0  0  0  0  0  0  0
  190.4090  173.2060  137.7230 O   0  0  0  0  0  0  0  0  0  0  0  0
  196.0820  170.7680  144.4340 N   0  0  0  0  0  2  0  0  0  0  0  0
  197.0610  170.9710  138.0400 C   0  0  0  0  0  2  0  0  0  0  0  0
  188.3270  174.8140  138.5890 C   0  0  0  0  0  0  0  0  0  0  0  0
  189.9750  174.2510  136.8820 C   0  0  2  0  0  3  0  0  0  0  0  0
  192.2560  175.3910  142.6060 C   0  0  0  0  0  2  0  0  0  0  0  0
  195.5840  172.2610  139.7190 C   0  0  0  0  0  2  0  0  0  0  0  0
  192.2680  172.9740  134.5130 C   0  0  0  0  0  3  0  0  0  0  0  0
  186.6030  175.9720  136.6660 C   0  0  0  0  0  0  0  0  0  0  0  0
  195.9560  169.2900  134.8420 C   0  0  0  0  0  2  0  0  0  0  0  0
  188.0040  175.0780  134.8970 N   0  0  0  0  0  0  0  0  0  0  0  0
  195.3130  168.1660  135.6760 C   0  0  0  0  0  2  0  0  0  0  0  0
  196.7340  170.2790  135.7160 C   0  0  0  0  0  2  0  0  0  0  0  0
  188.6160  174.7470  137.2890 C   0  0  0  0  0  0  0  0  0  0  0  0
  194.1370  174.0070  142.7770 C   0  0  0  0  0  2  0  0  0  0  0  0
  195.5610  168.2980  137.0590 O   0  0  0  0  0  0  0  0  0  0  0  0
  187.0800  175.9610  140.3180 C   0  0  0  0  0  0  0  0  0  0  0  0
  196.9530  172.7910  143.6690 O   0  0  0  0  0  0  0  0  0  0  0  0
  195.0440  169.5430  137.4480 C   0  0  0  0  0  2  0  0  0  0  0  0
  193.4750  173.1460  135.3670 C   0  0  0  0  0  2  0  0  0  0  0  0
  188.1050  175.5170  141.2920 C   0  0  0  0  0  3  0  0  0  0  0  0
  196.3290  171.7280  143.4010 C   0  0  0  0  0  0  0  0  0  0  0  0
  192.7850  174.2080  143.2670 N   0  0  0  0  0  2  0  0  0  0  0  0
  190.7360  175.4280  142.7320 C   0  0  0  0  0  2  0  0  0  0  0  0
  191.1240  173.4090  134.9500 C   0  0  0  0  0  0  0  0  0  0  0  0
  195.9720  170.6840  136.9900 C   0  0  1  0  0  0  0  0  0  0  0  0
  195.1750  171.9690  136.7280 C   0  0  0  0  0  2  0  0  0  0  0  0
  194.1180  173.1510  141.5180 C   0  0  0  0  0  2  0  0  0  0  0  0
  189.5410  173.2250  142.9360 C   0  0  0  0  0  2  0  0  0  0  0  0
  189.9140  173.5780  144.2990 N   0  0  0  0  0  1  0  0  0  0  0  0
  184.3650  175.9540  135.5350 C   0  0  0  0  0  1  0  0  0  0  0  0
  185.7040  176.4950  135.6900 N   0  0  0  0  0  2  0  0  0  0  0  0
  185.2150  177.6600  141.0930 C   0  0  0  0  0  0  0  0  0  0  0  0
  186.0820  176.9000  140.7520 C   0  0  0  0  0  0  0  0  0  0  0  0
  184.1440  178.5740  141.4890 C   0  0  0  0  0  2  0  0  0  0  0  0
  182.8820  178.2620  140.7130 C   0  0  0  0  0  2  0  0  0  0  0  0
  181.8460  177.9760  141.6020 O   0  0  0  0  0  0  0  0  0  0  0  0
  180.6750  178.4030  140.9660 C   0  0  1  0  0  3  0  0  0  0  0  0
  179.4430  177.7830  141.6370 C   0  0  1  0  0  3  0  0  0  0  0  0
  179.0020  178.5910  142.6850 O   0  0  0  0  0  1  0  0  0  0  0  0
  178.2900  177.4850  140.6740 C   0  0  0  0  0  2  0  0  0  0  0  0
  178.4880  177.2240  138.1660 C   0  0  0  0  0  3  0  0  0  0  0  0
  177.9720  178.3550  137.9590 O   0  0  0  0  0  0  0  0  0  0  0  0
  178.7470  176.7660  139.4940 N   0  0  0  0  0  2  0  0  0  0  0  0
  180.6050  179.9300  140.9550 C   0  0  0  0  0  2  0  0  0  0  0  0
  179.5120  180.4410  140.0310 C   0  0  0  0  0  2  0  0  0  0  0  0
  179.4250  181.8320  140.1140 O   0  0  0  0  0  0  0  0  0  0  0  0
  178.0940  182.0950  138.1840 C   0  0  0  0  0  2  0  0  0  0  0  0
  179.4670  182.2670  138.7910 C   0  0  0  0  0  3  0  0  0  0  0  0
  178.5560  183.4690  138.6170 C   0  0  0  0  0  2  0  0  0  0  0  0
  196.4570  171.0350  145.8160 C   0  0  0  0  0  2  0  0  0  0  0  0
  195.4430  170.4120  146.7660 C   0  0  0  0  0  2  0  0  0  0  0  0
  194.7430  169.2340  146.1090 C   0  0  0  0  0  1  0  0  0  0  0  0
  2 26  2  0  0  0  0
  2  1  1  0  0  0  0
  3 39  1  0  0  0  0
  3 44  1  1  0  0  0
  5  9  1  0  0  0  0
  6 18  1  6  0  0  0
  6 22  1  0  0  0  0
  6 14  1  0  0  0  0
  7 22  1  6  0  0  0
  7 43  1  0  0  0  0
  7  8  1  0  0  0  0
  8 37  1  0  0  0  0
  9 32  2  0  0  0  0
 10 42  1  0  0  0  0
 11  8  1  0  0  0  0
 12 36  2  0  0  0  0
 12  3  1  0  0  0  0
 13  4  1  6  0  0  0
 13 12  1  0  0  0  0
 14 11  1  0  0  0  0
 15 24  2  0  0  0  0
 15 29  1  0  0  0  0
 16  4  1  0  0  0  0
 17 66  1  0  0  0  0
 19  9  1  0  0  0  0
 19 13  1  0  0  0  0
 20  1  1  6  0  0  0
 20 29  1  0  0  0  0
 20 16  1  0  0  0  0
 21 39  1  0  0  0  0
 21 38  1  0  0  0  0
 23 40  2  0  0  0  0
 23 35  1  0  0  0  0
 24  5  1  0  0  0  0
 25 27  1  0  0  0  0
 25 28  1  0  0  0  0
 26 15  1  0  0  0  0
 27 31  1  0  0  0  0
 29 19  2  0  0  0  0
 30 38  1  0  0  0  0
 31 34  1  0  0  0  0
 32 49  1  0  0  0  0
 32 36  1  0  0  0  0
 35 10  1  0  0  0  0
 37 33  2  0  0  0  0
 37 17  1  0  0  0  0
 40  1  2  0  0  0  0
 41 28  1  6  0  0  0
 41 34  1  0  0  0  0
 41 18  1  0  0  0  0
 42 41  1  0  0  0  0
 43 30  1  0  0  0  0
 44 45  1  0  0  0  0
 46 47  1  0  0  0  0
 47 24  1  0  0  0  0
 48 50  1  0  0  0  0
 49 48  3  0  0  0  0
 51 50  1  0  0  0  0
 51 52  1  0  0  0  0
 53 60  1  1  0  0  0
 53 52  1  0  0  0  0
 53 54  1  0  0  0  0
 54 55  1  1  0  0  0
 56 54  1  0  0  0  0
 57 59  1  0  0  0  0
 58 57  2  0  0  0  0
 59 56  1  0  0  0  0
 61 62  1  0  0  0  0
 61 60  1  0  0  0  0
 63 65  1  0  0  0  0
 63 64  1  0  0  0  0
 64 62  1  0  0  0  0
 65 64  1  0  0  0  0
 66 67  1  0  0  0  0
 68 67  1  0  0  0  0
M  END
>  <MODEL>
2

>  <REMARK>
 VINA RESULT:      -4.9      3.087      7.252
  Name = 
  16 active torsions:
  status: ('A' for Active; 'I' for Inactive)
    1  A    between atoms: C_2  and  C_13
    2  A    between atoms: C_2  and  N_56
    3  A    between atoms: C_5  and  C_54
    4  A    between atoms: O_9  and  C_39
    5  A    between atoms: O_9  and  C_68
    6  A    between atoms: C_13  and  C_68
    7  A    between atoms: C_21  and  O_46
    8  A    between atoms: N_23  and  C_29
    9  A    between atoms: C_29  and  C_45
   10  A    between atoms: C_32  and  N_64
   11  A    between atoms: C_39  and  C_52
   12  A    between atoms: C_41  and  C_52
   13  A    between atoms: C_44  and  C_55
   14  A    between atoms: O_46  and  C_53
   15  A    between atoms: C_53  and  C_61
   16  A    between atoms: C_61  and  C_68
                            x       y       z     vdW  Elec       q    Type
                         _______ _______ _______ _____ _____    ______ ____

>  <TORSDO>
F 16

$$$$
=
 OpenBabel11042418163D

 68 75  0  0  1  0  0  0  0  0999 V2000
  189.9820  173.8700  135.4480 C   0  0  0  0  0  0  0  0  0  0  0  0
  189.0160  174.3980  134.5150 N   0  0  0  0  0  0  0  0  0  0  0  0
  190.0340  174.3770  141.9900 C   0  0  1  0  0  3  0  0  0  0  0  0
  190.4810  173.8230  139.0430 C   0  0  0  0  0  2  0  0  0  0  0  0
  186.2870  176.1980  137.9790 O   0  0  0  0  0  0  0  0  0  0  0  0
  196.5890  171.2670  139.6320 C   0  0  1  0  0  3  0  0  0  0  0  0
  195.4390  172.7460  141.2910 C   0  0  1  0  0  3  0  0  0  0  0  0
  195.7680  171.6200  142.1810 N   0  0  0  0  0  0  0  0  0  0  0  0
  187.1390  175.7030  138.9780 C   0  0  0  0  0  0  0  0  0  0  0  0
  194.0650  171.7960  135.7590 C   0  0  0  0  0  2  0  0  0  0  0  0
  195.5640  170.2370  141.7410 C   0  0  0  0  0  2  0  0  0  0  0  0
  189.0370  174.7920  140.9460 C   0  0  0  0  0  0  0  0  0  0  0  0
  189.0800  174.1190  139.5940 C   0  0  1  0  0  3  0  0  0  0  0  0
  196.2430  169.9770  140.3840 C   0  0  0  0  0  2  0  0  0  0  0  0
  187.6770  175.3210  136.2490 C   0  0  0  0  0  0  0  0  0  0  0  0
  190.3640  173.2460  137.7570 O   0  0  0  0  0  0  0  0  0  0  0  0
  195.9770  170.9440  144.5640 N   0  0  0  0  0  2  0  0  0  0  0  0
  197.0120  171.0190  138.1760 C   0  0  0  0  0  2  0  0  0  0  0  0
  188.2730  174.8700  138.5720 C   0  0  0  0  0  0  0  0  0  0  0  0
  189.9370  174.2740  136.8910 C   0  0  2  0  0  3  0  0  0  0  0  0
  192.1670  175.5280  142.6120 C   0  0  0  0  0  2  0  0  0  0  0  0
  195.5210  172.3420  139.8170 C   0  0  0  0  0  2  0  0  0  0  0  0
  192.2510  172.9500  134.5690 C   0  0  0  0  0  3  0  0  0  0  0  0
  186.5660  175.9900  136.6110 C   0  0  0  0  0  0  0  0  0  0  0  0
  195.9360  169.2740  135.0030 C   0  0  0  0  0  2  0  0  0  0  0  0
  187.9830  175.0610  134.8730 N   0  0  0  0  0  0  0  0  0  0  0  0
  195.2860  168.1670  135.8540 C   0  0  0  0  0  2  0  0  0  0  0  0
  196.7060  170.2810  135.8640 C   0  0  0  0  0  2  0  0  0  0  0  0
  188.5750  174.7770  137.2760 C   0  0  0  0  0  0  0  0  0  0  0  0
  194.0460  174.1480  142.8270 C   0  0  0  0  0  2  0  0  0  0  0  0
  195.5210  168.3270  137.2360 O   0  0  0  0  0  0  0  0  0  0  0  0
  187.0120  176.0520  140.2670 C   0  0  0  0  0  0  0  0  0  0  0  0
  196.8550  172.9510  143.7670 O   0  0  0  0  0  0  0  0  0  0  0  0
  195.0000  169.5790  137.5960 C   0  0  0  0  0  2  0  0  0  0  0  0
  193.4500  173.1400  135.4300 C   0  0  0  0  0  2  0  0  0  0  0  0
  188.0280  175.6270  141.2590 C   0  0  0  0  0  3  0  0  0  0  0  0
  196.2340  171.8830  143.5150 C   0  0  0  0  0  0  0  0  0  0  0  0
  192.6900  174.3590  143.3000 N   0  0  0  0  0  2  0  0  0  0  0  0
  190.6460  175.5670  142.7230 C   0  0  0  0  0  2  0  0  0  0  0  0
  191.1030  173.3940  134.9870 C   0  0  0  0  0  0  0  0  0  0  0  0
  195.9330  170.7110  137.1230 C   0  0  1  0  0  0  0  0  0  0  0  0
  195.1380  171.9900  136.8290 C   0  0  0  0  0  2  0  0  0  0  0  0
  194.0390  173.2680  141.5850 C   0  0  0  0  0  2  0  0  0  0  0  0
  189.4500  173.3690  142.9610 C   0  0  0  0  0  2  0  0  0  0  0  0
  189.4990  172.0430  142.3620 N   0  0  0  0  0  1  0  0  0  0  0  0
  184.4960  175.7460  135.2190 C   0  0  0  0  0  1  0  0  0  0  0  0
  185.6760  176.4920  135.6170 N   0  0  0  0  0  2  0  0  0  0  0  0
  185.1440  177.7750  140.9790 C   0  0  0  0  0  0  0  0  0  0  0  0
  186.0100  176.9990  140.6740 C   0  0  0  0  0  0  0  0  0  0  0  0
  184.0790  178.7150  141.3280 C   0  0  0  0  0  2  0  0  0  0  0  0
  182.8540  178.4500  140.4770 C   0  0  0  0  0  2  0  0  0  0  0  0
  182.1070  177.4190  141.0450 O   0  0  0  0  0  0  0  0  0  0  0  0
  180.7740  177.8390  140.9780 C   0  0  1  0  0  3  0  0  0  0  0  0
  180.5770  179.1340  141.7760 C   0  0  1  0  0  3  0  0  0  0  0  0
  180.4130  180.2180  140.9130 O   0  0  0  0  0  1  0  0  0  0  0  0
  179.4240  179.0780  142.7840 C   0  0  0  0  0  2  0  0  0  0  0  0
  177.8150  177.1310  142.6600 C   0  0  0  0  0  3  0  0  0  0  0  0
  178.3460  176.5670  143.6550 O   0  0  0  0  0  0  0  0  0  0  0  0
  178.2530  178.4190  142.2260 N   0  0  0  0  0  2  0  0  0  0  0  0
  180.3430  178.0020  139.5210 C   0  0  0  0  0  2  0  0  0  0  0  0
  179.4180  176.8820  139.0740 C   0  0  0  0  0  2  0  0  0  0  0  0
  179.5360  176.6840  137.6960 O   0  0  0  0  0  0  0  0  0  0  0  0
  178.3120  175.8320  135.8680 C   0  0  0  0  0  2  0  0  0  0  0  0
  178.2420  176.3860  137.2720 C   0  0  0  0  0  3  0  0  0  0  0  0
  178.1110  174.8920  137.0360 C   0  0  0  0  0  2  0  0  0  0  0  0
  196.3400  171.2380  145.9440 C   0  0  0  0  0  2  0  0  0  0  0  0
  196.7510  169.9600  146.6640 C   0  0  0  0  0  2  0  0  0  0  0  0
  195.8810  168.7930  146.2280 C   0  0  0  0  0  1  0  0  0  0  0  0
  2 26  2  0  0  0  0
  2  1  1  0  0  0  0
  3 39  1  0  0  0  0
  3 44  1  1  0  0  0
  5  9  1  0  0  0  0
  6 18  1  6  0  0  0
  6 22  1  0  0  0  0
  6 14  1  0  0  0  0
  7 22  1  6  0  0  0
  7 43  1  0  0  0  0
  7  8  1  0  0  0  0
  8 37  1  0  0  0  0
  9 32  2  0  0  0  0
 10 42  1  0  0  0  0
 11  8  1  0  0  0  0
 12 36  2  0  0  0  0
 12  3  1  0  0  0  0
 13  4  1  6  0  0  0
 13 12  1  0  0  0  0
 14 11  1  0  0  0  0
 15 24  2  0  0  0  0
 15 29  1  0  0  0  0
 16  4  1  0  0  0  0
 17 66  1  0  0  0  0
 19  9  1  0  0  0  0
 19 13  1  0  0  0  0
 20  1  1  6  0  0  0
 20 29  1  0  0  0  0
 20 16  1  0  0  0  0
 21 39  1  0  0  0  0
 21 38  1  0  0  0  0
 23 40  2  0  0  0  0
 23 35  1  0  0  0  0
 24  5  1  0  0  0  0
 25 27  1  0  0  0  0
 25 28  1  0  0  0  0
 26 15  1  0  0  0  0
 27 31  1  0  0  0  0
 29 19  2  0  0  0  0
 30 38  1  0  0  0  0
 31 34  1  0  0  0  0
 32 49  1  0  0  0  0
 32 36  1  0  0  0  0
 35 10  1  0  0  0  0
 37 33  2  0  0  0  0
 37 17  1  0  0  0  0
 40  1  2  0  0  0  0
 41 28  1  6  0  0  0
 41 34  1  0  0  0  0
 41 18  1  0  0  0  0
 42 41  1  0  0  0  0
 43 30  1  0  0  0  0
 45 44  1  0  0  0  0
 46 47  1  0  0  0  0
 47 24  1  0  0  0  0
 48 50  1  0  0  0  0
 49 48  3  0  0  0  0
 51 52  1  0  0  0  0
 51 50  1  0  0  0  0
 53 60  1  6  0  0  0
 53 52  1  0  0  0  0
 53 54  1  0  0  0  0
 54 55  1  6  0  0  0
 54 56  1  0  0  0  0
 57 58  2  0  0  0  0
 59 57  1  0  0  0  0
 59 56  1  0  0  0  0
 61 60  1  0  0  0  0
 62 61  1  0  0  0  0
 63 65  1  0  0  0  0
 63 64  1  0  0  0  0
 64 62  1  0  0  0  0
 65 64  1  0  0  0  0
 66 67  1  0  0  0  0
 68 67  1  0  0  0  0
M  END
>  <MODEL>
3

>  <REMARK>
 VINA RESULT:      -3.9      3.167      7.005
  Name = 
  16 active torsions:
  status: ('A' for Active; 'I' for Inactive)
    1  A    between atoms: C_2  and  C_13
    2  A    between atoms: C_2  and  N_56
    3  A    between atoms: C_5  and  C_54
    4  A    between atoms: O_9  and  C_39
    5  A    between atoms: O_9  and  C_68
    6  A    between atoms: C_13  and  C_68
    7  A    between atoms: C_21  and  O_46
    8  A    between atoms: N_23  and  C_29
    9  A    between atoms: C_29  and  C_45
   10  A    between atoms: C_32  and  N_64
   11  A    between atoms: C_39  and  C_52
   12  A    between atoms: C_41  and  C_52
   13  A    between atoms: C_44  and  C_55
   14  A    between atoms: O_46  and  C_53
   15  A    between atoms: C_53  and  C_61
   16  A    between atoms: C_61  and  C_68
                            x       y       z     vdW  Elec       q    Type
                         _______ _______ _______ _____ _____    ______ ____

>  <TORSDO>
F 16

$$$$
=
 OpenBabel11042418163D

 68 75  0  0  1  0  0  0  0  0999 V2000
  189.5020  177.2860  145.6140 C   0  0  0  0  0  0  0  0  0  0  0  0
  188.7300  177.8730  146.6820 N   0  0  0  0  0  0  0  0  0  0  0  0
  187.6680  176.1080  139.4250 C   0  0  1  0  0  3  0  0  0  0  0  0
  189.0260  176.4500  142.1140 C   0  0  0  0  0  2  0  0  0  0  0  0
  184.9370  178.5700  143.8880 O   0  0  0  0  0  0  0  0  0  0  0  0
  194.5020  172.9610  140.6900 C   0  0  1  0  0  3  0  0  0  0  0  0
  192.3030  172.8090  139.5060 C   0  0  1  0  0  3  0  0  0  0  0  0
  193.1660  173.0860  138.3460 N   0  0  0  0  0  0  0  0  0  0  0  0
  185.6000  178.0460  142.7680 C   0  0  0  0  0  0  0  0  0  0  0  0
  193.4630  175.1760  144.6480 C   0  0  0  0  0  2  0  0  0  0  0  0
  194.2100  174.1120  138.4220 C   0  0  0  0  0  2  0  0  0  0  0  0
  186.9900  176.8000  140.5710 C   0  0  0  0  0  0  0  0  0  0  0  0
  187.8390  177.3320  141.7030 C   0  0  1  0  0  3  0  0  0  0  0  0
  195.1210  173.8930  139.6430 C   0  0  0  0  0  2  0  0  0  0  0  0
  186.8310  178.1880  145.2880 C   0  0  0  0  0  0  0  0  0  0  0  0
  189.6910  177.0460  143.2110 O   0  0  0  0  0  0  0  0  0  0  0  0
  193.2750  173.0060  135.8640 N   0  0  0  0  0  2  0  0  0  0  0  0
  195.2730  172.9530  142.0190 C   0  0  0  0  0  2  0  0  0  0  0  0
  187.0100  177.6730  142.9090 C   0  0  0  0  0  0  0  0  0  0  0  0
  188.8400  176.9010  144.3250 C   0  0  2  0  0  3  0  0  0  0  0  0
  187.9110  173.6450  139.0520 C   0  0  0  0  0  2  0  0  0  0  0  0
  192.9950  173.1680  140.8230 C   0  0  0  0  0  2  0  0  0  0  0  0
  191.7610  176.1140  146.1530 C   0  0  0  0  0  3  0  0  0  0  0  0
  185.5720  178.6430  145.1460 C   0  0  0  0  0  0  0  0  0  0  0  0
  196.6920  175.2400  144.6690 C   0  0  0  0  0  2  0  0  0  0  0  0
  187.5240  178.2710  146.5400 N   0  0  0  0  0  0  0  0  0  0  0  0
  196.9670  176.2980  143.5830 C   0  0  0  0  0  2  0  0  0  0  0  0
  196.1810  173.9250  144.0720 C   0  0  0  0  0  2  0  0  0  0  0  0
  187.5530  177.6520  144.1270 C   0  0  0  0  0  0  0  0  0  0  0  0
  190.0460  172.9130  138.4290 C   0  0  0  0  0  2  0  0  0  0  0  0
  196.6730  175.8380  142.2820 O   0  0  0  0  0  0  0  0  0  0  0  0
  184.9660  177.7800  141.6170 C   0  0  0  0  0  0  0  0  0  0  0  0
  192.4290  171.2350  137.1220 O   0  0  0  0  0  0  0  0  0  0  0  0
  195.3160  175.4810  142.2730 C   0  0  0  0  0  2  0  0  0  0  0  0
  192.1350  174.9300  145.3320 C   0  0  0  0  0  2  0  0  0  0  0  0
  185.6740  177.0840  140.5170 C   0  0  0  0  0  3  0  0  0  0  0  0
  192.9400  172.3880  137.1100 C   0  0  0  0  0  0  0  0  0  0  0  0
  188.9690  173.8180  138.0690 N   0  0  0  0  0  2  0  0  0  0  0  0
  186.9500  174.8290  139.0040 C   0  0  0  0  0  2  0  0  0  0  0  0
  190.6410  176.7220  145.9010 C   0  0  0  0  0  0  0  0  0  0  0  0
  195.1060  174.1340  142.9920 C   0  0  1  0  0  0  0  0  0  0  0  0
  193.7120  174.0650  143.6310 C   0  0  0  0  0  2  0  0  0  0  0  0
  191.0000  173.5910  139.4020 C   0  0  0  0  0  2  0  0  0  0  0  0
  187.8790  177.0390  138.2460 C   0  0  0  0  0  2  0  0  0  0  0  0
  186.9060  176.7260  137.2090 N   0  0  0  0  0  1  0  0  0  0  0  0
  183.6510  178.5940  146.7560 C   0  0  0  0  0  1  0  0  0  0  0  0
  184.8780  179.1930  146.2640 N   0  0  0  0  0  2  0  0  0  0  0  0
  182.3680  178.1680  141.3600 C   0  0  0  0  0  0  0  0  0  0  0  0
  183.5470  177.9800  141.5000 C   0  0  0  0  0  0  0  0  0  0  0  0
  180.9390  178.4150  141.1720 C   0  0  0  0  0  2  0  0  0  0  0  0
  180.7220  179.7990  140.5960 C   0  0  0  0  0  2  0  0  0  0  0  0
  180.0480  180.5900  141.5240 O   0  0  0  0  0  0  0  0  0  0  0  0
  179.0690  181.2750  140.7960 C   0  0  1  0  0  3  0  0  0  0  0  0
  179.4190  181.2860  139.3030 C   0  0  1  0  0  3  0  0  0  0  0  0
  178.4900  180.5380  138.5790 O   0  0  0  0  0  1  0  0  0  0  0  0
  179.5550  182.6900  138.7040 C   0  0  0  0  0  2  0  0  0  0  0  0
  180.6970  183.5510  136.6180 C   0  0  0  0  0  3  0  0  0  0  0  0
  181.4100  184.3520  137.2800 O   0  0  0  0  0  0  0  0  0  0  0  0
  179.8120  182.6410  137.2720 N   0  0  0  0  0  2  0  0  0  0  0  0
  177.6930  180.6580  141.0490 C   0  0  0  0  0  2  0  0  0  0  0  0
  177.7520  179.5450  142.0830 C   0  0  0  0  0  2  0  0  0  0  0  0
  177.8310  178.3040  141.4460 O   0  0  0  0  0  0  0  0  0  0  0  0
  178.5430  178.1270  143.6890 C   0  0  0  0  0  2  0  0  0  0  0  0
  178.5900  177.5150  142.3080 C   0  0  0  0  0  3  0  0  0  0  0  0
  177.6940  176.9150  143.3770 C   0  0  0  0  0  2  0  0  0  0  0  0
  192.9530  172.3660  134.5950 C   0  0  0  0  0  2  0  0  0  0  0  0
  191.4650  172.0540  134.5250 C   0  0  0  0  0  2  0  0  0  0  0  0
  190.6410  173.3180  134.7030 C   0  0  0  0  0  1  0  0  0  0  0  0
  1 40  2  0  0  0  0
  1  2  1  0  0  0  0
  3 44  1  6  0  0  0
  3 12  1  0  0  0  0
  4 16  1  0  0  0  0
  5 24  1  0  0  0  0
  6 14  1  6  0  0  0
  6 22  1  0  0  0  0
  6 18  1  0  0  0  0
  7 43  1  6  0  0  0
  7 22  1  0  0  0  0
  8 11  1  0  0  0  0
  8  7  1  0  0  0  0
  9 19  1  0  0  0  0
  9  5  1  0  0  0  0
 10 35  1  0  0  0  0
 11 14  1  0  0  0  0
 12 13  1  0  0  0  0
 13  4  1  1  0  0  0
 13 19  1  0  0  0  0
 15 26  1  0  0  0  0
 17 37  1  0  0  0  0
 19 29  2  0  0  0  0
 20 16  1  6  0  0  0
 20  1  1  0  0  0  0
 24 15  2  0  0  0  0
 24 47  1  0  0  0  0
 26  2  2  0  0  0  0
 27 25  1  0  0  0  0
 28 25  1  0  0  0  0
 29 20  1  0  0  0  0
 29 15  1  0  0  0  0
 30 43  1  0  0  0  0
 31 27  1  0  0  0  0
 32  9  2  0  0  0  0
 34 31  1  0  0  0  0
 34 41  1  0  0  0  0
 35 23  1  0  0  0  0
 36 12  2  0  0  0  0
 36 32  1  0  0  0  0
 37 33  2  0  0  0  0
 37  8  1  0  0  0  0
 38 30  1  0  0  0  0
 38 21  1  0  0  0  0
 39 21  1  0  0  0  0
 39  3  1  0  0  0  0
 40 23  2  0  0  0  0
 41 18  1  6  0  0  0
 41 42  1  0  0  0  0
 41 28  1  0  0  0  0
 42 10  1  0  0  0  0
 45 44  1  0  0  0  0
 47 46  1  0  0  0  0
 48 49  3  0  0  0  0
 49 32  1  0  0  0  0
 50 48  1  0  0  0  0
 51 50  1  0  0  0  0
 51 52  1  0  0  0  0
 53 60  1  6  0  0  0
 53 52  1  0  0  0  0
 54 55  1  6  0  0  0
 54 53  1  0  0  0  0
 56 54  1  0  0  0  0
 57 59  1  0  0  0  0
 57 58  2  0  0  0  0
 59 56  1  0  0  0  0
 60 61  1  0  0  0  0
 62 61  1  0  0  0  0
 62 64  1  0  0  0  0
 64 65  1  0  0  0  0
 64 63  1  0  0  0  0
 65 63  1  0  0  0  0
 66 17  1  0  0  0  0
 67 66  1  0  0  0  0
 67 68  1  0  0  0  0
M  END
>  <MODEL>
4

>  <REMARK>
 VINA RESULT:      -3.1      2.254      2.804
  Name = 
  16 active torsions:
  status: ('A' for Active; 'I' for Inactive)
    1  A    between atoms: C_2  and  C_13
    2  A    between atoms: C_2  and  N_56
    3  A    between atoms: C_5  and  C_54
    4  A    between atoms: O_9  and  C_39
    5  A    between atoms: O_9  and  C_68
    6  A    between atoms: C_13  and  C_68
    7  A    between atoms: C_21  and  O_46
    8  A    between atoms: N_23  and  C_29
    9  A    between atoms: C_29  and  C_45
   10  A    between atoms: C_32  and  N_64
   11  A    between atoms: C_39  and  C_52
   12  A    between atoms: C_41  and  C_52
   13  A    between atoms: C_44  and  C_55
   14  A    between atoms: O_46  and  C_53
   15  A    between atoms: C_53  and  C_61
   16  A    between atoms: C_61  and  C_68
                            x       y       z     vdW  Elec       q    Type
                         _______ _______ _______ _____ _____    ______ ____

>  <TORSDO>
F 16

$$$$
