=
 OpenBabel11042414143D

 45 50  0  0  1  0  0  0  0  0999 V2000
  192.2650  171.6060  143.7030 C   0  0  0  0  0  3  0  0  0  0  0  0
  190.6780  172.9100  142.4620 C   0  0  0  0  0  0  0  0  0  0  0  0
  191.2150  174.0610  142.9660 C   0  0  0  0  0  0  0  0  0  0  0  0
  192.2820  174.0470  143.8750 C   0  0  0  0  0  0  0  0  0  0  0  0
  186.3900  177.0600  143.2390 C   0  0  1  0  0  3  0  0  0  0  0  0
  188.4860  175.3460  141.1070 C   0  0  0  0  0  2  0  0  0  0  0  0
  191.1820  171.6440  142.8050 C   0  0  0  0  0  0  0  0  0  0  0  0
  186.8160  176.5970  141.8550 C   0  0  0  0  0  2  0  0  0  0  0  0
  192.8470  175.2910  144.5040 C   0  0  2  0  0  3  0  0  0  0  0  0
  190.4870  175.6400  145.6080 C   0  0  1  0  0  3  0  0  0  0  0  0
  189.6250  173.2030  141.6810 N   0  0  0  0  0  0  0  0  0  0  0  0
  190.5270  175.1240  142.5230 N   0  0  0  0  0  2  0  0  0  0  0  0
  187.3620  175.3150  141.9360 O   0  0  0  0  0  0  0  0  0  0  0  0
  189.6580  176.8660  145.2220 C   0  0  2  0  0  3  0  0  0  0  0  0
  187.5930  177.5790  144.0130 C   0  0  0  0  0  2  0  0  0  0  0  0
  192.8070  172.7940  144.2360 C   0  0  0  0  0  3  0  0  0  0  0  0
  192.4710  176.6540  146.3970 O   0  0  0  0  0  0  0  0  0  0  0  0
  189.5120  177.7470  146.2980 O   0  0  0  0  0  1  0  0  0  0  0  0
  188.2990  176.4250  144.7040 C   0  0  0  0  0  2  0  0  0  0  0  0
  189.5770  174.5570  141.7390 C   0  0  0  0  0  0  0  0  0  0  0  0
  191.9690  175.9070  145.5700 C   0  0  0  0  0  0  0  0  0  0  0  0
  189.2440  173.8070  146.5740 O   0  0  0  0  0  1  0  0  0  0  0  0
  190.0260  174.9230  146.8760 C   0  0  0  0  0  2  0  0  0  0  0  0
  190.6670  170.4360  142.3170 O   0  0  0  0  0  0  0  0  0  0  0  0
  190.9780  169.8990  141.0400 C   0  0  0  0  0  1  0  0  0  0  0  0
  185.3480  178.1630  143.1060 C   0  0  0  0  0  2  0  0  0  0  0  0
  185.3610  179.0140  144.2920 N   0  0  0  0  0  0  0  0  0  0  0  0
  185.2680  180.4070  143.8780 C   0  0  0  0  0  1  0  0  0  0  0  0
  184.2810  178.6360  145.2230 C   0  0  0  0  0  2  0  0  0  0  0  0
  185.2100  176.7480  146.6860 C   0  0  0  0  0  2  0  0  0  0  0  0
  185.6920  179.0470  147.3550 C   0  0  0  0  0  2  0  0  0  0  0  0
  186.3150  176.7370  147.7320 C   0  0  0  0  0  2  0  0  0  0  0  0
  186.3590  178.1230  148.3510 C   0  0  0  0  0  2  0  0  0  0  0  0
  184.6850  178.1710  146.6390 C   0  0  0  0  0  3  0  0  0  0  0  0
  193.2890  176.3110  143.4580 C   0  0  0  0  0  2  0  0  0  0  0  0
  197.8870  175.4670  140.2120 C   0  0  0  0  0  2  0  0  0  0  0  0
  197.2060  175.2320  138.9940 O   0  0  0  0  0  0  0  0  0  0  0  0
  195.7270  175.0160  140.8000 C   0  0  2  0  0  3  0  0  0  0  0  0
  195.8680  175.9760  143.5090 C   0  0  0  0  0  2  0  0  0  0  0  0
  195.2350  173.9060  138.6470 C   0  0  0  0  0  1  0  0  0  0  0  0
  194.5360  175.8640  142.7660 C   0  0  0  0  0  0  0  0  0  0  0  0
  196.8490  175.8720  141.2210 C   0  0  1  0  0  3  0  0  0  0  0  0
  195.8270  175.1360  139.3080 C   0  0  2  0  0  3  0  0  0  0  0  0
  194.4750  175.4930  141.4670 C   0  0  0  0  0  3  0  0  0  0  0  0
  197.1120  175.5620  142.6830 C   0  0  0  0  0  2  0  0  0  0  0  0
  1 16  1  0  0  0  0
  2  7  1  0  0  0  0
  2  3  2  0  0  0  0
  3  4  1  0  0  0  0
  4 16  2  0  0  0  0
  4  9  1  0  0  0  0
  5 26  1  6  0  0  0
  5 15  1  0  0  0  0
  6 20  1  0  0  0  0
  6 13  1  0  0  0  0
  7  1  2  0  0  0  0
  8 13  1  0  0  0  0
  8  5  1  0  0  0  0
  9 35  1  6  0  0  0
  9 21  1  0  0  0  0
 10 23  1  1  0  0  0
 11 20  2  0  0  0  0
 11  2  1  0  0  0  0
 12  3  1  0  0  0  0
 14 10  1  0  0  0  0
 14 18  1  1  0  0  0
 15 19  1  0  0  0  0
 19 14  1  0  0  0  0
 20 12  1  0  0  0  0
 21 10  1  0  0  0  0
 21 17  2  0  0  0  0
 22 23  1  0  0  0  0
 24  7  1  0  0  0  0
 25 24  1  0  0  0  0
 26 27  1  0  0  0  0
 27 29  1  0  0  0  0
 28 27  1  0  0  0  0
 29 34  1  0  0  0  0
 30 32  1  0  0  0  0
 31 33  1  0  0  0  0
 32 33  1  0  0  0  0
 34 30  1  0  0  0  0
 34 31  1  0  0  0  0
 37 43  1  0  0  0  0
 37 36  1  0  0  0  0
 38 42  1  0  0  0  0
 38 44  1  1  0  0  0
 41 35  1  0  0  0  0
 41 39  1  0  0  0  0
 42 36  1  6  0  0  0
 42 45  1  0  0  0  0
 43 40  1  6  0  0  0
 43 38  1  0  0  0  0
 44 41  2  0  0  0  0
 45 39  1  0  0  0  0
M  END
>  <MODEL>
1

>  <REMARK>
 VINA RESULT:      -8.4      0.000      0.000
  Name = 
  8 active torsions:
  status: ('A' for Active; 'I' for Inactive)
    1  A    between atoms: C_7  and  C_11
    2  A    between atoms: C_7  and  N_18
    3  A    between atoms: C_13  and  O_34
    4  A    between atoms: N_18  and  C_22
    5  A    between atoms: C_21  and  C_44
    6  A    between atoms: C_22  and  C_26
    7  A    between atoms: C_23  and  C_44
    8  A    between atoms: C_24  and  C_42
                            x       y       z     vdW  Elec       q    Type
                         _______ _______ _______ _____ _____    ______ ____

>  <TORSDO>
F 8

$$$$
=
 OpenBabel11042414143D

 45 50  0  0  1  0  0  0  0  0999 V2000
  188.6330  174.5250  140.5440 C   0  0  0  0  0  3  0  0  0  0  0  0
  189.7480  172.8160  141.8050 C   0  0  0  0  0  0  0  0  0  0  0  0
  189.8530  173.6600  142.8740 C   0  0  0  0  0  0  0  0  0  0  0  0
  189.3780  174.9780  142.8300 C   0  0  0  0  0  0  0  0  0  0  0  0
  194.8650  171.7810  144.7980 C   0  0  1  0  0  3  0  0  0  0  0  0
  191.6340  170.8360  144.0630 C   0  0  0  0  0  2  0  0  0  0  0  0
  189.1330  173.2120  140.6050 C   0  0  0  0  0  0  0  0  0  0  0  0
  193.7330  170.7670  144.7720 C   0  0  0  0  0  2  0  0  0  0  0  0
  189.5440  175.9540  143.9630 C   0  0  2  0  0  3  0  0  0  0  0  0
  192.1380  175.7230  143.6010 C   0  0  1  0  0  3  0  0  0  0  0  0
  190.3490  171.6480  142.0860 N   0  0  0  0  0  0  0  0  0  0  0  0
  190.5200  173.0590  143.8720 N   0  0  0  0  0  2  0  0  0  0  0  0
  192.9550  170.9600  143.6290 O   0  0  0  0  0  0  0  0  0  0  0  0
  192.9950  175.1190  144.7140 C   0  0  2  0  0  3  0  0  0  0  0  0
  194.3610  173.1190  145.3190 C   0  0  0  0  0  2  0  0  0  0  0  0
  188.7580  175.4010  141.6420 C   0  0  0  0  0  3  0  0  0  0  0  0
  191.1230  177.5350  144.7300 O   0  0  0  0  0  0  0  0  0  0  0  0
  193.8650  176.0660  145.2630 O   0  0  0  0  0  1  0  0  0  0  0  0
  193.7700  173.9280  144.1770 C   0  0  0  0  0  2  0  0  0  0  0  0
  190.7930  171.8370  143.3530 C   0  0  0  0  0  0  0  0  0  0  0  0
  190.9510  176.4830  144.1310 C   0  0  0  0  0  0  0  0  0  0  0  0
  193.2580  175.6380  141.4620 O   0  0  0  0  0  1  0  0  0  0  0  0
  192.9170  176.4770  142.5240 C   0  0  0  0  0  2  0  0  0  0  0  0
  189.0010  172.3860  139.4810 O   0  0  0  0  0  0  0  0  0  0  0  0
  188.8550  172.8680  138.1540 C   0  0  0  0  0  1  0  0  0  0  0  0
  195.9850  171.2680  145.6950 C   0  0  0  0  0  2  0  0  0  0  0  0
  197.2620  171.3280  144.9900 N   0  0  0  0  0  0  0  0  0  0  0  0
  197.9410  170.0470  145.1290 C   0  0  0  0  0  1  0  0  0  0  0  0
  197.0650  171.7050  143.5770 C   0  0  0  0  0  2  0  0  0  0  0  0
  196.7750  173.7090  142.0070 C   0  0  0  0  0  2  0  0  0  0  0  0
  197.7320  174.1240  144.2150 C   0  0  0  0  0  2  0  0  0  0  0  0
  196.7590  175.2060  142.2790 C   0  0  0  0  0  2  0  0  0  0  0  0
  197.6410  175.4500  143.4910 C   0  0  0  0  0  2  0  0  0  0  0  0
  197.5910  173.0840  143.1230 C   0  0  0  0  0  3  0  0  0  0  0  0
  188.9690  175.4160  145.2700 C   0  0  0  0  0  2  0  0  0  0  0  0
  184.2350  178.2590  146.6460 C   0  0  0  0  0  2  0  0  0  0  0  0
  183.9740  178.8050  145.3660 O   0  0  0  0  0  0  0  0  0  0  0  0
  186.1890  178.0450  145.4850 C   0  0  2  0  0  3  0  0  0  0  0  0
  187.4760  176.1810  147.2590 C   0  0  0  0  0  2  0  0  0  0  0  0
  185.5500  179.7720  143.8350 C   0  0  0  0  0  1  0  0  0  0  0  0
  187.8950  176.3140  145.7940 C   0  0  0  0  0  0  0  0  0  0  0  0
  185.3960  177.3190  146.4910 C   0  0  1  0  0  3  0  0  0  0  0  0
  185.1050  178.5170  144.5610 C   0  0  2  0  0  3  0  0  0  0  0  0
  187.2380  177.1280  144.9380 C   0  0  0  0  0  3  0  0  0  0  0  0
  186.3040  177.0980  147.6880 C   0  0  0  0  0  2  0  0  0  0  0  0
  1  7  2  0  0  0  0
  1 16  1  0  0  0  0
  2 11  1  0  0  0  0
  2  3  2  0  0  0  0
  3 12  1  0  0  0  0
  4  3  1  0  0  0  0
  4  9  1  0  0  0  0
  5 15  1  0  0  0  0
  5 26  1  1  0  0  0
  7  2  1  0  0  0  0
  8  5  1  0  0  0  0
  9 21  1  0  0  0  0
  9 35  1  1  0  0  0
 10 23  1  1  0  0  0
 10 21  1  0  0  0  0
 10 14  1  0  0  0  0
 11 20  2  0  0  0  0
 13  6  1  0  0  0  0
 13  8  1  0  0  0  0
 14 18  1  6  0  0  0
 16  4  2  0  0  0  0
 19 14  1  0  0  0  0
 19 15  1  0  0  0  0
 20 12  1  0  0  0  0
 20  6  1  0  0  0  0
 21 17  2  0  0  0  0
 22 23  1  0  0  0  0
 24  7  1  0  0  0  0
 25 24  1  0  0  0  0
 27 28  1  0  0  0  0
 27 26  1  0  0  0  0
 29 27  1  0  0  0  0
 30 32  1  0  0  0  0
 30 34  1  0  0  0  0
 32 33  1  0  0  0  0
 33 31  1  0  0  0  0
 34 29  1  0  0  0  0
 34 31  1  0  0  0  0
 35 41  1  0  0  0  0
 37 36  1  0  0  0  0
 38 44  1  6  0  0  0
 38 42  1  0  0  0  0
 39 45  1  0  0  0  0
 41 39  1  0  0  0  0
 42 36  1  1  0  0  0
 42 45  1  0  0  0  0
 43 40  1  1  0  0  0
 43 37  1  0  0  0  0
 43 38  1  0  0  0  0
 44 41  2  0  0  0  0
M  END
>  <MODEL>
2

>  <REMARK>
 VINA RESULT:      -8.1      2.592      9.190
  Name = 
  8 active torsions:
  status: ('A' for Active; 'I' for Inactive)
    1  A    between atoms: C_7  and  C_11
    2  A    between atoms: C_7  and  N_18
    3  A    between atoms: C_13  and  O_34
    4  A    between atoms: N_18  and  C_22
    5  A    between atoms: C_21  and  C_44
    6  A    between atoms: C_22  and  C_26
    7  A    between atoms: C_23  and  C_44
    8  A    between atoms: C_24  and  C_42
                            x       y       z     vdW  Elec       q    Type
                         _______ _______ _______ _____ _____    ______ ____

>  <TORSDO>
F 8

$$$$
=
 OpenBabel11042414143D

 45 50  0  0  1  0  0  0  0  0999 V2000
  192.9110  175.2410  146.4130 C   0  0  0  0  0  3  0  0  0  0  0  0
  193.8680  175.6610  144.2530 C   0  0  0  0  0  0  0  0  0  0  0  0
  192.6190  175.8080  143.7180 C   0  0  0  0  0  0  0  0  0  0  0  0
  191.4580  175.6600  144.4890 C   0  0  0  0  0  0  0  0  0  0  0  0
  193.7570  173.6110  138.5960 C   0  0  1  0  0  3  0  0  0  0  0  0
  194.6370  176.0940  140.8190 C   0  0  0  0  0  2  0  0  0  0  0  0
  194.0620  175.3770  145.6160 C   0  0  0  0  0  0  0  0  0  0  0  0
  194.5410  174.8550  138.9830 C   0  0  0  0  0  2  0  0  0  0  0  0
  190.0700  175.7430  143.9150 C   0  0  2  0  0  3  0  0  0  0  0  0
  190.6890  173.6360  142.4690 C   0  0  1  0  0  3  0  0  0  0  0  0
  194.7940  175.7770  143.2870 N   0  0  0  0  0  0  0  0  0  0  0  0
  192.7070  176.0260  142.3970 N   0  0  0  0  0  2  0  0  0  0  0  0
  194.8670  174.8030  140.3390 O   0  0  0  0  0  0  0  0  0  0  0  0
  190.7400  173.7670  140.9460 C   0  0  2  0  0  3  0  0  0  0  0  0
  192.2960  173.7660  138.9940 C   0  0  0  0  0  2  0  0  0  0  0  0
  191.6220  175.3760  145.8550 C   0  0  0  0  0  3  0  0  0  0  0  0
  188.4710  174.3190  142.9170 O   0  0  0  0  0  0  0  0  0  0  0  0
  189.7310  173.0180  140.3330 O   0  0  0  0  0  1  0  0  0  0  0  0
  192.1060  173.3380  140.4390 C   0  0  0  0  0  2  0  0  0  0  0  0
  194.0450  176.0080  142.1810 C   0  0  0  0  0  0  0  0  0  0  0  0
  189.6600  174.5410  143.0940 C   0  0  0  0  0  0  0  0  0  0  0  0
  190.9110  172.1500  144.3610 O   0  0  0  0  0  1  0  0  0  0  0  0
  190.6420  172.2010  142.9920 C   0  0  0  0  0  2  0  0  0  0  0  0
  195.3200  175.2160  146.2130 O   0  0  0  0  0  0  0  0  0  0  0  0
  196.1920  174.1290  145.9440 C   0  0  0  0  0  1  0  0  0  0  0  0
  193.8610  173.3930  137.0920 C   0  0  0  0  0  2  0  0  0  0  0  0
  192.5930  172.8960  136.5660 N   0  0  0  0  0  0  0  0  0  0  0  0
  192.1820  173.7330  135.4470 C   0  0  0  0  0  1  0  0  0  0  0  0
  192.7020  171.4740  136.1890 C   0  0  0  0  0  2  0  0  0  0  0  0
  192.1940  170.1090  138.2960 C   0  0  0  0  0  2  0  0  0  0  0  0
  190.3030  170.8810  136.9580 C   0  0  0  0  0  2  0  0  0  0  0  0
  190.9170  169.9490  139.1080 C   0  0  0  0  0  2  0  0  0  0  0  0
  189.7520  170.1260  138.1490 C   0  0  0  0  0  2  0  0  0  0  0  0
  191.7590  170.4720  136.8890 C   0  0  0  0  0  3  0  0  0  0  0  0
  189.8360  177.0560  143.1740 C   0  0  0  0  0  2  0  0  0  0  0  0
  184.8360  179.5100  144.3440 C   0  0  0  0  0  2  0  0  0  0  0  0
  184.8040  179.2040  145.7260 O   0  0  0  0  0  0  0  0  0  0  0  0
  186.3850  177.8590  144.6360 C   0  0  2  0  0  3  0  0  0  0  0  0
  187.7320  178.1590  142.1110 C   0  0  0  0  0  2  0  0  0  0  0  0
  185.3980  177.1320  146.7830 C   0  0  0  0  0  1  0  0  0  0  0  0
  188.4170  177.5050  143.3130 C   0  0  0  0  0  0  0  0  0  0  0  0
  186.1790  179.0750  143.8320 C   0  0  1  0  0  3  0  0  0  0  0  0
  185.8830  178.3190  145.9740 C   0  0  2  0  0  3  0  0  0  0  0  0
  187.8170  177.4380  144.5230 C   0  0  0  0  0  3  0  0  0  0  0  0
  186.2900  178.6610  142.3760 C   0  0  0  0  0  2  0  0  0  0  0  0
  2  7  1  0  0  0  0
  3  2  2  0  0  0  0
  3  4  1  0  0  0  0
  4 16  2  0  0  0  0
  5 26  1  6  0  0  0
  5  8  1  0  0  0  0
  5 15  1  0  0  0  0
  6 20  1  0  0  0  0
  7 24  1  0  0  0  0
  7  1  2  0  0  0  0
  8 13  1  0  0  0  0
  9 35  1  6  0  0  0
  9  4  1  0  0  0  0
 10 23  1  6  0  0  0
 10 21  1  0  0  0  0
 11  2  1  0  0  0  0
 12  3  1  0  0  0  0
 13  6  1  0  0  0  0
 14 18  1  6  0  0  0
 14 10  1  0  0  0  0
 15 19  1  0  0  0  0
 16  1  1  0  0  0  0
 17 21  2  0  0  0  0
 19 14  1  0  0  0  0
 20 12  1  0  0  0  0
 20 11  2  0  0  0  0
 21  9  1  0  0  0  0
 23 22  1  0  0  0  0
 25 24  1  0  0  0  0
 27 26  1  0  0  0  0
 28 27  1  0  0  0  0
 29 27  1  0  0  0  0
 29 34  1  0  0  0  0
 30 32  1  0  0  0  0
 31 33  1  0  0  0  0
 33 32  1  0  0  0  0
 34 31  1  0  0  0  0
 34 30  1  0  0  0  0
 35 41  1  0  0  0  0
 36 37  1  0  0  0  0
 37 43  1  0  0  0  0
 38 44  1  1  0  0  0
 38 43  1  0  0  0  0
 39 45  1  0  0  0  0
 39 41  1  0  0  0  0
 41 44  2  0  0  0  0
 42 45  1  6  0  0  0
 42 36  1  0  0  0  0
 42 38  1  0  0  0  0
 43 40  1  1  0  0  0
M  END
>  <MODEL>
3

>  <REMARK>
 VINA RESULT:      -7.7      2.542      9.023
  Name = 
  8 active torsions:
  status: ('A' for Active; 'I' for Inactive)
    1  A    between atoms: C_7  and  C_11
    2  A    between atoms: C_7  and  N_18
    3  A    between atoms: C_13  and  O_34
    4  A    between atoms: N_18  and  C_22
    5  A    between atoms: C_21  and  C_44
    6  A    between atoms: C_22  and  C_26
    7  A    between atoms: C_23  and  C_44
    8  A    between atoms: C_24  and  C_42
                            x       y       z     vdW  Elec       q    Type
                         _______ _______ _______ _____ _____    ______ ____

>  <TORSDO>
F 8

$$$$
=
 OpenBabel11042414143D

 45 50  0  0  1  0  0  0  0  0999 V2000
  191.7000  171.5070  144.0130 C   0  0  0  0  0  3  0  0  0  0  0  0
  190.4740  172.8680  142.4630 C   0  0  0  0  0  0  0  0  0  0  0  0
  190.9900  173.9970  143.0330 C   0  0  0  0  0  0  0  0  0  0  0  0
  191.8640  173.9450  144.1280 C   0  0  0  0  0  0  0  0  0  0  0  0
  186.4330  177.3240  142.3130 C   0  0  1  0  0  3  0  0  0  0  0  0
  188.7600  175.3930  140.6590 C   0  0  0  0  0  2  0  0  0  0  0  0
  190.8110  171.5840  142.9260 C   0  0  0  0  0  0  0  0  0  0  0  0
  187.0750  176.7810  141.0470 C   0  0  0  0  0  2  0  0  0  0  0  0
  192.3910  175.1720  144.8230 C   0  0  2  0  0  3  0  0  0  0  0  0
  189.8970  175.7200  145.4490 C   0  0  1  0  0  3  0  0  0  0  0  0
  189.6110  173.2020  141.4900 N   0  0  0  0  0  0  0  0  0  0  0  0
  190.4770  175.0870  142.4410 N   0  0  0  0  0  2  0  0  0  0  0  0
  187.5020  175.4690  141.2600 O   0  0  0  0  0  0  0  0  0  0  0  0
  189.2470  176.9840  144.8840 C   0  0  2  0  0  3  0  0  0  0  0  0
  187.5040  177.7890  143.2880 C   0  0  0  0  0  2  0  0  0  0  0  0
  192.2180  172.6750  144.6120 C   0  0  0  0  0  3  0  0  0  0  0  0
  191.7670  176.6270  146.5760 O   0  0  0  0  0  0  0  0  0  0  0  0
  188.9670  177.9120  145.8910 O   0  0  0  0  0  1  0  0  0  0  0  0
  187.9820  176.6170  144.1290 C   0  0  0  0  0  2  0  0  0  0  0  0
  189.6520  174.5570  141.5050 C   0  0  0  0  0  0  0  0  0  0  0  0
  191.3750  175.8850  145.6870 C   0  0  0  0  0  0  0  0  0  0  0  0
  189.3330  173.6990  146.6480 O   0  0  0  0  0  1  0  0  0  0  0  0
  189.1550  175.0830  146.6240 C   0  0  0  0  0  2  0  0  0  0  0  0
  190.3090  170.3960  142.3780 O   0  0  0  0  0  0  0  0  0  0  0  0
  190.8200  169.7870  141.2020 C   0  0  0  0  0  1  0  0  0  0  0  0
  185.5180  178.4890  141.9580 C   0  0  0  0  0  2  0  0  0  0  0  0
  184.4180  178.5750  142.9150 N   0  0  0  0  0  0  0  0  0  0  0  0
  183.1630  178.3350  142.2160 C   0  0  0  0  0  1  0  0  0  0  0  0
  184.6220  177.6370  144.0350 C   0  0  0  0  0  2  0  0  0  0  0  0
  184.9150  177.1900  146.5410 C   0  0  0  0  0  2  0  0  0  0  0  0
  185.5090  179.4060  145.7040 C   0  0  0  0  0  2  0  0  0  0  0  0
  185.7190  177.9210  147.6060 C   0  0  0  0  0  2  0  0  0  0  0  0
  185.7880  179.3800  147.1920 C   0  0  0  0  0  2  0  0  0  0  0  0
  184.6040  178.2150  145.4670 C   0  0  0  0  0  3  0  0  0  0  0  0
  193.0940  176.1190  143.8550 C   0  0  0  0  0  2  0  0  0  0  0  0
  197.9350  173.4810  142.4430 C   0  0  0  0  0  2  0  0  0  0  0  0
  197.8560  172.4380  143.3960 O   0  0  0  0  0  0  0  0  0  0  0  0
  196.3950  174.1770  143.9790 C   0  0  2  0  0  3  0  0  0  0  0  0
  195.2600  176.3180  142.4270 C   0  0  0  0  0  2  0  0  0  0  0  0
  197.2110  172.6030  145.7020 C   0  0  0  0  0  1  0  0  0  0  0  0
  194.4880  175.6610  143.5730 C   0  0  0  0  0  0  0  0  0  0  0  0
  196.6480  174.2500  142.5300 C   0  0  1  0  0  3  0  0  0  0  0  0
  196.7750  172.7520  144.2580 C   0  0  2  0  0  3  0  0  0  0  0  0
  194.9860  174.6010  144.2490 C   0  0  0  0  0  3  0  0  0  0  0  0
  196.6660  175.7230  142.1620 C   0  0  0  0  0  2  0  0  0  0  0  0
  1 16  1  0  0  0  0
  2  7  1  0  0  0  0
  2  3  2  0  0  0  0
  3  4  1  0  0  0  0
  4 16  2  0  0  0  0
  4  9  1  0  0  0  0
  5 26  1  6  0  0  0
  5 15  1  0  0  0  0
  6 13  1  0  0  0  0
  6 20  1  0  0  0  0
  7  1  2  0  0  0  0
  8 13  1  0  0  0  0
  8  5  1  0  0  0  0
  9 35  1  6  0  0  0
  9 21  1  0  0  0  0
 10 21  1  0  0  0  0
 10 23  1  1  0  0  0
 11 20  2  0  0  0  0
 11  2  1  0  0  0  0
 12  3  1  0  0  0  0
 14 10  1  0  0  0  0
 14 18  1  1  0  0  0
 15 19  1  0  0  0  0
 19 14  1  0  0  0  0
 20 12  1  0  0  0  0
 21 17  2  0  0  0  0
 23 22  1  0  0  0  0
 24  7  1  0  0  0  0
 25 24  1  0  0  0  0
 26 27  1  0  0  0  0
 27 29  1  0  0  0  0
 28 27  1  0  0  0  0
 29 34  1  0  0  0  0
 30 32  1  0  0  0  0
 31 33  1  0  0  0  0
 33 32  1  0  0  0  0
 34 31  1  0  0  0  0
 34 30  1  0  0  0  0
 36 42  1  0  0  0  0
 36 37  1  0  0  0  0
 37 43  1  0  0  0  0
 38 44  1  6  0  0  0
 38 43  1  0  0  0  0
 39 41  1  0  0  0  0
 41 35  1  0  0  0  0
 41 44  2  0  0  0  0
 42 45  1  1  0  0  0
 42 38  1  0  0  0  0
 43 40  1  1  0  0  0
 45 39  1  0  0  0  0
M  END
>  <MODEL>
4

>  <REMARK>
 VINA RESULT:      -7.5      1.465      2.039
  Name = 
  8 active torsions:
  status: ('A' for Active; 'I' for Inactive)
    1  A    between atoms: C_7  and  C_11
    2  A    between atoms: C_7  and  N_18
    3  A    between atoms: C_13  and  O_34
    4  A    between atoms: N_18  and  C_22
    5  A    between atoms: C_21  and  C_44
    6  A    between atoms: C_22  and  C_26
    7  A    between atoms: C_23  and  C_44
    8  A    between atoms: C_24  and  C_42
                            x       y       z     vdW  Elec       q    Type
                         _______ _______ _______ _____ _____    ______ ____

>  <TORSDO>
F 8

$$$$
=
 OpenBabel11042414143D

 45 50  0  0  1  0  0  0  0  0999 V2000
  193.8270  171.6970  143.7540 C   0  0  0  0  0  3  0  0  0  0  0  0
  191.8690  172.3810  142.5480 C   0  0  0  0  0  0  0  0  0  0  0  0
  192.2400  173.6900  142.6700 C   0  0  0  0  0  0  0  0  0  0  0  0
  193.4020  174.0730  143.3540 C   0  0  0  0  0  0  0  0  0  0  0  0
  187.0120  175.8920  143.0950 C   0  0  1  0  0  3  0  0  0  0  0  0
  189.0910  174.0240  141.0790 C   0  0  0  0  0  2  0  0  0  0  0  0
  192.6470  171.3370  143.0790 C   0  0  0  0  0  0  0  0  0  0  0  0
  187.3290  175.1580  141.8020 C   0  0  0  0  0  2  0  0  0  0  0  0
  193.7990  175.5080  143.5700 C   0  0  2  0  0  3  0  0  0  0  0  0
  191.5840  175.7680  144.9630 C   0  0  1  0  0  3  0  0  0  0  0  0
  190.6840  172.3000  141.9190 N   0  0  0  0  0  0  0  0  0  0  0  0
  191.3080  174.4860  142.1230 N   0  0  0  0  0  2  0  0  0  0  0  0
  188.1160  174.0380  142.0770 O   0  0  0  0  0  0  0  0  0  0  0  0
  190.4930  176.7130  144.4580 C   0  0  2  0  0  3  0  0  0  0  0  0
  188.1870  176.7690  143.5030 C   0  0  0  0  0  2  0  0  0  0  0  0
  194.1990  173.0500  143.8960 C   0  0  0  0  0  3  0  0  0  0  0  0
  193.4270  177.2390  145.1330 O   0  0  0  0  0  0  0  0  0  0  0  0
  190.3280  177.8080  145.3110 O   0  0  0  0  0  1  0  0  0  0  0  0
  189.1870  175.9530  144.3050 C   0  0  0  0  0  2  0  0  0  0  0  0
  190.3880  173.5990  141.6720 C   0  0  0  0  0  0  0  0  0  0  0  0
  192.9700  176.2370  144.6030 C   0  0  0  0  0  0  0  0  0  0  0  0
  192.6670  174.9300  146.9540 O   0  0  0  0  0  1  0  0  0  0  0  0
  191.4430  175.3410  146.4230 C   0  0  0  0  0  2  0  0  0  0  0  0
  192.3110  169.9810  142.9810 O   0  0  0  0  0  0  0  0  0  0  0  0
  192.6800  169.1480  141.8930 C   0  0  0  0  0  1  0  0  0  0  0  0
  185.7710  176.7530  142.8980 C   0  0  0  0  0  2  0  0  0  0  0  0
  186.1420  178.1630  142.8310 N   0  0  0  0  0  0  0  0  0  0  0  0
  186.4300  178.5130  141.4470 C   0  0  0  0  0  1  0  0  0  0  0  0
  185.0850  179.0130  143.4120 C   0  0  0  0  0  2  0  0  0  0  0  0
  183.9390  178.6950  145.6820 C   0  0  0  0  0  2  0  0  0  0  0  0
  186.3780  178.7970  145.6440 C   0  0  0  0  0  2  0  0  0  0  0  0
  184.4740  178.2060  147.0190 C   0  0  0  0  0  2  0  0  0  0  0  0
  185.9440  178.5850  147.0780 C   0  0  0  0  0  2  0  0  0  0  0  0
  185.1270  179.2700  144.9340 C   0  0  0  0  0  3  0  0  0  0  0  0
  193.8940  176.2780  142.2560 C   0  0  0  0  0  2  0  0  0  0  0  0
  197.9410  175.1480  138.4180 C   0  0  0  0  0  2  0  0  0  0  0  0
  197.0830  174.8930  137.3210 O   0  0  0  0  0  0  0  0  0  0  0  0
  195.8770  174.7980  139.3300 C   0  0  2  0  0  3  0  0  0  0  0  0
  196.4420  175.8520  141.9480 C   0  0  0  0  0  2  0  0  0  0  0  0
  195.0430  173.6280  137.3190 C   0  0  0  0  0  1  0  0  0  0  0  0
  195.0120  175.7610  141.4100 C   0  0  0  0  0  0  0  0  0  0  0  0
  197.0750  175.6270  139.5470 C   0  0  1  0  0  3  0  0  0  0  0  0
  195.7620  174.8580  137.8350 C   0  0  2  0  0  3  0  0  0  0  0  0
  194.7520  175.3450  140.1500 C   0  0  0  0  0  3  0  0  0  0  0  0
  197.5390  175.3630  140.9680 C   0  0  0  0  0  2  0  0  0  0  0  0
  1 16  1  0  0  0  0
  2  3  2  0  0  0  0
  2  7  1  0  0  0  0
  3  4  1  0  0  0  0
  4  9  1  0  0  0  0
  4 16  2  0  0  0  0
  5 26  1  6  0  0  0
  5 15  1  0  0  0  0
  6 20  1  0  0  0  0
  6 13  1  0  0  0  0
  7  1  2  0  0  0  0
  8 13  1  0  0  0  0
  8  5  1  0  0  0  0
  9 35  1  6  0  0  0
  9 21  1  0  0  0  0
 10 23  1  1  0  0  0
 11  2  1  0  0  0  0
 12  3  1  0  0  0  0
 14 10  1  0  0  0  0
 14 18  1  1  0  0  0
 15 19  1  0  0  0  0
 19 14  1  0  0  0  0
 20 11  2  0  0  0  0
 20 12  1  0  0  0  0
 21 10  1  0  0  0  0
 21 17  2  0  0  0  0
 23 22  1  0  0  0  0
 24  7  1  0  0  0  0
 25 24  1  0  0  0  0
 27 26  1  0  0  0  0
 27 29  1  0  0  0  0
 28 27  1  0  0  0  0
 29 34  1  0  0  0  0
 30 32  1  0  0  0  0
 31 33  1  0  0  0  0
 32 33  1  0  0  0  0
 34 31  1  0  0  0  0
 34 30  1  0  0  0  0
 37 43  1  0  0  0  0
 37 36  1  0  0  0  0
 38 42  1  0  0  0  0
 38 44  1  1  0  0  0
 41 39  1  0  0  0  0
 41 35  1  0  0  0  0
 42 36  1  6  0  0  0
 42 45  1  0  0  0  0
 43 40  1  6  0  0  0
 43 38  1  0  0  0  0
 44 41  2  0  0  0  0
 45 39  1  0  0  0  0
M  END
>  <MODEL>
5

>  <REMARK>
 VINA RESULT:      -7.3      1.356      1.709
  Name = 
  8 active torsions:
  status: ('A' for Active; 'I' for Inactive)
    1  A    between atoms: C_7  and  C_11
    2  A    between atoms: C_7  and  N_18
    3  A    between atoms: C_13  and  O_34
    4  A    between atoms: N_18  and  C_22
    5  A    between atoms: C_21  and  C_44
    6  A    between atoms: C_22  and  C_26
    7  A    between atoms: C_23  and  C_44
    8  A    between atoms: C_24  and  C_42
                            x       y       z     vdW  Elec       q    Type
                         _______ _______ _______ _____ _____    ______ ____

>  <TORSDO>
F 8

$$$$
=
 OpenBabel11042414143D

 45 50  0  0  1  0  0  0  0  0999 V2000
  188.2140  177.6790  141.5890 C   0  0  0  0  0  3  0  0  0  0  0  0
  188.3120  175.2950  141.8390 C   0  0  0  0  0  0  0  0  0  0  0  0
  188.8410  175.4390  143.0910 C   0  0  0  0  0  0  0  0  0  0  0  0
  189.1040  176.6990  143.6460 C   0  0  0  0  0  0  0  0  0  0  0  0
  192.2110  170.8570  142.9880 C   0  0  1  0  0  3  0  0  0  0  0  0
  188.9430  171.9170  142.7130 C   0  0  0  0  0  2  0  0  0  0  0  0
  187.9750  176.4050  141.0450 C   0  0  0  0  0  0  0  0  0  0  0  0
  190.7190  170.5980  142.8470 C   0  0  0  0  0  2  0  0  0  0  0  0
  189.7540  176.8890  144.9900 C   0  0  2  0  0  3  0  0  0  0  0  0
  191.8640  175.6830  143.9870 C   0  0  1  0  0  3  0  0  0  0  0  0
  188.2350  173.9910  141.5240 N   0  0  0  0  0  0  0  0  0  0  0  0
  189.1170  174.2350  143.6160 N   0  0  0  0  0  2  0  0  0  0  0  0
  190.1390  171.5990  142.0660 O   0  0  0  0  0  0  0  0  0  0  0  0
  192.3020  174.3400  144.5720 C   0  0  2  0  0  3  0  0  0  0  0  0
  192.4640  171.9000  144.0660 C   0  0  0  0  0  2  0  0  0  0  0  0
  188.7770  177.8260  142.8740 C   0  0  0  0  0  3  0  0  0  0  0  0
  191.9250  177.0630  145.9060 O   0  0  0  0  0  0  0  0  0  0  0  0
  193.5380  174.4400  145.2190 O   0  0  0  0  0  1  0  0  0  0  0  0
  192.3580  173.2940  143.4720 C   0  0  0  0  0  2  0  0  0  0  0  0
  188.7240  173.3860  142.6340 C   0  0  0  0  0  0  0  0  0  0  0  0
  191.2350  176.5860  145.0160 C   0  0  0  0  0  0  0  0  0  0  0  0
  192.3650  177.4750  142.4470 O   0  0  0  0  0  1  0  0  0  0  0  0
  192.9100  176.3810  143.1190 C   0  0  0  0  0  2  0  0  0  0  0  0
  187.4300  176.3110  139.7570 O   0  0  0  0  0  0  0  0  0  0  0  0
  186.4180  177.1720  139.2600 C   0  0  0  0  0  1  0  0  0  0  0  0
  192.9200  169.5580  143.3510 C   0  0  0  0  0  2  0  0  0  0  0  0
  194.1280  169.8420  144.1190 N   0  0  0  0  0  0  0  0  0  0  0  0
  194.2490  168.8640  145.1910 C   0  0  0  0  0  1  0  0  0  0  0  0
  195.3160  169.8600  143.2440 C   0  0  0  0  0  2  0  0  0  0  0  0
  195.7620  172.1190  142.1200 C   0  0  0  0  0  2  0  0  0  0  0  0
  196.2170  171.9290  144.5110 C   0  0  0  0  0  2  0  0  0  0  0  0
  195.9400  173.5140  142.7000 C   0  0  0  0  0  2  0  0  0  0  0  0
  196.5340  173.3480  144.0890 C   0  0  0  0  0  2  0  0  0  0  0  0
  196.1650  171.1490  143.2150 C   0  0  0  0  0  3  0  0  0  0  0  0
  188.9960  176.1660  146.0990 C   0  0  0  0  0  2  0  0  0  0  0  0
  183.7490  178.3120  146.6060 C   0  0  0  0  0  2  0  0  0  0  0  0
  183.6910  178.9450  145.3420 O   0  0  0  0  0  0  0  0  0  0  0  0
  185.9130  178.4320  145.8870 C   0  0  2  0  0  3  0  0  0  0  0  0
  187.0360  176.5620  147.7640 C   0  0  0  0  0  2  0  0  0  0  0  0
  185.4100  180.2270  144.2630 C   0  0  0  0  0  1  0  0  0  0  0  0
  187.7280  176.8820  146.4380 C   0  0  0  0  0  0  0  0  0  0  0  0
  185.0300  177.5280  146.6430 C   0  0  1  0  0  3  0  0  0  0  0  0
  184.9920  178.8660  144.7850 C   0  0  2  0  0  3  0  0  0  0  0  0
  187.1620  177.6960  145.5190 C   0  0  0  0  0  3  0  0  0  0  0  0
  185.6900  177.2960  147.9900 C   0  0  0  0  0  2  0  0  0  0  0  0
  1 16  1  0  0  0  0
  2  3  2  0  0  0  0
  3 12  1  0  0  0  0
  3  4  1  0  0  0  0
  4  9  1  0  0  0  0
  5 26  1  1  0  0  0
  5 15  1  0  0  0  0
  7  1  2  0  0  0  0
  7  2  1  0  0  0  0
  8  5  1  0  0  0  0
  9 21  1  0  0  0  0
  9 35  1  1  0  0  0
 10 23  1  1  0  0  0
 10 14  1  0  0  0  0
 10 21  1  0  0  0  0
 11  2  1  0  0  0  0
 11 20  2  0  0  0  0
 13  6  1  0  0  0  0
 13  8  1  0  0  0  0
 14 18  1  6  0  0  0
 16  4  2  0  0  0  0
 19 15  1  0  0  0  0
 19 14  1  0  0  0  0
 20  6  1  0  0  0  0
 20 12  1  0  0  0  0
 21 17  2  0  0  0  0
 22 23  1  0  0  0  0
 24  7  1  0  0  0  0
 25 24  1  0  0  0  0
 26 27  1  0  0  0  0
 27 28  1  0  0  0  0
 29 27  1  0  0  0  0
 30 32  1  0  0  0  0
 30 34  1  0  0  0  0
 32 33  1  0  0  0  0
 33 31  1  0  0  0  0
 34 29  1  0  0  0  0
 34 31  1  0  0  0  0
 35 41  1  0  0  0  0
 37 36  1  0  0  0  0
 38 44  1  6  0  0  0
 38 42  1  0  0  0  0
 39 45  1  0  0  0  0
 41 39  1  0  0  0  0
 42 36  1  1  0  0  0
 42 45  1  0  0  0  0
 43 40  1  1  0  0  0
 43 37  1  0  0  0  0
 43 38  1  0  0  0  0
 44 41  2  0  0  0  0
M  END
>  <MODEL>
6

>  <REMARK>
 VINA RESULT:      -7.0      2.322      9.094
  Name = 
  8 active torsions:
  status: ('A' for Active; 'I' for Inactive)
    1  A    between atoms: C_7  and  C_11
    2  A    between atoms: C_7  and  N_18
    3  A    between atoms: C_13  and  O_34
    4  A    between atoms: N_18  and  C_22
    5  A    between atoms: C_21  and  C_44
    6  A    between atoms: C_22  and  C_26
    7  A    between atoms: C_23  and  C_44
    8  A    between atoms: C_24  and  C_42
                            x       y       z     vdW  Elec       q    Type
                         _______ _______ _______ _____ _____    ______ ____

>  <TORSDO>
F 8

$$$$
=
 OpenBabel11042414143D

 45 50  0  0  1  0  0  0  0  0999 V2000
  189.6480  175.4170  147.3260 C   0  0  0  0  0  3  0  0  0  0  0  0
  191.5870  176.0860  146.0820 C   0  0  0  0  0  0  0  0  0  0  0  0
  190.9550  175.7720  144.9120 C   0  0  0  0  0  0  0  0  0  0  0  0
  189.6560  175.2480  144.8860 C   0  0  0  0  0  0  0  0  0  0  0  0
  195.5430  173.9730  142.0700 C   0  0  1  0  0  3  0  0  0  0  0  0
  194.1730  176.6670  143.7270 C   0  0  0  0  0  2  0  0  0  0  0  0
  190.9590  175.9260  147.3290 C   0  0  0  0  0  0  0  0  0  0  0  0
  195.5610  175.4230  142.5270 C   0  0  0  0  0  2  0  0  0  0  0  0
  188.9620  174.8230  143.6200 C   0  0  2  0  0  3  0  0  0  0  0  0
  190.8630  173.0280  143.3420 C   0  0  1  0  0  3  0  0  0  0  0  0
  192.8420  176.4930  145.8280 N   0  0  0  0  0  0  0  0  0  0  0  0
  191.7830  175.9700  143.8740 N   0  0  0  0  0  2  0  0  0  0  0  0
  194.9760  175.5260  143.7900 O   0  0  0  0  0  0  0  0  0  0  0  0
  191.8110  173.1260  142.1460 C   0  0  2  0  0  3  0  0  0  0  0  0
  194.1740  173.6170  141.5070 C   0  0  0  0  0  2  0  0  0  0  0  0
  189.0040  175.0770  146.1190 C   0  0  0  0  0  3  0  0  0  0  0  0
  188.7660  172.9020  142.2590 O   0  0  0  0  0  0  0  0  0  0  0  0
  191.6380  172.0550  141.2640 O   0  0  0  0  0  1  0  0  0  0  0  0
  193.2480  173.1900  142.6330 C   0  0  0  0  0  2  0  0  0  0  0  0
  192.9130  176.4160  144.4770 C   0  0  0  0  0  0  0  0  0  0  0  0
  189.4780  173.5320  143.0270 C   0  0  0  0  0  0  0  0  0  0  0  0
  189.8420  171.5990  145.0000 O   0  0  0  0  0  1  0  0  0  0  0  0
  190.8750  171.6830  144.0660 C   0  0  0  0  0  2  0  0  0  0  0  0
  191.5620  176.2320  148.5560 O   0  0  0  0  0  0  0  0  0  0  0  0
  191.5670  177.5280  149.1360 C   0  0  0  0  0  1  0  0  0  0  0  0
  196.6090  173.7640  141.0010 C   0  0  0  0  0  2  0  0  0  0  0  0
  196.3480  174.6280  139.8540 N   0  0  0  0  0  0  0  0  0  0  0  0
  197.3640  175.6700  139.8030 C   0  0  0  0  0  1  0  0  0  0  0  0
  196.2910  173.8420  138.6070 C   0  0  0  0  0  2  0  0  0  0  0  0
  193.9740  172.8450  138.1600 C   0  0  0  0  0  2  0  0  0  0  0  0
  194.2740  175.2390  137.7820 C   0  0  0  0  0  2  0  0  0  0  0  0
  192.6070  173.4980  138.0240 C   0  0  0  0  0  2  0  0  0  0  0  0
  192.8320  174.8960  137.4750 C   0  0  0  0  0  2  0  0  0  0  0  0
  194.9900  173.9040  137.7780 C   0  0  0  0  0  3  0  0  0  0  0  0
  188.9080  175.9500  142.5920 C   0  0  0  0  0  2  0  0  0  0  0  0
  184.9990  179.8010  144.1030 C   0  0  0  0  0  2  0  0  0  0  0  0
  184.9000  179.4320  145.4660 O   0  0  0  0  0  0  0  0  0  0  0  0
  185.9360  177.7230  144.2390 C   0  0  2  0  0  3  0  0  0  0  0  0
  187.2530  177.7390  141.6800 C   0  0  0  0  0  2  0  0  0  0  0  0
  184.8140  177.2150  146.3820 C   0  0  0  0  0  1  0  0  0  0  0  0
  187.7140  176.8220  142.8150 C   0  0  0  0  0  0  0  0  0  0  0  0
  186.1170  178.9910  143.5120 C   0  0  1  0  0  3  0  0  0  0  0  0
  185.6390  178.2320  145.6190 C   0  0  2  0  0  3  0  0  0  0  0  0
  187.1510  176.8720  144.0430 C   0  0  0  0  0  3  0  0  0  0  0  0
  186.0570  178.6600  142.0320 C   0  0  0  0  0  2  0  0  0  0  0  0
  1  7  1  0  0  0  0
  2  7  2  0  0  0  0
  3  2  1  0  0  0  0
  4  3  2  0  0  0  0
  4 16  1  0  0  0  0
  5 26  1  6  0  0  0
  5  8  1  0  0  0  0
  6 13  1  0  0  0  0
  6 20  1  0  0  0  0
  7 24  1  0  0  0  0
  8 13  1  0  0  0  0
  9 35  1  6  0  0  0
  9  4  1  0  0  0  0
 10 23  1  6  0  0  0
 11  2  1  0  0  0  0
 12 20  1  0  0  0  0
 12  3  1  0  0  0  0
 14 18  1  6  0  0  0
 14 19  1  0  0  0  0
 14 10  1  0  0  0  0
 15  5  1  0  0  0  0
 15 19  1  0  0  0  0
 16  1  2  0  0  0  0
 17 21  2  0  0  0  0
 20 11  2  0  0  0  0
 21 10  1  0  0  0  0
 21  9  1  0  0  0  0
 23 22  1  0  0  0  0
 24 25  1  0  0  0  0
 27 26  1  0  0  0  0
 28 27  1  0  0  0  0
 29 27  1  0  0  0  0
 32 30  1  0  0  0  0
 33 31  1  0  0  0  0
 33 32  1  0  0  0  0
 34 31  1  0  0  0  0
 34 30  1  0  0  0  0
 34 29  1  0  0  0  0
 35 41  1  0  0  0  0
 36 37  1  0  0  0  0
 37 43  1  0  0  0  0
 38 44  1  1  0  0  0
 38 43  1  0  0  0  0
 39 45  1  0  0  0  0
 39 41  1  0  0  0  0
 41 44  2  0  0  0  0
 42 45  1  6  0  0  0
 42 36  1  0  0  0  0
 42 38  1  0  0  0  0
 43 40  1  1  0  0  0
M  END
>  <MODEL>
7

>  <REMARK>
 VINA RESULT:      -6.8      2.191      9.295
  Name = 
  8 active torsions:
  status: ('A' for Active; 'I' for Inactive)
    1  A    between atoms: C_7  and  C_11
    2  A    between atoms: C_7  and  N_18
    3  A    between atoms: C_13  and  O_34
    4  A    between atoms: N_18  and  C_22
    5  A    between atoms: C_21  and  C_44
    6  A    between atoms: C_22  and  C_26
    7  A    between atoms: C_23  and  C_44
    8  A    between atoms: C_24  and  C_42
                            x       y       z     vdW  Elec       q    Type
                         _______ _______ _______ _____ _____    ______ ____

>  <TORSDO>
F 8

$$$$
=
 OpenBabel11042414143D

 45 50  0  0  1  0  0  0  0  0999 V2000
  189.9210  175.4540  146.7300 C   0  0  0  0  0  3  0  0  0  0  0  0
  191.5860  176.1480  145.1490 C   0  0  0  0  0  0  0  0  0  0  0  0
  190.7660  175.7930  144.1150 C   0  0  0  0  0  0  0  0  0  0  0  0
  189.4990  175.2340  144.3300 C   0  0  0  0  0  0  0  0  0  0  0  0
  194.8240  174.0590  140.5270 C   0  0  1  0  0  3  0  0  0  0  0  0
  193.6920  176.7490  142.3600 C   0  0  0  0  0  2  0  0  0  0  0  0
  191.1950  175.9970  146.4910 C   0  0  0  0  0  0  0  0  0  0  0  0
  194.8800  175.5180  140.9510 C   0  0  0  0  0  2  0  0  0  0  0  0
  188.6030  174.7650  143.2160 C   0  0  2  0  0  3  0  0  0  0  0  0
  190.4770  173.0160  142.6300 C   0  0  1  0  0  3  0  0  0  0  0  0
  192.7630  176.5830  144.6680 N   0  0  0  0  0  0  0  0  0  0  0  0
  191.3890  175.9920  142.9430 N   0  0  0  0  0  2  0  0  0  0  0  0
  194.5270  175.6310  142.2960 O   0  0  0  0  0  0  0  0  0  0  0  0
  191.1930  173.1150  141.2830 C   0  0  2  0  0  3  0  0  0  0  0  0
  193.3890  173.6550  140.2240 C   0  0  0  0  0  2  0  0  0  0  0  0
  189.0830  175.0710  145.6630 C   0  0  0  0  0  3  0  0  0  0  0  0
  188.2250  172.8110  141.9420 O   0  0  0  0  0  0  0  0  0  0  0  0
  190.8980  172.0210  140.4630 O   0  0  0  0  0  1  0  0  0  0  0  0
  192.6920  173.2270  141.5040 C   0  0  0  0  0  2  0  0  0  0  0  0
  192.5940  176.4800  143.3270 C   0  0  0  0  0  0  0  0  0  0  0  0
  189.0440  173.4750  142.5600 C   0  0  0  0  0  0  0  0  0  0  0  0
  191.6760  171.7650  144.3140 O   0  0  0  0  0  1  0  0  0  0  0  0
  190.6590  171.6860  143.3620 C   0  0  0  0  0  2  0  0  0  0  0  0
  191.9980  176.3450  147.5850 O   0  0  0  0  0  0  0  0  0  0  0  0
  191.5590  177.1530  148.6660 C   0  0  0  0  0  1  0  0  0  0  0  0
  195.6890  173.8570  139.2880 C   0  0  0  0  0  2  0  0  0  0  0  0
  195.5590  172.4870  138.8020 N   0  0  0  0  0  0  0  0  0  0  0  0
  195.9080  172.4500  137.3890 C   0  0  0  0  0  1  0  0  0  0  0  0
  196.3830  171.5640  139.6050 C   0  0  0  0  0  2  0  0  0  0  0  0
  195.6230  170.6550  141.8770 C   0  0  0  0  0  2  0  0  0  0  0  0
  194.2410  170.1480  139.9290 C   0  0  0  0  0  2  0  0  0  0  0  0
  194.2760  170.1300  142.3510 C   0  0  0  0  0  2  0  0  0  0  0  0
  193.5800  169.5290  141.1420 C   0  0  0  0  0  2  0  0  0  0  0  0
  195.6580  170.4390  140.3750 C   0  0  0  0  0  3  0  0  0  0  0  0
  188.3330  175.8680  142.1970 C   0  0  0  0  0  2  0  0  0  0  0  0
  184.2360  179.4090  143.9490 C   0  0  0  0  0  2  0  0  0  0  0  0
  184.4250  179.2280  145.3410 O   0  0  0  0  0  0  0  0  0  0  0  0
  185.4670  177.4960  144.1520 C   0  0  2  0  0  3  0  0  0  0  0  0
  186.3100  177.3010  141.4080 C   0  0  0  0  0  2  0  0  0  0  0  0
  184.8120  177.1700  146.5130 C   0  0  0  0  0  1  0  0  0  0  0  0
  187.0840  176.6160  142.5360 C   0  0  0  0  0  0  0  0  0  0  0  0
  185.3390  178.6600  143.2580 C   0  0  1  0  0  3  0  0  0  0  0  0
  185.3420  178.1580  145.4930 C   0  0  2  0  0  3  0  0  0  0  0  0
  186.7380  176.7750  143.8330 C   0  0  0  0  0  3  0  0  0  0  0  0
  185.0740  178.1160  141.8660 C   0  0  0  0  0  2  0  0  0  0  0  0
  2  7  2  0  0  0  0
  3  4  2  0  0  0  0
  3  2  1  0  0  0  0
  4 16  1  0  0  0  0
  5 26  1  6  0  0  0
  5  8  1  0  0  0  0
  6 20  1  0  0  0  0
  7  1  1  0  0  0  0
  7 24  1  0  0  0  0
  8 13  1  0  0  0  0
  9 35  1  6  0  0  0
  9  4  1  0  0  0  0
 10 23  1  6  0  0  0
 11  2  1  0  0  0  0
 12 20  1  0  0  0  0
 12  3  1  0  0  0  0
 13  6  1  0  0  0  0
 14 18  1  6  0  0  0
 14 19  1  0  0  0  0
 14 10  1  0  0  0  0
 15  5  1  0  0  0  0
 15 19  1  0  0  0  0
 16  1  2  0  0  0  0
 17 21  2  0  0  0  0
 20 11  2  0  0  0  0
 21 10  1  0  0  0  0
 21  9  1  0  0  0  0
 23 22  1  0  0  0  0
 24 25  1  0  0  0  0
 27 26  1  0  0  0  0
 27 29  1  0  0  0  0
 28 27  1  0  0  0  0
 29 34  1  0  0  0  0
 30 32  1  0  0  0  0
 31 34  1  0  0  0  0
 31 33  1  0  0  0  0
 33 32  1  0  0  0  0
 34 30  1  0  0  0  0
 35 41  1  0  0  0  0
 36 37  1  0  0  0  0
 37 43  1  0  0  0  0
 38 44  1  1  0  0  0
 38 43  1  0  0  0  0
 39 45  1  0  0  0  0
 39 41  1  0  0  0  0
 41 44  2  0  0  0  0
 42 45  1  6  0  0  0
 42 36  1  0  0  0  0
 42 38  1  0  0  0  0
 43 40  1  1  0  0  0
M  END
>  <MODEL>
8

>  <REMARK>
 VINA RESULT:      -6.8      2.358      9.478
  Name = 
  8 active torsions:
  status: ('A' for Active; 'I' for Inactive)
    1  A    between atoms: C_7  and  C_11
    2  A    between atoms: C_7  and  N_18
    3  A    between atoms: C_13  and  O_34
    4  A    between atoms: N_18  and  C_22
    5  A    between atoms: C_21  and  C_44
    6  A    between atoms: C_22  and  C_26
    7  A    between atoms: C_23  and  C_44
    8  A    between atoms: C_24  and  C_42
                            x       y       z     vdW  Elec       q    Type
                         _______ _______ _______ _____ _____    ______ ____

>  <TORSDO>
F 8

$$$$
=
 OpenBabel11042414143D

 45 50  0  0  1  0  0  0  0  0999 V2000
  190.8950  172.8720  138.1800 C   0  0  0  0  0  3  0  0  0  0  0  0
  191.0790  171.1270  139.8170 C   0  0  0  0  0  0  0  0  0  0  0  0
  190.8290  172.0260  140.8150 C   0  0  0  0  0  0  0  0  0  0  0  0
  190.6220  173.3880  140.5550 C   0  0  0  0  0  0  0  0  0  0  0  0
  194.1530  169.6560  144.7760 C   0  0  1  0  0  3  0  0  0  0  0  0
  191.4680  169.0880  142.6910 C   0  0  0  0  0  2  0  0  0  0  0  0
  191.1170  171.5130  138.4650 C   0  0  0  0  0  0  0  0  0  0  0  0
  193.0090  168.7990  144.2580 C   0  0  0  0  0  2  0  0  0  0  0  0
  190.4180  174.4130  141.6380 C   0  0  2  0  0  3  0  0  0  0  0  0
  192.8420  173.8220  142.4660 C   0  0  1  0  0  3  0  0  0  0  0  0
  191.3150  169.9150  140.3440 N   0  0  0  0  0  0  0  0  0  0  0  0
  190.8940  171.4170  142.0100 N   0  0  0  0  0  2  0  0  0  0  0  0
  192.8480  169.0080  142.8870 O   0  0  0  0  0  0  0  0  0  0  0  0
  193.0250  173.1930  143.8480 C   0  0  2  0  0  3  0  0  0  0  0  0
  193.6760  171.0820  145.0100 C   0  0  0  0  0  2  0  0  0  0  0  0
  190.6550  173.8010  139.2130 C   0  0  0  0  0  3  0  0  0  0  0  0
  191.7160  175.8260  143.0150 O   0  0  0  0  0  0  0  0  0  0  0  0
  193.6960  174.0570  144.7190 O   0  0  0  0  0  1  0  0  0  0  0  0
  193.7710  171.8770  143.7190 C   0  0  0  0  0  2  0  0  0  0  0  0
  191.1820  170.1360  141.6740 C   0  0  0  0  0  0  0  0  0  0  0  0
  191.6700  174.7660  142.4080 C   0  0  0  0  0  0  0  0  0  0  0  0
  193.9200  174.7240  140.5010 O   0  0  0  0  0  1  0  0  0  0  0  0
  194.1160  174.3890  141.8410 C   0  0  0  0  0  2  0  0  0  0  0  0
  191.3700  170.6320  137.4050 O   0  0  0  0  0  0  0  0  0  0  0  0
  190.3780  169.8220  136.7940 C   0  0  0  0  0  1  0  0  0  0  0  0
  194.6770  169.0680  146.0810 C   0  0  0  0  0  2  0  0  0  0  0  0
  195.8680  169.7910  146.5160 N   0  0  0  0  0  0  0  0  0  0  0  0
  196.5070  169.0470  147.5930 C   0  0  0  0  0  1  0  0  0  0  0  0
  196.7830  170.0280  145.3830 C   0  0  0  0  0  2  0  0  0  0  0  0
  197.4310  171.9640  143.8350 C   0  0  0  0  0  2  0  0  0  0  0  0
  196.8170  172.5040  146.1350 C   0  0  0  0  0  2  0  0  0  0  0  0
  197.1890  173.4620  143.9420 C   0  0  0  0  0  2  0  0  0  0  0  0
  197.1330  173.8010  145.4220 C   0  0  0  0  0  2  0  0  0  0  0  0
  197.4180  171.4290  145.2540 C   0  0  0  0  0  3  0  0  0  0  0  0
  189.2560  174.0490  142.5570 C   0  0  0  0  0  2  0  0  0  0  0  0
  186.2750  178.8450  143.2660 C   0  0  0  0  0  2  0  0  0  0  0  0
  186.3160  178.8750  144.6810 O   0  0  0  0  0  0  0  0  0  0  0  0
  186.8760  176.7360  143.9010 C   0  0  2  0  0  3  0  0  0  0  0  0
  187.7940  175.8190  141.3330 C   0  0  0  0  0  2  0  0  0  0  0  0
  186.0090  177.0390  146.1960 C   0  0  0  0  0  1  0  0  0  0  0  0
  188.2620  175.1630  142.6330 C   0  0  0  0  0  0  0  0  0  0  0  0
  187.1510  177.7070  142.8280 C   0  0  1  0  0  3  0  0  0  0  0  0
  186.8680  177.6390  145.1000 C   0  0  2  0  0  3  0  0  0  0  0  0
  187.8980  175.6440  143.8430 C   0  0  0  0  0  3  0  0  0  0  0  0
  186.8250  177.0150  141.5170 C   0  0  0  0  0  2  0  0  0  0  0  0
  1  7  2  0  0  0  0
  1 16  1  0  0  0  0
  2 11  1  0  0  0  0
  2  3  2  0  0  0  0
  3 12  1  0  0  0  0
  4  3  1  0  0  0  0
  4  9  1  0  0  0  0
  5 15  1  0  0  0  0
  5 26  1  1  0  0  0
  6 13  1  0  0  0  0
  7  2  1  0  0  0  0
  8  5  1  0  0  0  0
  9 21  1  0  0  0  0
  9 35  1  1  0  0  0
 10 23  1  1  0  0  0
 10 14  1  0  0  0  0
 11 20  2  0  0  0  0
 13  8  1  0  0  0  0
 14 18  1  1  0  0  0
 16  4  2  0  0  0  0
 19 14  1  0  0  0  0
 19 15  1  0  0  0  0
 20 12  1  0  0  0  0
 20  6  1  0  0  0  0
 21 10  1  0  0  0  0
 21 17  2  0  0  0  0
 22 23  1  0  0  0  0
 24  7  1  0  0  0  0
 25 24  1  0  0  0  0
 26 27  1  0  0  0  0
 27 28  1  0  0  0  0
 29 27  1  0  0  0  0
 30 32  1  0  0  0  0
 30 34  1  0  0  0  0
 32 33  1  0  0  0  0
 33 31  1  0  0  0  0
 34 29  1  0  0  0  0
 34 31  1  0  0  0  0
 35 41  1  0  0  0  0
 36 37  1  0  0  0  0
 37 43  1  0  0  0  0
 38 44  1  1  0  0  0
 38 43  1  0  0  0  0
 39 45  1  0  0  0  0
 39 41  1  0  0  0  0
 41 44  2  0  0  0  0
 42 45  1  6  0  0  0
 42 36  1  0  0  0  0
 42 38  1  0  0  0  0
 43 40  1  1  0  0  0
M  END
>  <MODEL>
9

>  <REMARK>
 VINA RESULT:      -6.7      3.128      9.072
  Name = 
  8 active torsions:
  status: ('A' for Active; 'I' for Inactive)
    1  A    between atoms: C_7  and  C_11
    2  A    between atoms: C_7  and  N_18
    3  A    between atoms: C_13  and  O_34
    4  A    between atoms: N_18  and  C_22
    5  A    between atoms: C_21  and  C_44
    6  A    between atoms: C_22  and  C_26
    7  A    between atoms: C_23  and  C_44
    8  A    between atoms: C_24  and  C_42
                            x       y       z     vdW  Elec       q    Type
                         _______ _______ _______ _____ _____    ______ ____

>  <TORSDO>
F 8

$$$$
