=
 OpenBabel11042418523D

 26 29  0  0  1  0  0  0  0  0999 V2000
  189.1630  176.5680  142.9100 C   0  0  1  0  0  0  0  0  0  0  0  0
  190.9810  175.3960  144.0210 C   0  0  0  0  0  0  0  0  0  0  0  0
  192.1860  175.3150  146.0500 O   0  0  0  0  0  1  0  0  0  0  0  0
  188.2410  177.6810  143.2620 C   0  0  1  0  0  3  0  0  0  0  0  0
  189.6330  173.7960  145.1350 O   0  0  0  0  0  1  0  0  0  0  0  0
  190.2340  174.0930  143.9110 C   0  0  1  0  0  3  0  0  0  0  0  0
  188.9920  177.6760  142.0620 O   0  0  0  0  0  0  0  0  0  0  0  0
  192.2900  175.6250  144.6930 C   0  0  2  0  0  3  0  0  0  0  0  0
  189.1780  174.0950  142.8100 C   0  0  0  0  0  0  0  0  0  0  0  0
  192.4370  177.1100  144.5300 C   0  0  0  0  0  3  0  0  0  0  0  0
  191.3890  177.6290  143.8950 C   0  0  0  0  0  3  0  0  0  0  0  0
  190.4860  176.5340  143.5920 C   0  0  0  0  0  0  0  0  0  0  0  0
  188.7030  175.2640  142.2960 C   0  0  0  0  0  0  0  0  0  0  0  0
  187.2750  172.5820  142.3090 O   0  0  0  0  0  1  0  0  0  0  0  0
  189.4210  171.8340  142.0810 O   0  0  0  0  0  0  0  0  0  0  0  0
  188.6470  172.7750  142.4040 C   0  0  0  0  0  0  0  0  0  0  0  0
  188.2450  174.9140  139.8960 C   0  0  0  0  0  1  0  0  0  0  0  0
  187.8350  175.3080  141.1980 O   0  0  0  0  0  0  0  0  0  0  0  0
  186.7720  177.3900  142.9650 C   0  0  2  0  0  3  0  0  0  0  0  0
  186.2880  178.2640  141.8210 C   0  0  0  0  0  1  0  0  0  0  0  0
  185.9210  177.5870  144.1820 C   0  0  0  0  0  0  0  0  0  0  0  0
  184.3760  177.9340  146.4940 C   0  0  0  0  0  3  0  0  0  0  0  0
  184.1830  178.7740  145.3940 C   0  0  0  0  0  3  0  0  0  0  0  0
  186.1090  176.7490  145.2870 C   0  0  0  0  0  3  0  0  0  0  0  0
  184.9530  178.6020  144.2400 C   0  0  0  0  0  3  0  0  0  0  0  0
  185.3380  176.9210  146.4410 C   0  0  0  0  0  3  0  0  0  0  0  0
  1  7  1  6  0  0  0
  1  4  1  0  0  0  0
  1 12  1  0  0  0  0
  2  8  1  0  0  0  0
  4 19  1  6  0  0  0
  6  2  1  0  0  0  0
  6  5  1  1  0  0  0
  7  4  1  0  0  0  0
  8  3  1  1  0  0  0
  9  6  1  0  0  0  0
 10  8  1  0  0  0  0
 11 10  2  0  0  0  0
 12 11  1  0  0  0  0
 12  2  2  0  0  0  0
 13  9  2  0  0  0  0
 13  1  1  0  0  0  0
 14 16  1  0  0  0  0
 15 16  2  0  0  0  0
 16  9  1  0  0  0  0
 17 18  1  0  0  0  0
 18 13  1  0  0  0  0
 19 20  1  6  0  0  0
 19 21  1  0  0  0  0
 21 25  2  0  0  0  0
 21 24  1  0  0  0  0
 23 22  2  0  0  0  0
 24 26  2  0  0  0  0
 25 23  1  0  0  0  0
 26 22  1  0  0  0  0
M  END
>  <MODEL>
1

>  <REMARK>
 VINA RESULT:      -7.2      0.000      0.000
  Name = 
  4 active torsions:
  status: ('A' for Active; 'I' for Inactive)
    1  A    between atoms: C_3  and  C_7
    2  A    between atoms: C_6  and  C_7
    3  A    between atoms: O_8  and  C_25
    4  A    between atoms: C_18  and  C_26
                            x       y       z     vdW  Elec       q    Type
                         _______ _______ _______ _____ _____    ______ ____

>  <TORSDO>
F 4

$$$$
=
 OpenBabel11042418523D

 26 29  0  0  1  0  0  0  0  0999 V2000
  189.5670  175.7760  144.4820 C   0  0  1  0  0  0  0  0  0  0  0  0
  188.6200  174.3890  142.7220 C   0  0  0  0  0  0  0  0  0  0  0  0
  187.2420  172.5050  142.3690 O   0  0  0  0  0  1  0  0  0  0  0  0
  189.5270  175.7850  145.9690 C   0  0  1  0  0  3  0  0  0  0  0  0
  186.5470  175.5290  142.5630 O   0  0  0  0  0  1  0  0  0  0  0  0
  187.8820  175.5750  142.1580 C   0  0  1  0  0  3  0  0  0  0  0  0
  190.7440  175.8410  145.2470 O   0  0  0  0  0  0  0  0  0  0  0  0
  188.5480  172.9800  142.2470 C   0  0  2  0  0  3  0  0  0  0  0  0
  188.4940  176.9130  142.5630 C   0  0  0  0  0  0  0  0  0  0  0  0
  189.4240  172.2950  143.2560 C   0  0  0  0  0  3  0  0  0  0  0  0
  189.8920  173.1610  144.1510 C   0  0  0  0  0  3  0  0  0  0  0  0
  189.3680  174.4680  143.7990 C   0  0  0  0  0  0  0  0  0  0  0  0
  189.3330  177.0060  143.6320 C   0  0  0  0  0  0  0  0  0  0  0  0
  186.7980  178.6380  142.0080 O   0  0  0  0  0  1  0  0  0  0  0  0
  188.8350  178.6640  140.9750 O   0  0  0  0  0  0  0  0  0  0  0  0
  188.0580  178.0970  141.7890 C   0  0  0  0  0  0  0  0  0  0  0  0
  191.3420  178.4340  143.5100 C   0  0  0  0  0  1  0  0  0  0  0  0
  190.0160  178.1850  143.9550 O   0  0  0  0  0  0  0  0  0  0  0  0
  189.2110  177.1490  146.5750 C   0  0  2  0  0  3  0  0  0  0  0  0
  189.9420  177.3160  147.8950 C   0  0  0  0  0  1  0  0  0  0  0  0
  187.7350  177.3350  146.7560 C   0  0  0  0  0  0  0  0  0  0  0  0
  184.9850  177.7450  147.1050 C   0  0  0  0  0  3  0  0  0  0  0  0
  185.4370  176.7360  146.2510 C   0  0  0  0  0  3  0  0  0  0  0  0
  187.2770  178.3440  147.6110 C   0  0  0  0  0  3  0  0  0  0  0  0
  186.8080  176.5300  146.0760 C   0  0  0  0  0  3  0  0  0  0  0  0
  185.9040  178.5480  147.7860 C   0  0  0  0  0  3  0  0  0  0  0  0
  1 13  1  6  0  0  0
  1  7  1  0  0  0  0
  1  4  1  0  0  0  0
  2 12  2  0  0  0  0
  4 19  1  6  0  0  0
  6  5  1  1  0  0  0
  6  9  1  0  0  0  0
  6  2  1  0  0  0  0
  7  4  1  0  0  0  0
  8  3  1  1  0  0  0
  8  2  1  0  0  0  0
  8 10  1  0  0  0  0
  9 13  2  0  0  0  0
 10 11  2  0  0  0  0
 12 11  1  0  0  0  0
 12  1  1  0  0  0  0
 13 18  1  0  0  0  0
 15 16  2  0  0  0  0
 16 14  1  0  0  0  0
 16  9  1  0  0  0  0
 17 18  1  0  0  0  0
 19 21  1  0  0  0  0
 19 20  1  1  0  0  0
 21 24  1  0  0  0  0
 22 26  1  0  0  0  0
 23 22  2  0  0  0  0
 24 26  2  0  0  0  0
 25 23  1  0  0  0  0
 25 21  2  0  0  0  0
M  END
>  <MODEL>
2

>  <REMARK>
 VINA RESULT:      -6.5      1.800      4.392
  Name = 
  4 active torsions:
  status: ('A' for Active; 'I' for Inactive)
    1  A    between atoms: C_3  and  C_7
    2  A    between atoms: C_6  and  C_7
    3  A    between atoms: O_8  and  C_25
    4  A    between atoms: C_18  and  C_26
                            x       y       z     vdW  Elec       q    Type
                         _______ _______ _______ _____ _____    ______ ____

>  <TORSDO>
F 4

$$$$
=
 OpenBabel11042418523D

 26 29  0  0  1  0  0  0  0  0999 V2000
  190.0660  174.9950  145.6640 C   0  0  1  0  0  0  0  0  0  0  0  0
  191.6020  173.5250  144.4830 C   0  0  0  0  0  0  0  0  0  0  0  0
  191.8130  172.2370  142.5160 O   0  0  0  0  0  1  0  0  0  0  0  0
  188.6900  175.5100  145.4270 C   0  0  1  0  0  3  0  0  0  0  0  0
  192.5700  175.1940  143.1040 O   0  0  0  0  0  1  0  0  0  0  0  0
  192.6160  174.6350  144.3820 C   0  0  1  0  0  3  0  0  0  0  0  0
  189.0650  174.8960  146.6470 O   0  0  0  0  0  0  0  0  0  0  0  0
  191.7100  172.1570  143.9050 C   0  0  2  0  0  3  0  0  0  0  0  0
  192.4180  175.7290  145.4270 C   0  0  0  0  0  0  0  0  0  0  0  0
  190.3710  171.5870  144.2750 C   0  0  0  0  0  3  0  0  0  0  0  0
  189.6340  172.4800  144.9290 C   0  0  0  0  0  3  0  0  0  0  0  0
  190.4250  173.6910  145.0410 C   0  0  0  0  0  0  0  0  0  0  0  0
  191.2280  175.8730  146.0740 C   0  0  0  0  0  0  0  0  0  0  0  0
  194.4850  176.4080  146.6210 O   0  0  0  0  0  1  0  0  0  0  0  0
  193.7150  177.6540  144.8690 O   0  0  0  0  0  0  0  0  0  0  0  0
  193.5490  176.6620  145.6270 C   0  0  0  0  0  0  0  0  0  0  0  0
  191.4480  176.4720  148.4580 C   0  0  0  0  0  1  0  0  0  0  0  0
  191.0470  176.7760  147.1300 O   0  0  0  0  0  0  0  0  0  0  0  0
  188.5480  177.0170  145.6180 C   0  0  2  0  0  3  0  0  0  0  0  0
  187.8200  177.3130  146.9180 C   0  0  0  0  0  1  0  0  0  0  0  0
  187.8420  177.6490  144.4570 C   0  0  0  0  0  0  0  0  0  0  0  0
  186.5440  178.7860  142.2490 C   0  0  0  0  0  3  0  0  0  0  0  0
  185.9910  178.9160  143.5260 C   0  0  0  0  0  3  0  0  0  0  0  0
  188.3920  177.5230  143.1760 C   0  0  0  0  0  3  0  0  0  0  0  0
  186.6380  178.3500  144.6290 C   0  0  0  0  0  3  0  0  0  0  0  0
  187.7440  178.0900  142.0740 C   0  0  0  0  0  3  0  0  0  0  0  0
  1 12  1  6  0  0  0
  1 13  1  0  0  0  0
  1  7  1  0  0  0  0
  2 12  2  0  0  0  0
  4 19  1  1  0  0  0
  4  1  1  0  0  0  0
  4  7  1  0  0  0  0
  6  5  1  6  0  0  0
  6  2  1  0  0  0  0
  6  9  1  0  0  0  0
  8  3  1  6  0  0  0
  8 10  1  0  0  0  0
  8  2  1  0  0  0  0
  9 16  1  0  0  0  0
  9 13  2  0  0  0  0
 10 11  2  0  0  0  0
 11 12  1  0  0  0  0
 13 18  1  0  0  0  0
 15 16  2  0  0  0  0
 16 14  1  0  0  0  0
 18 17  1  0  0  0  0
 19 20  1  1  0  0  0
 21 25  1  0  0  0  0
 21 19  1  0  0  0  0
 22 23  1  0  0  0  0
 23 25  2  0  0  0  0
 24 21  2  0  0  0  0
 26 22  2  0  0  0  0
 26 24  1  0  0  0  0
M  END
>  <MODEL>
3

>  <REMARK>
 VINA RESULT:      -6.4      2.556      5.067
  Name = 
  4 active torsions:
  status: ('A' for Active; 'I' for Inactive)
    1  A    between atoms: C_3  and  C_7
    2  A    between atoms: C_6  and  C_7
    3  A    between atoms: O_8  and  C_25
    4  A    between atoms: C_18  and  C_26
                            x       y       z     vdW  Elec       q    Type
                         _______ _______ _______ _____ _____    ______ ____

>  <TORSDO>
F 4

$$$$
=
 OpenBabel11042418523D

 26 29  0  0  1  0  0  0  0  0999 V2000
  189.9680  176.8840  144.2830 C   0  0  1  0  0  0  0  0  0  0  0  0
  188.0540  177.3590  145.7080 C   0  0  0  0  0  0  0  0  0  0  0  0
  185.7550  176.8900  145.9630 O   0  0  0  0  0  1  0  0  0  0  0  0
  190.2040  176.0900  143.0470 C   0  0  1  0  0  3  0  0  0  0  0  0
  188.2660  175.4470  147.0940 O   0  0  0  0  0  1  0  0  0  0  0  0
  188.7550  176.7380  146.8880 C   0  0  1  0  0  3  0  0  0  0  0  0
  190.6050  177.4440  143.1620 O   0  0  0  0  0  0  0  0  0  0  0  0
  186.6690  177.9030  145.6730 C   0  0  2  0  0  3  0  0  0  0  0  0
  190.2720  176.6920  146.7310 C   0  0  0  0  0  0  0  0  0  0  0  0
  186.5500  178.2830  144.2240 C   0  0  0  0  0  3  0  0  0  0  0  0
  187.6630  177.9880  143.5590 C   0  0  0  0  0  3  0  0  0  0  0  0
  188.5910  177.4040  144.5090 C   0  0  0  0  0  0  0  0  0  0  0  0
  190.8550  176.8110  145.5060 C   0  0  0  0  0  0  0  0  0  0  0  0
  191.5650  177.4880  148.6940 O   0  0  0  0  0  1  0  0  0  0  0  0
  191.2110  175.2520  148.3890 O   0  0  0  0  0  0  0  0  0  0  0  0
  191.0530  176.4260  147.9600 C   0  0  0  0  0  0  0  0  0  0  0  0
  193.1210  175.8560  145.7160 C   0  0  0  0  0  1  0  0  0  0  0  0
  192.2420  176.9050  145.3350 O   0  0  0  0  0  0  0  0  0  0  0  0
  191.4210  175.1720  143.1200 C   0  0  2  0  0  3  0  0  0  0  0  0
  192.4820  175.6320  142.1360 C   0  0  0  0  0  1  0  0  0  0  0  0
  191.0420  173.7450  142.8650 C   0  0  0  0  0  0  0  0  0  0  0  0
  190.2730  171.0930  142.3890 C   0  0  0  0  0  3  0  0  0  0  0  0
  191.4950  171.5630  141.9000 C   0  0  0  0  0  3  0  0  0  0  0  0
  189.8200  173.2680  143.3530 C   0  0  0  0  0  3  0  0  0  0  0  0
  191.8800  172.8860  142.1370 C   0  0  0  0  0  3  0  0  0  0  0  0
  189.4360  171.9440  143.1150 C   0  0  0  0  0  3  0  0  0  0  0  0
  1  7  1  6  0  0  0
  1 12  1  0  0  0  0
  1 13  1  0  0  0  0
  2  6  1  0  0  0  0
  4 19  1  1  0  0  0
  4  7  1  0  0  0  0
  4  1  1  0  0  0  0
  6  5  1  6  0  0  0
  8  2  1  0  0  0  0
  8  3  1  6  0  0  0
  9  6  1  0  0  0  0
  9 16  1  0  0  0  0
 10  8  1  0  0  0  0
 11 10  2  0  0  0  0
 11 12  1  0  0  0  0
 12  2  2  0  0  0  0
 13  9  2  0  0  0  0
 16 15  2  0  0  0  0
 16 14  1  0  0  0  0
 18 13  1  0  0  0  0
 18 17  1  0  0  0  0
 19 20  1  6  0  0  0
 21 19  1  0  0  0  0
 21 24  1  0  0  0  0
 22 26  1  0  0  0  0
 23 25  1  0  0  0  0
 23 22  2  0  0  0  0
 25 21  2  0  0  0  0
 26 24  2  0  0  0  0
M  END
>  <MODEL>
4

>  <REMARK>
 VINA RESULT:      -6.1      2.481      6.251
  Name = 
  4 active torsions:
  status: ('A' for Active; 'I' for Inactive)
    1  A    between atoms: C_3  and  C_7
    2  A    between atoms: C_6  and  C_7
    3  A    between atoms: O_8  and  C_25
    4  A    between atoms: C_18  and  C_26
                            x       y       z     vdW  Elec       q    Type
                         _______ _______ _______ _____ _____    ______ ____

>  <TORSDO>
F 4

$$$$
=
 OpenBabel11042418523D

 26 29  0  0  1  0  0  0  0  0999 V2000
  190.5510  174.8610  145.0560 C   0  0  1  0  0  0  0  0  0  0  0  0
  191.2120  173.1100  143.5020 C   0  0  0  0  0  0  0  0  0  0  0  0
  190.3410  171.6100  141.9020 O   0  0  0  0  0  1  0  0  0  0  0  0
  189.2700  175.5020  145.4560 C   0  0  1  0  0  3  0  0  0  0  0  0
  191.4290  174.5050  141.5970 O   0  0  0  0  0  1  0  0  0  0  0  0
  192.0880  174.0800  142.7530 C   0  0  1  0  0  3  0  0  0  0  0  0
  190.1790  174.9790  146.4070 O   0  0  0  0  0  0  0  0  0  0  0  0
  190.9500  171.6860  143.1550 C   0  0  2  0  0  3  0  0  0  0  0  0
  192.4940  175.2920  143.5850 C   0  0  0  0  0  0  0  0  0  0  0  0
  189.9550  171.3140  144.2170 C   0  0  0  0  0  3  0  0  0  0  0  0
  189.6900  172.3490  145.0090 C   0  0  0  0  0  3  0  0  0  0  0  0
  190.4860  173.4670  144.5370 C   0  0  0  0  0  0  0  0  0  0  0  0
  191.8020  175.6380  144.7060 C   0  0  0  0  0  0  0  0  0  0  0  0
  194.8510  176.0630  143.6910 O   0  0  0  0  0  1  0  0  0  0  0  0
  193.4850  176.7920  142.0130 O   0  0  0  0  0  0  0  0  0  0  0  0
  193.6140  176.1050  143.0610 C   0  0  0  0  0  0  0  0  0  0  0  0
  193.0630  176.4080  146.6820 C   0  0  0  0  0  1  0  0  0  0  0  0
  192.2200  176.6600  145.5670 O   0  0  0  0  0  0  0  0  0  0  0  0
  189.3140  177.0280  145.4680 C   0  0  2  0  0  3  0  0  0  0  0  0
  189.1610  177.5440  146.8880 C   0  0  0  0  0  1  0  0  0  0  0  0
  188.2630  177.6110  144.5730 C   0  0  0  0  0  0  0  0  0  0  0  0
  186.2790  178.7380  142.9470 C   0  0  0  0  0  3  0  0  0  0  0  0
  187.4620  178.2620  142.3750 C   0  0  0  0  0  3  0  0  0  0  0  0
  187.0760  178.0880  145.1400 C   0  0  0  0  0  3  0  0  0  0  0  0
  188.4530  177.6990  143.1850 C   0  0  0  0  0  3  0  0  0  0  0  0
  186.0860  178.6510  144.3280 C   0  0  0  0  0  3  0  0  0  0  0  0
  1 12  1  6  0  0  0
  1  4  1  0  0  0  0
  1  7  1  0  0  0  0
  2 12  2  0  0  0  0
  4 19  1  1  0  0  0
  4  7  1  0  0  0  0
  6  5  1  6  0  0  0
  6  2  1  0  0  0  0
  6  9  1  0  0  0  0
  8  3  1  6  0  0  0
  8  2  1  0  0  0  0
  8 10  1  0  0  0  0
  9 13  2  0  0  0  0
 10 11  2  0  0  0  0
 12 11  1  0  0  0  0
 13  1  1  0  0  0  0
 13 18  1  0  0  0  0
 15 16  2  0  0  0  0
 16  9  1  0  0  0  0
 16 14  1  0  0  0  0
 18 17  1  0  0  0  0
 19 20  1  1  0  0  0
 21 24  1  0  0  0  0
 21 19  1  0  0  0  0
 22 26  1  0  0  0  0
 23 22  2  0  0  0  0
 23 25  1  0  0  0  0
 25 21  2  0  0  0  0
 26 24  2  0  0  0  0
M  END
>  <MODEL>
5

>  <REMARK>
 VINA RESULT:      -6.0      2.204      4.860
  Name = 
  4 active torsions:
  status: ('A' for Active; 'I' for Inactive)
    1  A    between atoms: C_3  and  C_7
    2  A    between atoms: C_6  and  C_7
    3  A    between atoms: O_8  and  C_25
    4  A    between atoms: C_18  and  C_26
                            x       y       z     vdW  Elec       q    Type
                         _______ _______ _______ _____ _____    ______ ____

>  <TORSDO>
F 4

$$$$
=
 OpenBabel11042418523D

 26 29  0  0  1  0  0  0  0  0999 V2000
  190.8920  176.2090  143.9550 C   0  0  1  0  0  0  0  0  0  0  0  0
  188.9450  175.5500  142.6540 C   0  0  0  0  0  0  0  0  0  0  0  0
  188.0010  175.7100  140.4960 O   0  0  0  0  0  1  0  0  0  0  0  0
  192.1320  176.9900  143.6950 C   0  0  1  0  0  3  0  0  0  0  0  0
  189.8840  173.5730  141.7420 O   0  0  0  0  0  1  0  0  0  0  0  0
  189.2640  174.0950  142.8790 C   0  0  1  0  0  3  0  0  0  0  0  0
  191.2830  177.2650  144.7960 O   0  0  0  0  0  0  0  0  0  0  0  0
  187.8430  176.1090  141.8240 C   0  0  2  0  0  3  0  0  0  0  0  0
  190.1470  173.8530  144.1000 C   0  0  0  0  0  0  0  0  0  0  0  0
  188.1180  177.5810  141.9400 C   0  0  0  0  0  3  0  0  0  0  0  0
  189.1940  177.8090  142.6870 C   0  0  0  0  0  3  0  0  0  0  0  0
  189.7000  176.5200  143.1180 C   0  0  0  0  0  0  0  0  0  0  0  0
  190.8820  174.8620  144.6450 C   0  0  0  0  0  0  0  0  0  0  0  0
  191.3000  171.6600  144.2380 O   0  0  0  0  0  0  0  0  0  0  0  0
  189.3520  172.0010  145.3800 O   0  0  0  0  0  1  0  0  0  0  0  0
  190.2210  172.4600  144.5920 C   0  0  0  0  0  0  0  0  0  0  0  0
  191.0740  175.1370  147.0900 C   0  0  0  0  0  1  0  0  0  0  0  0
  191.5980  174.7140  145.8390 O   0  0  0  0  0  0  0  0  0  0  0  0
  193.4100  176.3060  144.1740 C   0  0  2  0  0  3  0  0  0  0  0  0
  194.0090  177.0750  145.3390 C   0  0  0  0  0  1  0  0  0  0  0  0
  194.4030  176.1680  143.0610 C   0  0  0  0  0  0  0  0  0  0  0  0
  196.2180  175.9340  140.9390 C   0  0  0  0  0  3  0  0  0  0  0  0
  196.6870  176.1460  142.2380 C   0  0  0  0  0  3  0  0  0  0  0  0
  193.9390  175.9550  141.7580 C   0  0  0  0  0  3  0  0  0  0  0  0
  195.7830  176.2630  143.2970 C   0  0  0  0  0  3  0  0  0  0  0  0
  194.8440  175.8380  140.6980 C   0  0  0  0  0  3  0  0  0  0  0  0
  1 12  1  6  0  0  0
  1 13  1  0  0  0  0
  1  7  1  0  0  0  0
  2  6  1  0  0  0  0
  2 12  2  0  0  0  0
  4  1  1  0  0  0  0
  4 19  1  1  0  0  0
  4  7  1  0  0  0  0
  6  5  1  6  0  0  0
  6  9  1  0  0  0  0
  8  3  1  6  0  0  0
  8 10  1  0  0  0  0
  8  2  1  0  0  0  0
  9 16  1  0  0  0  0
  9 13  2  0  0  0  0
 10 11  2  0  0  0  0
 11 12  1  0  0  0  0
 13 18  1  0  0  0  0
 14 16  2  0  0  0  0
 16 15  1  0  0  0  0
 18 17  1  0  0  0  0
 19 20  1  1  0  0  0
 21 25  1  0  0  0  0
 21 19  1  0  0  0  0
 22 23  1  0  0  0  0
 23 25  2  0  0  0  0
 24 21  2  0  0  0  0
 26 22  2  0  0  0  0
 26 24  1  0  0  0  0
M  END
>  <MODEL>
6

>  <REMARK>
 VINA RESULT:      -6.0      2.619      6.726
  Name = 
  4 active torsions:
  status: ('A' for Active; 'I' for Inactive)
    1  A    between atoms: C_3  and  C_7
    2  A    between atoms: C_6  and  C_7
    3  A    between atoms: O_8  and  C_25
    4  A    between atoms: C_18  and  C_26
                            x       y       z     vdW  Elec       q    Type
                         _______ _______ _______ _____ _____    ______ ____

>  <TORSDO>
F 4

$$$$
=
 OpenBabel11042418523D

 26 29  0  0  1  0  0  0  0  0999 V2000
  189.9640  174.5580  143.7400 C   0  0  1  0  0  0  0  0  0  0  0  0
  188.7490  175.9280  145.3420 C   0  0  0  0  0  0  0  0  0  0  0  0
  189.0200  177.1260  147.3570 O   0  0  0  0  0  1  0  0  0  0  0  0
  191.3570  174.0510  143.6130 C   0  0  1  0  0  3  0  0  0  0  0  0
  189.3230  178.0250  144.3970 O   0  0  0  0  0  1  0  0  0  0  0  0
  188.4480  176.9450  144.2720 C   0  0  1  0  0  3  0  0  0  0  0  0
  190.2310  173.1970  143.5130 O   0  0  0  0  0  0  0  0  0  0  0  0
  188.3990  176.0150  146.7860 C   0  0  2  0  0  3  0  0  0  0  0  0
  188.5350  176.3770  142.8590 C   0  0  0  0  0  0  0  0  0  0  0  0
  189.0380  174.7610  147.3090 C   0  0  0  0  0  3  0  0  0  0  0  0
  189.6540  174.0950  146.3360 C   0  0  0  0  0  3  0  0  0  0  0  0
  189.4650  174.8500  145.1120 C   0  0  0  0  0  0  0  0  0  0  0  0
  189.2090  175.2200  142.6080 C   0  0  0  0  0  0  0  0  0  0  0  0
  188.5960  178.3110  141.3050 O   0  0  0  0  0  1  0  0  0  0  0  0
  186.8380  176.8540  141.2480 O   0  0  0  0  0  0  0  0  0  0  0  0
  187.9270  177.1920  141.7840 C   0  0  0  0  0  0  0  0  0  0  0  0
  188.2740  173.5720  141.0260 C   0  0  0  0  0  1  0  0  0  0  0  0
  189.2000  174.5990  141.3530 O   0  0  0  0  0  0  0  0  0  0  0  0
  191.9750  174.2690  142.2350 C   0  0  2  0  0  3  0  0  0  0  0  0
  192.1700  172.9370  141.5320 C   0  0  0  0  0  1  0  0  0  0  0  0
  193.2720  175.0140  142.3320 C   0  0  0  0  0  0  0  0  0  0  0  0
  195.7070  176.3810  142.5700 C   0  0  0  0  0  3  0  0  0  0  0  0
  195.2270  176.0240  141.3060 C   0  0  0  0  0  3  0  0  0  0  0  0
  193.7560  175.3740  143.5950 C   0  0  0  0  0  3  0  0  0  0  0  0
  194.0130  175.3430  141.1860 C   0  0  0  0  0  3  0  0  0  0  0  0
  194.9720  176.0560  143.7140 C   0  0  0  0  0  3  0  0  0  0  0  0
  1 13  1  6  0  0  0
  1 12  1  0  0  0  0
  2  8  1  0  0  0  0
  4 19  1  6  0  0  0
  4  1  1  0  0  0  0
  6  5  1  6  0  0  0
  6  2  1  0  0  0  0
  7  4  1  0  0  0  0
  7  1  1  0  0  0  0
  8 10  1  0  0  0  0
  8  3  1  1  0  0  0
  9  6  1  0  0  0  0
 11 10  2  0  0  0  0
 12  2  2  0  0  0  0
 12 11  1  0  0  0  0
 13  9  2  0  0  0  0
 14 16  1  0  0  0  0
 15 16  2  0  0  0  0
 16  9  1  0  0  0  0
 17 18  1  0  0  0  0
 18 13  1  0  0  0  0
 19 20  1  1  0  0  0
 19 21  1  0  0  0  0
 21 24  1  0  0  0  0
 22 26  1  0  0  0  0
 23 22  2  0  0  0  0
 24 26  2  0  0  0  0
 25 23  1  0  0  0  0
 25 21  2  0  0  0  0
M  END
>  <MODEL>
7

>  <REMARK>
 VINA RESULT:      -6.0      2.492      6.200
  Name = 
  4 active torsions:
  status: ('A' for Active; 'I' for Inactive)
    1  A    between atoms: C_3  and  C_7
    2  A    between atoms: C_6  and  C_7
    3  A    between atoms: O_8  and  C_25
    4  A    between atoms: C_18  and  C_26
                            x       y       z     vdW  Elec       q    Type
                         _______ _______ _______ _____ _____    ______ ____

>  <TORSDO>
F 4

$$$$
=
 OpenBabel11042418523D

 26 29  0  0  1  0  0  0  0  0999 V2000
  195.4590  173.9970  144.8660 C   0  0  1  0  0  0  0  0  0  0  0  0
  195.9760  171.8760  143.7930 C   0  0  0  0  0  0  0  0  0  0  0  0
  195.5770  169.5560  143.9560 O   0  0  0  0  0  1  0  0  0  0  0  0
  194.6750  174.4260  146.0550 C   0  0  1  0  0  3  0  0  0  0  0  0
  194.0410  171.7840  142.4270 O   0  0  0  0  0  1  0  0  0  0  0  0
  195.3180  172.3390  142.5190 C   0  0  1  0  0  3  0  0  0  0  0  0
  196.0130  174.8400  145.8460 O   0  0  0  0  0  0  0  0  0  0  0  0
  196.5650  170.5360  144.0620 C   0  0  2  0  0  3  0  0  0  0  0  0
  195.2260  173.8580  142.4050 C   0  0  0  0  0  0  0  0  0  0  0  0
  196.9660  170.6860  145.5020 C   0  0  0  0  0  3  0  0  0  0  0  0
  196.6450  171.8910  145.9650 C   0  0  0  0  0  3  0  0  0  0  0  0
  196.0190  172.6180  144.8760 C   0  0  0  0  0  0  0  0  0  0  0  0
  195.3420  174.6520  143.5060 C   0  0  0  0  0  0  0  0  0  0  0  0
  193.6230  174.7960  140.7580 O   0  0  0  0  0  1  0  0  0  0  0  0
  195.8280  174.5680  140.2070 O   0  0  0  0  0  0  0  0  0  0  0  0
  194.9200  174.4000  141.0630 C   0  0  0  0  0  0  0  0  0  0  0  0
  196.6140  176.7460  143.2160 C   0  0  0  0  0  1  0  0  0  0  0  0
  195.3950  176.0490  143.4270 O   0  0  0  0  0  0  0  0  0  0  0  0
  193.7180  175.5840  145.7840 C   0  0  2  0  0  3  0  0  0  0  0  0
  194.1190  176.7960  146.6060 C   0  0  0  0  0  1  0  0  0  0  0  0
  192.2990  175.1950  146.0680 C   0  0  0  0  0  0  0  0  0  0  0  0
  189.6380  174.5190  146.6320 C   0  0  0  0  0  3  0  0  0  0  0  0
  190.2190  174.1180  145.4260 C   0  0  0  0  0  3  0  0  0  0  0  0
  191.7120  175.5930  147.2750 C   0  0  0  0  0  3  0  0  0  0  0  0
  191.5460  174.4540  145.1430 C   0  0  0  0  0  3  0  0  0  0  0  0
  190.3850  175.2560  147.5570 C   0  0  0  0  0  3  0  0  0  0  0  0
  1 13  1  6  0  0  0
  1 12  1  0  0  0  0
  1  7  1  0  0  0  0
  1  4  1  0  0  0  0
  2  8  1  0  0  0  0
  2 12  2  0  0  0  0
  4 19  1  6  0  0  0
  6  5  1  1  0  0  0
  6  2  1  0  0  0  0
  7  4  1  0  0  0  0
  8  3  1  1  0  0  0
  8 10  1  0  0  0  0
  9  6  1  0  0  0  0
  9 13  2  0  0  0  0
 10 11  2  0  0  0  0
 12 11  1  0  0  0  0
 14 16  1  0  0  0  0
 15 16  2  0  0  0  0
 16  9  1  0  0  0  0
 17 18  1  0  0  0  0
 18 13  1  0  0  0  0
 19 21  1  0  0  0  0
 19 20  1  1  0  0  0
 21 24  1  0  0  0  0
 22 26  1  0  0  0  0
 23 22  2  0  0  0  0
 24 26  2  0  0  0  0
 25 23  1  0  0  0  0
 25 21  2  0  0  0  0
M  END
>  <MODEL>
8

>  <REMARK>
 VINA RESULT:      -5.9      4.786      7.189
  Name = 
  4 active torsions:
  status: ('A' for Active; 'I' for Inactive)
    1  A    between atoms: C_3  and  C_7
    2  A    between atoms: C_6  and  C_7
    3  A    between atoms: O_8  and  C_25
    4  A    between atoms: C_18  and  C_26
                            x       y       z     vdW  Elec       q    Type
                         _______ _______ _______ _____ _____    ______ ____

>  <TORSDO>
F 4

$$$$
=
 OpenBabel11042418523D

 26 29  0  0  1  0  0  0  0  0999 V2000
  187.9790  177.3520  144.1300 C   0  0  1  0  0  0  0  0  0  0  0  0
  187.4860  177.2850  146.5110 C   0  0  0  0  0  0  0  0  0  0  0  0
  185.9300  176.4400  148.0720 O   0  0  0  0  0  1  0  0  0  0  0  0
  187.3380  176.8260  142.8950 C   0  0  1  0  0  3  0  0  0  0  0  0
  188.5590  175.2170  146.9530 O   0  0  0  0  0  1  0  0  0  0  0  0
  188.7920  176.5820  146.7810 C   0  0  1  0  0  3  0  0  0  0  0  0
  187.7170  178.1840  143.0280 O   0  0  0  0  0  0  0  0  0  0  0  0
  186.4240  177.6140  147.5020 C   0  0  2  0  0  3  0  0  0  0  0  0
  189.8260  176.7900  145.6790 C   0  0  0  0  0  0  0  0  0  0  0  0
  185.3780  178.2140  146.6070 C   0  0  0  0  0  3  0  0  0  0  0  0
  185.7730  178.2070  145.3370 C   0  0  0  0  0  3  0  0  0  0  0  0
  187.0970  177.6130  145.3010 C   0  0  0  0  0  0  0  0  0  0  0  0
  189.4540  177.2030  144.4360 C   0  0  0  0  0  0  0  0  0  0  0  0
  191.7870  176.8990  147.1960 O   0  0  0  0  0  1  0  0  0  0  0  0
  191.8970  175.6720  145.2730 O   0  0  0  0  0  0  0  0  0  0  0  0
  191.2240  176.4380  146.0140 C   0  0  0  0  0  0  0  0  0  0  0  0
  191.1910  178.6960  143.5180 C   0  0  0  0  0  1  0  0  0  0  0  0
  190.3820  177.5320  143.4400 O   0  0  0  0  0  0  0  0  0  0  0  0
  188.2990  176.1010  141.9560 C   0  0  2  0  0  3  0  0  0  0  0  0
  187.8140  176.2170  140.5220 C   0  0  0  0  0  1  0  0  0  0  0  0
  188.4620  174.6640  142.3480 C   0  0  0  0  0  0  0  0  0  0  0  0
  188.7340  171.9600  143.0300 C   0  0  0  0  0  3  0  0  0  0  0  0
  189.7360  172.8710  143.3770 C   0  0  0  0  0  3  0  0  0  0  0  0
  187.4620  173.7470  142.0050 C   0  0  0  0  0  3  0  0  0  0  0  0
  189.6020  174.2200  143.0370 C   0  0  0  0  0  3  0  0  0  0  0  0
  187.5970  172.3980  142.3450 C   0  0  0  0  0  3  0  0  0  0  0  0
  1  7  1  6  0  0  0
  1 13  1  0  0  0  0
  1 12  1  0  0  0  0
  2  6  1  0  0  0  0
  2  8  1  0  0  0  0
  4 19  1  6  0  0  0
  4  7  1  0  0  0  0
  4  1  1  0  0  0  0
  6  5  1  6  0  0  0
  8  3  1  6  0  0  0
  9 16  1  0  0  0  0
  9  6  1  0  0  0  0
 10  8  1  0  0  0  0
 11 10  2  0  0  0  0
 12 11  1  0  0  0  0
 12  2  2  0  0  0  0
 13  9  2  0  0  0  0
 15 16  2  0  0  0  0
 16 14  1  0  0  0  0
 18 17  1  0  0  0  0
 18 13  1  0  0  0  0
 19 20  1  6  0  0  0
 19 21  1  0  0  0  0
 21 25  1  0  0  0  0
 22 23  1  0  0  0  0
 24 26  1  0  0  0  0
 24 21  2  0  0  0  0
 25 23  2  0  0  0  0
 26 22  2  0  0  0  0
M  END
>  <MODEL>
9

>  <REMARK>
 VINA RESULT:      -5.9      2.171      5.289
  Name = 
  4 active torsions:
  status: ('A' for Active; 'I' for Inactive)
    1  A    between atoms: C_3  and  C_7
    2  A    between atoms: C_6  and  C_7
    3  A    between atoms: O_8  and  C_25
    4  A    between atoms: C_18  and  C_26
                            x       y       z     vdW  Elec       q    Type
                         _______ _______ _______ _____ _____    ______ ____

>  <TORSDO>
F 4

$$$$
