=
 OpenBabel11042418103D

 40 44  0  0  1  0  0  0  0  0999 V2000
  185.7590  179.8660  144.8500 F   0  0  0  0  0  0  0  0  0  0  0  0
  188.6880  173.8920  143.1130 C   0  0  0  0  0  3  0  0  0  0  0  0
  190.6130  175.6130  142.1570 N   0  0  0  0  0  0  0  0  0  0  0  0
  187.1940  175.7160  143.6670 N   0  0  0  0  0  2  0  0  0  0  0  0
  186.1820  176.7450  145.6140 C   0  0  1  0  0  3  0  0  0  0  0  0
  189.2060  177.5740  142.3810 C   0  0  0  0  0  0  0  0  0  0  0  0
  187.0360  178.8580  142.6650 C   0  0  0  0  0  2  0  0  0  0  0  0
  189.9060  173.3920  142.6590 C   0  0  0  0  0  3  0  0  0  0  0  0
  185.2130  178.6610  144.4260 C   0  0  1  0  0  0  0  0  0  0  0  0
  190.8730  174.2810  142.1930 C   0  0  0  0  0  3  0  0  0  0  0  0
  188.4340  175.2640  143.1000 C   0  0  0  0  0  0  0  0  0  0  0  0
  186.1570  177.9150  143.4860 C   0  0  2  0  0  3  0  0  0  0  0  0
  185.0460  177.7640  145.6380 C   0  0  0  0  0  2  0  0  0  0  0  0
  189.4260  176.1320  142.5730 C   0  0  0  0  0  0  0  0  0  0  0  0
  190.1050  178.3870  142.7240 O   0  0  0  0  0  0  0  0  0  0  0  0
  186.9900  176.9870  144.3540 C   0  0  2  0  0  3  0  0  0  0  0  0
  187.9620  178.0840  141.7910 C   0  0  0  0  0  0  0  0  0  0  0  0
  187.5060  177.5790  140.6490 C   0  0  0  0  0  2  0  0  0  0  0  0
  187.0770  176.9050  146.8350 C   0  0  0  0  0  2  0  0  0  0  0  0
  189.8390  177.3190  146.2870 O   0  0  0  0  0  0  0  0  0  0  0  0
  189.4680  176.1490  146.5770 C   0  0  0  0  0  0  0  0  0  0  0  0
  188.0940  175.8670  146.8400 N   0  0  0  0  0  2  0  0  0  0  0  0
  190.4650  175.0450  146.6030 C   0  0  0  0  0  2  0  0  0  0  0  0
  191.7570  175.5800  146.6890 O   0  0  0  0  0  0  0  0  0  0  0  0
  193.9340  174.2560  143.7020 O   0  0  0  0  0  0  0  0  0  0  0  0
  192.7050  177.2620  144.5320 N   0  0  0  0  0  1  0  0  0  0  0  0
  194.2320  176.6590  146.3170 C   0  0  0  0  0  1  0  0  0  0  0  0
  193.0580  173.8610  145.9340 C   0  0  0  0  0  2  0  0  0  0  0  0
  194.3610  175.5350  144.1120 C   0  0  0  0  0  2  0  0  0  0  0  0
  194.0310  173.4210  144.8290 C   0  0  0  0  0  2  0  0  0  0  0  0
  193.3970  176.1400  145.1470 C   0  0  2  0  0  0  0  0  0  0  0  0
  192.4020  175.1290  145.5810 N   0  0  0  0  0  0  0  0  0  0  0  0
  183.8380  178.8780  143.7920 C   0  0  0  0  0  2  0  0  0  0  0  0
  183.6930  178.2430  142.4090 C   0  0  0  0  0  2  0  0  0  0  0  0
  182.0020  177.9000  140.7180 N   0  0  0  0  0  0  0  0  0  0  0  0
  179.9780  179.1880  142.1670 C   0  0  0  0  0  3  0  0  0  0  0  0
  181.3340  179.1480  142.6170 N   0  0  0  0  0  2  0  0  0  0  0  0
  179.6500  178.6600  140.9890 C   0  0  0  0  0  3  0  0  0  0  0  0
  180.6920  178.0660  140.0750 C   0  0  0  0  0  2  0  0  0  0  0  0
  182.3180  178.4370  141.8590 C   0  0  0  0  0  0  0  0  0  0  0  0
  3 10  2  0  0  0  0
  3 14  1  0  0  0  0
  5 13  1  0  0  0  0
  5 19  1  1  0  0  0
  6 14  1  0  0  0  0
  6 15  2  0  0  0  0
  8  2  2  0  0  0  0
  9  1  1  1  0  0  0
  9 13  1  0  0  0  0
 10  8  1  0  0  0  0
 11  2  1  0  0  0  0
 11  4  1  0  0  0  0
 12  7  1  1  0  0  0
 12 16  1  0  0  0  0
 12  9  1  0  0  0  0
 14 11  2  0  0  0  0
 16  4  1  6  0  0  0
 16  5  1  0  0  0  0
 17  6  1  0  0  0  0
 17  7  1  0  0  0  0
 18 17  2  0  0  0  0
 19 22  1  0  0  0  0
 20 21  2  0  0  0  0
 21 23  1  0  0  0  0
 21 22  1  0  0  0  0
 23 24  1  0  0  0  0
 25 29  1  0  0  0  0
 25 30  1  0  0  0  0
 26 31  1  0  0  0  0
 29 31  1  0  0  0  0
 30 28  1  0  0  0  0
 31 32  1  0  0  0  0
 31 27  1  1  0  0  0
 32 28  1  0  0  0  0
 32 24  1  0  0  0  0
 33  9  1  0  0  0  0
 34 33  1  0  0  0  0
 35 40  2  0  0  0  0
 36 37  1  0  0  0  0
 38 36  2  0  0  0  0
 39 35  1  0  0  0  0
 39 38  1  0  0  0  0
 40 34  1  0  0  0  0
 40 37  1  0  0  0  0
M  END
>  <MODEL>
1

>  <REMARK>
 VINA RESULT:      -8.1      0.000      0.000
  Name = 
  8 active torsions:
  status: ('A' for Active; 'I' for Inactive)
    1  A    between atoms: C_3  and  C_14
    2  A    between atoms: C_3  and  N_38
    3  A    between atoms: O_4  and  C_16
    4  A    between atoms: O_4  and  N_37
    5  A    between atoms: C_12  and  C_33
    6  A    between atoms: C_12  and  C_40
    7  A    between atoms: C_16  and  C_21
    8  A    between atoms: C_22  and  C_33
                            x       y       z     vdW  Elec       q    Type
                         _______ _______ _______ _____ _____    ______ ____

>  <TORSDO>
F 8

$$$$
=
 OpenBabel11042418103D

 40 44  0  0  1  0  0  0  0  0999 V2000
  190.1790  175.8990  146.1800 F   0  0  0  0  0  0  0  0  0  0  0  0
  191.8540  173.7340  139.8720 C   0  0  0  0  0  3  0  0  0  0  0  0
  189.8870  171.8960  140.4540 N   0  0  0  0  0  0  0  0  0  0  0  0
  191.7810  174.6640  142.1070 N   0  0  0  0  0  2  0  0  0  0  0  0
  191.2100  176.7380  143.2250 C   0  0  1  0  0  3  0  0  0  0  0  0
  189.8100  172.4770  142.8050 C   0  0  0  0  0  0  0  0  0  0  0  0
  190.6360  173.4980  144.9770 C   0  0  0  0  0  2  0  0  0  0  0  0
  191.3910  172.8720  138.8820 C   0  0  0  0  0  3  0  0  0  0  0  0
  191.3950  175.8650  145.5110 C   0  0  1  0  0  0  0  0  0  0  0  0
  190.3850  171.9590  139.1920 C   0  0  0  0  0  3  0  0  0  0  0  0
  191.3220  173.6850  141.1610 C   0  0  0  0  0  0  0  0  0  0  0  0
  191.4630  174.7020  144.5240 C   0  0  2  0  0  3  0  0  0  0  0  0
  191.5090  177.1230  144.6700 C   0  0  0  0  0  2  0  0  0  0  0  0
  190.3330  172.7090  141.4500 C   0  0  0  0  0  0  0  0  0  0  0  0
  188.5700  172.3330  142.9730 O   0  0  0  0  0  0  0  0  0  0  0  0
  190.9850  175.2380  143.1860 C   0  0  2  0  0  3  0  0  0  0  0  0
  190.7050  172.4040  143.9670 C   0  0  0  0  0  0  0  0  0  0  0  0
  191.7720  171.6120  143.9410 C   0  0  0  0  0  2  0  0  0  0  0  0
  189.9660  177.4570  142.7210 C   0  0  0  0  0  2  0  0  0  0  0  0
  187.2970  178.1410  142.0080 O   0  0  0  0  0  0  0  0  0  0  0  0
  187.4670  177.1310  142.7430 C   0  0  0  0  0  0  0  0  0  0  0  0
  188.7760  176.7460  143.1580 N   0  0  0  0  0  2  0  0  0  0  0  0
  186.2870  176.3590  143.2180 C   0  0  0  0  0  2  0  0  0  0  0  0
  185.3610  177.2300  143.8080 O   0  0  0  0  0  0  0  0  0  0  0  0
  186.6960  178.3050  147.3400 O   0  0  0  0  0  0  0  0  0  0  0  0
  185.7920  179.9850  144.5850 N   0  0  0  0  0  1  0  0  0  0  0  0
  183.7920  178.8420  145.3460 C   0  0  0  0  0  1  0  0  0  0  0  0
  185.7270  176.5560  145.9600 C   0  0  0  0  0  2  0  0  0  0  0  0
  185.7060  179.1960  146.8810 C   0  0  0  0  0  2  0  0  0  0  0  0
  186.1040  177.0300  147.3720 C   0  0  0  0  0  2  0  0  0  0  0  0
  185.3180  178.8950  145.4230 C   0  0  2  0  0  0  0  0  0  0  0  0
  185.9400  177.6250  144.9730 N   0  0  0  0  0  0  0  0  0  0  0  0
  192.5610  175.8370  146.5000 C   0  0  0  0  0  2  0  0  0  0  0  0
  193.6960  176.7950  146.1380 C   0  0  0  0  0  2  0  0  0  0  0  0
  195.2760  174.9680  146.1320 N   0  0  0  0  0  0  0  0  0  0  0  0
  196.5010  175.7450  143.7350 C   0  0  0  0  0  3  0  0  0  0  0  0
  195.4920  176.5330  144.3680 N   0  0  0  0  0  2  0  0  0  0  0  0
  196.9410  174.6300  144.3160 C   0  0  0  0  0  3  0  0  0  0  0  0
  196.4410  174.2000  145.6730 C   0  0  0  0  0  2  0  0  0  0  0  0
  194.8680  176.0660  145.5680 C   0  0  0  0  0  0  0  0  0  0  0  0
  2 11  1  0  0  0  0
  3 14  1  0  0  0  0
  5 19  1  1  0  0  0
  5 13  1  0  0  0  0
  6 15  2  0  0  0  0
  6 17  1  0  0  0  0
  8 10  1  0  0  0  0
  8  2  2  0  0  0  0
  9  1  1  1  0  0  0
  9 33  1  0  0  0  0
 10  3  2  0  0  0  0
 11 14  2  0  0  0  0
 11  4  1  0  0  0  0
 12  7  1  1  0  0  0
 12  9  1  0  0  0  0
 13  9  1  0  0  0  0
 14  6  1  0  0  0  0
 16  4  1  6  0  0  0
 16  5  1  0  0  0  0
 16 12  1  0  0  0  0
 17  7  1  0  0  0  0
 18 17  2  0  0  0  0
 19 22  1  0  0  0  0
 20 21  2  0  0  0  0
 21 22  1  0  0  0  0
 21 23  1  0  0  0  0
 23 24  1  0  0  0  0
 24 32  1  0  0  0  0
 25 30  1  0  0  0  0
 26 31  1  0  0  0  0
 28 30  1  0  0  0  0
 29 25  1  0  0  0  0
 31 27  1  6  0  0  0
 31 29  1  0  0  0  0
 32 31  1  0  0  0  0
 32 28  1  0  0  0  0
 34 33  1  0  0  0  0
 36 38  2  0  0  0  0
 36 37  1  0  0  0  0
 37 40  1  0  0  0  0
 38 39  1  0  0  0  0
 39 35  1  0  0  0  0
 40 35  2  0  0  0  0
 40 34  1  0  0  0  0
M  END
>  <MODEL>
2

>  <REMARK>
 VINA RESULT:      -8.0      3.149      8.748
  Name = 
  8 active torsions:
  status: ('A' for Active; 'I' for Inactive)
    1  A    between atoms: C_3  and  C_14
    2  A    between atoms: C_3  and  N_38
    3  A    between atoms: O_4  and  C_16
    4  A    between atoms: O_4  and  N_37
    5  A    between atoms: C_12  and  C_33
    6  A    between atoms: C_12  and  C_40
    7  A    between atoms: C_16  and  C_21
    8  A    between atoms: C_22  and  C_33
                            x       y       z     vdW  Elec       q    Type
                         _______ _______ _______ _____ _____    ______ ____

>  <TORSDO>
F 8

$$$$
=
 OpenBabel11042418103D

 40 44  0  0  1  0  0  0  0  0999 V2000
  194.0800  173.4720  145.9870 F   0  0  0  0  0  0  0  0  0  0  0  0
  189.9230  177.9140  142.7820 C   0  0  0  0  0  3  0  0  0  0  0  0
  188.8400  175.5590  141.8540 N   0  0  0  0  0  0  0  0  0  0  0  0
  191.7460  176.7560  143.8780 N   0  0  0  0  0  2  0  0  0  0  0  0
  192.5970  176.3500  146.1110 C   0  0  1  0  0  3  0  0  0  0  0  0
  190.6900  174.2060  142.6390 C   0  0  0  0  0  0  0  0  0  0  0  0
  193.0380  173.7430  143.4840 C   0  0  0  0  0  2  0  0  0  0  0  0
  188.7320  177.9320  142.0610 C   0  0  0  0  0  3  0  0  0  0  0  0
  194.3160  174.7300  145.4480 C   0  0  1  0  0  0  0  0  0  0  0  0
  188.1920  176.7280  141.6130 C   0  0  0  0  0  3  0  0  0  0  0  0
  190.5720  176.7080  143.0520 C   0  0  0  0  0  0  0  0  0  0  0  0
  193.4070  175.0110  144.2540 C   0  0  2  0  0  3  0  0  0  0  0  0
  193.9550  175.7680  146.4930 C   0  0  0  0  0  2  0  0  0  0  0  0
  190.0160  175.5090  142.5360 C   0  0  0  0  0  0  0  0  0  0  0  0
  190.0250  173.1900  142.9740 O   0  0  0  0  0  0  0  0  0  0  0  0
  192.1760  175.7120  144.8020 C   0  0  2  0  0  3  0  0  0  0  0  0
  192.1240  174.0640  142.3520 C   0  0  0  0  0  0  0  0  0  0  0  0
  192.6320  174.5530  141.2260 C   0  0  0  0  0  2  0  0  0  0  0  0
  191.5600  176.0510  147.1850 C   0  0  0  0  0  2  0  0  0  0  0  0
  189.3650  177.8620  147.1250 O   0  0  0  0  0  0  0  0  0  0  0  0
  189.2210  176.7480  146.5520 C   0  0  0  0  0  0  0  0  0  0  0  0
  190.2730  175.7840  146.5650 N   0  0  0  0  0  2  0  0  0  0  0  0
  187.9280  176.4200  145.8950 C   0  0  0  0  0  2  0  0  0  0  0  0
  187.5040  177.5080  145.1210 O   0  0  0  0  0  0  0  0  0  0  0  0
  184.0910  178.5640  146.7480 O   0  0  0  0  0  0  0  0  0  0  0  0
  185.9410  179.7760  144.2300 N   0  0  0  0  0  1  0  0  0  0  0  0
  185.2790  177.5450  143.5470 C   0  0  0  0  0  1  0  0  0  0  0  0
  185.7910  176.8490  146.4800 C   0  0  0  0  0  2  0  0  0  0  0  0
  184.0570  178.7280  145.3490 C   0  0  0  0  0  2  0  0  0  0  0  0
  184.3860  177.2100  146.9860 C   0  0  0  0  0  2  0  0  0  0  0  0
  185.4450  178.5020  144.7270 C   0  0  2  0  0  0  0  0  0  0  0  0
  186.3880  177.9730  145.7420 N   0  0  0  0  0  0  0  0  0  0  0  0
  195.7930  174.9000  145.0870 C   0  0  0  0  0  2  0  0  0  0  0  0
  196.0600  176.0610  144.1290 C   0  0  0  0  0  2  0  0  0  0  0  0
  197.3530  174.5380  142.7700 N   0  0  0  0  0  0  0  0  0  0  0  0
  196.5070  175.6420  140.3370 C   0  0  0  0  0  3  0  0  0  0  0  0
  196.1500  176.2090  141.5990 N   0  0  0  0  0  2  0  0  0  0  0  0
  197.3240  174.5910  140.2850 C   0  0  0  0  0  3  0  0  0  0  0  0
  197.9410  174.0100  141.5330 C   0  0  0  0  0  2  0  0  0  0  0  0
  196.5730  175.5770  142.8120 C   0  0  0  0  0  0  0  0  0  0  0  0
  2 11  1  0  0  0  0
  3 14  1  0  0  0  0
  5 13  1  0  0  0  0
  5 19  1  1  0  0  0
  6 15  2  0  0  0  0
  8  2  2  0  0  0  0
  9  1  1  1  0  0  0
  9 13  1  0  0  0  0
 10  3  2  0  0  0  0
 10  8  1  0  0  0  0
 11  4  1  0  0  0  0
 12  7  1  1  0  0  0
 12 16  1  0  0  0  0
 12  9  1  0  0  0  0
 14  6  1  0  0  0  0
 14 11  2  0  0  0  0
 16  4  1  6  0  0  0
 16  5  1  0  0  0  0
 17  6  1  0  0  0  0
 17  7  1  0  0  0  0
 18 17  2  0  0  0  0
 21 22  1  0  0  0  0
 21 20  2  0  0  0  0
 22 19  1  0  0  0  0
 23 21  1  0  0  0  0
 24 32  1  0  0  0  0
 24 23  1  0  0  0  0
 25 30  1  0  0  0  0
 26 31  1  0  0  0  0
 28 30  1  0  0  0  0
 29 25  1  0  0  0  0
 31 27  1  6  0  0  0
 31 29  1  0  0  0  0
 31 32  1  0  0  0  0
 32 28  1  0  0  0  0
 33  9  1  0  0  0  0
 34 33  1  0  0  0  0
 35 40  2  0  0  0  0
 36 37  1  0  0  0  0
 37 40  1  0  0  0  0
 38 36  2  0  0  0  0
 38 39  1  0  0  0  0
 39 35  1  0  0  0  0
 40 34  1  0  0  0  0
M  END
>  <MODEL>
3

>  <REMARK>
 VINA RESULT:      -7.9      3.108      9.173
  Name = 
  8 active torsions:
  status: ('A' for Active; 'I' for Inactive)
    1  A    between atoms: C_3  and  C_14
    2  A    between atoms: C_3  and  N_38
    3  A    between atoms: O_4  and  C_16
    4  A    between atoms: O_4  and  N_37
    5  A    between atoms: C_12  and  C_33
    6  A    between atoms: C_12  and  C_40
    7  A    between atoms: C_16  and  C_21
    8  A    between atoms: C_22  and  C_33
                            x       y       z     vdW  Elec       q    Type
                         _______ _______ _______ _____ _____    ______ ____

>  <TORSDO>
F 8

$$$$
=
 OpenBabel11042418103D

 40 44  0  0  1  0  0  0  0  0999 V2000
  193.9370  173.4620  146.0380 F   0  0  0  0  0  0  0  0  0  0  0  0
  189.9770  177.9720  142.6800 C   0  0  0  0  0  3  0  0  0  0  0  0
  188.7940  175.6360  141.8280 N   0  0  0  0  0  0  0  0  0  0  0  0
  191.7480  176.7730  143.8180 N   0  0  0  0  0  2  0  0  0  0  0  0
  192.5800  176.4050  146.0640 C   0  0  1  0  0  3  0  0  0  0  0  0
  190.5840  174.2310  142.6610 C   0  0  0  0  0  0  0  0  0  0  0  0
  192.9100  173.6950  143.5250 C   0  0  0  0  0  2  0  0  0  0  0  0
  188.7890  178.0160  141.9570 C   0  0  0  0  0  3  0  0  0  0  0  0
  194.2280  174.6900  145.4580 C   0  0  1  0  0  0  0  0  0  0  0  0
  188.1980  176.8230  141.5470 C   0  0  0  0  0  3  0  0  0  0  0  0
  190.5740  176.7480  142.9910 C   0  0  0  0  0  0  0  0  0  0  0  0
  193.3320  174.9710  144.2540 C   0  0  2  0  0  3  0  0  0  0  0  0
  193.9110  175.7770  146.4680 C   0  0  0  0  0  2  0  0  0  0  0  0
  189.9660  175.5580  142.5140 C   0  0  0  0  0  0  0  0  0  0  0  0
  189.8760  173.2560  143.0280 O   0  0  0  0  0  0  0  0  0  0  0  0
  192.1320  175.7420  144.7760 C   0  0  2  0  0  3  0  0  0  0  0  0
  192.0100  174.0180  142.3820 C   0  0  0  0  0  0  0  0  0  0  0  0
  192.5400  174.4470  141.2410 C   0  0  0  0  0  2  0  0  0  0  0  0
  191.5300  176.1860  147.1450 C   0  0  0  0  0  2  0  0  0  0  0  0
  189.2400  177.8690  147.3120 O   0  0  0  0  0  0  0  0  0  0  0  0
  189.1400  176.8090  146.6370 C   0  0  0  0  0  0  0  0  0  0  0  0
  190.2420  175.9080  146.5310 N   0  0  0  0  0  2  0  0  0  0  0  0
  187.8490  176.4730  145.9800 C   0  0  0  0  0  2  0  0  0  0  0  0
  187.5290  177.4610  145.0390 O   0  0  0  0  0  0  0  0  0  0  0  0
  184.0830  178.8650  146.2920 O   0  0  0  0  0  0  0  0  0  0  0  0
  186.0730  179.5670  143.6880 N   0  0  0  0  0  1  0  0  0  0  0  0
  185.3740  177.2650  143.3820 C   0  0  0  0  0  1  0  0  0  0  0  0
  185.7410  177.0920  146.4120 C   0  0  0  0  0  2  0  0  0  0  0  0
  184.1130  178.7770  144.8860 C   0  0  0  0  0  2  0  0  0  0  0  0
  184.3270  177.5680  146.7800 C   0  0  0  0  0  2  0  0  0  0  0  0
  185.5190  178.4130  144.3800 C   0  0  2  0  0  0  0  0  0  0  0  0
  186.4020  178.0530  145.5160 N   0  0  0  0  0  0  0  0  0  0  0  0
  195.7100  174.7850  145.0950 C   0  0  0  0  0  2  0  0  0  0  0  0
  196.6160  173.9310  145.9830 C   0  0  0  0  0  2  0  0  0  0  0  0
  197.0270  171.5540  145.8680 N   0  0  0  0  0  0  0  0  0  0  0  0
  197.8160  171.5980  143.1790 C   0  0  0  0  0  3  0  0  0  0  0  0
  197.5270  172.7900  143.9100 N   0  0  0  0  0  2  0  0  0  0  0  0
  197.7810  170.4140  143.7900 C   0  0  0  0  0  3  0  0  0  0  0  0
  197.5010  170.2990  145.2680 C   0  0  0  0  0  2  0  0  0  0  0  0
  197.0850  172.7060  145.2690 C   0  0  0  0  0  0  0  0  0  0  0  0
  2 11  1  0  0  0  0
  3 14  1  0  0  0  0
  5 13  1  0  0  0  0
  5 19  1  1  0  0  0
  6 15  2  0  0  0  0
  8  2  2  0  0  0  0
  9  1  1  1  0  0  0
  9 13  1  0  0  0  0
 10  3  2  0  0  0  0
 10  8  1  0  0  0  0
 11  4  1  0  0  0  0
 12  7  1  1  0  0  0
 12 16  1  0  0  0  0
 12  9  1  0  0  0  0
 14  6  1  0  0  0  0
 14 11  2  0  0  0  0
 16  4  1  6  0  0  0
 16  5  1  0  0  0  0
 17  6  1  0  0  0  0
 17  7  1  0  0  0  0
 18 17  2  0  0  0  0
 21 20  2  0  0  0  0
 22 21  1  0  0  0  0
 22 19  1  0  0  0  0
 23 21  1  0  0  0  0
 24 32  1  0  0  0  0
 24 23  1  0  0  0  0
 25 30  1  0  0  0  0
 26 31  1  0  0  0  0
 28 30  1  0  0  0  0
 29 25  1  0  0  0  0
 31 27  1  6  0  0  0
 31 29  1  0  0  0  0
 31 32  1  0  0  0  0
 32 28  1  0  0  0  0
 33  9  1  0  0  0  0
 33 34  1  0  0  0  0
 36 38  2  0  0  0  0
 36 37  1  0  0  0  0
 37 40  1  0  0  0  0
 38 39  1  0  0  0  0
 39 35  1  0  0  0  0
 40 35  2  0  0  0  0
 40 34  1  0  0  0  0
M  END
>  <MODEL>
4

>  <REMARK>
 VINA RESULT:      -7.9      3.145      9.720
  Name = 
  8 active torsions:
  status: ('A' for Active; 'I' for Inactive)
    1  A    between atoms: C_3  and  C_14
    2  A    between atoms: C_3  and  N_38
    3  A    between atoms: O_4  and  C_16
    4  A    between atoms: O_4  and  N_37
    5  A    between atoms: C_12  and  C_33
    6  A    between atoms: C_12  and  C_40
    7  A    between atoms: C_16  and  C_21
    8  A    between atoms: C_22  and  C_33
                            x       y       z     vdW  Elec       q    Type
                         _______ _______ _______ _____ _____    ______ ____

>  <TORSDO>
F 8

$$$$
=
 OpenBabel11042418103D

 40 44  0  0  1  0  0  0  0  0999 V2000
  194.2170  174.2400  141.7910 F   0  0  0  0  0  0  0  0  0  0  0  0
  189.3300  174.8050  146.5960 C   0  0  0  0  0  3  0  0  0  0  0  0
  189.6870  177.4750  146.0250 N   0  0  0  0  0  0  0  0  0  0  0  0
  191.1800  174.1540  145.1760 N   0  0  0  0  0  2  0  0  0  0  0  0
  191.5940  172.9000  143.1440 C   0  0  1  0  0  3  0  0  0  0  0  0
  191.7210  177.1020  144.7610 C   0  0  0  0  0  0  0  0  0  0  0  0
  193.7610  175.8200  143.9640 C   0  0  0  0  0  2  0  0  0  0  0  0
  188.4610  175.7530  147.1280 C   0  0  0  0  0  3  0  0  0  0  0  0
  193.9640  173.5020  142.9400 C   0  0  1  0  0  0  0  0  0  0  0  0
  188.6490  177.0980  146.8150 C   0  0  0  0  0  3  0  0  0  0  0  0
  190.3800  175.1920  145.7620 C   0  0  0  0  0  0  0  0  0  0  0  0
  193.3230  174.3560  144.0300 C   0  0  2  0  0  3  0  0  0  0  0  0
  192.9420  172.4330  142.6010 C   0  0  0  0  0  2  0  0  0  0  0  0
  190.5670  176.5760  145.5070 C   0  0  0  0  0  0  0  0  0  0  0  0
  191.5390  177.9880  143.8850 O   0  0  0  0  0  0  0  0  0  0  0  0
  191.8200  174.2140  143.8660 C   0  0  2  0  0  3  0  0  0  0  0  0
  193.0830  176.6190  145.0230 C   0  0  0  0  0  0  0  0  0  0  0  0
  193.5510  176.5770  146.2660 C   0  0  0  0  0  2  0  0  0  0  0  0
  190.5980  173.1020  142.0100 C   0  0  0  0  0  2  0  0  0  0  0  0
  187.8350  173.7740  141.8830 O   0  0  0  0  0  0  0  0  0  0  0  0
  188.6610  174.7170  142.0140 C   0  0  0  0  0  0  0  0  0  0  0  0
  190.0630  174.4530  142.0610 N   0  0  0  0  0  2  0  0  0  0  0  0
  188.1730  176.1210  142.0780 C   0  0  0  0  0  2  0  0  0  0  0  0
  187.4680  176.3190  143.2730 O   0  0  0  0  0  0  0  0  0  0  0  0
  184.0670  177.9250  142.1440 O   0  0  0  0  0  0  0  0  0  0  0  0
  185.2580  176.8170  145.0750 N   0  0  0  0  0  1  0  0  0  0  0  0
  186.6970  178.6610  144.4340 C   0  0  0  0  0  1  0  0  0  0  0  0
  186.4010  177.4880  141.6260 C   0  0  0  0  0  2  0  0  0  0  0  0
  184.4530  178.3970  143.4140 C   0  0  0  0  0  2  0  0  0  0  0  0
  185.1140  178.2460  141.2620 C   0  0  0  0  0  2  0  0  0  0  0  0
  185.6770  177.6320  143.9460 C   0  0  2  0  0  0  0  0  0  0  0  0
  186.2380  176.7540  142.8900 N   0  0  0  0  0  0  0  0  0  0  0  0
  195.2370  172.8130  143.4360 C   0  0  0  0  0  2  0  0  0  0  0  0
  195.4040  172.8540  144.9560 C   0  0  0  0  0  2  0  0  0  0  0  0
  194.5410  170.6470  145.4280 N   0  0  0  0  0  0  0  0  0  0  0  0
  196.9450  169.7000  146.5140 C   0  0  0  0  0  3  0  0  0  0  0  0
  196.7690  171.0610  146.1200 N   0  0  0  0  0  0  0  0  0  0  0  0
  195.9260  168.8450  146.4360 C   0  0  0  0  0  3  0  0  0  0  0  0
  194.5550  169.2920  145.9930 C   0  0  0  0  0  3  0  0  0  0  0  0
  195.5340  171.4800  145.5290 C   0  0  0  0  0  0  0  0  0  0  0  0
  2  8  1  0  0  0  0
  3 10  1  0  0  0  0
  4 11  1  0  0  0  0
  5 19  1  6  0  0  0
  5 16  1  0  0  0  0
  6 17  1  0  0  0  0
  6 14  1  0  0  0  0
  7 17  1  0  0  0  0
  9  1  1  6  0  0  0
  9 33  1  0  0  0  0
  9 12  1  0  0  0  0
 10  8  2  0  0  0  0
 11  2  2  0  0  0  0
 12  7  1  6  0  0  0
 13  9  1  0  0  0  0
 13  5  1  0  0  0  0
 14 11  1  0  0  0  0
 14  3  2  0  0  0  0
 15  6  2  0  0  0  0
 16 12  1  0  0  0  0
 16  4  1  1  0  0  0
 17 18  2  0  0  0  0
 19 22  1  0  0  0  0
 20 21  2  0  0  0  0
 21 22  1  0  0  0  0
 21 23  1  0  0  0  0
 23 24  1  0  0  0  0
 25 29  1  0  0  0  0
 28 32  1  0  0  0  0
 29 31  1  0  0  0  0
 30 28  1  0  0  0  0
 30 25  1  0  0  0  0
 31 27  1  1  0  0  0
 31 26  1  0  0  0  0
 32 24  1  0  0  0  0
 32 31  1  0  0  0  0
 33 34  1  0  0  0  0
 34 40  1  0  0  0  0
 35 40  2  0  0  0  0
 35 39  1  0  0  0  0
 37 36  2  0  0  0  0
 38 36  1  0  0  0  0
 39 38  2  0  0  0  0
 40 37  1  0  0  0  0
M  END
>  <MODEL>
5

>  <REMARK>
 VINA RESULT:      -7.7      3.166      9.791
  Name = 
  8 active torsions:
  status: ('A' for Active; 'I' for Inactive)
    1  A    between atoms: C_3  and  C_14
    2  A    between atoms: C_3  and  N_38
    3  A    between atoms: O_4  and  C_16
    4  A    between atoms: O_4  and  N_37
    5  A    between atoms: C_12  and  C_33
    6  A    between atoms: C_12  and  C_40
    7  A    between atoms: C_16  and  C_21
    8  A    between atoms: C_22  and  C_33
                            x       y       z     vdW  Elec       q    Type
                         _______ _______ _______ _____ _____    ______ ____

>  <TORSDO>
F 8

$$$$
=
 OpenBabel11042418103D

 40 44  0  0  1  0  0  0  0  0999 V2000
  193.0880  174.6830  140.3470 F   0  0  0  0  0  0  0  0  0  0  0  0
  189.6990  174.2170  146.3130 C   0  0  0  0  0  3  0  0  0  0  0  0
  189.3620  176.9080  145.8300 N   0  0  0  0  0  0  0  0  0  0  0  0
  191.1770  173.9630  144.4100 N   0  0  0  0  0  2  0  0  0  0  0  0
  191.2500  172.8310  142.2690 C   0  0  1  0  0  3  0  0  0  0  0  0
  191.0020  176.9620  144.0470 C   0  0  0  0  0  0  0  0  0  0  0  0
  192.9520  176.1250  142.6550 C   0  0  0  0  0  2  0  0  0  0  0  0
  188.8430  174.9670  147.1150 C   0  0  0  0  0  3  0  0  0  0  0  0
  193.3100  173.9020  141.4740 C   0  0  1  0  0  0  0  0  0  0  0  0
  188.6750  176.3240  146.8460 C   0  0  0  0  0  3  0  0  0  0  0  0
  190.3830  174.8140  145.2520 C   0  0  0  0  0  0  0  0  0  0  0  0
  192.8400  174.6030  142.7470 C   0  0  2  0  0  3  0  0  0  0  0  0
  192.4600  172.6500  141.3570 C   0  0  0  0  0  2  0  0  0  0  0  0
  190.2220  176.2080  145.0410 C   0  0  0  0  0  0  0  0  0  0  0  0
  190.4180  177.7980  143.3070 O   0  0  0  0  0  0  0  0  0  0  0  0
  191.4070  174.1590  142.9830 C   0  0  2  0  0  3  0  0  0  0  0  0
  192.4500  176.7640  143.9040 C   0  0  0  0  0  0  0  0  0  0  0  0
  193.2410  176.8100  144.9710 C   0  0  0  0  0  2  0  0  0  0  0  0
  189.9610  172.8330  141.4600 C   0  0  0  0  0  2  0  0  0  0  0  0
  187.3730  173.7520  142.2100 O   0  0  0  0  0  0  0  0  0  0  0  0
  188.1750  174.5940  141.7230 C   0  0  0  0  0  0  0  0  0  0  0  0
  189.4800  174.1970  141.3040 N   0  0  0  0  0  2  0  0  0  0  0  0
  187.7430  176.0060  141.5450 C   0  0  0  0  0  2  0  0  0  0  0  0
  187.3480  176.5370  142.7810 O   0  0  0  0  0  0  0  0  0  0  0  0
  183.7020  177.9010  142.2660 O   0  0  0  0  0  0  0  0  0  0  0  0
  185.4420  176.8620  144.9360 N   0  0  0  0  0  1  0  0  0  0  0  0
  186.6210  178.8090  144.0970 C   0  0  0  0  0  1  0  0  0  0  0  0
  185.9400  177.6360  141.3570 C   0  0  0  0  0  2  0  0  0  0  0  0
  184.2620  178.3910  143.4620 C   0  0  0  0  0  2  0  0  0  0  0  0
  184.5610  178.3020  141.2270 C   0  0  0  0  0  2  0  0  0  0  0  0
  185.6090  177.7130  143.7670 C   0  0  2  0  0  0  0  0  0  0  0  0
  186.0440  176.8840  142.6160 N   0  0  0  0  0  0  0  0  0  0  0  0
  194.7780  173.4830  141.5670 C   0  0  0  0  0  2  0  0  0  0  0  0
  195.0250  172.3250  142.5340 C   0  0  0  0  0  2  0  0  0  0  0  0
  196.2800  173.9780  143.7690 N   0  0  0  0  0  0  0  0  0  0  0  0
  196.7100  172.3170  145.9850 C   0  0  0  0  0  3  0  0  0  0  0  0
  196.0750  171.8520  144.7930 N   0  0  0  0  0  0  0  0  0  0  0  0
  197.1830  173.5610  146.0480 C   0  0  0  0  0  3  0  0  0  0  0  0
  197.1230  174.4880  144.8590 C   0  0  0  0  0  3  0  0  0  0  0  0
  195.8410  172.7560  143.7090 C   0  0  0  0  0  0  0  0  0  0  0  0
  2  8  1  0  0  0  0
  3 10  1  0  0  0  0
  4 11  1  0  0  0  0
  5 19  1  6  0  0  0
  5 16  1  0  0  0  0
  6 14  1  0  0  0  0
  7 17  1  0  0  0  0
  9  1  1  6  0  0  0
  9 33  1  0  0  0  0
  9 12  1  0  0  0  0
 10  8  2  0  0  0  0
 11  2  2  0  0  0  0
 12  7  1  6  0  0  0
 12 16  1  0  0  0  0
 13  9  1  0  0  0  0
 13  5  1  0  0  0  0
 14 11  1  0  0  0  0
 14  3  2  0  0  0  0
 15  6  2  0  0  0  0
 16  4  1  1  0  0  0
 17  6  1  0  0  0  0
 17 18  2  0  0  0  0
 21 20  2  0  0  0  0
 22 19  1  0  0  0  0
 22 21  1  0  0  0  0
 23 21  1  0  0  0  0
 23 24  1  0  0  0  0
 25 29  1  0  0  0  0
 28 32  1  0  0  0  0
 29 31  1  0  0  0  0
 30 28  1  0  0  0  0
 30 25  1  0  0  0  0
 31 27  1  1  0  0  0
 31 26  1  0  0  0  0
 32 24  1  0  0  0  0
 32 31  1  0  0  0  0
 33 34  1  0  0  0  0
 34 40  1  0  0  0  0
 35 39  1  0  0  0  0
 36 38  1  0  0  0  0
 37 36  2  0  0  0  0
 39 38  2  0  0  0  0
 40 35  2  0  0  0  0
 40 37  1  0  0  0  0
M  END
>  <MODEL>
6

>  <REMARK>
 VINA RESULT:      -7.7      3.022      9.525
  Name = 
  8 active torsions:
  status: ('A' for Active; 'I' for Inactive)
    1  A    between atoms: C_3  and  C_14
    2  A    between atoms: C_3  and  N_38
    3  A    between atoms: O_4  and  C_16
    4  A    between atoms: O_4  and  N_37
    5  A    between atoms: C_12  and  C_33
    6  A    between atoms: C_12  and  C_40
    7  A    between atoms: C_16  and  C_21
    8  A    between atoms: C_22  and  C_33
                            x       y       z     vdW  Elec       q    Type
                         _______ _______ _______ _____ _____    ______ ____

>  <TORSDO>
F 8

$$$$
=
 OpenBabel11042418103D

 40 44  0  0  1  0  0  0  0  0999 V2000
  189.5730  176.5760  143.3940 F   0  0  0  0  0  0  0  0  0  0  0  0
  194.7350  172.4220  145.2350 C   0  0  0  0  0  3  0  0  0  0  0  0
  196.0600  174.8340  145.3400 N   0  0  0  0  0  0  0  0  0  0  0  0
  192.7410  173.4470  144.3170 N   0  0  0  0  0  2  0  0  0  0  0  0
  190.4280  173.8470  144.9180 C   0  0  1  0  0  3  0  0  0  0  0  0
  194.2960  176.0410  144.1980 C   0  0  0  0  0  0  0  0  0  0  0  0
  192.2140  176.3190  142.7740 C   0  0  0  0  0  2  0  0  0  0  0  0
  196.0200  172.4880  145.7640 C   0  0  0  0  0  3  0  0  0  0  0  0
  189.9020  175.2860  143.0010 C   0  0  1  0  0  0  0  0  0  0  0  0
  196.6690  173.7200  145.8220 C   0  0  0  0  0  3  0  0  0  0  0  0
  194.1010  173.5730  144.7640 C   0  0  0  0  0  0  0  0  0  0  0  0
  191.4090  175.0480  143.0490 C   0  0  2  0  0  3  0  0  0  0  0  0
  189.3010  174.3180  144.0030 C   0  0  0  0  0  2  0  0  0  0  0  0
  194.8130  174.8000  144.7960 C   0  0  0  0  0  0  0  0  0  0  0  0
  194.3920  177.1220  144.8360 O   0  0  0  0  0  0  0  0  0  0  0  0
  191.7150  174.4790  144.4230 C   0  0  2  0  0  3  0  0  0  0  0  0
  193.6750  176.0450  142.8670 C   0  0  0  0  0  0  0  0  0  0  0  0
  194.2950  175.4760  141.8380 C   0  0  0  0  0  2  0  0  0  0  0  0
  190.1680  174.2720  146.3570 C   0  0  0  0  0  2  0  0  0  0  0  0
  190.3190  177.0570  146.9290 O   0  0  0  0  0  0  0  0  0  0  0  0
  189.1830  176.5710  146.6760 C   0  0  0  0  0  0  0  0  0  0  0  0
  189.0320  175.1790  146.4040 N   0  0  0  0  0  2  0  0  0  0  0  0
  187.9830  177.4510  146.7030 C   0  0  0  0  0  2  0  0  0  0  0  0
  187.7100  177.9140  145.4090 O   0  0  0  0  0  0  0  0  0  0  0  0
  183.9530  179.0420  145.5740 O   0  0  0  0  0  0  0  0  0  0  0  0
  186.3050  179.1250  143.1870 N   0  0  0  0  0  1  0  0  0  0  0  0
  185.9430  176.7760  143.6750 C   0  0  0  0  0  1  0  0  0  0  0  0
  185.7500  177.7430  146.5690 C   0  0  0  0  0  2  0  0  0  0  0  0
  184.2570  178.4740  144.3210 C   0  0  0  0  0  2  0  0  0  0  0  0
  184.2470  178.0630  146.5400 C   0  0  0  0  0  2  0  0  0  0  0  0
  185.7650  178.2080  144.1800 C   0  0  2  0  0  0  0  0  0  0  0  0
  186.4540  178.4290  145.4750 N   0  0  0  0  0  0  0  0  0  0  0  0
  189.3240  174.9720  141.6200 C   0  0  0  0  0  2  0  0  0  0  0  0
  189.8440  173.6660  141.0190 C   0  0  0  0  0  2  0  0  0  0  0  0
  188.5400  174.1710  139.0480 N   0  0  0  0  0  0  0  0  0  0  0  0
  190.4100  173.0850  137.2650 C   0  0  0  0  0  3  0  0  0  0  0  0
  190.5630  172.9940  138.6820 N   0  0  0  0  0  2  0  0  0  0  0  0
  189.3170  173.6420  136.7460 C   0  0  0  0  0  3  0  0  0  0  0  0
  188.1910  174.1320  137.6220 C   0  0  0  0  0  2  0  0  0  0  0  0
  189.6000  173.6060  139.5460 C   0  0  0  0  0  0  0  0  0  0  0  0
  2  8  1  0  0  0  0
  3 10  1  0  0  0  0
  4 11  1  0  0  0  0
  5 19  1  1  0  0  0
  6 14  1  0  0  0  0
  6 15  2  0  0  0  0
  7 17  1  0  0  0  0
  8 10  2  0  0  0  0
  9 12  1  0  0  0  0
  9  1  1  1  0  0  0
  9 13  1  0  0  0  0
 11 14  1  0  0  0  0
 11  2  2  0  0  0  0
 12  7  1  1  0  0  0
 12 16  1  0  0  0  0
 13  5  1  0  0  0  0
 14  3  2  0  0  0  0
 16  4  1  6  0  0  0
 16  5  1  0  0  0  0
 17  6  1  0  0  0  0
 18 17  2  0  0  0  0
 19 22  1  0  0  0  0
 21 23  1  0  0  0  0
 21 20  2  0  0  0  0
 22 21  1  0  0  0  0
 24 32  1  0  0  0  0
 24 23  1  0  0  0  0
 25 30  1  0  0  0  0
 26 31  1  0  0  0  0
 29 25  1  0  0  0  0
 30 28  1  0  0  0  0
 31 27  1  6  0  0  0
 31 29  1  0  0  0  0
 31 32  1  0  0  0  0
 32 28  1  0  0  0  0
 33  9  1  0  0  0  0
 34 33  1  0  0  0  0
 35 40  2  0  0  0  0
 36 37  1  0  0  0  0
 37 40  1  0  0  0  0
 38 36  2  0  0  0  0
 38 39  1  0  0  0  0
 39 35  1  0  0  0  0
 40 34  1  0  0  0  0
M  END
>  <MODEL>
7

>  <REMARK>
 VINA RESULT:      -7.6      2.789      7.317
  Name = 
  8 active torsions:
  status: ('A' for Active; 'I' for Inactive)
    1  A    between atoms: C_3  and  C_14
    2  A    between atoms: C_3  and  N_38
    3  A    between atoms: O_4  and  C_16
    4  A    between atoms: O_4  and  N_37
    5  A    between atoms: C_12  and  C_33
    6  A    between atoms: C_12  and  C_40
    7  A    between atoms: C_16  and  C_21
    8  A    between atoms: C_22  and  C_33
                            x       y       z     vdW  Elec       q    Type
                         _______ _______ _______ _____ _____    ______ ____

>  <TORSDO>
F 8

$$$$
=
 OpenBabel11042418103D

 40 44  0  0  1  0  0  0  0  0999 V2000
  188.3600  178.0520  141.1970 F   0  0  0  0  0  0  0  0  0  0  0  0
  191.1320  172.7070  144.5200 C   0  0  0  0  0  3  0  0  0  0  0  0
  191.5360  171.8640  141.9290 N   0  0  0  0  0  0  0  0  0  0  0  0
  189.8500  174.6310  143.7970 N   0  0  0  0  0  2  0  0  0  0  0  0
  189.9840  177.0500  143.8180 C   0  0  1  0  0  3  0  0  0  0  0  0
  190.0830  173.5550  140.9780 C   0  0  0  0  0  0  0  0  0  0  0  0
  188.2760  175.3370  140.9810 C   0  0  0  0  0  2  0  0  0  0  0  0
  191.9090  171.5800  144.2670 C   0  0  0  0  0  3  0  0  0  0  0  0
  188.0220  177.4350  142.3950 C   0  0  1  0  0  0  0  0  0  0  0  0
  192.1140  171.1780  142.9480 C   0  0  0  0  0  3  0  0  0  0  0  0
  190.5620  173.4270  143.4690 C   0  0  0  0  0  0  0  0  0  0  0  0
  188.3660  175.9480  142.3800 C   0  0  2  0  0  3  0  0  0  0  0  0
  188.8690  178.0420  143.4970 C   0  0  0  0  0  2  0  0  0  0  0  0
  190.7540  172.9570  142.1430 C   0  0  0  0  0  0  0  0  0  0  0  0
  190.7440  173.7730  139.9290 O   0  0  0  0  0  0  0  0  0  0  0  0
  189.7650  175.8210  142.9570 C   0  0  2  0  0  3  0  0  0  0  0  0
  188.6550  173.8960  141.0120 C   0  0  0  0  0  0  0  0  0  0  0  0
  187.7620  173.0000  141.4190 C   0  0  0  0  0  2  0  0  0  0  0  0
  191.3480  177.6540  143.5120 C   0  0  0  0  0  2  0  0  0  0  0  0
  192.5130  176.7870  145.9600 O   0  0  0  0  0  0  0  0  0  0  0  0
  192.9010  176.2310  144.8970 C   0  0  0  0  0  0  0  0  0  0  0  0
  192.3760  176.6330  143.6330 N   0  0  0  0  0  2  0  0  0  0  0  0
  193.9470  175.1740  144.9570 C   0  0  0  0  0  2  0  0  0  0  0  0
  195.1990  175.7360  144.6760 O   0  0  0  0  0  0  0  0  0  0  0  0
  197.3230  173.2950  142.4530 O   0  0  0  0  0  0  0  0  0  0  0  0
  195.3600  175.9310  141.7920 N   0  0  0  0  0  1  0  0  0  0  0  0
  197.1870  176.7890  143.1380 C   0  0  0  0  0  1  0  0  0  0  0  0
  196.8580  174.1660  144.6730 C   0  0  0  0  0  2  0  0  0  0  0  0
  197.3960  174.6150  141.9660 C   0  0  0  0  0  2  0  0  0  0  0  0
  197.7880  173.3300  143.7790 C   0  0  0  0  0  2  0  0  0  0  0  0
  196.4180  175.5390  142.7120 C   0  0  2  0  0  0  0  0  0  0  0  0
  195.8210  174.8330  143.8720 N   0  0  0  0  0  0  0  0  0  0  0  0
  186.5480  177.6710  142.7320 C   0  0  0  0  0  2  0  0  0  0  0  0
  185.9440  176.5910  143.6310 C   0  0  0  0  0  2  0  0  0  0  0  0
  186.4990  176.7970  145.9730 N   0  0  0  0  0  0  0  0  0  0  0  0
  184.4430  178.6190  146.5260 C   0  0  0  0  0  3  0  0  0  0  0  0
  184.5890  177.9970  145.2490 N   0  0  0  0  0  0  0  0  0  0  0  0
  185.2590  178.2910  147.5270 C   0  0  0  0  0  3  0  0  0  0  0  0
  186.3100  177.2200  147.3660 C   0  0  0  0  0  3  0  0  0  0  0  0
  185.6850  177.1080  145.0080 C   0  0  0  0  0  0  0  0  0  0  0  0
  3 14  2  0  0  0  0
  3 10  1  0  0  0  0
  5 19  1  6  0  0  0
  6 17  1  0  0  0  0
  6 14  1  0  0  0  0
  7 17  1  0  0  0  0
  8  2  1  0  0  0  0
  9  1  1  6  0  0  0
  9 33  1  0  0  0  0
  9 13  1  0  0  0  0
 10  8  2  0  0  0  0
 11  4  1  0  0  0  0
 11  2  2  0  0  0  0
 12  7  1  6  0  0  0
 12  9  1  0  0  0  0
 12 16  1  0  0  0  0
 13  5  1  0  0  0  0
 14 11  1  0  0  0  0
 15  6  2  0  0  0  0
 16  4  1  1  0  0  0
 16  5  1  0  0  0  0
 17 18  2  0  0  0  0
 19 22  1  0  0  0  0
 21 23  1  0  0  0  0
 21 20  2  0  0  0  0
 22 21  1  0  0  0  0
 24 23  1  0  0  0  0
 25 30  1  0  0  0  0
 26 31  1  0  0  0  0
 29 25  1  0  0  0  0
 29 31  1  0  0  0  0
 30 28  1  0  0  0  0
 31 27  1  1  0  0  0
 31 32  1  0  0  0  0
 32 28  1  0  0  0  0
 32 24  1  0  0  0  0
 33 34  1  0  0  0  0
 34 40  1  0  0  0  0
 35 39  1  0  0  0  0
 36 38  1  0  0  0  0
 37 36  2  0  0  0  0
 39 38  2  0  0  0  0
 40 37  1  0  0  0  0
 40 35  2  0  0  0  0
M  END
>  <MODEL>
8

>  <REMARK>
 VINA RESULT:      -7.6      2.949      4.531
  Name = 
  8 active torsions:
  status: ('A' for Active; 'I' for Inactive)
    1  A    between atoms: C_3  and  C_14
    2  A    between atoms: C_3  and  N_38
    3  A    between atoms: O_4  and  C_16
    4  A    between atoms: O_4  and  N_37
    5  A    between atoms: C_12  and  C_33
    6  A    between atoms: C_12  and  C_40
    7  A    between atoms: C_16  and  C_21
    8  A    between atoms: C_22  and  C_33
                            x       y       z     vdW  Elec       q    Type
                         _______ _______ _______ _____ _____    ______ ____

>  <TORSDO>
F 8

$$$$
=
 OpenBabel11042418103D

 40 44  0  0  1  0  0  0  0  0999 V2000
  189.8020  174.2190  146.4560 F   0  0  0  0  0  0  0  0  0  0  0  0
  194.5140  176.2380  141.8730 C   0  0  0  0  0  3  0  0  0  0  0  0
  196.1570  174.8800  143.6160 N   0  0  0  0  0  0  0  0  0  0  0  0
  192.5940  175.9760  143.3260 N   0  0  0  0  0  2  0  0  0  0  0  0
  190.4310  174.8850  143.3470 C   0  0  1  0  0  3  0  0  0  0  0  0
  194.4660  174.7150  145.3430 C   0  0  0  0  0  0  0  0  0  0  0  0
  192.3050  175.2900  146.5440 C   0  0  0  0  0  2  0  0  0  0  0  0
  195.8440  176.0030  141.5360 C   0  0  0  0  0  3  0  0  0  0  0  0
  189.9100  175.3750  145.6950 C   0  0  1  0  0  0  0  0  0  0  0  0
  196.6560  175.3010  142.4250 C   0  0  0  0  0  3  0  0  0  0  0  0
  193.9970  175.7790  143.0850 C   0  0  0  0  0  0  0  0  0  0  0  0
  191.3680  175.7350  145.4200 C   0  0  2  0  0  3  0  0  0  0  0  0
  189.2900  175.1080  144.3360 C   0  0  0  0  0  2  0  0  0  0  0  0
  194.8680  175.1110  143.9840 C   0  0  0  0  0  0  0  0  0  0  0  0
  194.7720  173.5700  145.7690 O   0  0  0  0  0  0  0  0  0  0  0  0
  191.7340  175.0850  144.0970 C   0  0  2  0  0  3  0  0  0  0  0  0
  193.7180  175.6300  146.2150 C   0  0  0  0  0  0  0  0  0  0  0  0
  194.1460  176.8740  146.4030 C   0  0  0  0  0  2  0  0  0  0  0  0
  190.3800  173.4750  142.7750 C   0  0  0  0  0  2  0  0  0  0  0  0
  187.8090  172.8570  141.7190 O   0  0  0  0  0  0  0  0  0  0  0  0
  188.7020  173.2260  140.9090 C   0  0  0  0  0  0  0  0  0  0  0  0
  190.0190  173.5290  141.3670 N   0  0  0  0  0  2  0  0  0  0  0  0
  188.3910  173.3070  139.4570 C   0  0  0  0  0  2  0  0  0  0  0  0
  188.6550  172.0710  138.8500 O   0  0  0  0  0  0  0  0  0  0  0  0
  191.7930  172.3890  136.5130 O   0  0  0  0  0  0  0  0  0  0  0  0
  191.2030  170.8170  139.4130 N   0  0  0  0  0  1  0  0  0  0  0  0
  189.7150  169.7940  137.7940 C   0  0  0  0  0  1  0  0  0  0  0  0
  189.3920  172.6560  136.7690 C   0  0  0  0  0  2  0  0  0  0  0  0
  191.6910  171.0900  137.0490 C   0  0  0  0  0  2  0  0  0  0  0  0
  190.5960  172.6300  135.8150 C   0  0  0  0  0  2  0  0  0  0  0  0
  190.5820  171.0110  138.1120 C   0  0  2  0  0  0  0  0  0  0  0  0
  189.7910  172.2660  138.1290 N   0  0  0  0  0  0  0  0  0  0  0  0
  189.1560  176.5330  146.3510 C   0  0  0  0  0  2  0  0  0  0  0  0
  187.7640  176.1510  146.8560 C   0  0  0  0  0  2  0  0  0  0  0  0
  185.5690  177.1570  146.9330 N   0  0  0  0  0  0  0  0  0  0  0  0
  186.0640  178.9240  144.8150 C   0  0  0  0  0  3  0  0  0  0  0  0
  187.0040  177.9240  145.2110 N   0  0  0  0  0  0  0  0  0  0  0  0
  184.8760  178.9990  145.4130 C   0  0  0  0  0  3  0  0  0  0  0  0
  184.4630  178.0050  146.4700 C   0  0  0  0  0  3  0  0  0  0  0  0
  186.7180  177.0780  146.3290 C   0  0  0  0  0  0  0  0  0  0  0  0
  2 11  1  0  0  0  0
  3 14  1  0  0  0  0
  5 19  1  1  0  0  0
  5 16  1  0  0  0  0
  5 13  1  0  0  0  0
  6 15  2  0  0  0  0
  6 17  1  0  0  0  0
  8  2  2  0  0  0  0
  8 10  1  0  0  0  0
  9 33  1  0  0  0  0
  9  1  1  1  0  0  0
 10  3  2  0  0  0  0
 11  4  1  0  0  0  0
 11 14  2  0  0  0  0
 12  9  1  0  0  0  0
 12  7  1  1  0  0  0
 13  9  1  0  0  0  0
 14  6  1  0  0  0  0
 16  4  1  6  0  0  0
 16 12  1  0  0  0  0
 17 18  2  0  0  0  0
 17  7  1  0  0  0  0
 21 22  1  0  0  0  0
 21 20  2  0  0  0  0
 22 19  1  0  0  0  0
 23 21  1  0  0  0  0
 24 23  1  0  0  0  0
 25 29  1  0  0  0  0
 28 32  1  0  0  0  0
 29 31  1  0  0  0  0
 30 25  1  0  0  0  0
 30 28  1  0  0  0  0
 31 27  1  6  0  0  0
 31 32  1  0  0  0  0
 31 26  1  0  0  0  0
 32 24  1  0  0  0  0
 33 34  1  0  0  0  0
 36 37  2  0  0  0  0
 36 38  1  0  0  0  0
 37 40  1  0  0  0  0
 38 39  2  0  0  0  0
 39 35  1  0  0  0  0
 40 34  1  0  0  0  0
 40 35  2  0  0  0  0
M  END
>  <MODEL>
9

>  <REMARK>
 VINA RESULT:      -7.5      3.724      7.241
  Name = 
  8 active torsions:
  status: ('A' for Active; 'I' for Inactive)
    1  A    between atoms: C_3  and  C_14
    2  A    between atoms: C_3  and  N_38
    3  A    between atoms: O_4  and  C_16
    4  A    between atoms: O_4  and  N_37
    5  A    between atoms: C_12  and  C_33
    6  A    between atoms: C_12  and  C_40
    7  A    between atoms: C_16  and  C_21
    8  A    between atoms: C_22  and  C_33
                            x       y       z     vdW  Elec       q    Type
                         _______ _______ _______ _____ _____    ______ ____

>  <TORSDO>
F 8

$$$$
