=
 OpenBabel11042417473D

 25 30  0  0  1  0  0  0  0  0999 V2000
  191.1650  176.6380  145.7540 C   0  0  2  0  0  3  0  0  0  0  0  0
  186.7310  178.2440  147.7080 C   0  0  0  0  0  2  0  0  0  0  0  0
  188.0970  176.0540  143.8250 N   0  0  0  0  0  0  0  0  0  0  0  0
  189.8810  175.9970  145.4740 C   0  0  2  0  0  0  0  0  0  0  0  0
  189.3530  175.8040  144.0560 C   0  0  0  0  0  0  0  0  0  0  0  0
  190.1340  175.2240  142.9990 N   0  0  0  0  0  0  0  0  0  0  0  0
  191.8400  177.1610  144.4830 C   0  0  0  0  0  2  0  0  0  0  0  0
  185.2850  177.2640  146.0370 C   0  0  1  0  0  3  0  0  0  0  0  0
  184.9990  178.7440  146.2480 C   0  0  0  0  0  2  0  0  0  0  0  0
  192.2920  176.0970  143.5990 N   0  0  0  0  0  2  0  0  0  0  0  0
  192.0080  174.4990  141.6910 C   0  0  0  0  0  1  0  0  0  0  0  0
  185.7960  176.9060  144.6200 C   0  0  2  0  0  3  0  0  0  0  0  0
  187.5460  176.5390  146.1290 C   0  0  0  0  0  0  0  0  0  0  0  0
  191.4210  175.2780  142.8110 C   0  0  0  0  0  0  0  0  0  0  0  0
  186.4160  176.9390  147.0040 C   0  0  1  0  0  3  0  0  0  0  0  0
  188.8700  176.0320  146.6210 C   0  0  0  0  0  2  0  0  0  0  0  0
  191.0470  175.1610  145.7830 N   0  0  0  0  0  2  0  0  0  0  0  0
  185.5980  179.1360  147.5150 N   0  0  0  0  0  2  0  0  0  0  0  0
  187.2070  176.5130  144.8530 C   0  0  0  0  0  0  0  0  0  0  0  0
  185.7310  178.0310  143.6930 N   0  0  0  0  0  2  0  0  0  0  0  0
  184.1050  178.4170  140.5620 C   0  0  0  0  0  2  0  0  0  0  0  0
  183.9660  178.1600  142.0320 C   0  0  0  0  0  2  0  0  0  0  0  0
  185.4860  177.9020  140.2310 C   0  0  0  0  0  2  0  0  0  0  0  0
  186.2230  177.8130  141.4200 O   0  0  0  0  0  0  0  0  0  0  0  0
  185.2780  177.5130  142.4120 C   0  0  1  0  0  3  0  0  0  0  0  0
  1  7  1  6  0  0  0
  1 17  1  0  0  0  0
  3  5  2  0  0  0  0
  3 19  1  0  0  0  0
  4  1  1  0  0  0  0
  4 17  1  0  0  0  0
  4 16  1  1  0  0  0
  5  4  1  0  0  0  0
  6  5  1  0  0  0  0
  8  9  1  6  0  0  0
  8 15  1  0  0  0  0
  9 18  1  0  0  0  0
 10  7  1  0  0  0  0
 11 14  1  0  0  0  0
 12 20  1  6  0  0  0
 12 19  1  0  0  0  0
 12  8  1  0  0  0  0
 13 16  1  0  0  0  0
 13 15  1  0  0  0  0
 14  6  2  0  0  0  0
 14 10  1  0  0  0  0
 15  2  1  6  0  0  0
 18  2  1  0  0  0  0
 19 13  2  0  0  0  0
 21 22  1  0  0  0  0
 22 25  1  0  0  0  0
 23 21  1  0  0  0  0
 23 24  1  0  0  0  0
 24 25  1  0  0  0  0
 25 20  1  1  0  0  0
M  END
>  <MODEL>
1

>  <REMARK>
 VINA RESULT:      -7.9      0.000      0.000
  Name = 
  2 active torsions:
  status: ('A' for Active; 'I' for Inactive)
    1  A    between atoms: N_1  and  C_17
    2  A    between atoms: N_1  and  C_24
                            x       y       z     vdW  Elec       q    Type
                         _______ _______ _______ _____ _____    ______ ____

>  <TORSDO>
F 2

$$$$
=
 OpenBabel11042417473D

 25 30  0  0  1  0  0  0  0  0999 V2000
  190.4620  175.2240  143.1110 C   0  0  2  0  0  3  0  0  0  0  0  0
  186.6870  177.5870  140.6160 C   0  0  0  0  0  2  0  0  0  0  0  0
  188.1720  177.3580  145.0300 N   0  0  0  0  0  0  0  0  0  0  0  0
  189.8880  176.4990  143.5380 C   0  0  2  0  0  0  0  0  0  0  0  0
  189.2950  176.7080  144.9280 C   0  0  0  0  0  0  0  0  0  0  0  0
  189.9840  176.3510  146.1370 N   0  0  0  0  0  0  0  0  0  0  0  0
  190.3050  174.1340  144.1740 C   0  0  0  0  0  2  0  0  0  0  0  0
  185.8860  178.9230  142.4640 C   0  0  1  0  0  3  0  0  0  0  0  0
  184.7660  178.1410  141.7910 C   0  0  0  0  0  2  0  0  0  0  0  0
  191.1130  174.3750  145.3610 N   0  0  0  0  0  2  0  0  0  0  0  0
  191.4950  175.2850  147.6630 C   0  0  0  0  0  1  0  0  0  0  0  0
  186.1500  178.5260  143.9360 C   0  0  2  0  0  3  0  0  0  0  0  0
  188.0090  177.8770  142.6730 C   0  0  0  0  0  0  0  0  0  0  0  0
  190.8310  175.3830  146.3380 C   0  0  0  0  0  0  0  0  0  0  0  0
  187.1430  178.5630  141.6820 C   0  0  1  0  0  3  0  0  0  0  0  0
  189.4110  177.4110  142.4060 C   0  0  0  0  0  2  0  0  0  0  0  0
  191.3450  176.3330  143.5420 N   0  0  0  0  0  2  0  0  0  0  0  0
  185.2440  177.7150  140.4850 N   0  0  0  0  0  2  0  0  0  0  0  0
  187.4770  177.8680  143.8820 C   0  0  0  0  0  0  0  0  0  0  0  0
  185.1490  177.6030  144.4630 N   0  0  0  0  0  2  0  0  0  0  0  0
  185.8720  177.7830  147.9320 C   0  0  0  0  0  2  0  0  0  0  0  0
  185.2940  176.9830  146.8050 C   0  0  0  0  0  2  0  0  0  0  0  0
  185.7010  179.2160  147.4890 C   0  0  0  0  0  2  0  0  0  0  0  0
  185.5030  179.2300  146.1010 O   0  0  0  0  0  0  0  0  0  0  0  0
  184.8340  178.0300  145.8170 C   0  0  1  0  0  3  0  0  0  0  0  0
  1  4  1  0  0  0  0
  1 17  1  0  0  0  0
  1  7  1  1  0  0  0
  4 16  1  6  0  0  0
  4 17  1  0  0  0  0
  4  5  1  0  0  0  0
  5  3  2  0  0  0  0
  5  6  1  0  0  0  0
  6 14  2  0  0  0  0
  7 10  1  0  0  0  0
  8  9  1  6  0  0  0
  8 12  1  0  0  0  0
 10 14  1  0  0  0  0
 12 20  1  6  0  0  0
 13 19  2  0  0  0  0
 14 11  1  0  0  0  0
 15  2  1  6  0  0  0
 15  8  1  0  0  0  0
 15 13  1  0  0  0  0
 16 13  1  0  0  0  0
 18  2  1  0  0  0  0
 18  9  1  0  0  0  0
 19 12  1  0  0  0  0
 19  3  1  0  0  0  0
 22 21  1  0  0  0  0
 23 21  1  0  0  0  0
 24 23  1  0  0  0  0
 25 20  1  6  0  0  0
 25 24  1  0  0  0  0
 25 22  1  0  0  0  0
M  END
>  <MODEL>
2

>  <REMARK>
 VINA RESULT:      -7.9      1.910      4.427
  Name = 
  2 active torsions:
  status: ('A' for Active; 'I' for Inactive)
    1  A    between atoms: N_1  and  C_17
    2  A    between atoms: N_1  and  C_24
                            x       y       z     vdW  Elec       q    Type
                         _______ _______ _______ _____ _____    ______ ____

>  <TORSDO>
F 2

$$$$
=
 OpenBabel11042417473D

 25 30  0  0  1  0  0  0  0  0999 V2000
  190.7390  175.9980  147.1360 C   0  0  2  0  0  3  0  0  0  0  0  0
  185.9970  177.7490  147.8490 C   0  0  0  0  0  2  0  0  0  0  0  0
  188.6220  176.5430  144.1880 N   0  0  0  0  0  0  0  0  0  0  0  0
  189.6270  175.7030  146.2350 C   0  0  2  0  0  0  0  0  0  0  0  0
  189.6750  176.0170  144.7430 C   0  0  0  0  0  0  0  0  0  0  0  0
  190.7670  175.6310  143.8930 N   0  0  0  0  0  0  0  0  0  0  0  0
  191.8810  176.7310  146.4270 C   0  0  0  0  0  2  0  0  0  0  0  0
  185.2520  177.5580  145.5570 C   0  0  1  0  0  3  0  0  0  0  0  0
  184.9940  178.9430  146.1320 C   0  0  0  0  0  2  0  0  0  0  0  0
  192.5750  175.8990  145.4560 N   0  0  0  0  0  2  0  0  0  0  0  0
  192.9550  174.9850  143.1540 C   0  0  0  0  0  1  0  0  0  0  0  0
  186.2460  177.5310  144.3720 C   0  0  2  0  0  3  0  0  0  0  0  0
  187.2560  176.4450  146.1810 C   0  0  0  0  0  0  0  0  0  0  0  0
  192.0280  175.5060  144.1920 C   0  0  0  0  0  0  0  0  0  0  0  0
  185.9020  176.7750  146.6910 C   0  0  1  0  0  3  0  0  0  0  0  0
  188.2570  175.5910  146.9040 C   0  0  0  0  0  2  0  0  0  0  0  0
  190.5320  174.6200  146.6340 N   0  0  0  0  0  2  0  0  0  0  0  0
  185.0800  178.8470  147.5810 N   0  0  0  0  0  2  0  0  0  0  0  0
  187.4330  176.8430  144.9340 C   0  0  0  0  0  0  0  0  0  0  0  0
  186.6100  178.8660  143.9060 N   0  0  0  0  0  2  0  0  0  0  0  0
  185.8600  177.6110  140.6730 C   0  0  0  0  0  2  0  0  0  0  0  0
  186.8850  178.2120  141.5850 C   0  0  0  0  0  2  0  0  0  0  0  0
  184.5450  178.1200  141.2140 C   0  0  0  0  0  2  0  0  0  0  0  0
  184.7470  178.5500  142.5340 O   0  0  0  0  0  0  0  0  0  0  0  0
  186.0680  179.0200  142.5660 C   0  0  1  0  0  3  0  0  0  0  0  0
  1  7  1  6  0  0  0
  3  5  2  0  0  0  0
  3 19  1  0  0  0  0
  4 17  1  0  0  0  0
  4 16  1  1  0  0  0
  4  1  1  0  0  0  0
  5  4  1  0  0  0  0
  6 14  2  0  0  0  0
  6  5  1  0  0  0  0
  8  9  1  1  0  0  0
  8 15  1  0  0  0  0
  9 18  1  0  0  0  0
 10  7  1  0  0  0  0
 11 14  1  0  0  0  0
 12 20  1  1  0  0  0
 12 19  1  0  0  0  0
 12  8  1  0  0  0  0
 13 15  1  0  0  0  0
 13 16  1  0  0  0  0
 14 10  1  0  0  0  0
 15  2  1  1  0  0  0
 17  1  1  0  0  0  0
 18  2  1  0  0  0  0
 19 13  2  0  0  0  0
 21 23  1  0  0  0  0
 21 22  1  0  0  0  0
 22 25  1  0  0  0  0
 23 24  1  0  0  0  0
 24 25  1  0  0  0  0
 25 20  1  1  0  0  0
M  END
>  <MODEL>
3

>  <REMARK>
 VINA RESULT:      -7.6      1.144      1.364
  Name = 
  2 active torsions:
  status: ('A' for Active; 'I' for Inactive)
    1  A    between atoms: N_1  and  C_17
    2  A    between atoms: N_1  and  C_24
                            x       y       z     vdW  Elec       q    Type
                         _______ _______ _______ _____ _____    ______ ____

>  <TORSDO>
F 2

$$$$
=
 OpenBabel11042417473D

 25 30  0  0  1  0  0  0  0  0999 V2000
  188.3910  174.0770  141.0870 C   0  0  2  0  0  3  0  0  0  0  0  0
  184.9600  177.8540  140.9460 C   0  0  0  0  0  2  0  0  0  0  0  0
  187.8620  176.0640  144.1270 N   0  0  0  0  0  0  0  0  0  0  0  0
  188.4820  175.2800  141.9120 C   0  0  2  0  0  0  0  0  0  0  0  0
  188.5750  175.2260  143.4340 C   0  0  0  0  0  0  0  0  0  0  0  0
  189.5150  174.3950  144.1340 N   0  0  0  0  0  0  0  0  0  0  0  0
  188.3040  172.8010  141.9290 C   0  0  0  0  0  2  0  0  0  0  0  0
  185.4220  178.7710  143.1340 C   0  0  1  0  0  3  0  0  0  0  0  0
  183.9400  178.4910  142.9300 C   0  0  0  0  0  2  0  0  0  0  0  0
  189.5360  172.5080  142.6450 N   0  0  0  0  0  2  0  0  0  0  0  0
  191.0520  172.6240  144.6360 C   0  0  0  0  0  1  0  0  0  0  0  0
  186.0840  177.9290  144.2520 C   0  0  2  0  0  3  0  0  0  0  0  0
  186.9860  177.2430  142.2050 C   0  0  0  0  0  0  0  0  0  0  0  0
  190.0020  173.2400  143.7840 C   0  0  0  0  0  0  0  0  0  0  0  0
  186.0860  178.3600  141.8260 C   0  0  1  0  0  3  0  0  0  0  0  0
  187.9370  176.5560  141.2690 C   0  0  0  0  0  2  0  0  0  0  0  0
  189.6850  174.7840  141.2340 N   0  0  0  0  0  2  0  0  0  0  0  0
  183.7080  178.3470  141.5000 N   0  0  0  0  0  2  0  0  0  0  0  0
  186.9900  177.0220  143.5070 C   0  0  0  0  0  0  0  0  0  0  0  0
  185.1190  177.1560  145.0270 N   0  0  0  0  0  2  0  0  0  0  0  0
  186.8170  178.2910  147.9290 C   0  0  0  0  0  2  0  0  0  0  0  0
  186.3070  177.1210  147.1440 C   0  0  0  0  0  2  0  0  0  0  0  0
  185.8920  179.4220  147.5430 C   0  0  0  0  0  2  0  0  0  0  0  0
  185.2510  179.0800  146.3440 O   0  0  0  0  0  0  0  0  0  0  0  0
  185.1280  177.6830  146.3820 C   0  0  1  0  0  3  0  0  0  0  0  0
  1 17  1  0  0  0  0
  1  4  1  0  0  0  0
  1  7  1  1  0  0  0
  2 18  1  0  0  0  0
  4 16  1  6  0  0  0
  4  5  1  0  0  0  0
  5  3  2  0  0  0  0
  5  6  1  0  0  0  0
  7 10  1  0  0  0  0
  8  9  1  6  0  0  0
  8 12  1  0  0  0  0
 10 14  1  0  0  0  0
 12 20  1  6  0  0  0
 13 19  2  0  0  0  0
 14  6  2  0  0  0  0
 14 11  1  0  0  0  0
 15  2  1  6  0  0  0
 15 13  1  0  0  0  0
 15  8  1  0  0  0  0
 16 13  1  0  0  0  0
 17  4  1  0  0  0  0
 18  9  1  0  0  0  0
 19  3  1  0  0  0  0
 19 12  1  0  0  0  0
 22 21  1  0  0  0  0
 23 21  1  0  0  0  0
 24 25  1  0  0  0  0
 24 23  1  0  0  0  0
 25 20  1  6  0  0  0
 25 22  1  0  0  0  0
M  END
>  <MODEL>
4

>  <REMARK>
 VINA RESULT:      -7.2      2.316      4.664
  Name = 
  2 active torsions:
  status: ('A' for Active; 'I' for Inactive)
    1  A    between atoms: N_1  and  C_17
    2  A    between atoms: N_1  and  C_24
                            x       y       z     vdW  Elec       q    Type
                         _______ _______ _______ _____ _____    ______ ____

>  <TORSDO>
F 2

$$$$
=
 OpenBabel11042417473D

 25 30  0  0  1  0  0  0  0  0999 V2000
  186.5940  176.5520  146.7550 C   0  0  2  0  0  3  0  0  0  0  0  0
  189.6960  172.7270  145.4120 C   0  0  0  0  0  2  0  0  0  0  0  0
  188.0540  176.5930  143.3870 N   0  0  0  0  0  0  0  0  0  0  0  0
  187.6790  176.6960  145.7860 C   0  0  2  0  0  0  0  0  0  0  0  0
  187.4490  177.2020  144.3660 C   0  0  0  0  0  0  0  0  0  0  0  0
  186.7150  178.4000  144.0670 N   0  0  0  0  0  0  0  0  0  0  0  0
  185.2260  176.8690  146.1450 C   0  0  0  0  0  2  0  0  0  0  0  0
  190.3930  173.6300  143.2810 C   0  0  1  0  0  3  0  0  0  0  0  0
  189.8860  172.2010  143.1610 C   0  0  0  0  0  2  0  0  0  0  0  0
  185.0650  178.2770  145.8120 N   0  0  0  0  0  2  0  0  0  0  0  0
  185.1920  180.2420  144.2630 C   0  0  0  0  0  1  0  0  0  0  0  0
  189.5460  174.6770  142.5190 C   0  0  2  0  0  3  0  0  0  0  0  0
  189.2950  175.0810  144.8090 C   0  0  0  0  0  0  0  0  0  0  0  0
  185.7170  178.9280  144.7160 C   0  0  0  0  0  0  0  0  0  0  0  0
  190.2750  173.9680  144.7620 C   0  0  1  0  0  3  0  0  0  0  0  0
  188.9110  175.8300  146.0520 C   0  0  0  0  0  2  0  0  0  0  0  0
  187.4920  177.7290  146.8120 N   0  0  0  0  0  2  0  0  0  0  0  0
  189.8860  171.6150  144.4930 N   0  0  0  0  0  2  0  0  0  0  0  0
  188.9140  175.4650  143.6040 C   0  0  0  0  0  0  0  0  0  0  0  0
  188.5230  174.0710  141.6720 N   0  0  0  0  0  2  0  0  0  0  0  0
  188.5610  172.9610  138.3020 C   0  0  0  0  0  2  0  0  0  0  0  0
  189.0910  172.7870  139.6930 C   0  0  0  0  0  2  0  0  0  0  0  0
  188.1900  174.4240  138.2330 C   0  0  0  0  0  2  0  0  0  0  0  0
  188.0640  174.9110  139.5420 O   0  0  0  0  0  0  0  0  0  0  0  0
  188.9840  174.1680  140.2970 C   0  0  1  0  0  3  0  0  0  0  0  0
  1  7  1  6  0  0  0
  1 17  1  0  0  0  0
  3 19  1  0  0  0  0
  3  5  2  0  0  0  0
  4 16  1  1  0  0  0
  4  1  1  0  0  0  0
  4 17  1  0  0  0  0
  5  4  1  0  0  0  0
  6  5  1  0  0  0  0
  6 14  2  0  0  0  0
  8  9  1  1  0  0  0
  8 15  1  0  0  0  0
  9 18  1  0  0  0  0
 10  7  1  0  0  0  0
 11 14  1  0  0  0  0
 12 20  1  1  0  0  0
 12  8  1  0  0  0  0
 12 19  1  0  0  0  0
 13 16  1  0  0  0  0
 14 10  1  0  0  0  0
 15 13  1  0  0  0  0
 15  2  1  1  0  0  0
 18  2  1  0  0  0  0
 19 13  2  0  0  0  0
 21 22  1  0  0  0  0
 22 25  1  0  0  0  0
 23 21  1  0  0  0  0
 23 24  1  0  0  0  0
 24 25  1  0  0  0  0
 25 20  1  1  0  0  0
M  END
>  <MODEL>
5

>  <REMARK>
 VINA RESULT:      -6.7      2.618      5.826
  Name = 
  2 active torsions:
  status: ('A' for Active; 'I' for Inactive)
    1  A    between atoms: N_1  and  C_17
    2  A    between atoms: N_1  and  C_24
                            x       y       z     vdW  Elec       q    Type
                         _______ _______ _______ _____ _____    ______ ____

>  <TORSDO>
F 2

$$$$
=
 OpenBabel11042417473D

 25 30  0  0  1  0  0  0  0  0999 V2000
  188.0430  173.6440  140.8400 C   0  0  2  0  0  3  0  0  0  0  0  0
  185.2370  177.5410  142.5730 C   0  0  0  0  0  2  0  0  0  0  0  0
  189.2040  175.4350  143.8270 N   0  0  0  0  0  0  0  0  0  0  0  0
  188.6050  174.7830  141.5630 C   0  0  2  0  0  0  0  0  0  0  0  0
  189.4290  174.6210  142.8360 C   0  0  0  0  0  0  0  0  0  0  0  0
  190.5360  173.7120  142.9450 N   0  0  0  0  0  0  0  0  0  0  0  0
  188.2980  172.3170  141.5610 C   0  0  0  0  0  2  0  0  0  0  0  0
  186.7720  178.2880  144.2840 C   0  0  1  0  0  3  0  0  0  0  0  0
  185.3660  178.0760  144.8270 C   0  0  0  0  0  2  0  0  0  0  0  0
  189.7010  171.9320  141.5620 N   0  0  0  0  0  2  0  0  0  0  0  0
  192.0030  171.8570  142.5470 C   0  0  0  0  0  1  0  0  0  0  0  0
  187.8420  177.3480  144.8920 C   0  0  2  0  0  3  0  0  0  0  0  0
  187.5760  176.7730  142.6400 C   0  0  0  0  0  0  0  0  0  0  0  0
  190.7130  172.5670  142.3510 C   0  0  0  0  0  0  0  0  0  0  0  0
  186.6800  177.9440  142.8030 C   0  0  1  0  0  3  0  0  0  0  0  0
  187.8980  176.1190  141.3280 C   0  0  0  0  0  2  0  0  0  0  0  0
  189.2840  174.2930  140.3590 N   0  0  0  0  0  2  0  0  0  0  0  0
  184.4540  178.0390  143.6940 N   0  0  0  0  0  2  0  0  0  0  0  0
  188.2050  176.4630  143.7590 C   0  0  0  0  0  0  0  0  0  0  0  0
  187.3340  176.5590  146.0090 N   0  0  0  0  0  2  0  0  0  0  0  0
  190.3380  175.3040  147.4210 C   0  0  0  0  0  2  0  0  0  0  0  0
  188.8570  175.1420  147.2600 C   0  0  0  0  0  2  0  0  0  0  0  0
  190.5620  176.7900  147.2710 C   0  0  0  0  0  2  0  0  0  0  0  0
  189.4450  177.3430  146.6290 O   0  0  0  0  0  0  0  0  0  0  0  0
  188.3610  176.5520  147.0380 C   0  0  1  0  0  3  0  0  0  0  0  0
  1  7  1  1  0  0  0
  1  4  1  0  0  0  0
  2 18  1  0  0  0  0
  4 16  1  6  0  0  0
  4  5  1  0  0  0  0
  5  6  1  0  0  0  0
  5  3  2  0  0  0  0
  7 10  1  0  0  0  0
  8  9  1  1  0  0  0
  8 12  1  0  0  0  0
 10 14  1  0  0  0  0
 12 20  1  1  0  0  0
 13 15  1  0  0  0  0
 13 19  2  0  0  0  0
 14 11  1  0  0  0  0
 14  6  2  0  0  0  0
 15  2  1  1  0  0  0
 15  8  1  0  0  0  0
 16 13  1  0  0  0  0
 17  1  1  0  0  0  0
 17  4  1  0  0  0  0
 18  9  1  0  0  0  0
 19  3  1  0  0  0  0
 19 12  1  0  0  0  0
 22 21  1  0  0  0  0
 23 21  1  0  0  0  0
 24 25  1  0  0  0  0
 24 23  1  0  0  0  0
 25 20  1  6  0  0  0
 25 22  1  0  0  0  0
M  END
>  <MODEL>
6

>  <REMARK>
 VINA RESULT:      -6.7      2.551      4.996
  Name = 
  2 active torsions:
  status: ('A' for Active; 'I' for Inactive)
    1  A    between atoms: N_1  and  C_17
    2  A    between atoms: N_1  and  C_24
                            x       y       z     vdW  Elec       q    Type
                         _______ _______ _______ _____ _____    ______ ____

>  <TORSDO>
F 2

$$$$
=
 OpenBabel11042417473D

 25 30  0  0  1  0  0  0  0  0999 V2000
  186.4980  177.2020  141.9890 C   0  0  2  0  0  3  0  0  0  0  0  0
  190.1650  173.8520  140.8080 C   0  0  0  0  0  2  0  0  0  0  0  0
  188.8630  176.2090  144.6150 N   0  0  0  0  0  0  0  0  0  0  0  0
  187.0890  176.2780  142.9560 C   0  0  2  0  0  0  0  0  0  0  0  0
  187.7370  176.7520  144.2520 C   0  0  0  0  0  0  0  0  0  0  0  0
  187.0990  177.6610  145.1640 N   0  0  0  0  0  0  0  0  0  0  0  0
  186.7000  178.6660  142.3880 C   0  0  0  0  0  2  0  0  0  0  0  0
  191.0410  173.5550  143.0420 C   0  0  1  0  0  3  0  0  0  0  0  0
  192.1330  173.8930  142.0370 C   0  0  0  0  0  2  0  0  0  0  0  0
  185.9410  179.0420  143.5720 N   0  0  0  0  0  2  0  0  0  0  0  0
  185.6530  179.3620  146.0400 C   0  0  0  0  0  1  0  0  0  0  0  0
  190.8380  174.6180  144.1490 C   0  0  2  0  0  3  0  0  0  0  0  0
  188.9290  174.6160  142.7970 C   0  0  0  0  0  0  0  0  0  0  0  0
  186.2620  178.6240  144.9030 C   0  0  0  0  0  0  0  0  0  0  0  0
  189.7530  173.5200  142.2290 C   0  0  1  0  0  3  0  0  0  0  0  0
  187.5180  174.9250  142.3880 C   0  0  0  0  0  2  0  0  0  0  0  0
  185.6330  176.4560  142.9310 N   0  0  0  0  0  2  0  0  0  0  0  0
  191.6020  173.6470  140.7040 N   0  0  0  0  0  2  0  0  0  0  0  0
  189.5100  175.1950  143.8320 C   0  0  0  0  0  0  0  0  0  0  0  0
  191.8600  175.6590  144.1300 N   0  0  0  0  0  2  0  0  0  0  0  0
  194.7630  175.2910  146.1380 C   0  0  0  0  0  2  0  0  0  0  0  0
  193.6480  174.6160  145.3970 C   0  0  0  0  0  2  0  0  0  0  0  0
  194.1900  176.6370  146.5130 C   0  0  0  0  0  2  0  0  0  0  0  0
  193.0850  176.8940  145.6880 O   0  0  0  0  0  0  0  0  0  0  0  0
  192.5310  175.6340  145.4190 C   0  0  1  0  0  3  0  0  0  0  0  0
  1  7  1  1  0  0  0
  1 17  1  0  0  0  0
  1  4  1  0  0  0  0
  4 16  1  6  0  0  0
  4  5  1  0  0  0  0
  5  3  2  0  0  0  0
  5  6  1  0  0  0  0
  7 10  1  0  0  0  0
  8  9  1  6  0  0  0
  8 12  1  0  0  0  0
 10 14  1  0  0  0  0
 12 20  1  6  0  0  0
 13 19  2  0  0  0  0
 14  6  2  0  0  0  0
 14 11  1  0  0  0  0
 15  2  1  6  0  0  0
 15 13  1  0  0  0  0
 15  8  1  0  0  0  0
 16 13  1  0  0  0  0
 17  4  1  0  0  0  0
 18  2  1  0  0  0  0
 18  9  1  0  0  0  0
 19 12  1  0  0  0  0
 19  3  1  0  0  0  0
 21 23  1  0  0  0  0
 22 25  1  0  0  0  0
 22 21  1  0  0  0  0
 24 23  1  0  0  0  0
 25 20  1  6  0  0  0
 25 24  1  0  0  0  0
M  END
>  <MODEL>
7

>  <REMARK>
 VINA RESULT:      -6.7      2.571      7.339
  Name = 
  2 active torsions:
  status: ('A' for Active; 'I' for Inactive)
    1  A    between atoms: N_1  and  C_17
    2  A    between atoms: N_1  and  C_24
                            x       y       z     vdW  Elec       q    Type
                         _______ _______ _______ _____ _____    ______ ____

>  <TORSDO>
F 2

$$$$
=
 OpenBabel11042417473D

 25 30  0  0  1  0  0  0  0  0999 V2000
  194.0830  176.0220  146.0140 C   0  0  2  0  0  3  0  0  0  0  0  0
  189.0910  176.2620  147.0580 C   0  0  0  0  0  2  0  0  0  0  0  0
  191.7250  176.2490  143.2100 N   0  0  0  0  0  0  0  0  0  0  0  0
  193.0460  175.5190  145.1150 C   0  0  2  0  0  0  0  0  0  0  0  0
  192.9140  175.9900  143.6700 C   0  0  0  0  0  0  0  0  0  0  0  0
  194.0180  176.0230  142.7510 N   0  0  0  0  0  0  0  0  0  0  0  0
  194.9290  177.1210  145.3660 C   0  0  0  0  0  2  0  0  0  0  0  0
  188.2940  176.1100  144.7810 C   0  0  1  0  0  3  0  0  0  0  0  0
  187.6930  177.2950  145.5230 C   0  0  0  0  0  2  0  0  0  0  0  0
  195.7680  176.6280  144.2840 N   0  0  0  0  0  2  0  0  0  0  0  0
  196.2510  176.1090  141.8810 C   0  0  0  0  0  1  0  0  0  0  0  0
  189.1830  176.4930  143.5740 C   0  0  2  0  0  3  0  0  0  0  0  0
  190.5630  175.5550  145.2140 C   0  0  0  0  0  0  0  0  0  0  0  0
  195.2790  176.2320  142.9980 C   0  0  0  0  0  0  0  0  0  0  0  0
  189.2040  175.4290  145.7960 C   0  0  1  0  0  3  0  0  0  0  0  0
  191.8040  174.9500  145.8030 C   0  0  0  0  0  2  0  0  0  0  0  0
  194.2410  174.7030  145.3580 N   0  0  0  0  0  2  0  0  0  0  0  0
  187.8890  177.0740  146.9470 N   0  0  0  0  0  2  0  0  0  0  0  0
  190.5470  176.1160  144.0190 C   0  0  0  0  0  0  0  0  0  0  0  0
  189.1290  177.9170  143.2600 N   0  0  0  0  0  2  0  0  0  0  0  0
  186.6850  176.7920  140.9470 C   0  0  0  0  0  2  0  0  0  0  0  0
  188.1010  176.7020  141.4270 C   0  0  0  0  0  2  0  0  0  0  0  0
  186.2590  178.1920  141.3230 C   0  0  0  0  0  2  0  0  0  0  0  0
  187.1330  178.6700  142.3110 O   0  0  0  0  0  0  0  0  0  0  0  0
  188.3660  178.0630  142.0310 C   0  0  1  0  0  3  0  0  0  0  0  0
  1  7  1  6  0  0  0
  3  5  2  0  0  0  0
  3 19  1  0  0  0  0
  4 17  1  0  0  0  0
  4 16  1  1  0  0  0
  4  1  1  0  0  0  0
  5  4  1  0  0  0  0
  6 14  2  0  0  0  0
  6  5  1  0  0  0  0
  8  9  1  1  0  0  0
  8 15  1  0  0  0  0
  9 18  1  0  0  0  0
 10  7  1  0  0  0  0
 11 14  1  0  0  0  0
 12 20  1  1  0  0  0
 12 19  1  0  0  0  0
 12  8  1  0  0  0  0
 13 15  1  0  0  0  0
 13 16  1  0  0  0  0
 14 10  1  0  0  0  0
 15  2  1  1  0  0  0
 17  1  1  0  0  0  0
 18  2  1  0  0  0  0
 19 13  2  0  0  0  0
 21 23  1  0  0  0  0
 21 22  1  0  0  0  0
 22 25  1  0  0  0  0
 23 24  1  0  0  0  0
 25 24  1  0  0  0  0
 25 20  1  1  0  0  0
M  END
>  <MODEL>
8

>  <REMARK>
 VINA RESULT:      -6.6      2.360      3.382
  Name = 
  2 active torsions:
  status: ('A' for Active; 'I' for Inactive)
    1  A    between atoms: N_1  and  C_17
    2  A    between atoms: N_1  and  C_24
                            x       y       z     vdW  Elec       q    Type
                         _______ _______ _______ _____ _____    ______ ____

>  <TORSDO>
F 2

$$$$
=
 OpenBabel11042417473D

 25 30  0  0  1  0  0  0  0  0999 V2000
  192.0600  175.3080  146.3100 C   0  0  2  0  0  3  0  0  0  0  0  0
  189.3140  174.7950  142.0370 C   0  0  0  0  0  2  0  0  0  0  0  0
  189.1470  177.4920  145.8370 N   0  0  0  0  0  0  0  0  0  0  0  0
  191.3160  176.4050  145.6920 C   0  0  2  0  0  0  0  0  0  0  0  0
  190.2610  177.2070  146.4470 C   0  0  0  0  0  0  0  0  0  0  0  0
  190.4910  177.7870  147.7410 N   0  0  0  0  0  0  0  0  0  0  0  0
  191.5840  175.0160  147.7350 C   0  0  0  0  0  2  0  0  0  0  0  0
  187.8520  176.6880  142.3820 C   0  0  1  0  0  3  0  0  0  0  0  0
  187.0790  175.4120  142.0820 C   0  0  0  0  0  2  0  0  0  0  0  0
  191.9080  176.0810  148.6720 N   0  0  0  0  0  2  0  0  0  0  0  0
  191.4090  178.1970  149.9180 C   0  0  0  0  0  1  0  0  0  0  0  0
  187.5940  177.2780  143.7890 C   0  0  2  0  0  3  0  0  0  0  0  0
  189.8070  176.5220  143.7210 C   0  0  0  0  0  0  0  0  0  0  0  0
  191.2540  177.3550  148.7040 C   0  0  0  0  0  0  0  0  0  0  0  0
  189.3190  176.2800  142.3410 C   0  0  1  0  0  3  0  0  0  0  0  0
  191.2310  176.3580  144.1660 C   0  0  0  0  0  2  0  0  0  0  0  0
  192.6830  176.6440  146.1670 N   0  0  0  0  0  2  0  0  0  0  0  0
  188.0070  174.4580  141.4940 N   0  0  0  0  0  2  0  0  0  0  0  0
  188.8820  177.0660  144.4920 C   0  0  0  0  0  0  0  0  0  0  0  0
  186.5130  176.6010  144.4980 N   0  0  0  0  0  2  0  0  0  0  0  0
  185.1470  179.8590  144.1590 C   0  0  0  0  0  2  0  0  0  0  0  0
  186.0150  178.9320  144.9560 C   0  0  0  0  0  2  0  0  0  0  0  0
  184.1560  178.9410  143.4840 C   0  0  0  0  0  2  0  0  0  0  0  0
  184.6770  177.6390  143.4970 O   0  0  0  0  0  0  0  0  0  0  0  0
  185.4380  177.5640  144.6730 C   0  0  1  0  0  3  0  0  0  0  0  0
  1  7  1  1  0  0  0
  3  5  2  0  0  0  0
  4 16  1  6  0  0  0
  4 17  1  0  0  0  0
  4  1  1  0  0  0  0
  4  5  1  0  0  0  0
  5  6  1  0  0  0  0
  6 14  2  0  0  0  0
  7 10  1  0  0  0  0
  8  9  1  1  0  0  0
  8 12  1  0  0  0  0
 10 14  1  0  0  0  0
 12 19  1  0  0  0  0
 12 20  1  1  0  0  0
 13 16  1  0  0  0  0
 13 19  2  0  0  0  0
 14 11  1  0  0  0  0
 15  2  1  1  0  0  0
 15  8  1  0  0  0  0
 15 13  1  0  0  0  0
 17  1  1  0  0  0  0
 18  2  1  0  0  0  0
 18  9  1  0  0  0  0
 19  3  1  0  0  0  0
 21 22  1  0  0  0  0
 23 24  1  0  0  0  0
 23 21  1  0  0  0  0
 24 25  1  0  0  0  0
 25 20  1  6  0  0  0
 25 22  1  0  0  0  0
M  END
>  <MODEL>
9

>  <REMARK>
 VINA RESULT:      -6.5      2.283      4.487
  Name = 
  2 active torsions:
  status: ('A' for Active; 'I' for Inactive)
    1  A    between atoms: N_1  and  C_17
    2  A    between atoms: N_1  and  C_24
                            x       y       z     vdW  Elec       q    Type
                         _______ _______ _______ _____ _____    ______ ____

>  <TORSDO>
F 2

$$$$
