=
 OpenBabel11042418513D

 26 29  0  0  1  0  0  0  0  0999 V2000
  186.7850  177.9230  142.1030 C   0  0  0  0  0  3  0  0  0  0  0  0
  187.4500  176.7290  145.7330 C   0  0  2  0  0  3  0  0  0  0  0  0
  190.3200  174.9700  143.8160 C   0  0  1  0  0  3  0  0  0  0  0  0
  185.9380  179.0080  142.3300 C   0  0  0  0  0  3  0  0  0  0  0  0
  185.5810  179.3510  143.6330 C   0  0  0  0  0  3  0  0  0  0  0  0
  187.2730  177.1680  143.1760 C   0  0  0  0  0  0  0  0  0  0  0  0
  188.9220  174.8820  143.4470 C   0  0  2  0  0  0  0  0  0  0  0  0
  186.0800  178.6190  144.7120 C   0  0  0  0  0  3  0  0  0  0  0  0
  188.1470  176.0690  142.9090 N   0  0  0  0  0  0  0  0  0  0  0  0
  188.9270  176.4260  145.7060 C   0  0  0  0  0  3  0  0  0  0  0  0
  189.3530  175.6660  144.7080 C   0  0  0  0  0  0  0  0  0  0  0  0
  186.9500  177.5320  144.5160 C   0  0  0  0  0  0  0  0  0  0  0  0
  189.0590  175.2570  142.1100 C   0  0  2  0  0  3  0  0  0  0  0  0
  187.0780  177.3220  147.0590 C   0  0  0  0  0  0  0  0  0  0  0  0
  187.8160  178.1830  147.6070 O   0  0  0  0  0  0  0  0  0  0  0  0
  185.8630  176.9280  147.6860 N   0  0  0  0  0  1  0  0  0  0  0  0
  189.8960  172.5900  144.7330 C   0  0  0  0  0  1  0  0  0  0  0  0
  192.0210  173.6460  145.0410 N   0  0  0  0  0  0  0  0  0  0  0  0
  190.8340  173.7290  144.5120 C   0  0  0  0  0  0  0  0  0  0  0  0
  193.9970  174.5420  144.1000 C   0  0  0  0  0  2  0  0  0  0  0  0
  193.0270  174.6620  144.9950 C   0  0  0  0  0  0  0  0  0  0  0  0
  193.3310  175.4490  146.2270 C   0  0  0  0  0  2  0  0  0  0  0  0
  191.3160  175.3470  147.9840 C   0  0  0  0  0  3  0  0  0  0  0  0
  192.2260  175.3890  147.1910 C   0  0  0  0  0  0  0  0  0  0  0  0
  188.2360  174.3530  141.2120 C   0  0  0  0  0  2  0  0  0  0  0  0
  187.7450  173.2780  141.9510 O   0  0  0  0  0  1  0  0  0  0  0  0
  1  4  2  0  0  0  0
  1  6  1  0  0  0  0
  2 14  1  1  0  0  0
  3 19  1  1  0  0  0
  3 11  1  0  0  0  0
  4  5  1  0  0  0  0
  5  8  2  0  0  0  0
  6 12  2  0  0  0  0
  7  3  1  0  0  0  0
  7 11  1  1  0  0  0
  9  6  1  0  0  0  0
  9  7  1  0  0  0  0
 10  2  1  0  0  0  0
 11 10  2  0  0  0  0
 12  8  1  0  0  0  0
 12  2  1  0  0  0  0
 13 25  1  6  0  0  0
 13  9  1  0  0  0  0
 13  7  1  0  0  0  0
 14 15  2  0  0  0  0
 14 16  1  0  0  0  0
 19 17  1  0  0  0  0
 19 18  2  0  0  0  0
 20 21  2  0  0  0  0
 21 18  1  0  0  0  0
 21 22  1  0  0  0  0
 22 24  1  0  0  0  0
 24 23  3  0  0  0  0
 25 26  1  0  0  0  0
M  END
>  <MODEL>
1

>  <REMARK>
 VINA RESULT:      -6.6      0.000      0.000
  Name = 
  6 active torsions:
  status: ('A' for Active; 'I' for Inactive)
    1  A    between atoms: C_1  and  C_8
    2  A    between atoms: N_4  and  C_25
    3  A    between atoms: C_9  and  C_20
    4  A    between atoms: C_11  and  C_23
    5  A    between atoms: C_14  and  C_26
    6  A    between atoms: C_25  and  C_26
                            x       y       z     vdW  Elec       q    Type
                         _______ _______ _______ _____ _____    ______ ____

>  <TORSDO>
F 6

$$$$
=
 OpenBabel11042418513D

 26 29  0  0  1  0  0  0  0  0999 V2000
  187.5220  177.9640  142.7730 C   0  0  0  0  0  3  0  0  0  0  0  0
  187.5220  177.5020  146.6240 C   0  0  2  0  0  3  0  0  0  0  0  0
  191.1240  176.3960  145.7250 C   0  0  1  0  0  3  0  0  0  0  0  0
  186.4050  178.7830  142.6020 C   0  0  0  0  0  3  0  0  0  0  0  0
  185.6580  179.1800  143.7100 C   0  0  0  0  0  3  0  0  0  0  0  0
  187.8930  177.5290  144.0500 C   0  0  0  0  0  0  0  0  0  0  0  0
  189.9300  175.8650  145.0990 C   0  0  2  0  0  0  0  0  0  0  0  0
  186.0330  178.7700  144.9910 C   0  0  0  0  0  3  0  0  0  0  0  0
  189.0480  176.6990  144.1910 N   0  0  0  0  0  0  0  0  0  0  0  0
  188.9850  177.6320  146.9630 C   0  0  0  0  0  3  0  0  0  0  0  0
  189.8220  176.8990  146.2430 C   0  0  0  0  0  0  0  0  0  0  0  0
  187.1630  177.9610  145.1970 C   0  0  0  0  0  0  0  0  0  0  0  0
  190.3040  176.0820  143.7720 C   0  0  2  0  0  3  0  0  0  0  0  0
  186.6930  178.1350  147.7020 C   0  0  0  0  0  0  0  0  0  0  0  0
  185.5740  177.6530  148.0190 O   0  0  0  0  0  0  0  0  0  0  0  0
  187.1950  179.2730  148.3930 N   0  0  0  0  0  1  0  0  0  0  0  0
  191.1100  175.3570  148.0930 C   0  0  0  0  0  1  0  0  0  0  0  0
  192.8510  174.8180  146.5440 N   0  0  0  0  0  0  0  0  0  0  0  0
  191.7340  175.4560  146.7420 C   0  0  0  0  0  0  0  0  0  0  0  0
  193.3780  173.9400  144.4120 C   0  0  0  0  0  2  0  0  0  0  0  0
  193.6280  174.8490  145.3440 C   0  0  0  0  0  0  0  0  0  0  0  0
  195.0040  175.4300  145.3750 C   0  0  0  0  0  2  0  0  0  0  0  0
  196.8200  173.6250  146.1460 C   0  0  0  0  0  3  0  0  0  0  0  0
  195.9990  174.4360  145.7950 C   0  0  0  0  0  0  0  0  0  0  0  0
  189.9820  174.8710  142.9200 C   0  0  0  0  0  2  0  0  0  0  0  0
  189.4270  175.2830  141.7080 O   0  0  0  0  0  1  0  0  0  0  0  0
  1  6  1  0  0  0  0
  2 10  1  0  0  0  0
  2 14  1  1  0  0  0
  3 11  1  0  0  0  0
  3 19  1  1  0  0  0
  4  1  2  0  0  0  0
  4  5  1  0  0  0  0
  5  8  2  0  0  0  0
  6  9  1  0  0  0  0
  6 12  2  0  0  0  0
  7  3  1  0  0  0  0
  7 11  1  1  0  0  0
  8 12  1  0  0  0  0
  9  7  1  0  0  0  0
 11 10  2  0  0  0  0
 12  2  1  0  0  0  0
 13 25  1  6  0  0  0
 13  9  1  0  0  0  0
 13  7  1  0  0  0  0
 14 15  2  0  0  0  0
 14 16  1  0  0  0  0
 18 19  2  0  0  0  0
 19 17  1  0  0  0  0
 20 21  2  0  0  0  0
 21 22  1  0  0  0  0
 21 18  1  0  0  0  0
 22 24  1  0  0  0  0
 24 23  3  0  0  0  0
 26 25  1  0  0  0  0
M  END
>  <MODEL>
2

>  <REMARK>
 VINA RESULT:      -6.6      1.626      2.407
  Name = 
  6 active torsions:
  status: ('A' for Active; 'I' for Inactive)
    1  A    between atoms: C_1  and  C_8
    2  A    between atoms: N_4  and  C_25
    3  A    between atoms: C_9  and  C_20
    4  A    between atoms: C_11  and  C_23
    5  A    between atoms: C_14  and  C_26
    6  A    between atoms: C_25  and  C_26
                            x       y       z     vdW  Elec       q    Type
                         _______ _______ _______ _____ _____    ______ ____

>  <TORSDO>
F 6

$$$$
=
 OpenBabel11042418513D

 26 29  0  0  1  0  0  0  0  0999 V2000
  192.2950  176.2780  144.0670 C   0  0  0  0  0  3  0  0  0  0  0  0
  188.8720  174.8580  142.9270 C   0  0  2  0  0  3  0  0  0  0  0  0
  187.7590  177.6970  145.3160 C   0  0  1  0  0  3  0  0  0  0  0  0
  193.1420  175.7480  143.0940 C   0  0  0  0  0  3  0  0  0  0  0  0
  192.6210  174.9400  142.0850 C   0  0  0  0  0  3  0  0  0  0  0  0
  190.9240  175.9980  144.0440 C   0  0  0  0  0  0  0  0  0  0  0  0
  188.7040  176.6580  145.6710 C   0  0  2  0  0  0  0  0  0  0  0  0
  191.2520  174.6710  142.0380 C   0  0  0  0  0  3  0  0  0  0  0  0
  190.0830  176.5660  145.0500 N   0  0  0  0  0  0  0  0  0  0  0  0
  187.9550  176.0410  143.1130 C   0  0  0  0  0  3  0  0  0  0  0  0
  188.0200  176.6550  144.2850 C   0  0  0  0  0  0  0  0  0  0  0  0
  190.3710  175.2070  142.9940 C   0  0  0  0  0  0  0  0  0  0  0  0
  189.7300  177.4880  146.1250 C   0  0  2  0  0  3  0  0  0  0  0  0
  188.4700  174.0940  141.7000 C   0  0  0  0  0  0  0  0  0  0  0  0
  188.2770  174.6890  140.6070 O   0  0  0  0  0  0  0  0  0  0  0  0
  188.3380  172.6790  141.7690 N   0  0  0  0  0  1  0  0  0  0  0  0
  186.2540  176.6760  147.1540 C   0  0  0  0  0  1  0  0  0  0  0  0
  185.2860  177.8560  145.3120 N   0  0  0  0  0  0  0  0  0  0  0  0
  186.3830  177.4810  145.9040 C   0  0  0  0  0  0  0  0  0  0  0  0
  185.3190  179.8910  144.1070 C   0  0  0  0  0  2  0  0  0  0  0  0
  185.2080  178.5700  144.0750 C   0  0  0  0  0  0  0  0  0  0  0  0
  184.4490  177.9780  142.9330 C   0  0  0  0  0  2  0  0  0  0  0  0
  185.8800  178.0450  140.6740 C   0  0  0  0  0  3  0  0  0  0  0  0
  185.2310  178.0130  141.6910 C   0  0  0  0  0  0  0  0  0  0  0  0
  190.3130  176.9600  147.4210 C   0  0  0  0  0  2  0  0  0  0  0  0
  190.1190  175.5810  147.4960 O   0  0  0  0  0  1  0  0  0  0  0  0
  2 14  1  6  0  0  0
  2 12  1  0  0  0  0
  2 10  1  0  0  0  0
  3  7  1  0  0  0  0
  3 19  1  1  0  0  0
  4  1  2  0  0  0  0
  5  4  1  0  0  0  0
  6  1  1  0  0  0  0
  6  9  1  0  0  0  0
  7 11  1  1  0  0  0
  7 13  1  0  0  0  0
  8  5  2  0  0  0  0
  8 12  1  0  0  0  0
  9  7  1  0  0  0  0
  9 13  1  0  0  0  0
 10 11  2  0  0  0  0
 11  3  1  0  0  0  0
 12  6  2  0  0  0  0
 13 25  1  1  0  0  0
 14 16  1  0  0  0  0
 15 14  2  0  0  0  0
 18 19  2  0  0  0  0
 19 17  1  0  0  0  0
 21 20  2  0  0  0  0
 21 18  1  0  0  0  0
 22 21  1  0  0  0  0
 23 24  3  0  0  0  0
 24 22  1  0  0  0  0
 25 26  1  0  0  0  0
M  END
>  <MODEL>
3

>  <REMARK>
 VINA RESULT:      -6.5      1.942      6.725
  Name = 
  6 active torsions:
  status: ('A' for Active; 'I' for Inactive)
    1  A    between atoms: C_1  and  C_8
    2  A    between atoms: N_4  and  C_25
    3  A    between atoms: C_9  and  C_20
    4  A    between atoms: C_11  and  C_23
    5  A    between atoms: C_14  and  C_26
    6  A    between atoms: C_25  and  C_26
                            x       y       z     vdW  Elec       q    Type
                         _______ _______ _______ _____ _____    ______ ____

>  <TORSDO>
F 6

$$$$
=
 OpenBabel11042418513D

 26 29  0  0  1  0  0  0  0  0999 V2000
  186.0730  177.7670  147.0330 C   0  0  0  0  0  3  0  0  0  0  0  0
  186.3400  177.5730  143.1690 C   0  0  2  0  0  3  0  0  0  0  0  0
  189.1210  175.1010  144.2490 C   0  0  1  0  0  3  0  0  0  0  0  0
  184.8140  178.3480  147.1850 C   0  0  0  0  0  3  0  0  0  0  0  0
  184.0600  178.6780  146.0600 C   0  0  0  0  0  3  0  0  0  0  0  0
  186.5910  177.5190  145.7570 C   0  0  0  0  0  0  0  0  0  0  0  0
  189.0090  176.4620  144.7330 C   0  0  2  0  0  0  0  0  0  0  0  0
  184.5570  178.4150  144.7820 C   0  0  0  0  0  3  0  0  0  0  0  0
  187.8790  176.9130  145.6370 N   0  0  0  0  0  0  0  0  0  0  0  0
  186.9430  176.2070  142.9570 C   0  0  0  0  0  3  0  0  0  0  0  0
  188.0190  175.9220  143.6750 C   0  0  0  0  0  0  0  0  0  0  0  0
  185.8140  177.8130  144.5970 C   0  0  0  0  0  0  0  0  0  0  0  0
  189.0520  176.1770  146.0980 C   0  0  2  0  0  3  0  0  0  0  0  0
  185.3420  177.8600  142.0870 C   0  0  0  0  0  0  0  0  0  0  0  0
  184.1070  177.7320  142.3010 O   0  0  0  0  0  0  0  0  0  0  0  0
  185.7970  178.3120  140.8180 N   0  0  0  0  0  1  0  0  0  0  0  0
  191.1750  176.0340  142.9850 C   0  0  0  0  0  1  0  0  0  0  0  0
  190.2600  173.9020  142.4020 N   0  0  0  0  0  0  0  0  0  0  0  0
  190.2030  174.9240  143.2070 C   0  0  0  0  0  0  0  0  0  0  0  0
  189.8760  171.5860  142.6950 C   0  0  0  0  0  2  0  0  0  0  0  0
  189.3720  172.7810  142.4150 C   0  0  0  0  0  0  0  0  0  0  0  0
  188.1310  172.8190  141.5850 C   0  0  0  0  0  2  0  0  0  0  0  0
  188.5240  174.1500  139.2990 C   0  0  0  0  0  3  0  0  0  0  0  0
  188.3430  173.5510  140.3310 C   0  0  0  0  0  0  0  0  0  0  0  0
  189.9720  177.1430  146.8190 C   0  0  0  0  0  2  0  0  0  0  0  0
  191.2990  176.7650  146.6210 O   0  0  0  0  0  1  0  0  0  0  0  0
  1  4  1  0  0  0  0
  2 14  1  6  0  0  0
  2 12  1  0  0  0  0
  3 19  1  6  0  0  0
  3  7  1  0  0  0  0
  5  4  2  0  0  0  0
  6  1  2  0  0  0  0
  7 11  1  6  0  0  0
  7  9  1  0  0  0  0
  7 13  1  0  0  0  0
  8  5  1  0  0  0  0
  9  6  1  0  0  0  0
  9 13  1  0  0  0  0
 10  2  1  0  0  0  0
 10 11  2  0  0  0  0
 11  3  1  0  0  0  0
 12  8  2  0  0  0  0
 12  6  1  0  0  0  0
 13 25  1  1  0  0  0
 14 15  2  0  0  0  0
 16 14  1  0  0  0  0
 17 19  1  0  0  0  0
 18 21  1  0  0  0  0
 18 19  2  0  0  0  0
 21 20  2  0  0  0  0
 22 21  1  0  0  0  0
 23 24  3  0  0  0  0
 24 22  1  0  0  0  0
 26 25  1  0  0  0  0
M  END
>  <MODEL>
4

>  <REMARK>
 VINA RESULT:      -6.3      2.416      4.878
  Name = 
  6 active torsions:
  status: ('A' for Active; 'I' for Inactive)
    1  A    between atoms: C_1  and  C_8
    2  A    between atoms: N_4  and  C_25
    3  A    between atoms: C_9  and  C_20
    4  A    between atoms: C_11  and  C_23
    5  A    between atoms: C_14  and  C_26
    6  A    between atoms: C_25  and  C_26
                            x       y       z     vdW  Elec       q    Type
                         _______ _______ _______ _____ _____    ______ ____

>  <TORSDO>
F 6

$$$$
=
 OpenBabel11042418513D

 26 29  0  0  1  0  0  0  0  0999 V2000
  187.2100  176.8990  141.3600 C   0  0  0  0  0  3  0  0  0  0  0  0
  186.3250  177.2070  145.1230 C   0  0  2  0  0  3  0  0  0  0  0  0
  189.9750  175.9230  145.3040 C   0  0  1  0  0  3  0  0  0  0  0  0
  186.2030  177.6740  140.7850 C   0  0  0  0  0  3  0  0  0  0  0  0
  185.2490  178.2870  141.5950 C   0  0  0  0  0  3  0  0  0  0  0  0
  187.2640  176.7220  142.7480 C   0  0  0  0  0  0  0  0  0  0  0  0
  188.9260  175.2860  144.5340 C   0  0  2  0  0  0  0  0  0  0  0  0
  185.3060  178.1360  142.9820 C   0  0  0  0  0  3  0  0  0  0  0  0
  188.3140  175.9290  143.3050 N   0  0  0  0  0  0  0  0  0  0  0  0
  187.6800  177.3920  145.7590 C   0  0  0  0  0  3  0  0  0  0  0  0
  188.6180  176.5270  145.4030 C   0  0  0  0  0  0  0  0  0  0  0  0
  186.3190  177.3760  143.5920 C   0  0  0  0  0  0  0  0  0  0  0  0
  189.5980  175.2350  143.3120 C   0  0  2  0  0  3  0  0  0  0  0  0
  185.3090  178.0450  145.8420 C   0  0  0  0  0  0  0  0  0  0  0  0
  184.2240  177.5430  146.2350 O   0  0  0  0  0  0  0  0  0  0  0  0
  185.5940  179.4130  146.1070 N   0  0  0  0  0  1  0  0  0  0  0  0
  189.1850  174.9170  147.5510 C   0  0  0  0  0  1  0  0  0  0  0  0
  191.5060  174.9160  146.9730 N   0  0  0  0  0  0  0  0  0  0  0  0
  190.2940  175.1990  146.5930 C   0  0  0  0  0  0  0  0  0  0  0  0
  193.3340  174.1490  145.6820 C   0  0  0  0  0  2  0  0  0  0  0  0
  192.6970  175.1770  146.2250 C   0  0  0  0  0  0  0  0  0  0  0  0
  193.5070  176.3920  146.5360 C   0  0  0  0  0  2  0  0  0  0  0  0
  195.3210  176.8850  144.6340 C   0  0  0  0  0  3  0  0  0  0  0  0
  194.5000  176.6610  145.4890 C   0  0  0  0  0  0  0  0  0  0  0  0
  189.4130  173.8810  142.6550 C   0  0  0  0  0  2  0  0  0  0  0  0
  189.8260  172.8750  143.5280 O   0  0  0  0  0  1  0  0  0  0  0  0
  1  6  1  0  0  0  0
  2 10  1  0  0  0  0
  2 14  1  1  0  0  0
  3 11  1  0  0  0  0
  3 19  1  1  0  0  0
  4  1  2  0  0  0  0
  4  5  1  0  0  0  0
  5  8  2  0  0  0  0
  6  9  1  0  0  0  0
  6 12  2  0  0  0  0
  7  3  1  0  0  0  0
  7 11  1  1  0  0  0
  8 12  1  0  0  0  0
  9 13  1  0  0  0  0
  9  7  1  0  0  0  0
 11 10  2  0  0  0  0
 12  2  1  0  0  0  0
 13 25  1  6  0  0  0
 13  7  1  0  0  0  0
 14 16  1  0  0  0  0
 14 15  2  0  0  0  0
 19 18  2  0  0  0  0
 19 17  1  0  0  0  0
 20 21  2  0  0  0  0
 21 22  1  0  0  0  0
 21 18  1  0  0  0  0
 23 24  3  0  0  0  0
 24 22  1  0  0  0  0
 25 26  1  0  0  0  0
M  END
>  <MODEL>
5

>  <REMARK>
 VINA RESULT:      -6.3      1.704      2.328
  Name = 
  6 active torsions:
  status: ('A' for Active; 'I' for Inactive)
    1  A    between atoms: C_1  and  C_8
    2  A    between atoms: N_4  and  C_25
    3  A    between atoms: C_9  and  C_20
    4  A    between atoms: C_11  and  C_23
    5  A    between atoms: C_14  and  C_26
    6  A    between atoms: C_25  and  C_26
                            x       y       z     vdW  Elec       q    Type
                         _______ _______ _______ _____ _____    ______ ____

>  <TORSDO>
F 6

$$$$
=
 OpenBabel11042418513D

 26 29  0  0  1  0  0  0  0  0999 V2000
  186.4230  177.8210  147.5210 C   0  0  0  0  0  3  0  0  0  0  0  0
  187.4190  177.7980  143.7730 C   0  0  2  0  0  3  0  0  0  0  0  0
  190.2610  175.6730  145.3280 C   0  0  1  0  0  3  0  0  0  0  0  0
  185.0920  178.2280  147.4410 C   0  0  0  0  0  3  0  0  0  0  0  0
  184.5200  178.4960  146.1980 C   0  0  0  0  0  3  0  0  0  0  0  0
  187.1950  177.6880  146.3610 C   0  0  0  0  0  0  0  0  0  0  0  0
  189.8800  176.9890  145.7960 C   0  0  2  0  0  0  0  0  0  0  0  0
  185.2740  178.3450  145.0320 C   0  0  0  0  0  3  0  0  0  0  0  0
  188.5540  177.2590  146.4780 N   0  0  0  0  0  0  0  0  0  0  0  0
  188.2290  176.5300  143.6630 C   0  0  0  0  0  3  0  0  0  0  0  0
  189.1830  176.3630  144.5670 C   0  0  0  0  0  0  0  0  0  0  0  0
  186.6120  177.9180  145.0800 C   0  0  0  0  0  0  0  0  0  0  0  0
  189.7100  176.6660  147.1430 C   0  0  2  0  0  3  0  0  0  0  0  0
  186.6080  177.9900  142.5260 C   0  0  0  0  0  0  0  0  0  0  0  0
  186.2320  179.1390  142.1750 O   0  0  0  0  0  0  0  0  0  0  0  0
  186.2890  176.8640  141.7180 N   0  0  0  0  0  1  0  0  0  0  0  0
  192.4130  176.8750  144.5490 C   0  0  0  0  0  1  0  0  0  0  0  0
  191.8350  174.7310  143.6610 N   0  0  0  0  0  0  0  0  0  0  0  0
  191.5300  175.6740  144.5050 C   0  0  0  0  0  0  0  0  0  0  0  0
  191.2680  172.5070  144.2320 C   0  0  0  0  0  2  0  0  0  0  0  0
  191.0740  173.5430  143.4270 C   0  0  0  0  0  0  0  0  0  0  0  0
  190.5720  173.2510  142.0510 C   0  0  0  0  0  2  0  0  0  0  0  0
  187.8990  173.1990  141.9690 C   0  0  0  0  0  3  0  0  0  0  0  0
  189.1050  173.2190  142.0080 C   0  0  0  0  0  0  0  0  0  0  0  0
  190.3440  177.7180  148.0320 C   0  0  0  0  0  2  0  0  0  0  0  0
  191.5150  177.2140  148.5950 O   0  0  0  0  0  1  0  0  0  0  0  0
  2 14  1  6  0  0  0
  2 12  1  0  0  0  0
  3 19  1  6  0  0  0
  3  7  1  0  0  0  0
  4  1  1  0  0  0  0
  5  4  2  0  0  0  0
  6  9  1  0  0  0  0
  6  1  2  0  0  0  0
  7 11  1  6  0  0  0
  7  9  1  0  0  0  0
  7 13  1  0  0  0  0
  8 12  2  0  0  0  0
  8  5  1  0  0  0  0
  9 13  1  0  0  0  0
 10  2  1  0  0  0  0
 10 11  2  0  0  0  0
 11  3  1  0  0  0  0
 12  6  1  0  0  0  0
 13 25  1  1  0  0  0
 15 14  2  0  0  0  0
 16 14  1  0  0  0  0
 18 19  2  0  0  0  0
 19 17  1  0  0  0  0
 21 18  1  0  0  0  0
 21 20  2  0  0  0  0
 22 21  1  0  0  0  0
 23 24  3  0  0  0  0
 24 22  1  0  0  0  0
 25 26  1  0  0  0  0
M  END
>  <MODEL>
6

>  <REMARK>
 VINA RESULT:      -6.2      2.192      4.575
  Name = 
  6 active torsions:
  status: ('A' for Active; 'I' for Inactive)
    1  A    between atoms: C_1  and  C_8
    2  A    between atoms: N_4  and  C_25
    3  A    between atoms: C_9  and  C_20
    4  A    between atoms: C_11  and  C_23
    5  A    between atoms: C_14  and  C_26
    6  A    between atoms: C_25  and  C_26
                            x       y       z     vdW  Elec       q    Type
                         _______ _______ _______ _____ _____    ______ ____

>  <TORSDO>
F 6

$$$$
=
 OpenBabel11042418513D

 26 29  0  0  1  0  0  0  0  0999 V2000
  186.8560  177.1310  146.8890 C   0  0  0  0  0  3  0  0  0  0  0  0
  188.6000  176.9460  143.4300 C   0  0  2  0  0  3  0  0  0  0  0  0
  191.3620  175.5340  145.7510 C   0  0  1  0  0  3  0  0  0  0  0  0
  185.5220  177.2770  146.5080 C   0  0  0  0  0  3  0  0  0  0  0  0
  185.1860  177.3190  145.1550 C   0  0  0  0  0  3  0  0  0  0  0  0
  187.8630  177.0360  145.9220 C   0  0  0  0  0  0  0  0  0  0  0  0
  190.6840  176.7960  145.9680 C   0  0  2  0  0  0  0  0  0  0  0  0
  186.1800  177.2020  144.1820 C   0  0  0  0  0  3  0  0  0  0  0  0
  189.2190  176.8780  146.3470 N   0  0  0  0  0  0  0  0  0  0  0  0
  189.6090  175.8450  143.6380 C   0  0  0  0  0  3  0  0  0  0  0  0
  190.3690  175.9400  144.7190 C   0  0  0  0  0  0  0  0  0  0  0  0
  187.5300  177.0360  144.5350 C   0  0  0  0  0  0  0  0  0  0  0  0
  190.2920  176.5720  147.2880 C   0  0  2  0  0  3  0  0  0  0  0  0
  188.0460  176.8700  142.0380 C   0  0  0  0  0  0  0  0  0  0  0  0
  187.8330  177.9180  141.3730 O   0  0  0  0  0  0  0  0  0  0  0  0
  187.7890  175.5980  141.4560 N   0  0  0  0  0  1  0  0  0  0  0  0
  193.3100  177.0680  145.0180 C   0  0  0  0  0  1  0  0  0  0  0  0
  193.4600  174.6980  144.7300 N   0  0  0  0  0  0  0  0  0  0  0  0
  192.7570  175.6930  145.1890 C   0  0  0  0  0  0  0  0  0  0  0  0
  193.8380  172.4550  145.3790 C   0  0  0  0  0  2  0  0  0  0  0  0
  193.0650  173.3230  144.7410 C   0  0  0  0  0  0  0  0  0  0  0  0
  192.2220  172.7940  143.6280 C   0  0  0  0  0  2  0  0  0  0  0  0
  189.7760  172.1370  144.4880 C   0  0  0  0  0  3  0  0  0  0  0  0
  190.8780  172.4320  144.0960 C   0  0  0  0  0  0  0  0  0  0  0  0
  190.5470  177.8000  148.1390 C   0  0  0  0  0  2  0  0  0  0  0  0
  191.5650  177.5340  149.0550 O   0  0  0  0  0  1  0  0  0  0  0  0
  2 14  1  6  0  0  0
  2 10  1  0  0  0  0
  2 12  1  0  0  0  0
  3 19  1  6  0  0  0
  3  7  1  0  0  0  0
  4  1  1  0  0  0  0
  5  4  2  0  0  0  0
  6  9  1  0  0  0  0
  6  1  2  0  0  0  0
  7 11  1  6  0  0  0
  7  9  1  0  0  0  0
  7 13  1  0  0  0  0
  8 12  2  0  0  0  0
  8  5  1  0  0  0  0
  9 13  1  0  0  0  0
 10 11  2  0  0  0  0
 11  3  1  0  0  0  0
 12  6  1  0  0  0  0
 13 25  1  1  0  0  0
 15 14  2  0  0  0  0
 16 14  1  0  0  0  0
 17 19  1  0  0  0  0
 18 21  1  0  0  0  0
 18 19  2  0  0  0  0
 21 20  2  0  0  0  0
 22 24  1  0  0  0  0
 22 21  1  0  0  0  0
 24 23  3  0  0  0  0
 25 26  1  0  0  0  0
M  END
>  <MODEL>
7

>  <REMARK>
 VINA RESULT:      -6.1      2.019      4.409
  Name = 
  6 active torsions:
  status: ('A' for Active; 'I' for Inactive)
    1  A    between atoms: C_1  and  C_8
    2  A    between atoms: N_4  and  C_25
    3  A    between atoms: C_9  and  C_20
    4  A    between atoms: C_11  and  C_23
    5  A    between atoms: C_14  and  C_26
    6  A    between atoms: C_25  and  C_26
                            x       y       z     vdW  Elec       q    Type
                         _______ _______ _______ _____ _____    ______ ____

>  <TORSDO>
F 6

$$$$
=
 OpenBabel11042418513D

 26 29  0  0  1  0  0  0  0  0999 V2000
  186.7420  178.1560  144.5850 C   0  0  0  0  0  3  0  0  0  0  0  0
  189.0110  175.3260  145.9580 C   0  0  2  0  0  3  0  0  0  0  0  0
  190.5250  175.8720  142.4340 C   0  0  1  0  0  3  0  0  0  0  0  0
  186.1590  178.6250  145.7610 C   0  0  0  0  0  3  0  0  0  0  0  0
  186.4870  178.0380  146.9820 C   0  0  0  0  0  3  0  0  0  0  0  0
  187.6500  177.0910  144.6180 C   0  0  0  0  0  0  0  0  0  0  0  0
  189.1190  175.6320  142.6870 C   0  0  2  0  0  0  0  0  0  0  0  0
  187.4080  176.9900  147.0310 C   0  0  0  0  0  3  0  0  0  0  0  0
  188.2370  176.6400  143.3960 N   0  0  0  0  0  0  0  0  0  0  0  0
  190.2780  175.5160  145.1630 C   0  0  0  0  0  3  0  0  0  0  0  0
  190.1370  175.6250  143.8500 C   0  0  0  0  0  0  0  0  0  0  0  0
  188.0270  176.5080  145.8650 C   0  0  0  0  0  0  0  0  0  0  0  0
  188.6150  176.7300  141.9890 C   0  0  2  0  0  3  0  0  0  0  0  0
  189.3490  174.9130  147.3600 C   0  0  0  0  0  0  0  0  0  0  0  0
  188.5750  174.1660  148.0140 O   0  0  0  0  0  0  0  0  0  0  0  0
  190.5720  175.3480  147.9410 N   0  0  0  0  0  1  0  0  0  0  0  0
  190.4650  173.6010  141.1990 C   0  0  0  0  0  1  0  0  0  0  0  0
  192.5120  174.4230  142.1240 N   0  0  0  0  0  0  0  0  0  0  0  0
  191.2520  174.6570  141.8990 C   0  0  0  0  0  0  0  0  0  0  0  0
  194.2110  176.0690  142.1380 C   0  0  0  0  0  2  0  0  0  0  0  0
  193.4060  175.2810  142.8380 C   0  0  0  0  0  0  0  0  0  0  0  0
  193.8550  174.8960  144.2090 C   0  0  0  0  0  2  0  0  0  0  0  0
  194.1880  177.0410  145.7720 C   0  0  0  0  0  3  0  0  0  0  0  0
  194.0420  176.0740  145.0660 C   0  0  0  0  0  0  0  0  0  0  0  0
  187.4220  176.3260  141.1450 C   0  0  0  0  0  2  0  0  0  0  0  0
  186.5170  177.3850  141.0740 O   0  0  0  0  0  1  0  0  0  0  0  0
  1  6  2  0  0  0  0
  1  4  1  0  0  0  0
  2 14  1  1  0  0  0
  3 19  1  6  0  0  0
  3  7  1  0  0  0  0
  3 11  1  0  0  0  0
  4  5  2  0  0  0  0
  5  8  1  0  0  0  0
  6 12  1  0  0  0  0
  7  9  1  0  0  0  0
  7 11  1  6  0  0  0
  9  6  1  0  0  0  0
 10  2  1  0  0  0  0
 11 10  2  0  0  0  0
 12  2  1  0  0  0  0
 12  8  2  0  0  0  0
 13 25  1  6  0  0  0
 13  7  1  0  0  0  0
 13  9  1  0  0  0  0
 14 16  1  0  0  0  0
 14 15  2  0  0  0  0
 17 19  1  0  0  0  0
 18 21  1  0  0  0  0
 19 18  2  0  0  0  0
 20 21  2  0  0  0  0
 21 22  1  0  0  0  0
 22 24  1  0  0  0  0
 24 23  3  0  0  0  0
 26 25  1  0  0  0  0
M  END
>  <MODEL>
8

>  <REMARK>
 VINA RESULT:      -6.0      2.198      2.852
  Name = 
  6 active torsions:
  status: ('A' for Active; 'I' for Inactive)
    1  A    between atoms: C_1  and  C_8
    2  A    between atoms: N_4  and  C_25
    3  A    between atoms: C_9  and  C_20
    4  A    between atoms: C_11  and  C_23
    5  A    between atoms: C_14  and  C_26
    6  A    between atoms: C_25  and  C_26
                            x       y       z     vdW  Elec       q    Type
                         _______ _______ _______ _____ _____    ______ ____

>  <TORSDO>
F 6

$$$$
=
 OpenBabel11042418513D

 26 29  0  0  1  0  0  0  0  0999 V2000
  186.9130  176.8080  147.2360 C   0  0  0  0  0  3  0  0  0  0  0  0
  187.7950  177.5300  143.5290 C   0  0  2  0  0  3  0  0  0  0  0  0
  190.8280  175.3850  144.6280 C   0  0  1  0  0  3  0  0  0  0  0  0
  185.5540  177.1200  147.2530 C   0  0  0  0  0  3  0  0  0  0  0  0
  184.9270  177.5610  146.0890 C   0  0  0  0  0  3  0  0  0  0  0  0
  187.6580  176.9430  146.0590 C   0  0  0  0  0  0  0  0  0  0  0  0
  190.3680  176.5640  145.3320 C   0  0  2  0  0  0  0  0  0  0  0  0
  185.6550  177.6790  144.9030 C   0  0  0  0  0  3  0  0  0  0  0  0
  189.0460  176.6060  146.0730 N   0  0  0  0  0  0  0  0  0  0  0  0
  188.6900  176.3680  143.1790 C   0  0  0  0  0  3  0  0  0  0  0  0
  189.6800  176.1160  144.0220 C   0  0  0  0  0  0  0  0  0  0  0  0
  187.0210  177.3540  144.8500 C   0  0  0  0  0  0  0  0  0  0  0  0
  190.2620  175.9930  146.6010 C   0  0  2  0  0  3  0  0  0  0  0  0
  186.9340  177.8800  142.3510 C   0  0  0  0  0  0  0  0  0  0  0  0
  186.4600  179.0390  142.2230 O   0  0  0  0  0  0  0  0  0  0  0  0
  186.6790  176.8970  141.3550 N   0  0  0  0  0  1  0  0  0  0  0  0
  191.9610  176.4910  142.5830 C   0  0  0  0  0  1  0  0  0  0  0  0
  193.2030  175.0310  144.0140 N   0  0  0  0  0  0  0  0  0  0  0  0
  192.0680  175.6300  143.7970 C   0  0  0  0  0  0  0  0  0  0  0  0
  192.9910  172.8850  144.9870 C   0  0  0  0  0  2  0  0  0  0  0  0
  193.4730  174.1170  145.0810 C   0  0  0  0  0  0  0  0  0  0  0  0
  193.7250  174.6470  146.4540 C   0  0  0  0  0  2  0  0  0  0  0  0
  194.5650  177.1850  146.3810 C   0  0  0  0  0  3  0  0  0  0  0  0
  194.1880  176.0390  146.4180 C   0  0  0  0  0  0  0  0  0  0  0  0
  190.8450  176.9150  147.6540 C   0  0  0  0  0  2  0  0  0  0  0  0
  191.4200  176.1590  148.6740 O   0  0  0  0  0  1  0  0  0  0  0  0
  1  4  1  0  0  0  0
  2 14  1  6  0  0  0
  2 12  1  0  0  0  0
  3 19  1  6  0  0  0
  3  7  1  0  0  0  0
  5  4  2  0  0  0  0
  6  9  1  0  0  0  0
  6  1  2  0  0  0  0
  7 11  1  6  0  0  0
  7  9  1  0  0  0  0
  7 13  1  0  0  0  0
  8  5  1  0  0  0  0
  9 13  1  0  0  0  0
 10  2  1  0  0  0  0
 10 11  2  0  0  0  0
 11  3  1  0  0  0  0
 12  8  2  0  0  0  0
 12  6  1  0  0  0  0
 13 25  1  1  0  0  0
 15 14  2  0  0  0  0
 16 14  1  0  0  0  0
 17 19  1  0  0  0  0
 18 21  1  0  0  0  0
 19 18  2  0  0  0  0
 20 21  2  0  0  0  0
 21 22  1  0  0  0  0
 23 24  3  0  0  0  0
 24 22  1  0  0  0  0
 25 26  1  0  0  0  0
M  END
>  <MODEL>
9

>  <REMARK>
 VINA RESULT:      -5.9      2.165      3.965
  Name = 
  6 active torsions:
  status: ('A' for Active; 'I' for Inactive)
    1  A    between atoms: C_1  and  C_8
    2  A    between atoms: N_4  and  C_25
    3  A    between atoms: C_9  and  C_20
    4  A    between atoms: C_11  and  C_23
    5  A    between atoms: C_14  and  C_26
    6  A    between atoms: C_25  and  C_26
                            x       y       z     vdW  Elec       q    Type
                         _______ _______ _______ _____ _____    ______ ____

>  <TORSDO>
F 6

$$$$
