=
 OpenBabel11042418583D

 41 49  0  0  1  0  0  0  0  0999 V2000
  188.9740  174.1510  140.8400 C   0  0  0  0  0  0  0  0  0  0  0  0
  188.2010  174.8550  141.6680 C   0  0  0  0  0  3  0  0  0  0  0  0
  190.0240  173.2520  143.6170 C   0  0  0  0  0  0  0  0  0  0  0  0
  190.7970  172.8810  139.9030 C   0  0  1  0  0  3  0  0  0  0  0  0
  189.6780  172.5140  137.5420 C   0  0  0  0  0  2  0  0  0  0  0  0
  190.0950  172.5380  142.3170 C   0  0  1  0  0  3  0  0  0  0  0  0
  190.8210  172.7290  144.5270 C   0  0  0  0  0  2  0  0  0  0  0  0
  190.2990  173.5450  141.1920 C   0  0  2  0  0  3  0  0  0  0  0  0
  191.5690  171.5670  143.9890 C   0  0  0  0  0  2  0  0  0  0  0  0
  188.5450  173.9110  139.4410 C   0  0  0  0  0  2  0  0  0  0  0  0
  189.2140  174.4410  143.9230 C   0  0  0  0  0  3  0  0  0  0  0  0
  189.1330  171.7630  138.6010 O   0  0  0  0  0  0  0  0  0  0  0  0
  191.2960  171.6080  142.4950 C   0  0  0  0  0  2  0  0  0  0  0  0
  188.4190  175.1580  143.1050 C   0  0  2  0  0  3  0  0  0  0  0  0
  189.6490  173.0300  138.9260 C   0  0  2  0  0  0  0  0  0  0  0  0
  186.3010  178.6960  144.6190 C   0  0  2  0  0  3  0  0  0  0  0  0
  185.5690  178.8330  146.8240 C   0  0  0  0  0  2  0  0  0  0  0  0
  187.6600  176.3050  143.6760 C   0  0  0  0  0  0  0  0  0  0  0  0
  187.1700  177.8640  145.4320 N   0  0  0  0  0  0  0  0  0  0  0  0
  187.9050  176.7550  144.9120 C   0  0  0  0  0  3  0  0  0  0  0  0
  186.5810  176.9460  142.8880 C   0  0  0  0  0  3  0  0  0  0  0  0
  186.7810  177.9220  146.8140 C   0  0  0  0  0  2  0  0  0  0  0  0
  185.1330  179.0030  145.4390 N   0  0  0  0  0  2  0  0  0  0  0  0
  185.9120  178.0210  143.3180 C   0  0  0  0  0  0  0  0  0  0  0  0
  184.9480  178.6070  142.4390 N   0  0  0  0  0  2  0  0  0  0  0  0
  184.8480  178.2800  141.0260 C   0  0  0  0  0  1  0  0  0  0  0  0
  192.0110  173.6390  139.3860 C   0  0  0  0  0  2  0  0  0  0  0  0
  193.1590  173.5610  140.3840 C   0  0  0  0  0  2  0  0  0  0  0  0
  193.4080  174.9090  141.0470 C   0  0  0  0  0  2  0  0  0  0  0  0
  194.4650  177.1360  146.0810 C   0  0  0  0  0  2  0  0  0  0  0  0
  194.2100  177.0550  144.6980 O   0  0  0  0  0  0  0  0  0  0  0  0
  193.3190  174.8790  145.9480 C   0  0  0  0  0  2  0  0  0  0  0  0
  194.3990  174.6110  144.9000 C   0  0  1  0  0  3  0  0  0  0  0  0
  194.4850  174.7890  142.1050 C   0  0  1  0  0  3  0  0  0  0  0  0
  193.6750  176.0720  146.8440 C   0  0  0  0  0  2  0  0  0  0  0  0
  193.8310  174.9040  143.4980 C   0  0  2  0  0  0  0  0  0  0  0  0
  194.2780  173.5640  142.8900 C   0  0  0  0  0  2  0  0  0  0  0  0
  194.8170  175.8710  144.2190 C   0  0  1  0  0  0  0  0  0  0  0  0
  196.2970  175.9360  143.9260 C   0  0  0  0  0  0  0  0  0  0  0  0
  196.7710  176.9230  143.3030 O   0  0  0  0  0  0  0  0  0  0  0  0
  197.1480  174.9360  144.3780 O   0  0  0  0  0  1  0  0  0  0  0  0
  1  2  2  0  0  0  0
  2 14  1  0  0  0  0
  3 11  2  0  0  0  0
  3  7  1  0  0  0  0
  4 27  1  6  0  0  0
  4  8  1  0  0  0  0
  5 12  1  0  0  0  0
  6 13  1  1  0  0  0
  6  3  1  0  0  0  0
  8  1  1  6  0  0  0
  8  6  1  0  0  0  0
  9  7  1  0  0  0  0
 10  1  1  0  0  0  0
 12 15  1  0  0  0  0
 13  9  1  0  0  0  0
 14 18  1  1  0  0  0
 14 11  1  0  0  0  0
 15  5  1  6  0  0  0
 15 10  1  0  0  0  0
 15  4  1  0  0  0  0
 16 24  1  6  0  0  0
 16 19  1  0  0  0  0
 16 23  1  0  0  0  0
 18 20  2  0  0  0  0
 19 22  1  0  0  0  0
 20 19  1  0  0  0  0
 21 24  2  0  0  0  0
 21 18  1  0  0  0  0
 22 17  1  0  0  0  0
 23 17  1  0  0  0  0
 25 24  1  0  0  0  0
 26 25  1  0  0  0  0
 27 28  1  0  0  0  0
 28 29  1  0  0  0  0
 30 35  1  0  0  0  0
 31 30  1  0  0  0  0
 32 35  1  0  0  0  0
 33 32  1  1  0  0  0
 34 29  1  6  0  0  0
 34 37  1  0  0  0  0
 34 36  1  0  0  0  0
 36 37  1  1  0  0  0
 36 38  1  0  0  0  0
 36 33  1  0  0  0  0
 38 39  1  6  0  0  0
 38 31  1  0  0  0  0
 38 33  1  0  0  0  0
 39 41  1  0  0  0  0
 40 39  2  0  0  0  0
M  END
>  <MODEL>
1

>  <REMARK>
 VINA RESULT:      -8.2      0.000      0.000
  Name = 
  7 active torsions:
  status: ('A' for Active; 'I' for Inactive)
    1  A    between atoms: C_7  and  C_30
    2  A    between atoms: C_8  and  C_32
    3  A    between atoms: C_12  and  C_17
    4  A    between atoms: C_12  and  C_32
    5  A    between atoms: N_15  and  C_41
    6  A    between atoms: C_17  and  C_25
    7  A    between atoms: C_24  and  C_35
                            x       y       z     vdW  Elec       q    Type
                         _______ _______ _______ _____ _____    ______ ____

>  <TORSDO>
F 7

$$$$
=
 OpenBabel11042418583D

 41 49  0  0  1  0  0  0  0  0999 V2000
  189.2170  174.0100  140.3260 C   0  0  0  0  0  0  0  0  0  0  0  0
  188.4190  174.5950  141.2210 C   0  0  0  0  0  3  0  0  0  0  0  0
  190.1120  172.6510  142.9670 C   0  0  0  0  0  0  0  0  0  0  0  0
  191.0570  172.8550  139.2800 C   0  0  1  0  0  3  0  0  0  0  0  0
  190.0470  172.9000  136.8430 C   0  0  0  0  0  2  0  0  0  0  0  0
  190.2310  172.1510  141.5740 C   0  0  1  0  0  3  0  0  0  0  0  0
  190.8520  171.9660  143.8160 C   0  0  0  0  0  2  0  0  0  0  0  0
  190.5100  173.3180  140.6360 C   0  0  2  0  0  3  0  0  0  0  0  0
  191.6010  170.8840  143.1330 C   0  0  0  0  0  2  0  0  0  0  0  0
  188.8520  174.0080  138.8890 C   0  0  0  0  0  2  0  0  0  0  0  0
  189.3120  173.7980  143.4230 C   0  0  0  0  0  3  0  0  0  0  0  0
  189.4360  172.0060  137.7430 O   0  0  0  0  0  0  0  0  0  0  0  0
  191.4020  171.1710  141.6540 C   0  0  0  0  0  2  0  0  0  0  0  0
  188.5740  174.6580  142.6960 C   0  0  2  0  0  3  0  0  0  0  0  0
  189.9620  173.1900  138.2900 C   0  0  2  0  0  0  0  0  0  0  0  0
  186.2530  177.6120  144.9750 C   0  0  2  0  0  3  0  0  0  0  0  0
  185.2840  179.4610  143.9480 C   0  0  0  0  0  2  0  0  0  0  0  0
  187.8110  175.7210  143.4090 C   0  0  0  0  0  0  0  0  0  0  0  0
  185.9850  177.2660  143.5900 N   0  0  0  0  0  0  0  0  0  0  0  0
  186.7040  176.2560  142.8810 C   0  0  0  0  0  3  0  0  0  0  0  0
  188.2960  176.2330  144.7120 C   0  0  0  0  0  3  0  0  0  0  0  0
  185.3640  178.3650  142.9030 C   0  0  0  0  0  2  0  0  0  0  0  0
  186.1280  179.0630  145.0730 N   0  0  0  0  0  2  0  0  0  0  0  0
  187.6190  177.1350  145.4320 C   0  0  0  0  0  0  0  0  0  0  0  0
  188.1390  177.4970  146.7140 N   0  0  0  0  0  2  0  0  0  0  0  0
  189.5530  177.4540  147.0470 C   0  0  0  0  0  1  0  0  0  0  0  0
  192.3110  173.6510  138.9470 C   0  0  0  0  0  2  0  0  0  0  0  0
  193.3250  173.5550  140.0780 C   0  0  0  0  0  2  0  0  0  0  0  0
  193.4170  174.8640  140.8500 C   0  0  0  0  0  2  0  0  0  0  0  0
  193.5690  176.6490  146.1620 C   0  0  0  0  0  2  0  0  0  0  0  0
  193.5180  176.6880  144.7550 O   0  0  0  0  0  0  0  0  0  0  0  0
  192.6410  174.3430  145.6630 C   0  0  0  0  0  2  0  0  0  0  0  0
  193.8770  174.2550  144.7660 C   0  0  1  0  0  3  0  0  0  0  0  0
  194.3410  174.7140  142.0420 C   0  0  1  0  0  3  0  0  0  0  0  0
  192.7690  175.4630  146.7030 C   0  0  0  0  0  2  0  0  0  0  0  0
  193.4900  174.6450  143.3270 C   0  0  2  0  0  0  0  0  0  0  0  0
  194.1260  173.4060  142.6760 C   0  0  0  0  0  2  0  0  0  0  0  0
  194.2820  175.6010  144.2680 C   0  0  1  0  0  0  0  0  0  0  0  0
  195.7780  175.7960  144.2050 C   0  0  0  0  0  0  0  0  0  0  0  0
  196.2540  176.8500  143.7060 O   0  0  0  0  0  0  0  0  0  0  0  0
  196.6350  174.8390  144.7340 O   0  0  0  0  0  1  0  0  0  0  0  0
  1  2  2  0  0  0  0
  2 14  1  0  0  0  0
  3 11  2  0  0  0  0
  3  7  1  0  0  0  0
  4 27  1  6  0  0  0
  4  8  1  0  0  0  0
  5 12  1  0  0  0  0
  6 13  1  1  0  0  0
  6  3  1  0  0  0  0
  8  1  1  6  0  0  0
  8  6  1  0  0  0  0
  9  7  1  0  0  0  0
 10  1  1  0  0  0  0
 12 15  1  0  0  0  0
 13  9  1  0  0  0  0
 14 18  1  1  0  0  0
 14 11  1  0  0  0  0
 15  5  1  6  0  0  0
 15 10  1  0  0  0  0
 15  4  1  0  0  0  0
 16 23  1  6  0  0  0
 16 24  1  0  0  0  0
 17 23  1  0  0  0  0
 18 21  1  0  0  0  0
 19 16  1  0  0  0  0
 20 18  2  0  0  0  0
 20 19  1  0  0  0  0
 21 24  2  0  0  0  0
 22 19  1  0  0  0  0
 22 17  1  0  0  0  0
 24 25  1  0  0  0  0
 25 26  1  0  0  0  0
 27 28  1  0  0  0  0
 28 29  1  0  0  0  0
 30 35  1  0  0  0  0
 31 30  1  0  0  0  0
 32 35  1  0  0  0  0
 33 32  1  1  0  0  0
 34 29  1  6  0  0  0
 34 37  1  0  0  0  0
 34 36  1  0  0  0  0
 36 37  1  1  0  0  0
 36 38  1  0  0  0  0
 36 33  1  0  0  0  0
 38 39  1  6  0  0  0
 38 31  1  0  0  0  0
 38 33  1  0  0  0  0
 39 41  1  0  0  0  0
 40 39  2  0  0  0  0
M  END
>  <MODEL>
2

>  <REMARK>
 VINA RESULT:      -7.9      0.974      1.977
  Name = 
  7 active torsions:
  status: ('A' for Active; 'I' for Inactive)
    1  A    between atoms: C_7  and  C_30
    2  A    between atoms: C_8  and  C_32
    3  A    between atoms: C_12  and  C_17
    4  A    between atoms: C_12  and  C_32
    5  A    between atoms: N_15  and  C_41
    6  A    between atoms: C_17  and  C_25
    7  A    between atoms: C_24  and  C_35
                            x       y       z     vdW  Elec       q    Type
                         _______ _______ _______ _____ _____    ______ ____

>  <TORSDO>
F 7

$$$$
=
 OpenBabel11042418583D

 41 49  0  0  1  0  0  0  0  0999 V2000
  189.3690  174.7400  143.8640 C   0  0  0  0  0  0  0  0  0  0  0  0
  189.3610  173.9410  142.7970 C   0  0  0  0  0  3  0  0  0  0  0  0
  187.5710  176.3220  141.8930 C   0  0  0  0  0  0  0  0  0  0  0  0
  189.2330  176.6690  145.3060 C   0  0  1  0  0  3  0  0  0  0  0  0
  189.7530  175.3650  147.5410 C   0  0  0  0  0  2  0  0  0  0  0  0
  187.6100  176.3860  143.3760 C   0  0  1  0  0  3  0  0  0  0  0  0
  186.9090  177.3300  141.3600 C   0  0  0  0  0  2  0  0  0  0  0  0
  189.0440  176.2030  143.8570 C   0  0  2  0  0  3  0  0  0  0  0  0
  186.3890  178.2490  142.4010 C   0  0  0  0  0  2  0  0  0  0  0  0
  189.7210  174.1990  145.1990 C   0  0  0  0  0  2  0  0  0  0  0  0
  188.2080  175.3070  141.0400 C   0  0  0  0  0  3  0  0  0  0  0  0
  188.4750  175.1510  146.9900 O   0  0  0  0  0  0  0  0  0  0  0  0
  187.0630  177.7810  143.6810 C   0  0  0  0  0  2  0  0  0  0  0  0
  188.9880  174.2690  141.3980 C   0  0  2  0  0  3  0  0  0  0  0  0
  189.5200  175.4000  146.0820 C   0  0  2  0  0  0  0  0  0  0  0  0
  190.6720  171.5820  138.3580 C   0  0  2  0  0  3  0  0  0  0  0  0
  189.6870  171.3340  136.2640 C   0  0  0  0  0  2  0  0  0  0  0  0
  189.4780  173.3470  140.3350 C   0  0  0  0  0  0  0  0  0  0  0  0
  189.9630  172.8100  138.0480 N   0  0  0  0  0  0  0  0  0  0  0  0
  189.4780  173.7100  139.0470 C   0  0  0  0  0  3  0  0  0  0  0  0
  189.9390  171.9850  140.6900 C   0  0  0  0  0  3  0  0  0  0  0  0
  189.3470  172.7290  136.7520 C   0  0  0  0  0  2  0  0  0  0  0  0
  190.2040  170.5800  137.4050 N   0  0  0  0  0  2  0  0  0  0  0  0
  190.4540  171.1380  139.7910 C   0  0  0  0  0  0  0  0  0  0  0  0
  190.9440  169.8790  140.2600 N   0  0  0  0  0  2  0  0  0  0  0  0
  190.8180  169.4320  141.6370 C   0  0  0  0  0  1  0  0  0  0  0  0
  190.4360  177.5970  145.3810 C   0  0  0  0  0  2  0  0  0  0  0  0
  191.3150  177.4400  144.1480 C   0  0  0  0  0  2  0  0  0  0  0  0
  192.7430  177.0760  144.5280 C   0  0  0  0  0  2  0  0  0  0  0  0
  196.5000  173.0490  143.4840 C   0  0  0  0  0  2  0  0  0  0  0  0
  195.5880  174.0980  143.2560 O   0  0  0  0  0  0  0  0  0  0  0  0
  196.4890  174.1640  145.7610 C   0  0  0  0  0  2  0  0  0  0  0  0
  194.9790  173.9630  145.6350 C   0  0  1  0  0  3  0  0  0  0  0  0
  192.8640  175.5860  144.7730 C   0  0  1  0  0  3  0  0  0  0  0  0
  197.2680  173.2700  144.7890 C   0  0  0  0  0  2  0  0  0  0  0  0
  194.3390  175.2500  145.0790 C   0  0  2  0  0  0  0  0  0  0  0  0
  193.2560  175.3420  146.1680 C   0  0  0  0  0  2  0  0  0  0  0  0
  194.5480  173.9760  144.2070 C   0  0  1  0  0  0  0  0  0  0  0  0
  193.4570  172.9790  143.8970 C   0  0  0  0  0  0  0  0  0  0  0  0
  192.9080  172.9800  142.7630 O   0  0  0  0  0  0  0  0  0  0  0  0
  193.0830  172.0300  144.8400 O   0  0  0  0  0  1  0  0  0  0  0  0
  1 10  1  0  0  0  0
  2  1  2  0  0  0  0
  3  6  1  0  0  0  0
  4 27  1  6  0  0  0
  4 15  1  0  0  0  0
  6 13  1  6  0  0  0
  6  8  1  0  0  0  0
  7  3  1  0  0  0  0
  7  9  1  0  0  0  0
  8  1  1  1  0  0  0
  8  4  1  0  0  0  0
  9 13  1  0  0  0  0
 11 14  1  0  0  0  0
 11  3  2  0  0  0  0
 12  5  1  0  0  0  0
 14 18  1  1  0  0  0
 14  2  1  0  0  0  0
 15 10  1  6  0  0  0
 15 12  1  0  0  0  0
 15  5  1  0  0  0  0
 16 23  1  6  0  0  0
 16 24  1  0  0  0  0
 17 22  1  0  0  0  0
 17 23  1  0  0  0  0
 18 21  1  0  0  0  0
 19 16  1  0  0  0  0
 19 20  1  0  0  0  0
 20 18  2  0  0  0  0
 22 19  1  0  0  0  0
 24 25  1  0  0  0  0
 24 21  2  0  0  0  0
 25 26  1  0  0  0  0
 28 29  1  0  0  0  0
 28 27  1  0  0  0  0
 30 35  1  0  0  0  0
 31 30  1  0  0  0  0
 31 38  1  0  0  0  0
 33 32  1  6  0  0  0
 34 29  1  1  0  0  0
 34 36  1  0  0  0  0
 34 37  1  0  0  0  0
 35 32  1  0  0  0  0
 36 33  1  0  0  0  0
 36 37  1  1  0  0  0
 38 39  1  6  0  0  0
 38 36  1  0  0  0  0
 38 33  1  0  0  0  0
 39 41  1  0  0  0  0
 40 39  2  0  0  0  0
M  END
>  <MODEL>
3

>  <REMARK>
 VINA RESULT:      -7.8      3.488      6.939
  Name = 
  7 active torsions:
  status: ('A' for Active; 'I' for Inactive)
    1  A    between atoms: C_7  and  C_30
    2  A    between atoms: C_8  and  C_32
    3  A    between atoms: C_12  and  C_17
    4  A    between atoms: C_12  and  C_32
    5  A    between atoms: N_15  and  C_41
    6  A    between atoms: C_17  and  C_25
    7  A    between atoms: C_24  and  C_35
                            x       y       z     vdW  Elec       q    Type
                         _______ _______ _______ _____ _____    ______ ____

>  <TORSDO>
F 7

$$$$
=
 OpenBabel11042418583D

 41 49  0  0  1  0  0  0  0  0999 V2000
  189.4180  174.6670  143.9570 C   0  0  0  0  0  0  0  0  0  0  0  0
  189.4140  173.8740  142.8850 C   0  0  0  0  0  3  0  0  0  0  0  0
  187.5410  176.2090  142.0270 C   0  0  0  0  0  0  0  0  0  0  0  0
  189.2510  176.5820  145.4130 C   0  0  1  0  0  3  0  0  0  0  0  0
  189.8470  175.2810  147.6300 C   0  0  0  0  0  2  0  0  0  0  0  0
  187.6030  176.2640  143.5100 C   0  0  1  0  0  3  0  0  0  0  0  0
  186.8410  177.2000  141.5130 C   0  0  0  0  0  2  0  0  0  0  0  0
  189.0500  176.1200  143.9650 C   0  0  2  0  0  3  0  0  0  0  0  0
  186.3130  178.0970  142.5680 C   0  0  0  0  0  2  0  0  0  0  0  0
  189.8080  174.1290  145.2820 C   0  0  0  0  0  2  0  0  0  0  0  0
  188.1910  175.2170  141.1570 C   0  0  0  0  0  3  0  0  0  0  0  0
  188.5660  175.0340  147.1000 O   0  0  0  0  0  0  0  0  0  0  0  0
  187.0220  177.6410  143.8330 C   0  0  0  0  0  2  0  0  0  0  0  0
  189.0070  174.2000  141.4950 C   0  0  2  0  0  3  0  0  0  0  0  0
  189.5870  175.3170  146.1760 C   0  0  2  0  0  0  0  0  0  0  0  0
  190.7140  171.5820  138.4070 C   0  0  2  0  0  3  0  0  0  0  0  0
  189.6930  171.3080  136.3350 C   0  0  0  0  0  2  0  0  0  0  0  0
  189.5040  173.2990  140.4170 C   0  0  0  0  0  0  0  0  0  0  0  0
  189.9570  172.7870  138.1180 N   0  0  0  0  0  0  0  0  0  0  0  0
  189.4640  173.6660  139.1310 C   0  0  0  0  0  3  0  0  0  0  0  0
  190.0190  171.9520  140.7560 C   0  0  0  0  0  3  0  0  0  0  0  0
  189.3160  172.6890  136.8350 C   0  0  0  0  0  2  0  0  0  0  0  0
  190.2600  170.5680  137.4610 N   0  0  0  0  0  2  0  0  0  0  0  0
  190.5420  171.1260  139.8430 C   0  0  0  0  0  0  0  0  0  0  0  0
  191.0850  169.8830  140.2960 N   0  0  0  0  0  2  0  0  0  0  0  0
  190.8160  169.3220  141.6100 C   0  0  0  0  0  1  0  0  0  0  0  0
  190.4280  177.5450  145.4740 C   0  0  0  0  0  2  0  0  0  0  0  0
  191.3550  177.3360  144.2840 C   0  0  0  0  0  2  0  0  0  0  0  0
  192.7080  176.7960  144.7260 C   0  0  0  0  0  2  0  0  0  0  0  0
  195.2470  171.9280  143.5910 C   0  0  0  0  0  2  0  0  0  0  0  0
  194.9440  173.1430  144.2360 O   0  0  0  0  0  0  0  0  0  0  0  0
  192.8460  172.2680  142.8510 C   0  0  0  0  0  2  0  0  0  0  0  0
  193.3830  173.6260  142.3990 C   0  0  1  0  0  3  0  0  0  0  0  0
  193.4430  176.1780  143.5540 C   0  0  1  0  0  3  0  0  0  0  0  0
  193.9730  171.2540  143.0770 C   0  0  0  0  0  2  0  0  0  0  0  0
  193.1180  174.6710  143.5000 C   0  0  2  0  0  0  0  0  0  0  0  0
  192.4750  175.7000  142.5570 C   0  0  0  0  0  2  0  0  0  0  0  0
  194.5300  174.0640  143.2460 C   0  0  1  0  0  0  0  0  0  0  0  0
  195.6200  174.7640  142.4710 C   0  0  0  0  0  0  0  0  0  0  0  0
  196.5980  175.2730  143.0810 O   0  0  0  0  0  1  0  0  0  0  0  0
  195.5750  174.8140  141.0830 O   0  0  0  0  0  0  0  0  0  0  0  0
  1 10  1  0  0  0  0
  2  1  2  0  0  0  0
  3  6  1  0  0  0  0
  4 27  1  6  0  0  0
  4 15  1  0  0  0  0
  6 13  1  6  0  0  0
  6  8  1  0  0  0  0
  7  3  1  0  0  0  0
  7  9  1  0  0  0  0
  8  1  1  1  0  0  0
  8  4  1  0  0  0  0
  9 13  1  0  0  0  0
 11 14  1  0  0  0  0
 11  3  2  0  0  0  0
 12  5  1  0  0  0  0
 14 18  1  1  0  0  0
 14  2  1  0  0  0  0
 15 10  1  6  0  0  0
 15 12  1  0  0  0  0
 15  5  1  0  0  0  0
 16 23  1  6  0  0  0
 16 24  1  0  0  0  0
 17 22  1  0  0  0  0
 17 23  1  0  0  0  0
 18 21  1  0  0  0  0
 19 16  1  0  0  0  0
 19 20  1  0  0  0  0
 20 18  2  0  0  0  0
 22 19  1  0  0  0  0
 24 25  1  0  0  0  0
 24 21  2  0  0  0  0
 25 26  1  0  0  0  0
 28 29  1  0  0  0  0
 28 27  1  0  0  0  0
 30 31  1  0  0  0  0
 32 35  1  0  0  0  0
 33 32  1  1  0  0  0
 33 38  1  0  0  0  0
 33 36  1  0  0  0  0
 34 29  1  1  0  0  0
 35 30  1  0  0  0  0
 36 37  1  6  0  0  0
 36 34  1  0  0  0  0
 37 34  1  0  0  0  0
 38 39  1  6  0  0  0
 38 36  1  0  0  0  0
 38 31  1  0  0  0  0
 39 40  1  0  0  0  0
 41 39  2  0  0  0  0
M  END
>  <MODEL>
4

>  <REMARK>
 VINA RESULT:      -7.7      3.362      6.884
  Name = 
  7 active torsions:
  status: ('A' for Active; 'I' for Inactive)
    1  A    between atoms: C_7  and  C_30
    2  A    between atoms: C_8  and  C_32
    3  A    between atoms: C_12  and  C_17
    4  A    between atoms: C_12  and  C_32
    5  A    between atoms: N_15  and  C_41
    6  A    between atoms: C_17  and  C_25
    7  A    between atoms: C_24  and  C_35
                            x       y       z     vdW  Elec       q    Type
                         _______ _______ _______ _____ _____    ______ ____

>  <TORSDO>
F 7

$$$$
=
 OpenBabel11042418583D

 41 49  0  0  1  0  0  0  0  0999 V2000
  190.1920  176.7150  143.4650 C   0  0  0  0  0  0  0  0  0  0  0  0
  191.4900  176.6080  143.7510 C   0  0  0  0  0  3  0  0  0  0  0  0
  190.1200  175.5650  146.3450 C   0  0  0  0  0  0  0  0  0  0  0  0
  187.8000  176.4080  143.4400 C   0  0  1  0  0  3  0  0  0  0  0  0
  187.3200  178.2180  141.5810 C   0  0  0  0  0  2  0  0  0  0  0  0
  189.0840  176.3510  145.6280 C   0  0  1  0  0  3  0  0  0  0  0  0
  189.6550  174.9870  147.4340 C   0  0  0  0  0  2  0  0  0  0  0  0
  189.0870  175.9720  144.1530 C   0  0  2  0  0  3  0  0  0  0  0  0
  188.2160  175.2870  147.6350 C   0  0  0  0  0  2  0  0  0  0  0  0
  189.7370  177.6260  142.3870 C   0  0  0  0  0  2  0  0  0  0  0  0
  191.5180  175.3700  145.9310 C   0  0  0  0  0  3  0  0  0  0  0  0
  187.6750  178.7200  142.8470 O   0  0  0  0  0  0  0  0  0  0  0  0
  187.7890  175.9480  146.3350 C   0  0  0  0  0  2  0  0  0  0  0  0
  192.1390  175.8040  144.8170 C   0  0  2  0  0  3  0  0  0  0  0  0
  188.2430  177.4890  142.4760 C   0  0  2  0  0  0  0  0  0  0  0  0
  196.4330  174.9050  144.5880 C   0  0  2  0  0  3  0  0  0  0  0  0
  197.7820  175.7960  142.9140 C   0  0  0  0  0  2  0  0  0  0  0  0
  193.5900  175.5110  144.6520 C   0  0  0  0  0  0  0  0  0  0  0  0
  195.8470  176.1630  144.1620 N   0  0  0  0  0  0  0  0  0  0  0  0
  194.4580  176.4680  144.3030 C   0  0  0  0  0  3  0  0  0  0  0  0
  194.0930  174.1290  144.8350 C   0  0  0  0  0  3  0  0  0  0  0  0
  196.6480  176.7770  143.1390 C   0  0  0  0  0  2  0  0  0  0  0  0
  197.4220  174.5430  143.5770 N   0  0  0  0  0  2  0  0  0  0  0  0
  195.3920  173.8170  144.7690 C   0  0  0  0  0  0  0  0  0  0  0  0
  195.7720  172.4660  145.0440 N   0  0  0  0  0  2  0  0  0  0  0  0
  196.7520  172.0990  146.0520 C   0  0  0  0  0  1  0  0  0  0  0  0
  187.2330  175.2290  142.6640 C   0  0  0  0  0  2  0  0  0  0  0  0
  188.2690  174.1190  142.5400 C   0  0  0  0  0  2  0  0  0  0  0  0
  188.7980  174.0130  141.1160 C   0  0  0  0  0  2  0  0  0  0  0  0
  193.8710  174.1370  138.7340 C   0  0  0  0  0  2  0  0  0  0  0  0
  192.4680  174.1470  138.8590 O   0  0  0  0  0  0  0  0  0  0  0  0
  193.6190  174.9020  141.1380 C   0  0  0  0  0  2  0  0  0  0  0  0
  192.7680  173.6360  141.2460 C   0  0  1  0  0  3  0  0  0  0  0  0
  190.0200  173.1190  141.0690 C   0  0  1  0  0  3  0  0  0  0  0  0
  194.5260  174.8770  139.9020 C   0  0  0  0  0  2  0  0  0  0  0  0
  191.2840  174.0030  141.0470 C   0  0  2  0  0  0  0  0  0  0  0  0
  190.7960  173.2710  142.3080 C   0  0  0  0  0  2  0  0  0  0  0  0
  192.1270  173.3020  139.9410 C   0  0  1  0  0  0  0  0  0  0  0  0
  192.0770  171.8200  139.6560 C   0  0  0  0  0  0  0  0  0  0  0  0
  191.4840  171.3970  138.6280 O   0  0  0  0  0  0  0  0  0  0  0  0
  192.7180  170.9200  140.4980 O   0  0  0  0  0  1  0  0  0  0  0  0
  1  2  2  0  0  0  0
  2 14  1  0  0  0  0
  3  7  1  0  0  0  0
  4 27  1  6  0  0  0
  4  8  1  0  0  0  0
  5 12  1  0  0  0  0
  6 13  1  1  0  0  0
  6  3  1  0  0  0  0
  7  9  1  0  0  0  0
  8  1  1  6  0  0  0
  8  6  1  0  0  0  0
 10 15  1  0  0  0  0
 10  1  1  0  0  0  0
 11  3  2  0  0  0  0
 13  9  1  0  0  0  0
 14 18  1  1  0  0  0
 14 11  1  0  0  0  0
 15  5  1  6  0  0  0
 15 12  1  0  0  0  0
 15  4  1  0  0  0  0
 16 23  1  6  0  0  0
 16 24  1  0  0  0  0
 17 22  1  0  0  0  0
 17 23  1  0  0  0  0
 18 21  1  0  0  0  0
 19 20  1  0  0  0  0
 19 16  1  0  0  0  0
 20 18  2  0  0  0  0
 22 19  1  0  0  0  0
 24 21  2  0  0  0  0
 24 25  1  0  0  0  0
 25 26  1  0  0  0  0
 28 27  1  0  0  0  0
 29 28  1  0  0  0  0
 30 31  1  0  0  0  0
 30 35  1  0  0  0  0
 31 38  1  0  0  0  0
 33 32  1  6  0  0  0
 34 29  1  1  0  0  0
 34 37  1  0  0  0  0
 35 32  1  0  0  0  0
 36 34  1  0  0  0  0
 36 33  1  0  0  0  0
 36 37  1  1  0  0  0
 38 39  1  6  0  0  0
 38 36  1  0  0  0  0
 38 33  1  0  0  0  0
 39 41  1  0  0  0  0
 40 39  2  0  0  0  0
M  END
>  <MODEL>
5

>  <REMARK>
 VINA RESULT:      -7.7      3.791      7.432
  Name = 
  7 active torsions:
  status: ('A' for Active; 'I' for Inactive)
    1  A    between atoms: C_7  and  C_30
    2  A    between atoms: C_8  and  C_32
    3  A    between atoms: C_12  and  C_17
    4  A    between atoms: C_12  and  C_32
    5  A    between atoms: N_15  and  C_41
    6  A    between atoms: C_17  and  C_25
    7  A    between atoms: C_24  and  C_35
                            x       y       z     vdW  Elec       q    Type
                         _______ _______ _______ _____ _____    ______ ____

>  <TORSDO>
F 7

$$$$
=
 OpenBabel11042418583D

 41 49  0  0  1  0  0  0  0  0999 V2000
  194.4500  174.8240  142.5020 C   0  0  0  0  0  0  0  0  0  0  0  0
  193.4820  174.3600  141.7100 C   0  0  0  0  0  3  0  0  0  0  0  0
  193.6480  172.1960  143.9410 C   0  0  0  0  0  0  0  0  0  0  0  0
  195.8650  175.2620  144.4040 C   0  0  1  0  0  3  0  0  0  0  0  0
  197.5210  176.8780  143.1360 C   0  0  0  0  0  2  0  0  0  0  0  0
  194.9340  172.9360  143.9990 C   0  0  1  0  0  3  0  0  0  0  0  0
  193.5410  171.2910  144.8940 C   0  0  0  0  0  2  0  0  0  0  0  0
  194.6630  174.4340  143.9330 C   0  0  2  0  0  3  0  0  0  0  0  0
  194.7440  171.2710  145.7610 C   0  0  0  0  0  2  0  0  0  0  0  0
  195.4300  175.8090  141.9840 C   0  0  0  0  0  2  0  0  0  0  0  0
  192.5510  172.4150  142.9870 C   0  0  0  0  0  3  0  0  0  0  0  0
  197.6380  175.5110  142.8210 O   0  0  0  0  0  0  0  0  0  0  0  0
  195.5240  172.5060  145.3430 C   0  0  0  0  0  2  0  0  0  0  0  0
  192.4470  173.3410  142.0150 C   0  0  2  0  0  3  0  0  0  0  0  0
  196.3530  175.9720  143.1590 C   0  0  2  0  0  0  0  0  0  0  0  0
  188.7630  173.1560  139.6280 C   0  0  2  0  0  3  0  0  0  0  0  0
  188.8110  173.1680  137.3010 C   0  0  0  0  0  2  0  0  0  0  0  0
  191.2390  173.3230  141.1420 C   0  0  0  0  0  0  0  0  0  0  0  0
  190.0310  172.5910  139.2030 N   0  0  0  0  0  0  0  0  0  0  0  0
  191.2050  172.5990  140.0170 C   0  0  0  0  0  3  0  0  0  0  0  0
  190.0600  174.1500  141.4910 C   0  0  0  0  0  3  0  0  0  0  0  0
  190.1140  172.5500  137.7690 C   0  0  0  0  0  2  0  0  0  0  0  0
  188.1850  173.8090  138.4570 N   0  0  0  0  0  2  0  0  0  0  0  0
  188.9230  174.1230  140.7860 C   0  0  0  0  0  0  0  0  0  0  0  0
  187.8200  174.8980  141.2620 N   0  0  0  0  0  2  0  0  0  0  0  0
  187.7640  176.3480  141.1770 C   0  0  0  0  0  1  0  0  0  0  0  0
  195.3980  176.2850  145.4290 C   0  0  0  0  0  2  0  0  0  0  0  0
  194.3460  175.6830  146.3500 C   0  0  0  0  0  2  0  0  0  0  0  0
  193.0940  176.5470  146.4000 C   0  0  0  0  0  2  0  0  0  0  0  0
  187.5310  177.2350  146.4170 C   0  0  0  0  0  2  0  0  0  0  0  0
  188.8520  177.1350  146.8940 O   0  0  0  0  0  0  0  0  0  0  0  0
  188.8320  177.7710  144.3090 C   0  0  0  0  0  2  0  0  0  0  0  0
  189.5200  176.4430  144.6300 C   0  0  1  0  0  3  0  0  0  0  0  0
  191.8790  175.7490  145.9720 C   0  0  1  0  0  3  0  0  0  0  0  0
  187.4970  177.9170  145.0480 C   0  0  0  0  0  2  0  0  0  0  0  0
  190.8160  176.7200  145.4160 C   0  0  2  0  0  0  0  0  0  0  0  0
  191.7070  175.8490  144.5160 C   0  0  0  0  0  2  0  0  0  0  0  0
  189.5240  176.1780  146.0980 C   0  0  1  0  0  0  0  0  0  0  0  0
  189.3030  174.7260  146.4490 C   0  0  0  0  0  0  0  0  0  0  0  0
  189.0490  174.3980  147.6380 O   0  0  0  0  0  1  0  0  0  0  0  0
  189.3340  173.7510  145.4590 O   0  0  0  0  0  0  0  0  0  0  0  0
  2 14  1  0  0  0  0
  2  1  2  0  0  0  0
  3  6  1  0  0  0  0
  3  7  1  0  0  0  0
  4 27  1  1  0  0  0
  5 15  1  0  0  0  0
  6 13  1  1  0  0  0
  7  9  1  0  0  0  0
  8  1  1  6  0  0  0
  8  6  1  0  0  0  0
  8  4  1  0  0  0  0
 10  1  1  0  0  0  0
 11  3  2  0  0  0  0
 12  5  1  0  0  0  0
 12 15  1  0  0  0  0
 13  9  1  0  0  0  0
 14 18  1  6  0  0  0
 14 11  1  0  0  0  0
 15 10  1  6  0  0  0
 15  4  1  0  0  0  0
 16 23  1  6  0  0  0
 16 24  1  0  0  0  0
 17 22  1  0  0  0  0
 17 23  1  0  0  0  0
 18 21  1  0  0  0  0
 19 16  1  0  0  0  0
 19 20  1  0  0  0  0
 20 18  2  0  0  0  0
 22 19  1  0  0  0  0
 24 25  1  0  0  0  0
 24 21  2  0  0  0  0
 26 25  1  0  0  0  0
 27 28  1  0  0  0  0
 28 29  1  0  0  0  0
 30 31  1  0  0  0  0
 32 35  1  0  0  0  0
 33 32  1  1  0  0  0
 33 36  1  0  0  0  0
 33 38  1  0  0  0  0
 34 29  1  6  0  0  0
 35 30  1  0  0  0  0
 36 37  1  6  0  0  0
 36 34  1  0  0  0  0
 36 38  1  0  0  0  0
 37 34  1  0  0  0  0
 38 39  1  1  0  0  0
 38 31  1  0  0  0  0
 39 40  1  0  0  0  0
 41 39  2  0  0  0  0
M  END
>  <MODEL>
6

>  <REMARK>
 VINA RESULT:      -7.7      2.911      6.736
  Name = 
  7 active torsions:
  status: ('A' for Active; 'I' for Inactive)
    1  A    between atoms: C_7  and  C_30
    2  A    between atoms: C_8  and  C_32
    3  A    between atoms: C_12  and  C_17
    4  A    between atoms: C_12  and  C_32
    5  A    between atoms: N_15  and  C_41
    6  A    between atoms: C_17  and  C_25
    7  A    between atoms: C_24  and  C_35
                            x       y       z     vdW  Elec       q    Type
                         _______ _______ _______ _____ _____    ______ ____

>  <TORSDO>
F 7

$$$$
=
 OpenBabel11042418583D

 41 49  0  0  1  0  0  0  0  0999 V2000
  189.3020  174.7300  143.9760 C   0  0  0  0  0  0  0  0  0  0  0  0
  189.2270  173.9470  142.8980 C   0  0  0  0  0  3  0  0  0  0  0  0
  187.4430  176.3770  142.1180 C   0  0  0  0  0  0  0  0  0  0  0  0
  189.2740  176.6370  145.4510 C   0  0  1  0  0  3  0  0  0  0  0  0
  189.8740  175.2880  147.6380 C   0  0  0  0  0  2  0  0  0  0  0  0
  187.5540  176.4160  143.5980 C   0  0  1  0  0  3  0  0  0  0  0  0
  186.7760  177.4050  141.6330 C   0  0  0  0  0  2  0  0  0  0  0  0
  189.0060  176.1980  144.0060 C   0  0  2  0  0  3  0  0  0  0  0  0
  186.3240  178.3170  142.7120 C   0  0  0  0  0  2  0  0  0  0  0  0
  189.7070  174.1610  145.2840 C   0  0  0  0  0  2  0  0  0  0  0  0
  188.0170  175.3640  141.2200 C   0  0  0  0  0  3  0  0  0  0  0  0
  188.5680  175.1080  147.1470 O   0  0  0  0  0  0  0  0  0  0  0  0
  187.0500  177.8160  143.9500 C   0  0  0  0  0  2  0  0  0  0  0  0
  188.7930  174.3060  141.5240 C   0  0  2  0  0  3  0  0  0  0  0  0
  189.5720  175.3510  146.1930 C   0  0  2  0  0  0  0  0  0  0  0  0
  189.7770  171.5710  138.2290 C   0  0  2  0  0  3  0  0  0  0  0  0
  191.7290  170.3050  138.2320 C   0  0  0  0  0  2  0  0  0  0  0  0
  189.2130  173.3920  140.4250 C   0  0  0  0  0  0  0  0  0  0  0  0
  190.1620  171.3440  139.6110 N   0  0  0  0  0  0  0  0  0  0  0  0
  189.7790  172.2070  140.6830 C   0  0  0  0  0  3  0  0  0  0  0  0
  189.0420  173.8040  139.0110 C   0  0  0  0  0  3  0  0  0  0  0  0
  191.3550  170.5460  139.6810 C   0  0  0  0  0  2  0  0  0  0  0  0
  190.9330  171.2150  137.4110 N   0  0  0  0  0  2  0  0  0  0  0  0
  189.3340  173.0000  137.9830 C   0  0  0  0  0  0  0  0  0  0  0  0
  189.0510  173.4710  136.6620 N   0  0  0  0  0  2  0  0  0  0  0  0
  189.9270  174.3690  135.9270 C   0  0  0  0  0  1  0  0  0  0  0  0
  190.4970  177.5410  145.4820 C   0  0  0  0  0  2  0  0  0  0  0  0
  191.3340  177.3570  144.2230 C   0  0  0  0  0  2  0  0  0  0  0  0
  192.7770  177.0130  144.5640 C   0  0  0  0  0  2  0  0  0  0  0  0
  196.5050  172.9550  143.5360 C   0  0  0  0  0  2  0  0  0  0  0  0
  195.5800  173.9910  143.3020 O   0  0  0  0  0  0  0  0  0  0  0  0
  196.5830  174.1650  145.7630 C   0  0  0  0  0  2  0  0  0  0  0  0
  195.0690  173.9540  145.7080 C   0  0  1  0  0  3  0  0  0  0  0  0
  192.9140  175.5350  144.8660 C   0  0  1  0  0  3  0  0  0  0  0  0
  197.3250  173.2330  144.7980 C   0  0  0  0  0  2  0  0  0  0  0  0
  194.4010  175.2150  145.1250 C   0  0  2  0  0  0  0  0  0  0  0  0
  193.3640  175.3500  146.2520 C   0  0  0  0  0  2  0  0  0  0  0  0
  194.5800  173.9060  144.2990 C   0  0  1  0  0  0  0  0  0  0  0  0
  193.4810  172.8950  144.0760 C   0  0  0  0  0  0  0  0  0  0  0  0
  193.2270  172.0380  144.9640 O   0  0  0  0  0  1  0  0  0  0  0  0
  192.7170  172.9310  142.9160 O   0  0  0  0  0  0  0  0  0  0  0  0
  1 10  1  0  0  0  0
  2  1  2  0  0  0  0
  3  6  1  0  0  0  0
  4 27  1  6  0  0  0
  4 15  1  0  0  0  0
  6 13  1  6  0  0  0
  6  8  1  0  0  0  0
  7  3  1  0  0  0  0
  7  9  1  0  0  0  0
  8  1  1  1  0  0  0
  8  4  1  0  0  0  0
  9 13  1  0  0  0  0
 11 14  1  0  0  0  0
 11  3  2  0  0  0  0
 12  5  1  0  0  0  0
 14 18  1  1  0  0  0
 14  2  1  0  0  0  0
 15 10  1  6  0  0  0
 15 12  1  0  0  0  0
 15  5  1  0  0  0  0
 16 23  1  6  0  0  0
 16 19  1  0  0  0  0
 17 22  1  0  0  0  0
 18 20  2  0  0  0  0
 19 22  1  0  0  0  0
 19 20  1  0  0  0  0
 21 18  1  0  0  0  0
 23 17  1  0  0  0  0
 24 16  1  0  0  0  0
 24 21  2  0  0  0  0
 25 24  1  0  0  0  0
 26 25  1  0  0  0  0
 28 29  1  0  0  0  0
 28 27  1  0  0  0  0
 30 35  1  0  0  0  0
 31 30  1  0  0  0  0
 31 38  1  0  0  0  0
 33 32  1  6  0  0  0
 34 29  1  1  0  0  0
 34 36  1  0  0  0  0
 34 37  1  0  0  0  0
 35 32  1  0  0  0  0
 36 33  1  0  0  0  0
 36 37  1  1  0  0  0
 38 39  1  6  0  0  0
 38 36  1  0  0  0  0
 38 33  1  0  0  0  0
 39 40  1  0  0  0  0
 41 39  2  0  0  0  0
M  END
>  <MODEL>
7

>  <REMARK>
 VINA RESULT:      -7.7      3.438      6.738
  Name = 
  7 active torsions:
  status: ('A' for Active; 'I' for Inactive)
    1  A    between atoms: C_7  and  C_30
    2  A    between atoms: C_8  and  C_32
    3  A    between atoms: C_12  and  C_17
    4  A    between atoms: C_12  and  C_32
    5  A    between atoms: N_15  and  C_41
    6  A    between atoms: C_17  and  C_25
    7  A    between atoms: C_24  and  C_35
                            x       y       z     vdW  Elec       q    Type
                         _______ _______ _______ _____ _____    ______ ____

>  <TORSDO>
F 7

$$$$
=
 OpenBabel11042418583D

 41 49  0  0  1  0  0  0  0  0999 V2000
  192.9070  174.2800  143.1510 C   0  0  0  0  0  0  0  0  0  0  0  0
  192.5240  173.2240  142.4300 C   0  0  0  0  0  3  0  0  0  0  0  0
  190.3540  173.3660  144.6580 C   0  0  0  0  0  0  0  0  0  0  0  0
  192.9160  176.1880  144.6260 C   0  0  1  0  0  3  0  0  0  0  0  0
  195.4950  176.6920  144.3890 C   0  0  0  0  0  2  0  0  0  0  0  0
  191.5090  174.1470  145.1680 C   0  0  1  0  0  3  0  0  0  0  0  0
  189.3160  173.4070  145.4700 C   0  0  0  0  0  2  0  0  0  0  0  0
  192.0250  175.0690  144.0710 C   0  0  2  0  0  3  0  0  0  0  0  0
  189.5990  174.2290  146.6710 C   0  0  0  0  0  2  0  0  0  0  0  0
  194.3070  174.7630  143.0820 C   0  0  0  0  0  2  0  0  0  0  0  0
  190.2820  172.6360  143.3830 C   0  0  0  0  0  3  0  0  0  0  0  0
  195.1610  175.5600  145.1560 O   0  0  0  0  0  0  0  0  0  0  0  0
  190.9150  174.9170  146.3490 C   0  0  0  0  0  2  0  0  0  0  0  0
  191.1990  172.5570  142.4000 C   0  0  2  0  0  3  0  0  0  0  0  0
  194.2990  175.8770  144.0910 C   0  0  2  0  0  0  0  0  0  0  0  0
  190.0640  170.0800  138.9530 C   0  0  2  0  0  3  0  0  0  0  0  0
  191.4050  168.3290  138.2120 C   0  0  0  0  0  2  0  0  0  0  0  0
  190.9000  171.7040  141.2160 C   0  0  0  0  0  0  0  0  0  0  0  0
  190.8260  169.5880  140.0870 N   0  0  0  0  0  0  0  0  0  0  0  0
  191.1310  170.3860  141.2320 C   0  0  0  0  0  3  0  0  0  0  0  0
  190.3730  172.3170  139.9740 C   0  0  0  0  0  3  0  0  0  0  0  0
  191.6620  168.4860  139.6980 C   0  0  0  0  0  2  0  0  0  0  0  0
  190.6870  169.5190  137.7580 N   0  0  0  0  0  2  0  0  0  0  0  0
  190.0210  171.5950  138.9040 C   0  0  0  0  0  0  0  0  0  0  0  0
  189.4460  172.2840  137.7900 N   0  0  0  0  0  2  0  0  0  0  0  0
  188.5660  173.4330  137.9260 C   0  0  0  0  0  1  0  0  0  0  0  0
  192.4420  177.5250  144.0760 C   0  0  0  0  0  2  0  0  0  0  0  0
  191.0980  177.3730  143.3760 C   0  0  0  0  0  2  0  0  0  0  0  0
  190.0720  178.3490  143.9310 C   0  0  0  0  0  2  0  0  0  0  0  0
  184.5580  179.0590  144.6530 C   0  0  0  0  0  2  0  0  0  0  0  0
  185.9410  179.3180  144.6990 O   0  0  0  0  0  0  0  0  0  0  0  0
  185.3730  177.5880  142.7560 C   0  0  0  0  0  2  0  0  0  0  0  0
  186.3030  177.0420  143.8400 C   0  0  1  0  0  3  0  0  0  0  0  0
  188.9390  177.6030  144.6060 C   0  0  1  0  0  3  0  0  0  0  0  0
  184.1810  178.3450  143.3530 C   0  0  0  0  0  2  0  0  0  0  0  0
  187.6580  177.7720  143.7630 C   0  0  2  0  0  0  0  0  0  0  0  0
  188.5020  176.4870  143.7560 C   0  0  0  0  0  2  0  0  0  0  0  0
  186.6040  178.0800  144.8680 C   0  0  1  0  0  0  0  0  0  0  0  0
  186.6750  177.5330  146.2740 C   0  0  0  0  0  0  0  0  0  0  0  0
  186.2620  176.3680  146.5160 O   0  0  0  0  0  0  0  0  0  0  0  0
  187.2330  178.2910  147.2960 O   0  0  0  0  0  1  0  0  0  0  0  0
  2  1  2  0  0  0  0
  3  6  1  0  0  0  0
  3  7  1  0  0  0  0
  4 27  1  6  0  0  0
  5 12  1  0  0  0  0
  6 13  1  1  0  0  0
  7  9  1  0  0  0  0
  8  1  1  6  0  0  0
  8  4  1  0  0  0  0
  8  6  1  0  0  0  0
 10  1  1  0  0  0  0
 11  3  2  0  0  0  0
 13  9  1  0  0  0  0
 14 18  1  1  0  0  0
 14  2  1  0  0  0  0
 14 11  1  0  0  0  0
 15 10  1  6  0  0  0
 15  5  1  0  0  0  0
 15  4  1  0  0  0  0
 15 12  1  0  0  0  0
 16 23  1  6  0  0  0
 16 19  1  0  0  0  0
 17 22  1  0  0  0  0
 18 20  2  0  0  0  0
 19 20  1  0  0  0  0
 21 18  1  0  0  0  0
 22 19  1  0  0  0  0
 23 17  1  0  0  0  0
 24 16  1  0  0  0  0
 24 21  2  0  0  0  0
 25 26  1  0  0  0  0
 25 24  1  0  0  0  0
 28 29  1  0  0  0  0
 28 27  1  0  0  0  0
 30 31  1  0  0  0  0
 31 38  1  0  0  0  0
 32 35  1  0  0  0  0
 33 32  1  6  0  0  0
 33 38  1  0  0  0  0
 34 29  1  6  0  0  0
 35 30  1  0  0  0  0
 36 37  1  1  0  0  0
 36 33  1  0  0  0  0
 36 34  1  0  0  0  0
 36 38  1  0  0  0  0
 37 34  1  0  0  0  0
 38 39  1  1  0  0  0
 39 40  2  0  0  0  0
 39 41  1  0  0  0  0
M  END
>  <MODEL>
8

>  <REMARK>
 VINA RESULT:      -7.6      4.029      8.111
  Name = 
  7 active torsions:
  status: ('A' for Active; 'I' for Inactive)
    1  A    between atoms: C_7  and  C_30
    2  A    between atoms: C_8  and  C_32
    3  A    between atoms: C_12  and  C_17
    4  A    between atoms: C_12  and  C_32
    5  A    between atoms: N_15  and  C_41
    6  A    between atoms: C_17  and  C_25
    7  A    between atoms: C_24  and  C_35
                            x       y       z     vdW  Elec       q    Type
                         _______ _______ _______ _____ _____    ______ ____

>  <TORSDO>
F 7

$$$$
=
 OpenBabel11042418583D

 41 49  0  0  1  0  0  0  0  0999 V2000
  189.3270  174.5790  143.9580 C   0  0  0  0  0  0  0  0  0  0  0  0
  189.2220  173.8290  142.8600 C   0  0  0  0  0  3  0  0  0  0  0  0
  187.5680  176.3620  142.1270 C   0  0  0  0  0  0  0  0  0  0  0  0
  189.3790  176.4490  145.4800 C   0  0  1  0  0  3  0  0  0  0  0  0
  189.8930  175.0190  147.6370 C   0  0  0  0  0  2  0  0  0  0  0  0
  187.6680  176.3590  143.6090 C   0  0  1  0  0  3  0  0  0  0  0  0
  186.9570  177.4340  141.6630 C   0  0  0  0  0  2  0  0  0  0  0  0
  189.1030  176.0600  144.0220 C   0  0  2  0  0  3  0  0  0  0  0  0
  186.5410  178.3400  142.7610 C   0  0  0  0  0  2  0  0  0  0  0  0
  189.6910  173.9600  145.2540 C   0  0  0  0  0  2  0  0  0  0  0  0
  188.1000  175.3440  141.2090 C   0  0  0  0  0  3  0  0  0  0  0  0
  188.5830  174.9150  147.1310 O   0  0  0  0  0  0  0  0  0  0  0  0
  187.2300  177.7740  143.9910 C   0  0  0  0  0  2  0  0  0  0  0  0
  188.8200  174.2420  141.4920 C   0  0  2  0  0  3  0  0  0  0  0  0
  189.6070  175.1320  146.1920 C   0  0  2  0  0  0  0  0  0  0  0  0
  189.6960  171.5420  138.1390 C   0  0  2  0  0  3  0  0  0  0  0  0
  191.5890  170.1880  138.1210 C   0  0  0  0  0  2  0  0  0  0  0  0
  189.2030  173.3350  140.3740 C   0  0  0  0  0  0  0  0  0  0  0  0
  190.0630  171.2660  139.5160 N   0  0  0  0  0  0  0  0  0  0  0  0
  189.7140  172.1200  140.6070 C   0  0  0  0  0  3  0  0  0  0  0  0
  189.0600  173.7880  138.9700 C   0  0  0  0  0  3  0  0  0  0  0  0
  191.2180  170.4130  139.5740 C   0  0  0  0  0  2  0  0  0  0  0  0
  190.8400  171.1530  137.3180 N   0  0  0  0  0  2  0  0  0  0  0  0
  189.3210  172.9960  137.9240 C   0  0  0  0  0  0  0  0  0  0  0  0
  189.0680  173.5100  136.6140 N   0  0  0  0  0  2  0  0  0  0  0  0
  189.9810  174.3940  135.9100 C   0  0  0  0  0  1  0  0  0  0  0  0
  190.6450  177.2910  145.5430 C   0  0  0  0  0  2  0  0  0  0  0  0
  190.7380  178.2130  144.3350 C   0  0  0  0  0  2  0  0  0  0  0  0
  191.2760  177.4770  143.1160 C   0  0  0  0  0  2  0  0  0  0  0  0
  193.7680  173.2090  145.7620 C   0  0  0  0  0  2  0  0  0  0  0  0
  192.9640  174.3450  145.5520 O   0  0  0  0  0  0  0  0  0  0  0  0
  193.3710  173.0460  143.2630 C   0  0  0  0  0  2  0  0  0  0  0  0
  193.9040  174.4790  143.2830 C   0  0  1  0  0  3  0  0  0  0  0  0
  192.6950  177.0050  143.3640 C   0  0  1  0  0  3  0  0  0  0  0  0
  193.7320  172.2840  144.5430 C   0  0  0  0  0  2  0  0  0  0  0  0
  192.7190  175.4620  143.3370 C   0  0  2  0  0  0  0  0  0  0  0  0
  193.2100  176.3290  142.1660 C   0  0  0  0  0  2  0  0  0  0  0  0
  193.6040  175.1510  144.5810 C   0  0  1  0  0  0  0  0  0  0  0  0
  194.7170  176.0470  145.0680 C   0  0  0  0  0  0  0  0  0  0  0  0
  194.5650  176.7230  146.1210 O   0  0  0  0  0  1  0  0  0  0  0  0
  195.9270  176.0990  144.3880 O   0  0  0  0  0  0  0  0  0  0  0  0
  1 10  1  0  0  0  0
  2  1  2  0  0  0  0
  3  6  1  0  0  0  0
  4 27  1  6  0  0  0
  4 15  1  0  0  0  0
  6 13  1  6  0  0  0
  6  8  1  0  0  0  0
  7  3  1  0  0  0  0
  7  9  1  0  0  0  0
  8  1  1  1  0  0  0
  8  4  1  0  0  0  0
  9 13  1  0  0  0  0
 11 14  1  0  0  0  0
 11  3  2  0  0  0  0
 12  5  1  0  0  0  0
 14 18  1  1  0  0  0
 14  2  1  0  0  0  0
 15 10  1  6  0  0  0
 15 12  1  0  0  0  0
 15  5  1  0  0  0  0
 16 23  1  6  0  0  0
 16 19  1  0  0  0  0
 17 22  1  0  0  0  0
 18 20  2  0  0  0  0
 19 22  1  0  0  0  0
 19 20  1  0  0  0  0
 21 18  1  0  0  0  0
 23 17  1  0  0  0  0
 24 16  1  0  0  0  0
 24 21  2  0  0  0  0
 25 24  1  0  0  0  0
 26 25  1  0  0  0  0
 28 27  1  0  0  0  0
 29 28  1  0  0  0  0
 31 30  1  0  0  0  0
 32 35  1  0  0  0  0
 33 32  1  1  0  0  0
 33 36  1  0  0  0  0
 33 38  1  0  0  0  0
 34 29  1  6  0  0  0
 35 30  1  0  0  0  0
 36 37  1  6  0  0  0
 36 34  1  0  0  0  0
 36 38  1  0  0  0  0
 37 34  1  0  0  0  0
 38 39  1  1  0  0  0
 38 31  1  0  0  0  0
 39 40  1  0  0  0  0
 41 39  2  0  0  0  0
M  END
>  <MODEL>
9

>  <REMARK>
 VINA RESULT:      -7.6      3.347      6.577
  Name = 
  7 active torsions:
  status: ('A' for Active; 'I' for Inactive)
    1  A    between atoms: C_7  and  C_30
    2  A    between atoms: C_8  and  C_32
    3  A    between atoms: C_12  and  C_17
    4  A    between atoms: C_12  and  C_32
    5  A    between atoms: N_15  and  C_41
    6  A    between atoms: C_17  and  C_25
    7  A    between atoms: C_24  and  C_35
                            x       y       z     vdW  Elec       q    Type
                         _______ _______ _______ _____ _____    ______ ____

>  <TORSDO>
F 7

$$$$
