=
 OpenBabel11042417013D

 44 48  0  0  1  0  0  0  0  0999 V2000
  191.1510  173.3030  141.9100 C   0  0  2  0  0  3  0  0  0  0  0  0
  193.3550  172.3400  142.4460 C   0  0  0  0  0  0  0  0  0  0  0  0
  194.8050  176.8700  145.4560 N   0  0  0  0  0  0  0  0  0  0  0  0
  192.4840  175.4090  145.4950 C   0  0  0  0  0  0  0  0  0  0  0  0
  194.0540  176.8050  146.5830 C   0  0  0  0  0  3  0  0  0  0  0  0
  194.2950  171.1900  142.3820 C   0  0  0  0  0  1  0  0  0  0  0  0
  192.9030  176.0860  146.5960 N   0  0  0  0  0  0  0  0  0  0  0  0
  192.0620  172.2030  141.9300 O   0  0  0  0  0  0  0  0  0  0  0  0
  193.2500  175.4590  144.3100 C   0  0  0  0  0  0  0  0  0  0  0  0
  193.7310  173.4440  143.0210 N   0  0  0  0  0  0  0  0  0  0  0  0
  191.1610  174.6810  145.5520 C   0  0  2  0  0  3  0  0  0  0  0  0
  191.0000  173.6470  144.4360 C   0  0  0  0  0  2  0  0  0  0  0  0
  192.8740  174.6320  143.1010 C   0  0  1  0  0  3  0  0  0  0  0  0
  194.4300  176.2230  144.3210 C   0  0  0  0  0  0  0  0  0  0  0  0
  191.3850  174.2560  143.0890 C   0  0  1  0  0  3  0  0  0  0  0  0
  187.6750  176.0360  146.1450 C   0  0  0  0  0  3  0  0  0  0  0  0
  188.7830  175.1870  146.1270 C   0  0  0  0  0  3  0  0  0  0  0  0
  189.9970  175.6270  145.5930 C   0  0  0  0  0  0  0  0  0  0  0  0
  190.0940  176.9260  145.0700 C   0  0  0  0  0  3  0  0  0  0  0  0
  187.7750  177.3430  145.6440 C   0  0  0  0  0  0  0  0  0  0  0  0
  188.9840  177.7760  145.0860 C   0  0  0  0  0  3  0  0  0  0  0  0
  186.9300  178.5010  147.9670 O   0  0  0  0  0  1  0  0  0  0  0  0
  185.4030  177.6270  146.3700 C   0  0  0  0  0  2  0  0  0  0  0  0
  186.5520  178.2170  145.5670 C   0  0  1  0  0  3  0  0  0  0  0  0
  186.1120  178.8580  146.8920 C   0  0  2  0  0  3  0  0  0  0  0  0
  189.6940  172.8860  141.6030 C   0  0  2  0  0  3  0  0  0  0  0  0
  189.4620  172.5770  140.1340 C   0  0  0  0  0  1  0  0  0  0  0  0
  188.5730  173.7650  142.1690 C   0  0  2  0  0  3  0  0  0  0  0  0
  187.3230  173.1540  142.0570 O   0  0  0  0  0  1  0  0  0  0  0  0
  188.5570  175.1120  141.5240 C   0  0  0  0  0  3  0  0  0  0  0  0
  187.8930  176.1180  142.0860 C   0  0  0  0  0  3  0  0  0  0  0  0
  187.8770  177.4590  141.4330 C   0  0  0  0  0  2  0  0  0  0  0  0
  186.7810  178.3200  142.0330 C   0  0  0  0  0  2  0  0  0  0  0  0
  185.4720  177.5530  142.0690 C   0  0  0  0  0  2  0  0  0  0  0  0
  184.4500  178.2110  141.1620 C   0  0  0  0  0  2  0  0  0  0  0  0
  183.1930  178.1970  141.7720 O   0  0  0  0  0  0  0  0  0  0  0  0
  182.2920  178.0820  140.7140 C   0  0  0  0  0  1  0  0  0  0  0  0
  195.2930  176.3330  143.1030 C   0  0  0  0  0  2  0  0  0  0  0  0
  196.7110  176.7460  143.4740 C   0  0  0  0  0  2  0  0  0  0  0  0
  197.6400  175.6530  143.2170 N   0  0  0  0  0  2  0  0  0  0  0  0
  197.3310  173.3380  144.0400 C   0  0  0  0  0  0  0  0  0  0  0  0
  197.3130  172.8660  142.8360 N   0  0  0  0  0  2  0  0  0  0  0  0
  197.2310  172.4110  145.1960 C   0  0  0  0  0  1  0  0  0  0  0  0
  197.5230  174.7360  144.2730 N   0  0  0  0  0  2  0  0  0  0  0  0
  1 26  1  1  0  0  0
  1  8  1  0  0  0  0
  1 15  1  0  0  0  0
  2 10  2  0  0  0  0
  3  5  1  0  0  0  0
  4 11  1  0  0  0  0
  4  7  1  0  0  0  0
  5  7  2  0  0  0  0
  6  2  1  0  0  0  0
  8  2  1  0  0  0  0
  9 14  1  0  0  0  0
  9  4  2  0  0  0  0
 11 18  1  6  0  0  0
 12 11  1  0  0  0  0
 13 10  1  1  0  0  0
 13  9  1  0  0  0  0
 14  3  2  0  0  0  0
 15 13  1  0  0  0  0
 15 12  1  1  0  0  0
 17 16  1  0  0  0  0
 18 17  2  0  0  0  0
 19 21  2  0  0  0  0
 19 18  1  0  0  0  0
 20 16  2  0  0  0  0
 21 20  1  0  0  0  0
 23 25  1  0  0  0  0
 24 20  1  1  0  0  0
 24 23  1  0  0  0  0
 24 25  1  0  0  0  0
 25 22  1  1  0  0  0
 26 27  1  6  0  0  0
 26 28  1  0  0  0  0
 28 29  1  6  0  0  0
 30 31  2  0  0  0  0
 30 28  1  0  0  0  0
 32 33  1  0  0  0  0
 32 31  1  0  0  0  0
 33 34  1  0  0  0  0
 35 36  1  0  0  0  0
 35 34  1  0  0  0  0
 37 36  1  0  0  0  0
 38 39  1  0  0  0  0
 38 14  1  0  0  0  0
 40 39  1  0  0  0  0
 40 44  1  0  0  0  0
 41 44  1  0  0  0  0
 41 43  1  0  0  0  0
 42 41  2  0  0  0  0
M  END
>  <MODEL>
1

>  <REMARK>
 VINA RESULT:      -7.2      0.000      0.000
  Name = 
  14 active torsions:
  status: ('A' for Active; 'I' for Inactive)
    1  A    between atoms: C_2  and  C_31
    2  A    between atoms: C_4  and  O_27
    3  A    between atoms: C_4  and  C_36
    4  A    between atoms: C_8  and  C_23
    5  A    between atoms: C_8  and  N_42
    6  A    between atoms: C_11  and  C_34
    7  A    between atoms: C_11  and  C_38
    8  A    between atoms: C_12  and  C_13
    9  A    between atoms: C_12  and  C_31
   10  A    between atoms: C_23  and  C_41
   11  A    between atoms: C_24  and  C_26
   12  A    between atoms: N_29  and  N_42
   13  A    between atoms: C_30  and  C_33
   14  A    between atoms: C_34  and  C_36
                            x       y       z     vdW  Elec       q    Type
                         _______ _______ _______ _____ _____    ______ ____

>  <TORSDO>
F 14

$$$$
=
 OpenBabel11042417013D

 44 48  0  0  1  0  0  0  0  0999 V2000
  192.8580  174.8600  145.7700 C   0  0  2  0  0  3  0  0  0  0  0  0
  194.6320  173.5380  144.6830 C   0  0  0  0  0  0  0  0  0  0  0  0
  190.9290  171.0590  141.2430 N   0  0  0  0  0  0  0  0  0  0  0  0
  191.2190  173.7090  141.8900 C   0  0  0  0  0  0  0  0  0  0  0  0
  190.5530  172.0240  140.3670 C   0  0  0  0  0  3  0  0  0  0  0  0
  196.0770  173.2280  144.5250 C   0  0  0  0  0  1  0  0  0  0  0  0
  190.6930  173.3340  140.6950 N   0  0  0  0  0  0  0  0  0  0  0  0
  194.2370  174.5740  145.5370 O   0  0  0  0  0  0  0  0  0  0  0  0
  191.6200  172.7230  142.8180 C   0  0  0  0  0  0  0  0  0  0  0  0
  193.7530  172.8740  143.9900 N   0  0  0  0  0  0  0  0  0  0  0  0
  191.2880  175.1810  142.2200 C   0  0  2  0  0  3  0  0  0  0  0  0
  192.2470  175.4910  143.3720 C   0  0  0  0  0  2  0  0  0  0  0  0
  192.3090  173.1000  144.1090 C   0  0  1  0  0  3  0  0  0  0  0  0
  191.4510  171.3740  142.4580 C   0  0  0  0  0  0  0  0  0  0  0  0
  191.9970  174.5400  144.5410 C   0  0  1  0  0  3  0  0  0  0  0  0
  188.5740  177.6900  143.0490 C   0  0  0  0  0  3  0  0  0  0  0  0
  189.8230  177.1270  142.7800 C   0  0  0  0  0  3  0  0  0  0  0  0
  189.9290  175.7690  142.4690 C   0  0  0  0  0  0  0  0  0  0  0  0
  188.7740  174.9720  142.4350 C   0  0  0  0  0  3  0  0  0  0  0  0
  187.4150  176.9020  142.9930 C   0  0  0  0  0  0  0  0  0  0  0  0
  187.5230  175.5350  142.7060 C   0  0  0  0  0  3  0  0  0  0  0  0
  185.8980  177.9910  141.0020 O   0  0  0  0  0  1  0  0  0  0  0  0
  186.0540  178.9890  143.1530 C   0  0  0  0  0  2  0  0  0  0  0  0
  186.0850  177.4860  143.3880 C   0  0  1  0  0  3  0  0  0  0  0  0
  185.2560  178.0830  142.2410 C   0  0  2  0  0  3  0  0  0  0  0  0
  192.6230  176.2130  146.4770 C   0  0  2  0  0  3  0  0  0  0  0  0
  193.9150  176.9300  146.8320 C   0  0  0  0  0  1  0  0  0  0  0  0
  191.6360  176.2380  147.6490 C   0  0  2  0  0  3  0  0  0  0  0  0
  191.6360  175.0370  148.3590 O   0  0  0  0  0  1  0  0  0  0  0  0
  190.2550  176.5760  147.1920 C   0  0  0  0  0  3  0  0  0  0  0  0
  189.4100  175.6130  146.8360 C   0  0  0  0  0  3  0  0  0  0  0  0
  188.0350  175.9590  146.3750 C   0  0  0  0  0  2  0  0  0  0  0  0
  187.7270  177.4120  146.6890 C   0  0  0  0  0  2  0  0  0  0  0  0
  186.2860  177.5560  147.1440 C   0  0  0  0  0  2  0  0  0  0  0  0
  185.8810  179.0170  147.1570 C   0  0  0  0  0  2  0  0  0  0  0  0
  184.7720  179.2120  146.3310 O   0  0  0  0  0  0  0  0  0  0  0  0
  184.0580  178.0160  146.4140 C   0  0  0  0  0  1  0  0  0  0  0  0
  191.8430  170.2690  143.3890 C   0  0  0  0  0  2  0  0  0  0  0  0
  192.3580  169.0610  142.6170 C   0  0  0  0  0  2  0  0  0  0  0  0
  193.1840  168.2260  143.4790 N   0  0  0  0  0  2  0  0  0  0  0  0
  194.9090  169.0210  145.0690 C   0  0  0  0  0  0  0  0  0  0  0  0
  195.8390  168.3650  144.4550 N   0  0  0  0  0  2  0  0  0  0  0  0
  195.2540  169.8690  146.2370 C   0  0  0  0  0  1  0  0  0  0  0  0
  193.5620  168.9980  144.5880 N   0  0  0  0  0  2  0  0  0  0  0  0
  1 26  1  6  0  0  0
  2  8  1  0  0  0  0
  3 14  1  0  0  0  0
  4 11  1  0  0  0  0
  4  9  1  0  0  0  0
  5  7  1  0  0  0  0
  5  3  2  0  0  0  0
  6  2  1  0  0  0  0
  7  4  2  0  0  0  0
  8  1  1  0  0  0  0
 10 13  1  0  0  0  0
 10  2  2  0  0  0  0
 11 18  1  1  0  0  0
 11 12  1  0  0  0  0
 13  9  1  6  0  0  0
 13 15  1  0  0  0  0
 14  9  2  0  0  0  0
 14 38  1  0  0  0  0
 15 12  1  6  0  0  0
 15  1  1  0  0  0  0
 17 16  2  0  0  0  0
 18 17  1  0  0  0  0
 19 18  2  0  0  0  0
 19 21  1  0  0  0  0
 20 16  1  0  0  0  0
 21 20  2  0  0  0  0
 23 24  1  0  0  0  0
 24 20  1  6  0  0  0
 25 22  1  6  0  0  0
 25 23  1  0  0  0  0
 25 24  1  0  0  0  0
 26 27  1  1  0  0  0
 26 28  1  0  0  0  0
 28 29  1  6  0  0  0
 30 28  1  0  0  0  0
 31 30  2  0  0  0  0
 32 33  1  0  0  0  0
 32 31  1  0  0  0  0
 33 34  1  0  0  0  0
 34 35  1  0  0  0  0
 36 37  1  0  0  0  0
 36 35  1  0  0  0  0
 39 38  1  0  0  0  0
 39 40  1  0  0  0  0
 40 44  1  0  0  0  0
 41 43  1  0  0  0  0
 42 41  2  0  0  0  0
 44 41  1  0  0  0  0
M  END
>  <MODEL>
2

>  <REMARK>
 VINA RESULT:      -7.1      2.520      5.414
  Name = 
  14 active torsions:
  status: ('A' for Active; 'I' for Inactive)
    1  A    between atoms: C_2  and  C_31
    2  A    between atoms: C_4  and  O_27
    3  A    between atoms: C_4  and  C_36
    4  A    between atoms: C_8  and  C_23
    5  A    between atoms: C_8  and  N_42
    6  A    between atoms: C_11  and  C_34
    7  A    between atoms: C_11  and  C_38
    8  A    between atoms: C_12  and  C_13
    9  A    between atoms: C_12  and  C_31
   10  A    between atoms: C_23  and  C_41
   11  A    between atoms: C_24  and  C_26
   12  A    between atoms: N_29  and  N_42
   13  A    between atoms: C_30  and  C_33
   14  A    between atoms: C_34  and  C_36
                            x       y       z     vdW  Elec       q    Type
                         _______ _______ _______ _____ _____    ______ ____

>  <TORSDO>
F 14

$$$$
=
 OpenBabel11042417013D

 44 48  0  0  1  0  0  0  0  0999 V2000
  190.4860  176.4030  145.7180 C   0  0  2  0  0  3  0  0  0  0  0  0
  188.0240  176.5090  145.6540 C   0  0  0  0  0  0  0  0  0  0  0  0
  187.9300  175.1960  140.1800 N   0  0  0  0  0  0  0  0  0  0  0  0
  189.3250  174.0360  142.2380 C   0  0  0  0  0  0  0  0  0  0  0  0
  188.2770  173.8860  140.1210 C   0  0  0  0  0  3  0  0  0  0  0  0
  186.7350  176.6720  146.3740 C   0  0  0  0  0  1  0  0  0  0  0  0
  188.9730  173.3180  141.1390 N   0  0  0  0  0  0  0  0  0  0  0  0
  189.2220  176.4890  146.3770 O   0  0  0  0  0  0  0  0  0  0  0  0
  188.9730  175.4000  142.3240 C   0  0  0  0  0  0  0  0  0  0  0  0
  188.0210  176.3410  144.3630 N   0  0  0  0  0  0  0  0  0  0  0  0
  190.1550  173.3630  143.3060 C   0  0  2  0  0  3  0  0  0  0  0  0
  190.1350  174.1140  144.6390 C   0  0  0  0  0  2  0  0  0  0  0  0
  189.2510  176.2010  143.5760 C   0  0  1  0  0  3  0  0  0  0  0  0
  188.2650  175.9660  141.2490 C   0  0  0  0  0  0  0  0  0  0  0  0
  190.3920  175.6030  144.4120 C   0  0  1  0  0  3  0  0  0  0  0  0
  193.4110  171.5560  142.6170 C   0  0  0  0  0  3  0  0  0  0  0  0
  192.0950  171.8180  143.0030 C   0  0  0  0  0  3  0  0  0  0  0  0
  191.5590  173.0990  142.8480 C   0  0  0  0  0  0  0  0  0  0  0  0
  192.3540  174.1220  142.3080 C   0  0  0  0  0  3  0  0  0  0  0  0
  194.2000  172.5700  142.0550 C   0  0  0  0  0  0  0  0  0  0  0  0
  193.6720  173.8610  141.9220 C   0  0  0  0  0  3  0  0  0  0  0  0
  194.7910  171.7520  139.5190 O   0  0  0  0  0  1  0  0  0  0  0  0
  195.8880  170.8440  141.4200 C   0  0  0  0  0  2  0  0  0  0  0  0
  195.6490  172.3120  141.7400 C   0  0  1  0  0  3  0  0  0  0  0  0
  195.9440  171.8610  140.3010 C   0  0  2  0  0  3  0  0  0  0  0  0
  191.6550  176.0770  146.6750 C   0  0  2  0  0  3  0  0  0  0  0  0
  191.3900  176.5130  148.1070 C   0  0  0  0  0  1  0  0  0  0  0  0
  193.0670  176.4720  146.2280 C   0  0  2  0  0  3  0  0  0  0  0  0
  193.0630  177.1130  144.9880 O   0  0  0  0  0  1  0  0  0  0  0  0
  193.9810  175.2920  146.2060 C   0  0  0  0  0  3  0  0  0  0  0  0
  193.5580  174.1230  145.7340 C   0  0  0  0  0  3  0  0  0  0  0  0
  194.4760  172.9470  145.7210 C   0  0  0  0  0  2  0  0  0  0  0  0
  195.8970  173.3950  145.4320 C   0  0  0  0  0  2  0  0  0  0  0  0
  196.8880  172.3930  145.9950 C   0  0  0  0  0  2  0  0  0  0  0  0
  197.2590  171.3680  144.9410 C   0  0  0  0  0  2  0  0  0  0  0  0
  197.6440  170.1730  145.5530 O   0  0  0  0  0  0  0  0  0  0  0  0
  196.6560  169.9330  146.5070 C   0  0  0  0  0  1  0  0  0  0  0  0
  187.8620  177.4080  141.2600 C   0  0  0  0  0  2  0  0  0  0  0  0
  186.6440  177.6410  140.3770 C   0  0  0  0  0  2  0  0  0  0  0  0
  185.4570  177.8460  141.1980 N   0  0  0  0  0  2  0  0  0  0  0  0
  185.1980  178.8330  143.4540 C   0  0  0  0  0  0  0  0  0  0  0  0
  184.4400  177.8600  143.8410 N   0  0  0  0  0  2  0  0  0  0  0  0
  185.5610  179.9080  144.4120 C   0  0  0  0  0  1  0  0  0  0  0  0
  185.7540  178.8460  142.1370 N   0  0  0  0  0  2  0  0  0  0  0  0
  1  8  1  0  0  0  0
  1 26  1  1  0  0  0
  2  6  1  0  0  0  0
  2  8  1  0  0  0  0
  3 14  1  0  0  0  0
  4  9  1  0  0  0  0
  4 11  1  0  0  0  0
  5  3  2  0  0  0  0
  5  7  1  0  0  0  0
  7  4  2  0  0  0  0
 10  2  2  0  0  0  0
 11 18  1  6  0  0  0
 11 12  1  0  0  0  0
 13  9  1  6  0  0  0
 13 10  1  0  0  0  0
 13 15  1  0  0  0  0
 14 38  1  0  0  0  0
 14  9  2  0  0  0  0
 15 12  1  1  0  0  0
 15  1  1  0  0  0  0
 16 17  1  0  0  0  0
 18 17  2  0  0  0  0
 19 18  1  0  0  0  0
 20 16  2  0  0  0  0
 21 20  1  0  0  0  0
 21 19  2  0  0  0  0
 23 24  1  0  0  0  0
 24 20  1  6  0  0  0
 25 22  1  6  0  0  0
 25 23  1  0  0  0  0
 25 24  1  0  0  0  0
 26 27  1  1  0  0  0
 28 29  1  6  0  0  0
 28 26  1  0  0  0  0
 30 28  1  0  0  0  0
 31 30  2  0  0  0  0
 32 31  1  0  0  0  0
 33 32  1  0  0  0  0
 33 34  1  0  0  0  0
 35 36  1  0  0  0  0
 35 34  1  0  0  0  0
 36 37  1  0  0  0  0
 39 40  1  0  0  0  0
 39 38  1  0  0  0  0
 40 44  1  0  0  0  0
 41 42  2  0  0  0  0
 41 43  1  0  0  0  0
 44 41  1  0  0  0  0
M  END
>  <MODEL>
3

>  <REMARK>
 VINA RESULT:      -6.9      3.601      9.672
  Name = 
  14 active torsions:
  status: ('A' for Active; 'I' for Inactive)
    1  A    between atoms: C_2  and  C_31
    2  A    between atoms: C_4  and  O_27
    3  A    between atoms: C_4  and  C_36
    4  A    between atoms: C_8  and  C_23
    5  A    between atoms: C_8  and  N_42
    6  A    between atoms: C_11  and  C_34
    7  A    between atoms: C_11  and  C_38
    8  A    between atoms: C_12  and  C_13
    9  A    between atoms: C_12  and  C_31
   10  A    between atoms: C_23  and  C_41
   11  A    between atoms: C_24  and  C_26
   12  A    between atoms: N_29  and  N_42
   13  A    between atoms: C_30  and  C_33
   14  A    between atoms: C_34  and  C_36
                            x       y       z     vdW  Elec       q    Type
                         _______ _______ _______ _____ _____    ______ ____

>  <TORSDO>
F 14

$$$$
=
 OpenBabel11042417013D

 44 48  0  0  1  0  0  0  0  0999 V2000
  190.3480  174.0000  142.2070 C   0  0  2  0  0  3  0  0  0  0  0  0
  189.1160  176.1180  142.4760 C   0  0  0  0  0  0  0  0  0  0  0  0
  190.4830  176.4320  147.9280 N   0  0  0  0  0  0  0  0  0  0  0  0
  192.0630  175.8850  145.7530 C   0  0  0  0  0  0  0  0  0  0  0  0
  191.8060  176.7320  147.9480 C   0  0  0  0  0  3  0  0  0  0  0  0
  188.3410  177.2290  141.8660 C   0  0  0  0  0  1  0  0  0  0  0  0
  192.5850  176.4530  146.8710 N   0  0  0  0  0  0  0  0  0  0  0  0
  189.6570  175.1210  141.6560 O   0  0  0  0  0  0  0  0  0  0  0  0
  190.6880  175.5660  145.7070 C   0  0  0  0  0  0  0  0  0  0  0  0
  189.3220  176.1090  143.7610 N   0  0  0  0  0  0  0  0  0  0  0  0
  192.9940  175.5400  144.6150 C   0  0  2  0  0  3  0  0  0  0  0  0
  192.2600  175.3000  143.2940 C   0  0  0  0  0  2  0  0  0  0  0  0
  190.0520  175.0340  144.4430 C   0  0  1  0  0  3  0  0  0  0  0  0
  189.9080  175.8530  146.8410 C   0  0  0  0  0  0  0  0  0  0  0  0
  191.0720  174.3640  143.5110 C   0  0  1  0  0  3  0  0  0  0  0  0
  194.1840  172.0170  145.3360 C   0  0  0  0  0  3  0  0  0  0  0  0
  193.3710  173.0980  144.9900 C   0  0  0  0  0  3  0  0  0  0  0  0
  193.9000  174.3910  144.9530 C   0  0  0  0  0  0  0  0  0  0  0  0
  195.2510  174.5970  145.2730 C   0  0  0  0  0  3  0  0  0  0  0  0
  195.5400  172.2170  145.6320 C   0  0  0  0  0  0  0  0  0  0  0  0
  196.0650  173.5160  145.6210 C   0  0  0  0  0  3  0  0  0  0  0  0
  197.5250  171.3640  143.9650 O   0  0  0  0  0  1  0  0  0  0  0  0
  196.2000  169.8440  145.2220 C   0  0  0  0  0  2  0  0  0  0  0  0
  196.3860  171.0660  146.1090 C   0  0  1  0  0  3  0  0  0  0  0  0
  197.4980  170.6190  145.1480 C   0  0  2  0  0  3  0  0  0  0  0  0
  191.1350  173.1870  141.1550 C   0  0  2  0  0  3  0  0  0  0  0  0
  190.6270  173.3990  139.7390 C   0  0  0  0  0  1  0  0  0  0  0  0
  191.3710  171.7000  141.4410 C   0  0  2  0  0  3  0  0  0  0  0  0
  190.5440  171.2250  142.4600 O   0  0  0  0  0  1  0  0  0  0  0  0
  192.8040  171.4260  141.7590 C   0  0  0  0  0  3  0  0  0  0  0  0
  193.7370  172.3340  141.4880 C   0  0  0  0  0  3  0  0  0  0  0  0
  195.1680  172.0510  141.8030 C   0  0  0  0  0  2  0  0  0  0  0  0
  195.9980  173.3110  141.6420 C   0  0  0  0  0  2  0  0  0  0  0  0
  195.0940  174.5140  141.4420 C   0  0  0  0  0  2  0  0  0  0  0  0
  195.9190  175.7790  141.3080 C   0  0  0  0  0  2  0  0  0  0  0  0
  197.0170  175.7250  142.1700 O   0  0  0  0  0  0  0  0  0  0  0  0
  196.8740  176.8430  142.9910 C   0  0  0  0  0  1  0  0  0  0  0  0
  188.4450  175.5370  146.8750 C   0  0  0  0  0  2  0  0  0  0  0  0
  187.6130  176.8120  146.9070 C   0  0  0  0  0  2  0  0  0  0  0  0
  186.4500  176.6770  146.0400 N   0  0  0  0  0  2  0  0  0  0  0  0
  185.3710  178.7030  145.1080 C   0  0  0  0  0  0  0  0  0  0  0  0
  184.3780  178.6050  145.9300 N   0  0  0  0  0  2  0  0  0  0  0  0
  185.4320  179.8440  144.1610 C   0  0  0  0  0  1  0  0  0  0  0  0
  186.4500  177.7650  145.1530 N   0  0  0  0  0  2  0  0  0  0  0  0
  1 26  1  6  0  0  0
  1 15  1  0  0  0  0
  2 10  2  0  0  0  0
  3  5  1  0  0  0  0
  4  7  1  0  0  0  0
  6  2  1  0  0  0  0
  7  5  2  0  0  0  0
  8  1  1  0  0  0  0
  8  2  1  0  0  0  0
  9  4  2  0  0  0  0
  9 14  1  0  0  0  0
 11 18  1  1  0  0  0
 11  4  1  0  0  0  0
 12 11  1  0  0  0  0
 13 10  1  6  0  0  0
 13  9  1  0  0  0  0
 14 38  1  0  0  0  0
 14  3  2  0  0  0  0
 15 12  1  6  0  0  0
 15 13  1  0  0  0  0
 16 20  1  0  0  0  0
 17 16  2  0  0  0  0
 18 17  1  0  0  0  0
 18 19  2  0  0  0  0
 19 21  1  0  0  0  0
 21 20  2  0  0  0  0
 23 24  1  0  0  0  0
 24 20  1  6  0  0  0
 25 22  1  6  0  0  0
 25 23  1  0  0  0  0
 25 24  1  0  0  0  0
 26 27  1  6  0  0  0
 26 28  1  0  0  0  0
 28 30  1  0  0  0  0
 28 29  1  1  0  0  0
 31 30  2  0  0  0  0
 31 32  1  0  0  0  0
 33 32  1  0  0  0  0
 34 33  1  0  0  0  0
 35 34  1  0  0  0  0
 35 36  1  0  0  0  0
 36 37  1  0  0  0  0
 38 39  1  0  0  0  0
 40 39  1  0  0  0  0
 41 44  1  0  0  0  0
 41 42  2  0  0  0  0
 43 41  1  0  0  0  0
 44 40  1  0  0  0  0
M  END
>  <MODEL>
4

>  <REMARK>
 VINA RESULT:      -6.8      2.973      8.522
  Name = 
  14 active torsions:
  status: ('A' for Active; 'I' for Inactive)
    1  A    between atoms: C_2  and  C_31
    2  A    between atoms: C_4  and  O_27
    3  A    between atoms: C_4  and  C_36
    4  A    between atoms: C_8  and  C_23
    5  A    between atoms: C_8  and  N_42
    6  A    between atoms: C_11  and  C_34
    7  A    between atoms: C_11  and  C_38
    8  A    between atoms: C_12  and  C_13
    9  A    between atoms: C_12  and  C_31
   10  A    between atoms: C_23  and  C_41
   11  A    between atoms: C_24  and  C_26
   12  A    between atoms: N_29  and  N_42
   13  A    between atoms: C_30  and  C_33
   14  A    between atoms: C_34  and  C_36
                            x       y       z     vdW  Elec       q    Type
                         _______ _______ _______ _____ _____    ______ ____

>  <TORSDO>
F 14

$$$$
=
 OpenBabel11042417013D

 44 48  0  0  1  0  0  0  0  0999 V2000
  191.7420  172.8460  142.4560 C   0  0  2  0  0  3  0  0  0  0  0  0
  193.9410  172.0620  143.2460 C   0  0  0  0  0  0  0  0  0  0  0  0
  195.0510  177.0300  145.6500 N   0  0  0  0  0  0  0  0  0  0  0  0
  192.7830  175.4930  145.7690 C   0  0  0  0  0  0  0  0  0  0  0  0
  194.2360  177.0940  146.7320 C   0  0  0  0  0  3  0  0  0  0  0  0
  194.9220  170.9560  143.4000 C   0  0  0  0  0  1  0  0  0  0  0  0
  193.1110  176.3360  146.7830 N   0  0  0  0  0  0  0  0  0  0  0  0
  192.6870  171.8010  142.6840 O   0  0  0  0  0  0  0  0  0  0  0  0
  193.6180  175.4070  144.6340 C   0  0  0  0  0  0  0  0  0  0  0  0
  194.2440  173.2520  143.6770 N   0  0  0  0  0  0  0  0  0  0  0  0
  191.4850  174.7250  145.8580 C   0  0  2  0  0  3  0  0  0  0  0  0
  191.4260  173.5380  144.8940 C   0  0  0  0  0  2  0  0  0  0  0  0
  193.3440  174.4030  143.5380 C   0  0  1  0  0  3  0  0  0  0  0  0
  194.7690  176.2140  144.6010 C   0  0  0  0  0  0  0  0  0  0  0  0
  191.8720  173.9660  143.4970 C   0  0  1  0  0  3  0  0  0  0  0  0
  187.8990  175.9440  145.9160 C   0  0  0  0  0  3  0  0  0  0  0  0
  189.0320  175.1460  146.0870 C   0  0  0  0  0  3  0  0  0  0  0  0
  190.2880  175.6180  145.6980 C   0  0  0  0  0  0  0  0  0  0  0  0
  190.4030  176.8960  145.1280 C   0  0  0  0  0  3  0  0  0  0  0  0
  188.0140  177.2300  145.3700 C   0  0  0  0  0  0  0  0  0  0  0  0
  189.2690  177.6940  144.9560 C   0  0  0  0  0  3  0  0  0  0  0  0
  186.7460  178.3420  147.5160 O   0  0  0  0  0  1  0  0  0  0  0  0
  185.5440  177.3960  145.6970 C   0  0  0  0  0  2  0  0  0  0  0  0
  186.7790  178.0440  145.0880 C   0  0  1  0  0  3  0  0  0  0  0  0
  186.0970  178.6600  146.3190 C   0  0  2  0  0  3  0  0  0  0  0  0
  190.3220  172.3300  142.1320 C   0  0  2  0  0  3  0  0  0  0  0  0
  190.1990  170.8200  142.2420 C   0  0  0  0  0  1  0  0  0  0  0  0
  189.6550  172.8480  140.8530 C   0  0  2  0  0  3  0  0  0  0  0  0
  190.5630  172.9620  139.7990 O   0  0  0  0  0  1  0  0  0  0  0  0
  188.9600  174.1490  141.0880 C   0  0  0  0  0  3  0  0  0  0  0  0
  188.0380  174.2540  142.0410 C   0  0  0  0  0  3  0  0  0  0  0  0
  187.3430  175.5550  142.2650 C   0  0  0  0  0  2  0  0  0  0  0  0
  188.0900  176.6750  141.5650 C   0  0  0  0  0  2  0  0  0  0  0  0
  187.2670  177.9510  141.5910 C   0  0  0  0  0  2  0  0  0  0  0  0
  186.0190  177.7910  140.7450 C   0  0  0  0  0  2  0  0  0  0  0  0
  184.8890  178.1200  141.4970 O   0  0  0  0  0  0  0  0  0  0  0  0
  183.8860  178.3290  140.5510 C   0  0  0  0  0  1  0  0  0  0  0  0
  195.7000  176.1870  143.4290 C   0  0  0  0  0  2  0  0  0  0  0  0
  194.9680  176.5430  142.1430 C   0  0  0  0  0  2  0  0  0  0  0  0
  195.9210  176.9290  141.1100 N   0  0  0  0  0  2  0  0  0  0  0  0
  196.9050  175.0440  139.8400 C   0  0  0  0  0  0  0  0  0  0  0  0
  196.1040  175.2400  138.8440 N   0  0  0  0  0  2  0  0  0  0  0  0
  197.9330  173.9760  139.7580 C   0  0  0  0  0  1  0  0  0  0  0  0
  196.8620  175.8940  140.9890 N   0  0  0  0  0  2  0  0  0  0  0  0
  1 26  1  1  0  0  0
  1  8  1  0  0  0  0
  1 15  1  0  0  0  0
  2  6  1  0  0  0  0
  2 10  2  0  0  0  0
  3  5  1  0  0  0  0
  4 11  1  0  0  0  0
  4  7  1  0  0  0  0
  5  7  2  0  0  0  0
  8  2  1  0  0  0  0
  9  4  2  0  0  0  0
 11 18  1  6  0  0  0
 12 11  1  0  0  0  0
 13 10  1  1  0  0  0
 13  9  1  0  0  0  0
 14  9  1  0  0  0  0
 14  3  2  0  0  0  0
 15 13  1  0  0  0  0
 15 12  1  1  0  0  0
 16 17  1  0  0  0  0
 18 17  2  0  0  0  0
 19 18  1  0  0  0  0
 20 16  2  0  0  0  0
 21 19  2  0  0  0  0
 21 20  1  0  0  0  0
 23 25  1  0  0  0  0
 24 20  1  1  0  0  0
 24 23  1  0  0  0  0
 24 25  1  0  0  0  0
 25 22  1  1  0  0  0
 26 27  1  6  0  0  0
 28 29  1  6  0  0  0
 28 30  1  0  0  0  0
 28 26  1  0  0  0  0
 30 31  2  0  0  0  0
 31 32  1  0  0  0  0
 33 34  1  0  0  0  0
 33 32  1  0  0  0  0
 35 36  1  0  0  0  0
 35 34  1  0  0  0  0
 37 36  1  0  0  0  0
 38 14  1  0  0  0  0
 39 38  1  0  0  0  0
 40 39  1  0  0  0  0
 41 44  1  0  0  0  0
 42 41  2  0  0  0  0
 43 41  1  0  0  0  0
 44 40  1  0  0  0  0
M  END
>  <MODEL>
5

>  <REMARK>
 VINA RESULT:      -6.8      1.544      1.950
  Name = 
  14 active torsions:
  status: ('A' for Active; 'I' for Inactive)
    1  A    between atoms: C_2  and  C_31
    2  A    between atoms: C_4  and  O_27
    3  A    between atoms: C_4  and  C_36
    4  A    between atoms: C_8  and  C_23
    5  A    between atoms: C_8  and  N_42
    6  A    between atoms: C_11  and  C_34
    7  A    between atoms: C_11  and  C_38
    8  A    between atoms: C_12  and  C_13
    9  A    between atoms: C_12  and  C_31
   10  A    between atoms: C_23  and  C_41
   11  A    between atoms: C_24  and  C_26
   12  A    between atoms: N_29  and  N_42
   13  A    between atoms: C_30  and  C_33
   14  A    between atoms: C_34  and  C_36
                            x       y       z     vdW  Elec       q    Type
                         _______ _______ _______ _____ _____    ______ ____

>  <TORSDO>
F 14

$$$$
=
 OpenBabel11042417013D

 44 48  0  0  1  0  0  0  0  0999 V2000
  190.8110  176.3960  145.9460 C   0  0  2  0  0  3  0  0  0  0  0  0
  188.3510  176.5440  145.8710 C   0  0  0  0  0  0  0  0  0  0  0  0
  188.2040  174.4750  140.6380 N   0  0  0  0  0  0  0  0  0  0  0  0
  189.5840  173.5870  142.8360 C   0  0  0  0  0  0  0  0  0  0  0  0
  188.5240  173.1620  140.7640 C   0  0  0  0  0  3  0  0  0  0  0  0
  187.0690  176.8340  146.5640 C   0  0  0  0  0  1  0  0  0  0  0  0
  189.2120  172.7290  141.8500 N   0  0  0  0  0  0  0  0  0  0  0  0
  189.5520  176.6010  146.5880 O   0  0  0  0  0  0  0  0  0  0  0  0
  189.2610  174.9570  142.7300 C   0  0  0  0  0  0  0  0  0  0  0  0
  188.3390  176.1960  144.6180 N   0  0  0  0  0  0  0  0  0  0  0  0
  190.4050  173.0540  143.9870 C   0  0  2  0  0  3  0  0  0  0  0  0
  190.4080  173.9860  145.2010 C   0  0  0  0  0  2  0  0  0  0  0  0
  189.5620  175.9200  143.8550 C   0  0  1  0  0  3  0  0  0  0  0  0
  188.5590  175.3800  141.5870 C   0  0  0  0  0  0  0  0  0  0  0  0
  190.6940  175.4230  144.7650 C   0  0  1  0  0  3  0  0  0  0  0  0
  193.7970  171.3720  143.9140 C   0  0  0  0  0  3  0  0  0  0  0  0
  192.4850  171.6970  144.2620 C   0  0  0  0  0  3  0  0  0  0  0  0
  191.8020  172.6990  143.5680 C   0  0  0  0  0  0  0  0  0  0  0  0
  192.4460  173.3820  142.5240 C   0  0  0  0  0  3  0  0  0  0  0  0
  194.4350  172.0350  142.8550 C   0  0  0  0  0  0  0  0  0  0  0  0
  193.7600  173.0580  142.1760 C   0  0  0  0  0  3  0  0  0  0  0  0
  194.9710  170.0240  141.0900 O   0  0  0  0  0  1  0  0  0  0  0  0
  196.2890  170.3730  143.0360 C   0  0  0  0  0  2  0  0  0  0  0  0
  195.8840  171.7580  142.5540 C   0  0  1  0  0  3  0  0  0  0  0  0
  196.1460  170.6250  141.5500 C   0  0  2  0  0  3  0  0  0  0  0  0
  191.9770  176.1840  146.9370 C   0  0  2  0  0  3  0  0  0  0  0  0
  191.6220  176.5680  148.3630 C   0  0  0  0  0  1  0  0  0  0  0  0
  193.3520  176.7350  146.5410 C   0  0  2  0  0  3  0  0  0  0  0  0
  193.3290  177.3460  145.2860 O   0  0  0  0  0  1  0  0  0  0  0  0
  194.3990  175.6720  146.5870 C   0  0  0  0  0  3  0  0  0  0  0  0
  194.8460  175.1200  145.4630 C   0  0  0  0  0  3  0  0  0  0  0  0
  195.8890  174.0540  145.5180 C   0  0  0  0  0  2  0  0  0  0  0  0
  197.0430  174.4020  144.5960 C   0  0  0  0  0  2  0  0  0  0  0  0
  196.7320  175.6710  143.8230 C   0  0  0  0  0  2  0  0  0  0  0  0
  197.7450  175.8750  142.7130 C   0  0  0  0  0  2  0  0  0  0  0  0
  197.7490  174.7670  141.8630 O   0  0  0  0  0  0  0  0  0  0  0  0
  196.9400  175.1440  140.7920 C   0  0  0  0  0  1  0  0  0  0  0  0
  188.1870  176.8180  141.3950 C   0  0  0  0  0  2  0  0  0  0  0  0
  186.7020  176.9600  141.0870 C   0  0  0  0  0  2  0  0  0  0  0  0
  185.9240  176.9100  142.3190 N   0  0  0  0  0  2  0  0  0  0  0  0
  185.1170  178.9310  143.5010 C   0  0  0  0  0  0  0  0  0  0  0  0
  183.8810  178.5920  143.3280 N   0  0  0  0  0  2  0  0  0  0  0  0
  185.4420  180.1620  144.2650 C   0  0  0  0  0  1  0  0  0  0  0  0
  186.1760  178.0920  143.0320 N   0  0  0  0  0  2  0  0  0  0  0  0
  1  8  1  0  0  0  0
  1 26  1  1  0  0  0
  2  6  1  0  0  0  0
  2  8  1  0  0  0  0
  3  5  2  0  0  0  0
  3 14  1  0  0  0  0
  4 11  1  0  0  0  0
  5  7  1  0  0  0  0
  7  4  2  0  0  0  0
  9  4  1  0  0  0  0
 10  2  2  0  0  0  0
 11 18  1  6  0  0  0
 11 12  1  0  0  0  0
 13  9  1  6  0  0  0
 13 10  1  0  0  0  0
 13 15  1  0  0  0  0
 14  9  2  0  0  0  0
 15 12  1  1  0  0  0
 15  1  1  0  0  0  0
 16 17  1  0  0  0  0
 18 17  2  0  0  0  0
 19 18  1  0  0  0  0
 20 16  2  0  0  0  0
 21 19  2  0  0  0  0
 21 20  1  0  0  0  0
 24 20  1  1  0  0  0
 24 23  1  0  0  0  0
 25 22  1  1  0  0  0
 25 24  1  0  0  0  0
 25 23  1  0  0  0  0
 26 27  1  1  0  0  0
 28 29  1  6  0  0  0
 28 30  1  0  0  0  0
 28 26  1  0  0  0  0
 31 32  1  0  0  0  0
 31 30  2  0  0  0  0
 33 32  1  0  0  0  0
 34 33  1  0  0  0  0
 35 34  1  0  0  0  0
 36 35  1  0  0  0  0
 37 36  1  0  0  0  0
 38 14  1  0  0  0  0
 39 38  1  0  0  0  0
 39 40  1  0  0  0  0
 40 44  1  0  0  0  0
 41 43  1  0  0  0  0
 42 41  2  0  0  0  0
 44 41  1  0  0  0  0
M  END
>  <MODEL>
6

>  <REMARK>
 VINA RESULT:      -6.6      3.482      9.448
  Name = 
  14 active torsions:
  status: ('A' for Active; 'I' for Inactive)
    1  A    between atoms: C_2  and  C_31
    2  A    between atoms: C_4  and  O_27
    3  A    between atoms: C_4  and  C_36
    4  A    between atoms: C_8  and  C_23
    5  A    between atoms: C_8  and  N_42
    6  A    between atoms: C_11  and  C_34
    7  A    between atoms: C_11  and  C_38
    8  A    between atoms: C_12  and  C_13
    9  A    between atoms: C_12  and  C_31
   10  A    between atoms: C_23  and  C_41
   11  A    between atoms: C_24  and  C_26
   12  A    between atoms: N_29  and  N_42
   13  A    between atoms: C_30  and  C_33
   14  A    between atoms: C_34  and  C_36
                            x       y       z     vdW  Elec       q    Type
                         _______ _______ _______ _____ _____    ______ ____

>  <TORSDO>
F 14

$$$$
=
 OpenBabel11042417013D

 44 48  0  0  1  0  0  0  0  0999 V2000
  190.6110  173.5070  143.2840 C   0  0  2  0  0  3  0  0  0  0  0  0
  192.5310  172.4940  144.4500 C   0  0  0  0  0  0  0  0  0  0  0  0
  193.3390  177.1330  147.5340 N   0  0  0  0  0  0  0  0  0  0  0  0
  191.0230  175.7660  146.9980 C   0  0  0  0  0  0  0  0  0  0  0  0
  192.3060  177.1630  148.4130 C   0  0  0  0  0  3  0  0  0  0  0  0
  193.3910  171.3080  144.7000 C   0  0  0  0  0  1  0  0  0  0  0  0
  191.1600  176.4900  148.1400 N   0  0  0  0  0  0  0  0  0  0  0  0
  191.4230  172.3770  143.6050 O   0  0  0  0  0  0  0  0  0  0  0  0
  192.0850  175.7180  146.0690 C   0  0  0  0  0  0  0  0  0  0  0  0
  192.7930  173.6150  145.0560 N   0  0  0  0  0  0  0  0  0  0  0  0
  189.6980  175.0940  146.7220 C   0  0  2  0  0  3  0  0  0  0  0  0
  189.7940  174.0030  145.6530 C   0  0  0  0  0  2  0  0  0  0  0  0
  192.0100  174.8370  144.8430 C   0  0  1  0  0  3  0  0  0  0  0  0
  193.2560  176.4360  146.3710 C   0  0  0  0  0  0  0  0  0  0  0  0
  190.5640  174.5180  144.4380 C   0  0  1  0  0  3  0  0  0  0  0  0
  187.8920  178.0250  145.1440 C   0  0  0  0  0  3  0  0  0  0  0  0
  188.8680  177.0710  145.4390 C   0  0  0  0  0  3  0  0  0  0  0  0
  188.6180  176.0840  146.3970 C   0  0  0  0  0  0  0  0  0  0  0  0
  187.3850  176.0630  147.0660 C   0  0  0  0  0  3  0  0  0  0  0  0
  186.6490  177.9920  145.7930 C   0  0  0  0  0  0  0  0  0  0  0  0
  186.4080  177.0190  146.7720 C   0  0  0  0  0  3  0  0  0  0  0  0
  184.7150  177.5050  143.9300 O   0  0  0  0  0  1  0  0  0  0  0  0
  185.7550  179.6320  144.1370 C   0  0  0  0  0  2  0  0  0  0  0  0
  185.6420  179.0840  145.5520 C   0  0  1  0  0  3  0  0  0  0  0  0
  184.5650  178.7710  144.5020 C   0  0  2  0  0  3  0  0  0  0  0  0
  189.2740  173.1300  142.6070 C   0  0  2  0  0  3  0  0  0  0  0  0
  188.9990  171.6350  142.6270 C   0  0  0  0  0  1  0  0  0  0  0  0
  188.9860  173.7270  141.2250 C   0  0  2  0  0  3  0  0  0  0  0  0
  190.0240  173.4850  140.3240 O   0  0  0  0  0  1  0  0  0  0  0  0
  188.7000  175.1900  141.3130 C   0  0  0  0  0  3  0  0  0  0  0  0
  187.6620  175.6300  142.0190 C   0  0  0  0  0  3  0  0  0  0  0  0
  187.3780  177.0920  142.0960 C   0  0  0  0  0  2  0  0  0  0  0  0
  187.3400  177.6930  140.7020 C   0  0  0  0  0  2  0  0  0  0  0  0
  185.9960  177.4220  140.0510 C   0  0  0  0  0  2  0  0  0  0  0  0
  184.9100  178.2410  140.7210 C   0  0  0  0  0  2  0  0  0  0  0  0
  183.6810  177.9960  140.1060 O   0  0  0  0  0  0  0  0  0  0  0  0
  182.7350  178.2550  141.0980 C   0  0  0  0  0  1  0  0  0  0  0  0
  194.4230  176.4420  145.4340 C   0  0  0  0  0  2  0  0  0  0  0  0
  193.9880  176.8120  144.0220 C   0  0  0  0  0  2  0  0  0  0  0  0
  195.0050  176.4100  143.0590 N   0  0  0  0  0  2  0  0  0  0  0  0
  196.7010  174.6270  143.3390 C   0  0  0  0  0  0  0  0  0  0  0  0
  197.6720  175.4620  143.1570 N   0  0  0  0  0  2  0  0  0  0  0  0
  197.0010  173.2050  143.6450 C   0  0  0  0  0  1  0  0  0  0  0  0
  195.3420  175.0740  143.3260 N   0  0  0  0  0  2  0  0  0  0  0  0
  1 26  1  1  0  0  0
  1  8  1  0  0  0  0
  1 15  1  0  0  0  0
  2  6  1  0  0  0  0
  2 10  2  0  0  0  0
  3  5  1  0  0  0  0
  4  7  1  0  0  0  0
  7  5  2  0  0  0  0
  8  2  1  0  0  0  0
  9 14  1  0  0  0  0
  9  4  2  0  0  0  0
 11 18  1  6  0  0  0
 11  4  1  0  0  0  0
 12 11  1  0  0  0  0
 13 10  1  1  0  0  0
 13  9  1  0  0  0  0
 14  3  2  0  0  0  0
 15 13  1  0  0  0  0
 15 12  1  1  0  0  0
 16 17  2  0  0  0  0
 16 20  1  0  0  0  0
 17 18  1  0  0  0  0
 18 19  2  0  0  0  0
 20 21  2  0  0  0  0
 21 19  1  0  0  0  0
 23 25  1  0  0  0  0
 23 24  1  0  0  0  0
 24 20  1  6  0  0  0
 25 22  1  6  0  0  0
 25 24  1  0  0  0  0
 26 27  1  6  0  0  0
 28 29  1  6  0  0  0
 28 30  1  0  0  0  0
 28 26  1  0  0  0  0
 30 31  2  0  0  0  0
 31 32  1  0  0  0  0
 33 32  1  0  0  0  0
 34 33  1  0  0  0  0
 34 35  1  0  0  0  0
 36 35  1  0  0  0  0
 36 37  1  0  0  0  0
 38 14  1  0  0  0  0
 39 38  1  0  0  0  0
 40 44  1  0  0  0  0
 40 39  1  0  0  0  0
 41 43  1  0  0  0  0
 42 41  2  0  0  0  0
 44 41  1  0  0  0  0
M  END
>  <MODEL>
7

>  <REMARK>
 VINA RESULT:      -6.5      1.637      2.217
  Name = 
  14 active torsions:
  status: ('A' for Active; 'I' for Inactive)
    1  A    between atoms: C_2  and  C_31
    2  A    between atoms: C_4  and  O_27
    3  A    between atoms: C_4  and  C_36
    4  A    between atoms: C_8  and  C_23
    5  A    between atoms: C_8  and  N_42
    6  A    between atoms: C_11  and  C_34
    7  A    between atoms: C_11  and  C_38
    8  A    between atoms: C_12  and  C_13
    9  A    between atoms: C_12  and  C_31
   10  A    between atoms: C_23  and  C_41
   11  A    between atoms: C_24  and  C_26
   12  A    between atoms: N_29  and  N_42
   13  A    between atoms: C_30  and  C_33
   14  A    between atoms: C_34  and  C_36
                            x       y       z     vdW  Elec       q    Type
                         _______ _______ _______ _____ _____    ______ ____

>  <TORSDO>
F 14

$$$$
=
 OpenBabel11042417013D

 44 48  0  0  1  0  0  0  0  0999 V2000
  192.3850  176.2340  145.2500 C   0  0  2  0  0  3  0  0  0  0  0  0
  190.1000  176.8730  145.9180 C   0  0  0  0  0  0  0  0  0  0  0  0
  187.8430  173.9480  141.6720 N   0  0  0  0  0  0  0  0  0  0  0  0
  189.7800  173.2150  143.4710 C   0  0  0  0  0  0  0  0  0  0  0  0
  188.0100  172.6440  142.0080 C   0  0  0  0  0  3  0  0  0  0  0  0
  189.1950  177.5470  146.8860 C   0  0  0  0  0  1  0  0  0  0  0  0
  188.9740  172.2860  142.8940 N   0  0  0  0  0  0  0  0  0  0  0  0
  191.4720  176.8110  146.1840 O   0  0  0  0  0  0  0  0  0  0  0  0
  189.6240  174.5790  143.1400 C   0  0  0  0  0  0  0  0  0  0  0  0
  189.6000  176.3100  144.8580 N   0  0  0  0  0  0  0  0  0  0  0  0
  190.8760  172.7460  144.3990 C   0  0  2  0  0  3  0  0  0  0  0  0
  191.4290  173.8650  145.2830 C   0  0  0  0  0  2  0  0  0  0  0  0
  190.4270  175.6490  143.8410 C   0  0  1  0  0  3  0  0  0  0  0  0
  188.6270  174.9190  142.2080 C   0  0  0  0  0  0  0  0  0  0  0  0
  191.7310  175.1050  144.4420 C   0  0  1  0  0  3  0  0  0  0  0  0
  193.6350  170.2760  143.6090 C   0  0  0  0  0  3  0  0  0  0  0  0
  192.5880  170.9310  144.2580 C   0  0  0  0  0  3  0  0  0  0  0  0
  191.9750  172.0370  143.6620 C   0  0  0  0  0  0  0  0  0  0  0  0
  192.4230  172.4880  142.4110 C   0  0  0  0  0  3  0  0  0  0  0  0
  194.0700  170.7090  142.3470 C   0  0  0  0  0  0  0  0  0  0  0  0
  193.4730  171.8330  141.7610 C   0  0  0  0  0  3  0  0  0  0  0  0
  193.6120  168.5160  140.7880 O   0  0  0  0  0  1  0  0  0  0  0  0
  195.4930  168.6610  142.2330 C   0  0  0  0  0  2  0  0  0  0  0  0
  195.2680  170.0690  141.7000 C   0  0  1  0  0  3  0  0  0  0  0  0
  194.9710  168.8420  140.8240 C   0  0  2  0  0  3  0  0  0  0  0  0
  193.7870  175.9710  145.8440 C   0  0  2  0  0  3  0  0  0  0  0  0
  194.1910  176.9970  146.8890 C   0  0  0  0  0  1  0  0  0  0  0  0
  194.9320  175.7000  144.8620 C   0  0  2  0  0  3  0  0  0  0  0  0
  194.7260  176.3260  143.6320 O   0  0  0  0  0  1  0  0  0  0  0  0
  195.1550  174.2360  144.6750 C   0  0  0  0  0  3  0  0  0  0  0  0
  196.3890  173.7540  144.5540 C   0  0  0  0  0  3  0  0  0  0  0  0
  196.6020  172.2900  144.3600 C   0  0  0  0  0  2  0  0  0  0  0  0
  196.3890  171.5530  145.6690 C   0  0  0  0  0  2  0  0  0  0  0  0
  197.1590  170.2440  145.6660 C   0  0  0  0  0  2  0  0  0  0  0  0
  196.2470  169.0940  146.0420 C   0  0  0  0  0  2  0  0  0  0  0  0
  195.6680  169.3330  147.2900 O   0  0  0  0  0  0  0  0  0  0  0  0
  194.5630  168.4830  147.3330 C   0  0  0  0  0  1  0  0  0  0  0  0
  188.4050  176.3420  141.7980 C   0  0  0  0  0  2  0  0  0  0  0  0
  186.9780  176.5520  141.3080 C   0  0  0  0  0  2  0  0  0  0  0  0
  186.2890  177.5140  142.1590 N   0  0  0  0  0  2  0  0  0  0  0  0
  185.9860  177.5280  144.6170 C   0  0  0  0  0  0  0  0  0  0  0  0
  186.2890  178.7820  144.6910 N   0  0  0  0  0  2  0  0  0  0  0  0
  185.5970  176.7910  145.8460 C   0  0  0  0  0  1  0  0  0  0  0  0
  185.9460  176.8600  143.3530 N   0  0  0  0  0  2  0  0  0  0  0  0
  1 26  1  1  0  0  0
  1  8  1  0  0  0  0
  2  8  1  0  0  0  0
  2  6  1  0  0  0  0
  3  5  2  0  0  0  0
  3 14  1  0  0  0  0
  4 11  1  0  0  0  0
  5  7  1  0  0  0  0
  7  4  2  0  0  0  0
  9  4  1  0  0  0  0
 10  2  2  0  0  0  0
 11 18  1  6  0  0  0
 11 12  1  0  0  0  0
 13  9  1  1  0  0  0
 13 15  1  0  0  0  0
 13 10  1  0  0  0  0
 14  9  2  0  0  0  0
 15  1  1  0  0  0  0
 15 12  1  1  0  0  0
 16 17  1  0  0  0  0
 18 17  2  0  0  0  0
 19 18  1  0  0  0  0
 20 16  2  0  0  0  0
 21 20  1  0  0  0  0
 21 19  2  0  0  0  0
 24 23  1  0  0  0  0
 24 20  1  1  0  0  0
 25 22  1  1  0  0  0
 25 24  1  0  0  0  0
 25 23  1  0  0  0  0
 26 27  1  6  0  0  0
 28 29  1  6  0  0  0
 28 26  1  0  0  0  0
 30 28  1  0  0  0  0
 31 30  2  0  0  0  0
 32 31  1  0  0  0  0
 32 33  1  0  0  0  0
 34 33  1  0  0  0  0
 34 35  1  0  0  0  0
 35 36  1  0  0  0  0
 36 37  1  0  0  0  0
 38 14  1  0  0  0  0
 39 38  1  0  0  0  0
 39 40  1  0  0  0  0
 40 44  1  0  0  0  0
 41 42  2  0  0  0  0
 41 43  1  0  0  0  0
 44 41  1  0  0  0  0
M  END
>  <MODEL>
8

>  <REMARK>
 VINA RESULT:      -6.3      3.563      9.682
  Name = 
  14 active torsions:
  status: ('A' for Active; 'I' for Inactive)
    1  A    between atoms: C_2  and  C_31
    2  A    between atoms: C_4  and  O_27
    3  A    between atoms: C_4  and  C_36
    4  A    between atoms: C_8  and  C_23
    5  A    between atoms: C_8  and  N_42
    6  A    between atoms: C_11  and  C_34
    7  A    between atoms: C_11  and  C_38
    8  A    between atoms: C_12  and  C_13
    9  A    between atoms: C_12  and  C_31
   10  A    between atoms: C_23  and  C_41
   11  A    between atoms: C_24  and  C_26
   12  A    between atoms: N_29  and  N_42
   13  A    between atoms: C_30  and  C_33
   14  A    between atoms: C_34  and  C_36
                            x       y       z     vdW  Elec       q    Type
                         _______ _______ _______ _____ _____    ______ ____

>  <TORSDO>
F 14

$$$$
=
 OpenBabel11042417013D

 44 48  0  0  1  0  0  0  0  0999 V2000
  190.4620  174.3660  142.1420 C   0  0  2  0  0  3  0  0  0  0  0  0
  192.3640  173.0600  143.0090 C   0  0  0  0  0  0  0  0  0  0  0  0
  193.2680  176.7780  147.1380 N   0  0  0  0  0  0  0  0  0  0  0  0
  190.9230  175.6290  146.2960 C   0  0  0  0  0  0  0  0  0  0  0  0
  192.2370  176.6080  148.0040 C   0  0  0  0  0  3  0  0  0  0  0  0
  193.2010  171.8330  142.9530 C   0  0  0  0  0  1  0  0  0  0  0  0
  191.0760  176.0450  147.5800 N   0  0  0  0  0  0  0  0  0  0  0  0
  191.2520  173.1770  142.1680 O   0  0  0  0  0  0  0  0  0  0  0  0
  191.9830  175.7920  145.3770 C   0  0  0  0  0  0  0  0  0  0  0  0
  192.6480  173.9920  143.8720 N   0  0  0  0  0  0  0  0  0  0  0  0
  189.5860  175.0700  145.8710 C   0  0  2  0  0  3  0  0  0  0  0  0
  189.6580  174.2760  144.5640 C   0  0  0  0  0  2  0  0  0  0  0  0
  191.8890  175.2430  143.9720 C   0  0  1  0  0  3  0  0  0  0  0  0
  193.1680  176.3910  145.8400 C   0  0  0  0  0  0  0  0  0  0  0  0
  190.4370  175.0610  143.5100 C   0  0  1  0  0  3  0  0  0  0  0  0
  186.4500  177.0410  146.6600 C   0  0  0  0  0  3  0  0  0  0  0  0
  187.4670  176.0870  146.7200 C   0  0  0  0  0  3  0  0  0  0  0  0
  188.5250  176.1300  145.8080 C   0  0  0  0  0  0  0  0  0  0  0  0
  188.5550  177.1340  144.8270 C   0  0  0  0  0  3  0  0  0  0  0  0
  186.4890  178.0600  145.6970 C   0  0  0  0  0  0  0  0  0  0  0  0
  187.5360  178.0890  144.7660 C   0  0  0  0  0  3  0  0  0  0  0  0
  184.7300  177.6180  143.6570 O   0  0  0  0  0  1  0  0  0  0  0  0
  185.4240  179.8070  144.2670 C   0  0  0  0  0  2  0  0  0  0  0  0
  185.3380  179.0210  145.5670 C   0  0  1  0  0  3  0  0  0  0  0  0
  184.3650  178.7360  144.4130 C   0  0  2  0  0  3  0  0  0  0  0  0
  189.1170  174.1920  141.4010 C   0  0  2  0  0  3  0  0  0  0  0  0
  189.2850  173.7220  139.9660 C   0  0  0  0  0  1  0  0  0  0  0  0
  188.1050  175.3390  141.4930 C   0  0  2  0  0  3  0  0  0  0  0  0
  187.0850  175.0660  142.4050 O   0  0  0  0  0  1  0  0  0  0  0  0
  187.5340  175.6720  140.1530 C   0  0  0  0  0  3  0  0  0  0  0  0
  186.8930  176.8210  139.9630 C   0  0  0  0  0  3  0  0  0  0  0  0
  186.3200  177.1430  138.6240 C   0  0  0  0  0  2  0  0  0  0  0  0
  186.6760  176.0550  137.6270 C   0  0  0  0  0  2  0  0  0  0  0  0
  187.1870  176.6730  136.3380 C   0  0  0  0  0  2  0  0  0  0  0  0
  188.1190  175.7110  135.6250 C   0  0  0  0  0  2  0  0  0  0  0  0
  188.5570  174.7270  136.5140 O   0  0  0  0  0  0  0  0  0  0  0  0
  189.8440  174.4090  136.0780 C   0  0  0  0  0  1  0  0  0  0  0  0
  194.3350  176.6070  144.9260 C   0  0  0  0  0  2  0  0  0  0  0  0
  195.4280  175.5790  145.1850 C   0  0  0  0  0  2  0  0  0  0  0  0
  196.4330  175.6360  144.1310 N   0  0  0  0  0  2  0  0  0  0  0  0
  195.7390  174.5960  141.9930 C   0  0  0  0  0  0  0  0  0  0  0  0
  196.3000  173.4740  142.3060 N   0  0  0  0  0  2  0  0  0  0  0  0
  194.9970  174.7160  140.7130 C   0  0  0  0  0  1  0  0  0  0  0  0
  195.7600  175.7010  142.9010 N   0  0  0  0  0  2  0  0  0  0  0  0
  1 26  1  1  0  0  0
  1  8  1  0  0  0  0
  1 15  1  0  0  0  0
  2 10  2  0  0  0  0
  3  5  1  0  0  0  0
  4  7  1  0  0  0  0
  6  2  1  0  0  0  0
  7  5  2  0  0  0  0
  8  2  1  0  0  0  0
  9 14  1  0  0  0  0
  9  4  2  0  0  0  0
 11 18  1  6  0  0  0
 11  4  1  0  0  0  0
 12 11  1  0  0  0  0
 13 10  1  1  0  0  0
 13  9  1  0  0  0  0
 14  3  2  0  0  0  0
 15 13  1  0  0  0  0
 15 12  1  1  0  0  0
 16 17  1  0  0  0  0
 18 17  2  0  0  0  0
 19 18  1  0  0  0  0
 20 16  2  0  0  0  0
 21 19  2  0  0  0  0
 21 20  1  0  0  0  0
 23 25  1  0  0  0  0
 23 24  1  0  0  0  0
 24 20  1  6  0  0  0
 25 22  1  6  0  0  0
 25 24  1  0  0  0  0
 26 27  1  6  0  0  0
 26 28  1  0  0  0  0
 28 29  1  1  0  0  0
 30 28  1  0  0  0  0
 31 30  2  0  0  0  0
 32 31  1  0  0  0  0
 33 32  1  0  0  0  0
 34 33  1  0  0  0  0
 35 34  1  0  0  0  0
 35 36  1  0  0  0  0
 37 36  1  0  0  0  0
 38 39  1  0  0  0  0
 38 14  1  0  0  0  0
 40 39  1  0  0  0  0
 41 42  2  0  0  0  0
 41 44  1  0  0  0  0
 43 41  1  0  0  0  0
 44 40  1  0  0  0  0
M  END
>  <MODEL>
9

>  <REMARK>
 VINA RESULT:      -6.3      2.292      3.246
  Name = 
  14 active torsions:
  status: ('A' for Active; 'I' for Inactive)
    1  A    between atoms: C_2  and  C_31
    2  A    between atoms: C_4  and  O_27
    3  A    between atoms: C_4  and  C_36
    4  A    between atoms: C_8  and  C_23
    5  A    between atoms: C_8  and  N_42
    6  A    between atoms: C_11  and  C_34
    7  A    between atoms: C_11  and  C_38
    8  A    between atoms: C_12  and  C_13
    9  A    between atoms: C_12  and  C_31
   10  A    between atoms: C_23  and  C_41
   11  A    between atoms: C_24  and  C_26
   12  A    between atoms: N_29  and  N_42
   13  A    between atoms: C_30  and  C_33
   14  A    between atoms: C_34  and  C_36
                            x       y       z     vdW  Elec       q    Type
                         _______ _______ _______ _____ _____    ______ ____

>  <TORSDO>
F 14

$$$$
