=
 OpenBabel11042418343D

 37 43  0  0  1  0  0  0  0  0999 V2000
  191.4060  175.0260  142.9950 N   0  0  0  0  0  0  0  0  0  0  0  0
  195.2520  174.5780  145.2020 C   0  0  0  0  0  3  0  0  0  0  0  0
  191.0860  173.8760  140.6390 C   0  0  1  0  0  3  0  0  0  0  0  0
  192.9200  175.0310  145.5930 N   0  0  0  0  0  2  0  0  0  0  0  0
  191.0000  176.0940  146.3080 O   0  0  0  0  0  0  0  0  0  0  0  0
  192.2300  173.4880  141.4630 N   0  0  0  0  0  2  0  0  0  0  0  0
  191.7000  175.7210  145.3280 C   0  0  0  0  0  0  0  0  0  0  0  0
  190.2480  176.9940  143.7210 C   0  0  0  0  0  0  0  0  0  0  0  0
  189.0550  173.4140  139.3390 N   0  0  0  0  0  0  0  0  0  0  0  0
  193.7270  174.2960  143.3270 C   0  0  0  0  0  0  0  0  0  0  0  0
  190.2500  172.8160  139.9550 C   0  0  2  0  0  3  0  0  0  0  0  0
  196.3250  174.1690  144.4110 C   0  0  0  0  0  0  0  0  0  0  0  0
  189.8410  173.3050  141.3200 C   0  0  2  0  0  0  0  0  0  0  0  0
  188.6120  175.7480  142.3020 C   0  0  2  0  0  3  0  0  0  0  0  0
  193.9550  174.6620  144.6770 C   0  0  0  0  0  0  0  0  0  0  0  0
  190.2970  178.1610  144.3640 C   0  0  0  0  0  2  0  0  0  0  0  0
  196.1090  173.8120  143.0820 C   0  0  0  0  0  3  0  0  0  0  0  0
  192.4040  174.2600  142.6700 C   0  0  0  0  0  0  0  0  0  0  0  0
  188.5750  173.7960  140.6700 C   0  0  1  0  0  3  0  0  0  0  0  0
  194.8210  173.8690  142.5510 C   0  0  0  0  0  3  0  0  0  0  0  0
  189.4620  176.9440  142.4100 C   0  0  1  0  0  3  0  0  0  0  0  0
  191.2570  175.9900  143.9930 N   0  0  0  0  0  0  0  0  0  0  0  0
  197.9410  174.1040  145.0850 Cl  0  0  0  0  0  0  0  0  0  0  0  0
  188.2190  172.3150  138.8840 C   0  0  0  0  0  1  0  0  0  0  0  0
  188.4630  175.3270  140.8300 C   0  0  0  0  0  2  0  0  0  0  0  0
  187.9790  177.0550  142.5270 N   0  0  0  0  0  0  0  0  0  0  0  0
  187.5700  177.0590  143.8730 N   0  0  0  0  0  2  0  0  0  0  0  0
  186.2930  178.0360  145.7390 N   0  0  0  0  0  2  0  0  0  0  0  0
  186.7090  178.0780  144.3740 C   0  0  0  0  0  0  0  0  0  0  0  0
  186.3310  179.0170  143.6200 O   0  0  0  0  0  0  0  0  0  0  0  0
  183.9710  178.4970  146.2530 C   0  0  0  0  0  2  0  0  0  0  0  0
  184.7490  178.4800  147.5530 C   0  0  0  0  0  2  0  0  0  0  0  0
  185.3880  179.0320  146.2920 C   0  0  0  0  0  3  0  0  0  0  0  0
  189.8610  172.0430  142.1980 C   0  0  0  0  0  2  0  0  0  0  0  0
  189.1340  172.2190  143.5280 C   0  0  0  0  0  2  0  0  0  0  0  0
  191.2380  171.4800  144.2180 C   0  0  0  0  0  1  0  0  0  0  0  0
  190.0870  172.2700  144.6290 N   0  0  0  0  0  2  0  0  0  0  0  0
  1 22  1  0  0  0  0
  3 13  1  0  0  0  0
  3  6  1  1  0  0  0
  6 18  1  0  0  0  0
  7  4  1  0  0  0  0
  7  5  2  0  0  0  0
  8 22  1  0  0  0  0
  8 16  2  0  0  0  0
  9 19  1  0  0  0  0
 10 15  2  0  0  0  0
 11  9  1  6  0  0  0
 11  3  1  0  0  0  0
 11 13  1  0  0  0  0
 12 23  1  0  0  0  0
 12  2  2  0  0  0  0
 13 34  1  1  0  0  0
 14 25  1  6  0  0  0
 14 21  1  0  0  0  0
 14 26  1  0  0  0  0
 15  2  1  0  0  0  0
 15  4  1  0  0  0  0
 17 12  1  0  0  0  0
 18  1  2  0  0  0  0
 18 10  1  0  0  0  0
 19 25  1  6  0  0  0
 19 13  1  0  0  0  0
 20 17  2  0  0  0  0
 20 10  1  0  0  0  0
 21 26  1  0  0  0  0
 21  8  1  1  0  0  0
 22  7  1  0  0  0  0
 24  9  1  0  0  0  0
 26 27  1  0  0  0  0
 27 29  1  0  0  0  0
 28 33  1  0  0  0  0
 29 28  1  0  0  0  0
 30 29  2  0  0  0  0
 31 33  1  0  0  0  0
 31 32  1  0  0  0  0
 33 32  1  0  0  0  0
 34 35  1  0  0  0  0
 35 37  1  0  0  0  0
 36 37  1  0  0  0  0
M  END
>  <MODEL>
1

>  <REMARK>
 VINA RESULT:      -7.4      0.000      0.000
  Name = 
  5 active torsions:
  status: ('A' for Active; 'I' for Inactive)
    1  A    between atoms: N_1  and  N_37
    2  A    between atoms: N_3  and  C_27
    3  A    between atoms: C_10  and  C_23
    4  A    between atoms: C_10  and  N_24
    5  A    between atoms: C_19  and  C_23
                            x       y       z     vdW  Elec       q    Type
                         _______ _______ _______ _____ _____    ______ ____

>  <TORSDO>
F 5

$$$$
=
 OpenBabel11042418343D

 37 43  0  0  1  0  0  0  0  0999 V2000
  191.7920  174.5140  143.1430 N   0  0  0  0  0  0  0  0  0  0  0  0
  187.9810  176.4960  144.3290 C   0  0  0  0  0  3  0  0  0  0  0  0
  193.7230  175.9180  142.0120 C   0  0  1  0  0  3  0  0  0  0  0  0
  189.3330  174.5800  144.8710 N   0  0  0  0  0  2  0  0  0  0  0  0
  189.9520  172.3850  145.2310 O   0  0  0  0  0  0  0  0  0  0  0  0
  192.6120  176.6280  142.6430 N   0  0  0  0  0  2  0  0  0  0  0  0
  190.0870  173.4200  144.5240 C   0  0  0  0  0  0  0  0  0  0  0  0
  191.4520  172.1630  142.8290 C   0  0  0  0  0  0  0  0  0  0  0  0
  196.1010  175.4060  141.6820 N   0  0  0  0  0  0  0  0  0  0  0  0
  190.1980  176.3720  143.3330 C   0  0  0  0  0  0  0  0  0  0  0  0
  195.1470  176.3660  142.2590 C   0  0  2  0  0  3  0  0  0  0  0  0
  187.7560  177.7270  143.7110 C   0  0  0  0  0  0  0  0  0  0  0  0
  194.5490  175.3020  143.1420 C   0  0  2  0  0  0  0  0  0  0  0  0
  193.9290  172.4880  142.7720 C   0  0  2  0  0  3  0  0  0  0  0  0
  189.1830  175.8000  144.1410 C   0  0  0  0  0  0  0  0  0  0  0  0
  190.5920  171.1600  142.6560 C   0  0  0  0  0  2  0  0  0  0  0  0
  188.7470  178.2920  142.9140 C   0  0  0  0  0  3  0  0  0  0  0  0
  191.5380  175.7880  143.1160 C   0  0  0  0  0  0  0  0  0  0  0  0
  195.6190  174.3840  142.6150 C   0  0  1  0  0  3  0  0  0  0  0  0
  189.9570  177.6230  142.7340 C   0  0  0  0  0  3  0  0  0  0  0  0
  192.7300  172.1500  141.9890 C   0  0  1  0  0  3  0  0  0  0  0  0
  190.9850  173.4080  143.4080 N   0  0  0  0  0  0  0  0  0  0  0  0
  186.2310  178.5600  143.9390 Cl  0  0  0  0  0  0  0  0  0  0  0  0
  197.4250  175.8020  142.1320 C   0  0  0  0  0  1  0  0  0  0  0  0
  194.9700  173.1890  141.8830 C   0  0  0  0  0  2  0  0  0  0  0  0
  193.7320  171.0990  142.3330 N   0  0  0  0  0  0  0  0  0  0  0  0
  193.3500  170.3810  143.4800 N   0  0  0  0  0  2  0  0  0  0  0  0
  193.8840  168.9270  145.3940 N   0  0  0  0  0  2  0  0  0  0  0  0
  194.3020  169.6230  144.2210 C   0  0  0  0  0  0  0  0  0  0  0  0
  195.5010  169.5550  143.8320 O   0  0  0  0  0  0  0  0  0  0  0  0
  195.4830  169.0910  147.2070 C   0  0  0  0  0  2  0  0  0  0  0  0
  194.3570  168.1790  147.6500 C   0  0  0  0  0  2  0  0  0  0  0  0
  194.8220  168.1670  146.2060 C   0  0  0  0  0  3  0  0  0  0  0  0
  194.6220  175.8980  144.5570 C   0  0  0  0  0  2  0  0  0  0  0  0
  194.4930  174.8530  145.6620 C   0  0  0  0  0  2  0  0  0  0  0  0
  192.9040  176.3200  146.5420 C   0  0  0  0  0  1  0  0  0  0  0  0
  193.1710  174.9150  146.2730 N   0  0  0  0  0  2  0  0  0  0  0  0
  1 22  1  0  0  0  0
  3 11  1  0  0  0  0
  3  6  1  1  0  0  0
  3 13  1  0  0  0  0
  6 18  1  0  0  0  0
  7  4  1  0  0  0  0
  7  5  2  0  0  0  0
  8 22  1  0  0  0  0
  9 24  1  0  0  0  0
  9 19  1  0  0  0  0
 10 15  2  0  0  0  0
 11  9  1  6  0  0  0
 11 13  1  0  0  0  0
 12 23  1  0  0  0  0
 12  2  2  0  0  0  0
 13 34  1  1  0  0  0
 14 25  1  6  0  0  0
 15  2  1  0  0  0  0
 15  4  1  0  0  0  0
 16  8  2  0  0  0  0
 17 12  1  0  0  0  0
 18  1  2  0  0  0  0
 18 10  1  0  0  0  0
 19 25  1  6  0  0  0
 19 13  1  0  0  0  0
 20 17  2  0  0  0  0
 20 10  1  0  0  0  0
 21 26  1  0  0  0  0
 21 14  1  0  0  0  0
 21  8  1  1  0  0  0
 22  7  1  0  0  0  0
 26 14  1  0  0  0  0
 26 27  1  0  0  0  0
 27 29  1  0  0  0  0
 28 33  1  0  0  0  0
 29 28  1  0  0  0  0
 30 29  2  0  0  0  0
 31 32  1  0  0  0  0
 33 31  1  0  0  0  0
 33 32  1  0  0  0  0
 34 35  1  0  0  0  0
 35 37  1  0  0  0  0
 37 36  1  0  0  0  0
M  END
>  <MODEL>
2

>  <REMARK>
 VINA RESULT:      -6.7      3.637      8.005
  Name = 
  5 active torsions:
  status: ('A' for Active; 'I' for Inactive)
    1  A    between atoms: N_1  and  N_37
    2  A    between atoms: N_3  and  C_27
    3  A    between atoms: C_10  and  C_23
    4  A    between atoms: C_10  and  N_24
    5  A    between atoms: C_19  and  C_23
                            x       y       z     vdW  Elec       q    Type
                         _______ _______ _______ _____ _____    ______ ____

>  <TORSDO>
F 5

$$$$
=
 OpenBabel11042418343D

 37 43  0  0  1  0  0  0  0  0999 V2000
  190.3140  174.6920  143.7750 N   0  0  0  0  0  0  0  0  0  0  0  0
  187.6670  178.2740  143.6210 C   0  0  0  0  0  3  0  0  0  0  0  0
  189.5100  172.4010  142.7350 C   0  0  1  0  0  3  0  0  0  0  0  0
  189.9930  177.6820  143.7930 N   0  0  0  0  0  2  0  0  0  0  0  0
  192.1540  177.5590  144.5980 O   0  0  0  0  0  0  0  0  0  0  0  0
  188.7590  173.6170  142.4280 N   0  0  0  0  0  2  0  0  0  0  0  0
  191.0770  176.9480  144.3600 C   0  0  0  0  0  0  0  0  0  0  0  0
  191.9000  174.8980  145.5590 C   0  0  0  0  0  0  0  0  0  0  0  0
  190.7670  170.3810  142.1300 N   0  0  0  0  0  0  0  0  0  0  0  0
  188.2550  175.9370  143.2840 C   0  0  0  0  0  0  0  0  0  0  0  0
  189.8590  171.4260  141.6320 C   0  0  2  0  0  3  0  0  0  0  0  0
  186.3240  177.9870  143.3790 C   0  0  0  0  0  0  0  0  0  0  0  0
  190.8430  172.5090  141.9930 C   0  0  2  0  0  0  0  0  0  0  0  0
  192.6550  172.9240  144.2260 C   0  0  2  0  0  3  0  0  0  0  0  0
  188.6410  177.2660  143.5940 C   0  0  0  0  0  0  0  0  0  0  0  0
  192.2600  175.5150  146.6840 C   0  0  0  0  0  2  0  0  0  0  0  0
  185.9380  176.6830  143.0780 C   0  0  0  0  0  3  0  0  0  0  0  0
  189.1840  174.7970  143.1420 C   0  0  0  0  0  0  0  0  0  0  0  0
  191.7870  171.4030  142.3800 C   0  0  1  0  0  3  0  0  0  0  0  0
  186.8970  175.6720  143.0250 C   0  0  0  0  0  3  0  0  0  0  0  0
  192.0760  173.3790  145.5000 C   0  0  1  0  0  3  0  0  0  0  0  0
  190.9720  175.5500  144.6570 N   0  0  0  0  0  0  0  0  0  0  0  0
  185.1240  179.2620  143.4510 Cl  0  0  0  0  0  0  0  0  0  0  0  0
  191.2050  169.6140  140.9760 C   0  0  0  0  0  1  0  0  0  0  0  0
  192.1420  171.5160  143.8780 C   0  0  0  0  0  2  0  0  0  0  0  0
  193.4810  172.8820  145.4410 N   0  0  0  0  0  0  0  0  0  0  0  0
  194.3960  173.9430  145.3220 N   0  0  0  0  0  2  0  0  0  0  0  0
  196.5140  174.8840  144.4870 N   0  0  0  0  0  2  0  0  0  0  0  0
  195.6200  173.7780  144.6090 C   0  0  0  0  0  0  0  0  0  0  0  0
  195.9150  172.6600  144.1050 O   0  0  0  0  0  0  0  0  0  0  0  0
  197.4520  174.7460  142.2580 C   0  0  0  0  0  2  0  0  0  0  0  0
  197.9410  176.0290  142.8990 C   0  0  0  0  0  2  0  0  0  0  0  0
  197.7580  174.7800  143.7410 C   0  0  0  0  0  3  0  0  0  0  0  0
  191.0240  173.3080  140.6930 C   0  0  0  0  0  2  0  0  0  0  0  0
  192.3890  173.9800  140.5790 C   0  0  0  0  0  2  0  0  0  0  0  0
  193.8720  175.3590  141.7420 C   0  0  0  0  0  1  0  0  0  0  0  0
  192.4610  175.1410  141.4580 N   0  0  0  0  0  2  0  0  0  0  0  0
  1 22  1  0  0  0  0
  3  6  1  6  0  0  0
  4  7  1  0  0  0  0
  6 18  1  0  0  0  0
  7  5  2  0  0  0  0
  7 22  1  0  0  0  0
  8 16  2  0  0  0  0
  9 19  1  0  0  0  0
 10 15  2  0  0  0  0
 11 13  1  0  0  0  0
 11  9  1  1  0  0  0
 11  3  1  0  0  0  0
 12 23  1  0  0  0  0
 12  2  2  0  0  0  0
 13 34  1  6  0  0  0
 13 19  1  0  0  0  0
 13  3  1  0  0  0  0
 14 25  1  1  0  0  0
 14 26  1  0  0  0  0
 14 21  1  0  0  0  0
 15  2  1  0  0  0  0
 15  4  1  0  0  0  0
 17 12  1  0  0  0  0
 18 10  1  0  0  0  0
 18  1  2  0  0  0  0
 19 25  1  1  0  0  0
 20 17  2  0  0  0  0
 20 10  1  0  0  0  0
 21  8  1  6  0  0  0
 22  8  1  0  0  0  0
 24  9  1  0  0  0  0
 26 21  1  0  0  0  0
 27 26  1  0  0  0  0
 28 29  1  0  0  0  0
 29 27  1  0  0  0  0
 30 29  2  0  0  0  0
 31 32  1  0  0  0  0
 31 33  1  0  0  0  0
 32 33  1  0  0  0  0
 33 28  1  0  0  0  0
 35 34  1  0  0  0  0
 35 37  1  0  0  0  0
 37 36  1  0  0  0  0
M  END
>  <MODEL>
3

>  <REMARK>
 VINA RESULT:      -6.7      3.263      7.375
  Name = 
  5 active torsions:
  status: ('A' for Active; 'I' for Inactive)
    1  A    between atoms: N_1  and  N_37
    2  A    between atoms: N_3  and  C_27
    3  A    between atoms: C_10  and  C_23
    4  A    between atoms: C_10  and  N_24
    5  A    between atoms: C_19  and  C_23
                            x       y       z     vdW  Elec       q    Type
                         _______ _______ _______ _____ _____    ______ ____

>  <TORSDO>
F 5

$$$$
=
 OpenBabel11042418343D

 37 43  0  0  1  0  0  0  0  0999 V2000
  191.6220  174.3300  141.4610 N   0  0  0  0  0  0  0  0  0  0  0  0
  190.8060  172.1140  137.6820 C   0  0  0  0  0  3  0  0  0  0  0  0
  189.6280  175.3550  142.8560 C   0  0  1  0  0  3  0  0  0  0  0  0
  192.4590  172.2830  139.4230 N   0  0  0  0  0  2  0  0  0  0  0  0
  194.4960  172.5850  140.4690 O   0  0  0  0  0  0  0  0  0  0  0  0
  189.3250  174.4030  141.7880 N   0  0  0  0  0  2  0  0  0  0  0  0
  193.3280  173.0220  140.2800 C   0  0  0  0  0  0  0  0  0  0  0  0
  193.8680  175.1660  141.4740 C   0  0  0  0  0  0  0  0  0  0  0  0
  189.5350  176.1650  145.1720 N   0  0  0  0  0  0  0  0  0  0  0  0
  190.2360  173.4370  139.6420 C   0  0  0  0  0  0  0  0  0  0  0  0
  188.9500  175.2260  144.2020 C   0  0  2  0  0  3  0  0  0  0  0  0
  189.5500  172.3600  137.1300 C   0  0  0  0  0  0  0  0  0  0  0  0
  190.2810  174.5560  143.9850 C   0  0  2  0  0  0  0  0  0  0  0  0
  193.0160  175.5200  143.7960 C   0  0  2  0  0  3  0  0  0  0  0  0
  191.1720  172.6520  138.9230 C   0  0  0  0  0  0  0  0  0  0  0  0
  194.9700  175.4520  140.7820 C   0  0  0  0  0  2  0  0  0  0  0  0
  188.6260  173.1330  137.8290 C   0  0  0  0  0  3  0  0  0  0  0  0
  190.4580  173.9970  140.9910 C   0  0  0  0  0  0  0  0  0  0  0  0
  190.8130  175.4550  145.0690 C   0  0  1  0  0  3  0  0  0  0  0  0
  188.9660  173.6590  139.0750 C   0  0  0  0  0  3  0  0  0  0  0  0
  193.4260  176.1700  142.5410 C   0  0  1  0  0  3  0  0  0  0  0  0
  192.9070  174.2290  140.9250 N   0  0  0  0  0  0  0  0  0  0  0  0
  189.1320  171.7000  135.5610 Cl  0  0  0  0  0  0  0  0  0  0  0  0
  188.9710  175.8390  146.4710 C   0  0  0  0  0  1  0  0  0  0  0  0
  191.9330  176.3540  144.5020 C   0  0  0  0  0  2  0  0  0  0  0  0
  194.2860  176.2580  143.7560 N   0  0  0  0  0  0  0  0  0  0  0  0
  195.2990  175.2830  143.7400 N   0  0  0  0  0  2  0  0  0  0  0  0
  196.5780  173.4810  144.8280 N   0  0  0  0  0  2  0  0  0  0  0  0
  195.5590  174.4780  144.8880 C   0  0  0  0  0  0  0  0  0  0  0  0
  194.9030  174.6570  145.9500 O   0  0  0  0  0  0  0  0  0  0  0  0
  195.9660  171.3880  145.8840 C   0  0  0  0  0  2  0  0  0  0  0  0
  197.4140  171.2920  145.4460 C   0  0  0  0  0  2  0  0  0  0  0  0
  196.8600  172.6090  145.9570 C   0  0  0  0  0  3  0  0  0  0  0  0
  190.0030  173.0660  144.2360 C   0  0  0  0  0  2  0  0  0  0  0  0
  191.2610  172.2020  144.2140 C   0  0  0  0  0  2  0  0  0  0  0  0
  192.5130  170.6250  143.0330 C   0  0  0  0  0  1  0  0  0  0  0  0
  191.1920  171.2260  143.1330 N   0  0  0  0  0  2  0  0  0  0  0  0
  2 15  1  0  0  0  0
  3  6  1  6  0  0  0
  3 13  1  0  0  0  0
  3 11  1  0  0  0  0
  4  7  1  0  0  0  0
  7  5  2  0  0  0  0
  7 22  1  0  0  0  0
  9 24  1  0  0  0  0
 10 18  1  0  0  0  0
 11  9  1  1  0  0  0
 12  2  2  0  0  0  0
 12 17  1  0  0  0  0
 13 11  1  0  0  0  0
 13 34  1  6  0  0  0
 13 19  1  0  0  0  0
 14 25  1  1  0  0  0
 15  4  1  0  0  0  0
 15 10  2  0  0  0  0
 16  8  2  0  0  0  0
 17 20  2  0  0  0  0
 18  1  2  0  0  0  0
 18  6  1  0  0  0  0
 19 25  1  6  0  0  0
 19  9  1  0  0  0  0
 20 10  1  0  0  0  0
 21  8  1  6  0  0  0
 21 26  1  0  0  0  0
 21 14  1  0  0  0  0
 22  1  1  0  0  0  0
 22  8  1  0  0  0  0
 23 12  1  0  0  0  0
 26 14  1  0  0  0  0
 27 26  1  0  0  0  0
 27 29  1  0  0  0  0
 28 29  1  0  0  0  0
 28 33  1  0  0  0  0
 29 30  2  0  0  0  0
 31 33  1  0  0  0  0
 32 31  1  0  0  0  0
 32 33  1  0  0  0  0
 35 34  1  0  0  0  0
 36 37  1  0  0  0  0
 37 35  1  0  0  0  0
M  END
>  <MODEL>
4

>  <REMARK>
 VINA RESULT:      -6.2      3.647      7.480
  Name = 
  5 active torsions:
  status: ('A' for Active; 'I' for Inactive)
    1  A    between atoms: N_1  and  N_37
    2  A    between atoms: N_3  and  C_27
    3  A    between atoms: C_10  and  C_23
    4  A    between atoms: C_10  and  N_24
    5  A    between atoms: C_19  and  C_23
                            x       y       z     vdW  Elec       q    Type
                         _______ _______ _______ _____ _____    ______ ____

>  <TORSDO>
F 5

$$$$
=
 OpenBabel11042418343D

 37 43  0  0  1  0  0  0  0  0999 V2000
  190.4580  176.1750  143.6870 N   0  0  0  0  0  0  0  0  0  0  0  0
  187.1330  176.3960  140.7290 C   0  0  0  0  0  3  0  0  0  0  0  0
  190.3580  177.6040  145.9060 C   0  0  1  0  0  3  0  0  0  0  0  0
  188.8960  174.9220  141.4440 N   0  0  0  0  0  2  0  0  0  0  0  0
  190.7620  173.5630  141.3700 O   0  0  0  0  0  0  0  0  0  0  0  0
  189.1470  177.4730  145.0970 N   0  0  0  0  0  2  0  0  0  0  0  0
  190.2510  174.6380  141.7880 C   0  0  0  0  0  0  0  0  0  0  0  0
  192.4790  175.4460  142.6240 C   0  0  0  0  0  0  0  0  0  0  0  0
  191.6370  177.4220  147.9940 N   0  0  0  0  0  0  0  0  0  0  0  0
  188.3410  176.9960  142.7530 C   0  0  0  0  0  0  0  0  0  0  0  0
  190.2880  177.4340  147.4080 C   0  0  2  0  0  3  0  0  0  0  0  0
  186.3120  177.5150  140.8670 C   0  0  0  0  0  0  0  0  0  0  0  0
  190.6060  176.2380  146.5490 C   0  0  2  0  0  0  0  0  0  0  0  0
  192.9590  175.3830  145.0750 C   0  0  2  0  0  3  0  0  0  0  0  0
  188.1570  176.1290  141.6470 C   0  0  0  0  0  0  0  0  0  0  0  0
  193.1490  175.2450  141.4900 C   0  0  0  0  0  2  0  0  0  0  0  0
  186.4900  178.3730  141.9500 C   0  0  0  0  0  3  0  0  0  0  0  0
  189.3240  176.7910  143.8370 C   0  0  0  0  0  0  0  0  0  0  0  0
  191.9320  176.1890  147.2600 C   0  0  1  0  0  3  0  0  0  0  0  0
  187.4900  178.1100  142.8850 C   0  0  0  0  0  3  0  0  0  0  0  0
  193.2470  176.0550  143.7990 C   0  0  1  0  0  3  0  0  0  0  0  0
  191.0320  175.5320  142.5900 N   0  0  0  0  0  0  0  0  0  0  0  0
  185.0600  177.8410  139.6850 Cl  0  0  0  0  0  0  0  0  0  0  0  0
  191.4890  177.0600  149.3940 C   0  0  0  0  0  1  0  0  0  0  0  0
  193.0780  176.3770  146.2440 C   0  0  0  0  0  2  0  0  0  0  0  0
  194.2690  175.1790  144.4410 N   0  0  0  0  0  0  0  0  0  0  0  0
  194.2400  173.8790  143.9050 N   0  0  0  0  0  2  0  0  0  0  0  0
  194.8520  171.4940  143.9900 N   0  0  0  0  0  2  0  0  0  0  0  0
  194.9230  172.8060  144.5490 C   0  0  0  0  0  0  0  0  0  0  0  0
  195.5980  173.0190  145.5930 O   0  0  0  0  0  0  0  0  0  0  0  0
  194.5310  169.6960  145.5810 C   0  0  0  0  0  2  0  0  0  0  0  0
  194.7850  169.0830  144.2190 C   0  0  0  0  0  2  0  0  0  0  0  0
  195.5010  170.3580  144.6250 C   0  0  0  0  0  3  0  0  0  0  0  0
  189.4840  175.2360  146.8630 C   0  0  0  0  0  2  0  0  0  0  0  0
  189.8210  173.8030  146.4590 C   0  0  0  0  0  2  0  0  0  0  0  0
  190.0900  172.3300  144.6690 C   0  0  0  0  0  1  0  0  0  0  0  0
  189.4160  173.5510  145.0820 N   0  0  0  0  0  2  0  0  0  0  0  0
  1 18  2  0  0  0  0
  2 12  2  0  0  0  0
  2 15  1  0  0  0  0
  3  6  1  6  0  0  0
  3 13  1  0  0  0  0
  3 11  1  0  0  0  0
  4 15  1  0  0  0  0
  4  7  1  0  0  0  0
  5  7  2  0  0  0  0
  7 22  1  0  0  0  0
  9 24  1  0  0  0  0
 10 20  1  0  0  0  0
 10 18  1  0  0  0  0
 11  9  1  1  0  0  0
 12 17  1  0  0  0  0
 13 34  1  6  0  0  0
 13 19  1  0  0  0  0
 13 11  1  0  0  0  0
 14 25  1  1  0  0  0
 15 10  2  0  0  0  0
 16  8  2  0  0  0  0
 17 20  2  0  0  0  0
 18  6  1  0  0  0  0
 19 25  1  6  0  0  0
 19  9  1  0  0  0  0
 21  8  1  6  0  0  0
 21 26  1  0  0  0  0
 21 14  1  0  0  0  0
 22  8  1  0  0  0  0
 22  1  1  0  0  0  0
 23 12  1  0  0  0  0
 26 14  1  0  0  0  0
 27 26  1  0  0  0  0
 27 29  1  0  0  0  0
 28 29  1  0  0  0  0
 28 33  1  0  0  0  0
 29 30  2  0  0  0  0
 32 33  1  0  0  0  0
 32 31  1  0  0  0  0
 33 31  1  0  0  0  0
 35 34  1  0  0  0  0
 36 37  1  0  0  0  0
 37 35  1  0  0  0  0
M  END
>  <MODEL>
5

>  <REMARK>
 VINA RESULT:      -6.2      3.620      8.182
  Name = 
  5 active torsions:
  status: ('A' for Active; 'I' for Inactive)
    1  A    between atoms: N_1  and  N_37
    2  A    between atoms: N_3  and  C_27
    3  A    between atoms: C_10  and  C_23
    4  A    between atoms: C_10  and  N_24
    5  A    between atoms: C_19  and  C_23
                            x       y       z     vdW  Elec       q    Type
                         _______ _______ _______ _____ _____    ______ ____

>  <TORSDO>
F 5

$$$$
=
 OpenBabel11042418343D

 37 43  0  0  1  0  0  0  0  0999 V2000
  189.8880  175.5180  142.8000 N   0  0  0  0  0  0  0  0  0  0  0  0
  185.6150  176.7580  143.0480 C   0  0  0  0  0  3  0  0  0  0  0  0
  191.7510  176.9170  144.0440 C   0  0  1  0  0  3  0  0  0  0  0  0
  186.9700  174.8080  142.6550 N   0  0  0  0  0  2  0  0  0  0  0  0
  187.8360  172.9300  141.6270 O   0  0  0  0  0  0  0  0  0  0  0  0
  190.3470  177.1700  144.3650 N   0  0  0  0  0  2  0  0  0  0  0  0
  188.0380  174.1130  142.0130 C   0  0  0  0  0  0  0  0  0  0  0  0
  190.2620  174.1840  140.8440 C   0  0  0  0  0  0  0  0  0  0  0  0
  194.0710  176.3540  144.6150 N   0  0  0  0  0  0  0  0  0  0  0  0
  188.0070  176.9580  143.4440 C   0  0  0  0  0  0  0  0  0  0  0  0
  192.7720  176.7870  145.1520 C   0  0  2  0  0  3  0  0  0  0  0  0
  185.4220  178.0790  143.4510 C   0  0  0  0  0  0  0  0  0  0  0  0
  192.0960  175.5470  144.6280 C   0  0  2  0  0  0  0  0  0  0  0  0
  192.3570  173.9860  142.1910 C   0  0  2  0  0  3  0  0  0  0  0  0
  186.8950  176.1870  143.0230 C   0  0  0  0  0  0  0  0  0  0  0  0
  189.8210  173.7760  139.6550 C   0  0  0  0  0  2  0  0  0  0  0  0
  186.5100  178.8430  143.8620 C   0  0  0  0  0  3  0  0  0  0  0  0
  189.3950  176.4600  143.5460 C   0  0  0  0  0  0  0  0  0  0  0  0
  193.4640  175.0870  144.2010 C   0  0  1  0  0  3  0  0  0  0  0  0
  187.7880  178.2840  143.8640 C   0  0  0  0  0  3  0  0  0  0  0  0
  191.7480  174.5260  140.9660 C   0  0  1  0  0  3  0  0  0  0  0  0
  189.3190  174.7210  141.8060 N   0  0  0  0  0  0  0  0  0  0  0  0
  183.8140  178.7760  143.4410 Cl  0  0  0  0  0  0  0  0  0  0  0  0
  194.9260  176.0650  145.7550 C   0  0  0  0  0  1  0  0  0  0  0  0
  193.5000  174.8990  142.6690 C   0  0  0  0  0  2  0  0  0  0  0  0
  192.6950  173.3760  140.8980 N   0  0  0  0  0  0  0  0  0  0  0  0
  192.0110  172.1490  140.8590 N   0  0  0  0  0  2  0  0  0  0  0  0
  191.4850  170.0030  139.7690 N   0  0  0  0  0  2  0  0  0  0  0  0
  192.1760  171.2520  139.7630 C   0  0  0  0  0  0  0  0  0  0  0  0
  192.9160  171.5670  138.7910 O   0  0  0  0  0  0  0  0  0  0  0  0
  190.4090  168.1670  138.6120 C   0  0  0  0  0  2  0  0  0  0  0  0
  190.6000  169.3010  137.6250 C   0  0  0  0  0  2  0  0  0  0  0  0
  191.6460  169.0370  138.6940 C   0  0  0  0  0  3  0  0  0  0  0  0
  191.3910  174.9500  145.8560 C   0  0  0  0  0  2  0  0  0  0  0  0
  190.4260  173.8190  145.5110 C   0  0  0  0  0  2  0  0  0  0  0  0
  189.2310  175.1120  147.0440 C   0  0  0  0  0  1  0  0  0  0  0  0
  189.3210  173.7820  146.4600 N   0  0  0  0  0  2  0  0  0  0  0  0
  1 18  2  0  0  0  0
  2 12  1  0  0  0  0
  3  6  1  1  0  0  0
  3 13  1  0  0  0  0
  3 11  1  0  0  0  0
  4 15  1  0  0  0  0
  5  7  2  0  0  0  0
  7  4  1  0  0  0  0
  8 22  1  0  0  0  0
  9 24  1  0  0  0  0
 10 18  1  0  0  0  0
 10 20  2  0  0  0  0
 11  9  1  6  0  0  0
 12 17  2  0  0  0  0
 13 11  1  0  0  0  0
 13 34  1  1  0  0  0
 14 25  1  6  0  0  0
 15  2  2  0  0  0  0
 15 10  1  0  0  0  0
 16  8  2  0  0  0  0
 17 20  1  0  0  0  0
 18  6  1  0  0  0  0
 19 25  1  6  0  0  0
 19  9  1  0  0  0  0
 19 13  1  0  0  0  0
 21  8  1  1  0  0  0
 21 14  1  0  0  0  0
 22  7  1  0  0  0  0
 22  1  1  0  0  0  0
 23 12  1  0  0  0  0
 26 21  1  0  0  0  0
 26 14  1  0  0  0  0
 27 26  1  0  0  0  0
 29 28  1  0  0  0  0
 29 27  1  0  0  0  0
 30 29  2  0  0  0  0
 31 33  1  0  0  0  0
 32 31  1  0  0  0  0
 32 33  1  0  0  0  0
 33 28  1  0  0  0  0
 35 34  1  0  0  0  0
 35 37  1  0  0  0  0
 37 36  1  0  0  0  0
M  END
>  <MODEL>
6

>  <REMARK>
 VINA RESULT:      -6.1      3.686      8.134
  Name = 
  5 active torsions:
  status: ('A' for Active; 'I' for Inactive)
    1  A    between atoms: N_1  and  N_37
    2  A    between atoms: N_3  and  C_27
    3  A    between atoms: C_10  and  C_23
    4  A    between atoms: C_10  and  N_24
    5  A    between atoms: C_19  and  C_23
                            x       y       z     vdW  Elec       q    Type
                         _______ _______ _______ _____ _____    ______ ____

>  <TORSDO>
F 5

$$$$
=
 OpenBabel11042418343D

 37 43  0  0  1  0  0  0  0  0999 V2000
  194.8140  173.3900  143.6620 N   0  0  0  0  0  0  0  0  0  0  0  0
  194.9490  169.8310  146.3410 C   0  0  0  0  0  3  0  0  0  0  0  0
  196.9750  174.1410  142.3430 C   0  0  1  0  0  3  0  0  0  0  0  0
  193.3890  171.1390  145.0570 N   0  0  0  0  0  2  0  0  0  0  0  0
  191.5540  172.4370  144.5280 O   0  0  0  0  0  0  0  0  0  0  0  0
  196.9620  172.8270  142.9840 N   0  0  0  0  0  2  0  0  0  0  0  0
  192.8080  172.3740  144.6420 C   0  0  0  0  0  0  0  0  0  0  0  0
  193.0290  174.8540  144.3030 C   0  0  0  0  0  0  0  0  0  0  0  0
  197.2440  175.6490  140.4250 N   0  0  0  0  0  0  0  0  0  0  0  0
  195.8670  171.5070  144.8360 C   0  0  0  0  0  0  0  0  0  0  0  0
  197.4940  174.2900  140.9300 C   0  0  2  0  0  3  0  0  0  0  0  0
  196.2340  169.4430  146.7180 C   0  0  0  0  0  0  0  0  0  0  0  0
  196.0220  174.0570  141.1500 C   0  0  2  0  0  0  0  0  0  0  0  0
  193.8390  175.7190  142.1030 C   0  0  2  0  0  3  0  0  0  0  0  0
  194.7450  170.8660  145.4180 C   0  0  0  0  0  0  0  0  0  0  0  0
  192.1410  175.2130  145.2290 C   0  0  0  0  0  2  0  0  0  0  0  0
  197.3410  170.0710  146.1520 C   0  0  0  0  0  3  0  0  0  0  0  0
  195.7990  172.5520  143.7940 C   0  0  0  0  0  0  0  0  0  0  0  0
  195.8020  175.4050  140.5160 C   0  0  1  0  0  3  0  0  0  0  0  0
  197.1560  171.0870  145.2160 C   0  0  0  0  0  3  0  0  0  0  0  0
  193.7540  175.9710  143.5500 C   0  0  1  0  0  3  0  0  0  0  0  0
  193.6080  173.5260  144.3510 N   0  0  0  0  0  0  0  0  0  0  0  0
  196.4580  168.1670  147.8990 Cl  0  0  0  0  0  0  0  0  0  0  0  0
  197.5880  175.6460  139.0120 C   0  0  0  0  0  1  0  0  0  0  0  0
  195.1150  176.3520  141.5230 C   0  0  0  0  0  2  0  0  0  0  0  0
  192.9270  176.7630  142.5940 N   0  0  0  0  0  0  0  0  0  0  0  0
  191.6310  176.2320  142.4730 N   0  0  0  0  0  2  0  0  0  0  0  0
  189.1820  176.4580  142.6150 N   0  0  0  0  0  2  0  0  0  0  0  0
  190.4840  177.0230  142.7730 C   0  0  0  0  0  0  0  0  0  0  0  0
  190.6200  178.2060  143.1880 O   0  0  0  0  0  0  0  0  0  0  0  0
  187.6160  178.0250  141.6340 C   0  0  0  0  0  2  0  0  0  0  0  0
  186.8680  176.7480  141.9600 C   0  0  0  0  0  2  0  0  0  0  0  0
  187.9790  177.2330  142.8730 C   0  0  0  0  0  3  0  0  0  0  0  0
  195.7270  172.7520  140.3940 C   0  0  0  0  0  2  0  0  0  0  0  0
  194.2820  172.6420  139.9150 C   0  0  0  0  0  2  0  0  0  0  0  0
  192.1680  172.5940  140.9050 C   0  0  0  0  0  1  0  0  0  0  0  0
  193.4690  171.9410  140.9000 N   0  0  0  0  0  2  0  0  0  0  0  0
  1 18  2  0  0  0  0
  1 22  1  0  0  0  0
  2 12  1  0  0  0  0
  3  6  1  6  0  0  0
  4 15  1  0  0  0  0
  5  7  2  0  0  0  0
  6 18  1  0  0  0  0
  7  4  1  0  0  0  0
  8 22  1  0  0  0  0
  8 16  2  0  0  0  0
  9 19  1  0  0  0  0
 10 20  2  0  0  0  0
 10 15  1  0  0  0  0
 11  9  1  1  0  0  0
 11 13  1  0  0  0  0
 11  3  1  0  0  0  0
 12 23  1  0  0  0  0
 13 34  1  6  0  0  0
 13  3  1  0  0  0  0
 14 25  1  6  0  0  0
 14 26  1  0  0  0  0
 14 21  1  0  0  0  0
 15  2  2  0  0  0  0
 17 12  2  0  0  0  0
 18 10  1  0  0  0  0
 19 13  1  0  0  0  0
 19 25  1  1  0  0  0
 20 17  1  0  0  0  0
 21  8  1  1  0  0  0
 22  7  1  0  0  0  0
 24  9  1  0  0  0  0
 26 21  1  0  0  0  0
 27 26  1  0  0  0  0
 27 29  1  0  0  0  0
 28 29  1  0  0  0  0
 28 33  1  0  0  0  0
 29 30  2  0  0  0  0
 31 32  1  0  0  0  0
 31 33  1  0  0  0  0
 32 33  1  0  0  0  0
 35 34  1  0  0  0  0
 35 37  1  0  0  0  0
 37 36  1  0  0  0  0
M  END
>  <MODEL>
7

>  <REMARK>
 VINA RESULT:      -6.1      3.152      5.394
  Name = 
  5 active torsions:
  status: ('A' for Active; 'I' for Inactive)
    1  A    between atoms: N_1  and  N_37
    2  A    between atoms: N_3  and  C_27
    3  A    between atoms: C_10  and  C_23
    4  A    between atoms: C_10  and  N_24
    5  A    between atoms: C_19  and  C_23
                            x       y       z     vdW  Elec       q    Type
                         _______ _______ _______ _____ _____    ______ ____

>  <TORSDO>
F 5

$$$$
=
 OpenBabel11042418343D

 37 43  0  0  1  0  0  0  0  0999 V2000
  189.6680  173.6360  141.5560 N   0  0  0  0  0  0  0  0  0  0  0  0
  188.0890  177.5040  143.1060 C   0  0  0  0  0  3  0  0  0  0  0  0
  189.0750  172.8450  139.1070 C   0  0  1  0  0  3  0  0  0  0  0  0
  189.9050  175.9620  143.4470 N   0  0  0  0  0  2  0  0  0  0  0  0
  191.3580  174.5080  144.5000 O   0  0  0  0  0  0  0  0  0  0  0  0
  188.7880  174.2270  139.4910 N   0  0  0  0  0  2  0  0  0  0  0  0
  190.4380  174.6540  143.6500 C   0  0  0  0  0  0  0  0  0  0  0  0
  190.2150  172.1670  143.3690 C   0  0  0  0  0  0  0  0  0  0  0  0
  190.0940  171.1250  137.6820 N   0  0  0  0  0  0  0  0  0  0  0  0
  188.3490  175.7050  141.4880 C   0  0  0  0  0  0  0  0  0  0  0  0
  189.7340  172.5490  137.7780 C   0  0  2  0  0  3  0  0  0  0  0  0
  186.9990  178.0070  142.3960 C   0  0  0  0  0  0  0  0  0  0  0  0
  190.5960  172.7260  139.0010 C   0  0  2  0  0  0  0  0  0  0  0  0
  191.1570  171.0790  141.3270 C   0  0  2  0  0  3  0  0  0  0  0  0
  188.7640  176.3520  142.6800 C   0  0  0  0  0  0  0  0  0  0  0  0
  190.0930  171.8780  144.6640 C   0  0  0  0  0  2  0  0  0  0  0  0
  186.5850  177.3750  141.2260 C   0  0  0  0  0  3  0  0  0  0  0  0
  189.0170  174.5360  140.8820 C   0  0  0  0  0  0  0  0  0  0  0  0
  191.0300  171.3000  138.7950 C   0  0  1  0  0  3  0  0  0  0  0  0
  187.2590  176.2400  140.7760 C   0  0  0  0  0  3  0  0  0  0  0  0
  190.1290  171.0060  142.3770 C   0  0  1  0  0  3  0  0  0  0  0  0
  189.9610  173.5200  142.9150 N   0  0  0  0  0  0  0  0  0  0  0  0
  186.1550  179.4310  142.9700 Cl  0  0  0  0  0  0  0  0  0  0  0  0
  190.8900  170.9700  136.4760 C   0  0  0  0  0  1  0  0  0  0  0  0
  190.6380  170.4500  140.0230 C   0  0  0  0  0  2  0  0  0  0  0  0
  191.2790  170.0560  142.3760 N   0  0  0  0  0  0  0  0  0  0  0  0
  192.3090  170.4960  143.2260 N   0  0  0  0  0  2  0  0  0  0  0  0
  194.1910  170.0460  144.7510 N   0  0  0  0  0  2  0  0  0  0  0  0
  193.1390  169.5640  143.9150 C   0  0  0  0  0  0  0  0  0  0  0  0
  192.9340  168.3250  143.7980 O   0  0  0  0  0  0  0  0  0  0  0  0
  196.0850  169.9420  146.2570 C   0  0  0  0  0  2  0  0  0  0  0  0
  194.8970  169.3000  146.9450 C   0  0  0  0  0  2  0  0  0  0  0  0
  195.0880  169.1380  145.4480 C   0  0  0  0  0  3  0  0  0  0  0  0
  191.5140  173.9080  138.6510 C   0  0  0  0  0  2  0  0  0  0  0  0
  192.8500  173.8760  139.3860 C   0  0  0  0  0  2  0  0  0  0  0  0
  193.5430  173.7920  141.6140 C   0  0  0  0  0  1  0  0  0  0  0  0
  192.7450  174.5590  140.6690 N   0  0  0  0  0  2  0  0  0  0  0  0
  1 22  1  0  0  0  0
  3  6  1  6  0  0  0
  4  7  1  0  0  0  0
  6 18  1  0  0  0  0
  7  5  2  0  0  0  0
  8 16  2  0  0  0  0
  9 19  1  0  0  0  0
 10 15  2  0  0  0  0
 11  9  1  1  0  0  0
 11 13  1  0  0  0  0
 11  3  1  0  0  0  0
 12 23  1  0  0  0  0
 12  2  2  0  0  0  0
 13 34  1  1  0  0  0
 13  3  1  0  0  0  0
 14 25  1  6  0  0  0
 14 26  1  0  0  0  0
 14 21  1  0  0  0  0
 15  2  1  0  0  0  0
 15  4  1  0  0  0  0
 17 12  1  0  0  0  0
 18 10  1  0  0  0  0
 18  1  2  0  0  0  0
 19 13  1  0  0  0  0
 19 25  1  1  0  0  0
 20 17  2  0  0  0  0
 20 10  1  0  0  0  0
 21  8  1  1  0  0  0
 22  8  1  0  0  0  0
 22  7  1  0  0  0  0
 24  9  1  0  0  0  0
 26 21  1  0  0  0  0
 26 27  1  0  0  0  0
 27 29  1  0  0  0  0
 28 33  1  0  0  0  0
 29 28  1  0  0  0  0
 30 29  2  0  0  0  0
 31 32  1  0  0  0  0
 33 31  1  0  0  0  0
 33 32  1  0  0  0  0
 34 35  1  0  0  0  0
 35 37  1  0  0  0  0
 37 36  1  0  0  0  0
M  END
>  <MODEL>
8

>  <REMARK>
 VINA RESULT:      -6.1      3.542      7.524
  Name = 
  5 active torsions:
  status: ('A' for Active; 'I' for Inactive)
    1  A    between atoms: N_1  and  N_37
    2  A    between atoms: N_3  and  C_27
    3  A    between atoms: C_10  and  C_23
    4  A    between atoms: C_10  and  N_24
    5  A    between atoms: C_19  and  C_23
                            x       y       z     vdW  Elec       q    Type
                         _______ _______ _______ _____ _____    ______ ____

>  <TORSDO>
F 5

$$$$
=
 OpenBabel11042418343D

 37 43  0  0  1  0  0  0  0  0999 V2000
  192.0190  174.7730  143.4300 N   0  0  0  0  0  0  0  0  0  0  0  0
  188.3700  175.6940  145.8160 C   0  0  0  0  0  3  0  0  0  0  0  0
  194.3110  175.9570  143.9980 C   0  0  1  0  0  3  0  0  0  0  0  0
  189.3070  173.9570  144.4390 N   0  0  0  0  0  2  0  0  0  0  0  0
  189.5280  172.4050  142.7430 O   0  0  0  0  0  0  0  0  0  0  0  0
  193.2100  176.0560  144.9550 N   0  0  0  0  0  2  0  0  0  0  0  0
  189.9420  173.4820  143.2530 C   0  0  0  0  0  0  0  0  0  0  0  0
  191.4170  173.9310  141.2690 C   0  0  0  0  0  0  0  0  0  0  0  0
  196.6110  175.4070  143.3400 N   0  0  0  0  0  0  0  0  0  0  0  0
  190.6970  175.9290  145.1450 C   0  0  0  0  0  0  0  0  0  0  0  0
  195.7090  175.6380  144.4790 C   0  0  2  0  0  3  0  0  0  0  0  0
  188.4440  176.8800  146.5470 C   0  0  0  0  0  0  0  0  0  0  0  0
  194.8070  174.5120  144.0460 C   0  0  2  0  0  0  0  0  0  0  0  0
  193.8790  173.5510  141.4660 C   0  0  2  0  0  3  0  0  0  0  0  0
  189.4750  175.2130  145.1000 C   0  0  0  0  0  0  0  0  0  0  0  0
  190.4740  173.7760  140.3410 C   0  0  0  0  0  2  0  0  0  0  0  0
  189.6410  177.5900  146.5930 C   0  0  0  0  0  3  0  0  0  0  0  0
  191.9570  175.4970  144.5080 C   0  0  0  0  0  0  0  0  0  0  0  0
  195.8180  174.2330  142.9660 C   0  0  1  0  0  3  0  0  0  0  0  0
  190.7560  177.1140  145.9040 C   0  0  0  0  0  3  0  0  0  0  0  0
  192.8190  174.3170  140.7930 C   0  0  1  0  0  3  0  0  0  0  0  0
  191.0280  174.1880  142.6420 N   0  0  0  0  0  0  0  0  0  0  0  0
  187.0380  177.4730  147.4070 Cl  0  0  0  0  0  0  0  0  0  0  0  0
  197.8660  174.9170  143.8860 C   0  0  0  0  0  1  0  0  0  0  0  0
  195.1610  174.3940  141.5790 C   0  0  0  0  0  2  0  0  0  0  0  0
  193.5770  173.2640  140.0570 N   0  0  0  0  0  0  0  0  0  0  0  0
  192.8820  172.0410  140.0520 N   0  0  0  0  0  2  0  0  0  0  0  0
  191.7770  170.1910  138.8600 N   0  0  0  0  0  2  0  0  0  0  0  0
  192.4570  171.4450  138.8280 C   0  0  0  0  0  0  0  0  0  0  0  0
  192.6670  172.0300  137.7310 O   0  0  0  0  0  0  0  0  0  0  0  0
  190.4410  168.3650  137.9920 C   0  0  0  0  0  2  0  0  0  0  0  0
  189.8490  169.6660  137.4880 C   0  0  0  0  0  2  0  0  0  0  0  0
  191.3530  169.5230  137.6390 C   0  0  0  0  0  3  0  0  0  0  0  0
  194.6890  173.6190  145.2910 C   0  0  0  0  0  2  0  0  0  0  0  0
  193.9530  172.3080  145.0300 C   0  0  0  0  0  2  0  0  0  0  0  0
  196.0060  171.3430  145.5850 C   0  0  0  0  0  1  0  0  0  0  0  0
  194.5690  171.2180  145.7770 N   0  0  0  0  0  2  0  0  0  0  0  0
  1 18  2  0  0  0  0
  2 12  1  0  0  0  0
  3 13  1  0  0  0  0
  3 11  1  0  0  0  0
  3  6  1  1  0  0  0
  4 15  1  0  0  0  0
  5  7  2  0  0  0  0
  7  4  1  0  0  0  0
  8 22  1  0  0  0  0
  9 24  1  0  0  0  0
 10 20  2  0  0  0  0
 11  9  1  6  0  0  0
 12 17  2  0  0  0  0
 12 23  1  0  0  0  0
 13 11  1  0  0  0  0
 13 34  1  1  0  0  0
 14 25  1  6  0  0  0
 15 10  1  0  0  0  0
 15  2  2  0  0  0  0
 16  8  2  0  0  0  0
 18  6  1  0  0  0  0
 18 10  1  0  0  0  0
 19 25  1  6  0  0  0
 19  9  1  0  0  0  0
 19 13  1  0  0  0  0
 20 17  1  0  0  0  0
 21  8  1  1  0  0  0
 21 14  1  0  0  0  0
 22  7  1  0  0  0  0
 22  1  1  0  0  0  0
 26 21  1  0  0  0  0
 26 14  1  0  0  0  0
 27 26  1  0  0  0  0
 29 28  1  0  0  0  0
 29 27  1  0  0  0  0
 30 29  2  0  0  0  0
 32 33  1  0  0  0  0
 32 31  1  0  0  0  0
 33 31  1  0  0  0  0
 33 28  1  0  0  0  0
 35 34  1  0  0  0  0
 35 37  1  0  0  0  0
 36 37  1  0  0  0  0
M  END
>  <MODEL>
9

>  <REMARK>
 VINA RESULT:      -6.0      3.504      7.772
  Name = 
  5 active torsions:
  status: ('A' for Active; 'I' for Inactive)
    1  A    between atoms: N_1  and  N_37
    2  A    between atoms: N_3  and  C_27
    3  A    between atoms: C_10  and  C_23
    4  A    between atoms: C_10  and  N_24
    5  A    between atoms: C_19  and  C_23
                            x       y       z     vdW  Elec       q    Type
                         _______ _______ _______ _____ _____    ______ ____

>  <TORSDO>
F 5

$$$$
