=
 OpenBabel11042416503D

 29 30  0  0  1  0  0  0  0  0999 V2000
  192.1170  177.0050  145.2250 C   0  0  1  0  0  3  0  0  0  0  0  0
  188.0140  176.1760  146.8720 C   0  0  0  0  0  3  0  0  0  0  0  0
  192.5850  175.4320  147.1700 N   0  0  0  0  0  0  0  0  0  0  0  0
  188.3920  177.5950  144.8730 C   0  0  0  0  0  0  0  0  0  0  0  0
  192.5410  176.5450  143.9770 O   0  0  0  0  0  1  0  0  0  0  0  0
  189.6800  177.3160  144.5900 C   0  0  0  0  0  3  0  0  0  0  0  0
  188.9430  175.1140  146.3940 C   0  0  0  0  0  2  0  0  0  0  0  0
  194.2010  176.9120  146.3920 O   0  0  0  0  0  0  0  0  0  0  0  0
  187.7470  177.2870  146.1730 C   0  0  0  0  0  0  0  0  0  0  0  0
  191.3520  175.0290  147.1800 C   0  0  0  0  0  3  0  0  0  0  0  0
  190.3360  175.6400  146.3040 C   0  0  0  0  0  0  0  0  0  0  0  0
  190.6720  176.6230  145.4430 C   0  0  0  0  0  0  0  0  0  0  0  0
  193.0280  176.4680  146.2920 C   0  0  0  0  0  0  0  0  0  0  0  0
  185.3780  178.1570  146.5660 C   0  0  0  0  0  0  0  0  0  0  0  0
  186.8060  178.2400  146.6850 N   0  0  0  0  0  2  0  0  0  0  0  0
  184.6630  178.5030  147.5410 O   0  0  0  0  0  0  0  0  0  0  0  0
  184.1260  178.6550  144.4950 C   0  0  0  0  0  1  0  0  0  0  0  0
  184.7580  177.7460  145.3830 O   0  0  0  0  0  0  0  0  0  0  0  0
  187.6030  178.2570  143.9230 O   0  0  0  0  0  0  0  0  0  0  0  0
  187.2510  177.6930  142.6650 C   0  0  0  0  0  2  0  0  0  0  0  0
  187.1320  176.1840  142.8060 C   0  0  0  0  0  2  0  0  0  0  0  0
  187.5160  176.1780  140.4380 O   0  0  0  0  0  1  0  0  0  0  0  0
  187.7220  175.4440  141.6090 C   0  0  1  0  0  3  0  0  0  0  0  0
  189.2070  175.1540  141.8010 C   0  0  0  0  0  2  0  0  0  0  0  0
  190.5900  173.7820  143.2320 N   0  0  0  0  0  0  0  0  0  0  0  0
  189.4030  174.0580  142.7910 C   0  0  0  0  0  3  0  0  0  0  0  0
  190.8230  172.7440  144.1880 C   0  0  0  0  0  0  0  0  0  0  0  0
  189.6650  172.0260  144.7840 C   0  0  0  0  0  1  0  0  0  0  0  0
  191.9960  172.4260  144.5270 O   0  0  0  0  0  0  0  0  0  0  0  0
  1  5  1  6  0  0  0
  1 12  1  0  0  0  0
  1 13  1  0  0  0  0
  3 10  2  0  0  0  0
  4  9  1  0  0  0  0
  6  4  2  0  0  0  0
  6 12  1  0  0  0  0
  7  2  1  0  0  0  0
  9 15  1  0  0  0  0
  9  2  2  0  0  0  0
 11  7  1  0  0  0  0
 11 10  1  0  0  0  0
 12 11  2  0  0  0  0
 13  8  2  0  0  0  0
 13  3  1  0  0  0  0
 14 15  1  0  0  0  0
 14 16  2  0  0  0  0
 17 18  1  0  0  0  0
 18 14  1  0  0  0  0
 19  4  1  0  0  0  0
 20 21  1  0  0  0  0
 20 19  1  0  0  0  0
 23 22  1  6  0  0  0
 23 24  1  0  0  0  0
 23 21  1  0  0  0  0
 24 26  1  0  0  0  0
 25 27  1  0  0  0  0
 26 25  2  0  0  0  0
 27 29  2  0  0  0  0
 27 28  1  0  0  0  0
M  END
>  <MODEL>
1

>  <REMARK>
 VINA RESULT:      -6.1      0.000      0.000
  Name = 
  9 active torsions:
  status: ('A' for Active; 'I' for Inactive)
    1  A    between atoms: N_3  and  C_4
    2  A    between atoms: C_6  and  O_16
    3  A    between atoms: C_7  and  O_21
    4  A    between atoms: N_11  and  C_15
    5  A    between atoms: O_16  and  C_26
    6  A    between atoms: C_18  and  C_19
    7  A    between atoms: C_18  and  C_22
    8  A    between atoms: C_19  and  C_29
    9  A    between atoms: C_26  and  C_29
                            x       y       z     vdW  Elec       q    Type
                         _______ _______ _______ _____ _____    ______ ____

>  <TORSDO>
F 9

$$$$
=
 OpenBabel11042416503D

 29 30  0  0  1  0  0  0  0  0999 V2000
  192.6480  177.0280  144.5910 C   0  0  1  0  0  3  0  0  0  0  0  0
  188.9820  175.7760  146.8770 C   0  0  0  0  0  3  0  0  0  0  0  0
  193.5670  175.3660  146.2860 N   0  0  0  0  0  0  0  0  0  0  0  0
  188.8930  177.3520  144.9650 C   0  0  0  0  0  0  0  0  0  0  0  0
  192.8610  176.6880  143.2550 O   0  0  0  0  0  1  0  0  0  0  0  0
  190.1210  177.1930  144.4330 C   0  0  0  0  0  3  0  0  0  0  0  0
  189.8710  174.8230  146.1550 C   0  0  0  0  0  2  0  0  0  0  0  0
  194.9140  177.0150  145.3530 O   0  0  0  0  0  0  0  0  0  0  0  0
  188.5200  176.9080  146.3300 C   0  0  0  0  0  0  0  0  0  0  0  0
  192.3840  174.8700  146.4860 C   0  0  0  0  0  3  0  0  0  0  0  0
  191.1870  175.4590  145.8590 C   0  0  0  0  0  0  0  0  0  0  0  0
  191.2950  176.5220  145.0350 C   0  0  0  0  0  0  0  0  0  0  0  0
  193.7720  176.4910  145.4300 C   0  0  0  0  0  0  0  0  0  0  0  0
  186.2240  177.5370  147.2540 C   0  0  0  0  0  0  0  0  0  0  0  0
  187.6320  177.7490  147.0790 N   0  0  0  0  0  2  0  0  0  0  0  0
  185.7050  177.7770  148.3740 O   0  0  0  0  0  0  0  0  0  0  0  0
  184.5730  178.0040  145.4760 C   0  0  0  0  0  1  0  0  0  0  0  0
  185.4040  177.1130  146.2040 O   0  0  0  0  0  0  0  0  0  0  0  0
  187.9020  178.0150  144.2290 O   0  0  0  0  0  0  0  0  0  0  0  0
  187.4210  177.5570  142.9710 C   0  0  0  0  0  2  0  0  0  0  0  0
  186.9320  176.1250  143.1100 C   0  0  0  0  0  2  0  0  0  0  0  0
  188.0520  175.9450  140.9960 O   0  0  0  0  0  1  0  0  0  0  0  0
  187.5520  175.1990  142.0670 C   0  0  1  0  0  3  0  0  0  0  0  0
  188.6490  174.3290  142.6670 C   0  0  0  0  0  2  0  0  0  0  0  0
  189.5060  172.2990  141.6690 N   0  0  0  0  0  0  0  0  0  0  0  0
  189.3730  173.5860  141.5960 C   0  0  0  0  0  3  0  0  0  0  0  0
  190.1850  171.5460  140.6610 C   0  0  0  0  0  0  0  0  0  0  0  0
  190.9740  170.3480  141.0510 C   0  0  0  0  0  1  0  0  0  0  0  0
  190.1180  171.8800  139.4460 O   0  0  0  0  0  0  0  0  0  0  0  0
  1  5  1  6  0  0  0
  1 12  1  0  0  0  0
  1 13  1  0  0  0  0
  3 10  2  0  0  0  0
  4  9  1  0  0  0  0
  6  4  2  0  0  0  0
  6 12  1  0  0  0  0
  7  2  1  0  0  0  0
  8 13  2  0  0  0  0
  9  2  2  0  0  0  0
  9 15  1  0  0  0  0
 11  7  1  0  0  0  0
 11 10  1  0  0  0  0
 12 11  2  0  0  0  0
 13  3  1  0  0  0  0
 14 16  2  0  0  0  0
 15 14  1  0  0  0  0
 17 18  1  0  0  0  0
 18 14  1  0  0  0  0
 19  4  1  0  0  0  0
 20 21  1  0  0  0  0
 20 19  1  0  0  0  0
 23 22  1  6  0  0  0
 23 24  1  0  0  0  0
 23 21  1  0  0  0  0
 26 25  2  0  0  0  0
 26 24  1  0  0  0  0
 27 28  1  0  0  0  0
 27 25  1  0  0  0  0
 29 27  2  0  0  0  0
M  END
>  <MODEL>
2

>  <REMARK>
 VINA RESULT:      -5.9      1.690      1.796
  Name = 
  9 active torsions:
  status: ('A' for Active; 'I' for Inactive)
    1  A    between atoms: N_3  and  C_4
    2  A    between atoms: C_6  and  O_16
    3  A    between atoms: C_7  and  O_21
    4  A    between atoms: N_11  and  C_15
    5  A    between atoms: O_16  and  C_26
    6  A    between atoms: C_18  and  C_19
    7  A    between atoms: C_18  and  C_22
    8  A    between atoms: C_19  and  C_29
    9  A    between atoms: C_26  and  C_29
                            x       y       z     vdW  Elec       q    Type
                         _______ _______ _______ _____ _____    ______ ____

>  <TORSDO>
F 9

$$$$
=
 OpenBabel11042416503D

 29 30  0  0  1  0  0  0  0  0999 V2000
  192.6970  176.8310  144.4140 C   0  0  1  0  0  3  0  0  0  0  0  0
  189.0770  175.7320  146.8490 C   0  0  0  0  0  3  0  0  0  0  0  0
  193.6210  175.1590  146.0950 N   0  0  0  0  0  0  0  0  0  0  0  0
  188.9710  177.2880  144.9200 C   0  0  0  0  0  0  0  0  0  0  0  0
  192.8480  176.4680  143.0740 O   0  0  0  0  0  1  0  0  0  0  0  0
  190.1720  177.0810  144.3460 C   0  0  0  0  0  3  0  0  0  0  0  0
  189.9060  174.7410  146.1070 C   0  0  0  0  0  2  0  0  0  0  0  0
  194.9870  176.7500  145.0920 O   0  0  0  0  0  0  0  0  0  0  0  0
  188.6350  176.8720  146.3050 C   0  0  0  0  0  0  0  0  0  0  0  0
  192.4310  174.7060  146.3440 C   0  0  0  0  0  3  0  0  0  0  0  0
  191.2310  175.3280  145.7550 C   0  0  0  0  0  0  0  0  0  0  0  0
  191.3450  176.3770  144.9130 C   0  0  0  0  0  0  0  0  0  0  0  0
  193.8320  176.2660  145.2170 C   0  0  0  0  0  0  0  0  0  0  0  0
  186.4100  177.5580  147.3550 C   0  0  0  0  0  0  0  0  0  0  0  0
  187.8040  177.7520  147.0740 N   0  0  0  0  0  2  0  0  0  0  0  0
  185.9700  177.8520  148.4960 O   0  0  0  0  0  0  0  0  0  0  0  0
  184.4490  177.8870  145.8880 C   0  0  0  0  0  1  0  0  0  0  0  0
  185.5180  177.0950  146.3840 O   0  0  0  0  0  0  0  0  0  0  0  0
  187.9760  177.9760  144.2130 O   0  0  0  0  0  0  0  0  0  0  0  0
  187.0180  177.3320  143.3810 C   0  0  0  0  0  2  0  0  0  0  0  0
  186.5140  178.3170  142.3390 C   0  0  0  0  0  2  0  0  0  0  0  0
  187.2280  176.5120  140.9290 O   0  0  0  0  0  1  0  0  0  0  0  0
  186.7730  177.8340  140.9150 C   0  0  1  0  0  3  0  0  0  0  0  0
  185.5300  177.9580  140.0410 C   0  0  0  0  0  2  0  0  0  0  0  0
  183.1500  178.2700  140.3290 N   0  0  0  0  0  0  0  0  0  0  0  0
  184.3150  178.1520  140.8830 C   0  0  0  0  0  3  0  0  0  0  0  0
  181.9580  178.4490  141.0990 C   0  0  0  0  0  0  0  0  0  0  0  0
  180.6340  178.3070  140.4370 C   0  0  0  0  0  1  0  0  0  0  0  0
  182.0140  178.7190  142.3300 O   0  0  0  0  0  0  0  0  0  0  0  0
  1  5  1  6  0  0  0
  1 12  1  0  0  0  0
  1 13  1  0  0  0  0
  3 10  2  0  0  0  0
  4  9  1  0  0  0  0
  6 12  1  0  0  0  0
  6  4  2  0  0  0  0
  7  2  1  0  0  0  0
  8 13  2  0  0  0  0
  9  2  2  0  0  0  0
  9 15  1  0  0  0  0
 11  7  1  0  0  0  0
 11 10  1  0  0  0  0
 12 11  2  0  0  0  0
 13  3  1  0  0  0  0
 14 16  2  0  0  0  0
 15 14  1  0  0  0  0
 17 18  1  0  0  0  0
 18 14  1  0  0  0  0
 19  4  1  0  0  0  0
 20 19  1  0  0  0  0
 21 20  1  0  0  0  0
 23 22  1  1  0  0  0
 23 21  1  0  0  0  0
 24 26  1  0  0  0  0
 24 23  1  0  0  0  0
 25 26  2  0  0  0  0
 25 27  1  0  0  0  0
 27 29  2  0  0  0  0
 28 27  1  0  0  0  0
M  END
>  <MODEL>
3

>  <REMARK>
 VINA RESULT:      -5.9      2.421      4.551
  Name = 
  9 active torsions:
  status: ('A' for Active; 'I' for Inactive)
    1  A    between atoms: N_3  and  C_4
    2  A    between atoms: C_6  and  O_16
    3  A    between atoms: C_7  and  O_21
    4  A    between atoms: N_11  and  C_15
    5  A    between atoms: O_16  and  C_26
    6  A    between atoms: C_18  and  C_19
    7  A    between atoms: C_18  and  C_22
    8  A    between atoms: C_19  and  C_29
    9  A    between atoms: C_26  and  C_29
                            x       y       z     vdW  Elec       q    Type
                         _______ _______ _______ _____ _____    ______ ____

>  <TORSDO>
F 9

$$$$
=
 OpenBabel11042416503D

 29 30  0  0  1  0  0  0  0  0999 V2000
  189.9620  176.3600  146.4420 C   0  0  1  0  0  3  0  0  0  0  0  0
  190.8460  174.9800  142.2520 C   0  0  0  0  0  3  0  0  0  0  0  0
  192.5040  176.2210  146.4050 N   0  0  0  0  0  0  0  0  0  0  0  0
  188.5430  175.4350  143.0540 C   0  0  0  0  0  0  0  0  0  0  0  0
  189.4430  177.6230  146.7300 O   0  0  0  0  0  1  0  0  0  0  0  0
  188.7880  176.0840  144.2090 C   0  0  0  0  0  3  0  0  0  0  0  0
  191.3850  176.2380  142.8390 C   0  0  0  0  0  2  0  0  0  0  0  0
  191.3080  176.0460  148.3920 O   0  0  0  0  0  0  0  0  0  0  0  0
  189.5560  174.6280  142.3290 C   0  0  0  0  0  0  0  0  0  0  0  0
  192.5160  176.2460  145.1080 C   0  0  0  0  0  3  0  0  0  0  0  0
  191.2680  176.2140  144.3250 C   0  0  0  0  0  0  0  0  0  0  0  0
  190.0690  176.1850  144.9440 C   0  0  0  0  0  0  0  0  0  0  0  0
  191.2800  176.1880  147.1420 C   0  0  0  0  0  0  0  0  0  0  0  0
  188.8990  173.2370  140.2900 C   0  0  0  0  0  0  0  0  0  0  0  0
  189.1090  173.4200  141.6980 N   0  0  0  0  0  2  0  0  0  0  0  0
  189.2330  172.1470  139.7600 O   0  0  0  0  0  0  0  0  0  0  0  0
  188.2830  174.1570  138.0810 C   0  0  0  0  0  1  0  0  0  0  0  0
  188.2920  174.2160  139.5000 O   0  0  0  0  0  0  0  0  0  0  0  0
  187.2540  175.4640  142.5040 O   0  0  0  0  0  0  0  0  0  0  0  0
  186.6210  176.6540  142.0510 C   0  0  0  0  0  2  0  0  0  0  0  0
  185.5600  177.0740  143.0550 C   0  0  0  0  0  2  0  0  0  0  0  0
  183.6080  178.4350  142.7530 O   0  0  0  0  0  1  0  0  0  0  0  0
  185.0050  178.4650  142.7620 C   0  0  1  0  0  3  0  0  0  0  0  0
  185.5080  179.4960  143.7660 C   0  0  0  0  0  2  0  0  0  0  0  0
  185.5340  178.9950  146.1310 N   0  0  0  0  0  0  0  0  0  0  0  0
  186.0770  178.8220  144.9690 C   0  0  0  0  0  3  0  0  0  0  0  0
  186.0410  178.3630  147.3090 C   0  0  0  0  0  0  0  0  0  0  0  0
  186.7320  179.1830  148.3390 C   0  0  0  0  0  1  0  0  0  0  0  0
  185.9060  177.1210  147.4890 O   0  0  0  0  0  0  0  0  0  0  0  0
  1  5  1  6  0  0  0
  1 13  1  0  0  0  0
  2  9  2  0  0  0  0
  2  7  1  0  0  0  0
  3 13  1  0  0  0  0
  4  6  2  0  0  0  0
  6 12  1  0  0  0  0
  7 11  1  0  0  0  0
  9  4  1  0  0  0  0
 10  3  2  0  0  0  0
 11 12  2  0  0  0  0
 11 10  1  0  0  0  0
 12  1  1  0  0  0  0
 13  8  2  0  0  0  0
 14 15  1  0  0  0  0
 15  9  1  0  0  0  0
 16 14  2  0  0  0  0
 17 18  1  0  0  0  0
 18 14  1  0  0  0  0
 19  4  1  0  0  0  0
 20 19  1  0  0  0  0
 20 21  1  0  0  0  0
 23 22  1  1  0  0  0
 23 21  1  0  0  0  0
 23 24  1  0  0  0  0
 24 26  1  0  0  0  0
 25 27  1  0  0  0  0
 26 25  2  0  0  0  0
 27 29  2  0  0  0  0
 27 28  1  0  0  0  0
M  END
>  <MODEL>
4

>  <REMARK>
 VINA RESULT:      -5.8      2.251      5.666
  Name = 
  9 active torsions:
  status: ('A' for Active; 'I' for Inactive)
    1  A    between atoms: N_3  and  C_4
    2  A    between atoms: C_6  and  O_16
    3  A    between atoms: C_7  and  O_21
    4  A    between atoms: N_11  and  C_15
    5  A    between atoms: O_16  and  C_26
    6  A    between atoms: C_18  and  C_19
    7  A    between atoms: C_18  and  C_22
    8  A    between atoms: C_19  and  C_29
    9  A    between atoms: C_26  and  C_29
                            x       y       z     vdW  Elec       q    Type
                         _______ _______ _______ _____ _____    ______ ____

>  <TORSDO>
F 9

$$$$
=
 OpenBabel11042416503D

 29 30  0  0  1  0  0  0  0  0999 V2000
  191.9110  176.0750  146.5410 C   0  0  1  0  0  3  0  0  0  0  0  0
  189.7730  177.2480  142.7600 C   0  0  0  0  0  3  0  0  0  0  0  0
  193.8060  176.8310  145.0180 N   0  0  0  0  0  0  0  0  0  0  0  0
  188.5770  176.4640  144.7870 C   0  0  0  0  0  0  0  0  0  0  0  0
  191.7900  176.7900  147.7330 O   0  0  0  0  0  1  0  0  0  0  0  0
  189.5550  176.5230  145.7110 C   0  0  0  0  0  3  0  0  0  0  0  0
  190.6480  178.1710  143.5350 C   0  0  0  0  0  2  0  0  0  0  0  0
  194.1750  175.3410  146.7650 O   0  0  0  0  0  0  0  0  0  0  0  0
  188.8210  176.4940  143.3230 C   0  0  0  0  0  0  0  0  0  0  0  0
  192.9770  177.4740  144.2550 C   0  0  0  0  0  3  0  0  0  0  0  0
  191.5200  177.4030  144.4700 C   0  0  0  0  0  0  0  0  0  0  0  0
  191.0100  176.6830  145.4910 C   0  0  0  0  0  0  0  0  0  0  0  0
  193.3530  176.0430  146.1200 C   0  0  0  0  0  0  0  0  0  0  0  0
  188.3300  174.3540  142.0170 C   0  0  0  0  0  0  0  0  0  0  0  0
  187.9910  175.6630  142.5000 N   0  0  0  0  0  2  0  0  0  0  0  0
  187.4400  173.4660  141.9860 O   0  0  0  0  0  0  0  0  0  0  0  0
  189.8310  173.1110  140.5000 C   0  0  0  0  0  1  0  0  0  0  0  0
  189.6070  174.0510  141.5390 O   0  0  0  0  0  0  0  0  0  0  0  0
  187.2450  176.3180  145.1980 O   0  0  0  0  0  0  0  0  0  0  0  0
  186.7180  176.9160  146.3760 C   0  0  0  0  0  2  0  0  0  0  0  0
  185.2030  176.7910  146.3690 C   0  0  0  0  0  2  0  0  0  0  0  0
  184.3600  178.8240  147.3240 O   0  0  0  0  0  1  0  0  0  0  0  0
  184.5140  178.1300  146.1210 C   0  0  1  0  0  3  0  0  0  0  0  0
  185.2780  178.9790  145.1110 C   0  0  0  0  0  2  0  0  0  0  0  0
  185.7630  178.5910  142.7750 N   0  0  0  0  0  0  0  0  0  0  0  0
  184.8780  178.6260  143.7190 C   0  0  0  0  0  3  0  0  0  0  0  0
  185.4250  178.2500  141.4280 C   0  0  0  0  0  0  0  0  0  0  0  0
  184.0010  178.2940  140.9990 C   0  0  0  0  0  1  0  0  0  0  0  0
  186.3160  177.9200  140.5980 O   0  0  0  0  0  0  0  0  0  0  0  0
  1  5  1  1  0  0  0
  2  9  2  0  0  0  0
  2  7  1  0  0  0  0
  3 13  1  0  0  0  0
  4 19  1  0  0  0  0
  4  6  2  0  0  0  0
  7 11  1  0  0  0  0
  9  4  1  0  0  0  0
 10 11  1  0  0  0  0
 10  3  2  0  0  0  0
 11 12  2  0  0  0  0
 12  6  1  0  0  0  0
 12  1  1  0  0  0  0
 13  1  1  0  0  0  0
 13  8  2  0  0  0  0
 14 15  1  0  0  0  0
 15  9  1  0  0  0  0
 16 14  2  0  0  0  0
 17 18  1  0  0  0  0
 18 14  1  0  0  0  0
 19 20  1  0  0  0  0
 21 20  1  0  0  0  0
 23 21  1  0  0  0  0
 23 22  1  1  0  0  0
 24 23  1  0  0  0  0
 25 26  2  0  0  0  0
 26 24  1  0  0  0  0
 27 25  1  0  0  0  0
 28 27  1  0  0  0  0
 29 27  2  0  0  0  0
M  END
>  <MODEL>
5

>  <REMARK>
 VINA RESULT:      -5.7      2.200      5.485
  Name = 
  9 active torsions:
  status: ('A' for Active; 'I' for Inactive)
    1  A    between atoms: N_3  and  C_4
    2  A    between atoms: C_6  and  O_16
    3  A    between atoms: C_7  and  O_21
    4  A    between atoms: N_11  and  C_15
    5  A    between atoms: O_16  and  C_26
    6  A    between atoms: C_18  and  C_19
    7  A    between atoms: C_18  and  C_22
    8  A    between atoms: C_19  and  C_29
    9  A    between atoms: C_26  and  C_29
                            x       y       z     vdW  Elec       q    Type
                         _______ _______ _______ _____ _____    ______ ____

>  <TORSDO>
F 9

$$$$
=
 OpenBabel11042416503D

 29 30  0  0  1  0  0  0  0  0999 V2000
  194.3690  175.8360  142.0810 C   0  0  1  0  0  3  0  0  0  0  0  0
  192.2350  176.0970  146.0330 C   0  0  0  0  0  3  0  0  0  0  0  0
  196.2630  176.2450  143.7310 N   0  0  0  0  0  0  0  0  0  0  0  0
  191.0550  175.6230  143.9030 C   0  0  0  0  0  0  0  0  0  0  0  0
  194.4680  174.6510  141.3490 O   0  0  0  0  0  1  0  0  0  0  0  0
  192.0890  175.3490  143.0830 C   0  0  0  0  0  3  0  0  0  0  0  0
  193.3210  175.1190  145.7430 C   0  0  0  0  0  2  0  0  0  0  0  0
  196.4620  176.8250  141.4880 O   0  0  0  0  0  0  0  0  0  0  0  0
  191.1990  176.3070  145.2120 C   0  0  0  0  0  0  0  0  0  0  0  0
  195.5190  175.8660  144.7240 C   0  0  0  0  0  3  0  0  0  0  0  0
  194.0940  175.5390  144.5380 C   0  0  0  0  0  0  0  0  0  0  0  0
  193.5280  175.6020  143.3150 C   0  0  0  0  0  0  0  0  0  0  0  0
  195.7450  176.3420  142.4030 C   0  0  0  0  0  0  0  0  0  0  0  0
  189.1210  176.9880  146.5320 C   0  0  0  0  0  0  0  0  0  0  0  0
  190.1720  177.2360  145.5870 N   0  0  0  0  0  2  0  0  0  0  0  0
  188.7770  177.9080  147.3170 O   0  0  0  0  0  0  0  0  0  0  0  0
  188.9410  174.6350  147.2630 C   0  0  0  0  0  1  0  0  0  0  0  0
  188.4370  175.7700  146.5750 O   0  0  0  0  0  0  0  0  0  0  0  0
  189.7510  175.2980  143.5050 O   0  0  0  0  0  0  0  0  0  0  0  0
  189.3350  175.2490  142.1460 C   0  0  0  0  0  2  0  0  0  0  0  0
  188.1080  176.1270  141.9630 C   0  0  0  0  0  2  0  0  0  0  0  0
  189.1380  178.2920  141.8970 O   0  0  0  0  0  1  0  0  0  0  0  0
  188.2660  177.4880  142.6350 C   0  0  1  0  0  3  0  0  0  0  0  0
  186.9240  178.1870  142.8160 C   0  0  0  0  0  2  0  0  0  0  0  0
  186.1160  178.5870  145.0590 N   0  0  0  0  0  0  0  0  0  0  0  0
  186.2720  177.7500  144.0830 C   0  0  0  0  0  3  0  0  0  0  0  0
  185.4890  178.2130  146.2890 C   0  0  0  0  0  0  0  0  0  0  0  0
  185.1160  176.7910  146.5160 C   0  0  0  0  0  1  0  0  0  0  0  0
  185.2540  179.0700  147.1850 O   0  0  0  0  0  0  0  0  0  0  0  0
  1  5  1  1  0  0  0
  1 13  1  0  0  0  0
  1 12  1  0  0  0  0
  3 10  2  0  0  0  0
  4  9  1  0  0  0  0
  6 12  1  0  0  0  0
  6  4  2  0  0  0  0
  7  2  1  0  0  0  0
  8 13  2  0  0  0  0
  9 15  1  0  0  0  0
  9  2  2  0  0  0  0
 11 10  1  0  0  0  0
 11  7  1  0  0  0  0
 12 11  2  0  0  0  0
 13  3  1  0  0  0  0
 14 18  1  0  0  0  0
 14 16  2  0  0  0  0
 15 14  1  0  0  0  0
 18 17  1  0  0  0  0
 19  4  1  0  0  0  0
 20 19  1  0  0  0  0
 21 20  1  0  0  0  0
 21 23  1  0  0  0  0
 23 22  1  6  0  0  0
 23 24  1  0  0  0  0
 24 26  1  0  0  0  0
 25 27  1  0  0  0  0
 26 25  2  0  0  0  0
 27 28  1  0  0  0  0
 27 29  2  0  0  0  0
M  END
>  <MODEL>
6

>  <REMARK>
 VINA RESULT:      -5.7      2.657      4.859
  Name = 
  9 active torsions:
  status: ('A' for Active; 'I' for Inactive)
    1  A    between atoms: N_3  and  C_4
    2  A    between atoms: C_6  and  O_16
    3  A    between atoms: C_7  and  O_21
    4  A    between atoms: N_11  and  C_15
    5  A    between atoms: O_16  and  C_26
    6  A    between atoms: C_18  and  C_19
    7  A    between atoms: C_18  and  C_22
    8  A    between atoms: C_19  and  C_29
    9  A    between atoms: C_26  and  C_29
                            x       y       z     vdW  Elec       q    Type
                         _______ _______ _______ _____ _____    ______ ____

>  <TORSDO>
F 9

$$$$
=
 OpenBabel11042416503D

 29 30  0  0  1  0  0  0  0  0999 V2000
  189.3680  173.4530  142.7060 C   0  0  1  0  0  3  0  0  0  0  0  0
  188.9830  177.9280  142.4440 C   0  0  0  0  0  3  0  0  0  0  0  0
  191.6850  174.1870  141.9480 N   0  0  0  0  0  0  0  0  0  0  0  0
  187.1290  176.4670  143.2080 C   0  0  0  0  0  0  0  0  0  0  0  0
  189.3340  172.7590  143.9160 O   0  0  0  0  0  1  0  0  0  0  0  0
  187.7750  175.3010  143.4050 C   0  0  0  0  0  3  0  0  0  0  0  0
  189.9890  177.2340  143.2950 C   0  0  0  0  0  2  0  0  0  0  0  0
  190.8840  172.0490  141.5040 O   0  0  0  0  0  0  0  0  0  0  0  0
  187.6860  177.5970  142.4220 C   0  0  0  0  0  0  0  0  0  0  0  0
  191.4640  175.4010  142.3490 C   0  0  0  0  0  3  0  0  0  0  0  0
  190.1470  175.8140  142.8650 C   0  0  0  0  0  0  0  0  0  0  0  0
  189.1350  174.9250  142.9580 C   0  0  0  0  0  0  0  0  0  0  0  0
  190.6700  173.1820  142.0090 C   0  0  0  0  0  0  0  0  0  0  0  0
  186.1850  177.8960  140.3780 C   0  0  0  0  0  0  0  0  0  0  0  0
  186.7740  178.3450  141.6070 N   0  0  0  0  0  2  0  0  0  0  0  0
  184.9830  178.1770  140.1380 O   0  0  0  0  0  0  0  0  0  0  0  0
  186.3150  176.5640  138.3010 C   0  0  0  0  0  1  0  0  0  0  0  0
  186.9210  177.1950  139.4180 O   0  0  0  0  0  0  0  0  0  0  0  0
  185.8370  176.6380  143.7220 O   0  0  0  0  0  0  0  0  0  0  0  0
  185.5600  176.8250  145.1040 C   0  0  0  0  0  2  0  0  0  0  0  0
  186.2980  178.0570  145.6030 C   0  0  0  0  0  2  0  0  0  0  0  0
  186.2500  178.0250  148.0010 O   0  0  0  0  0  1  0  0  0  0  0  0
  187.0670  177.7870  146.8930 C   0  0  1  0  0  3  0  0  0  0  0  0
  187.6190  176.3670  146.9350 C   0  0  0  0  0  2  0  0  0  0  0  0
  189.7300  175.2660  146.5170 N   0  0  0  0  0  0  0  0  0  0  0  0
  189.0970  176.3730  146.7450 C   0  0  0  0  0  3  0  0  0  0  0  0
  191.1460  175.2260  146.3210 C   0  0  0  0  0  0  0  0  0  0  0  0
  191.9880  176.3320  146.8500 C   0  0  0  0  0  1  0  0  0  0  0  0
  191.6910  174.2640  145.7120 O   0  0  0  0  0  0  0  0  0  0  0  0
  1 12  1  0  0  0  0
  1  5  1  1  0  0  0
  2  7  1  0  0  0  0
  3 13  1  0  0  0  0
  3 10  2  0  0  0  0
  4  6  2  0  0  0  0
  4 19  1  0  0  0  0
  8 13  2  0  0  0  0
  9  2  2  0  0  0  0
  9  4  1  0  0  0  0
 10 11  1  0  0  0  0
 11 12  2  0  0  0  0
 11  7  1  0  0  0  0
 12  6  1  0  0  0  0
 13  1  1  0  0  0  0
 14 15  1  0  0  0  0
 15  9  1  0  0  0  0
 16 14  2  0  0  0  0
 17 18  1  0  0  0  0
 18 14  1  0  0  0  0
 19 20  1  0  0  0  0
 20 21  1  0  0  0  0
 21 23  1  0  0  0  0
 23 24  1  0  0  0  0
 23 22  1  1  0  0  0
 25 26  2  0  0  0  0
 26 24  1  0  0  0  0
 27 25  1  0  0  0  0
 27 28  1  0  0  0  0
 29 27  2  0  0  0  0
M  END
>  <MODEL>
7

>  <REMARK>
 VINA RESULT:      -5.7      2.131      5.013
  Name = 
  9 active torsions:
  status: ('A' for Active; 'I' for Inactive)
    1  A    between atoms: N_3  and  C_4
    2  A    between atoms: C_6  and  O_16
    3  A    between atoms: C_7  and  O_21
    4  A    between atoms: N_11  and  C_15
    5  A    between atoms: O_16  and  C_26
    6  A    between atoms: C_18  and  C_19
    7  A    between atoms: C_18  and  C_22
    8  A    between atoms: C_19  and  C_29
    9  A    between atoms: C_26  and  C_29
                            x       y       z     vdW  Elec       q    Type
                         _______ _______ _______ _____ _____    ______ ____

>  <TORSDO>
F 9

$$$$
=
 OpenBabel11042416503D

 29 30  0  0  1  0  0  0  0  0999 V2000
  194.0930  175.1590  144.7850 C   0  0  1  0  0  3  0  0  0  0  0  0
  190.2680  176.1750  146.9250 C   0  0  0  0  0  3  0  0  0  0  0  0
  194.7010  177.2620  146.0840 N   0  0  0  0  0  0  0  0  0  0  0  0
  190.5050  174.1670  145.4880 C   0  0  0  0  0  0  0  0  0  0  0  0
  194.8570  174.0330  145.0930 O   0  0  0  0  0  1  0  0  0  0  0  0
  191.8420  174.1170  145.3210 C   0  0  0  0  0  3  0  0  0  0  0  0
  191.5630  175.9310  147.6190 C   0  0  0  0  0  2  0  0  0  0  0  0
  195.8500  176.6530  144.1570 O   0  0  0  0  0  0  0  0  0  0  0  0
  189.7780  175.3640  145.9790 C   0  0  0  0  0  0  0  0  0  0  0  0
  193.6870  177.1020  146.8780 C   0  0  0  0  0  3  0  0  0  0  0  0
  192.6980  176.0310  146.6560 C   0  0  0  0  0  0  0  0  0  0  0  0
  192.8390  175.1670  145.6290 C   0  0  0  0  0  0  0  0  0  0  0  0
  194.9250  176.3950  144.9710 C   0  0  0  0  0  0  0  0  0  0  0  0
  187.6330  176.7310  145.7520 C   0  0  0  0  0  0  0  0  0  0  0  0
  188.5010  175.6470  145.3910 N   0  0  0  0  0  2  0  0  0  0  0  0
  187.0090  177.3410  144.8460 O   0  0  0  0  0  0  0  0  0  0  0  0
  186.1500  177.4720  147.5840 C   0  0  0  0  0  1  0  0  0  0  0  0
  187.4250  177.1000  147.0840 O   0  0  0  0  0  0  0  0  0  0  0  0
  189.7230  173.0570  145.1430 O   0  0  0  0  0  0  0  0  0  0  0  0
  190.0020  172.2170  144.0290 C   0  0  0  0  0  2  0  0  0  0  0  0
  188.8490  172.2920  143.0420 C   0  0  0  0  0  2  0  0  0  0  0  0
  188.1960  173.3950  141.0140 O   0  0  0  0  0  1  0  0  0  0  0  0
  189.2860  172.8290  141.6820 C   0  0  1  0  0  3  0  0  0  0  0  0
  190.4140  173.8450  141.8130 C   0  0  0  0  0  2  0  0  0  0  0  0
  190.6070  176.1380  142.5550 N   0  0  0  0  0  0  0  0  0  0  0  0
  189.8650  175.2130  142.0330 C   0  0  0  0  0  3  0  0  0  0  0  0
  190.1230  177.4660  142.7760 C   0  0  0  0  0  0  0  0  0  0  0  0
  190.7430  178.3010  143.8390 C   0  0  0  0  0  1  0  0  0  0  0  0
  189.1840  177.9390  142.0790 O   0  0  0  0  0  0  0  0  0  0  0  0
  1 13  1  0  0  0  0
  1  5  1  1  0  0  0
  1 12  1  0  0  0  0
  2  7  1  0  0  0  0
  3 10  2  0  0  0  0
  4  9  1  0  0  0  0
  6  4  2  0  0  0  0
  6 12  1  0  0  0  0
  8 13  2  0  0  0  0
  9  2  2  0  0  0  0
 11 10  1  0  0  0  0
 11  7  1  0  0  0  0
 12 11  2  0  0  0  0
 13  3  1  0  0  0  0
 14 18  1  0  0  0  0
 15 14  1  0  0  0  0
 15  9  1  0  0  0  0
 16 14  2  0  0  0  0
 18 17  1  0  0  0  0
 19  4  1  0  0  0  0
 20 19  1  0  0  0  0
 21 20  1  0  0  0  0
 23 22  1  1  0  0  0
 23 24  1  0  0  0  0
 23 21  1  0  0  0  0
 24 26  1  0  0  0  0
 25 27  1  0  0  0  0
 26 25  2  0  0  0  0
 27 28  1  0  0  0  0
 29 27  2  0  0  0  0
M  END
>  <MODEL>
8

>  <REMARK>
 VINA RESULT:      -5.7      2.167      3.751
  Name = 
  9 active torsions:
  status: ('A' for Active; 'I' for Inactive)
    1  A    between atoms: N_3  and  C_4
    2  A    between atoms: C_6  and  O_16
    3  A    between atoms: C_7  and  O_21
    4  A    between atoms: N_11  and  C_15
    5  A    between atoms: O_16  and  C_26
    6  A    between atoms: C_18  and  C_19
    7  A    between atoms: C_18  and  C_22
    8  A    between atoms: C_19  and  C_29
    9  A    between atoms: C_26  and  C_29
                            x       y       z     vdW  Elec       q    Type
                         _______ _______ _______ _____ _____    ______ ____

>  <TORSDO>
F 9

$$$$
=
 OpenBabel11042416503D

 29 30  0  0  1  0  0  0  0  0999 V2000
  188.9600  173.5060  143.2220 C   0  0  1  0  0  3  0  0  0  0  0  0
  188.8980  177.6990  144.8500 C   0  0  0  0  0  3  0  0  0  0  0  0
  188.4220  174.9120  141.1700 N   0  0  0  0  0  0  0  0  0  0  0  0
  189.4410  175.7270  146.2530 C   0  0  0  0  0  0  0  0  0  0  0  0
  190.1270  172.7460  143.1290 O   0  0  0  0  0  1  0  0  0  0  0  0
  189.6270  174.7780  145.3140 C   0  0  0  0  0  3  0  0  0  0  0  0
  189.7880  177.2570  143.7410 C   0  0  0  0  0  2  0  0  0  0  0  0
  187.8080  172.6730  141.3000 O   0  0  0  0  0  0  0  0  0  0  0  0
  188.7600  177.0200  145.9950 C   0  0  0  0  0  0  0  0  0  0  0  0
  188.8670  175.9840  141.7510 C   0  0  0  0  0  3  0  0  0  0  0  0
  189.2990  175.9730  143.1590 C   0  0  0  0  0  0  0  0  0  0  0  0
  189.2680  174.8310  143.8790 C   0  0  0  0  0  0  0  0  0  0  0  0
  188.3530  173.6620  141.8570 C   0  0  0  0  0  0  0  0  0  0  0  0
  186.5130  177.8170  146.9120 C   0  0  0  0  0  0  0  0  0  0  0  0
  187.9160  177.5380  147.0320 N   0  0  0  0  0  2  0  0  0  0  0  0
  185.7520  177.5460  147.8750 O   0  0  0  0  0  0  0  0  0  0  0  0
  184.8170  177.9250  145.1180 C   0  0  0  0  0  1  0  0  0  0  0  0
  185.9750  178.4210  145.7730 O   0  0  0  0  0  0  0  0  0  0  0  0
  189.8610  175.4900  147.5680 O   0  0  0  0  0  0  0  0  0  0  0  0
  191.2210  175.2900  147.9340 C   0  0  0  0  0  2  0  0  0  0  0  0
  191.9960  176.5780  147.7150 C   0  0  0  0  0  2  0  0  0  0  0  0
  194.1900  177.0780  146.8830 O   0  0  0  0  0  1  0  0  0  0  0  0
  192.9750  176.4730  146.5490 C   0  0  1  0  0  3  0  0  0  0  0  0
  193.2010  175.0250  146.1310 C   0  0  0  0  0  2  0  0  0  0  0  0
  192.8780  175.6140  143.8080 N   0  0  0  0  0  0  0  0  0  0  0  0
  193.5580  174.9460  144.6860 C   0  0  0  0  0  3  0  0  0  0  0  0
  193.1910  175.5740  142.4130 C   0  0  0  0  0  0  0  0  0  0  0  0
  192.4810  174.6080  141.5330 C   0  0  0  0  0  1  0  0  0  0  0  0
  194.0540  176.3500  141.9190 O   0  0  0  0  0  0  0  0  0  0  0  0
  1  5  1  6  0  0  0
  1 12  1  0  0  0  0
  2  9  2  0  0  0  0
  3 10  2  0  0  0  0
  3 13  1  0  0  0  0
  4 19  1  0  0  0  0
  6  4  2  0  0  0  0
  7  2  1  0  0  0  0
  8 13  2  0  0  0  0
  9  4  1  0  0  0  0
  9 15  1  0  0  0  0
 10 11  1  0  0  0  0
 11  7  1  0  0  0  0
 11 12  2  0  0  0  0
 12  6  1  0  0  0  0
 13  1  1  0  0  0  0
 14 15  1  0  0  0  0
 14 16  2  0  0  0  0
 17 18  1  0  0  0  0
 18 14  1  0  0  0  0
 19 20  1  0  0  0  0
 21 20  1  0  0  0  0
 23 22  1  1  0  0  0
 23 21  1  0  0  0  0
 24 23  1  0  0  0  0
 25 26  2  0  0  0  0
 26 24  1  0  0  0  0
 27 25  1  0  0  0  0
 28 27  1  0  0  0  0
 29 27  2  0  0  0  0
M  END
>  <MODEL>
9

>  <REMARK>
 VINA RESULT:      -5.7      2.040      5.018
  Name = 
  9 active torsions:
  status: ('A' for Active; 'I' for Inactive)
    1  A    between atoms: N_3  and  C_4
    2  A    between atoms: C_6  and  O_16
    3  A    between atoms: C_7  and  O_21
    4  A    between atoms: N_11  and  C_15
    5  A    between atoms: O_16  and  C_26
    6  A    between atoms: C_18  and  C_19
    7  A    between atoms: C_18  and  C_22
    8  A    between atoms: C_19  and  C_29
    9  A    between atoms: C_26  and  C_29
                            x       y       z     vdW  Elec       q    Type
                         _______ _______ _______ _____ _____    ______ ____

>  <TORSDO>
F 9

$$$$
