=
 OpenBabel11042414323D

 64 74  0  0  1  0  0  0  0  0999 V2000
  194.3230  174.6740  145.6340 C   0  0  0  0  0  0  0  0  0  0  0  0
  194.2650  175.6660  146.4820 C   0  0  0  0  0  3  0  0  0  0  0  0
  191.0740  170.4430  139.7040 N   0  0  0  0  0  0  0  0  0  0  0  0
  196.2800  172.2030  145.1530 C   0  0  0  0  0  0  0  0  0  0  0  0
  190.9200  171.9860  141.5650 C   0  0  2  0  0  3  0  0  0  0  0  0
  190.3380  171.5040  140.2800 C   0  0  0  0  0  0  0  0  0  0  0  0
  190.7290  172.6880  144.6480 O   0  0  0  0  0  1  0  0  0  0  0  0
  189.8850  174.3060  141.4960 C   0  0  0  0  0  2  0  0  0  0  0  0
  194.3780  173.7170  144.7480 C   0  0  0  0  0  3  0  0  0  0  0  0
  192.2990  170.3400  142.9430 C   0  0  0  0  0  2  0  0  0  0  0  0
  191.2070  173.5080  141.5970 C   0  0  2  0  0  0  0  0  0  0  0  0
  189.6000  175.7910  145.0990 C   0  0  1  0  0  3  0  0  0  0  0  0
  189.2630  171.9280  139.7840 O   0  0  0  0  0  0  0  0  0  0  0  0
  196.9780  171.6550  144.2020 N   0  0  0  0  0  0  0  0  0  0  0  0
  190.9160  175.4740  147.6960 O   0  0  0  0  0  1  0  0  0  0  0  0
  192.9540  171.1280  143.9860 N   0  0  0  0  0  0  0  0  0  0  0  0
  189.8090  174.7960  143.9370 C   0  0  2  0  0  3  0  0  0  0  0  0
  195.0900  170.9010  142.9730 N   0  0  0  0  0  0  0  0  0  0  0  0
  193.0350  177.3500  147.5680 O   0  0  0  0  0  0  0  0  0  0  0  0
  194.7730  172.3060  145.0710 C   0  0  1  0  0  3  0  0  0  0  0  0
  196.9570  172.7820  146.2630 N   0  0  0  0  0  1  0  0  0  0  0  0
  191.6670  175.6860  146.5340 C   0  0  2  0  0  3  0  0  0  0  0  0
  192.0940  173.9310  140.4260 C   0  0  0  0  0  1  0  0  0  0  0  0
  192.2040  171.1310  141.6440 C   0  0  1  0  0  3  0  0  0  0  0  0
  191.0570  173.9340  144.1280 C   0  0  2  0  0  3  0  0  0  0  0  0
  192.9930  176.2960  146.8800 C   0  0  0  0  0  0  0  0  0  0  0  0
  194.2240  171.3940  144.0050 C   0  0  0  0  0  0  0  0  0  0  0  0
  196.3770  171.0330  143.0600 C   0  0  0  0  0  3  0  0  0  0  0  0
  191.9580  173.8430  142.8890 C   0  0  0  0  0  2  0  0  0  0  0  0
  190.8840  176.5280  145.5290 C   0  0  0  0  0  2  0  0  0  0  0  0
  189.7540  175.4250  142.5380 C   0  0  0  0  0  2  0  0  0  0  0  0
  192.0870  170.2130  140.4660 C   0  0  0  0  0  0  0  0  0  0  0  0
  184.6340  178.9800  145.7590 C   0  0  0  0  0  3  0  0  0  0  0  0
  184.5510  179.0410  147.0550 N   0  0  0  0  0  0  0  0  0  0  0  0
  187.1530  176.5680  145.3570 C   0  0  2  0  0  3  0  0  0  0  0  0
  186.7980  176.4240  146.6390 C   0  0  0  0  0  2  0  0  0  0  0  0
  188.4690  176.6970  144.8500 N   0  0  2  0  0  0  0  0  0  0  0  0
  188.3930  177.5650  143.6660 C   0  0  0  0  0  2  0  0  0  0  0  0
  185.5070  177.1080  146.7040 C   0  0  2  0  0  3  0  0  0  0  0  0
  185.2390  177.7020  145.4310 C   0  0  2  0  0  3  0  0  0  0  0  0
  186.2410  177.3940  144.6310 C   0  0  1  0  0  3  0  0  0  0  0  0
  185.1550  177.9150  147.6450 N   0  0  0  0  0  2  0  0  0  0  0  0
  186.9970  178.2320  143.6720 C   0  0  0  0  0  2  0  0  0  0  0  0
  193.1810  168.8290  140.1700 S   0  0  0  0  0  0  0  0  0  0  0  0
  194.7740  170.8140  139.1590 C   0  0  2  0  0  3  0  0  0  0  0  0
  193.9730  169.6000  138.7310 C   0  0  2  0  0  3  0  0  0  0  0  0
  193.3800  170.9800  138.5820 C   0  0  0  0  0  2  0  0  0  0  0  0
  196.2930  172.6310  138.1700 C   0  0  2  0  0  0  0  0  0  0  0  0
  197.1070  171.4850  138.7580 C   0  0  2  0  0  3  0  0  0  0  0  0
  196.9230  170.2140  137.9660 C   0  0  0  0  0  2  0  0  0  0  0  0
  195.7760  171.1920  138.0770 C   0  0  1  0  0  0  0  0  0  0  0  0
  196.6520  173.1890  136.7940 C   0  0  2  0  0  3  0  0  0  0  0  0
  197.9410  173.7250  136.8190 O   0  0  0  0  0  1  0  0  0  0  0  0
  194.6860  173.7220  135.2340 C   0  0  0  0  0  0  0  0  0  0  0  0
  193.2430  174.2090  135.3320 C   0  0  0  0  0  1  0  0  0  0  0  0
  194.9240  172.3350  134.6450 C   0  0  0  0  0  1  0  0  0  0  0  0
  195.5990  174.2260  136.3550 C   0  0  2  0  0  3  0  0  0  0  0  0
  195.7900  174.7290  134.9250 C   0  0  2  0  0  3  0  0  0  0  0  0
  196.4420  177.1160  135.1420 C   0  0  0  0  0  1  0  0  0  0  0  0
  195.2990  176.1700  134.8400 C   0  0  0  0  0  2  0  0  0  0  0  0
  195.5340  173.4490  139.0400 O   0  0  0  0  0  0  0  0  0  0  0  0
  195.6220  174.0670  141.3280 C   0  0  0  0  0  1  0  0  0  0  0  0
  196.3870  173.9780  140.0190 C   0  0  0  0  0  3  0  0  0  0  0  0
  196.8130  175.3800  139.6230 C   0  0  0  0  0  1  0  0  0  0  0  0
  1  2  2  0  0  0  0
  2 26  1  0  0  0  0
  3  6  1  0  0  0  0
  3 32  2  0  0  0  0
  4 21  1  0  0  0  0
  5  6  1  6  0  0  0
  5 11  1  0  0  0  0
  5 24  1  0  0  0  0
  8 11  1  0  0  0  0
  8 31  1  0  0  0  0
  9  1  2  0  0  0  0
 10 16  1  0  0  0  0
 11 23  1  6  0  0  0
 11 29  1  0  0  0  0
 12 30  1  6  0  0  0
 13  6  2  0  0  0  0
 14  4  2  0  0  0  0
 16 27  2  0  0  0  0
 17 31  1  6  0  0  0
 17 25  1  0  0  0  0
 17 12  1  0  0  0  0
 18 28  2  0  0  0  0
 18 27  1  0  0  0  0
 20  9  1  6  0  0  0
 20  4  1  0  0  0  0
 22 26  1  0  0  0  0
 22 15  1  1  0  0  0
 24 10  1  1  0  0  0
 25  7  1  6  0  0  0
 26 19  2  0  0  0  0
 27 20  1  0  0  0  0
 28 14  1  0  0  0  0
 29 25  1  0  0  0  0
 30 22  1  0  0  0  0
 32 24  1  0  0  0  0
 33 34  2  0  0  0  0
 34 42  1  0  0  0  0
 35 36  1  1  0  0  0
 37 38  1  6  0  0  0
 37 12  1  0  0  0  0
 37 35  1  0  0  0  0
 38 43  1  0  0  0  0
 39 36  1  6  0  0  0
 39 42  1  0  0  0  0
 40 33  1  1  0  0  0
 40 39  1  0  0  0  0
 41 43  1  1  0  0  0
 41 35  1  0  0  0  0
 41 40  1  0  0  0  0
 44 32  1  0  0  0  0
 45 47  1  6  0  0  0
 46 45  1  0  0  0  0
 46 44  1  1  0  0  0
 47 46  1  0  0  0  0
 48 49  1  0  0  0  0
 48 61  1  1  0  0  0
 49 50  1  6  0  0  0
 51 50  1  6  0  0  0
 51 48  1  0  0  0  0
 51 49  1  0  0  0  0
 51 45  1  0  0  0  0
 52 53  1  1  0  0  0
 52 48  1  0  0  0  0
 54 55  1  0  0  0  0
 54 57  1  0  0  0  0
 56 54  1  0  0  0  0
 57 52  1  6  0  0  0
 58 60  1  1  0  0  0
 58 54  1  0  0  0  0
 58 57  1  0  0  0  0
 60 59  1  0  0  0  0
 61 63  1  0  0  0  0
 63 62  1  0  0  0  0
 64 63  1  0  0  0  0
M  END
>  <MODEL>
1

>  <REMARK>
 VINA RESULT:      -8.5      0.000      0.000
  Name = 
  9 active torsions:
  status: ('A' for Active; 'I' for Inactive)
    1  A    between atoms: O_6  and  C_19
    2  A    between atoms: O_6  and  C_21
    3  A    between atoms: C_14  and  C_19
    4  A    between atoms: C_14  and  C_57
    5  A    between atoms: C_22  and  N_30
    6  A    between atoms: C_24  and  C_51
    7  A    between atoms: C_41  and  C_64
    8  A    between atoms: S_52  and  C_60
    9  A    between atoms: S_52  and  C_63
                            x       y       z     vdW  Elec       q    Type
                         _______ _______ _______ _____ _____    ______ ____

>  <TORSDO>
F 9

$$$$
