=
 OpenBabel11042418243D

 28 32  0  0  1  0  0  0  0  0999 V2000
  188.8630  177.8300  144.0000 C   0  0  1  0  0  3  0  0  0  0  0  0
  184.8970  178.1390  143.0070 O   0  0  0  0  0  0  0  0  0  0  0  0
  186.0760  177.5200  143.4110 C   0  0  1  0  0  0  0  0  0  0  0  0
  188.2660  177.5180  146.8080 S   0  0  0  0  0  0  0  0  0  0  0  0
  186.5620  178.3840  141.3730 O   0  0  0  0  0  0  0  0  0  0  0  0
  188.3550  177.6030  142.6850 O   0  0  0  0  0  0  0  0  0  0  0  0
  184.5180  178.1480  146.3170 C   0  0  0  0  0  1  0  0  0  0  0  0
  185.2000  178.6080  141.6950 C   0  0  1  0  0  3  0  0  0  0  0  0
  186.5680  177.0070  147.0980 C   0  0  0  0  0  0  0  0  0  0  0  0
  186.0170  176.0230  143.0730 C   0  0  0  0  0  1  0  0  0  0  0  0
  187.1110  178.2550  142.6340 C   0  0  2  0  0  3  0  0  0  0  0  0
  186.2410  176.4380  148.1270 O   0  0  0  0  0  0  0  0  0  0  0  0
  187.9010  177.2150  145.0600 C   0  0  1  0  0  3  0  0  0  0  0  0
  185.6200  177.1710  145.9520 C   0  0  2  0  0  3  0  0  0  0  0  0
  186.4860  177.7620  144.8570 C   0  0  2  0  0  3  0  0  0  0  0  0
  191.3500  178.2840  143.8530 C   0  0  0  0  0  1  0  0  0  0  0  0
  190.2770  177.2380  144.1140 C   0  0  2  0  0  3  0  0  0  0  0  0
  190.3260  174.7140  143.5780 C   0  0  0  0  0  0  0  0  0  0  0  0
  190.5420  173.7570  142.6340 N   0  0  0  0  0  0  0  0  0  0  0  0
  189.9760  174.3310  144.8810 C   0  0  0  0  0  3  0  0  0  0  0  0
  190.4680  176.0950  143.2180 N   0  0  0  0  0  2  0  0  0  0  0  0
  190.0800  172.0160  144.2020 C   0  0  0  0  0  3  0  0  0  0  0  0
  190.4270  172.4310  142.9150 C   0  0  0  0  0  3  0  0  0  0  0  0
  189.8530  172.9750  145.1890 C   0  0  0  0  0  3  0  0  0  0  0  0
  184.2990  177.9190  140.6830 C   0  0  0  0  0  2  0  0  0  0  0  0
  182.9390  178.5880  140.6460 C   0  0  0  0  0  3  0  0  0  0  0  0
  182.0360  177.7570  140.0210 O   0  0  0  0  0  0  0  0  0  0  0  0
  182.0360  177.8340  141.3610 O   0  0  0  0  0  0  0  0  0  0  0  0
  1 17  1  6  0  0  0
  1 13  1  0  0  0  0
  2  3  1  0  0  0  0
  3 10  1  6  0  0  0
  3 15  1  0  0  0  0
  4  9  1  0  0  0  0
  5  8  1  0  0  0  0
  6  1  1  0  0  0  0
  8 25  1  6  0  0  0
  8  2  1  0  0  0  0
  9 12  2  0  0  0  0
 11  5  1  6  0  0  0
 11  6  1  0  0  0  0
 11  3  1  0  0  0  0
 13  4  1  1  0  0  0
 14  7  1  1  0  0  0
 14  9  1  0  0  0  0
 15 13  1  0  0  0  0
 15 14  1  0  0  0  0
 16 17  1  0  0  0  0
 18 20  1  0  0  0  0
 19 23  1  0  0  0  0
 19 18  2  0  0  0  0
 20 24  2  0  0  0  0
 21 18  1  0  0  0  0
 21 17  1  0  0  0  0
 22 24  1  0  0  0  0
 23 22  2  0  0  0  0
 26 25  1  0  0  0  0
 26 28  1  0  0  0  0
 27 26  1  0  0  0  0
 27 28  1  0  0  0  0
M  END
>  <MODEL>
1

>  <REMARK>
 VINA RESULT:      -7.4      0.000      0.000
  Name = 
  4 active torsions:
  status: ('A' for Active; 'I' for Inactive)
    1  A    between atoms: C_1  and  C_17
    2  A    between atoms: C_9  and  C_19
    3  A    between atoms: N_12  and  C_17
    4  A    between atoms: C_14  and  C_19
                            x       y       z     vdW  Elec       q    Type
                         _______ _______ _______ _____ _____    ______ ____

>  <TORSDO>
F 4

$$$$
=
 OpenBabel11042418243D

 28 32  0  0  1  0  0  0  0  0999 V2000
  190.1610  175.2230  146.2800 C   0  0  1  0  0  3  0  0  0  0  0  0
  186.6310  176.4710  144.6090 O   0  0  0  0  0  0  0  0  0  0  0  0
  188.0030  176.4400  144.8400 C   0  0  1  0  0  0  0  0  0  0  0  0
  190.9960  173.9120  143.8450 S   0  0  0  0  0  0  0  0  0  0  0  0
  187.0990  176.8890  146.8690 O   0  0  0  0  0  0  0  0  0  0  0  0
  189.3770  176.2990  146.7950 O   0  0  0  0  0  0  0  0  0  0  0  0
  187.6590  174.5640  142.0770 C   0  0  0  0  0  1  0  0  0  0  0  0
  186.0870  176.8290  145.8770 C   0  0  1  0  0  3  0  0  0  0  0  0
  190.1110  174.5120  142.4020 C   0  0  0  0  0  0  0  0  0  0  0  0
  188.6160  177.8050  144.5000 C   0  0  0  0  0  1  0  0  0  0  0  0
  188.0790  176.1080  146.2890 C   0  0  2  0  0  3  0  0  0  0  0  0
  190.5760  174.4060  141.2790 O   0  0  0  0  0  0  0  0  0  0  0  0
  190.1870  175.2750  144.7230 C   0  0  1  0  0  3  0  0  0  0  0  0
  188.8570  175.2860  142.6660 C   0  0  2  0  0  3  0  0  0  0  0  0
  188.7570  175.2950  144.1790 C   0  0  2  0  0  3  0  0  0  0  0  0
  191.5660  175.7400  148.3210 C   0  0  0  0  0  1  0  0  0  0  0  0
  191.5790  175.2910  146.8690 C   0  0  2  0  0  3  0  0  0  0  0  0
  193.7420  175.8060  145.5590 C   0  0  0  0  0  0  0  0  0  0  0  0
  194.4490  176.7290  144.8520 N   0  0  0  0  0  0  0  0  0  0  0  0
  194.2860  174.5290  145.7630 C   0  0  0  0  0  3  0  0  0  0  0  0
  192.4570  176.1630  146.0860 N   0  0  0  0  0  2  0  0  0  0  0  0
  196.2440  175.1910  144.5150 C   0  0  0  0  0  3  0  0  0  0  0  0
  195.6740  176.4520  144.3300 C   0  0  0  0  0  3  0  0  0  0  0  0
  195.5420  174.2250  145.2360 C   0  0  0  0  0  3  0  0  0  0  0  0
  185.3750  178.1680  145.7700 C   0  0  0  0  0  2  0  0  0  0  0  0
  184.9090  178.4050  144.3470 C   0  0  0  0  0  3  0  0  0  0  0  0
  184.3010  179.6380  144.2630 O   0  0  0  0  0  0  0  0  0  0  0  0
  185.5620  179.4990  143.8260 O   0  0  0  0  0  0  0  0  0  0  0  0
  1  6  1  0  0  0  0
  1 17  1  1  0  0  0
  2  3  1  0  0  0  0
  2  8  1  0  0  0  0
  3 10  1  6  0  0  0
  3 11  1  0  0  0  0
  8 25  1  6  0  0  0
  8  5  1  0  0  0  0
  9 14  1  0  0  0  0
  9  4  1  0  0  0  0
 11  6  1  1  0  0  0
 11  5  1  0  0  0  0
 12  9  2  0  0  0  0
 13  4  1  6  0  0  0
 13  1  1  0  0  0  0
 14  7  1  6  0  0  0
 14 15  1  0  0  0  0
 15 13  1  0  0  0  0
 15  3  1  0  0  0  0
 17 16  1  0  0  0  0
 18 20  1  0  0  0  0
 18 21  1  0  0  0  0
 19 18  2  0  0  0  0
 21 17  1  0  0  0  0
 22 24  1  0  0  0  0
 23 22  2  0  0  0  0
 23 19  1  0  0  0  0
 24 20  2  0  0  0  0
 26 25  1  0  0  0  0
 27 26  1  0  0  0  0
 28 27  1  0  0  0  0
 28 26  1  0  0  0  0
M  END
>  <MODEL>
2

>  <REMARK>
 VINA RESULT:      -7.1      3.143      4.990
  Name = 
  4 active torsions:
  status: ('A' for Active; 'I' for Inactive)
    1  A    between atoms: C_1  and  C_17
    2  A    between atoms: C_9  and  C_19
    3  A    between atoms: N_12  and  C_17
    4  A    between atoms: C_14  and  C_19
                            x       y       z     vdW  Elec       q    Type
                         _______ _______ _______ _____ _____    ______ ____

>  <TORSDO>
F 4

$$$$
=
 OpenBabel11042418243D

 28 32  0  0  1  0  0  0  0  0999 V2000
  189.3690  176.6890  144.1590 C   0  0  1  0  0  3  0  0  0  0  0  0
  185.9760  178.3590  142.5750 O   0  0  0  0  0  0  0  0  0  0  0  0
  186.7490  177.4290  143.2640 C   0  0  1  0  0  0  0  0  0  0  0  0
  188.6000  177.3770  146.8570 S   0  0  0  0  0  0  0  0  0  0  0  0
  187.6340  177.4660  141.1780 O   0  0  0  0  0  0  0  0  0  0  0  0
  188.8580  176.3700  142.8650 O   0  0  0  0  0  0  0  0  0  0  0  0
  185.5260  179.3630  145.7200 C   0  0  0  0  0  1  0  0  0  0  0  0
  186.4970  178.3100  141.2500 C   0  0  1  0  0  3  0  0  0  0  0  0
  186.8410  177.7110  147.0080 C   0  0  0  0  0  0  0  0  0  0  0  0
  186.0520  176.0620  143.2480 C   0  0  0  0  0  1  0  0  0  0  0  0
  188.0280  177.4450  142.5020 C   0  0  2  0  0  3  0  0  0  0  0  0
  186.2630  177.6100  148.0770 O   0  0  0  0  0  0  0  0  0  0  0  0
  188.1990  176.8220  145.1800 C   0  0  1  0  0  3  0  0  0  0  0  0
  186.1000  177.9590  145.7310 C   0  0  2  0  0  3  0  0  0  0  0  0
  187.1740  177.8370  144.6680 C   0  0  2  0  0  3  0  0  0  0  0  0
  189.7130  174.5180  145.4160 C   0  0  0  0  0  1  0  0  0  0  0  0
  190.3760  175.6130  144.5950 C   0  0  2  0  0  3  0  0  0  0  0  0
  192.8550  176.2700  144.8840 C   0  0  0  0  0  0  0  0  0  0  0  0
  193.7960  176.8240  145.6960 N   0  0  0  0  0  0  0  0  0  0  0  0
  193.2310  175.7900  143.6200 C   0  0  0  0  0  3  0  0  0  0  0  0
  191.4990  176.1840  145.3420 N   0  0  0  0  0  2  0  0  0  0  0  0
  195.5060  176.4630  144.0670 C   0  0  0  0  0  3  0  0  0  0  0  0
  195.0990  176.9300  145.3180 C   0  0  0  0  0  3  0  0  0  0  0  0
  194.5620  175.8900  143.2140 C   0  0  0  0  0  3  0  0  0  0  0  0
  185.4210  177.8270  140.2910 C   0  0  0  0  0  2  0  0  0  0  0  0
  184.1360  178.6020  140.5080 C   0  0  0  0  0  3  0  0  0  0  0  0
  183.0710  177.8610  140.0470 O   0  0  0  0  0  0  0  0  0  0  0  0
  183.3160  177.9030  141.3660 O   0  0  0  0  0  0  0  0  0  0  0  0
  1 17  1  1  0  0  0
  1 13  1  0  0  0  0
  2  3  1  0  0  0  0
  3 10  1  6  0  0  0
  3 15  1  0  0  0  0
  4  9  1  0  0  0  0
  5  8  1  0  0  0  0
  6  1  1  0  0  0  0
  8 25  1  6  0  0  0
  8  2  1  0  0  0  0
  9 12  2  0  0  0  0
 11  5  1  6  0  0  0
 11  6  1  0  0  0  0
 11  3  1  0  0  0  0
 13  4  1  1  0  0  0
 14  7  1  1  0  0  0
 14  9  1  0  0  0  0
 15 13  1  0  0  0  0
 15 14  1  0  0  0  0
 17 21  1  0  0  0  0
 17 16  1  0  0  0  0
 18 21  1  0  0  0  0
 18 19  2  0  0  0  0
 20 18  1  0  0  0  0
 22 23  2  0  0  0  0
 23 19  1  0  0  0  0
 24 20  2  0  0  0  0
 24 22  1  0  0  0  0
 25 26  1  0  0  0  0
 26 28  1  0  0  0  0
 27 26  1  0  0  0  0
 27 28  1  0  0  0  0
M  END
>  <MODEL>
3

>  <REMARK>
 VINA RESULT:      -7.1      2.064      2.907
  Name = 
  4 active torsions:
  status: ('A' for Active; 'I' for Inactive)
    1  A    between atoms: C_1  and  C_17
    2  A    between atoms: C_9  and  C_19
    3  A    between atoms: N_12  and  C_17
    4  A    between atoms: C_14  and  C_19
                            x       y       z     vdW  Elec       q    Type
                         _______ _______ _______ _____ _____    ______ ____

>  <TORSDO>
F 4

$$$$
=
 OpenBabel11042418243D

 28 32  0  0  1  0  0  0  0  0999 V2000
  188.6880  176.8080  142.3850 C   0  0  1  0  0  3  0  0  0  0  0  0
  192.0800  175.4130  144.2160 O   0  0  0  0  0  0  0  0  0  0  0  0
  190.7300  175.4700  143.8850 C   0  0  1  0  0  0  0  0  0  0  0  0
  188.5670  174.5400  140.6000 S   0  0  0  0  0  0  0  0  0  0  0  0
  191.1730  177.4930  144.8050 O   0  0  0  0  0  0  0  0  0  0  0  0
  189.1220  177.2300  143.6770 O   0  0  0  0  0  0  0  0  0  0  0  0
  191.9210  173.1250  141.7990 C   0  0  0  0  0  1  0  0  0  0  0  0
  192.3190  176.6610  144.8610 C   0  0  1  0  0  3  0  0  0  0  0  0
  189.5220  173.1410  141.1990 C   0  0  0  0  0  0  0  0  0  0  0  0
  189.8950  174.8310  145.0040 C   0  0  0  0  0  1  0  0  0  0  0  0
  190.4950  176.9320  143.7400 C   0  0  2  0  0  3  0  0  0  0  0  0
  189.2790  172.0020  140.8350 O   0  0  0  0  0  0  0  0  0  0  0  0
  188.9040  175.2730  142.2220 C   0  0  1  0  0  3  0  0  0  0  0  0
  190.5140  173.4280  142.2810 C   0  0  2  0  0  3  0  0  0  0  0  0
  190.3640  174.9190  142.5150 C   0  0  2  0  0  3  0  0  0  0  0  0
  186.9180  177.5660  140.7410 C   0  0  0  0  0  1  0  0  0  0  0  0
  187.2140  177.1930  142.1850 C   0  0  2  0  0  3  0  0  0  0  0  0
  186.1570  178.1320  144.3440 C   0  0  0  0  0  0  0  0  0  0  0  0
  185.8310  179.2430  145.0590 N   0  0  0  0  0  0  0  0  0  0  0  0
  185.8450  176.8640  144.8600 C   0  0  0  0  0  3  0  0  0  0  0  0
  186.8060  178.2820  143.0750 N   0  0  0  0  0  2  0  0  0  0  0  0
  184.8880  177.9180  146.8090 C   0  0  0  0  0  3  0  0  0  0  0  0
  185.2110  179.1640  146.2680 C   0  0  0  0  0  3  0  0  0  0  0  0
  185.2090  176.7630  146.0970 C   0  0  0  0  0  3  0  0  0  0  0  0
  192.7280  176.4240  146.3060 C   0  0  0  0  0  2  0  0  0  0  0  0
  194.1700  176.8400  146.5210 C   0  0  0  0  0  3  0  0  0  0  0  0
  194.9960  175.7620  146.2960 O   0  0  0  0  0  0  0  0  0  0  0  0
  194.8700  176.7000  145.3440 O   0  0  0  0  0  0  0  0  0  0  0  0
  1 17  1  1  0  0  0
  1  6  1  0  0  0  0
  2  8  1  0  0  0  0
  3  2  1  0  0  0  0
  3 10  1  1  0  0  0
  4  9  1  0  0  0  0
  5  8  1  0  0  0  0
  8 25  1  1  0  0  0
  9 14  1  0  0  0  0
 11  6  1  1  0  0  0
 11  3  1  0  0  0  0
 11  5  1  0  0  0  0
 12  9  2  0  0  0  0
 13  4  1  6  0  0  0
 13  1  1  0  0  0  0
 13 15  1  0  0  0  0
 14  7  1  6  0  0  0
 14 15  1  0  0  0  0
 15  3  1  0  0  0  0
 16 17  1  0  0  0  0
 17 21  1  0  0  0  0
 18 20  1  0  0  0  0
 18 19  2  0  0  0  0
 19 23  1  0  0  0  0
 20 24  2  0  0  0  0
 21 18  1  0  0  0  0
 23 22  2  0  0  0  0
 24 22  1  0  0  0  0
 25 26  1  0  0  0  0
 27 26  1  0  0  0  0
 28 27  1  0  0  0  0
 28 26  1  0  0  0  0
M  END
>  <MODEL>
4

>  <REMARK>
 VINA RESULT:      -6.8      3.509      7.629
  Name = 
  4 active torsions:
  status: ('A' for Active; 'I' for Inactive)
    1  A    between atoms: C_1  and  C_17
    2  A    between atoms: C_9  and  C_19
    3  A    between atoms: N_12  and  C_17
    4  A    between atoms: C_14  and  C_19
                            x       y       z     vdW  Elec       q    Type
                         _______ _______ _______ _____ _____    ______ ____

>  <TORSDO>
F 4

$$$$
=
 OpenBabel11042418243D

 28 32  0  0  1  0  0  0  0  0999 V2000
  190.6180  176.5760  143.2850 C   0  0  1  0  0  3  0  0  0  0  0  0
  186.7650  177.8940  143.7630 O   0  0  0  0  0  0  0  0  0  0  0  0
  187.7980  176.9750  143.6050 C   0  0  1  0  0  0  0  0  0  0  0  0
  190.7440  175.5730  145.9910 S   0  0  0  0  0  0  0  0  0  0  0  0
  187.9260  178.2910  141.7650 O   0  0  0  0  0  0  0  0  0  0  0  0
  189.7300  176.8420  142.1990 O   0  0  0  0  0  0  0  0  0  0  0  0
  187.3150  177.0050  146.9270 C   0  0  0  0  0  1  0  0  0  0  0  0
  186.8140  178.6610  142.5630 C   0  0  1  0  0  3  0  0  0  0  0  0
  189.1170  175.3250  146.7100 C   0  0  0  0  0  0  0  0  0  0  0  0
  187.2510  175.6820  142.9860 C   0  0  0  0  0  1  0  0  0  0  0  0
  188.7410  177.7000  142.7100 C   0  0  2  0  0  3  0  0  0  0  0  0
  188.9410  174.5510  147.6360 O   0  0  0  0  0  0  0  0  0  0  0  0
  189.8510  175.8680  144.4420 C   0  0  1  0  0  3  0  0  0  0  0  0
  187.9730  175.9900  146.0110 C   0  0  2  0  0  3  0  0  0  0  0  0
  188.6340  176.7030  144.8480 C   0  0  2  0  0  3  0  0  0  0  0  0
  191.4550  174.2430  142.7660 C   0  0  0  0  0  1  0  0  0  0  0  0
  191.7970  175.7240  142.7890 C   0  0  2  0  0  3  0  0  0  0  0  0
  194.3350  176.1040  143.0730 C   0  0  0  0  0  0  0  0  0  0  0  0
  195.3640  176.2950  143.9420 N   0  0  0  0  0  0  0  0  0  0  0  0
  194.5940  176.0620  141.6940 C   0  0  0  0  0  3  0  0  0  0  0  0
  193.0050  175.9440  143.5870 N   0  0  0  0  0  2  0  0  0  0  0  0
  196.9390  176.4140  142.1500 C   0  0  0  0  0  3  0  0  0  0  0  0
  196.6460  176.4500  143.5150 C   0  0  0  0  0  3  0  0  0  0  0  0
  195.9030  176.2180  141.2370 C   0  0  0  0  0  3  0  0  0  0  0  0
  185.5220  178.4780  141.7830 C   0  0  0  0  0  2  0  0  0  0  0  0
  184.4390  177.9150  142.6820 C   0  0  0  0  0  3  0  0  0  0  0  0
  183.5020  178.8920  142.9380 O   0  0  0  0  0  0  0  0  0  0  0  0
  183.2310  177.9480  142.0240 O   0  0  0  0  0  0  0  0  0  0  0  0
  1 17  1  6  0  0  0
  1 13  1  0  0  0  0
  3 10  1  6  0  0  0
  3  2  1  0  0  0  0
  3 15  1  0  0  0  0
  4  9  1  0  0  0  0
  5  8  1  0  0  0  0
  6 11  1  0  0  0  0
  6  1  1  0  0  0  0
  8 25  1  6  0  0  0
  8  2  1  0  0  0  0
  9 12  2  0  0  0  0
 11  5  1  6  0  0  0
 11  3  1  0  0  0  0
 13 15  1  0  0  0  0
 13  4  1  1  0  0  0
 14  9  1  0  0  0  0
 14  7  1  1  0  0  0
 15 14  1  0  0  0  0
 16 17  1  0  0  0  0
 17 21  1  0  0  0  0
 18 21  1  0  0  0  0
 18 19  2  0  0  0  0
 20 18  1  0  0  0  0
 22 23  2  0  0  0  0
 23 19  1  0  0  0  0
 24 20  2  0  0  0  0
 24 22  1  0  0  0  0
 25 26  1  0  0  0  0
 26 27  1  0  0  0  0
 28 26  1  0  0  0  0
 28 27  1  0  0  0  0
M  END
>  <MODEL>
5

>  <REMARK>
 VINA RESULT:      -6.7      2.845      3.833
  Name = 
  4 active torsions:
  status: ('A' for Active; 'I' for Inactive)
    1  A    between atoms: C_1  and  C_17
    2  A    between atoms: C_9  and  C_19
    3  A    between atoms: N_12  and  C_17
    4  A    between atoms: C_14  and  C_19
                            x       y       z     vdW  Elec       q    Type
                         _______ _______ _______ _____ _____    ______ ____

>  <TORSDO>
F 4

$$$$
=
 OpenBabel11042418243D

 28 32  0  0  1  0  0  0  0  0999 V2000
  191.3580  176.8020  143.9270 C   0  0  1  0  0  3  0  0  0  0  0  0
  187.3520  177.5280  143.4440 O   0  0  0  0  0  0  0  0  0  0  0  0
  188.5160  176.7750  143.5630 C   0  0  1  0  0  0  0  0  0  0  0  0
  190.9850  175.8220  146.6180 S   0  0  0  0  0  0  0  0  0  0  0  0
  188.8830  178.1000  141.7620 O   0  0  0  0  0  0  0  0  0  0  0  0
  190.7250  176.9360  142.6550 O   0  0  0  0  0  0  0  0  0  0  0  0
  187.2600  176.7220  146.6760 C   0  0  0  0  0  1  0  0  0  0  0  0
  187.5720  178.2970  142.2650 C   0  0  1  0  0  3  0  0  0  0  0  0
  189.2880  175.3310  146.9430 C   0  0  0  0  0  0  0  0  0  0  0  0
  188.3260  175.4160  142.8750 C   0  0  0  0  0  1  0  0  0  0  0  0
  189.5280  177.6350  142.8920 C   0  0  2  0  0  3  0  0  0  0  0  0
  189.0120  174.5370  147.8270 O   0  0  0  0  0  0  0  0  0  0  0  0
  190.4510  175.9850  144.8950 C   0  0  1  0  0  3  0  0  0  0  0  0
  188.2580  175.8200  145.9740 C   0  0  2  0  0  3  0  0  0  0  0  0
  189.0640  176.6270  144.9760 C   0  0  2  0  0  3  0  0  0  0  0  0
  193.3060  176.3870  142.3640 C   0  0  0  0  0  1  0  0  0  0  0  0
  192.7330  176.1380  143.7500 C   0  0  2  0  0  3  0  0  0  0  0  0
  193.7320  173.9220  144.6160 C   0  0  0  0  0  0  0  0  0  0  0  0
  193.5460  172.5860  144.7980 N   0  0  0  0  0  0  0  0  0  0  0  0
  194.9440  174.5090  145.0110 C   0  0  0  0  0  3  0  0  0  0  0  0
  192.6860  174.6990  144.0180 N   0  0  0  0  0  2  0  0  0  0  0  0
  195.7190  172.3480  145.7590 C   0  0  0  0  0  3  0  0  0  0  0  0
  194.5020  171.7960  145.3560 C   0  0  0  0  0  3  0  0  0  0  0  0
  195.9380  173.7150  145.5840 C   0  0  0  0  0  3  0  0  0  0  0  0
  186.5420  177.9250  141.2090 C   0  0  0  0  0  2  0  0  0  0  0  0
  185.2450  178.6710  141.4530 C   0  0  0  0  0  3  0  0  0  0  0  0
  184.2570  178.1470  140.6500 O   0  0  0  0  0  0  0  0  0  0  0  0
  184.2990  177.8010  141.9450 O   0  0  0  0  0  0  0  0  0  0  0  0
  1 17  1  6  0  0  0
  1 13  1  0  0  0  0
  2  3  1  0  0  0  0
  3 10  1  6  0  0  0
  3 15  1  0  0  0  0
  4  9  1  0  0  0  0
  5  8  1  0  0  0  0
  6 11  1  0  0  0  0
  6  1  1  0  0  0  0
  8 25  1  6  0  0  0
  8  2  1  0  0  0  0
  9 12  2  0  0  0  0
 11  5  1  6  0  0  0
 11  3  1  0  0  0  0
 13 15  1  0  0  0  0
 13  4  1  1  0  0  0
 14  7  1  1  0  0  0
 14  9  1  0  0  0  0
 15 14  1  0  0  0  0
 16 17  1  0  0  0  0
 17 21  1  0  0  0  0
 18 19  2  0  0  0  0
 18 20  1  0  0  0  0
 19 23  1  0  0  0  0
 20 24  2  0  0  0  0
 21 18  1  0  0  0  0
 23 22  2  0  0  0  0
 24 22  1  0  0  0  0
 25 26  1  0  0  0  0
 26 28  1  0  0  0  0
 27 26  1  0  0  0  0
 27 28  1  0  0  0  0
M  END
>  <MODEL>
6

>  <REMARK>
 VINA RESULT:      -6.6      2.869      3.335
  Name = 
  4 active torsions:
  status: ('A' for Active; 'I' for Inactive)
    1  A    between atoms: C_1  and  C_17
    2  A    between atoms: C_9  and  C_19
    3  A    between atoms: N_12  and  C_17
    4  A    between atoms: C_14  and  C_19
                            x       y       z     vdW  Elec       q    Type
                         _______ _______ _______ _____ _____    ______ ____

>  <TORSDO>
F 4

$$$$
=
 OpenBabel11042418243D

 28 32  0  0  1  0  0  0  0  0999 V2000
  189.4360  175.1210  143.5640 C   0  0  1  0  0  3  0  0  0  0  0  0
  193.4990  175.6400  143.3770 O   0  0  0  0  0  0  0  0  0  0  0  0
  192.1620  176.0030  143.5090 C   0  0  1  0  0  0  0  0  0  0  0  0
  189.3800  175.5980  146.4130 S   0  0  0  0  0  0  0  0  0  0  0  0
  192.2820  175.0230  141.4690 O   0  0  0  0  0  0  0  0  0  0  0  0
  190.1410  175.4290  142.3620 O   0  0  0  0  0  0  0  0  0  0  0  0
  193.1990  175.7650  146.6930 C   0  0  0  0  0  1  0  0  0  0  0  0
  193.5690  175.0970  142.0610 C   0  0  1  0  0  3  0  0  0  0  0  0
  190.8440  176.4600  146.9960 C   0  0  0  0  0  0  0  0  0  0  0  0
  191.9820  177.4730  143.1020 C   0  0  0  0  0  1  0  0  0  0  0  0
  191.4770  175.0530  142.5910 C   0  0  2  0  0  3  0  0  0  0  0  0
  190.8350  177.1020  148.0330 O   0  0  0  0  0  0  0  0  0  0  0  0
  190.0200  175.9420  144.7530 C   0  0  1  0  0  3  0  0  0  0  0  0
  192.0170  176.4810  146.0660 C   0  0  2  0  0  3  0  0  0  0  0  0
  191.5280  175.7030  144.8600 C   0  0  2  0  0  3  0  0  0  0  0  0
  187.4090  174.7830  142.0850 C   0  0  0  0  0  1  0  0  0  0  0  0
  187.9380  175.4030  143.3690 C   0  0  2  0  0  3  0  0  0  0  0  0
  186.6900  177.4870  144.2410 C   0  0  0  0  0  0  0  0  0  0  0  0
  186.5190  178.8330  144.1400 N   0  0  0  0  0  0  0  0  0  0  0  0
  185.9300  176.7630  145.1720 C   0  0  0  0  0  3  0  0  0  0  0  0
  187.6420  176.8370  143.3880 N   0  0  0  0  0  2  0  0  0  0  0  0
  184.8570  178.8150  145.8550 C   0  0  0  0  0  3  0  0  0  0  0  0
  185.6290  179.5060  144.9190 C   0  0  0  0  0  3  0  0  0  0  0  0
  185.0120  177.4350  145.9800 C   0  0  0  0  0  3  0  0  0  0  0  0
  194.4950  175.9440  141.2030 C   0  0  0  0  0  2  0  0  0  0  0  0
  195.7290  175.1510  140.8190 C   0  0  0  0  0  3  0  0  0  0  0  0
  196.2610  175.6660  139.6580 O   0  0  0  0  0  0  0  0  0  0  0  0
  196.8290  175.9780  140.8320 O   0  0  0  0  0  0  0  0  0  0  0  0
  1 17  1  6  0  0  0
  1 13  1  0  0  0  0
  2  3  1  0  0  0  0
  3 10  1  6  0  0  0
  3 15  1  0  0  0  0
  4  9  1  0  0  0  0
  5  8  1  0  0  0  0
  6 11  1  0  0  0  0
  6  1  1  0  0  0  0
  8 25  1  6  0  0  0
  8  2  1  0  0  0  0
  9 12  2  0  0  0  0
 11  5  1  6  0  0  0
 11  3  1  0  0  0  0
 13 15  1  0  0  0  0
 13  4  1  1  0  0  0
 14  7  1  1  0  0  0
 14  9  1  0  0  0  0
 15 14  1  0  0  0  0
 16 17  1  0  0  0  0
 17 21  1  0  0  0  0
 18 20  1  0  0  0  0
 19 18  2  0  0  0  0
 19 23  1  0  0  0  0
 20 24  2  0  0  0  0
 21 18  1  0  0  0  0
 22 24  1  0  0  0  0
 23 22  2  0  0  0  0
 26 28  1  0  0  0  0
 26 25  1  0  0  0  0
 27 26  1  0  0  0  0
 27 28  1  0  0  0  0
M  END
>  <MODEL>
7

>  <REMARK>
 VINA RESULT:      -6.6      3.830      7.512
  Name = 
  4 active torsions:
  status: ('A' for Active; 'I' for Inactive)
    1  A    between atoms: C_1  and  C_17
    2  A    between atoms: C_9  and  C_19
    3  A    between atoms: N_12  and  C_17
    4  A    between atoms: C_14  and  C_19
                            x       y       z     vdW  Elec       q    Type
                         _______ _______ _______ _____ _____    ______ ____

>  <TORSDO>
F 4

$$$$
=
 OpenBabel11042418243D

 28 32  0  0  1  0  0  0  0  0999 V2000
  189.5620  176.9670  144.3820 C   0  0  1  0  0  3  0  0  0  0  0  0
  186.1680  178.2830  142.4950 O   0  0  0  0  0  0  0  0  0  0  0  0
  186.9790  177.4210  143.2270 C   0  0  1  0  0  0  0  0  0  0  0  0
  188.4230  177.3940  147.0020 S   0  0  0  0  0  0  0  0  0  0  0  0
  188.0710  177.6890  141.2590 O   0  0  0  0  0  0  0  0  0  0  0  0
  189.2400  176.6610  143.0250 O   0  0  0  0  0  0  0  0  0  0  0  0
  185.2540  179.0380  145.6090 C   0  0  0  0  0  1  0  0  0  0  0  0
  186.8310  178.3780  141.2370 C   0  0  1  0  0  3  0  0  0  0  0  0
  186.6300  177.4940  146.9650 C   0  0  0  0  0  0  0  0  0  0  0  0
  186.4750  175.9790  143.0710 C   0  0  0  0  0  1  0  0  0  0  0  0
  188.3190  177.6420  142.6170 C   0  0  2  0  0  3  0  0  0  0  0  0
  185.9580  177.2590  147.9560 O   0  0  0  0  0  0  0  0  0  0  0  0
  188.2820  176.8910  145.2670 C   0  0  1  0  0  3  0  0  0  0  0  0
  186.0050  177.7190  145.6240 C   0  0  2  0  0  3  0  0  0  0  0  0
  187.1930  177.7960  144.6860 C   0  0  2  0  0  3  0  0  0  0  0  0
  191.7470  176.7350  145.6400 C   0  0  0  0  0  1  0  0  0  0  0  0
  190.6500  176.0040  144.8830 C   0  0  2  0  0  3  0  0  0  0  0  0
  190.7930  173.9300  143.3540 C   0  0  0  0  0  0  0  0  0  0  0  0
  191.4420  173.3190  142.3250 N   0  0  0  0  0  0  0  0  0  0  0  0
  189.7110  173.2810  143.9680 C   0  0  0  0  0  3  0  0  0  0  0  0
  191.2350  175.2220  143.7910 N   0  0  0  0  0  2  0  0  0  0  0  0
  190.0000  171.4210  142.4560 C   0  0  0  0  0  3  0  0  0  0  0  0
  191.0720  172.0930  141.8680 C   0  0  0  0  0  3  0  0  0  0  0  0
  189.3160  172.0220  143.5130 C   0  0  0  0  0  3  0  0  0  0  0  0
  185.9380  177.8180  140.1420 C   0  0  0  0  0  2  0  0  0  0  0  0
  186.6920  176.7910  139.3200 C   0  0  0  0  0  3  0  0  0  0  0  0
  185.9250  176.4150  138.2400 O   0  0  0  0  0  0  0  0  0  0  0  0
  186.9250  177.2910  138.0600 O   0  0  0  0  0  0  0  0  0  0  0  0
  1 17  1  1  0  0  0
  1 13  1  0  0  0  0
  2  3  1  0  0  0  0
  3 10  1  6  0  0  0
  3 15  1  0  0  0  0
  6  1  1  0  0  0  0
  8 25  1  6  0  0  0
  8  5  1  0  0  0  0
  8  2  1  0  0  0  0
  9  4  1  0  0  0  0
  9 12  2  0  0  0  0
 11  5  1  6  0  0  0
 11  6  1  0  0  0  0
 11  3  1  0  0  0  0
 13  4  1  1  0  0  0
 14  7  1  1  0  0  0
 14  9  1  0  0  0  0
 15 13  1  0  0  0  0
 15 14  1  0  0  0  0
 17 16  1  0  0  0  0
 18 21  1  0  0  0  0
 18 20  1  0  0  0  0
 19 18  2  0  0  0  0
 21 17  1  0  0  0  0
 22 24  1  0  0  0  0
 23 19  1  0  0  0  0
 23 22  2  0  0  0  0
 24 20  2  0  0  0  0
 26 25  1  0  0  0  0
 27 26  1  0  0  0  0
 28 27  1  0  0  0  0
 28 26  1  0  0  0  0
M  END
>  <MODEL>
8

>  <REMARK>
 VINA RESULT:      -6.5      1.722      2.053
  Name = 
  4 active torsions:
  status: ('A' for Active; 'I' for Inactive)
    1  A    between atoms: C_1  and  C_17
    2  A    between atoms: C_9  and  C_19
    3  A    between atoms: N_12  and  C_17
    4  A    between atoms: C_14  and  C_19
                            x       y       z     vdW  Elec       q    Type
                         _______ _______ _______ _____ _____    ______ ____

>  <TORSDO>
F 4

$$$$
=
 OpenBabel11042418243D

 28 32  0  0  1  0  0  0  0  0999 V2000
  190.4900  176.3440  143.0580 C   0  0  1  0  0  3  0  0  0  0  0  0
  194.0070  174.3840  143.8290 O   0  0  0  0  0  0  0  0  0  0  0  0
  192.6470  174.6630  143.9140 C   0  0  1  0  0  0  0  0  0  0  0  0
  189.4840  174.1680  141.4460 S   0  0  0  0  0  0  0  0  0  0  0  0
  193.6580  176.5670  144.6100 O   0  0  0  0  0  0  0  0  0  0  0  0
  191.3510  176.6610  144.1520 O   0  0  0  0  0  0  0  0  0  0  0  0
  192.7740  172.2100  141.6260 C   0  0  0  0  0  1  0  0  0  0  0  0
  194.6220  175.5620  144.3420 C   0  0  1  0  0  3  0  0  0  0  0  0
  190.3390  172.6210  141.7670 C   0  0  0  0  0  0  0  0  0  0  0  0
  192.0930  174.1380  145.2460 C   0  0  0  0  0  1  0  0  0  0  0  0
  192.6140  176.1470  143.8100 C   0  0  2  0  0  3  0  0  0  0  0  0
  189.8210  171.5440  141.5210 O   0  0  0  0  0  0  0  0  0  0  0  0
  190.4010  174.8000  142.8760 C   0  0  1  0  0  3  0  0  0  0  0  0
  191.6410  172.7210  142.4970 C   0  0  2  0  0  3  0  0  0  0  0  0
  191.8060  174.2100  142.7290 C   0  0  2  0  0  3  0  0  0  0  0  0
  188.8030  178.0750  142.3050 C   0  0  0  0  0  1  0  0  0  0  0  0
  189.1040  176.9630  143.2970 C   0  0  2  0  0  3  0  0  0  0  0  0
  187.7610  177.4010  145.4580 C   0  0  0  0  0  0  0  0  0  0  0  0
  187.7730  177.9160  146.7170 N   0  0  0  0  0  0  0  0  0  0  0  0
  186.5820  176.8270  144.9580 C   0  0  0  0  0  3  0  0  0  0  0  0
  188.9550  177.4630  144.6660 N   0  0  0  0  0  2  0  0  0  0  0  0
  185.4830  177.3250  147.0480 C   0  0  0  0  0  3  0  0  0  0  0  0
  186.6710  177.8890  147.5150 C   0  0  0  0  0  3  0  0  0  0  0  0
  185.4420  176.7910  145.7600 C   0  0  0  0  0  3  0  0  0  0  0  0
  195.4000  175.2280  145.6060 C   0  0  0  0  0  2  0  0  0  0  0  0
  196.1440  173.9180  145.4350 C   0  0  0  0  0  3  0  0  0  0  0  0
  197.4960  174.1660  145.3610 O   0  0  0  0  0  0  0  0  0  0  0  0
  196.9750  173.7170  146.5130 O   0  0  0  0  0  0  0  0  0  0  0  0
  1 17  1  1  0  0  0
  1  6  1  0  0  0  0
  2  3  1  0  0  0  0
  2  8  1  0  0  0  0
  3 10  1  1  0  0  0
  4  9  1  0  0  0  0
  8  5  1  0  0  0  0
  8 25  1  1  0  0  0
  9 14  1  0  0  0  0
 11  3  1  0  0  0  0
 11  6  1  1  0  0  0
 11  5  1  0  0  0  0
 12  9  2  0  0  0  0
 13  4  1  6  0  0  0
 13  1  1  0  0  0  0
 14  7  1  6  0  0  0
 14 15  1  0  0  0  0
 15 13  1  0  0  0  0
 15  3  1  0  0  0  0
 16 17  1  0  0  0  0
 17 21  1  0  0  0  0
 18 19  2  0  0  0  0
 19 23  1  0  0  0  0
 20 18  1  0  0  0  0
 20 24  2  0  0  0  0
 21 18  1  0  0  0  0
 22 23  2  0  0  0  0
 24 22  1  0  0  0  0
 26 25  1  0  0  0  0
 26 28  1  0  0  0  0
 27 26  1  0  0  0  0
 27 28  1  0  0  0  0
M  END
>  <MODEL>
9

>  <REMARK>
 VINA RESULT:      -6.5      4.355      8.512
  Name = 
  4 active torsions:
  status: ('A' for Active; 'I' for Inactive)
    1  A    between atoms: C_1  and  C_17
    2  A    between atoms: C_9  and  C_19
    3  A    between atoms: N_12  and  C_17
    4  A    between atoms: C_14  and  C_19
                            x       y       z     vdW  Elec       q    Type
                         _______ _______ _______ _____ _____    ______ ____

>  <TORSDO>
F 4

$$$$
