=
 OpenBabel11042415463D

 54 57  0  0  1  0  0  0  0  0999 V2000
  192.1120  176.0460  143.5600 C   0  0  1  0  0  3  0  0  0  0  0  0
  194.6570  174.5810  145.3650 C   0  0  0  0  0  0  0  0  0  0  0  0
  194.3110  175.7180  144.6870 C   0  0  0  0  0  0  0  0  0  0  0  0
  195.9580  174.0830  145.2870 C   0  0  0  0  0  0  0  0  0  0  0  0
  192.3860  175.0480  145.9250 C   0  0  0  0  0  3  0  0  0  0  0  0
  196.5450  175.8930  143.8430 C   0  0  0  0  0  0  0  0  0  0  0  0
  193.5150  174.0190  146.1290 C   0  0  0  0  0  3  0  0  0  0  0  0
  196.8740  174.7580  144.5270 N   0  0  0  0  0  0  0  0  0  0  0  0
  197.7590  176.7150  142.8880 Cl  0  0  0  0  0  0  0  0  0  0  0  0
  192.8870  176.0800  144.8950 C   0  0  2  0  0  3  0  0  0  0  0  0
  195.2400  176.4040  143.9110 C   0  0  0  0  0  3  0  0  0  0  0  0
  196.1660  171.7130  145.4510 C   0  0  0  0  0  3  0  0  0  0  0  0
  196.3210  172.8820  145.9810 N   0  0  0  0  0  0  0  0  0  0  0  0
  194.2650  169.5550  145.3380 C   0  0  0  0  0  1  0  0  0  0  0  0
  196.5460  170.4830  146.2190 C   0  0  2  0  0  3  0  0  0  0  0  0
  197.5410  169.7280  145.4670 N   0  0  0  0  0  2  0  0  0  0  0  0
  196.6000  168.6120  145.3830 C   0  0  0  0  0  2  0  0  0  0  0  0
  195.5340  169.3440  146.1560 C   0  0  0  0  0  0  0  0  0  0  0  0
  195.2850  168.7150  147.5130 C   0  0  0  0  0  1  0  0  0  0  0  0
  190.0560  177.0370  142.4300 N   0  0  0  0  0  2  0  0  0  0  0  0
  191.2250  178.2020  144.0800 O   0  0  0  0  0  0  0  0  0  0  0  0
  191.1080  177.1560  143.3920 C   0  0  0  0  0  0  0  0  0  0  0  0
  189.0830  178.0960  142.2070 C   0  0  0  0  0  2  0  0  0  0  0  0
  187.6810  177.5090  142.1560 C   0  0  2  0  0  3  0  0  0  0  0  0
  186.8780  177.0350  139.9920 O   0  0  0  0  0  0  0  0  0  0  0  0
  187.5180  176.6380  140.9530 C   0  0  0  0  0  3  0  0  0  0  0  0
  186.7430  178.5460  142.1140 O   0  0  0  0  0  0  0  0  0  0  0  0
  185.8110  178.2500  143.1180 C   0  0  2  0  0  3  0  0  0  0  0  0
  186.4640  177.6160  144.2660 N   0  0  0  0  0  2  0  0  0  0  0  0
  186.3140  178.4520  145.4530 C   0  0  0  0  0  2  0  0  0  0  0  0
  185.3330  179.4150  145.2250 O   0  0  0  0  0  1  0  0  0  0  0  0
  184.8080  177.4220  142.5990 O   0  0  0  0  0  0  0  0  0  0  0  0
  183.7870  178.2890  142.2030 C   0  0  0  0  0  2  0  0  0  0  0  0
  183.6610  178.2610  140.7560 N   0  0  0  0  0  1  0  0  0  0  0  0
  193.0150  175.9700  142.4100 N   0  0  0  0  0  2  0  0  0  0  0  0
  192.5950  174.9040  141.4980 C   0  0  0  0  0  2  0  0  0  0  0  0
  193.7520  174.3630  140.6650 C   0  0  1  0  0  3  0  0  0  0  0  0
  194.8540  175.3060  140.6720 N   0  0  0  0  0  1  0  0  0  0  0  0
  194.2280  173.0310  141.2220 C   0  0  0  0  0  2  0  0  0  0  0  0
  193.1000  172.2610  141.7250 N   0  0  0  0  0  2  0  0  0  0  0  0
  192.9770  171.1360  140.8950 N   0  0  0  0  0  2  0  0  0  0  0  0
  189.8610  173.5070  139.6230 C   0  0  0  0  0  2  0  0  0  0  0  0
  191.6750  171.2180  140.2480 C   0  0  1  0  0  3  0  0  0  0  0  0
  190.2740  170.7900  142.1270 O   0  0  0  0  0  1  0  0  0  0  0  0
  190.6550  171.7930  141.2380 C   0  0  2  0  0  3  0  0  0  0  0  0
  190.8780  173.0770  138.6650 N   0  0  0  0  0  0  0  0  0  0  0  0
  191.7960  172.0090  138.9730 C   0  0  0  0  0  0  0  0  0  0  0  0
  192.6850  171.6830  138.1380 O   0  0  0  0  0  0  0  0  0  0  0  0
  189.4240  172.3570  140.5200 C   0  0  1  0  0  3  0  0  0  0  0  0
  188.4130  172.8950  141.5260 C   0  0  0  0  0  2  0  0  0  0  0  0
  189.0320  173.8210  142.3610 O   0  0  0  0  0  1  0  0  0  0  0  0
  191.1020  173.8970  137.4790 C   0  0  0  0  0  2  0  0  0  0  0  0
  190.2130  173.4590  136.3580 C   0  0  0  0  0  3  0  0  0  0  0  0
  189.0200  173.6980  136.3820 O   0  0  0  0  0  0  0  0  0  0  0  0
  1 35  1  6  0  0  0
  2  7  1  0  0  0  0
  3 10  1  0  0  0  0
  3  2  2  0  0  0  0
  4  2  1  0  0  0  0
  4 13  1  0  0  0  0
  5  7  2  0  0  0  0
  6 11  2  0  0  0  0
  6  8  1  0  0  0  0
  8  4  2  0  0  0  0
  9  6  1  0  0  0  0
 10  1  1  6  0  0  0
 10  5  1  0  0  0  0
 11  3  1  0  0  0  0
 12 13  2  0  0  0  0
 14 18  1  0  0  0  0
 15 12  1  6  0  0  0
 16 15  1  0  0  0  0
 17 16  1  0  0  0  0
 17 18  1  0  0  0  0
 18 15  1  0  0  0  0
 18 19  1  0  0  0  0
 20 22  1  0  0  0  0
 22  1  1  0  0  0  0
 22 21  2  0  0  0  0
 23 20  1  0  0  0  0
 24 26  1  6  0  0  0
 24 23  1  0  0  0  0
 25 26  2  0  0  0  0
 27 24  1  0  0  0  0
 28 27  1  6  0  0  0
 28 29  1  0  0  0  0
 29 30  1  0  0  0  0
 31 30  1  0  0  0  0
 32 28  1  0  0  0  0
 33 32  1  0  0  0  0
 34 33  1  0  0  0  0
 36 35  1  0  0  0  0
 37 38  1  1  0  0  0
 37 39  1  0  0  0  0
 37 36  1  0  0  0  0
 39 40  1  0  0  0  0
 41 40  1  0  0  0  0
 42 49  1  0  0  0  0
 43 41  1  1  0  0  0
 43 45  1  0  0  0  0
 45 44  1  1  0  0  0
 46 47  1  0  0  0  0
 46 42  1  0  0  0  0
 47 43  1  0  0  0  0
 48 47  2  0  0  0  0
 49 45  1  0  0  0  0
 49 50  1  1  0  0  0
 50 51  1  0  0  0  0
 52 46  1  0  0  0  0
 53 54  2  0  0  0  0
 53 52  1  0  0  0  0
M  END
>  <MODEL>
1

>  <REMARK>
 VINA RESULT:      -5.8      0.000      0.000
  Name = 
  23 active torsions:
  status: ('A' for Active; 'I' for Inactive)
    1  A    between atoms: C_2  and  O_5
    2  A    between atoms: C_2  and  O_19
    3  A    between atoms: C_2  and  N_50
    4  A    between atoms: N_4  and  C_27
    5  A    between atoms: N_4  and  C_37
    6  A    between atoms: O_5  and  C_48
    7  A    between atoms: C_6  and  C_46
    8  A    between atoms: C_7  and  N_51
    9  A    between atoms: C_9  and  C_41
   10  A    between atoms: N_10  and  C_49
   11  A    between atoms: C_14  and  N_53
   12  A    between atoms: C_15  and  C_21
   13  A    between atoms: C_17  and  C_32
   14  A    between atoms: C_17  and  N_54
   15  A    between atoms: O_19  and  C_39
   16  A    between atoms: C_21  and  N_25
   17  A    between atoms: C_24  and  N_50
   18  A    between atoms: C_27  and  C_33
   19  A    between atoms: C_27  and  C_42
   20  A    between atoms: C_28  and  C_48
   21  A    between atoms: C_32  and  C_37
   22  A    between atoms: C_48  and  C_49
   23  A    between atoms: N_51  and  N_54
                            x       y       z     vdW  Elec       q    Type
                         _______ _______ _______ _____ _____    ______ ____

>  <TORSDO>
F 23

$$$$
=
 OpenBabel11042415463D

 54 57  0  0  1  0  0  0  0  0999 V2000
  191.4440  171.7980  142.4410 C   0  0  1  0  0  3  0  0  0  0  0  0
  188.9980  174.1870  142.8650 C   0  0  0  0  0  0  0  0  0  0  0  0
  189.3590  173.1170  142.0930 C   0  0  0  0  0  0  0  0  0  0  0  0
  188.3920  175.3030  142.2850 C   0  0  0  0  0  0  0  0  0  0  0  0
  189.8710  172.5370  144.3490 C   0  0  0  0  0  3  0  0  0  0  0  0
  188.5200  174.2370  140.1510 C   0  0  0  0  0  0  0  0  0  0  0  0
  189.3300  173.9790  144.2970 C   0  0  0  0  0  3  0  0  0  0  0  0
  188.1640  175.2960  140.9350 N   0  0  0  0  0  0  0  0  0  0  0  0
  188.2010  174.2840  138.4300 Cl  0  0  0  0  0  0  0  0  0  0  0  0
  189.9880  172.0390  142.8940 C   0  0  2  0  0  3  0  0  0  0  0  0
  189.1300  173.1110  140.7210 C   0  0  0  0  0  3  0  0  0  0  0  0
  186.9170  176.4770  143.7460 C   0  0  0  0  0  3  0  0  0  0  0  0
  188.0280  176.4350  143.0860 N   0  0  0  0  0  0  0  0  0  0  0  0
  184.5900  177.9240  142.8690 C   0  0  0  0  0  1  0  0  0  0  0  0
  186.5710  177.6870  144.5590 C   0  0  2  0  0  3  0  0  0  0  0  0
  185.9230  177.2720  145.7970 N   0  0  0  0  0  2  0  0  0  0  0  0
  184.7190  177.9910  145.3840 C   0  0  0  0  0  2  0  0  0  0  0  0
  185.3380  178.4500  144.0890 C   0  0  0  0  0  0  0  0  0  0  0  0
  185.5580  179.9510  144.0660 C   0  0  0  0  0  1  0  0  0  0  0  0
  193.1400  173.2210  143.7000 N   0  0  0  0  0  2  0  0  0  0  0  0
  192.7650  170.9860  144.2580 O   0  0  0  0  0  0  0  0  0  0  0  0
  192.4730  171.9680  143.5270 C   0  0  0  0  0  0  0  0  0  0  0  0
  194.1650  173.4240  144.7120 C   0  0  0  0  0  2  0  0  0  0  0  0
  194.3790  174.9120  144.9430 C   0  0  2  0  0  3  0  0  0  0  0  0
  196.2040  176.1190  144.0700 O   0  0  0  0  0  0  0  0  0  0  0  0
  195.8290  175.2570  144.8490 C   0  0  0  0  0  3  0  0  0  0  0  0
  193.8960  175.2610  146.2080 O   0  0  0  0  0  0  0  0  0  0  0  0
  192.6380  175.8380  145.9850 C   0  0  2  0  0  3  0  0  0  0  0  0
  192.7090  176.8500  144.9270 N   0  0  0  0  0  2  0  0  0  0  0  0
  191.3830  177.0790  144.3630 C   0  0  0  0  0  2  0  0  0  0  0  0
  191.4600  177.0780  142.9720 O   0  0  0  0  0  1  0  0  0  0  0  0
  192.1600  176.3990  147.1760 O   0  0  0  0  0  0  0  0  0  0  0  0
  191.4050  175.3890  147.7780 C   0  0  0  0  0  2  0  0  0  0  0  0
  190.0130  175.5270  147.3870 N   0  0  0  0  0  1  0  0  0  0  0  0
  191.5960  170.5080  141.7650 N   0  0  0  0  0  2  0  0  0  0  0  0
  192.5580  170.6150  140.6660 C   0  0  0  0  0  2  0  0  0  0  0  0
  192.1480  169.7860  139.4530 C   0  0  1  0  0  3  0  0  0  0  0  0
  190.8460  170.2130  138.9770 N   0  0  0  0  0  1  0  0  0  0  0  0
  193.1670  169.9400  138.3370 C   0  0  0  0  0  2  0  0  0  0  0  0
  193.8530  171.2180  138.4510 N   0  0  0  0  0  2  0  0  0  0  0  0
  194.8450  171.2350  137.4580 N   0  0  0  0  0  2  0  0  0  0  0  0
  193.8890  175.1930  138.0590 C   0  0  0  0  0  2  0  0  0  0  0  0
  195.0310  172.6220  137.0560 C   0  0  1  0  0  3  0  0  0  0  0  0
  193.4230  172.7420  135.3020 O   0  0  0  0  0  1  0  0  0  0  0  0
  193.6870  173.1970  136.5930 C   0  0  2  0  0  3  0  0  0  0  0  0
  195.1280  174.6570  138.6200 N   0  0  0  0  0  0  0  0  0  0  0  0
  195.6630  173.3920  138.1850 C   0  0  0  0  0  0  0  0  0  0  0  0
  196.7170  172.9390  138.7140 O   0  0  0  0  0  0  0  0  0  0  0  0
  193.6860  174.7290  136.6230 C   0  0  1  0  0  3  0  0  0  0  0  0
  192.3510  175.2760  136.1300 C   0  0  0  0  0  2  0  0  0  0  0  0
  191.3080  174.6200  136.7780 O   0  0  0  0  0  1  0  0  0  0  0  0
  195.6960  175.3120  139.7930 C   0  0  0  0  0  2  0  0  0  0  0  0
  194.8930  174.9950  141.0160 C   0  0  0  0  0  3  0  0  0  0  0  0
  194.1370  175.8210  141.4930 O   0  0  0  0  0  0  0  0  0  0  0  0
  1 35  1  1  0  0  0
  1 22  1  0  0  0  0
  2  7  1  0  0  0  0
  3  2  2  0  0  0  0
  3 10  1  0  0  0  0
  4  2  1  0  0  0  0
  4 13  1  0  0  0  0
  6 11  2  0  0  0  0
  6  8  1  0  0  0  0
  7  5  2  0  0  0  0
  8  4  2  0  0  0  0
  9  6  1  0  0  0  0
 10  1  1  6  0  0  0
 10  5  1  0  0  0  0
 11  3  1  0  0  0  0
 13 12  2  0  0  0  0
 14 18  1  0  0  0  0
 15 12  1  6  0  0  0
 15 16  1  0  0  0  0
 17 16  1  0  0  0  0
 18 15  1  0  0  0  0
 18 17  1  0  0  0  0
 19 18  1  0  0  0  0
 20 23  1  0  0  0  0
 22 20  1  0  0  0  0
 22 21  2  0  0  0  0
 24 23  1  1  0  0  0
 24 27  1  0  0  0  0
 25 26  2  0  0  0  0
 26 24  1  0  0  0  0
 28 29  1  6  0  0  0
 28 27  1  0  0  0  0
 28 32  1  0  0  0  0
 30 29  1  0  0  0  0
 31 30  1  0  0  0  0
 32 33  1  0  0  0  0
 34 33  1  0  0  0  0
 36 35  1  0  0  0  0
 37 38  1  6  0  0  0
 37 36  1  0  0  0  0
 39 40  1  0  0  0  0
 39 37  1  0  0  0  0
 41 40  1  0  0  0  0
 42 46  1  0  0  0  0
 43 41  1  1  0  0  0
 43 47  1  0  0  0  0
 45 44  1  6  0  0  0
 45 49  1  0  0  0  0
 45 43  1  0  0  0  0
 46 52  1  0  0  0  0
 47 46  1  0  0  0  0
 47 48  2  0  0  0  0
 49 50  1  1  0  0  0
 49 42  1  0  0  0  0
 50 51  1  0  0  0  0
 52 53  1  0  0  0  0
 53 54  2  0  0  0  0
M  END
>  <MODEL>
2

>  <REMARK>
 VINA RESULT:      -5.8      3.423      8.048
  Name = 
  23 active torsions:
  status: ('A' for Active; 'I' for Inactive)
    1  A    between atoms: C_2  and  O_5
    2  A    between atoms: C_2  and  O_19
    3  A    between atoms: C_2  and  N_50
    4  A    between atoms: N_4  and  C_27
    5  A    between atoms: N_4  and  C_37
    6  A    between atoms: O_5  and  C_48
    7  A    between atoms: C_6  and  C_46
    8  A    between atoms: C_7  and  N_51
    9  A    between atoms: C_9  and  C_41
   10  A    between atoms: N_10  and  C_49
   11  A    between atoms: C_14  and  N_53
   12  A    between atoms: C_15  and  C_21
   13  A    between atoms: C_17  and  C_32
   14  A    between atoms: C_17  and  N_54
   15  A    between atoms: O_19  and  C_39
   16  A    between atoms: C_21  and  N_25
   17  A    between atoms: C_24  and  N_50
   18  A    between atoms: C_27  and  C_33
   19  A    between atoms: C_27  and  C_42
   20  A    between atoms: C_28  and  C_48
   21  A    between atoms: C_32  and  C_37
   22  A    between atoms: C_48  and  C_49
   23  A    between atoms: N_51  and  N_54
                            x       y       z     vdW  Elec       q    Type
                         _______ _______ _______ _____ _____    ______ ____

>  <TORSDO>
F 23

$$$$
=
 OpenBabel11042415463D

 54 57  0  0  1  0  0  0  0  0999 V2000
  190.5890  175.5150  143.4060 C   0  0  1  0  0  3  0  0  0  0  0  0
  193.7300  174.8690  144.6690 C   0  0  0  0  0  0  0  0  0  0  0  0
  193.0210  175.7490  143.8960 C   0  0  0  0  0  0  0  0  0  0  0  0
  195.0390  174.5270  144.3270 C   0  0  0  0  0  0  0  0  0  0  0  0
  191.6270  175.1850  145.7470 C   0  0  0  0  0  3  0  0  0  0  0  0
  194.9000  175.9720  142.4290 C   0  0  0  0  0  0  0  0  0  0  0  0
  192.9410  174.3840  145.8280 C   0  0  0  0  0  3  0  0  0  0  0  0
  195.5940  175.0950  143.2110 N   0  0  0  0  0  0  0  0  0  0  0  0
  195.6620  176.6680  141.0160 Cl  0  0  0  0  0  0  0  0  0  0  0  0
  191.6540  175.9770  144.4240 C   0  0  2  0  0  3  0  0  0  0  0  0
  193.5830  176.3230  142.7610 C   0  0  0  0  0  3  0  0  0  0  0  0
  195.9540  172.3660  144.7510 C   0  0  0  0  0  3  0  0  0  0  0  0
  195.7800  173.5920  145.1220 N   0  0  0  0  0  0  0  0  0  0  0  0
  194.9410  169.6730  144.8360 C   0  0  0  0  0  1  0  0  0  0  0  0
  196.7230  171.4190  145.6210 C   0  0  2  0  0  3  0  0  0  0  0  0
  197.9400  171.0050  144.9330 N   0  0  0  0  0  2  0  0  0  0  0  0
  197.4570  169.6260  144.9510 C   0  0  0  0  0  2  0  0  0  0  0  0
  196.1810  169.9940  145.6630 C   0  0  0  0  0  0  0  0  0  0  0  0
  196.1340  169.4330  147.0710 C   0  0  0  0  0  1  0  0  0  0  0  0
  188.6870  176.3780  141.9490 N   0  0  0  0  0  2  0  0  0  0  0  0
  190.3800  177.7910  142.7130 O   0  0  0  0  0  0  0  0  0  0  0  0
  189.8840  176.6350  142.6870 C   0  0  0  0  0  0  0  0  0  0  0  0
  187.9890  177.4190  141.2100 C   0  0  0  0  0  2  0  0  0  0  0  0
  186.7090  177.8020  141.9360 C   0  0  2  0  0  3  0  0  0  0  0  0
  185.4610  177.5690  139.9500 O   0  0  0  0  0  0  0  0  0  0  0  0
  185.6580  178.2250  140.9610 C   0  0  0  0  0  3  0  0  0  0  0  0
  186.9720  178.8490  142.8240 O   0  0  0  0  0  0  0  0  0  0  0  0
  186.2940  178.5190  144.0060 C   0  0  2  0  0  3  0  0  0  0  0  0
  185.3350  179.5660  144.3660 N   0  0  0  0  0  2  0  0  0  0  0  0
  184.0290  178.9760  144.6440 C   0  0  0  0  0  2  0  0  0  0  0  0
  183.8810  178.7940  146.0170 O   0  0  0  0  0  1  0  0  0  0  0  0
  187.2200  178.3190  145.0380 O   0  0  0  0  0  0  0  0  0  0  0  0
  187.2590  176.9350  145.2300 C   0  0  0  0  0  2  0  0  0  0  0  0
  186.2700  176.5570  146.2250 N   0  0  0  0  0  1  0  0  0  0  0  0
  191.1300  174.5370  142.4610 N   0  0  0  0  0  2  0  0  0  0  0  0
  190.3730  173.2850  142.5290 C   0  0  0  0  0  2  0  0  0  0  0  0
  191.1570  172.1690  143.2120 C   0  0  1  0  0  3  0  0  0  0  0  0
  190.6300  171.9350  144.5430 N   0  0  0  0  0  1  0  0  0  0  0  0
  191.0670  170.8860  142.4020 C   0  0  0  0  0  2  0  0  0  0  0  0
  190.5240  171.1590  141.0810 N   0  0  0  0  0  2  0  0  0  0  0  0
  191.5210  170.8120  140.1550 N   0  0  0  0  0  2  0  0  0  0  0  0
  193.5260  172.4590  136.9590 C   0  0  0  0  0  2  0  0  0  0  0  0
  191.7770  171.9870  139.3350 C   0  0  1  0  0  3  0  0  0  0  0  0
  193.4910  173.0090  140.6370 O   0  0  0  0  0  1  0  0  0  0  0  0
  193.2630  172.3520  139.4280 C   0  0  2  0  0  3  0  0  0  0  0  0
  192.1430  172.0160  136.7930 N   0  0  0  0  0  0  0  0  0  0  0  0
  191.3030  171.7320  137.9280 C   0  0  0  0  0  0  0  0  0  0  0  0
  190.1230  171.3170  137.7520 O   0  0  0  0  0  0  0  0  0  0  0  0
  193.7050  173.2360  138.2560 C   0  0  1  0  0  3  0  0  0  0  0  0
  195.1760  173.6100  138.3880 C   0  0  0  0  0  2  0  0  0  0  0  0
  195.3640  174.9250  137.9720 O   0  0  0  0  0  1  0  0  0  0  0  0
  191.6920  171.6420  135.4560 C   0  0  0  0  0  2  0  0  0  0  0  0
  192.1700  170.2690  135.1020 C   0  0  0  0  0  3  0  0  0  0  0  0
  191.3780  169.3920  134.8110 O   0  0  0  0  0  0  0  0  0  0  0  0
  1 35  1  6  0  0  0
  2  7  1  0  0  0  0
  3 10  1  0  0  0  0
  3  2  2  0  0  0  0
  4  2  1  0  0  0  0
  4 13  1  0  0  0  0
  5  7  2  0  0  0  0
  6 11  2  0  0  0  0
  6  8  1  0  0  0  0
  8  4  2  0  0  0  0
  9  6  1  0  0  0  0
 10  1  1  6  0  0  0
 10  5  1  0  0  0  0
 11  3  1  0  0  0  0
 12 13  2  0  0  0  0
 14 18  1  0  0  0  0
 15 12  1  6  0  0  0
 15 18  1  0  0  0  0
 16 17  1  0  0  0  0
 16 15  1  0  0  0  0
 17 18  1  0  0  0  0
 18 19  1  0  0  0  0
 20 22  1  0  0  0  0
 22 21  2  0  0  0  0
 22  1  1  0  0  0  0
 23 24  1  0  0  0  0
 23 20  1  0  0  0  0
 24 26  1  6  0  0  0
 24 27  1  0  0  0  0
 25 26  2  0  0  0  0
 28 27  1  6  0  0  0
 28 29  1  0  0  0  0
 28 32  1  0  0  0  0
 29 30  1  0  0  0  0
 30 31  1  0  0  0  0
 32 33  1  0  0  0  0
 33 34  1  0  0  0  0
 35 36  1  0  0  0  0
 36 37  1  0  0  0  0
 37 38  1  1  0  0  0
 39 37  1  0  0  0  0
 40 39  1  0  0  0  0
 41 40  1  0  0  0  0
 42 49  1  0  0  0  0
 43 45  1  0  0  0  0
 43 41  1  1  0  0  0
 45 44  1  1  0  0  0
 46 42  1  0  0  0  0
 46 47  1  0  0  0  0
 47 43  1  0  0  0  0
 48 47  2  0  0  0  0
 49 50  1  1  0  0  0
 49 45  1  0  0  0  0
 51 50  1  0  0  0  0
 52 46  1  0  0  0  0
 53 52  1  0  0  0  0
 54 53  2  0  0  0  0
M  END
>  <MODEL>
3

>  <REMARK>
 VINA RESULT:      -5.6      2.033      3.088
  Name = 
  23 active torsions:
  status: ('A' for Active; 'I' for Inactive)
    1  A    between atoms: C_2  and  O_5
    2  A    between atoms: C_2  and  O_19
    3  A    between atoms: C_2  and  N_50
    4  A    between atoms: N_4  and  C_27
    5  A    between atoms: N_4  and  C_37
    6  A    between atoms: O_5  and  C_48
    7  A    between atoms: C_6  and  C_46
    8  A    between atoms: C_7  and  N_51
    9  A    between atoms: C_9  and  C_41
   10  A    between atoms: N_10  and  C_49
   11  A    between atoms: C_14  and  N_53
   12  A    between atoms: C_15  and  C_21
   13  A    between atoms: C_17  and  C_32
   14  A    between atoms: C_17  and  N_54
   15  A    between atoms: O_19  and  C_39
   16  A    between atoms: C_21  and  N_25
   17  A    between atoms: C_24  and  N_50
   18  A    between atoms: C_27  and  C_33
   19  A    between atoms: C_27  and  C_42
   20  A    between atoms: C_28  and  C_48
   21  A    between atoms: C_32  and  C_37
   22  A    between atoms: C_48  and  C_49
   23  A    between atoms: N_51  and  N_54
                            x       y       z     vdW  Elec       q    Type
                         _______ _______ _______ _____ _____    ______ ____

>  <TORSDO>
F 23

$$$$
=
 OpenBabel11042415463D

 54 57  0  0  1  0  0  0  0  0999 V2000
  191.3920  171.3850  141.4370 C   0  0  1  0  0  3  0  0  0  0  0  0
  189.1060  173.7900  142.3680 C   0  0  0  0  0  0  0  0  0  0  0  0
  189.3610  172.8280  141.4280 C   0  0  0  0  0  0  0  0  0  0  0  0
  188.5240  175.0030  141.9950 C   0  0  0  0  0  0  0  0  0  0  0  0
  189.9850  171.9070  143.5370 C   0  0  0  0  0  3  0  0  0  0  0  0
  188.4590  174.2520  139.7280 C   0  0  0  0  0  0  0  0  0  0  0  0
  189.5180  173.3630  143.7280 C   0  0  0  0  0  3  0  0  0  0  0  0
  188.2100  175.2010  140.6770 N   0  0  0  0  0  0  0  0  0  0  0  0
  188.0350  174.5610  138.0580 Cl  0  0  0  0  0  0  0  0  0  0  0  0
  189.9830  171.6190  142.0220 C   0  0  2  0  0  3  0  0  0  0  0  0
  189.0450  173.0300  140.0880 C   0  0  0  0  0  3  0  0  0  0  0  0
  187.2150  176.7630  142.9290 C   0  0  0  0  0  3  0  0  0  0  0  0
  188.2720  176.0210  142.9720 N   0  0  0  0  0  0  0  0  0  0  0  0
  184.5860  177.9350  142.9610 C   0  0  0  0  0  1  0  0  0  0  0  0
  186.9990  177.8260  143.9630 C   0  0  2  0  0  3  0  0  0  0  0  0
  186.8050  177.2040  145.2670 N   0  0  0  0  0  2  0  0  0  0  0  0
  185.4610  177.7760  145.3170 C   0  0  0  0  0  2  0  0  0  0  0  0
  185.6050  178.4440  143.9740 C   0  0  0  0  0  0  0  0  0  0  0  0
  185.6410  179.9560  144.0920 C   0  0  0  0  0  1  0  0  0  0  0  0
  192.3670  170.7000  139.1860 N   0  0  0  0  0  2  0  0  0  0  0  0
  190.5980  169.5290  140.1580 O   0  0  0  0  0  0  0  0  0  0  0  0
  191.4270  170.4720  140.2390 C   0  0  0  0  0  0  0  0  0  0  0  0
  192.4170  169.8670  137.9940 C   0  0  0  0  0  2  0  0  0  0  0  0
  191.6980  170.5600  136.8470 C   0  0  2  0  0  3  0  0  0  0  0  0
  192.1790  169.5590  134.7690 O   0  0  0  0  0  0  0  0  0  0  0  0
  191.4330  169.5990  135.7340 C   0  0  0  0  0  3  0  0  0  0  0  0
  192.4810  171.6180  136.3760 O   0  0  0  0  0  0  0  0  0  0  0  0
  191.6670  172.7560  136.4560 C   0  0  2  0  0  3  0  0  0  0  0  0
  191.5440  173.4020  135.1460 N   0  0  0  0  0  2  0  0  0  0  0  0
  190.2840  173.0220  134.5160 C   0  0  0  0  0  2  0  0  0  0  0  0
  189.2690  173.8690  134.9560 O   0  0  0  0  0  1  0  0  0  0  0  0
  192.1940  173.6460  137.3990 O   0  0  0  0  0  0  0  0  0  0  0  0
  193.4260  174.0450  136.8750 C   0  0  0  0  0  2  0  0  0  0  0  0
  193.7670  175.3610  137.3870 N   0  0  0  0  0  1  0  0  0  0  0  0
  192.0830  172.6460  141.1620 N   0  0  0  0  0  2  0  0  0  0  0  0
  193.0190  172.9630  142.2430 C   0  0  0  0  0  2  0  0  0  0  0  0
  194.0190  171.8390  142.4930 C   0  0  1  0  0  3  0  0  0  0  0  0
  195.3280  172.2190  141.9950 N   0  0  0  0  0  1  0  0  0  0  0  0
  194.1150  171.5360  143.9790 C   0  0  0  0  0  2  0  0  0  0  0  0
  193.4920  172.5980  144.7530 N   0  0  0  0  0  2  0  0  0  0  0  0
  194.3780  172.9110  145.7960 N   0  0  0  0  0  2  0  0  0  0  0  0
  193.9110  176.4510  143.7480 C   0  0  0  0  0  2  0  0  0  0  0  0
  194.6070  174.3490  145.7520 C   0  0  1  0  0  3  0  0  0  0  0  0
  196.7990  174.3690  144.8180 O   0  0  0  0  0  1  0  0  0  0  0  0
  195.4720  174.6840  144.5310 C   0  0  2  0  0  3  0  0  0  0  0  0
  192.9890  176.1180  144.8330 N   0  0  0  0  0  0  0  0  0  0  0  0
  193.2850  175.0690  145.7750 C   0  0  0  0  0  0  0  0  0  0  0  0
  192.4530  174.7820  146.6800 O   0  0  0  0  0  0  0  0  0  0  0  0
  195.3530  176.1610  144.1400 C   0  0  1  0  0  3  0  0  0  0  0  0
  196.2440  176.4750  142.9440 C   0  0  0  0  0  2  0  0  0  0  0  0
  195.7650  175.8130  141.8170 O   0  0  0  0  0  1  0  0  0  0  0  0
  191.6550  176.7070  144.8110 C   0  0  0  0  0  2  0  0  0  0  0  0
  191.4900  177.6020  143.6230 C   0  0  0  0  0  3  0  0  0  0  0  0
  191.0200  178.7180  143.7460 O   0  0  0  0  0  0  0  0  0  0  0  0
  1 22  1  6  0  0  0
  2  7  1  0  0  0  0
  3 10  1  0  0  0  0
  3  2  2  0  0  0  0
  4  2  1  0  0  0  0
  4 13  1  0  0  0  0
  5  7  2  0  0  0  0
  6 11  2  0  0  0  0
  6  8  1  0  0  0  0
  8  4  2  0  0  0  0
  9  6  1  0  0  0  0
 10  1  1  6  0  0  0
 10  5  1  0  0  0  0
 11  3  1  0  0  0  0
 12 13  2  0  0  0  0
 14 18  1  0  0  0  0
 15 12  1  6  0  0  0
 15 18  1  0  0  0  0
 15 16  1  0  0  0  0
 16 17  1  0  0  0  0
 18 19  1  0  0  0  0
 18 17  1  0  0  0  0
 20 22  1  0  0  0  0
 21 22  2  0  0  0  0
 23 20  1  0  0  0  0
 24 26  1  6  0  0  0
 24 23  1  0  0  0  0
 25 26  2  0  0  0  0
 27 28  1  0  0  0  0
 27 24  1  0  0  0  0
 28 29  1  6  0  0  0
 28 32  1  0  0  0  0
 30 31  1  0  0  0  0
 30 29  1  0  0  0  0
 33 34  1  0  0  0  0
 33 32  1  0  0  0  0
 35  1  1  0  0  0  0
 35 36  1  0  0  0  0
 36 37  1  0  0  0  0
 37 38  1  1  0  0  0
 37 39  1  0  0  0  0
 39 40  1  0  0  0  0
 40 41  1  0  0  0  0
 42 49  1  0  0  0  0
 42 46  1  0  0  0  0
 43 47  1  0  0  0  0
 43 41  1  6  0  0  0
 45 44  1  1  0  0  0
 45 43  1  0  0  0  0
 46 47  1  0  0  0  0
 47 48  2  0  0  0  0
 49 50  1  6  0  0  0
 49 45  1  0  0  0  0
 51 50  1  0  0  0  0
 52 46  1  0  0  0  0
 53 54  2  0  0  0  0
 53 52  1  0  0  0  0
M  END
>  <MODEL>
4

>  <REMARK>
 VINA RESULT:      -5.6      3.096      9.058
  Name = 
  23 active torsions:
  status: ('A' for Active; 'I' for Inactive)
    1  A    between atoms: C_2  and  O_5
    2  A    between atoms: C_2  and  O_19
    3  A    between atoms: C_2  and  N_50
    4  A    between atoms: N_4  and  C_27
    5  A    between atoms: N_4  and  C_37
    6  A    between atoms: O_5  and  C_48
    7  A    between atoms: C_6  and  C_46
    8  A    between atoms: C_7  and  N_51
    9  A    between atoms: C_9  and  C_41
   10  A    between atoms: N_10  and  C_49
   11  A    between atoms: C_14  and  N_53
   12  A    between atoms: C_15  and  C_21
   13  A    between atoms: C_17  and  C_32
   14  A    between atoms: C_17  and  N_54
   15  A    between atoms: O_19  and  C_39
   16  A    between atoms: C_21  and  N_25
   17  A    between atoms: C_24  and  N_50
   18  A    between atoms: C_27  and  C_33
   19  A    between atoms: C_27  and  C_42
   20  A    between atoms: C_28  and  C_48
   21  A    between atoms: C_32  and  C_37
   22  A    between atoms: C_48  and  C_49
   23  A    between atoms: N_51  and  N_54
                            x       y       z     vdW  Elec       q    Type
                         _______ _______ _______ _____ _____    ______ ____

>  <TORSDO>
F 23

$$$$
=
 OpenBabel11042415463D

 54 57  0  0  1  0  0  0  0  0999 V2000
  189.9130  175.7020  144.5800 C   0  0  1  0  0  3  0  0  0  0  0  0
  193.2450  175.0310  145.1460 C   0  0  0  0  0  0  0  0  0  0  0  0
  192.3970  175.8260  144.4240 C   0  0  0  0  0  0  0  0  0  0  0  0
  194.4160  174.5400  144.5650 C   0  0  0  0  0  0  0  0  0  0  0  0
  191.4890  175.6760  146.6240 C   0  0  0  0  0  3  0  0  0  0  0  0
  193.8570  175.6660  142.5340 C   0  0  0  0  0  0  0  0  0  0  0  0
  192.7540  174.8010  146.5280 C   0  0  0  0  0  3  0  0  0  0  0  0
  194.6940  174.8760  143.2680 N   0  0  0  0  0  0  0  0  0  0  0  0
  194.2660  176.0650  140.8800 Cl  0  0  0  0  0  0  0  0  0  0  0  0
  191.2130  176.2400  145.2160 C   0  0  2  0  0  3  0  0  0  0  0  0
  192.6780  176.1650  143.1050 C   0  0  0  0  0  3  0  0  0  0  0  0
  195.7950  172.6100  144.8060 C   0  0  0  0  0  3  0  0  0  0  0  0
  195.2990  173.6920  145.3110 N   0  0  0  0  0  0  0  0  0  0  0  0
  195.1310  169.8090  144.8390 C   0  0  0  0  0  1  0  0  0  0  0  0
  196.7030  171.7450  145.6270 C   0  0  2  0  0  3  0  0  0  0  0  0
  197.9410  171.5060  144.8950 N   0  0  0  0  0  2  0  0  0  0  0  0
  197.6350  170.0760  144.8850 C   0  0  0  0  0  2  0  0  0  0  0  0
  196.3460  170.2630  145.6420 C   0  0  0  0  0  0  0  0  0  0  0  0
  196.4120  169.6630  147.0330 C   0  0  0  0  0  1  0  0  0  0  0  0
  189.0870  177.2420  142.7270 N   0  0  0  0  0  2  0  0  0  0  0  0
  188.1240  177.2620  144.8530 O   0  0  0  0  0  0  0  0  0  0  0  0
  188.9780  176.7680  144.0720 C   0  0  0  0  0  0  0  0  0  0  0  0
  188.2310  178.2940  142.2010 C   0  0  0  0  0  2  0  0  0  0  0  0
  186.9820  177.6860  141.5830 C   0  0  2  0  0  3  0  0  0  0  0  0
  186.2130  177.1690  139.4160 O   0  0  0  0  0  0  0  0  0  0  0  0
  187.1630  177.4920  140.1130 C   0  0  0  0  0  3  0  0  0  0  0  0
  185.8900  178.5280  141.8130 O   0  0  0  0  0  0  0  0  0  0  0  0
  184.8900  177.7090  142.3550 C   0  0  2  0  0  3  0  0  0  0  0  0
  183.5620  178.2840  142.1210 N   0  0  0  0  0  2  0  0  0  0  0  0
  183.2560  178.2730  140.6940 C   0  0  0  0  0  2  0  0  0  0  0  0
  181.8950  178.0380  140.5100 O   0  0  0  0  0  1  0  0  0  0  0  0
  185.1180  177.5330  143.7250 O   0  0  0  0  0  0  0  0  0  0  0  0
  184.4740  178.6080  144.3430 C   0  0  0  0  0  2  0  0  0  0  0  0
  185.4600  179.5930  144.7520 N   0  0  0  0  0  1  0  0  0  0  0  0
  190.1870  174.7020  143.5470 N   0  0  0  0  0  2  0  0  0  0  0  0
  188.9380  174.1170  143.0560 C   0  0  0  0  0  2  0  0  0  0  0  0
  189.1760  173.0500  141.9920 C   0  0  1  0  0  3  0  0  0  0  0  0
  188.3190  173.2900  140.8460 N   0  0  0  0  0  1  0  0  0  0  0  0
  190.6290  173.0610  141.5450 C   0  0  0  0  0  2  0  0  0  0  0  0
  190.7130  173.2270  140.1030 N   0  0  0  0  0  2  0  0  0  0  0  0
  191.3760  172.0950  139.6040 N   0  0  0  0  0  2  0  0  0  0  0  0
  191.6030  174.8340  136.5390 C   0  0  0  0  0  2  0  0  0  0  0  0
  191.6820  172.3550  138.2040 C   0  0  1  0  0  3  0  0  0  0  0  0
  189.5820  171.7900  137.2310 O   0  0  0  0  0  1  0  0  0  0  0  0
  190.4210  172.8700  137.5000 C   0  0  2  0  0  3  0  0  0  0  0  0
  192.8170  174.4580  137.2620 N   0  0  0  0  0  0  0  0  0  0  0  0
  192.8550  173.2950  138.1120 C   0  0  0  0  0  0  0  0  0  0  0  0
  193.9080  173.0160  138.7500 O   0  0  0  0  0  0  0  0  0  0  0  0
  190.7590  173.6120  136.2020 C   0  0  1  0  0  3  0  0  0  0  0  0
  189.4890  174.0870  135.5070 C   0  0  0  0  0  2  0  0  0  0  0  0
  188.6630  174.7270  136.4270 O   0  0  0  0  0  1  0  0  0  0  0  0
  193.9250  175.4060  137.2930 C   0  0  0  0  0  2  0  0  0  0  0  0
  194.7400  175.3090  136.0410 C   0  0  0  0  0  3  0  0  0  0  0  0
  195.4420  174.3380  135.8310 O   0  0  0  0  0  0  0  0  0  0  0  0
  1 35  1  6  0  0  0
  2  7  1  0  0  0  0
  3  2  2  0  0  0  0
  3 10  1  0  0  0  0
  4  2  1  0  0  0  0
  4 13  1  0  0  0  0
  6 11  2  0  0  0  0
  6  8  1  0  0  0  0
  7  5  2  0  0  0  0
  8  4  2  0  0  0  0
  9  6  1  0  0  0  0
 10  1  1  6  0  0  0
 10  5  1  0  0  0  0
 11  3  1  0  0  0  0
 12 13  2  0  0  0  0
 14 18  1  0  0  0  0
 15 12  1  6  0  0  0
 15 18  1  0  0  0  0
 16 15  1  0  0  0  0
 17 16  1  0  0  0  0
 17 18  1  0  0  0  0
 18 19  1  0  0  0  0
 20 22  1  0  0  0  0
 22  1  1  0  0  0  0
 22 21  2  0  0  0  0
 23 20  1  0  0  0  0
 24 26  1  6  0  0  0
 24 27  1  0  0  0  0
 24 23  1  0  0  0  0
 25 26  2  0  0  0  0
 28 27  1  1  0  0  0
 28 32  1  0  0  0  0
 29 28  1  0  0  0  0
 30 29  1  0  0  0  0
 31 30  1  0  0  0  0
 32 33  1  0  0  0  0
 33 34  1  0  0  0  0
 36 35  1  0  0  0  0
 37 38  1  6  0  0  0
 37 36  1  0  0  0  0
 39 37  1  0  0  0  0
 40 39  1  0  0  0  0
 41 40  1  0  0  0  0
 42 46  1  0  0  0  0
 43 41  1  1  0  0  0
 45 44  1  6  0  0  0
 45 43  1  0  0  0  0
 46 52  1  0  0  0  0
 46 47  1  0  0  0  0
 47 43  1  0  0  0  0
 47 48  2  0  0  0  0
 49 50  1  1  0  0  0
 49 42  1  0  0  0  0
 49 45  1  0  0  0  0
 50 51  1  0  0  0  0
 53 52  1  0  0  0  0
 54 53  2  0  0  0  0
M  END
>  <MODEL>
5

>  <REMARK>
 VINA RESULT:      -5.5      1.960      3.292
  Name = 
  23 active torsions:
  status: ('A' for Active; 'I' for Inactive)
    1  A    between atoms: C_2  and  O_5
    2  A    between atoms: C_2  and  O_19
    3  A    between atoms: C_2  and  N_50
    4  A    between atoms: N_4  and  C_27
    5  A    between atoms: N_4  and  C_37
    6  A    between atoms: O_5  and  C_48
    7  A    between atoms: C_6  and  C_46
    8  A    between atoms: C_7  and  N_51
    9  A    between atoms: C_9  and  C_41
   10  A    between atoms: N_10  and  C_49
   11  A    between atoms: C_14  and  N_53
   12  A    between atoms: C_15  and  C_21
   13  A    between atoms: C_17  and  C_32
   14  A    between atoms: C_17  and  N_54
   15  A    between atoms: O_19  and  C_39
   16  A    between atoms: C_21  and  N_25
   17  A    between atoms: C_24  and  N_50
   18  A    between atoms: C_27  and  C_33
   19  A    between atoms: C_27  and  C_42
   20  A    between atoms: C_28  and  C_48
   21  A    between atoms: C_32  and  C_37
   22  A    between atoms: C_48  and  C_49
   23  A    between atoms: N_51  and  N_54
                            x       y       z     vdW  Elec       q    Type
                         _______ _______ _______ _____ _____    ______ ____

>  <TORSDO>
F 23

$$$$
=
 OpenBabel11042415463D

 54 57  0  0  1  0  0  0  0  0999 V2000
  191.6050  171.4130  141.0760 C   0  0  1  0  0  3  0  0  0  0  0  0
  189.0860  173.5520  142.0520 C   0  0  0  0  0  0  0  0  0  0  0  0
  189.4610  172.6810  141.0650 C   0  0  0  0  0  0  0  0  0  0  0  0
  188.4190  174.7360  141.7320 C   0  0  0  0  0  0  0  0  0  0  0  0
  190.0740  171.6730  143.1370 C   0  0  0  0  0  3  0  0  0  0  0  0
  188.5120  174.1400  139.4210 C   0  0  0  0  0  0  0  0  0  0  0  0
  189.4770  173.0690  143.4000 C   0  0  0  0  0  3  0  0  0  0  0  0
  188.1430  174.9970  140.4170 N   0  0  0  0  0  0  0  0  0  0  0  0
  188.1310  174.5260  137.7560 Cl  0  0  0  0  0  0  0  0  0  0  0  0
  190.1590  171.4900  141.6080 C   0  0  2  0  0  3  0  0  0  0  0  0
  189.1840  172.9480  139.7280 C   0  0  0  0  0  3  0  0  0  0  0  0
  187.7800  176.9010  142.5020 C   0  0  0  0  0  3  0  0  0  0  0  0
  188.0410  175.6610  142.7600 N   0  0  0  0  0  0  0  0  0  0  0  0
  184.9800  177.5400  142.6750 C   0  0  0  0  0  1  0  0  0  0  0  0
  187.4030  177.8360  143.6100 C   0  0  2  0  0  3  0  0  0  0  0  0
  187.3780  177.1080  144.8740 N   0  0  0  0  0  2  0  0  0  0  0  0
  185.9520  177.4070  144.9940 C   0  0  0  0  0  2  0  0  0  0  0  0
  185.9180  178.1720  143.6960 C   0  0  0  0  0  0  0  0  0  0  0  0
  185.6700  179.6520  143.9150 C   0  0  0  0  0  1  0  0  0  0  0  0
  192.3730  171.7720  138.6740 N   0  0  0  0  0  2  0  0  0  0  0  0
  191.2090  169.8520  139.3110 O   0  0  0  0  0  0  0  0  0  0  0  0
  191.7210  170.9510  139.6470 C   0  0  0  0  0  0  0  0  0  0  0  0
  192.4790  171.3850  137.2750 C   0  0  0  0  0  2  0  0  0  0  0  0
  193.9410  171.2270  136.8900 C   0  0  2  0  0  3  0  0  0  0  0  0
  194.8020  169.3540  135.7480 O   0  0  0  0  0  0  0  0  0  0  0  0
  194.3020  169.7810  136.7770 C   0  0  0  0  0  3  0  0  0  0  0  0
  194.7470  171.8360  137.8570 O   0  0  0  0  0  0  0  0  0  0  0  0
  195.6500  172.6370  137.1450 C   0  0  2  0  0  3  0  0  0  0  0  0
  197.0330  172.2810  137.4730 N   0  0  0  0  0  2  0  0  0  0  0  0
  197.6370  171.5460  136.3670 C   0  0  0  0  0  2  0  0  0  0  0  0
  197.0590  171.9500  135.1660 O   0  0  0  0  0  1  0  0  0  0  0  0
  195.4050  173.9860  137.4280 O   0  0  0  0  0  0  0  0  0  0  0  0
  195.2540  174.0460  138.8160 C   0  0  0  0  0  2  0  0  0  0  0  0
  195.9880  175.1860  139.3350 N   0  0  0  0  0  1  0  0  0  0  0  0
  192.3300  172.6680  141.2870 N   0  0  0  0  0  2  0  0  0  0  0  0
  193.6140  172.4140  141.9420 C   0  0  0  0  0  2  0  0  0  0  0  0
  193.6720  171.0340  142.5900 C   0  0  1  0  0  3  0  0  0  0  0  0
  194.8000  170.2860  142.0680 N   0  0  0  0  0  1  0  0  0  0  0  0
  193.8090  171.1630  144.0990 C   0  0  0  0  0  2  0  0  0  0  0  0
  193.1170  172.3530  144.5690 N   0  0  0  0  0  2  0  0  0  0  0  0
  193.8480  172.8370  145.6650 N   0  0  0  0  0  2  0  0  0  0  0  0
  194.1850  175.9030  142.9380 C   0  0  0  0  0  2  0  0  0  0  0  0
  194.0990  174.2520  145.4260 C   0  0  1  0  0  3  0  0  0  0  0  0
  196.4790  174.2180  145.3310 O   0  0  0  0  0  1  0  0  0  0  0  0
  195.3440  174.4000  144.5430 C   0  0  2  0  0  3  0  0  0  0  0  0
  192.9350  175.7270  143.6750 N   0  0  0  0  0  0  0  0  0  0  0  0
  192.8640  174.8900  144.8460 C   0  0  0  0  0  0  0  0  0  0  0  0
  191.7620  174.7310  145.4410 O   0  0  0  0  0  0  0  0  0  0  0  0
  195.3920  175.7700  143.8570 C   0  0  1  0  0  3  0  0  0  0  0  0
  196.6520  175.9040  143.0110 C   0  0  0  0  0  2  0  0  0  0  0  0
  196.5270  176.9950  142.1540 O   0  0  0  0  0  1  0  0  0  0  0  0
  191.7030  176.2280  143.0760 C   0  0  0  0  0  2  0  0  0  0  0  0
  191.4550  177.6460  143.4830 C   0  0  0  0  0  3  0  0  0  0  0  0
  190.8160  177.9010  144.4860 O   0  0  0  0  0  0  0  0  0  0  0  0
  1 22  1  6  0  0  0
  1 35  1  0  0  0  0
  2  7  1  0  0  0  0
  3 10  1  0  0  0  0
  3  2  2  0  0  0  0
  4  2  1  0  0  0  0
  4 13  1  0  0  0  0
  5  7  2  0  0  0  0
  6 11  2  0  0  0  0
  6  8  1  0  0  0  0
  8  4  2  0  0  0  0
  9  6  1  0  0  0  0
 10  1  1  6  0  0  0
 10  5  1  0  0  0  0
 11  3  1  0  0  0  0
 12 13  2  0  0  0  0
 14 18  1  0  0  0  0
 15 12  1  6  0  0  0
 15 18  1  0  0  0  0
 15 16  1  0  0  0  0
 16 17  1  0  0  0  0
 18 19  1  0  0  0  0
 18 17  1  0  0  0  0
 20 22  1  0  0  0  0
 21 22  2  0  0  0  0
 23 20  1  0  0  0  0
 24 26  1  1  0  0  0
 24 23  1  0  0  0  0
 24 27  1  0  0  0  0
 25 26  2  0  0  0  0
 28 32  1  1  0  0  0
 28 29  1  0  0  0  0
 28 27  1  0  0  0  0
 30 29  1  0  0  0  0
 31 30  1  0  0  0  0
 32 33  1  0  0  0  0
 33 34  1  0  0  0  0
 35 36  1  0  0  0  0
 36 37  1  0  0  0  0
 37 38  1  6  0  0  0
 37 39  1  0  0  0  0
 39 40  1  0  0  0  0
 40 41  1  0  0  0  0
 42 46  1  0  0  0  0
 42 49  1  0  0  0  0
 43 41  1  6  0  0  0
 45 44  1  1  0  0  0
 45 43  1  0  0  0  0
 46 47  1  0  0  0  0
 47 43  1  0  0  0  0
 47 48  2  0  0  0  0
 49 50  1  6  0  0  0
 49 45  1  0  0  0  0
 51 50  1  0  0  0  0
 52 53  1  0  0  0  0
 52 46  1  0  0  0  0
 53 54  2  0  0  0  0
M  END
>  <MODEL>
6

>  <REMARK>
 VINA RESULT:      -5.5      3.136      9.480
  Name = 
  23 active torsions:
  status: ('A' for Active; 'I' for Inactive)
    1  A    between atoms: C_2  and  O_5
    2  A    between atoms: C_2  and  O_19
    3  A    between atoms: C_2  and  N_50
    4  A    between atoms: N_4  and  C_27
    5  A    between atoms: N_4  and  C_37
    6  A    between atoms: O_5  and  C_48
    7  A    between atoms: C_6  and  C_46
    8  A    between atoms: C_7  and  N_51
    9  A    between atoms: C_9  and  C_41
   10  A    between atoms: N_10  and  C_49
   11  A    between atoms: C_14  and  N_53
   12  A    between atoms: C_15  and  C_21
   13  A    between atoms: C_17  and  C_32
   14  A    between atoms: C_17  and  N_54
   15  A    between atoms: O_19  and  C_39
   16  A    between atoms: C_21  and  N_25
   17  A    between atoms: C_24  and  N_50
   18  A    between atoms: C_27  and  C_33
   19  A    between atoms: C_27  and  C_42
   20  A    between atoms: C_28  and  C_48
   21  A    between atoms: C_32  and  C_37
   22  A    between atoms: C_48  and  C_49
   23  A    between atoms: N_51  and  N_54
                            x       y       z     vdW  Elec       q    Type
                         _______ _______ _______ _____ _____    ______ ____

>  <TORSDO>
F 23

$$$$
=
 OpenBabel11042415463D

 54 57  0  0  1  0  0  0  0  0999 V2000
  189.6450  174.4170  142.1860 C   0  0  1  0  0  3  0  0  0  0  0  0
  191.8010  173.0720  144.5140 C   0  0  0  0  0  0  0  0  0  0  0  0
  191.1150  174.2100  144.1880 C   0  0  0  0  0  0  0  0  0  0  0  0
  193.0900  173.1530  145.0430 C   0  0  0  0  0  0  0  0  0  0  0  0
  189.6430  172.3810  143.7720 C   0  0  0  0  0  3  0  0  0  0  0  0
  192.9730  175.5350  144.9110 C   0  0  0  0  0  0  0  0  0  0  0  0
  191.0120  171.8460  144.2350 C   0  0  0  0  0  3  0  0  0  0  0  0
  193.6440  174.3910  145.2330 N   0  0  0  0  0  0  0  0  0  0  0  0
  193.7310  177.0900  145.1770 Cl  0  0  0  0  0  0  0  0  0  0  0  0
  189.7690  173.9120  143.6400 C   0  0  2  0  0  3  0  0  0  0  0  0
  191.6780  175.4680  144.3770 C   0  0  0  0  0  3  0  0  0  0  0  0
  194.7030  171.4620  144.5680 C   0  0  0  0  0  3  0  0  0  0  0  0
  193.8210  171.9640  145.3690 N   0  0  0  0  0  0  0  0  0  0  0  0
  197.5270  171.7710  145.0290 C   0  0  0  0  0  1  0  0  0  0  0  0
  195.4320  170.2080  144.9440 C   0  0  2  0  0  3  0  0  0  0  0  0
  195.1750  169.8960  146.3440 N   0  0  0  0  0  2  0  0  0  0  0  0
  196.6030  170.0510  146.6200 C   0  0  0  0  0  2  0  0  0  0  0  0
  196.9280  170.3780  145.1850 C   0  0  0  0  0  0  0  0  0  0  0  0
  197.7500  169.2870  144.5270 C   0  0  0  0  0  1  0  0  0  0  0  0
  188.8300  176.7410  142.8370 N   0  0  0  0  0  2  0  0  0  0  0  0
  187.7930  175.5110  141.1460 O   0  0  0  0  0  0  0  0  0  0  0  0
  188.7070  175.5820  142.0080 C   0  0  0  0  0  0  0  0  0  0  0  0
  187.9270  177.8760  142.7270 C   0  0  0  0  0  2  0  0  0  0  0  0
  186.8710  177.8080  143.8180 C   0  0  2  0  0  3  0  0  0  0  0  0
  184.6580  177.5640  143.0450 O   0  0  0  0  0  0  0  0  0  0  0  0
  185.5640  178.3350  143.3210 C   0  0  0  0  0  3  0  0  0  0  0  0
  187.2900  178.5590  144.9200 O   0  0  0  0  0  0  0  0  0  0  0  0
  186.6820  177.9650  146.0350 C   0  0  2  0  0  3  0  0  0  0  0  0
  185.8270  178.9270  146.7360 N   0  0  0  0  0  2  0  0  0  0  0  0
  184.5080  178.3480  146.9690 C   0  0  0  0  0  2  0  0  0  0  0  0
  184.4350  177.0930  146.3680 O   0  0  0  0  0  1  0  0  0  0  0  0
  187.6660  177.4590  146.8930 O   0  0  0  0  0  0  0  0  0  0  0  0
  187.8270  176.1230  146.5150 C   0  0  0  0  0  2  0  0  0  0  0  0
  189.1520  175.6680  146.9000 N   0  0  0  0  0  1  0  0  0  0  0  0
  190.9550  174.6970  141.5950 N   0  0  0  0  0  2  0  0  0  0  0  0
  191.2830  173.6950  140.5800 C   0  0  0  0  0  2  0  0  0  0  0  0
  192.7650  173.3300  140.5810 C   0  0  1  0  0  3  0  0  0  0  0  0
  193.4750  174.1400  141.5530 N   0  0  0  0  0  1  0  0  0  0  0  0
  192.9490  171.8600  140.9210 C   0  0  0  0  0  2  0  0  0  0  0  0
  192.0240  171.0430  140.1510 N   0  0  0  0  0  2  0  0  0  0  0  0
  192.8040  170.2190  139.3250 N   0  0  0  0  0  2  0  0  0  0  0  0
  191.6330  173.1300  136.6590 C   0  0  0  0  0  2  0  0  0  0  0  0
  192.5010  170.5780  137.9460 C   0  0  1  0  0  3  0  0  0  0  0  0
  190.2170  169.9080  137.8590 O   0  0  0  0  0  1  0  0  0  0  0  0
  191.0400  171.0330  137.8540 C   0  0  2  0  0  3  0  0  0  0  0  0
  193.0520  172.8090  136.8000 N   0  0  0  0  0  0  0  0  0  0  0  0
  193.4890  171.6080  137.4660 C   0  0  0  0  0  0  0  0  0  0  0  0
  194.7230  171.3760  137.6020 O   0  0  0  0  0  0  0  0  0  0  0  0
  190.7850  171.8670  136.5940 C   0  0  1  0  0  3  0  0  0  0  0  0
  189.3200  172.2810  136.5090 C   0  0  0  0  0  2  0  0  0  0  0  0
  188.9640  172.9780  137.6610 O   0  0  0  0  0  1  0  0  0  0  0  0
  194.0300  173.8360  136.4580 C   0  0  0  0  0  2  0  0  0  0  0  0
  193.7110  175.1220  137.1530 C   0  0  0  0  0  3  0  0  0  0  0  0
  194.1450  175.3510  138.2670 O   0  0  0  0  0  0  0  0  0  0  0  0
  1 35  1  1  0  0  0
  2  4  1  0  0  0  0
  3 11  1  0  0  0  0
  3  2  2  0  0  0  0
  4  8  2  0  0  0  0
  4 13  1  0  0  0  0
  5  7  2  0  0  0  0
  6  9  1  0  0  0  0
  6  8  1  0  0  0  0
  7  2  1  0  0  0  0
 10  1  1  6  0  0  0
 10  5  1  0  0  0  0
 10  3  1  0  0  0  0
 11  6  2  0  0  0  0
 12 13  2  0  0  0  0
 14 18  1  0  0  0  0
 15 12  1  1  0  0  0
 15 18  1  0  0  0  0
 15 16  1  0  0  0  0
 16 17  1  0  0  0  0
 18 17  1  0  0  0  0
 19 18  1  0  0  0  0
 21 22  2  0  0  0  0
 22  1  1  0  0  0  0
 22 20  1  0  0  0  0
 23 20  1  0  0  0  0
 24 23  1  6  0  0  0
 24 27  1  0  0  0  0
 25 26  2  0  0  0  0
 26 24  1  0  0  0  0
 28 27  1  6  0  0  0
 28 29  1  0  0  0  0
 28 32  1  0  0  0  0
 29 30  1  0  0  0  0
 31 30  1  0  0  0  0
 33 32  1  0  0  0  0
 33 34  1  0  0  0  0
 36 37  1  0  0  0  0
 36 35  1  0  0  0  0
 37 39  1  0  0  0  0
 37 38  1  1  0  0  0
 40 39  1  0  0  0  0
 41 40  1  0  0  0  0
 42 46  1  0  0  0  0
 43 41  1  1  0  0  0
 45 44  1  6  0  0  0
 45 43  1  0  0  0  0
 46 47  1  0  0  0  0
 47 48  2  0  0  0  0
 47 43  1  0  0  0  0
 49 50  1  1  0  0  0
 49 42  1  0  0  0  0
 49 45  1  0  0  0  0
 50 51  1  0  0  0  0
 52 46  1  0  0  0  0
 52 53  1  0  0  0  0
 53 54  2  0  0  0  0
M  END
>  <MODEL>
7

>  <REMARK>
 VINA RESULT:      -5.4      2.263      3.559
  Name = 
  23 active torsions:
  status: ('A' for Active; 'I' for Inactive)
    1  A    between atoms: C_2  and  O_5
    2  A    between atoms: C_2  and  O_19
    3  A    between atoms: C_2  and  N_50
    4  A    between atoms: N_4  and  C_27
    5  A    between atoms: N_4  and  C_37
    6  A    between atoms: O_5  and  C_48
    7  A    between atoms: C_6  and  C_46
    8  A    between atoms: C_7  and  N_51
    9  A    between atoms: C_9  and  C_41
   10  A    between atoms: N_10  and  C_49
   11  A    between atoms: C_14  and  N_53
   12  A    between atoms: C_15  and  C_21
   13  A    between atoms: C_17  and  C_32
   14  A    between atoms: C_17  and  N_54
   15  A    between atoms: O_19  and  C_39
   16  A    between atoms: C_21  and  N_25
   17  A    between atoms: C_24  and  N_50
   18  A    between atoms: C_27  and  C_33
   19  A    between atoms: C_27  and  C_42
   20  A    between atoms: C_28  and  C_48
   21  A    between atoms: C_32  and  C_37
   22  A    between atoms: C_48  and  C_49
   23  A    between atoms: N_51  and  N_54
                            x       y       z     vdW  Elec       q    Type
                         _______ _______ _______ _____ _____    ______ ____

>  <TORSDO>
F 23

$$$$
=
 OpenBabel11042415463D

 54 57  0  0  1  0  0  0  0  0999 V2000
  192.3740  173.5190  143.4290 C   0  0  1  0  0  3  0  0  0  0  0  0
  195.1300  173.5520  141.3600 C   0  0  0  0  0  0  0  0  0  0  0  0
  194.7160  173.8250  142.6360 C   0  0  0  0  0  0  0  0  0  0  0  0
  196.0620  174.3780  140.7290 C   0  0  0  0  0  0  0  0  0  0  0  0
  193.6450  171.7960  141.9880 C   0  0  0  0  0  3  0  0  0  0  0  0
  196.1500  175.7420  142.6880 C   0  0  0  0  0  0  0  0  0  0  0  0
  194.4760  172.3390  140.8100 C   0  0  0  0  0  3  0  0  0  0  0  0
  196.5540  175.4550  141.4160 N   0  0  0  0  0  0  0  0  0  0  0  0
  196.8160  177.1310  143.5190 Cl  0  0  0  0  0  0  0  0  0  0  0  0
  193.7240  172.8360  143.1240 C   0  0  2  0  0  3  0  0  0  0  0  0
  195.2130  174.9210  143.3330 C   0  0  0  0  0  3  0  0  0  0  0  0
  196.6580  175.0530  138.5210 C   0  0  0  0  0  3  0  0  0  0  0  0
  196.4840  174.1080  139.3860 N   0  0  0  0  0  0  0  0  0  0  0  0
  194.5200  174.4920  136.6780 C   0  0  0  0  0  1  0  0  0  0  0  0
  197.0860  174.7230  137.1230 C   0  0  2  0  0  3  0  0  0  0  0  0
  197.4500  175.9490  136.4240 N   0  0  0  0  0  2  0  0  0  0  0  0
  196.3690  175.7020  135.4710 C   0  0  0  0  0  2  0  0  0  0  0  0
  195.9490  174.4250  136.1520 C   0  0  0  0  0  0  0  0  0  0  0  0
  196.2240  173.2060  135.2930 C   0  0  0  0  0  1  0  0  0  0  0  0
  190.6330  173.2950  141.5840 N   0  0  0  0  0  2  0  0  0  0  0  0
  190.6380  171.8780  143.4390 O   0  0  0  0  0  0  0  0  0  0  0  0
  191.1770  172.8350  142.8240 C   0  0  0  0  0  0  0  0  0  0  0  0
  189.4570  172.6890  140.9780 C   0  0  0  0  0  2  0  0  0  0  0  0
  189.1930  173.3170  139.6190 C   0  0  2  0  0  3  0  0  0  0  0  0
  187.7690  174.9730  138.7340 O   0  0  0  0  0  0  0  0  0  0  0  0
  188.2120  174.4380  139.7380 C   0  0  0  0  0  3  0  0  0  0  0  0
  188.6900  172.3460  138.7470 O   0  0  0  0  0  0  0  0  0  0  0  0
  189.6870  172.1570  137.7790 C   0  0  2  0  0  3  0  0  0  0  0  0
  190.6240  171.1090  138.1950 N   0  0  0  0  0  2  0  0  0  0  0  0
  189.9150  169.8470  138.3780 C   0  0  0  0  0  2  0  0  0  0  0  0
  190.4800  169.1420  139.4390 O   0  0  0  0  0  1  0  0  0  0  0  0
  190.3610  173.3630  137.5560 O   0  0  0  0  0  0  0  0  0  0  0  0
  190.0430  173.7210  136.2430 C   0  0  0  0  0  2  0  0  0  0  0  0
  191.2190  173.5740  135.4030 N   0  0  0  0  0  1  0  0  0  0  0  0
  192.1890  173.7390  144.8650 N   0  0  0  0  0  2  0  0  0  0  0  0
  191.9580  175.1580  145.1410 C   0  0  0  0  0  2  0  0  0  0  0  0
  192.4170  175.5600  146.5390 C   0  0  1  0  0  3  0  0  0  0  0  0
  193.6470  176.3250  146.4570 N   0  0  0  0  0  1  0  0  0  0  0  0
  191.3500  176.3960  147.2270 C   0  0  0  0  0  2  0  0  0  0  0  0
  190.0260  176.0010  146.7720 N   0  0  0  0  0  2  0  0  0  0  0  0
  189.3320  177.1840  146.4740 N   0  0  0  0  0  2  0  0  0  0  0  0
  185.8780  178.3940  144.5900 C   0  0  0  0  0  2  0  0  0  0  0  0
  188.1210  176.8060  145.7590 C   0  0  1  0  0  3  0  0  0  0  0  0
  186.6850  176.3840  147.6130 O   0  0  0  0  0  1  0  0  0  0  0  0
  186.8980  177.2710  146.5580 C   0  0  2  0  0  3  0  0  0  0  0  0
  187.0590  178.0720  143.7930 N   0  0  0  0  0  0  0  0  0  0  0  0
  188.1740  177.3530  144.3570 C   0  0  0  0  0  0  0  0  0  0  0  0
  189.1950  177.1200  143.6520 O   0  0  0  0  0  0  0  0  0  0  0  0
  185.6450  177.3560  145.6790 C   0  0  1  0  0  3  0  0  0  0  0  0
  184.4380  177.7900  146.5020 C   0  0  0  0  0  2  0  0  0  0  0  0
  184.7900  178.8610  147.3190 O   0  0  0  0  0  1  0  0  0  0  0  0
  187.1960  178.6890  142.4780 C   0  0  0  0  0  2  0  0  0  0  0  0
  186.5090  177.8660  141.4340 C   0  0  0  0  0  3  0  0  0  0  0  0
  185.5610  178.3130  140.8150 O   0  0  0  0  0  0  0  0  0  0  0  0
  1 22  1  1  0  0  0
  1 35  1  0  0  0  0
  2  3  2  0  0  0  0
  3 10  1  0  0  0  0
  3 11  1  0  0  0  0
  4  2  1  0  0  0  0
  4  8  2  0  0  0  0
  5 10  1  0  0  0  0
  6 11  2  0  0  0  0
  6  9  1  0  0  0  0
  7  2  1  0  0  0  0
  7  5  2  0  0  0  0
  8  6  1  0  0  0  0
 10  1  1  6  0  0  0
 12 13  2  0  0  0  0
 13  4  1  0  0  0  0
 15 12  1  1  0  0  0
 16 15  1  0  0  0  0
 17 18  1  0  0  0  0
 17 16  1  0  0  0  0
 18 14  1  0  0  0  0
 18 15  1  0  0  0  0
 19 18  1  0  0  0  0
 20 22  1  0  0  0  0
 22 21  2  0  0  0  0
 23 20  1  0  0  0  0
 24 26  1  1  0  0  0
 24 23  1  0  0  0  0
 25 26  2  0  0  0  0
 27 24  1  0  0  0  0
 28 32  1  1  0  0  0
 28 29  1  0  0  0  0
 28 27  1  0  0  0  0
 29 30  1  0  0  0  0
 30 31  1  0  0  0  0
 33 32  1  0  0  0  0
 34 33  1  0  0  0  0
 35 36  1  0  0  0  0
 36 37  1  0  0  0  0
 37 38  1  6  0  0  0
 37 39  1  0  0  0  0
 40 39  1  0  0  0  0
 41 40  1  0  0  0  0
 42 49  1  0  0  0  0
 43 41  1  1  0  0  0
 43 45  1  0  0  0  0
 45 44  1  1  0  0  0
 46 47  1  0  0  0  0
 46 42  1  0  0  0  0
 47 43  1  0  0  0  0
 48 47  2  0  0  0  0
 49 50  1  1  0  0  0
 49 45  1  0  0  0  0
 50 51  1  0  0  0  0
 52 46  1  0  0  0  0
 53 52  1  0  0  0  0
 54 53  2  0  0  0  0
M  END
>  <MODEL>
8

>  <REMARK>
 VINA RESULT:      -5.3      2.790      7.601
  Name = 
  23 active torsions:
  status: ('A' for Active; 'I' for Inactive)
    1  A    between atoms: C_2  and  O_5
    2  A    between atoms: C_2  and  O_19
    3  A    between atoms: C_2  and  N_50
    4  A    between atoms: N_4  and  C_27
    5  A    between atoms: N_4  and  C_37
    6  A    between atoms: O_5  and  C_48
    7  A    between atoms: C_6  and  C_46
    8  A    between atoms: C_7  and  N_51
    9  A    between atoms: C_9  and  C_41
   10  A    between atoms: N_10  and  C_49
   11  A    between atoms: C_14  and  N_53
   12  A    between atoms: C_15  and  C_21
   13  A    between atoms: C_17  and  C_32
   14  A    between atoms: C_17  and  N_54
   15  A    between atoms: O_19  and  C_39
   16  A    between atoms: C_21  and  N_25
   17  A    between atoms: C_24  and  N_50
   18  A    between atoms: C_27  and  C_33
   19  A    between atoms: C_27  and  C_42
   20  A    between atoms: C_28  and  C_48
   21  A    between atoms: C_32  and  C_37
   22  A    between atoms: C_48  and  C_49
   23  A    between atoms: N_51  and  N_54
                            x       y       z     vdW  Elec       q    Type
                         _______ _______ _______ _____ _____    ______ ____

>  <TORSDO>
F 23

$$$$
=
 OpenBabel11042415463D

 54 57  0  0  1  0  0  0  0  0999 V2000
  192.3530  171.6760  141.9450 C   0  0  1  0  0  3  0  0  0  0  0  0
  189.2910  173.2460  142.1260 C   0  0  0  0  0  0  0  0  0  0  0  0
  190.0680  172.4530  141.3260 C   0  0  0  0  0  0  0  0  0  0  0  0
  188.4980  174.2500  141.5650 C   0  0  0  0  0  0  0  0  0  0  0  0
  190.3360  171.6500  143.5560 C   0  0  0  0  0  3  0  0  0  0  0  0
  189.2840  173.6320  139.3960 C   0  0  0  0  0  0  0  0  0  0  0  0
  189.4220  172.8910  143.5610 C   0  0  0  0  0  3  0  0  0  0  0  0
  188.5130  174.4140  140.2070 N   0  0  0  0  0  0  0  0  0  0  0  0
  189.2600  173.8860  137.6640 Cl  0  0  0  0  0  0  0  0  0  0  0  0
  190.8340  171.4530  142.1100 C   0  0  2  0  0  3  0  0  0  0  0  0
  190.0850  172.6210  139.9460 C   0  0  0  0  0  3  0  0  0  0  0  0
  187.6730  176.3810  142.2480 C   0  0  0  0  0  3  0  0  0  0  0  0
  187.6970  175.0970  142.3990 N   0  0  0  0  0  0  0  0  0  0  0  0
  185.9950  178.3060  140.9220 C   0  0  0  0  0  1  0  0  0  0  0  0
  186.8320  177.2290  143.1530 C   0  0  2  0  0  3  0  0  0  0  0  0
  185.6850  176.4570  143.6160 N   0  0  0  0  0  2  0  0  0  0  0  0
  184.8000  177.4100  142.9500 C   0  0  0  0  0  2  0  0  0  0  0  0
  185.9460  178.2480  142.4450 C   0  0  0  0  0  0  0  0  0  0  0  0
  185.9870  179.6120  143.1070 C   0  0  0  0  0  1  0  0  0  0  0  0
  194.0350  171.2890  140.0720 N   0  0  0  0  0  2  0  0  0  0  0  0
  192.6220  169.5880  140.8170 O   0  0  0  0  0  0  0  0  0  0  0  0
  193.0100  170.7790  140.9290 C   0  0  0  0  0  0  0  0  0  0  0  0
  194.6740  170.4720  139.0520 C   0  0  0  0  0  2  0  0  0  0  0  0
  195.7680  171.2690  138.3590 C   0  0  2  0  0  3  0  0  0  0  0  0
  196.9690  169.2420  138.3790 O   0  0  0  0  0  0  0  0  0  0  0  0
  197.0120  170.4530  138.2280 C   0  0  0  0  0  3  0  0  0  0  0  0
  196.0410  172.4250  139.0960 O   0  0  0  0  0  0  0  0  0  0  0  0
  196.6080  173.3270  138.1850 C   0  0  2  0  0  3  0  0  0  0  0  0
  196.8730  174.6180  138.8280 N   0  0  0  0  0  2  0  0  0  0  0  0
  196.2260  174.6690  140.1350 C   0  0  0  0  0  2  0  0  0  0  0  0
  195.2330  175.6460  140.1270 O   0  0  0  0  0  1  0  0  0  0  0  0
  195.7540  173.4860  137.0880 O   0  0  0  0  0  0  0  0  0  0  0  0
  196.5590  174.0080  136.0720 C   0  0  0  0  0  2  0  0  0  0  0  0
  197.7060  173.1410  135.8700 N   0  0  0  0  0  1  0  0  0  0  0  0
  192.6710  173.0830  141.6940 N   0  0  0  0  0  2  0  0  0  0  0  0
  193.4030  173.6530  142.8270 C   0  0  0  0  0  2  0  0  0  0  0  0
  193.9490  172.5800  143.7640 C   0  0  1  0  0  3  0  0  0  0  0  0
  195.3990  172.5900  143.7410 N   0  0  0  0  0  1  0  0  0  0  0  0
  193.4670  172.8220  145.1850 C   0  0  0  0  0  2  0  0  0  0  0  0
  192.6550  174.0280  145.2450 N   0  0  0  0  0  2  0  0  0  0  0  0
  192.8750  174.6000  146.5080 N   0  0  0  0  0  2  0  0  0  0  0  0
  189.9040  176.9930  144.9620 C   0  0  0  0  0  2  0  0  0  0  0  0
  192.2010  175.8910  146.5200 C   0  0  1  0  0  3  0  0  0  0  0  0
  193.6210  177.0900  145.0290 O   0  0  0  0  0  1  0  0  0  0  0  0
  192.3420  176.5460  145.1420 C   0  0  2  0  0  3  0  0  0  0  0  0
  189.6820  176.2930  146.2250 N   0  0  0  0  0  0  0  0  0  0  0  0
  190.7730  175.7080  146.9620 C   0  0  0  0  0  0  0  0  0  0  0  0
  190.5440  175.0790  148.0330 O   0  0  0  0  0  0  0  0  0  0  0  0
  191.2850  177.6340  144.9200 C   0  0  1  0  0  3  0  0  0  0  0  0
  191.4650  178.2900  143.5560 C   0  0  0  0  0  2  0  0  0  0  0  0
  190.2500  178.2970  142.8760 O   0  0  0  0  0  1  0  0  0  0  0  0
  188.3090  175.9920  146.6170 C   0  0  0  0  0  2  0  0  0  0  0  0
  187.5660  177.2490  146.9450 C   0  0  0  0  0  3  0  0  0  0  0  0
  186.3490  177.2650  146.9610 O   0  0  0  0  0  0  0  0  0  0  0  0
  1 22  1  6  0  0  0
  2  7  1  0  0  0  0
  3 10  1  0  0  0  0
  3  2  2  0  0  0  0
  4  2  1  0  0  0  0
  4 13  1  0  0  0  0
  5  7  2  0  0  0  0
  6 11  2  0  0  0  0
  6  8  1  0  0  0  0
  8  4  2  0  0  0  0
  9  6  1  0  0  0  0
 10  1  1  1  0  0  0
 10  5  1  0  0  0  0
 11  3  1  0  0  0  0
 12 13  2  0  0  0  0
 14 18  1  0  0  0  0
 15 12  1  6  0  0  0
 15 16  1  0  0  0  0
 17 16  1  0  0  0  0
 18 17  1  0  0  0  0
 18 19  1  0  0  0  0
 18 15  1  0  0  0  0
 20 22  1  0  0  0  0
 21 22  2  0  0  0  0
 23 20  1  0  0  0  0
 24 26  1  1  0  0  0
 24 23  1  0  0  0  0
 24 27  1  0  0  0  0
 26 25  2  0  0  0  0
 28 32  1  6  0  0  0
 28 29  1  0  0  0  0
 28 27  1  0  0  0  0
 29 30  1  0  0  0  0
 31 30  1  0  0  0  0
 33 32  1  0  0  0  0
 34 33  1  0  0  0  0
 35  1  1  0  0  0  0
 35 36  1  0  0  0  0
 36 37  1  0  0  0  0
 37 38  1  1  0  0  0
 37 39  1  0  0  0  0
 39 40  1  0  0  0  0
 40 41  1  0  0  0  0
 42 46  1  0  0  0  0
 43 41  1  6  0  0  0
 43 47  1  0  0  0  0
 45 44  1  1  0  0  0
 45 43  1  0  0  0  0
 46 52  1  0  0  0  0
 46 47  1  0  0  0  0
 47 48  2  0  0  0  0
 49 50  1  6  0  0  0
 49 42  1  0  0  0  0
 49 45  1  0  0  0  0
 51 50  1  0  0  0  0
 52 53  1  0  0  0  0
 53 54  2  0  0  0  0
M  END
>  <MODEL>
9

>  <REMARK>
 VINA RESULT:      -5.2      3.217      9.659
  Name = 
  23 active torsions:
  status: ('A' for Active; 'I' for Inactive)
    1  A    between atoms: C_2  and  O_5
    2  A    between atoms: C_2  and  O_19
    3  A    between atoms: C_2  and  N_50
    4  A    between atoms: N_4  and  C_27
    5  A    between atoms: N_4  and  C_37
    6  A    between atoms: O_5  and  C_48
    7  A    between atoms: C_6  and  C_46
    8  A    between atoms: C_7  and  N_51
    9  A    between atoms: C_9  and  C_41
   10  A    between atoms: N_10  and  C_49
   11  A    between atoms: C_14  and  N_53
   12  A    between atoms: C_15  and  C_21
   13  A    between atoms: C_17  and  C_32
   14  A    between atoms: C_17  and  N_54
   15  A    between atoms: O_19  and  C_39
   16  A    between atoms: C_21  and  N_25
   17  A    between atoms: C_24  and  N_50
   18  A    between atoms: C_27  and  C_33
   19  A    between atoms: C_27  and  C_42
   20  A    between atoms: C_28  and  C_48
   21  A    between atoms: C_32  and  C_37
   22  A    between atoms: C_48  and  C_49
   23  A    between atoms: N_51  and  N_54
                            x       y       z     vdW  Elec       q    Type
                         _______ _______ _______ _____ _____    ______ ____

>  <TORSDO>
F 23

$$$$
