=
 OpenBabel11042415283D

 44 50  0  0  1  0  0  0  0  0999 V2000
  193.9010  174.4860  145.8620 C   0  0  0  0  0  2  0  0  0  0  0  0
  195.5030  176.6750  144.8200 O   0  0  0  0  0  0  0  0  0  0  0  0
  195.7780  175.5250  142.7180 C   0  0  0  0  0  0  0  0  0  0  0  0
  192.9890  175.6540  146.1780 C   0  0  2  0  0  3  0  0  0  0  0  0
  195.2150  175.5770  143.9990 C   0  0  0  0  0  0  0  0  0  0  0  0
  193.8410  176.8450  146.5910 C   0  0  0  0  0  2  0  0  0  0  0  0
  195.4780  174.4670  141.8650 C   0  0  0  0  0  3  0  0  0  0  0  0
  196.6780  176.6070  142.2330 C   0  0  0  0  0  1  0  0  0  0  0  0
  194.3840  174.5260  144.4390 C   0  0  0  0  0  0  0  0  0  0  0  0
  194.6300  173.4270  142.2610 C   0  0  0  0  0  0  0  0  0  0  0  0
  194.4840  177.4970  145.3790 C   0  0  0  0  0  2  0  0  0  0  0  0
  194.0820  173.4510  143.5700 C   0  0  0  0  0  0  0  0  0  0  0  0
  195.2070  171.4250  141.0740 O   0  0  0  0  0  1  0  0  0  0  0  0
  194.3740  172.3470  141.2740 C   0  0  0  0  0  0  0  0  0  0  0  0
  193.1900  172.3440  140.5450 O   0  0  0  0  0  0  0  0  0  0  0  0
  192.0680  175.2530  147.3170 C   0  0  0  0  0  2  0  0  0  0  0  0
  191.0810  176.3360  147.6180 C   0  0  0  0  0  0  0  0  0  0  0  0
  189.9180  176.5050  146.8090 N   0  0  0  0  0  2  0  0  0  0  0  0
  191.2680  177.0920  148.6060 O   0  0  0  0  0  0  0  0  0  0  0  0
  189.7030  175.7060  145.6780 N   0  0  0  0  0  2  0  0  0  0  0  0
  188.5290  176.2350  144.9970 C   0  0  2  0  0  3  0  0  0  0  0  0
  188.9600  176.8640  143.6640 C   0  0  1  0  0  3  0  0  0  0  0  0
  191.7620  176.5630  142.9770 N   0  0  0  0  0  2  0  0  0  0  0  0
  190.0010  177.9310  143.9040 C   0  0  0  0  0  3  0  0  0  0  0  0
  190.9030  175.4040  142.7620 C   0  0  0  0  0  2  0  0  0  0  0  0
  189.4710  175.8340  142.6910 C   0  0  0  0  0  0  0  0  0  0  0  0
  191.2920  177.7680  143.5950 C   0  0  0  0  0  3  0  0  0  0  0  0
  188.7140  175.3160  141.8870 O   0  0  0  0  0  0  0  0  0  0  0  0
  186.6050  176.6510  146.3150 C   0  0  2  0  0  3  0  0  0  0  0  0
  186.6140  177.6040  145.2050 C   0  0  2  0  0  3  0  0  0  0  0  0
  185.5130  178.6760  147.0790 C   0  0  0  0  0  2  0  0  0  0  0  0
  186.1330  177.3870  147.5570 C   0  0  0  0  0  2  0  0  0  0  0  0
  187.8830  177.2250  145.8540 N   0  0  0  0  0  0  0  0  0  0  0  0
  186.1550  178.9470  145.7400 C   0  0  0  0  0  2  0  0  0  0  0  0
  193.1670  172.3630  144.0520 C   0  0  0  0  0  2  0  0  0  0  0  0
  193.9600  171.0900  144.2940 C   0  0  0  0  0  2  0  0  0  0  0  0
  196.1430  171.0160  145.4410 C   0  0  0  0  0  0  0  0  0  0  0  0
  196.6550  169.7800  145.8430 O   0  0  0  0  0  0  0  0  0  0  0  0
  196.9370  172.1710  146.0030 C   0  0  0  0  0  2  0  0  0  0  0  0
  194.4220  169.8950  146.3990 C   0  0  0  0  0  2  0  0  0  0  0  0
  195.5600  169.0140  146.1300 N   0  0  0  0  0  0  0  0  0  0  0  0
  196.9660  171.8740  144.5080 C   0  0  0  0  0  2  0  0  0  0  0  0
  194.6720  171.1610  145.6360 C   0  0  2  0  0  3  0  0  0  0  0  0
  195.9040  168.1660  147.6100 Cl  0  0  0  0  0  0  0  0  0  0  0  0
  1  4  1  0  0  0  0
  2 11  1  0  0  0  0
  3  5  1  0  0  0  0
  4  6  1  0  0  0  0
  4 16  1  1  0  0  0
  5  9  2  0  0  0  0
  5  2  1  0  0  0  0
  7 10  1  0  0  0  0
  7  3  2  0  0  0  0
  8  3  1  0  0  0  0
  9  1  1  0  0  0  0
 10 12  2  0  0  0  0
 11  6  1  0  0  0  0
 12 35  1  0  0  0  0
 12  9  1  0  0  0  0
 13 14  1  0  0  0  0
 14 10  1  0  0  0  0
 15 14  2  0  0  0  0
 16 17  1  0  0  0  0
 17 19  2  0  0  0  0
 18 17  1  0  0  0  0
 20 18  1  0  0  0  0
 21 20  1  1  0  0  0
 21 33  1  0  0  0  0
 22 24  1  0  0  0  0
 22 21  1  1  0  0  0
 23 27  1  0  0  0  0
 25 23  1  0  0  0  0
 26 25  1  0  0  0  0
 26 22  1  0  0  0  0
 27 24  2  0  0  0  0
 28 26  2  0  0  0  0
 29 32  1  1  0  0  0
 30 34  1  1  0  0  0
 30 33  1  0  0  0  0
 30 29  1  0  0  0  0
 31 32  1  0  0  0  0
 33 29  1  0  0  0  0
 34 31  1  0  0  0  0
 35 36  1  0  0  0  0
 37 43  1  0  0  0  0
 37 38  1  0  0  0  0
 37 39  1  0  0  0  0
 38 41  1  0  0  0  0
 41 40  1  0  0  0  0
 41 44  1  0  0  0  0
 42 37  1  0  0  0  0
 42 39  1  0  0  0  0
 43 36  1  6  0  0  0
 43 40  1  0  0  0  0
M  END
>  <MODEL>
1

>  <REMARK>
 VINA RESULT:      -7.9      0.000      0.000
  Name = 
  10 active torsions:
  status: ('A' for Active; 'I' for Inactive)
    1  A    between atoms: C_1  and  C_8
    2  A    between atoms: C_1  and  C_16
    3  A    between atoms: C_3  and  C_37
    4  A    between atoms: C_4  and  C_43
    5  A    between atoms: N_10  and  N_41
    6  A    between atoms: C_15  and  C_22
    7  A    between atoms: C_15  and  C_44
    8  A    between atoms: C_22  and  C_35
    9  A    between atoms: N_36  and  C_43
   10  A    between atoms: N_41  and  C_43
                            x       y       z     vdW  Elec       q    Type
                         _______ _______ _______ _____ _____    ______ ____

>  <TORSDO>
F 10

$$$$
=
 OpenBabel11042415283D

 44 50  0  0  1  0  0  0  0  0999 V2000
  192.0030  174.9140  145.8900 C   0  0  0  0  0  2  0  0  0  0  0  0
  194.8630  175.3180  146.2110 O   0  0  0  0  0  0  0  0  0  0  0  0
  195.3110  173.1170  145.3320 C   0  0  0  0  0  0  0  0  0  0  0  0
  192.1610  176.2520  145.1940 C   0  0  2  0  0  3  0  0  0  0  0  0
  194.3910  174.1240  145.6500 C   0  0  0  0  0  0  0  0  0  0  0  0
  193.1990  177.0750  145.9420 C   0  0  0  0  0  2  0  0  0  0  0  0
  194.8780  171.9370  144.7360 C   0  0  0  0  0  3  0  0  0  0  0  0
  196.7650  173.2980  145.5950 C   0  0  0  0  0  1  0  0  0  0  0  0
  193.0170  173.9140  145.4100 C   0  0  0  0  0  0  0  0  0  0  0  0
  193.5250  171.7140  144.4540 C   0  0  0  0  0  0  0  0  0  0  0  0
  194.6030  176.5900  145.6270 C   0  0  0  0  0  2  0  0  0  0  0  0
  192.5800  172.7120  144.8050 C   0  0  0  0  0  0  0  0  0  0  0  0
  192.7430  169.4480  144.4900 O   0  0  0  0  0  1  0  0  0  0  0  0
  193.1690  170.4220  143.8150 C   0  0  0  0  0  0  0  0  0  0  0  0
  193.3060  170.2700  142.4400 O   0  0  0  0  0  0  0  0  0  0  0  0
  190.8200  176.9660  145.2100 C   0  0  0  0  0  2  0  0  0  0  0  0
  190.6560  177.8280  143.9990 C   0  0  0  0  0  0  0  0  0  0  0  0
  189.6220  177.5640  143.0530 N   0  0  0  0  0  2  0  0  0  0  0  0
  191.4250  178.8090  143.8240 O   0  0  0  0  0  0  0  0  0  0  0  0
  188.7770  176.4560  143.1980 N   0  0  0  0  0  2  0  0  0  0  0  0
  187.4190  176.9680  143.3330 C   0  0  2  0  0  3  0  0  0  0  0  0
  187.2270  178.1460  142.3670 C   0  0  1  0  0  3  0  0  0  0  0  0
  184.9690  177.9370  140.5590 N   0  0  0  0  0  2  0  0  0  0  0  0
  187.3390  177.6730  140.9390 C   0  0  0  0  0  3  0  0  0  0  0  0
  184.6770  178.3270  141.9350 C   0  0  0  0  0  2  0  0  0  0  0  0
  185.9150  178.8530  142.5910 C   0  0  0  0  0  0  0  0  0  0  0  0
  186.2840  177.5680  140.1240 C   0  0  0  0  0  3  0  0  0  0  0  0
  185.8510  179.8130  143.3410 O   0  0  0  0  0  0  0  0  0  0  0  0
  187.2290  176.1800  145.5590 C   0  0  2  0  0  3  0  0  0  0  0  0
  185.9460  176.7630  145.1690 C   0  0  2  0  0  3  0  0  0  0  0  0
  186.1890  177.0700  147.5600 C   0  0  0  0  0  2  0  0  0  0  0  0
  187.4980  176.5710  147.0010 C   0  0  0  0  0  2  0  0  0  0  0  0
  187.2010  177.3890  144.7150 N   0  0  0  0  0  0  0  0  0  0  0  0
  185.4010  177.5300  146.3590 C   0  0  0  0  0  2  0  0  0  0  0  0
  191.1150  172.5300  144.5300 C   0  0  0  0  0  2  0  0  0  0  0  0
  190.7000  173.3900  143.3480 C   0  0  0  0  0  2  0  0  0  0  0  0
  191.2490  173.4190  140.9440 C   0  0  0  0  0  0  0  0  0  0  0  0
  190.2650  173.8040  140.0300 O   0  0  0  0  0  0  0  0  0  0  0  0
  192.4660  172.8410  140.2610 C   0  0  0  0  0  2  0  0  0  0  0  0
  189.3490  172.3540  141.5670 C   0  0  0  0  0  2  0  0  0  0  0  0
  189.0810  173.4090  140.5870 N   0  0  0  0  0  0  0  0  0  0  0  0
  192.5510  174.1860  140.9750 C   0  0  0  0  0  2  0  0  0  0  0  0
  190.7450  172.5750  142.0650 C   0  0  2  0  0  3  0  0  0  0  0  0
  188.1330  172.6920  139.3180 Cl  0  0  0  0  0  0  0  0  0  0  0  0
  3  8  1  0  0  0  0
  3  5  1  0  0  0  0
  4 16  1  1  0  0  0
  4  1  1  0  0  0  0
  4  6  1  0  0  0  0
  5  2  1  0  0  0  0
  7  3  2  0  0  0  0
  9  5  2  0  0  0  0
  9  1  1  0  0  0  0
 10  7  1  0  0  0  0
 10 12  2  0  0  0  0
 11  6  1  0  0  0  0
 11  2  1  0  0  0  0
 12  9  1  0  0  0  0
 14 10  1  0  0  0  0
 14 13  1  0  0  0  0
 15 14  2  0  0  0  0
 17 16  1  0  0  0  0
 18 20  1  0  0  0  0
 18 17  1  0  0  0  0
 19 17  2  0  0  0  0
 21 20  1  1  0  0  0
 21 33  1  0  0  0  0
 22 26  1  0  0  0  0
 22 21  1  1  0  0  0
 23 25  1  0  0  0  0
 24 22  1  0  0  0  0
 25 26  1  0  0  0  0
 26 28  2  0  0  0  0
 27 23  1  0  0  0  0
 27 24  2  0  0  0  0
 29 32  1  1  0  0  0
 30 29  1  0  0  0  0
 30 34  1  1  0  0  0
 32 31  1  0  0  0  0
 33 30  1  0  0  0  0
 33 29  1  0  0  0  0
 34 31  1  0  0  0  0
 35 12  1  0  0  0  0
 36 35  1  0  0  0  0
 37 42  1  0  0  0  0
 37 43  1  0  0  0  0
 38 41  1  0  0  0  0
 38 37  1  0  0  0  0
 39 37  1  0  0  0  0
 39 42  1  0  0  0  0
 40 43  1  0  0  0  0
 41 40  1  0  0  0  0
 43 36  1  1  0  0  0
 44 41  1  0  0  0  0
M  END
>  <MODEL>
2

>  <REMARK>
 VINA RESULT:      -7.8      3.205      4.789
  Name = 
  10 active torsions:
  status: ('A' for Active; 'I' for Inactive)
    1  A    between atoms: C_1  and  C_8
    2  A    between atoms: C_1  and  C_16
    3  A    between atoms: C_3  and  C_37
    4  A    between atoms: C_4  and  C_43
    5  A    between atoms: N_10  and  N_41
    6  A    between atoms: C_15  and  C_22
    7  A    between atoms: C_15  and  C_44
    8  A    between atoms: C_22  and  C_35
    9  A    between atoms: N_36  and  C_43
   10  A    between atoms: N_41  and  C_43
                            x       y       z     vdW  Elec       q    Type
                         _______ _______ _______ _____ _____    ______ ____

>  <TORSDO>
F 10

$$$$
=
 OpenBabel11042415283D

 44 50  0  0  1  0  0  0  0  0999 V2000
  190.0870  175.2760  143.5430 C   0  0  0  0  0  2  0  0  0  0  0  0
  191.9540  177.3230  144.4200 O   0  0  0  0  0  0  0  0  0  0  0  0
  193.6620  175.6610  144.7870 C   0  0  0  0  0  0  0  0  0  0  0  0
  189.9640  176.2570  142.3940 C   0  0  2  0  0  3  0  0  0  0  0  0
  192.3730  175.9880  144.3510 C   0  0  0  0  0  0  0  0  0  0  0  0
  190.0500  177.6720  142.9440 C   0  0  0  0  0  2  0  0  0  0  0  0
  194.1210  174.3500  144.6930 C   0  0  0  0  0  3  0  0  0  0  0  0
  194.5750  176.7050  145.3290 C   0  0  0  0  0  1  0  0  0  0  0  0
  191.5230  174.9730  143.8650 C   0  0  0  0  0  0  0  0  0  0  0  0
  193.3140  173.3290  144.1830 C   0  0  0  0  0  0  0  0  0  0  0  0
  191.4860  178.0350  143.2800 C   0  0  0  0  0  2  0  0  0  0  0  0
  191.9920  173.6410  143.7710 C   0  0  0  0  0  0  0  0  0  0  0  0
  193.5850  171.0760  144.9570 O   0  0  0  0  0  1  0  0  0  0  0  0
  193.9000  171.9650  144.1240 C   0  0  0  0  0  0  0  0  0  0  0  0
  194.8210  171.6520  143.1310 O   0  0  0  0  0  0  0  0  0  0  0  0
  188.6210  176.0420  141.7170 C   0  0  0  0  0  2  0  0  0  0  0  0
  187.8130  175.0110  142.4390 C   0  0  0  0  0  0  0  0  0  0  0  0
  186.8890  175.3920  143.4570 N   0  0  0  0  0  2  0  0  0  0  0  0
  187.9360  173.7960  142.1320 O   0  0  0  0  0  0  0  0  0  0  0  0
  186.7610  176.7310  143.8490 N   0  0  0  0  0  2  0  0  0  0  0  0
  186.9120  176.7680  145.2980 C   0  0  2  0  0  3  0  0  0  0  0  0
  186.5870  178.1820  145.8020 C   0  0  1  0  0  3  0  0  0  0  0  0
  183.9220  179.1540  145.1960 N   0  0  0  0  0  2  0  0  0  0  0  0
  186.2710  179.0900  144.6390 C   0  0  0  0  0  3  0  0  0  0  0  0
  184.0440  178.2120  146.3030 C   0  0  0  0  0  2  0  0  0  0  0  0
  185.4560  178.1820  146.7970 C   0  0  0  0  0  0  0  0  0  0  0  0
  185.0330  179.5160  144.3650 C   0  0  0  0  0  3  0  0  0  0  0  0
  185.6860  178.1050  147.9930 O   0  0  0  0  0  0  0  0  0  0  0  0
  188.2260  175.6420  146.9150 C   0  0  2  0  0  3  0  0  0  0  0  0
  188.6010  177.0560  146.9250 C   0  0  2  0  0  3  0  0  0  0  0  0
  190.5610  175.7780  147.5540 C   0  0  0  0  0  2  0  0  0  0  0  0
  189.4950  174.8230  147.0760 C   0  0  0  0  0  2  0  0  0  0  0  0
  188.2800  176.3940  145.6470 N   0  0  0  0  0  0  0  0  0  0  0  0
  190.1070  177.1380  147.0860 C   0  0  0  0  0  2  0  0  0  0  0  0
  191.0780  172.5870  143.2180 C   0  0  0  0  0  2  0  0  0  0  0  0
  191.2310  172.5100  141.7080 C   0  0  0  0  0  2  0  0  0  0  0  0
  191.2340  170.2250  140.7820 C   0  0  0  0  0  0  0  0  0  0  0  0
  191.4050  170.0520  139.4060 O   0  0  0  0  0  0  0  0  0  0  0  0
  190.8340  168.9410  141.4710 C   0  0  0  0  0  2  0  0  0  0  0  0
  189.9000  171.7560  139.7770 C   0  0  0  0  0  2  0  0  0  0  0  0
  190.8470  171.1600  138.8320 N   0  0  0  0  0  0  0  0  0  0  0  0
  192.2070  169.5540  141.7240 C   0  0  0  0  0  2  0  0  0  0  0  0
  190.3740  171.3860  141.1500 C   0  0  2  0  0  3  0  0  0  0  0  0
  189.9220  170.6150  137.4640 Cl  0  0  0  0  0  0  0  0  0  0  0  0
  1  9  1  0  0  0  0
  3  8  1  0  0  0  0
  4 16  1  1  0  0  0
  4  6  1  0  0  0  0
  4  1  1  0  0  0  0
  5  2  1  0  0  0  0
  5  3  2  0  0  0  0
  6 11  1  0  0  0  0
  7  3  1  0  0  0  0
  9  5  1  0  0  0  0
 10  7  2  0  0  0  0
 11  2  1  0  0  0  0
 12  9  2  0  0  0  0
 12 10  1  0  0  0  0
 14 10  1  0  0  0  0
 14 13  1  0  0  0  0
 15 14  2  0  0  0  0
 16 17  1  0  0  0  0
 17 18  1  0  0  0  0
 18 20  1  0  0  0  0
 19 17  2  0  0  0  0
 21 20  1  6  0  0  0
 21 33  1  0  0  0  0
 22 21  1  6  0  0  0
 22 26  1  0  0  0  0
 23 25  1  0  0  0  0
 24 22  1  0  0  0  0
 25 26  1  0  0  0  0
 26 28  2  0  0  0  0
 27 24  2  0  0  0  0
 27 23  1  0  0  0  0
 29 30  1  0  0  0  0
 29 32  1  6  0  0  0
 30 34  1  6  0  0  0
 32 31  1  0  0  0  0
 33 29  1  0  0  0  0
 33 30  1  0  0  0  0
 34 31  1  0  0  0  0
 35 12  1  0  0  0  0
 36 35  1  0  0  0  0
 37 43  1  0  0  0  0
 37 39  1  0  0  0  0
 37 42  1  0  0  0  0
 38 37  1  0  0  0  0
 39 42  1  0  0  0  0
 40 43  1  0  0  0  0
 41 38  1  0  0  0  0
 41 40  1  0  0  0  0
 43 36  1  6  0  0  0
 44 41  1  0  0  0  0
M  END
>  <MODEL>
3

>  <REMARK>
 VINA RESULT:      -7.7      3.208      5.520
  Name = 
  10 active torsions:
  status: ('A' for Active; 'I' for Inactive)
    1  A    between atoms: C_1  and  C_8
    2  A    between atoms: C_1  and  C_16
    3  A    between atoms: C_3  and  C_37
    4  A    between atoms: C_4  and  C_43
    5  A    between atoms: N_10  and  N_41
    6  A    between atoms: C_15  and  C_22
    7  A    between atoms: C_15  and  C_44
    8  A    between atoms: C_22  and  C_35
    9  A    between atoms: N_36  and  C_43
   10  A    between atoms: N_41  and  C_43
                            x       y       z     vdW  Elec       q    Type
                         _______ _______ _______ _____ _____    ______ ____

>  <TORSDO>
F 10

$$$$
=
 OpenBabel11042415283D

 44 50  0  0  1  0  0  0  0  0999 V2000
  193.3060  172.8380  141.9320 C   0  0  0  0  0  2  0  0  0  0  0  0
  194.3940  171.0690  143.9640 O   0  0  0  0  0  0  0  0  0  0  0  0
  196.0620  172.7090  144.5520 C   0  0  0  0  0  0  0  0  0  0  0  0
  192.0360  172.4830  142.6810 C   0  0  2  0  0  3  0  0  0  0  0  0
  194.9440  172.3460  143.7920 C   0  0  0  0  0  0  0  0  0  0  0  0
  192.1130  171.0270  143.1140 C   0  0  0  0  0  2  0  0  0  0  0  0
  196.6060  173.9840  144.4330 C   0  0  0  0  0  3  0  0  0  0  0  0
  196.6720  171.7550  145.5200 C   0  0  0  0  0  1  0  0  0  0  0  0
  194.4020  173.2640  142.8670 C   0  0  0  0  0  0  0  0  0  0  0  0
  196.0690  174.9270  143.5500 C   0  0  0  0  0  0  0  0  0  0  0  0
  193.0300  170.8680  144.3150 C   0  0  0  0  0  2  0  0  0  0  0  0
  194.9580  174.5590  142.7480 C   0  0  0  0  0  0  0  0  0  0  0  0
  196.2000  177.2710  144.0360 O   0  0  0  0  0  1  0  0  0  0  0  0
  196.7230  176.2600  143.5000 C   0  0  0  0  0  0  0  0  0  0  0  0
  197.9410  176.4080  142.8460 O   0  0  0  0  0  0  0  0  0  0  0  0
  190.8530  172.6870  141.7500 C   0  0  0  0  0  2  0  0  0  0  0  0
  189.5780  172.8170  142.5210 C   0  0  0  0  0  0  0  0  0  0  0  0
  189.1510  174.0870  143.0110 N   0  0  0  0  0  2  0  0  0  0  0  0
  188.8660  171.8000  142.7220 O   0  0  0  0  0  0  0  0  0  0  0  0
  189.9420  175.2300  142.8390 N   0  0  0  0  0  2  0  0  0  0  0  0
  190.1780  175.7900  144.1630 C   0  0  2  0  0  3  0  0  0  0  0  0
  189.7860  177.2750  144.1590 C   0  0  1  0  0  3  0  0  0  0  0  0
  187.5250  177.9770  142.4830 N   0  0  0  0  0  2  0  0  0  0  0  0
  189.9190  177.8450  142.7680 C   0  0  0  0  0  3  0  0  0  0  0  0
  187.2250  177.3530  143.7670 C   0  0  0  0  0  2  0  0  0  0  0  0
  188.3940  177.4940  144.6910 C   0  0  0  0  0  0  0  0  0  0  0  0
  188.8650  178.1480  142.0030 C   0  0  0  0  0  3  0  0  0  0  0  0
  188.2150  177.7330  145.8740 O   0  0  0  0  0  0  0  0  0  0  0  0
  191.6480  174.9870  145.8370 C   0  0  2  0  0  3  0  0  0  0  0  0
  191.8360  176.4320  145.7190 C   0  0  2  0  0  3  0  0  0  0  0  0
  193.9540  175.4750  146.4060 C   0  0  0  0  0  2  0  0  0  0  0  0
  193.0140  174.3540  146.0370 C   0  0  0  0  0  2  0  0  0  0  0  0
  191.5870  175.6260  144.5100 N   0  0  0  0  0  0  0  0  0  0  0  0
  193.3210  176.7200  145.8360 C   0  0  0  0  0  2  0  0  0  0  0  0
  194.3400  175.5270  141.7800 C   0  0  0  0  0  2  0  0  0  0  0  0
  195.2800  175.7580  140.6090 C   0  0  0  0  0  2  0  0  0  0  0  0
  196.6480  174.1150  139.3790 C   0  0  0  0  0  0  0  0  0  0  0  0
  197.0930  174.4320  138.0930 O   0  0  0  0  0  0  0  0  0  0  0  0
  196.8970  172.6660  139.7260 C   0  0  0  0  0  2  0  0  0  0  0  0
  194.8740  175.0160  138.2950 C   0  0  0  0  0  2  0  0  0  0  0  0
  196.1230  175.2390  137.5660 N   0  0  0  0  0  0  0  0  0  0  0  0
  197.6720  173.7710  140.4370 C   0  0  0  0  0  2  0  0  0  0  0  0
  195.2560  174.5620  139.6710 C   0  0  2  0  0  3  0  0  0  0  0  0
  195.8560  174.7130  135.9290 Cl  0  0  0  0  0  0  0  0  0  0  0  0
  1  4  1  0  0  0  0
  1  9  1  0  0  0  0
  2 11  1  0  0  0  0
  3  8  1  0  0  0  0
  4 16  1  6  0  0  0
  4  6  1  0  0  0  0
  5  2  1  0  0  0  0
  5  3  2  0  0  0  0
  6 11  1  0  0  0  0
  7  3  1  0  0  0  0
  9  5  1  0  0  0  0
 10  7  2  0  0  0  0
 12  9  2  0  0  0  0
 12 10  1  0  0  0  0
 14 10  1  0  0  0  0
 14 13  1  0  0  0  0
 15 14  2  0  0  0  0
 16 17  1  0  0  0  0
 17 19  2  0  0  0  0
 17 18  1  0  0  0  0
 20 18  1  0  0  0  0
 21 20  1  6  0  0  0
 21 33  1  0  0  0  0
 22 21  1  6  0  0  0
 22 26  1  0  0  0  0
 23 25  1  0  0  0  0
 24 22  1  0  0  0  0
 25 26  1  0  0  0  0
 26 28  2  0  0  0  0
 27 23  1  0  0  0  0
 27 24  2  0  0  0  0
 29 32  1  6  0  0  0
 30 34  1  6  0  0  0
 30 29  1  0  0  0  0
 32 31  1  0  0  0  0
 33 30  1  0  0  0  0
 33 29  1  0  0  0  0
 34 31  1  0  0  0  0
 35 12  1  0  0  0  0
 36 35  1  0  0  0  0
 37 43  1  0  0  0  0
 37 39  1  0  0  0  0
 37 42  1  0  0  0  0
 38 37  1  0  0  0  0
 39 42  1  0  0  0  0
 40 43  1  0  0  0  0
 41 38  1  0  0  0  0
 41 40  1  0  0  0  0
 43 36  1  1  0  0  0
 44 41  1  0  0  0  0
M  END
>  <MODEL>
4

>  <REMARK>
 VINA RESULT:      -7.6      3.162      5.972
  Name = 
  10 active torsions:
  status: ('A' for Active; 'I' for Inactive)
    1  A    between atoms: C_1  and  C_8
    2  A    between atoms: C_1  and  C_16
    3  A    between atoms: C_3  and  C_37
    4  A    between atoms: C_4  and  C_43
    5  A    between atoms: N_10  and  N_41
    6  A    between atoms: C_15  and  C_22
    7  A    between atoms: C_15  and  C_44
    8  A    between atoms: C_22  and  C_35
    9  A    between atoms: N_36  and  C_43
   10  A    between atoms: N_41  and  C_43
                            x       y       z     vdW  Elec       q    Type
                         _______ _______ _______ _____ _____    ______ ____

>  <TORSDO>
F 10

$$$$
=
 OpenBabel11042415283D

 44 50  0  0  1  0  0  0  0  0999 V2000
  191.6000  174.7370  145.9070 C   0  0  0  0  0  2  0  0  0  0  0  0
  194.4180  175.4380  146.0170 O   0  0  0  0  0  0  0  0  0  0  0  0
  195.0260  173.2940  145.0950 C   0  0  0  0  0  0  0  0  0  0  0  0
  191.5660  176.0820  145.2090 C   0  0  2  0  0  3  0  0  0  0  0  0
  194.0340  174.2000  145.4860 C   0  0  0  0  0  0  0  0  0  0  0  0
  192.5650  177.0110  145.8810 C   0  0  0  0  0  2  0  0  0  0  0  0
  194.6750  172.0730  144.5270 C   0  0  0  0  0  3  0  0  0  0  0  0
  196.4700  173.6260  145.2500 C   0  0  0  0  0  1  0  0  0  0  0  0
  192.6740  173.8470  145.3480 C   0  0  0  0  0  0  0  0  0  0  0  0
  193.3370  171.7100  144.3460 C   0  0  0  0  0  0  0  0  0  0  0  0
  193.9850  176.6740  145.4600 C   0  0  0  0  0  2  0  0  0  0  0  0
  192.3210  172.6050  144.7710 C   0  0  0  0  0  0  0  0  0  0  0  0
  192.9800  170.2450  142.4810 O   0  0  0  0  0  0  0  0  0  0  0  0
  193.0700  170.3850  143.7290 C   0  0  0  0  0  0  0  0  0  0  0  0
  192.9120  169.2660  144.5380 O   0  0  0  0  0  1  0  0  0  0  0  0
  190.1630  176.6520  145.3280 C   0  0  0  0  0  2  0  0  0  0  0  0
  189.8280  177.5080  144.1470 C   0  0  0  0  0  0  0  0  0  0  0  0
  188.4850  177.6040  143.6760 N   0  0  0  0  0  2  0  0  0  0  0  0
  190.7370  178.1650  143.5770 O   0  0  0  0  0  0  0  0  0  0  0  0
  187.4590  176.8520  144.2640 N   0  0  0  0  0  2  0  0  0  0  0  0
  186.2670  177.6910  144.2770 C   0  0  2  0  0  3  0  0  0  0  0  0
  185.4260  177.3520  145.5160 C   0  0  1  0  0  3  0  0  0  0  0  0
  186.4280  178.3760  148.0380 N   0  0  0  0  0  2  0  0  0  0  0  0
  186.2380  176.5330  146.4890 C   0  0  0  0  0  3  0  0  0  0  0  0
  185.7350  179.3240  147.1700 C   0  0  0  0  0  2  0  0  0  0  0  0
  184.8820  178.5870  146.1860 C   0  0  0  0  0  0  0  0  0  0  0  0
  186.7050  177.0270  147.6410 C   0  0  0  0  0  3  0  0  0  0  0  0
  183.7780  179.0140  145.8910 O   0  0  0  0  0  0  0  0  0  0  0  0
  185.9040  178.4910  142.0770 C   0  0  2  0  0  3  0  0  0  0  0  0
  184.6620  178.6480  142.8320 C   0  0  2  0  0  3  0  0  0  0  0  0
  184.0650  178.2880  140.5110 C   0  0  0  0  0  2  0  0  0  0  0  0
  185.5430  178.0350  140.6750 C   0  0  0  0  0  2  0  0  0  0  0  0
  185.5050  177.4600  143.0520 N   0  0  0  0  0  0  0  0  0  0  0  0
  183.5090  178.2860  141.9140 C   0  0  0  0  0  2  0  0  0  0  0  0
  190.8670  172.2700  144.6060 C   0  0  0  0  0  2  0  0  0  0  0  0
  190.2480  173.1640  143.5450 C   0  0  0  0  0  2  0  0  0  0  0  0
  191.0390  173.6750  141.2650 C   0  0  0  0  0  0  0  0  0  0  0  0
  190.1200  174.1230  140.3140 O   0  0  0  0  0  0  0  0  0  0  0  0
  192.3800  173.3470  140.6510 C   0  0  0  0  0  2  0  0  0  0  0  0
  189.2180  172.3420  141.4630 C   0  0  0  0  0  2  0  0  0  0  0  0
  188.9370  173.5250  140.6480 N   0  0  0  0  0  0  0  0  0  0  0  0
  192.2350  174.5440  141.5850 C   0  0  0  0  0  2  0  0  0  0  0  0
  190.5200  172.6010  142.1590 C   0  0  2  0  0  3  0  0  0  0  0  0
  188.2140  172.9620  139.1690 Cl  0  0  0  0  0  0  0  0  0  0  0  0
  3  8  1  0  0  0  0
  3  5  1  0  0  0  0
  4 16  1  1  0  0  0
  4  6  1  0  0  0  0
  4  1  1  0  0  0  0
  5  2  1  0  0  0  0
  7  3  2  0  0  0  0
  9  5  2  0  0  0  0
  9  1  1  0  0  0  0
 10  7  1  0  0  0  0
 10 12  2  0  0  0  0
 11  6  1  0  0  0  0
 11  2  1  0  0  0  0
 12  9  1  0  0  0  0
 13 14  2  0  0  0  0
 14 10  1  0  0  0  0
 14 15  1  0  0  0  0
 17 16  1  0  0  0  0
 18 17  1  0  0  0  0
 18 20  1  0  0  0  0
 19 17  2  0  0  0  0
 21 20  1  6  0  0  0
 22 21  1  6  0  0  0
 22 26  1  0  0  0  0
 22 24  1  0  0  0  0
 24 27  2  0  0  0  0
 25 23  1  0  0  0  0
 26 25  1  0  0  0  0
 27 23  1  0  0  0  0
 28 26  2  0  0  0  0
 29 32  1  6  0  0  0
 29 30  1  0  0  0  0
 29 33  1  0  0  0  0
 30 34  1  6  0  0  0
 30 33  1  0  0  0  0
 31 32  1  0  0  0  0
 31 34  1  0  0  0  0
 33 21  1  0  0  0  0
 35 12  1  0  0  0  0
 36 35  1  0  0  0  0
 37 42  1  0  0  0  0
 37 43  1  0  0  0  0
 38 41  1  0  0  0  0
 38 37  1  0  0  0  0
 39 37  1  0  0  0  0
 39 42  1  0  0  0  0
 40 43  1  0  0  0  0
 41 40  1  0  0  0  0
 43 36  1  1  0  0  0
 44 41  1  0  0  0  0
M  END
>  <MODEL>
5

>  <REMARK>
 VINA RESULT:      -7.6      3.304      5.336
  Name = 
  10 active torsions:
  status: ('A' for Active; 'I' for Inactive)
    1  A    between atoms: C_1  and  C_8
    2  A    between atoms: C_1  and  C_16
    3  A    between atoms: C_3  and  C_37
    4  A    between atoms: C_4  and  C_43
    5  A    between atoms: N_10  and  N_41
    6  A    between atoms: C_15  and  C_22
    7  A    between atoms: C_15  and  C_44
    8  A    between atoms: C_22  and  C_35
    9  A    between atoms: N_36  and  C_43
   10  A    between atoms: N_41  and  C_43
                            x       y       z     vdW  Elec       q    Type
                         _______ _______ _______ _____ _____    ______ ____

>  <TORSDO>
F 10

$$$$
=
 OpenBabel11042415283D

 44 50  0  0  1  0  0  0  0  0999 V2000
  192.4660  175.1940  144.2620 C   0  0  0  0  0  2  0  0  0  0  0  0
  194.8260  175.1020  145.9560 O   0  0  0  0  0  0  0  0  0  0  0  0
  196.2280  174.6660  144.0430 C   0  0  0  0  0  0  0  0  0  0  0  0
  192.2960  176.4940  145.0230 C   0  0  2  0  0  3  0  0  0  0  0  0
  194.9620  174.9460  144.5700 C   0  0  0  0  0  0  0  0  0  0  0  0
  192.7590  176.2880  146.4570 C   0  0  0  0  0  2  0  0  0  0  0  0
  196.4020  174.5460  142.6680 C   0  0  0  0  0  3  0  0  0  0  0  0
  197.4140  174.5230  144.9330 C   0  0  0  0  0  1  0  0  0  0  0  0
  193.8540  175.0530  143.7040 C   0  0  0  0  0  0  0  0  0  0  0  0
  195.3290  174.6810  141.7810 C   0  0  0  0  0  0  0  0  0  0  0  0
  194.2760  176.2780  146.5400 C   0  0  0  0  0  2  0  0  0  0  0  0
  194.0340  174.9290  142.3060 C   0  0  0  0  0  0  0  0  0  0  0  0
  195.1910  173.5590  139.6670 O   0  0  0  0  0  0  0  0  0  0  0  0
  195.6220  174.5360  140.3320 C   0  0  0  0  0  0  0  0  0  0  0  0
  196.3930  175.4940  139.6840 O   0  0  0  0  0  1  0  0  0  0  0  0
  190.8260  176.8780  145.0000 C   0  0  0  0  0  2  0  0  0  0  0  0
  190.5550  177.9060  143.9490 C   0  0  0  0  0  0  0  0  0  0  0  0
  189.4620  177.7530  143.0460 N   0  0  0  0  0  2  0  0  0  0  0  0
  191.2870  178.9280  143.8740 O   0  0  0  0  0  0  0  0  0  0  0  0
  188.6560  176.6070  143.0780 N   0  0  0  0  0  2  0  0  0  0  0  0
  187.2890  177.0530  143.3100 C   0  0  2  0  0  3  0  0  0  0  0  0
  186.9800  178.2370  142.3830 C   0  0  1  0  0  3  0  0  0  0  0  0
  184.6200  177.9530  140.7210 N   0  0  0  0  0  2  0  0  0  0  0  0
  187.0190  177.7940  140.9410 C   0  0  0  0  0  3  0  0  0  0  0  0
  184.4020  178.3060  142.1200 C   0  0  0  0  0  2  0  0  0  0  0  0
  185.6550  178.8780  142.7050 C   0  0  0  0  0  0  0  0  0  0  0  0
  185.9180  177.6530  140.1940 C   0  0  0  0  0  3  0  0  0  0  0  0
  185.5970  179.8210  143.4770 O   0  0  0  0  0  0  0  0  0  0  0  0
  187.2390  176.2130  145.5250 C   0  0  2  0  0  3  0  0  0  0  0  0
  185.9260  176.7810  145.2210 C   0  0  2  0  0  3  0  0  0  0  0  0
  186.3000  177.0400  147.6010 C   0  0  0  0  0  2  0  0  0  0  0  0
  187.5840  176.5760  146.9580 C   0  0  0  0  0  2  0  0  0  0  0  0
  187.1420  177.4390  144.7110 N   0  0  0  0  0  0  0  0  0  0  0  0
  185.4370  177.5110  146.4580 C   0  0  0  0  0  2  0  0  0  0  0  0
  192.8430  175.0810  141.4050 C   0  0  0  0  0  2  0  0  0  0  0  0
  192.1250  173.7500  141.2670 C   0  0  0  0  0  2  0  0  0  0  0  0
  190.0880  172.7180  142.1990 C   0  0  0  0  0  0  0  0  0  0  0  0
  189.3030  171.9060  141.3770 O   0  0  0  0  0  0  0  0  0  0  0  0
  189.4070  173.0260  143.5120 C   0  0  0  0  0  2  0  0  0  0  0  0
  189.8930  173.8110  140.2240 C   0  0  0  0  0  2  0  0  0  0  0  0
  189.4500  172.4200  140.1190 N   0  0  0  0  0  0  0  0  0  0  0  0
  190.6440  172.1340  143.4790 C   0  0  0  0  0  2  0  0  0  0  0  0
  190.6360  173.9270  141.5210 C   0  0  2  0  0  3  0  0  0  0  0  0
  187.8710  172.4450  139.3900 Cl  0  0  0  0  0  0  0  0  0  0  0  0
  1  4  1  0  0  0  0
  2 11  1  0  0  0  0
  3  5  1  0  0  0  0
  3  8  1  0  0  0  0
  4 16  1  1  0  0  0
  4  6  1  0  0  0  0
  5  2  1  0  0  0  0
  6 11  1  0  0  0  0
  7  3  2  0  0  0  0
  9  1  1  0  0  0  0
  9  5  2  0  0  0  0
 10 12  2  0  0  0  0
 10  7  1  0  0  0  0
 12  9  1  0  0  0  0
 13 14  2  0  0  0  0
 14 10  1  0  0  0  0
 15 14  1  0  0  0  0
 17 16  1  0  0  0  0
 18 20  1  0  0  0  0
 18 17  1  0  0  0  0
 19 17  2  0  0  0  0
 21 20  1  1  0  0  0
 21 33  1  0  0  0  0
 22 26  1  0  0  0  0
 22 21  1  1  0  0  0
 23 25  1  0  0  0  0
 24 22  1  0  0  0  0
 25 26  1  0  0  0  0
 26 28  2  0  0  0  0
 27 23  1  0  0  0  0
 27 24  2  0  0  0  0
 29 32  1  1  0  0  0
 30 29  1  0  0  0  0
 30 34  1  1  0  0  0
 32 31  1  0  0  0  0
 33 30  1  0  0  0  0
 33 29  1  0  0  0  0
 34 31  1  0  0  0  0
 35 12  1  0  0  0  0
 36 35  1  0  0  0  0
 37 42  1  0  0  0  0
 37 39  1  0  0  0  0
 38 37  1  0  0  0  0
 40 43  1  0  0  0  0
 41 40  1  0  0  0  0
 41 38  1  0  0  0  0
 42 39  1  0  0  0  0
 43 36  1  6  0  0  0
 43 37  1  0  0  0  0
 44 41  1  0  0  0  0
M  END
>  <MODEL>
6

>  <REMARK>
 VINA RESULT:      -7.6      3.362      4.813
  Name = 
  10 active torsions:
  status: ('A' for Active; 'I' for Inactive)
    1  A    between atoms: C_1  and  C_8
    2  A    between atoms: C_1  and  C_16
    3  A    between atoms: C_3  and  C_37
    4  A    between atoms: C_4  and  C_43
    5  A    between atoms: N_10  and  N_41
    6  A    between atoms: C_15  and  C_22
    7  A    between atoms: C_15  and  C_44
    8  A    between atoms: C_22  and  C_35
    9  A    between atoms: N_36  and  C_43
   10  A    between atoms: N_41  and  C_43
                            x       y       z     vdW  Elec       q    Type
                         _______ _______ _______ _____ _____    ______ ____

>  <TORSDO>
F 10

$$$$
=
 OpenBabel11042415283D

 44 50  0  0  1  0  0  0  0  0999 V2000
  193.8660  174.3590  145.8200 C   0  0  0  0  0  2  0  0  0  0  0  0
  195.4000  176.5840  144.7510 O   0  0  0  0  0  0  0  0  0  0  0  0
  195.6770  175.4340  142.6500 C   0  0  0  0  0  0  0  0  0  0  0  0
  192.9300  175.5060  146.1440 C   0  0  2  0  0  3  0  0  0  0  0  0
  195.1290  175.4770  143.9370 C   0  0  0  0  0  0  0  0  0  0  0  0
  193.7570  176.7180  146.5430 C   0  0  0  0  0  2  0  0  0  0  0  0
  195.3930  174.3670  141.8040 C   0  0  0  0  0  3  0  0  0  0  0  0
  196.5450  176.5370  142.1500 C   0  0  0  0  0  1  0  0  0  0  0  0
  194.3300  174.4070  144.3910 C   0  0  0  0  0  0  0  0  0  0  0  0
  194.5760  173.3080  142.2130 C   0  0  0  0  0  0  0  0  0  0  0  0
  194.3680  177.3820  145.3210 C   0  0  0  0  0  2  0  0  0  0  0  0
  194.0440  173.3220  143.5280 C   0  0  0  0  0  0  0  0  0  0  0  0
  195.0940  171.2190  141.1570 O   0  0  0  0  0  1  0  0  0  0  0  0
  194.3340  172.2190  141.2320 C   0  0  0  0  0  0  0  0  0  0  0  0
  193.2460  172.2940  140.3700 O   0  0  0  0  0  0  0  0  0  0  0  0
  192.0330  175.0860  147.2960 C   0  0  0  0  0  2  0  0  0  0  0  0
  191.0540  176.1640  147.6370 C   0  0  0  0  0  0  0  0  0  0  0  0
  189.7270  176.1340  147.1140 N   0  0  0  0  0  2  0  0  0  0  0  0
  191.3980  177.0960  148.4080 O   0  0  0  0  0  0  0  0  0  0  0  0
  189.3270  175.1320  146.2200 N   0  0  0  0  0  2  0  0  0  0  0  0
  189.6440  175.6040  144.8780 C   0  0  2  0  0  3  0  0  0  0  0  0
  188.9370  176.9460  144.6370 C   0  0  1  0  0  3  0  0  0  0  0  0
  188.1250  177.4660  141.9010 N   0  0  0  0  0  2  0  0  0  0  0  0
  189.7340  177.7890  143.6720 C   0  0  0  0  0  3  0  0  0  0  0  0
  187.2860  176.5570  142.6750 C   0  0  0  0  0  2  0  0  0  0  0  0
  187.5270  176.7600  144.1380 C   0  0  0  0  0  0  0  0  0  0  0  0
  189.3520  178.0060  142.4090 C   0  0  0  0  0  3  0  0  0  0  0  0
  186.5940  176.7230  144.9240 O   0  0  0  0  0  0  0  0  0  0  0  0
  190.0670  173.4170  144.0730 C   0  0  2  0  0  3  0  0  0  0  0  0
  190.3460  174.3650  142.9940 C   0  0  2  0  0  3  0  0  0  0  0  0
  189.6050  172.2940  141.9750 C   0  0  0  0  0  2  0  0  0  0  0  0
  189.3840  172.2060  143.4650 C   0  0  0  0  0  2  0  0  0  0  0  0
  189.2110  174.6060  143.9040 N   0  0  0  0  0  0  0  0  0  0  0  0
  189.8340  173.7600  141.6990 C   0  0  0  0  0  2  0  0  0  0  0  0
  193.1620  172.2130  144.0250 C   0  0  0  0  0  2  0  0  0  0  0  0
  193.9990  170.9790  144.3170 C   0  0  0  0  0  2  0  0  0  0  0  0
  196.1270  170.9590  145.5640 C   0  0  0  0  0  0  0  0  0  0  0  0
  196.6290  169.7390  146.0260 O   0  0  0  0  0  0  0  0  0  0  0  0
  196.8860  172.1370  146.1270 C   0  0  0  0  0  2  0  0  0  0  0  0
  194.3730  169.8510  146.4760 C   0  0  0  0  0  2  0  0  0  0  0  0
  195.5280  168.9720  146.2850 N   0  0  0  0  0  0  0  0  0  0  0  0
  196.9860  171.7960  144.6440 C   0  0  0  0  0  2  0  0  0  0  0  0
  194.6470  171.0960  145.6870 C   0  0  2  0  0  3  0  0  0  0  0  0
  195.8110  168.1720  147.8040 Cl  0  0  0  0  0  0  0  0  0  0  0  0
  1  4  1  0  0  0  0
  2 11  1  0  0  0  0
  3  5  1  0  0  0  0
  4  6  1  0  0  0  0
  4 16  1  1  0  0  0
  5  9  2  0  0  0  0
  5  2  1  0  0  0  0
  7 10  1  0  0  0  0
  7  3  2  0  0  0  0
  8  3  1  0  0  0  0
  9  1  1  0  0  0  0
 10 12  2  0  0  0  0
 11  6  1  0  0  0  0
 12 35  1  0  0  0  0
 12  9  1  0  0  0  0
 13 14  1  0  0  0  0
 14 10  1  0  0  0  0
 15 14  2  0  0  0  0
 16 17  1  0  0  0  0
 17 19  2  0  0  0  0
 18 17  1  0  0  0  0
 20 18  1  0  0  0  0
 21 20  1  1  0  0  0
 22 21  1  6  0  0  0
 23 27  1  0  0  0  0
 23 25  1  0  0  0  0
 24 22  1  0  0  0  0
 25 26  1  0  0  0  0
 26 22  1  0  0  0  0
 26 28  2  0  0  0  0
 27 24  2  0  0  0  0
 29 32  1  6  0  0  0
 30 34  1  6  0  0  0
 30 33  1  0  0  0  0
 30 29  1  0  0  0  0
 31 32  1  0  0  0  0
 33 29  1  0  0  0  0
 33 21  1  0  0  0  0
 34 31  1  0  0  0  0
 35 36  1  0  0  0  0
 37 43  1  0  0  0  0
 37 38  1  0  0  0  0
 37 39  1  0  0  0  0
 38 41  1  0  0  0  0
 41 40  1  0  0  0  0
 41 44  1  0  0  0  0
 42 37  1  0  0  0  0
 42 39  1  0  0  0  0
 43 36  1  6  0  0  0
 43 40  1  0  0  0  0
M  END
>  <MODEL>
7

>  <REMARK>
 VINA RESULT:      -7.5      1.442      2.720
  Name = 
  10 active torsions:
  status: ('A' for Active; 'I' for Inactive)
    1  A    between atoms: C_1  and  C_8
    2  A    between atoms: C_1  and  C_16
    3  A    between atoms: C_3  and  C_37
    4  A    between atoms: C_4  and  C_43
    5  A    between atoms: N_10  and  N_41
    6  A    between atoms: C_15  and  C_22
    7  A    between atoms: C_15  and  C_44
    8  A    between atoms: C_22  and  C_35
    9  A    between atoms: N_36  and  C_43
   10  A    between atoms: N_41  and  C_43
                            x       y       z     vdW  Elec       q    Type
                         _______ _______ _______ _____ _____    ______ ____

>  <TORSDO>
F 10

$$$$
=
 OpenBabel11042415283D

 44 50  0  0  1  0  0  0  0  0999 V2000
  191.5560  175.0910  144.7390 C   0  0  0  0  0  2  0  0  0  0  0  0
  193.7460  174.9330  146.6420 O   0  0  0  0  0  0  0  0  0  0  0  0
  195.3390  174.7020  144.8470 C   0  0  0  0  0  0  0  0  0  0  0  0
  191.2630  176.3180  145.5810 C   0  0  2  0  0  3  0  0  0  0  0  0
  194.0190  174.8970  145.2690 C   0  0  0  0  0  0  0  0  0  0  0  0
  191.5960  176.0080  147.0320 C   0  0  0  0  0  2  0  0  0  0  0  0
  195.6480  174.7020  143.4900 C   0  0  0  0  0  3  0  0  0  0  0  0
  196.4400  174.5220  145.8350 C   0  0  0  0  0  1  0  0  0  0  0  0
  192.9950  175.0410  144.3090 C   0  0  0  0  0  0  0  0  0  0  0  0
  194.6590  174.8770  142.5170 C   0  0  0  0  0  0  0  0  0  0  0  0
  193.0970  176.0390  147.2620 C   0  0  0  0  0  2  0  0  0  0  0  0
  193.3120  175.0390  142.9300 C   0  0  0  0  0  0  0  0  0  0  0  0
  195.1210  173.7970  140.4260 O   0  0  0  0  0  0  0  0  0  0  0  0
  195.0940  174.8620  141.0970 C   0  0  0  0  0  0  0  0  0  0  0  0
  195.4870  176.0460  140.4820 O   0  0  0  0  0  1  0  0  0  0  0  0
  189.7890  176.6560  145.4450 C   0  0  0  0  0  2  0  0  0  0  0  0
  189.5540  177.5870  144.2980 C   0  0  0  0  0  0  0  0  0  0  0  0
  188.2690  177.6730  143.6830 N   0  0  0  0  0  2  0  0  0  0  0  0
  190.4930  178.3150  143.8840 O   0  0  0  0  0  0  0  0  0  0  0  0
  187.2160  176.8460  144.0930 N   0  0  0  0  0  2  0  0  0  0  0  0
  186.0220  177.6780  144.1680 C   0  0  2  0  0  3  0  0  0  0  0  0
  185.2420  177.3260  145.4430 C   0  0  1  0  0  3  0  0  0  0  0  0
  186.4320  178.2160  147.9340 N   0  0  0  0  0  2  0  0  0  0  0  0
  186.0760  176.4410  146.3370 C   0  0  0  0  0  3  0  0  0  0  0  0
  185.7290  179.2220  147.1430 C   0  0  0  0  0  2  0  0  0  0  0  0
  184.7900  178.5560  146.1870 C   0  0  0  0  0  0  0  0  0  0  0  0
  186.6300  176.8730  147.4750 C   0  0  0  0  0  3  0  0  0  0  0  0
  183.6890  179.0360  145.9750 O   0  0  0  0  0  0  0  0  0  0  0  0
  185.5620  178.4830  141.9880 C   0  0  2  0  0  3  0  0  0  0  0  0
  184.3560  178.6430  142.8000 C   0  0  2  0  0  3  0  0  0  0  0  0
  183.6520  178.2880  140.5080 C   0  0  0  0  0  2  0  0  0  0  0  0
  185.1350  178.0300  140.6030 C   0  0  0  0  0  2  0  0  0  0  0  0
  185.2040  177.4510  142.9800 N   0  0  0  0  0  0  0  0  0  0  0  0
  183.1610  178.2860  141.9350 C   0  0  0  0  0  2  0  0  0  0  0  0
  192.2070  175.2290  141.9320 C   0  0  0  0  0  2  0  0  0  0  0  0
  191.7080  173.8780  141.4490 C   0  0  0  0  0  2  0  0  0  0  0  0
  189.2890  173.5650  141.0860 C   0  0  0  0  0  0  0  0  0  0  0  0
  188.8350  172.3530  140.5590 O   0  0  0  0  0  0  0  0  0  0  0  0
  188.1990  174.6090  141.1350 C   0  0  0  0  0  2  0  0  0  0  0  0
  190.6750  173.0580  139.3670 C   0  0  0  0  0  2  0  0  0  0  0  0
  189.8410  171.9160  139.7440 N   0  0  0  0  0  0  0  0  0  0  0  0
  188.7550  174.0190  142.4260 C   0  0  0  0  0  2  0  0  0  0  0  0
  190.5550  174.0610  140.4750 C   0  0  2  0  0  3  0  0  0  0  0  0
  189.0980  171.3280  138.2850 Cl  0  0  0  0  0  0  0  0  0  0  0  0
  1  4  1  0  0  0  0
  2 11  1  0  0  0  0
  3  5  1  0  0  0  0
  3  8  1  0  0  0  0
  4 16  1  1  0  0  0
  4  6  1  0  0  0  0
  5  2  1  0  0  0  0
  6 11  1  0  0  0  0
  7  3  2  0  0  0  0
  9  1  1  0  0  0  0
  9  5  2  0  0  0  0
 10 12  2  0  0  0  0
 10  7  1  0  0  0  0
 12  9  1  0  0  0  0
 13 14  2  0  0  0  0
 14 10  1  0  0  0  0
 15 14  1  0  0  0  0
 17 16  1  0  0  0  0
 18 20  1  0  0  0  0
 18 17  1  0  0  0  0
 19 17  2  0  0  0  0
 21 20  1  6  0  0  0
 22 21  1  6  0  0  0
 22 26  1  0  0  0  0
 22 24  1  0  0  0  0
 24 27  2  0  0  0  0
 25 23  1  0  0  0  0
 26 25  1  0  0  0  0
 27 23  1  0  0  0  0
 28 26  2  0  0  0  0
 29 32  1  6  0  0  0
 29 30  1  0  0  0  0
 29 33  1  0  0  0  0
 30 34  1  6  0  0  0
 30 33  1  0  0  0  0
 31 32  1  0  0  0  0
 31 34  1  0  0  0  0
 33 21  1  0  0  0  0
 35 12  1  0  0  0  0
 36 35  1  0  0  0  0
 37 39  1  0  0  0  0
 37 42  1  0  0  0  0
 38 37  1  0  0  0  0
 39 42  1  0  0  0  0
 40 41  1  0  0  0  0
 40 43  1  0  0  0  0
 41 38  1  0  0  0  0
 43 37  1  0  0  0  0
 43 36  1  1  0  0  0
 44 41  1  0  0  0  0
M  END
>  <MODEL>
8

>  <REMARK>
 VINA RESULT:      -7.4      3.416      5.609
  Name = 
  10 active torsions:
  status: ('A' for Active; 'I' for Inactive)
    1  A    between atoms: C_1  and  C_8
    2  A    between atoms: C_1  and  C_16
    3  A    between atoms: C_3  and  C_37
    4  A    between atoms: C_4  and  C_43
    5  A    between atoms: N_10  and  N_41
    6  A    between atoms: C_15  and  C_22
    7  A    between atoms: C_15  and  C_44
    8  A    between atoms: C_22  and  C_35
    9  A    between atoms: N_36  and  C_43
   10  A    between atoms: N_41  and  C_43
                            x       y       z     vdW  Elec       q    Type
                         _______ _______ _______ _____ _____    ______ ____

>  <TORSDO>
F 10

$$$$
=
 OpenBabel11042415283D

 44 50  0  0  1  0  0  0  0  0999 V2000
  188.6980  177.5530  144.4010 C   0  0  0  0  0  2  0  0  0  0  0  0
  186.6130  178.2920  146.2860 O   0  0  0  0  0  0  0  0  0  0  0  0
  185.0460  178.6200  144.4820 C   0  0  0  0  0  0  0  0  0  0  0  0
  188.7870  176.3860  145.3650 C   0  0  2  0  0  3  0  0  0  0  0  0
  186.3200  178.2370  144.9170 C   0  0  0  0  0  0  0  0  0  0  0  0
  188.5460  176.8960  146.7770 C   0  0  0  0  0  2  0  0  0  0  0  0
  184.7130  178.5380  143.1340 C   0  0  0  0  0  3  0  0  0  0  0  0
  184.0170  179.0930  145.4500 C   0  0  0  0  0  1  0  0  0  0  0  0
  187.2810  177.8150  143.9740 C   0  0  0  0  0  0  0  0  0  0  0  0
  185.6330  178.0910  142.1800 C   0  0  0  0  0  0  0  0  0  0  0  0
  187.0690  177.1570  147.0140 C   0  0  0  0  0  2  0  0  0  0  0  0
  186.9390  177.7330  142.6030 C   0  0  0  0  0  0  0  0  0  0  0  0
  185.9930  177.9900  139.8110 O   0  0  0  0  0  0  0  0  0  0  0  0
  185.1760  178.0390  140.7670 C   0  0  0  0  0  0  0  0  0  0  0  0
  183.8160  178.0460  140.4810 O   0  0  0  0  0  1  0  0  0  0  0  0
  190.1750  175.7770  145.2590 C   0  0  0  0  0  2  0  0  0  0  0  0
  190.1840  174.3680  145.7600 C   0  0  0  0  0  0  0  0  0  0  0  0
  191.1560  173.4350  145.2900 N   0  0  0  0  0  2  0  0  0  0  0  0
  189.3380  174.0070  146.6190 O   0  0  0  0  0  0  0  0  0  0  0  0
  192.0830  173.7960  144.3040 N   0  0  0  0  0  2  0  0  0  0  0  0
  193.3750  173.2630  144.7160 C   0  0  2  0  0  3  0  0  0  0  0  0
  194.4650  174.3040  144.4240 C   0  0  1  0  0  3  0  0  0  0  0  0
  193.9140  176.9980  145.3470 N   0  0  0  0  0  2  0  0  0  0  0  0
  193.9190  175.3970  143.5390 C   0  0  0  0  0  3  0  0  0  0  0  0
  194.3550  176.0360  146.3510 C   0  0  0  0  0  2  0  0  0  0  0  0
  195.0450  174.8850  145.6880 C   0  0  0  0  0  0  0  0  0  0  0  0
  193.6560  176.6300  143.9860 C   0  0  0  0  0  3  0  0  0  0  0  0
  196.0380  174.3910  146.1960 O   0  0  0  0  0  0  0  0  0  0  0  0
  194.0400  171.0050  144.9810 C   0  0  2  0  0  3  0  0  0  0  0  0
  195.0590  171.6930  144.1870 C   0  0  2  0  0  3  0  0  0  0  0  0
  195.0310  169.3730  143.4870 C   0  0  0  0  0  2  0  0  0  0  0  0
  193.8500  169.6180  144.3930 C   0  0  0  0  0  2  0  0  0  0  0  0
  193.6350  172.0220  143.9920 N   0  0  0  0  0  0  0  0  0  0  0  0
  195.5130  170.7470  143.0920 C   0  0  0  0  0  2  0  0  0  0  0  0
  187.9710  177.2490  141.6260 C   0  0  0  0  0  2  0  0  0  0  0  0
  187.6330  175.8380  141.1740 C   0  0  0  0  0  2  0  0  0  0  0  0
  188.7280  173.8480  140.2130 C   0  0  0  0  0  0  0  0  0  0  0  0
  188.5130  172.6030  140.8100 O   0  0  0  0  0  0  0  0  0  0  0  0
  189.8230  173.8000  139.1730 C   0  0  0  0  0  2  0  0  0  0  0  0
  188.9240  174.1690  142.4470 C   0  0  0  0  0  2  0  0  0  0  0  0
  188.3310  172.8670  142.1380 N   0  0  0  0  0  0  0  0  0  0  0  0
  188.3740  174.0250  138.7540 C   0  0  0  0  0  2  0  0  0  0  0  0
  188.8820  174.9710  141.1820 C   0  0  2  0  0  3  0  0  0  0  0  0
  189.2360  171.6750  143.0250 Cl  0  0  0  0  0  0  0  0  0  0  0  0
  1  4  1  0  0  0  0
  2 11  1  0  0  0  0
  3  5  1  0  0  0  0
  3  8  1  0  0  0  0
  4 16  1  1  0  0  0
  4  6  1  0  0  0  0
  5  2  1  0  0  0  0
  6 11  1  0  0  0  0
  7  3  2  0  0  0  0
  9  1  1  0  0  0  0
  9  5  2  0  0  0  0
 10 12  2  0  0  0  0
 10  7  1  0  0  0  0
 12  9  1  0  0  0  0
 13 14  2  0  0  0  0
 14 10  1  0  0  0  0
 15 14  1  0  0  0  0
 16 17  1  0  0  0  0
 17 19  2  0  0  0  0
 18 17  1  0  0  0  0
 20 18  1  0  0  0  0
 21 20  1  6  0  0  0
 22 21  1  1  0  0  0
 22 26  1  0  0  0  0
 23 25  1  0  0  0  0
 24 27  2  0  0  0  0
 24 22  1  0  0  0  0
 26 28  2  0  0  0  0
 26 25  1  0  0  0  0
 27 23  1  0  0  0  0
 29 32  1  6  0  0  0
 30 34  1  6  0  0  0
 30 29  1  0  0  0  0
 31 32  1  0  0  0  0
 33 30  1  0  0  0  0
 33 21  1  0  0  0  0
 33 29  1  0  0  0  0
 34 31  1  0  0  0  0
 35 12  1  0  0  0  0
 36 35  1  0  0  0  0
 37 38  1  0  0  0  0
 37 43  1  0  0  0  0
 38 41  1  0  0  0  0
 39 37  1  0  0  0  0
 41 40  1  0  0  0  0
 41 44  1  0  0  0  0
 42 39  1  0  0  0  0
 42 37  1  0  0  0  0
 43 36  1  1  0  0  0
 43 40  1  0  0  0  0
M  END
>  <MODEL>
9

>  <REMARK>
 VINA RESULT:      -7.4      3.084      8.562
  Name = 
  10 active torsions:
  status: ('A' for Active; 'I' for Inactive)
    1  A    between atoms: C_1  and  C_8
    2  A    between atoms: C_1  and  C_16
    3  A    between atoms: C_3  and  C_37
    4  A    between atoms: C_4  and  C_43
    5  A    between atoms: N_10  and  N_41
    6  A    between atoms: C_15  and  C_22
    7  A    between atoms: C_15  and  C_44
    8  A    between atoms: C_22  and  C_35
    9  A    between atoms: N_36  and  C_43
   10  A    between atoms: N_41  and  C_43
                            x       y       z     vdW  Elec       q    Type
                         _______ _______ _______ _____ _____    ______ ____

>  <TORSDO>
F 10

$$$$
