=
 OpenBabel11042417583D

 36 40  0  0  0  0  0  0  0  0999 V2000
  189.7550  173.1660  142.4240 C   0  0  0  0  0  2  0  0  0  0  0  0
  190.9310  176.4960  143.0860 C   0  0  0  0  0  0  0  0  0  0  0  0
  191.8390  175.6170  143.6600 C   0  0  0  0  0  0  0  0  0  0  0  0
  191.0420  172.4380  142.7560 C   0  0  0  0  0  0  0  0  0  0  0  0
  191.8920  173.1600  143.4180 N   0  0  0  0  0  0  0  0  0  0  0  0
  189.8020  175.7580  142.7240 C   0  0  0  0  0  0  0  0  0  0  0  0
  191.1850  177.8270  142.7790 O   0  0  0  0  0  1  0  0  0  0  0  0
  190.0920  174.4560  143.0820 C   0  0  0  0  0  0  0  0  0  0  0  0
  191.2850  174.3900  143.6510 N   0  0  0  0  0  0  0  0  0  0  0  0
  191.3380  171.1030  142.3450 N   0  0  0  0  0  2  0  0  0  0  0  0
  186.6210  177.4160  141.2460 C   0  0  0  0  0  0  0  0  0  0  0  0
  185.9010  177.6830  143.2430 C   0  0  0  0  0  0  0  0  0  0  0  0
  185.5430  177.9170  142.0170 N   0  0  0  0  0  0  0  0  0  0  0  0
  188.7690  176.1450  141.8110 N   0  0  0  0  0  2  0  0  0  0  0  0
  186.5630  177.1930  139.9610 C   0  0  0  0  0  0  0  0  0  0  0  0
  186.5090  176.9830  138.7430 O   0  0  0  0  0  0  0  0  0  0  0  0
  187.1600  177.0090  143.3800 N   0  0  0  0  0  0  0  0  0  0  0  0
  187.5830  176.8620  142.1700 C   0  0  0  0  0  0  0  0  0  0  0  0
  183.6440  179.0860  145.5890 N   0  0  0  0  0  0  0  0  0  0  0  0
  184.2030  179.0720  144.3930 N   0  0  0  0  0  0  0  0  0  0  0  0
  184.1760  178.0700  146.2950 C   0  0  0  0  0  3  0  0  0  0  0  0
  185.0690  178.0460  144.3930 C   0  0  0  0  0  0  0  0  0  0  0  0
  185.0840  177.3880  145.5680 N   0  0  0  0  0  2  0  0  0  0  0  0
  190.4450  170.3700  141.6410 O   0  0  0  0  0  0  0  0  0  0  0  0
  190.9520  170.3340  140.3400 C   0  0  0  0  0  1  0  0  0  0  0  0
  193.2900  175.8880  143.8700 C   0  0  0  0  0  2  0  0  0  0  0  0
  193.4600  176.8460  144.9480 N   0  0  0  0  0  2  0  0  0  0  0  0
  193.7830  176.0810  146.1400 C   0  0  0  0  0  2  0  0  0  0  0  0
  192.7840  176.3900  147.2440 C   0  0  0  0  0  2  0  0  0  0  0  0
  191.6860  175.3350  147.3090 C   0  0  0  0  0  2  0  0  0  0  0  0
  190.1940  177.3070  146.6430 C   0  0  0  0  0  3  0  0  0  0  0  0
  188.0120  176.1350  146.7470 C   0  0  0  0  0  2  0  0  0  0  0  0
  190.3970  175.9070  146.9490 N   0  0  0  0  0  0  0  0  0  0  0  0
  188.6840  177.4750  146.4230 C   0  0  0  0  0  3  0  0  0  0  0  0
  189.1530  175.2490  147.0400 C   0  0  0  0  0  0  0  0  0  0  0  0
  189.0340  174.0360  147.3570 O   0  0  0  0  0  0  0  0  0  0  0  0
  1  4  1  0  0  0  0
  1  8  1  0  0  0  0
  2  3  2  0  0  0  0
  3 26  1  0  0  0  0
  4  5  2  0  0  0  0
  5  9  1  0  0  0  0
  6  8  2  0  0  0  0
  6  2  1  0  0  0  0
  7  2  1  0  0  0  0
  8  9  1  0  0  0  0
  9  3  1  0  0  0  0
 10  4  1  0  0  0  0
 11 13  1  0  0  0  0
 11 18  1  0  0  0  0
 12 17  1  0  0  0  0
 12 22  1  0  0  0  0
 13 12  2  0  0  0  0
 14 18  1  0  0  0  0
 14  6  1  0  0  0  0
 15 11  2  0  0  0  0
 16 15  2  0  0  0  0
 18 17  2  0  0  0  0
 19 21  2  0  0  0  0
 20 22  2  0  0  0  0
 20 19  1  0  0  0  0
 22 23  1  0  0  0  0
 23 21  1  0  0  0  0
 24 10  1  0  0  0  0
 25 24  1  0  0  0  0
 26 27  1  0  0  0  0
 27 28  1  0  0  0  0
 28 29  1  0  0  0  0
 29 30  1  0  0  0  0
 31 33  1  0  0  0  0
 32 35  1  0  0  0  0
 33 35  1  0  0  0  0
 33 30  1  0  0  0  0
 34 31  2  0  0  0  0
 34 32  1  0  0  0  0
 35 36  2  0  0  0  0
M  END
>  <MODEL>
1

>  <REMARK>
 VINA RESULT:      -7.1      0.000      0.000
  Name = 
  9 active torsions:
  status: ('A' for Active; 'I' for Inactive)
    1  A    between atoms: O_3  and  N_33
    2  A    between atoms: C_6  and  N_13
    3  A    between atoms: C_6  and  C_34
    4  A    between atoms: C_9  and  C_32
    5  A    between atoms: C_10  and  C_19
    6  A    between atoms: C_17  and  N_20
    7  A    between atoms: C_21  and  N_28
    8  A    between atoms: C_21  and  C_34
    9  A    between atoms: N_28  and  C_32
                            x       y       z     vdW  Elec       q    Type
                         _______ _______ _______ _____ _____    ______ ____

>  <TORSDO>
F 9

$$$$
=
 OpenBabel11042417583D

 36 40  0  0  0  0  0  0  0  0999 V2000
  189.6960  173.8750  140.9950 C   0  0  0  0  0  2  0  0  0  0  0  0
  190.6880  176.7780  142.8630 C   0  0  0  0  0  0  0  0  0  0  0  0
  191.7740  175.9140  142.8370 C   0  0  0  0  0  0  0  0  0  0  0  0
  191.0830  173.3120  140.7620 C   0  0  0  0  0  0  0  0  0  0  0  0
  191.9900  173.8310  141.5300 N   0  0  0  0  0  0  0  0  0  0  0  0
  189.5780  176.0720  142.3970 C   0  0  0  0  0  0  0  0  0  0  0  0
  190.7490  178.1380  143.1410 O   0  0  0  0  0  1  0  0  0  0  0  0
  190.0530  174.8120  142.0920 C   0  0  0  0  0  0  0  0  0  0  0  0
  191.3430  174.7260  142.3750 N   0  0  0  0  0  0  0  0  0  0  0  0
  191.4000  172.3440  139.7620 N   0  0  0  0  0  2  0  0  0  0  0  0
  186.2120  177.9960  142.2640 C   0  0  0  0  0  0  0  0  0  0  0  0
  186.1710  177.9610  144.4030 C   0  0  0  0  0  0  0  0  0  0  0  0
  185.4640  178.3900  143.4020 N   0  0  0  0  0  0  0  0  0  0  0  0
  188.3390  176.6150  141.9270 N   0  0  0  0  0  2  0  0  0  0  0  0
  185.7400  177.9790  141.0470 C   0  0  0  0  0  0  0  0  0  0  0  0
  185.2940  177.9620  139.8920 O   0  0  0  0  0  0  0  0  0  0  0  0
  187.3620  177.2520  144.0340 N   0  0  0  0  0  0  0  0  0  0  0  0
  187.3750  177.2880  142.7440 C   0  0  0  0  0  0  0  0  0  0  0  0
  184.5450  178.5920  147.4890 N   0  0  0  0  0  0  0  0  0  0  0  0
  184.5300  178.5210  146.1710 N   0  0  0  0  0  0  0  0  0  0  0  0
  185.7890  178.2680  147.8960 C   0  0  0  0  0  3  0  0  0  0  0  0
  185.7660  178.1540  145.7980 C   0  0  0  0  0  0  0  0  0  0  0  0
  186.5900  177.9840  146.8490 N   0  0  0  0  0  2  0  0  0  0  0  0
  190.4420  171.8240  138.9580 O   0  0  0  0  0  0  0  0  0  0  0  0
  190.7140  172.3450  137.6910 C   0  0  0  0  0  1  0  0  0  0  0  0
  193.2060  176.3230  142.9120 C   0  0  0  0  0  2  0  0  0  0  0  0
  193.9270  175.4310  143.8020 N   0  0  0  0  0  2  0  0  0  0  0  0
  194.3560  176.2300  144.9370 C   0  0  0  0  0  2  0  0  0  0  0  0
  193.8450  175.6150  146.2310 C   0  0  0  0  0  2  0  0  0  0  0  0
  192.6750  176.4110  146.7990 C   0  0  0  0  0  2  0  0  0  0  0  0
  191.3190  174.4030  145.9700 C   0  0  0  0  0  3  0  0  0  0  0  0
  189.0590  175.3890  146.2240 C   0  0  0  0  0  2  0  0  0  0  0  0
  191.4160  175.7210  146.5610 N   0  0  0  0  0  0  0  0  0  0  0  0
  189.8180  174.1200  145.8170 C   0  0  0  0  0  3  0  0  0  0  0  0
  190.1320  176.2940  146.6740 C   0  0  0  0  0  0  0  0  0  0  0  0
  189.9320  177.4620  147.0980 O   0  0  0  0  0  0  0  0  0  0  0  0
  1  8  1  0  0  0  0
  2  7  1  0  0  0  0
  3  2  2  0  0  0  0
  3 26  1  0  0  0  0
  4  1  1  0  0  0  0
  4  5  2  0  0  0  0
  5  9  1  0  0  0  0
  6  2  1  0  0  0  0
  8  9  1  0  0  0  0
  8  6  2  0  0  0  0
  9  3  1  0  0  0  0
 10  4  1  0  0  0  0
 11 18  1  0  0  0  0
 11 13  1  0  0  0  0
 12 22  1  0  0  0  0
 13 12  2  0  0  0  0
 14  6  1  0  0  0  0
 14 18  1  0  0  0  0
 15 11  2  0  0  0  0
 16 15  2  0  0  0  0
 17 12  1  0  0  0  0
 18 17  2  0  0  0  0
 19 21  2  0  0  0  0
 20 19  1  0  0  0  0
 22 20  2  0  0  0  0
 22 23  1  0  0  0  0
 23 21  1  0  0  0  0
 24 10  1  0  0  0  0
 25 24  1  0  0  0  0
 26 27  1  0  0  0  0
 27 28  1  0  0  0  0
 28 29  1  0  0  0  0
 29 30  1  0  0  0  0
 31 33  1  0  0  0  0
 32 35  1  0  0  0  0
 33 35  1  0  0  0  0
 33 30  1  0  0  0  0
 34 31  2  0  0  0  0
 34 32  1  0  0  0  0
 35 36  2  0  0  0  0
M  END
>  <MODEL>
2

>  <REMARK>
 VINA RESULT:      -6.9      1.680      1.901
  Name = 
  9 active torsions:
  status: ('A' for Active; 'I' for Inactive)
    1  A    between atoms: O_3  and  N_33
    2  A    between atoms: C_6  and  N_13
    3  A    between atoms: C_6  and  C_34
    4  A    between atoms: C_9  and  C_32
    5  A    between atoms: C_10  and  C_19
    6  A    between atoms: C_17  and  N_20
    7  A    between atoms: C_21  and  N_28
    8  A    between atoms: C_21  and  C_34
    9  A    between atoms: N_28  and  C_32
                            x       y       z     vdW  Elec       q    Type
                         _______ _______ _______ _____ _____    ______ ____

>  <TORSDO>
F 9

$$$$
=
 OpenBabel11042417583D

 36 40  0  0  0  0  0  0  0  0999 V2000
  191.3080  175.2910  142.5520 C   0  0  0  0  0  2  0  0  0  0  0  0
  191.6670  176.3490  145.9660 C   0  0  0  0  0  0  0  0  0  0  0  0
  190.3440  175.9690  145.7890 C   0  0  0  0  0  0  0  0  0  0  0  0
  189.9820  174.5760  142.7100 C   0  0  0  0  0  0  0  0  0  0  0  0
  189.3600  174.8720  143.8090 N   0  0  0  0  0  0  0  0  0  0  0  0
  192.2540  176.4270  144.7020 C   0  0  0  0  0  0  0  0  0  0  0  0
  192.3160  176.4590  147.1900 O   0  0  0  0  0  1  0  0  0  0  0  0
  191.2570  176.0690  143.8180 C   0  0  0  0  0  0  0  0  0  0  0  0
  190.1310  175.8230  144.4690 N   0  0  0  0  0  0  0  0  0  0  0  0
  189.4680  173.6230  141.7800 N   0  0  0  0  0  2  0  0  0  0  0  0
  195.8830  175.2580  143.9800 C   0  0  0  0  0  0  0  0  0  0  0  0
  195.4170  173.4050  144.9450 C   0  0  0  0  0  0  0  0  0  0  0  0
  196.4110  173.9960  144.3520 N   0  0  0  0  0  0  0  0  0  0  0  0
  193.6530  176.4420  144.3950 N   0  0  0  0  0  2  0  0  0  0  0  0
  196.6090  176.2760  143.6070 C   0  0  0  0  0  0  0  0  0  0  0  0
  197.2980  177.2420  143.2530 O   0  0  0  0  0  0  0  0  0  0  0  0
  194.2240  174.1960  145.0450 N   0  0  0  0  0  0  0  0  0  0  0  0
  194.5190  175.3040  144.4540 C   0  0  0  0  0  0  0  0  0  0  0  0
  196.3600  170.3080  146.3900 N   0  0  0  0  0  0  0  0  0  0  0  0
  196.6570  171.5300  145.9840 N   0  0  0  0  0  0  0  0  0  0  0  0
  195.0500  170.1090  146.1460 C   0  0  0  0  0  3  0  0  0  0  0  0
  195.5190  172.0530  145.5000 C   0  0  0  0  0  0  0  0  0  0  0  0
  194.4840  171.1960  145.5810 N   0  0  0  0  0  2  0  0  0  0  0  0
  190.1390  173.3150  140.6450 O   0  0  0  0  0  0  0  0  0  0  0  0
  190.0900  171.9210  140.5640 C   0  0  0  0  0  1  0  0  0  0  0  0
  189.4490  175.4320  146.8550 C   0  0  0  0  0  2  0  0  0  0  0  0
  188.0640  175.7070  146.5180 N   0  0  0  0  0  2  0  0  0  0  0  0
  187.7790  177.0530  146.9840 C   0  0  0  0  0  2  0  0  0  0  0  0
  186.3260  177.1570  147.4220 C   0  0  0  0  0  2  0  0  0  0  0  0
  185.3770  176.8410  146.2720 C   0  0  0  0  0  2  0  0  0  0  0  0
  185.1900  179.2380  145.3920 C   0  0  0  0  0  3  0  0  0  0  0  0
  185.6400  178.7610  143.0020 C   0  0  0  0  0  2  0  0  0  0  0  0
  185.4950  177.8350  145.2150 N   0  0  0  0  0  0  0  0  0  0  0  0
  185.3550  179.8820  144.0080 C   0  0  0  0  0  3  0  0  0  0  0  0
  185.7180  177.5580  143.8500 C   0  0  0  0  0  0  0  0  0  0  0  0
  185.9420  176.4010  143.4070 O   0  0  0  0  0  0  0  0  0  0  0  0
  1  4  1  0  0  0  0
  1  8  1  0  0  0  0
  2  7  1  0  0  0  0
  3  2  2  0  0  0  0
  3 26  1  0  0  0  0
  4  5  2  0  0  0  0
  5  9  1  0  0  0  0
  6  2  1  0  0  0  0
  8  9  1  0  0  0  0
  8  6  2  0  0  0  0
  9  3  1  0  0  0  0
 10  4  1  0  0  0  0
 11 13  1  0  0  0  0
 11 18  1  0  0  0  0
 12 17  1  0  0  0  0
 12 22  1  0  0  0  0
 13 12  2  0  0  0  0
 14 18  1  0  0  0  0
 14  6  1  0  0  0  0
 15 11  2  0  0  0  0
 16 15  2  0  0  0  0
 18 17  2  0  0  0  0
 20 19  1  0  0  0  0
 21 19  2  0  0  0  0
 22 23  1  0  0  0  0
 22 20  2  0  0  0  0
 23 21  1  0  0  0  0
 24 10  1  0  0  0  0
 25 24  1  0  0  0  0
 27 26  1  0  0  0  0
 27 28  1  0  0  0  0
 28 29  1  0  0  0  0
 30 29  1  0  0  0  0
 32 35  1  0  0  0  0
 32 34  1  0  0  0  0
 33 31  1  0  0  0  0
 33 30  1  0  0  0  0
 34 31  2  0  0  0  0
 35 33  1  0  0  0  0
 36 35  2  0  0  0  0
M  END
>  <MODEL>
3

>  <REMARK>
 VINA RESULT:      -6.8      3.031      7.650
  Name = 
  9 active torsions:
  status: ('A' for Active; 'I' for Inactive)
    1  A    between atoms: O_3  and  N_33
    2  A    between atoms: C_6  and  N_13
    3  A    between atoms: C_6  and  C_34
    4  A    between atoms: C_9  and  C_32
    5  A    between atoms: C_10  and  C_19
    6  A    between atoms: C_17  and  N_20
    7  A    between atoms: C_21  and  N_28
    8  A    between atoms: C_21  and  C_34
    9  A    between atoms: N_28  and  C_32
                            x       y       z     vdW  Elec       q    Type
                         _______ _______ _______ _____ _____    ______ ____

>  <TORSDO>
F 9

$$$$
=
 OpenBabel11042417583D

 36 40  0  0  0  0  0  0  0  0999 V2000
  193.9200  174.5180  142.9580 C   0  0  0  0  0  2  0  0  0  0  0  0
  191.1790  173.8270  145.1750 C   0  0  0  0  0  0  0  0  0  0  0  0
  192.1530  174.4810  145.9160 C   0  0  0  0  0  0  0  0  0  0  0  0
  194.6230  175.5370  143.8320 C   0  0  0  0  0  0  0  0  0  0  0  0
  194.2190  175.5300  145.0650 N   0  0  0  0  0  0  0  0  0  0  0  0
  191.7530  173.4610  143.9560 C   0  0  0  0  0  0  0  0  0  0  0  0
  189.8390  173.7180  145.5270 O   0  0  0  0  0  1  0  0  0  0  0  0
  193.0490  173.9320  144.0120 C   0  0  0  0  0  0  0  0  0  0  0  0
  193.2780  174.5120  145.1790 N   0  0  0  0  0  0  0  0  0  0  0  0
  195.5980  176.4640  143.3590 N   0  0  0  0  0  2  0  0  0  0  0  0
  189.6090  173.6240  140.7260 C   0  0  0  0  0  0  0  0  0  0  0  0
  188.7290  175.4280  141.4690 C   0  0  0  0  0  0  0  0  0  0  0  0
  188.6670  174.6430  140.4370 N   0  0  0  0  0  0  0  0  0  0  0  0
  191.0700  173.0820  142.7560 N   0  0  0  0  0  2  0  0  0  0  0  0
  189.6750  172.4850  140.0940 C   0  0  0  0  0  0  0  0  0  0  0  0
  189.7390  171.4040  139.4940 O   0  0  0  0  0  0  0  0  0  0  0  0
  189.6400  175.0010  142.4920 N   0  0  0  0  0  0  0  0  0  0  0  0
  190.1660  173.9180  142.0260 C   0  0  0  0  0  0  0  0  0  0  0  0
  186.2520  177.9630  141.4050 N   0  0  0  0  0  2  0  0  0  0  0  0
  186.6670  176.7480  141.0980 N   0  0  0  0  0  0  0  0  0  0  0  0
  187.2470  178.5690  142.0830 C   0  0  0  0  0  3  0  0  0  0  0  0
  187.9090  176.6350  141.5950 C   0  0  0  0  0  0  0  0  0  0  0  0
  188.3130  177.7550  142.2220 N   0  0  0  0  0  0  0  0  0  0  0  0
  195.9950  176.4670  142.0640 O   0  0  0  0  0  0  0  0  0  0  0  0
  197.2910  175.9470  142.0830 C   0  0  0  0  0  1  0  0  0  0  0  0
  191.9010  175.3380  147.1110 C   0  0  0  0  0  2  0  0  0  0  0  0
  191.4500  176.6510  146.6880 N   0  0  0  0  0  2  0  0  0  0  0  0
  190.1920  176.9010  147.3700 C   0  0  0  0  0  2  0  0  0  0  0  0
  189.0790  177.1020  146.3540 C   0  0  0  0  0  2  0  0  0  0  0  0
  187.8420  176.2900  146.7190 C   0  0  0  0  0  2  0  0  0  0  0  0
  186.1430  177.8620  147.8130 C   0  0  0  0  0  3  0  0  0  0  0  0
  184.5310  177.9830  145.9330 C   0  0  0  0  0  2  0  0  0  0  0  0
  186.6470  177.1190  146.6770 N   0  0  0  0  0  0  0  0  0  0  0  0
  184.8270  178.5010  147.3460 C   0  0  0  0  0  3  0  0  0  0  0  0
  185.7140  177.1620  145.6210 C   0  0  0  0  0  0  0  0  0  0  0  0
  185.8720  176.5450  144.5350 O   0  0  0  0  0  0  0  0  0  0  0  0
  1  4  1  0  0  0  0
  1  8  1  0  0  0  0
  2  7  1  0  0  0  0
  2  3  2  0  0  0  0
  3 26  1  0  0  0  0
  4  5  2  0  0  0  0
  5  9  1  0  0  0  0
  6  8  2  0  0  0  0
  6  2  1  0  0  0  0
  8  9  1  0  0  0  0
  9  3  1  0  0  0  0
 10  4  1  0  0  0  0
 11 18  1  0  0  0  0
 12 22  1  0  0  0  0
 12 17  1  0  0  0  0
 13 11  1  0  0  0  0
 13 12  2  0  0  0  0
 14  6  1  0  0  0  0
 15 11  2  0  0  0  0
 16 15  2  0  0  0  0
 18 17  2  0  0  0  0
 18 14  1  0  0  0  0
 19 21  1  0  0  0  0
 20 19  1  0  0  0  0
 20 22  2  0  0  0  0
 21 23  2  0  0  0  0
 22 23  1  0  0  0  0
 24 25  1  0  0  0  0
 24 10  1  0  0  0  0
 27 26  1  0  0  0  0
 27 28  1  0  0  0  0
 29 30  1  0  0  0  0
 29 28  1  0  0  0  0
 32 34  1  0  0  0  0
 33 30  1  0  0  0  0
 33 31  1  0  0  0  0
 34 31  2  0  0  0  0
 35 32  1  0  0  0  0
 35 33  1  0  0  0  0
 36 35  2  0  0  0  0
M  END
>  <MODEL>
4

>  <REMARK>
 VINA RESULT:      -6.7      2.206      4.675
  Name = 
  9 active torsions:
  status: ('A' for Active; 'I' for Inactive)
    1  A    between atoms: O_3  and  N_33
    2  A    between atoms: C_6  and  N_13
    3  A    between atoms: C_6  and  C_34
    4  A    between atoms: C_9  and  C_32
    5  A    between atoms: C_10  and  C_19
    6  A    between atoms: C_17  and  N_20
    7  A    between atoms: C_21  and  N_28
    8  A    between atoms: C_21  and  C_34
    9  A    between atoms: N_28  and  C_32
                            x       y       z     vdW  Elec       q    Type
                         _______ _______ _______ _____ _____    ______ ____

>  <TORSDO>
F 9

$$$$
=
 OpenBabel11042417583D

 36 40  0  0  0  0  0  0  0  0999 V2000
  190.9640  174.7720  146.6260 C   0  0  0  0  0  2  0  0  0  0  0  0
  190.0680  173.6100  143.3470 C   0  0  0  0  0  0  0  0  0  0  0  0
  189.2620  174.7030  143.6310 C   0  0  0  0  0  0  0  0  0  0  0  0
  190.2930  176.1280  146.5400 C   0  0  0  0  0  0  0  0  0  0  0  0
  189.4420  176.2260  145.5650 N   0  0  0  0  0  0  0  0  0  0  0  0
  190.7020  173.2360  144.5330 C   0  0  0  0  0  0  0  0  0  0  0  0
  190.3180  173.1030  142.0770 O   0  0  0  0  0  1  0  0  0  0  0  0
  190.2610  174.1390  145.4790 C   0  0  0  0  0  0  0  0  0  0  0  0
  189.3970  174.9850  144.9400 N   0  0  0  0  0  0  0  0  0  0  0  0
  190.5900  177.2280  147.4000 N   0  0  0  0  0  2  0  0  0  0  0  0
  194.3940  172.0730  144.7960 C   0  0  0  0  0  0  0  0  0  0  0  0
  194.9780  173.9030  143.8530 C   0  0  0  0  0  0  0  0  0  0  0  0
  195.5080  172.8200  144.3370 N   0  0  0  0  0  0  0  0  0  0  0  0
  191.8600  172.4050  144.6730 N   0  0  0  0  0  2  0  0  0  0  0  0
  194.4380  170.8050  145.1020 C   0  0  0  0  0  0  0  0  0  0  0  0
  194.4780  169.6030  145.3930 O   0  0  0  0  0  0  0  0  0  0  0  0
  193.5460  173.9470  143.9120 N   0  0  0  0  0  0  0  0  0  0  0  0
  193.2110  172.8420  144.4880 C   0  0  0  0  0  0  0  0  0  0  0  0
  196.9540  176.0600  141.8510 N   0  0  0  0  0  2  0  0  0  0  0  0
  196.3100  174.9210  142.0300 N   0  0  0  0  0  0  0  0  0  0  0  0
  196.8050  176.7890  142.9740 C   0  0  0  0  0  3  0  0  0  0  0  0
  195.7790  174.9780  143.2620 C   0  0  0  0  0  0  0  0  0  0  0  0
  196.0650  176.1340  143.8910 N   0  0  0  0  0  0  0  0  0  0  0  0
  191.4940  177.1110  148.4020 O   0  0  0  0  0  0  0  0  0  0  0  0
  191.1890  178.1500  149.2850 C   0  0  0  0  0  1  0  0  0  0  0  0
  188.6810  175.6350  142.6210 C   0  0  0  0  0  2  0  0  0  0  0  0
  189.6170  176.7110  142.3490 N   0  0  0  0  0  2  0  0  0  0  0  0
  188.8240  177.9050  142.1160 C   0  0  0  0  0  2  0  0  0  0  0  0
  187.3600  177.5340  141.9420 C   0  0  0  0  0  2  0  0  0  0  0  0
  186.4430  178.6610  142.4040 C   0  0  0  0  0  2  0  0  0  0  0  0
  185.8610  177.0880  144.3380 C   0  0  0  0  0  3  0  0  0  0  0  0
  184.7880  178.7560  145.8250 C   0  0  0  0  0  2  0  0  0  0  0  0
  185.9490  178.4060  143.7490 N   0  0  0  0  0  0  0  0  0  0  0  0
  185.1980  177.2830  145.7090 C   0  0  0  0  0  3  0  0  0  0  0  0
  185.3090  179.3490  144.5800 C   0  0  0  0  0  0  0  0  0  0  0  0
  185.1830  180.5640  144.2760 O   0  0  0  0  0  0  0  0  0  0  0  0
  2  3  2  0  0  0  0
  2  6  1  0  0  0  0
  3  9  1  0  0  0  0
  4  1  1  0  0  0  0
  4 10  1  0  0  0  0
  5  4  2  0  0  0  0
  6 14  1  0  0  0  0
  6  8  2  0  0  0  0
  7  2  1  0  0  0  0
  8  1  1  0  0  0  0
  9  8  1  0  0  0  0
  9  5  1  0  0  0  0
 10 24  1  0  0  0  0
 11 15  2  0  0  0  0
 12 17  1  0  0  0  0
 12 13  2  0  0  0  0
 13 11  1  0  0  0  0
 15 16  2  0  0  0  0
 17 18  2  0  0  0  0
 18 14  1  0  0  0  0
 18 11  1  0  0  0  0
 19 20  1  0  0  0  0
 19 21  1  0  0  0  0
 20 22  2  0  0  0  0
 21 23  2  0  0  0  0
 22 12  1  0  0  0  0
 22 23  1  0  0  0  0
 24 25  1  0  0  0  0
 26  3  1  0  0  0  0
 27 26  1  0  0  0  0
 28 27  1  0  0  0  0
 29 28  1  0  0  0  0
 29 30  1  0  0  0  0
 30 33  1  0  0  0  0
 31 34  2  0  0  0  0
 33 31  1  0  0  0  0
 33 35  1  0  0  0  0
 34 32  1  0  0  0  0
 35 32  1  0  0  0  0
 36 35  2  0  0  0  0
M  END
>  <MODEL>
5

>  <REMARK>
 VINA RESULT:      -6.3      2.852      8.137
  Name = 
  9 active torsions:
  status: ('A' for Active; 'I' for Inactive)
    1  A    between atoms: O_3  and  N_33
    2  A    between atoms: C_6  and  N_13
    3  A    between atoms: C_6  and  C_34
    4  A    between atoms: C_9  and  C_32
    5  A    between atoms: C_10  and  C_19
    6  A    between atoms: C_17  and  N_20
    7  A    between atoms: C_21  and  N_28
    8  A    between atoms: C_21  and  C_34
    9  A    between atoms: N_28  and  C_32
                            x       y       z     vdW  Elec       q    Type
                         _______ _______ _______ _____ _____    ______ ____

>  <TORSDO>
F 9

$$$$
=
 OpenBabel11042417583D

 36 40  0  0  0  0  0  0  0  0999 V2000
  189.4200  176.2920  146.1190 C   0  0  0  0  0  2  0  0  0  0  0  0
  190.7010  175.0510  143.0000 C   0  0  0  0  0  0  0  0  0  0  0  0
  189.3230  174.8820  142.9760 C   0  0  0  0  0  0  0  0  0  0  0  0
  187.9650  176.3840  145.7070 C   0  0  0  0  0  0  0  0  0  0  0  0
  187.6890  175.7270  144.6230 N   0  0  0  0  0  0  0  0  0  0  0  0
  191.0610  175.3760  144.3090 C   0  0  0  0  0  0  0  0  0  0  0  0
  191.5290  175.0600  141.8850 O   0  0  0  0  0  1  0  0  0  0  0  0
  189.8750  175.4070  145.0140 C   0  0  0  0  0  0  0  0  0  0  0  0
  188.8610  175.0940  144.2220 N   0  0  0  0  0  0  0  0  0  0  0  0
  186.9820  177.1570  146.3960 N   0  0  0  0  0  2  0  0  0  0  0  0
  194.7950  175.8420  145.2560 C   0  0  0  0  0  0  0  0  0  0  0  0
  194.9530  173.7170  145.4480 C   0  0  0  0  0  0  0  0  0  0  0  0
  195.6850  174.7840  145.5660 N   0  0  0  0  0  0  0  0  0  0  0  0
  192.2900  175.9660  144.7490 N   0  0  0  0  0  2  0  0  0  0  0  0
  195.0310  177.0990  145.5170 C   0  0  0  0  0  0  0  0  0  0  0  0
  195.2550  178.2910  145.7640 O   0  0  0  0  0  0  0  0  0  0  0  0
  193.5820  173.9660  145.1060 N   0  0  0  0  0  0  0  0  0  0  0  0
  193.5060  175.2490  144.9880 C   0  0  0  0  0  0  0  0  0  0  0  0
  196.8630  170.7920  146.0520 N   0  0  0  0  0  0  0  0  0  0  0  0
  196.7770  172.0990  145.8800 N   0  0  0  0  0  0  0  0  0  0  0  0
  195.6160  170.2900  145.9560 C   0  0  0  0  0  3  0  0  0  0  0  0
  195.4770  172.3690  145.6810 C   0  0  0  0  0  0  0  0  0  0  0  0
  194.7110  171.2620  145.7200 N   0  0  0  0  0  2  0  0  0  0  0  0
  187.2920  177.8490  147.5170 O   0  0  0  0  0  0  0  0  0  0  0  0
  186.2860  178.8110  147.6370 C   0  0  0  0  0  1  0  0  0  0  0  0
  188.4750  174.8730  141.7500 C   0  0  0  0  0  2  0  0  0  0  0  0
  188.2800  176.2320  141.2760 N   0  0  0  0  0  2  0  0  0  0  0  0
  186.8650  176.3740  140.9840 C   0  0  0  0  0  2  0  0  0  0  0  0
  186.6080  177.6960  140.2780 C   0  0  0  0  0  2  0  0  0  0  0  0
  185.1910  178.1960  140.5350 C   0  0  0  0  0  2  0  0  0  0  0  0
  186.1650  179.0390  142.7480 C   0  0  0  0  0  3  0  0  0  0  0  0
  184.0660  179.0410  144.0660 C   0  0  0  0  0  2  0  0  0  0  0  0
  185.0490  178.6660  141.9050 N   0  0  0  0  0  0  0  0  0  0  0  0
  185.5630  179.3690  144.1210 C   0  0  0  0  0  3  0  0  0  0  0  0
  183.8610  178.6360  142.6640 C   0  0  0  0  0  0  0  0  0  0  0  0
  182.7490  178.2810  142.1920 O   0  0  0  0  0  0  0  0  0  0  0  0
  2  6  1  0  0  0  0
  3  2  2  0  0  0  0
  3  9  1  0  0  0  0
  4  1  1  0  0  0  0
  4 10  1  0  0  0  0
  5  4  2  0  0  0  0
  6 14  1  0  0  0  0
  6  8  2  0  0  0  0
  7  2  1  0  0  0  0
  8  1  1  0  0  0  0
  9  5  1  0  0  0  0
  9  8  1  0  0  0  0
 10 24  1  0  0  0  0
 11 15  2  0  0  0  0
 11 13  1  0  0  0  0
 12 13  2  0  0  0  0
 12 22  1  0  0  0  0
 14 18  1  0  0  0  0
 15 16  2  0  0  0  0
 17 12  1  0  0  0  0
 18 17  2  0  0  0  0
 18 11  1  0  0  0  0
 20 19  1  0  0  0  0
 21 19  2  0  0  0  0
 22 23  1  0  0  0  0
 22 20  2  0  0  0  0
 23 21  1  0  0  0  0
 24 25  1  0  0  0  0
 26  3  1  0  0  0  0
 27 26  1  0  0  0  0
 28 27  1  0  0  0  0
 29 30  1  0  0  0  0
 29 28  1  0  0  0  0
 30 33  1  0  0  0  0
 31 34  2  0  0  0  0
 32 34  1  0  0  0  0
 33 35  1  0  0  0  0
 33 31  1  0  0  0  0
 35 32  1  0  0  0  0
 36 35  2  0  0  0  0
M  END
>  <MODEL>
6

>  <REMARK>
 VINA RESULT:      -6.2      2.895      8.553
  Name = 
  9 active torsions:
  status: ('A' for Active; 'I' for Inactive)
    1  A    between atoms: O_3  and  N_33
    2  A    between atoms: C_6  and  N_13
    3  A    between atoms: C_6  and  C_34
    4  A    between atoms: C_9  and  C_32
    5  A    between atoms: C_10  and  C_19
    6  A    between atoms: C_17  and  N_20
    7  A    between atoms: C_21  and  N_28
    8  A    between atoms: C_21  and  C_34
    9  A    between atoms: N_28  and  C_32
                            x       y       z     vdW  Elec       q    Type
                         _______ _______ _______ _____ _____    ______ ____

>  <TORSDO>
F 9

$$$$
=
 OpenBabel11042417583D

 36 40  0  0  0  0  0  0  0  0999 V2000
  192.8300  171.2690  144.2590 C   0  0  0  0  0  2  0  0  0  0  0  0
  193.1400  174.6870  143.1980 C   0  0  0  0  0  0  0  0  0  0  0  0
  193.9870  174.5140  144.2840 C   0  0  0  0  0  0  0  0  0  0  0  0
  194.0760  171.2210  145.1200 C   0  0  0  0  0  0  0  0  0  0  0  0
  194.5530  172.3920  145.4100 N   0  0  0  0  0  0  0  0  0  0  0  0
  192.3180  173.5610  143.1230 C   0  0  0  0  0  0  0  0  0  0  0  0
  193.2250  175.7150  142.2670 O   0  0  0  0  0  1  0  0  0  0  0  0
  192.7230  172.7480  144.1630 C   0  0  0  0  0  0  0  0  0  0  0  0
  193.6920  173.3300  144.8510 N   0  0  0  0  0  0  0  0  0  0  0  0
  194.7160  170.0160  145.5410 N   0  0  0  0  0  2  0  0  0  0  0  0
  189.6760  173.4760  140.2830 C   0  0  0  0  0  0  0  0  0  0  0  0
  188.5690  174.9690  141.3440 C   0  0  0  0  0  0  0  0  0  0  0  0
  188.5030  174.2710  140.2510 N   0  0  0  0  0  0  0  0  0  0  0  0
  191.5390  173.1290  142.0010 N   0  0  0  0  0  2  0  0  0  0  0  0
  189.8760  172.4330  139.5240 C   0  0  0  0  0  0  0  0  0  0  0  0
  190.0670  171.4440  138.8040 O   0  0  0  0  0  0  0  0  0  0  0  0
  189.7090  174.6840  142.1670 N   0  0  0  0  0  0  0  0  0  0  0  0
  190.3680  173.7890  141.5120 C   0  0  0  0  0  0  0  0  0  0  0  0
  185.9280  176.8460  142.7820 N   0  0  0  0  0  0  0  0  0  0  0  0
  186.6960  175.7720  142.7510 N   0  0  0  0  0  0  0  0  0  0  0  0
  186.3210  177.6520  141.7760 C   0  0  0  0  0  3  0  0  0  0  0  0
  187.5430  175.9430  141.7240 C   0  0  0  0  0  0  0  0  0  0  0  0
  187.3440  177.1100  141.0840 N   0  0  0  0  0  2  0  0  0  0  0  0
  194.2130  168.8020  145.2150 O   0  0  0  0  0  0  0  0  0  0  0  0
  195.1990  168.2020  144.4290 C   0  0  0  0  0  1  0  0  0  0  0  0
  195.2410  175.2820  144.5330 C   0  0  0  0  0  2  0  0  0  0  0  0
  194.9380  176.4930  145.2740 N   0  0  0  0  0  2  0  0  0  0  0  0
  194.3030  176.0760  146.5130 C   0  0  0  0  0  2  0  0  0  0  0  0
  192.9400  176.7360  146.6480 C   0  0  0  0  0  2  0  0  0  0  0  0
  191.8740  175.7270  147.0570 C   0  0  0  0  0  2  0  0  0  0  0  0
  190.3890  177.1630  145.5450 C   0  0  0  0  0  3  0  0  0  0  0  0
  188.2120  176.1290  146.1210 C   0  0  0  0  0  2  0  0  0  0  0  0
  190.5910  176.0540  146.4520 N   0  0  0  0  0  0  0  0  0  0  0  0
  188.8840  177.1900  145.2420 C   0  0  0  0  0  3  0  0  0  0  0  0
  189.3490  175.4880  146.8050 C   0  0  0  0  0  0  0  0  0  0  0  0
  189.2290  174.5460  147.6320 O   0  0  0  0  0  0  0  0  0  0  0  0
  1  4  1  0  0  0  0
  2  3  2  0  0  0  0
  3 26  1  0  0  0  0
  3  9  1  0  0  0  0
  4  5  2  0  0  0  0
  4 10  1  0  0  0  0
  6  2  1  0  0  0  0
  6  8  2  0  0  0  0
  7  2  1  0  0  0  0
  8  1  1  0  0  0  0
  8  9  1  0  0  0  0
  9  5  1  0  0  0  0
 11 18  1  0  0  0  0
 12 22  1  0  0  0  0
 12 17  1  0  0  0  0
 13 11  1  0  0  0  0
 13 12  2  0  0  0  0
 14  6  1  0  0  0  0
 15 11  2  0  0  0  0
 16 15  2  0  0  0  0
 18 14  1  0  0  0  0
 18 17  2  0  0  0  0
 20 19  1  0  0  0  0
 21 19  2  0  0  0  0
 22 20  2  0  0  0  0
 23 22  1  0  0  0  0
 23 21  1  0  0  0  0
 24 10  1  0  0  0  0
 25 24  1  0  0  0  0
 26 27  1  0  0  0  0
 27 28  1  0  0  0  0
 28 29  1  0  0  0  0
 29 30  1  0  0  0  0
 31 33  1  0  0  0  0
 32 35  1  0  0  0  0
 33 35  1  0  0  0  0
 33 30  1  0  0  0  0
 34 31  2  0  0  0  0
 34 32  1  0  0  0  0
 35 36  2  0  0  0  0
M  END
>  <MODEL>
7

>  <REMARK>
 VINA RESULT:      -6.1      2.413      3.735
  Name = 
  9 active torsions:
  status: ('A' for Active; 'I' for Inactive)
    1  A    between atoms: O_3  and  N_33
    2  A    between atoms: C_6  and  N_13
    3  A    between atoms: C_6  and  C_34
    4  A    between atoms: C_9  and  C_32
    5  A    between atoms: C_10  and  C_19
    6  A    between atoms: C_17  and  N_20
    7  A    between atoms: C_21  and  N_28
    8  A    between atoms: C_21  and  C_34
    9  A    between atoms: N_28  and  C_32
                            x       y       z     vdW  Elec       q    Type
                         _______ _______ _______ _____ _____    ______ ____

>  <TORSDO>
F 9

$$$$
=
 OpenBabel11042417583D

 36 40  0  0  0  0  0  0  0  0999 V2000
  191.8200  172.6640  144.4730 C   0  0  0  0  0  2  0  0  0  0  0  0
  192.1190  176.2340  144.7380 C   0  0  0  0  0  0  0  0  0  0  0  0
  193.1310  175.6780  145.5080 C   0  0  0  0  0  0  0  0  0  0  0  0
  193.1920  172.3150  145.0140 C   0  0  0  0  0  0  0  0  0  0  0  0
  193.7720  173.2970  145.6320 N   0  0  0  0  0  0  0  0  0  0  0  0
  191.2380  175.2060  144.3950 C   0  0  0  0  0  0  0  0  0  0  0  0
  192.0950  177.5400  144.2630 O   0  0  0  0  0  1  0  0  0  0  0  0
  191.7740  174.0680  144.9610 C   0  0  0  0  0  0  0  0  0  0  0  0
  192.8770  174.3620  145.6310 N   0  0  0  0  0  0  0  0  0  0  0  0
  193.8310  171.0520  144.8280 N   0  0  0  0  0  2  0  0  0  0  0  0
  188.0820  176.0790  142.3130 C   0  0  0  0  0  0  0  0  0  0  0  0
  187.1940  176.8650  144.0950 C   0  0  0  0  0  0  0  0  0  0  0  0
  186.9180  176.6940  142.8370 N   0  0  0  0  0  0  0  0  0  0  0  0
  190.2560  175.2180  143.3530 N   0  0  0  0  0  2  0  0  0  0  0  0
  188.1380  175.4820  141.1550 C   0  0  0  0  0  0  0  0  0  0  0  0
  188.1910  174.9150  140.0550 O   0  0  0  0  0  0  0  0  0  0  0  0
  188.4790  176.3700  144.4980 N   0  0  0  0  0  0  0  0  0  0  0  0
  189.0030  175.9070  143.4130 C   0  0  0  0  0  0  0  0  0  0  0  0
  184.8130  177.6760  146.5920 N   0  0  0  0  0  0  0  0  0  0  0  0
  185.5360  176.7900  145.9330 N   0  0  0  0  0  0  0  0  0  0  0  0
  185.1020  178.8910  146.0850 C   0  0  0  0  0  3  0  0  0  0  0  0
  186.2540  177.4820  145.0340 C   0  0  0  0  0  0  0  0  0  0  0  0
  186.0130  178.8050  145.0940 N   0  0  0  0  0  2  0  0  0  0  0  0
  193.2160  170.0440  144.1660 O   0  0  0  0  0  0  0  0  0  0  0  0
  193.6480  168.8780  144.8020 C   0  0  0  0  0  1  0  0  0  0  0  0
  194.4470  176.3160  145.7960 C   0  0  0  0  0  2  0  0  0  0  0  0
  195.4820  175.6960  144.9890 N   0  0  0  0  0  2  0  0  0  0  0  0
  195.8000  176.6310  143.9240 C   0  0  0  0  0  2  0  0  0  0  0  0
  195.3990  176.0460  142.5790 C   0  0  0  0  0  2  0  0  0  0  0  0
  195.5540  174.5300  142.5660 C   0  0  0  0  0  2  0  0  0  0  0  0
  193.2380  174.5880  141.4740 C   0  0  0  0  0  3  0  0  0  0  0  0
  193.0600  172.1780  140.9210 C   0  0  0  0  0  2  0  0  0  0  0  0
  194.4630  173.9050  141.8320 N   0  0  0  0  0  0  0  0  0  0  0  0
  192.3460  173.5300  140.8090 C   0  0  0  0  0  3  0  0  0  0  0  0
  194.3480  172.5290  141.5480 C   0  0  0  0  0  0  0  0  0  0  0  0
  195.2460  171.6900  141.8200 O   0  0  0  0  0  0  0  0  0  0  0  0
  1  8  1  0  0  0  0
  1  4  1  0  0  0  0
  2  3  2  0  0  0  0
  3  9  1  0  0  0  0
  3 26  1  0  0  0  0
  4  5  2  0  0  0  0
  6  2  1  0  0  0  0
  6  8  2  0  0  0  0
  7  2  1  0  0  0  0
  8  9  1  0  0  0  0
  9  5  1  0  0  0  0
 10  4  1  0  0  0  0
 11 13  1  0  0  0  0
 11 18  1  0  0  0  0
 12 17  1  0  0  0  0
 12 22  1  0  0  0  0
 13 12  2  0  0  0  0
 14 18  1  0  0  0  0
 14  6  1  0  0  0  0
 15 11  2  0  0  0  0
 16 15  2  0  0  0  0
 18 17  2  0  0  0  0
 20 19  1  0  0  0  0
 21 19  2  0  0  0  0
 22 23  1  0  0  0  0
 22 20  2  0  0  0  0
 23 21  1  0  0  0  0
 24 25  1  0  0  0  0
 24 10  1  0  0  0  0
 27 26  1  0  0  0  0
 28 27  1  0  0  0  0
 29 28  1  0  0  0  0
 30 29  1  0  0  0  0
 31 33  1  0  0  0  0
 32 35  1  0  0  0  0
 33 30  1  0  0  0  0
 34 32  1  0  0  0  0
 34 31  2  0  0  0  0
 35 36  2  0  0  0  0
 35 33  1  0  0  0  0
M  END
>  <MODEL>
8

>  <REMARK>
 VINA RESULT:      -6.1      2.443      4.172
  Name = 
  9 active torsions:
  status: ('A' for Active; 'I' for Inactive)
    1  A    between atoms: O_3  and  N_33
    2  A    between atoms: C_6  and  N_13
    3  A    between atoms: C_6  and  C_34
    4  A    between atoms: C_9  and  C_32
    5  A    between atoms: C_10  and  C_19
    6  A    between atoms: C_17  and  N_20
    7  A    between atoms: C_21  and  N_28
    8  A    between atoms: C_21  and  C_34
    9  A    between atoms: N_28  and  C_32
                            x       y       z     vdW  Elec       q    Type
                         _______ _______ _______ _____ _____    ______ ____

>  <TORSDO>
F 9

$$$$
=
 OpenBabel11042417583D

 36 40  0  0  0  0  0  0  0  0999 V2000
  194.7210  174.2490  143.9150 C   0  0  0  0  0  2  0  0  0  0  0  0
  191.4160  174.2920  145.3220 C   0  0  0  0  0  0  0  0  0  0  0  0
  191.9640  175.5520  145.5200 C   0  0  0  0  0  0  0  0  0  0  0  0
  194.9340  175.7490  143.8780 C   0  0  0  0  0  0  0  0  0  0  0  0
  194.0900  176.4120  144.6070 N   0  0  0  0  0  0  0  0  0  0  0  0
  192.4460  173.4460  144.9090 C   0  0  0  0  0  0  0  0  0  0  0  0
  190.0600  173.9890  145.3660 O   0  0  0  0  0  1  0  0  0  0  0  0
  193.5710  174.2440  144.8580 C   0  0  0  0  0  0  0  0  0  0  0  0
  193.2780  175.4770  145.2400 N   0  0  0  0  0  0  0  0  0  0  0  0
  195.9250  176.4000  143.0840 N   0  0  0  0  0  2  0  0  0  0  0  0
  191.7440  170.7120  142.2470 C   0  0  0  0  0  0  0  0  0  0  0  0
  190.5310  172.1290  141.1950 C   0  0  0  0  0  0  0  0  0  0  0  0
  190.9300  170.8960  141.1000 N   0  0  0  0  0  0  0  0  0  0  0  0
  192.3170  172.1710  144.2690 N   0  0  0  0  0  2  0  0  0  0  0  0
  192.1240  169.5480  142.6960 C   0  0  0  0  0  0  0  0  0  0  0  0
  192.4870  168.4440  143.1240 O   0  0  0  0  0  0  0  0  0  0  0  0
  190.9900  172.8170  142.3670 N   0  0  0  0  0  0  0  0  0  0  0  0
  191.7230  171.9540  142.9850 C   0  0  0  0  0  0  0  0  0  0  0  0
  188.3270  174.1560  139.2990 N   0  0  0  0  0  0  0  0  0  0  0  0
  189.0130  173.9170  140.4020 N   0  0  0  0  0  0  0  0  0  0  0  0
  188.5620  173.1370  138.4490 C   0  0  0  0  0  3  0  0  0  0  0  0
  189.6540  172.7540  140.2030 C   0  0  0  0  0  0  0  0  0  0  0  0
  189.4000  172.2290  138.9900 N   0  0  0  0  0  2  0  0  0  0  0  0
  196.7880  175.6920  142.3170 O   0  0  0  0  0  0  0  0  0  0  0  0
  196.4920  176.0640  141.0040 C   0  0  0  0  0  1  0  0  0  0  0  0
  191.1920  176.8240  145.6210 C   0  0  0  0  0  2  0  0  0  0  0  0
  190.8190  177.2810  144.2950 N   0  0  0  0  0  2  0  0  0  0  0  0
  189.5140  177.9060  144.4190 C   0  0  0  0  0  2  0  0  0  0  0  0
  188.7910  177.3660  145.6430 C   0  0  0  0  0  2  0  0  0  0  0  0
  187.4770  176.6970  145.2610 C   0  0  0  0  0  2  0  0  0  0  0  0
  185.5710  177.2350  146.8840 C   0  0  0  0  0  3  0  0  0  0  0  0
  184.4990  179.0410  145.5660 C   0  0  0  0  0  2  0  0  0  0  0  0
  186.3420  177.5020  145.6890 N   0  0  0  0  0  0  0  0  0  0  0  0
  184.4280  178.2600  146.8840 C   0  0  0  0  0  3  0  0  0  0  0  0
  185.7130  178.5060  144.9240 C   0  0  0  0  0  0  0  0  0  0  0  0
  186.1380  178.8880  143.8020 O   0  0  0  0  0  0  0  0  0  0  0  0
  1  8  1  0  0  0  0
  2  7  1  0  0  0  0
  2  3  2  0  0  0  0
  3 26  1  0  0  0  0
  4  1  1  0  0  0  0
  4  5  2  0  0  0  0
  5  9  1  0  0  0  0
  6  2  1  0  0  0  0
  8  6  2  0  0  0  0
  8  9  1  0  0  0  0
  9  3  1  0  0  0  0
 10  4  1  0  0  0  0
 11 15  2  0  0  0  0
 11 18  1  0  0  0  0
 12 17  1  0  0  0  0
 13 12  2  0  0  0  0
 13 11  1  0  0  0  0
 14  6  1  0  0  0  0
 15 16  2  0  0  0  0
 17 18  2  0  0  0  0
 18 14  1  0  0  0  0
 19 20  1  0  0  0  0
 21 23  1  0  0  0  0
 21 19  2  0  0  0  0
 22 20  2  0  0  0  0
 22 12  1  0  0  0  0
 23 22  1  0  0  0  0
 24 10  1  0  0  0  0
 25 24  1  0  0  0  0
 27 28  1  0  0  0  0
 27 26  1  0  0  0  0
 28 29  1  0  0  0  0
 30 29  1  0  0  0  0
 30 33  1  0  0  0  0
 31 34  2  0  0  0  0
 32 34  1  0  0  0  0
 33 31  1  0  0  0  0
 35 32  1  0  0  0  0
 35 33  1  0  0  0  0
 36 35  2  0  0  0  0
M  END
>  <MODEL>
9

>  <REMARK>
 VINA RESULT:      -6.1      2.601      6.505
  Name = 
  9 active torsions:
  status: ('A' for Active; 'I' for Inactive)
    1  A    between atoms: O_3  and  N_33
    2  A    between atoms: C_6  and  N_13
    3  A    between atoms: C_6  and  C_34
    4  A    between atoms: C_9  and  C_32
    5  A    between atoms: C_10  and  C_19
    6  A    between atoms: C_17  and  N_20
    7  A    between atoms: C_21  and  N_28
    8  A    between atoms: C_21  and  C_34
    9  A    between atoms: N_28  and  C_32
                            x       y       z     vdW  Elec       q    Type
                         _______ _______ _______ _____ _____    ______ ____

>  <TORSDO>
F 9

$$$$
