=
 OpenBabel11042419013D

 41 46  0  0  1  0  0  0  0  0999 V2000
  193.7280  173.9190  143.4160 O   0  0  0  0  0  0  0  0  0  0  0  0
  195.2230  176.6020  145.4210 N   0  0  0  0  0  0  0  0  0  0  0  0
  190.1150  178.2290  143.9850 C   0  0  0  0  0  3  0  0  0  0  0  0
  192.6280  173.2230  141.2640 C   0  0  1  0  0  3  0  0  0  0  0  0
  191.0070  173.1980  144.0310 C   0  0  0  0  0  2  0  0  0  0  0  0
  191.2900  173.9100  141.5730 C   0  0  1  0  0  3  0  0  0  0  0  0
  193.0370  173.5270  139.9000 N   0  0  0  0  0  0  0  0  0  0  0  0
  195.2590  175.3300  144.8040 C   0  0  0  0  0  0  0  0  0  0  0  0
  194.5510  174.5090  141.2770 N   0  0  0  0  0  0  0  0  0  0  0  0
  190.0610  173.1910  141.0070 C   0  0  2  0  0  3  0  0  0  0  0  0
  189.1780  177.3790  143.4090 C   0  0  0  0  0  0  0  0  0  0  0  0
  191.4020  177.7710  144.2470 C   0  0  0  0  0  3  0  0  0  0  0  0
  193.6970  173.9000  142.0280 C   0  0  0  0  0  0  0  0  0  0  0  0
  194.1130  174.2470  139.9490 C   0  0  0  0  0  3  0  0  0  0  0  0
  191.1190  174.2310  143.0000 N   0  0  0  0  0  0  0  0  0  0  0  0
  191.8080  176.4570  143.9480 C   0  0  0  0  0  0  0  0  0  0  0  0
  196.2430  174.5490  144.8540 O   0  0  0  0  0  0  0  0  0  0  0  0
  190.3060  171.2310  142.6920 C   0  0  0  0  0  2  0  0  0  0  0  0
  190.8390  175.5860  143.3530 C   0  0  0  0  0  0  0  0  0  0  0  0
  189.5380  176.0650  143.0950 C   0  0  0  0  0  0  0  0  0  0  0  0
  188.6040  175.2380  142.5630 F   0  0  0  0  0  0  0  0  0  0  0  0
  193.2240  176.1370  144.3460 C   0  0  0  0  0  0  0  0  0  0  0  0
  194.0440  177.0740  145.1570 C   0  0  0  0  0  3  0  0  0  0  0  0
  194.0100  175.0750  144.1280 C   0  0  0  0  0  0  0  0  0  0  0  0
  189.8630  172.2360  143.7420 C   0  0  0  0  0  2  0  0  0  0  0  0
  190.0270  171.6740  141.2520 C   0  0  0  0  0  2  0  0  0  0  0  0
  187.8460  177.8340  143.1520 N   0  0  0  0  0  2  0  0  0  0  0  0
  187.0190  178.2260  144.1510 O   0  0  0  0  0  0  0  0  0  0  0  0
  186.6560  177.0500  144.8130 C   0  0  0  0  0  2  0  0  0  0  0  0
  186.8840  177.1930  146.3140 C   0  0  0  0  0  2  0  0  0  0  0  0
  190.7490  175.7350  147.4840 C   0  0  0  0  0  3  0  0  0  0  0  0
  188.5340  175.3360  146.5860 C   0  0  0  0  0  3  0  0  0  0  0  0
  189.1990  177.5780  147.2200 C   0  0  0  0  0  3  0  0  0  0  0  0
  188.2360  176.6970  146.7100 C   0  0  0  0  0  0  0  0  0  0  0  0
  189.7910  174.8550  146.9700 C   0  0  0  0  0  3  0  0  0  0  0  0
  190.4540  177.0970  147.6080 C   0  0  0  0  0  3  0  0  0  0  0  0
  189.9220  173.4710  139.5880 N   0  0  0  0  0  2  0  0  0  0  0  0
  188.6230  174.0970  139.4050 C   0  0  0  0  0  2  0  0  0  0  0  0
  188.8300  173.2040  137.0850 O   0  0  0  0  0  0  0  0  0  0  0  0
  187.5080  175.0250  137.5190 O   0  0  0  0  0  1  0  0  0  0  0  0
  188.2880  174.1410  137.9550 C   0  0  0  0  0  0  0  0  0  0  0  0
  1 24  1  0  0  0  0
  3 12  1  0  0  0  0
  4  7  1  6  0  0  0
  4  6  1  0  0  0  0
  4 13  1  0  0  0  0
  6 15  1  1  0  0  0
  7 14  2  0  0  0  0
  8 17  2  0  0  0  0
  8  2  1  0  0  0  0
  9 13  2  0  0  0  0
 10 37  1  6  0  0  0
 10 26  1  0  0  0  0
 10  6  1  0  0  0  0
 11  3  2  0  0  0  0
 13  1  1  0  0  0  0
 14  9  1  0  0  0  0
 15 19  1  0  0  0  0
 15  5  1  0  0  0  0
 16 12  2  0  0  0  0
 16 22  1  0  0  0  0
 18 25  1  0  0  0  0
 19 16  1  0  0  0  0
 20 19  2  0  0  0  0
 20 11  1  0  0  0  0
 21 20  1  0  0  0  0
 22 23  1  0  0  0  0
 23  2  2  0  0  0  0
 24 22  2  0  0  0  0
 24  8  1  0  0  0  0
 25  5  1  0  0  0  0
 26 18  1  0  0  0  0
 27 11  1  0  0  0  0
 27 28  1  0  0  0  0
 28 29  1  0  0  0  0
 29 30  1  0  0  0  0
 30 34  1  0  0  0  0
 31 36  1  0  0  0  0
 32 34  2  0  0  0  0
 32 35  1  0  0  0  0
 33 36  2  0  0  0  0
 34 33  1  0  0  0  0
 35 31  2  0  0  0  0
 38 37  1  0  0  0  0
 39 41  2  0  0  0  0
 40 41  1  0  0  0  0
 41 38  1  0  0  0  0
M  END
>  <MODEL>
1

>  <REMARK>
 VINA RESULT:      -7.5      0.000      0.000
  Name = 
  8 active torsions:
  status: ('A' for Active; 'I' for Inactive)
    1  A    between atoms: N_3  and  O_14
    2  A    between atoms: N_3  and  C_21
    3  A    between atoms: N_9  and  C_20
    4  A    between atoms: N_9  and  C_29
    5  A    between atoms: O_14  and  C_41
    6  A    between atoms: C_17  and  C_27
    7  A    between atoms: C_24  and  C_29
    8  A    between atoms: C_27  and  C_41
                            x       y       z     vdW  Elec       q    Type
                         _______ _______ _______ _____ _____    ______ ____

>  <TORSDO>
F 8

$$$$
=
 OpenBabel11042419013D

 41 46  0  0  1  0  0  0  0  0999 V2000
  193.2770  173.8970  143.5280 O   0  0  0  0  0  0  0  0  0  0  0  0
  194.0640  176.8290  145.5870 N   0  0  0  0  0  0  0  0  0  0  0  0
  189.3800  177.9300  142.8220 C   0  0  0  0  0  3  0  0  0  0  0  0
  192.7880  172.9620  141.2450 C   0  0  1  0  0  3  0  0  0  0  0  0
  190.5380  173.0040  143.5300 C   0  0  0  0  0  2  0  0  0  0  0  0
  191.3750  173.5590  141.1600 C   0  0  1  0  0  3  0  0  0  0  0  0
  193.5020  173.2000  139.9990 N   0  0  0  0  0  0  0  0  0  0  0  0
  194.3280  175.5240  145.1140 C   0  0  0  0  0  0  0  0  0  0  0  0
  194.5650  174.3980  141.6070 N   0  0  0  0  0  0  0  0  0  0  0  0
  190.3700  172.7040  140.3800 C   0  0  2  0  0  3  0  0  0  0  0  0
  188.6680  176.9680  142.1140 C   0  0  0  0  0  0  0  0  0  0  0  0
  190.5870  177.5970  143.4260 C   0  0  0  0  0  3  0  0  0  0  0  0
  193.5910  173.7770  142.1810 C   0  0  0  0  0  0  0  0  0  0  0  0
  194.4870  174.0060  140.2420 C   0  0  0  0  0  3  0  0  0  0  0  0
  190.8380  173.9660  142.4690 N   0  0  0  0  0  0  0  0  0  0  0  0
  191.1330  176.3030  143.3520 C   0  0  0  0  0  0  0  0  0  0  0  0
  195.3150  174.8310  145.4690 O   0  0  0  0  0  0  0  0  0  0  0  0
  190.3110  170.8960  142.2430 C   0  0  0  0  0  2  0  0  0  0  0  0
  190.3960  175.3160  142.6220 C   0  0  0  0  0  0  0  0  0  0  0  0
  189.1730  175.6680  142.0150 C   0  0  0  0  0  0  0  0  0  0  0  0
  188.4520  174.7320  141.3490 F   0  0  0  0  0  0  0  0  0  0  0  0
  192.4240  176.1280  144.1070 C   0  0  0  0  0  0  0  0  0  0  0  0
  192.9590  177.1830  145.0050 C   0  0  0  0  0  3  0  0  0  0  0  0
  193.3030  175.1200  144.1810 C   0  0  0  0  0  0  0  0  0  0  0  0
  189.5610  171.9340  143.0600 C   0  0  0  0  0  2  0  0  0  0  0  0
  190.3700  171.2110  140.7440 C   0  0  0  0  0  2  0  0  0  0  0  0
  187.4150  177.2930  141.5040 N   0  0  0  0  0  2  0  0  0  0  0  0
  186.8140  178.4910  141.6990 O   0  0  0  0  0  0  0  0  0  0  0  0
  185.7840  178.2440  142.6110 C   0  0  0  0  0  2  0  0  0  0  0  0
  185.8370  179.2470  143.7580 C   0  0  0  0  0  2  0  0  0  0  0  0
  185.9950  177.2270  147.5440 C   0  0  0  0  0  3  0  0  0  0  0  0
  186.7020  177.4260  145.2340 C   0  0  0  0  0  3  0  0  0  0  0  0
  185.1420  179.0270  146.1660 C   0  0  0  0  0  3  0  0  0  0  0  0
  185.8960  178.5590  145.0820 C   0  0  0  0  0  0  0  0  0  0  0  0
  186.7530  176.7610  146.4650 C   0  0  0  0  0  3  0  0  0  0  0  0
  185.1900  178.3610  147.3950 C   0  0  0  0  0  3  0  0  0  0  0  0
  190.5700  172.8690  138.9510 N   0  0  0  0  0  2  0  0  0  0  0  0
  189.2810  172.6510  138.3150 C   0  0  0  0  0  2  0  0  0  0  0  0
  187.8270  174.6780  138.3000 O   0  0  0  0  0  1  0  0  0  0  0  0
  189.3150  174.2970  136.5980 O   0  0  0  0  0  0  0  0  0  0  0  0
  188.8130  173.9160  137.6860 C   0  0  0  0  0  0  0  0  0  0  0  0
  1 24  1  0  0  0  0
  3 12  1  0  0  0  0
  4  7  1  6  0  0  0
  4 13  1  0  0  0  0
  6  4  1  0  0  0  0
  6 15  1  1  0  0  0
  7 14  2  0  0  0  0
  8 17  2  0  0  0  0
  8  2  1  0  0  0  0
  9 13  2  0  0  0  0
 10 37  1  6  0  0  0
 10 26  1  0  0  0  0
 10  6  1  0  0  0  0
 11  3  2  0  0  0  0
 13  1  1  0  0  0  0
 14  9  1  0  0  0  0
 15 19  1  0  0  0  0
 15  5  1  0  0  0  0
 16 12  2  0  0  0  0
 16 22  1  0  0  0  0
 18 25  1  0  0  0  0
 19 16  1  0  0  0  0
 20 11  1  0  0  0  0
 20 19  2  0  0  0  0
 21 20  1  0  0  0  0
 22 24  2  0  0  0  0
 22 23  1  0  0  0  0
 23  2  2  0  0  0  0
 24  8  1  0  0  0  0
 25  5  1  0  0  0  0
 26 18  1  0  0  0  0
 27 28  1  0  0  0  0
 27 11  1  0  0  0  0
 28 29  1  0  0  0  0
 29 30  1  0  0  0  0
 30 34  1  0  0  0  0
 32 35  1  0  0  0  0
 33 36  2  0  0  0  0
 34 32  2  0  0  0  0
 34 33  1  0  0  0  0
 35 31  2  0  0  0  0
 36 31  1  0  0  0  0
 38 37  1  0  0  0  0
 40 41  2  0  0  0  0
 41 39  1  0  0  0  0
 41 38  1  0  0  0  0
M  END
>  <MODEL>
2

>  <REMARK>
 VINA RESULT:      -7.1      1.474      2.048
  Name = 
  8 active torsions:
  status: ('A' for Active; 'I' for Inactive)
    1  A    between atoms: N_3  and  O_14
    2  A    between atoms: N_3  and  C_21
    3  A    between atoms: N_9  and  C_20
    4  A    between atoms: N_9  and  C_29
    5  A    between atoms: O_14  and  C_41
    6  A    between atoms: C_17  and  C_27
    7  A    between atoms: C_24  and  C_29
    8  A    between atoms: C_27  and  C_41
                            x       y       z     vdW  Elec       q    Type
                         _______ _______ _______ _____ _____    ______ ____

>  <TORSDO>
F 8

$$$$
=
 OpenBabel11042419013D

 41 46  0  0  1  0  0  0  0  0999 V2000
  194.8330  172.7870  142.9710 O   0  0  0  0  0  0  0  0  0  0  0  0
  197.3370  173.9080  145.4050 N   0  0  0  0  0  0  0  0  0  0  0  0
  192.4180  175.9060  147.0190 C   0  0  0  0  0  3  0  0  0  0  0  0
  193.0100  173.3970  141.3500 C   0  0  1  0  0  3  0  0  0  0  0  0
  192.3580  171.7620  144.0310 C   0  0  0  0  0  2  0  0  0  0  0  0
  191.9820  173.7480  142.4360 C   0  0  1  0  0  3  0  0  0  0  0  0
  193.0200  174.4320  140.3260 N   0  0  0  0  0  0  0  0  0  0  0  0
  196.9490  173.2110  144.2380 C   0  0  0  0  0  0  0  0  0  0  0  0
  195.0380  174.5090  141.3600 N   0  0  0  0  0  0  0  0  0  0  0  0
  190.5290  173.4380  142.0600 C   0  0  2  0  0  3  0  0  0  0  0  0
  191.2100  175.5030  146.4590 C   0  0  0  0  0  0  0  0  0  0  0  0
  193.6170  175.4190  146.5100 C   0  0  0  0  0  3  0  0  0  0  0  0
  194.3670  173.5560  141.9130 C   0  0  0  0  0  0  0  0  0  0  0  0
  194.1680  175.0300  140.3630 C   0  0  0  0  0  3  0  0  0  0  0  0
  192.3260  173.1990  143.7580 N   0  0  0  0  0  0  0  0  0  0  0  0
  193.6650  174.5180  145.4310 C   0  0  0  0  0  0  0  0  0  0  0  0
  197.7420  172.5690  143.5030 O   0  0  0  0  0  0  0  0  0  0  0  0
  190.9310  170.8770  142.2040 C   0  0  0  0  0  2  0  0  0  0  0  0
  192.4190  174.1070  144.8570 C   0  0  0  0  0  0  0  0  0  0  0  0
  191.2110  174.6090  145.3850 C   0  0  0  0  0  0  0  0  0  0  0  0
  190.0250  174.2000  144.8700 F   0  0  0  0  0  0  0  0  0  0  0  0
  195.0530  174.0730  145.0530 C   0  0  0  0  0  0  0  0  0  0  0  0
  196.2400  174.4110  145.8810 C   0  0  0  0  0  3  0  0  0  0  0  0
  195.5260  173.3450  144.0340 C   0  0  0  0  0  0  0  0  0  0  0  0
  191.0270  171.0980  143.7050 C   0  0  0  0  0  2  0  0  0  0  0  0
  190.3010  172.0490  141.4430 C   0  0  0  0  0  2  0  0  0  0  0  0
  189.9700  175.9820  146.9870 N   0  0  0  0  0  2  0  0  0  0  0  0
  189.6130  177.2860  146.9070 O   0  0  0  0  0  0  0  0  0  0  0  0
  189.0200  177.4300  145.6490 C   0  0  0  0  0  2  0  0  0  0  0  0
  187.7760  176.5540  145.5450 C   0  0  0  0  0  2  0  0  0  0  0  0
  184.2130  178.9470  145.6700 C   0  0  0  0  0  3  0  0  0  0  0  0
  186.4100  178.4920  144.7550 C   0  0  0  0  0  3  0  0  0  0  0  0
  185.4820  177.0400  146.4580 C   0  0  0  0  0  3  0  0  0  0  0  0
  186.5280  177.3720  145.5860 C   0  0  0  0  0  0  0  0  0  0  0  0
  185.2520  179.2780  144.7950 C   0  0  0  0  0  3  0  0  0  0  0  0
  184.3270  177.8280  146.5010 C   0  0  0  0  0  3  0  0  0  0  0  0
  190.0070  174.4670  141.1770 N   0  0  0  0  0  2  0  0  0  0  0  0
  188.5670  174.5050  141.3770 C   0  0  0  0  0  2  0  0  0  0  0  0
  186.8290  176.1390  142.1070 O   0  0  0  0  0  0  0  0  0  0  0  0
  189.0530  176.6910  142.1820 O   0  0  0  0  0  1  0  0  0  0  0  0
  188.1700  175.8380  141.9080 C   0  0  0  0  0  0  0  0  0  0  0  0
  1 24  1  0  0  0  0
  2 23  2  0  0  0  0
  4  7  1  6  0  0  0
  4 13  1  0  0  0  0
  4  6  1  0  0  0  0
  6 15  1  1  0  0  0
  7 14  2  0  0  0  0
  8  2  1  0  0  0  0
  9 13  2  0  0  0  0
 10 37  1  6  0  0  0
 10  6  1  0  0  0  0
 11 27  1  0  0  0  0
 11  3  2  0  0  0  0
 12  3  1  0  0  0  0
 13  1  1  0  0  0  0
 14  9  1  0  0  0  0
 15  5  1  0  0  0  0
 15 19  1  0  0  0  0
 16 12  2  0  0  0  0
 17  8  2  0  0  0  0
 18 25  1  0  0  0  0
 19 20  2  0  0  0  0
 19 16  1  0  0  0  0
 20 11  1  0  0  0  0
 21 20  1  0  0  0  0
 22 16  1  0  0  0  0
 22 23  1  0  0  0  0
 24  8  1  0  0  0  0
 24 22  2  0  0  0  0
 25  5  1  0  0  0  0
 26 10  1  0  0  0  0
 26 18  1  0  0  0  0
 28 27  1  0  0  0  0
 29 28  1  0  0  0  0
 30 34  1  0  0  0  0
 30 29  1  0  0  0  0
 31 36  1  0  0  0  0
 32 35  1  0  0  0  0
 32 34  2  0  0  0  0
 33 36  2  0  0  0  0
 34 33  1  0  0  0  0
 35 31  2  0  0  0  0
 37 38  1  0  0  0  0
 38 41  1  0  0  0  0
 41 39  2  0  0  0  0
 41 40  1  0  0  0  0
M  END
>  <MODEL>
3

>  <REMARK>
 VINA RESULT:      -7.1      2.297      3.400
  Name = 
  8 active torsions:
  status: ('A' for Active; 'I' for Inactive)
    1  A    between atoms: N_3  and  O_14
    2  A    between atoms: N_3  and  C_21
    3  A    between atoms: N_9  and  C_20
    4  A    between atoms: N_9  and  C_29
    5  A    between atoms: O_14  and  C_41
    6  A    between atoms: C_17  and  C_27
    7  A    between atoms: C_24  and  C_29
    8  A    between atoms: C_27  and  C_41
                            x       y       z     vdW  Elec       q    Type
                         _______ _______ _______ _____ _____    ______ ____

>  <TORSDO>
F 8

$$$$
=
 OpenBabel11042419013D

 41 46  0  0  1  0  0  0  0  0999 V2000
  191.3710  174.3300  145.4520 O   0  0  0  0  0  0  0  0  0  0  0  0
  190.4470  177.0310  147.7560 N   0  0  0  0  0  0  0  0  0  0  0  0
  188.1510  178.1670  142.8320 C   0  0  0  0  0  3  0  0  0  0  0  0
  192.4190  173.6530  143.2680 C   0  0  1  0  0  3  0  0  0  0  0  0
  189.2760  173.2730  143.7800 C   0  0  0  0  0  2  0  0  0  0  0  0
  191.2590  174.1660  142.4020 C   0  0  1  0  0  3  0  0  0  0  0  0
  193.6890  174.0860  142.7030 N   0  0  0  0  0  0  0  0  0  0  0  0
  191.0950  175.8120  147.4490 C   0  0  0  0  0  0  0  0  0  0  0  0
  193.4630  175.1420  144.6990 N   0  0  0  0  0  0  0  0  0  0  0  0
  191.0090  173.3520  141.1280 C   0  0  2  0  0  3  0  0  0  0  0  0
  188.1080  177.2560  141.7830 C   0  0  0  0  0  0  0  0  0  0  0  0
  188.8120  177.8390  144.0110 C   0  0  0  0  0  3  0  0  0  0  0  0
  192.4220  174.3950  144.5470 C   0  0  0  0  0  0  0  0  0  0  0  0
  194.2410  174.9170  143.5300 C   0  0  0  0  0  3  0  0  0  0  0  0
  190.0170  174.3750  143.1630 N   0  0  0  0  0  0  0  0  0  0  0  0
  189.4530  176.6000  144.1940 C   0  0  0  0  0  0  0  0  0  0  0  0
  191.7680  175.1440  148.2760 O   0  0  0  0  0  0  0  0  0  0  0  0
  190.1010  171.3290  142.4790 C   0  0  0  0  0  2  0  0  0  0  0  0
  189.4070  175.6660  143.1090 C   0  0  0  0  0  0  0  0  0  0  0  0
  188.7310  176.0130  141.9210 C   0  0  0  0  0  0  0  0  0  0  0  0
  188.6540  175.1210  140.9010 F   0  0  0  0  0  0  0  0  0  0  0  0
  190.0750  176.4150  145.5530 C   0  0  0  0  0  0  0  0  0  0  0  0
  189.8540  177.3840  146.6570 C   0  0  0  0  0  3  0  0  0  0  0  0
  190.8620  175.4620  146.0680 C   0  0  0  0  0  0  0  0  0  0  0  0
  188.8950  172.2100  142.7580 C   0  0  0  0  0  2  0  0  0  0  0  0
  190.9810  171.8280  141.3280 C   0  0  0  0  0  2  0  0  0  0  0  0
  187.4150  177.5750  140.5720 N   0  0  0  0  0  2  0  0  0  0  0  0
  186.0700  177.4560  140.4650 O   0  0  0  0  0  0  0  0  0  0  0  0
  185.5440  178.4480  141.2990 C   0  0  0  0  0  2  0  0  0  0  0  0
  184.4780  177.8600  142.2170 C   0  0  0  0  0  2  0  0  0  0  0  0
  185.6840  178.1400  146.3290 C   0  0  0  0  0  3  0  0  0  0  0  0
  184.8340  179.1770  144.3110 C   0  0  0  0  0  3  0  0  0  0  0  0
  185.3360  176.8080  144.3360 C   0  0  0  0  0  3  0  0  0  0  0  0
  184.8860  177.9450  143.6510 C   0  0  0  0  0  0  0  0  0  0  0  0
  185.2310  179.2750  145.6490 C   0  0  0  0  0  3  0  0  0  0  0  0
  185.7360  176.9050  145.6730 C   0  0  0  0  0  3  0  0  0  0  0  0
  191.9800  173.7030  140.1070 N   0  0  0  0  0  2  0  0  0  0  0  0
  191.5290  173.0940  138.8670 C   0  0  0  0  0  2  0  0  0  0  0  0
  193.2910  174.3020  137.5780 O   0  0  0  0  0  1  0  0  0  0  0  0
  191.1160  174.2940  136.8540 O   0  0  0  0  0  0  0  0  0  0  0  0
  191.9600  173.9290  137.7120 C   0  0  0  0  0  0  0  0  0  0  0  0
  1 24  1  0  0  0  0
  3 12  1  0  0  0  0
  4  7  1  6  0  0  0
  4 13  1  0  0  0  0
  6 15  1  1  0  0  0
  6  4  1  0  0  0  0
  7 14  2  0  0  0  0
  8  2  1  0  0  0  0
  8 17  2  0  0  0  0
 10 37  1  6  0  0  0
 10 26  1  0  0  0  0
 10  6  1  0  0  0  0
 11 20  1  0  0  0  0
 11  3  2  0  0  0  0
 12 16  2  0  0  0  0
 13  9  2  0  0  0  0
 13  1  1  0  0  0  0
 14  9  1  0  0  0  0
 15  5  1  0  0  0  0
 16 22  1  0  0  0  0
 18 25  1  0  0  0  0
 19 15  1  0  0  0  0
 19 16  1  0  0  0  0
 20 19  2  0  0  0  0
 21 20  1  0  0  0  0
 22 24  2  0  0  0  0
 22 23  1  0  0  0  0
 23  2  2  0  0  0  0
 24  8  1  0  0  0  0
 25  5  1  0  0  0  0
 26 18  1  0  0  0  0
 27 11  1  0  0  0  0
 28 27  1  0  0  0  0
 28 29  1  0  0  0  0
 29 30  1  0  0  0  0
 30 34  1  0  0  0  0
 32 35  1  0  0  0  0
 33 36  2  0  0  0  0
 34 32  2  0  0  0  0
 34 33  1  0  0  0  0
 35 31  2  0  0  0  0
 36 31  1  0  0  0  0
 38 37  1  0  0  0  0
 39 41  1  0  0  0  0
 40 41  2  0  0  0  0
 41 38  1  0  0  0  0
M  END
>  <MODEL>
4

>  <REMARK>
 VINA RESULT:      -7.0      2.377      3.593
  Name = 
  8 active torsions:
  status: ('A' for Active; 'I' for Inactive)
    1  A    between atoms: N_3  and  O_14
    2  A    between atoms: N_3  and  C_21
    3  A    between atoms: N_9  and  C_20
    4  A    between atoms: N_9  and  C_29
    5  A    between atoms: O_14  and  C_41
    6  A    between atoms: C_17  and  C_27
    7  A    between atoms: C_24  and  C_29
    8  A    between atoms: C_27  and  C_41
                            x       y       z     vdW  Elec       q    Type
                         _______ _______ _______ _____ _____    ______ ____

>  <TORSDO>
F 8

$$$$
=
 OpenBabel11042419013D

 41 46  0  0  1  0  0  0  0  0999 V2000
  192.2700  172.2740  140.7860 O   0  0  0  0  0  0  0  0  0  0  0  0
  188.9230  172.0380  139.3040 N   0  0  0  0  0  0  0  0  0  0  0  0
  188.8620  176.2420  142.9270 C   0  0  0  0  0  3  0  0  0  0  0  0
  193.6870  172.3060  142.8640 C   0  0  1  0  0  3  0  0  0  0  0  0
  193.4090  174.9110  141.0140 C   0  0  0  0  0  2  0  0  0  0  0  0
  193.2600  173.7180  143.2910 C   0  0  1  0  0  3  0  0  0  0  0  0
  193.6350  171.4060  144.0070 N   0  0  0  0  0  0  0  0  0  0  0  0
  190.2650  171.6150  139.4420 C   0  0  0  0  0  0  0  0  0  0  0  0
  192.0410  170.7110  142.5480 N   0  0  0  0  0  0  0  0  0  0  0  0
  194.3480  174.5190  144.0150 C   0  0  2  0  0  3  0  0  0  0  0  0
  190.0110  176.7600  143.5140 C   0  0  0  0  0  0  0  0  0  0  0  0
  188.9470  175.1360  142.0870 C   0  0  0  0  0  3  0  0  0  0  0  0
  192.6270  171.7270  142.0110 C   0  0  0  0  0  0  0  0  0  0  0  0
  192.7040  170.5300  143.7940 C   0  0  0  0  0  3  0  0  0  0  0  0
  192.6540  174.4960  142.1970 N   0  0  0  0  0  0  0  0  0  0  0  0
  190.1700  174.5050  141.7990 C   0  0  0  0  0  0  0  0  0  0  0  0
  190.7720  170.6610  138.7990 O   0  0  0  0  0  0  0  0  0  0  0  0
  195.7440  174.7800  141.8410 C   0  0  0  0  0  2  0  0  0  0  0  0
  191.3510  175.0420  142.4060 C   0  0  0  0  0  0  0  0  0  0  0  0
  191.2480  176.1640  143.2540 C   0  0  0  0  0  0  0  0  0  0  0  0
  192.3650  176.6990  143.8080 F   0  0  0  0  0  0  0  0  0  0  0  0
  190.0630  173.3530  140.8340 C   0  0  0  0  0  0  0  0  0  0  0  0
  188.8020  173.0470  140.1110 C   0  0  0  0  0  3  0  0  0  0  0  0
  190.9450  172.4380  140.4130 C   0  0  0  0  0  0  0  0  0  0  0  0
  194.6410  175.7230  141.3890 C   0  0  0  0  0  2  0  0  0  0  0  0
  195.7310  174.4860  143.3450 C   0  0  0  0  0  2  0  0  0  0  0  0
  189.9380  177.9080  144.3640 N   0  0  0  0  0  2  0  0  0  0  0  0
  188.9810  178.0360  145.3140 O   0  0  0  0  0  0  0  0  0  0  0  0
  189.3530  177.1570  146.3350 C   0  0  0  0  0  2  0  0  0  0  0  0
  188.1790  176.2640  146.7210 C   0  0  0  0  0  2  0  0  0  0  0  0
  184.4690  178.4120  146.4740 C   0  0  0  0  0  3  0  0  0  0  0  0
  186.0270  176.7930  145.5660 C   0  0  0  0  0  3  0  0  0  0  0  0
  186.5300  177.9220  147.6500 C   0  0  0  0  0  3  0  0  0  0  0  0
  186.8840  177.0050  146.6510 C   0  0  0  0  0  0  0  0  0  0  0  0
  184.8190  177.4940  145.4790 C   0  0  0  0  0  3  0  0  0  0  0  0
  185.3240  178.6260  147.5600 C   0  0  0  0  0  3  0  0  0  0  0  0
  194.4540  174.0890  145.3980 N   0  0  0  0  0  2  0  0  0  0  0  0
  195.1550  175.1400  146.1160 C   0  0  0  0  0  2  0  0  0  0  0  0
  192.8990  175.8690  146.8910 O   0  0  0  0  0  1  0  0  0  0  0  0
  194.5540  177.4090  146.5110 O   0  0  0  0  0  0  0  0  0  0  0  0
  194.1930  176.2040  146.5130 C   0  0  0  0  0  0  0  0  0  0  0  0
  1 13  1  0  0  0  0
  2  8  1  0  0  0  0
  2 23  2  0  0  0  0
  3 11  1  0  0  0  0
  4 13  1  6  0  0  0
  4  6  1  0  0  0  0
  4  7  1  0  0  0  0
  5 25  1  0  0  0  0
  5 15  1  0  0  0  0
  6 15  1  6  0  0  0
  6 10  1  0  0  0  0
  8 24  1  0  0  0  0
  9 14  1  0  0  0  0
 10 37  1  1  0  0  0
 11 27  1  0  0  0  0
 12  3  2  0  0  0  0
 13  9  2  0  0  0  0
 14  7  2  0  0  0  0
 15 19  1  0  0  0  0
 16 12  1  0  0  0  0
 16 19  2  0  0  0  0
 17  8  2  0  0  0  0
 18 26  1  0  0  0  0
 19 20  1  0  0  0  0
 20 11  2  0  0  0  0
 20 21  1  0  0  0  0
 22 16  1  0  0  0  0
 23 22  1  0  0  0  0
 24  1  1  0  0  0  0
 24 22  2  0  0  0  0
 25 18  1  0  0  0  0
 26 10  1  0  0  0  0
 27 28  1  0  0  0  0
 28 29  1  0  0  0  0
 29 30  1  0  0  0  0
 31 36  1  0  0  0  0
 32 34  2  0  0  0  0
 34 30  1  0  0  0  0
 34 33  1  0  0  0  0
 35 32  1  0  0  0  0
 35 31  2  0  0  0  0
 36 33  2  0  0  0  0
 37 38  1  0  0  0  0
 38 41  1  0  0  0  0
 40 41  2  0  0  0  0
 41 39  1  0  0  0  0
M  END
>  <MODEL>
5

>  <REMARK>
 VINA RESULT:      -6.6      2.192      5.805
  Name = 
  8 active torsions:
  status: ('A' for Active; 'I' for Inactive)
    1  A    between atoms: N_3  and  O_14
    2  A    between atoms: N_3  and  C_21
    3  A    between atoms: N_9  and  C_20
    4  A    between atoms: N_9  and  C_29
    5  A    between atoms: O_14  and  C_41
    6  A    between atoms: C_17  and  C_27
    7  A    between atoms: C_24  and  C_29
    8  A    between atoms: C_27  and  C_41
                            x       y       z     vdW  Elec       q    Type
                         _______ _______ _______ _____ _____    ______ ____

>  <TORSDO>
F 8

$$$$
=
 OpenBabel11042419013D

 41 46  0  0  1  0  0  0  0  0999 V2000
  193.8690  172.3760  141.7470 O   0  0  0  0  0  0  0  0  0  0  0  0
  190.9790  170.8310  140.1000 N   0  0  0  0  0  0  0  0  0  0  0  0
  189.2600  175.5830  142.3940 C   0  0  0  0  0  3  0  0  0  0  0  0
  194.8750  173.3180  143.8510 C   0  0  1  0  0  3  0  0  0  0  0  0
  194.2440  175.2030  141.3340 C   0  0  0  0  0  2  0  0  0  0  0  0
  194.0380  174.6060  143.8300 C   0  0  1  0  0  3  0  0  0  0  0  0
  194.8700  172.7460  145.1900 N   0  0  0  0  0  0  0  0  0  0  0  0
  192.3440  170.8600  140.4680 C   0  0  0  0  0  0  0  0  0  0  0  0
  193.7650  171.2890  143.8470 N   0  0  0  0  0  0  0  0  0  0  0  0
  194.7530  175.8370  144.3970 C   0  0  2  0  0  3  0  0  0  0  0  0
  190.1280  176.5370  142.9130 C   0  0  0  0  0  0  0  0  0  0  0  0
  189.7590  174.3800  141.9050 C   0  0  0  0  0  3  0  0  0  0  0  0
  194.1500  172.2690  143.1020 C   0  0  0  0  0  0  0  0  0  0  0  0
  194.2410  171.6140  145.1470 C   0  0  0  0  0  3  0  0  0  0  0  0
  193.4390  174.8860  142.5150 N   0  0  0  0  0  0  0  0  0  0  0  0
  191.1340  174.0790  141.9120 C   0  0  0  0  0  0  0  0  0  0  0  0
  193.1760  169.9680  140.1620 O   0  0  0  0  0  0  0  0  0  0  0  0
  196.3690  175.9570  142.3670 C   0  0  0  0  0  2  0  0  0  0  0  0
  192.0230  175.0650  142.4480 C   0  0  0  0  0  0  0  0  0  0  0  0
  191.5010  176.2800  142.9390 C   0  0  0  0  0  0  0  0  0  0  0  0
  192.3390  177.2330  143.4180 F   0  0  0  0  0  0  0  0  0  0  0  0
  191.4820  172.7480  141.2990 C   0  0  0  0  0  0  0  0  0  0  0  0
  190.4750  171.9250  140.5810 C   0  0  0  0  0  3  0  0  0  0  0  0
  192.6250  172.0540  141.2280 C   0  0  0  0  0  0  0  0  0  0  0  0
  195.1500  176.4020  141.5760 C   0  0  0  0  0  2  0  0  0  0  0  0
  196.1880  176.0450  143.8870 C   0  0  0  0  0  2  0  0  0  0  0  0
  189.6270  177.7850  143.4010 N   0  0  0  0  0  2  0  0  0  0  0  0
  188.6600  177.8470  144.3480 O   0  0  0  0  0  0  0  0  0  0  0  0
  189.2420  177.3210  145.5050 C   0  0  0  0  0  2  0  0  0  0  0  0
  188.2390  176.4490  146.2540 C   0  0  0  0  0  2  0  0  0  0  0  0
  184.5930  178.5890  147.0050 C   0  0  0  0  0  3  0  0  0  0  0  0
  185.7890  176.7930  145.9020 C   0  0  0  0  0  3  0  0  0  0  0  0
  186.9640  178.2890  147.4020 C   0  0  0  0  0  3  0  0  0  0  0  0
  186.9730  177.1910  146.5320 C   0  0  0  0  0  0  0  0  0  0  0  0
  184.5990  177.4900  146.1400 C   0  0  0  0  0  3  0  0  0  0  0  0
  185.7750  178.9880  147.6370 C   0  0  0  0  0  3  0  0  0  0  0  0
  194.7400  175.8050  145.8480 N   0  0  0  0  0  2  0  0  0  0  0  0
  193.7780  176.8030  146.2860 C   0  0  0  0  0  2  0  0  0  0  0  0
  192.3630  174.7920  146.7040 O   0  0  0  0  0  0  0  0  0  0  0  0
  191.8960  176.7830  147.7400 O   0  0  0  0  0  1  0  0  0  0  0  0
  192.6270  176.1340  146.9500 C   0  0  0  0  0  0  0  0  0  0  0  0
  1 13  1  0  0  0  0
  2  8  1  0  0  0  0
  2 23  2  0  0  0  0
  3 11  1  0  0  0  0
  4 13  1  6  0  0  0
  4  7  1  0  0  0  0
  5 25  1  0  0  0  0
  5 15  1  0  0  0  0
  6 15  1  6  0  0  0
  6  4  1  0  0  0  0
  6 10  1  0  0  0  0
  8 24  1  0  0  0  0
  9 14  1  0  0  0  0
 10 37  1  1  0  0  0
 11 20  2  0  0  0  0
 11 27  1  0  0  0  0
 12 16  1  0  0  0  0
 12  3  2  0  0  0  0
 13  9  2  0  0  0  0
 14  7  2  0  0  0  0
 16 19  2  0  0  0  0
 17  8  2  0  0  0  0
 18 26  1  0  0  0  0
 19 15  1  0  0  0  0
 19 20  1  0  0  0  0
 20 21  1  0  0  0  0
 22 16  1  0  0  0  0
 23 22  1  0  0  0  0
 24 22  2  0  0  0  0
 24  1  1  0  0  0  0
 25 18  1  0  0  0  0
 26 10  1  0  0  0  0
 27 28  1  0  0  0  0
 28 29  1  0  0  0  0
 29 30  1  0  0  0  0
 30 34  1  0  0  0  0
 31 36  1  0  0  0  0
 32 35  1  0  0  0  0
 32 34  2  0  0  0  0
 33 36  2  0  0  0  0
 34 33  1  0  0  0  0
 35 31  2  0  0  0  0
 37 38  1  0  0  0  0
 38 41  1  0  0  0  0
 39 41  2  0  0  0  0
 41 40  1  0  0  0  0
M  END
>  <MODEL>
6

>  <REMARK>
 VINA RESULT:      -6.6      2.528      5.708
  Name = 
  8 active torsions:
  status: ('A' for Active; 'I' for Inactive)
    1  A    between atoms: N_3  and  O_14
    2  A    between atoms: N_3  and  C_21
    3  A    between atoms: N_9  and  C_20
    4  A    between atoms: N_9  and  C_29
    5  A    between atoms: O_14  and  C_41
    6  A    between atoms: C_17  and  C_27
    7  A    between atoms: C_24  and  C_29
    8  A    between atoms: C_27  and  C_41
                            x       y       z     vdW  Elec       q    Type
                         _______ _______ _______ _____ _____    ______ ____

>  <TORSDO>
F 8

$$$$
=
 OpenBabel11042419013D

 41 46  0  0  1  0  0  0  0  0999 V2000
  193.3430  174.0000  144.1850 O   0  0  0  0  0  0  0  0  0  0  0  0
  194.5960  176.1680  146.8650 N   0  0  0  0  0  0  0  0  0  0  0  0
  189.2720  177.4760  146.0010 C   0  0  0  0  0  3  0  0  0  0  0  0
  192.2400  173.8120  141.9320 C   0  0  1  0  0  3  0  0  0  0  0  0
  190.7570  172.7960  144.5880 C   0  0  0  0  0  2  0  0  0  0  0  0
  190.8440  174.2080  142.4370 C   0  0  1  0  0  3  0  0  0  0  0  0
  192.5490  174.5410  140.7110 N   0  0  0  0  0  0  0  0  0  0  0  0
  194.7550  175.1400  145.9080 C   0  0  0  0  0  0  0  0  0  0  0  0
  193.9940  175.2740  142.3000 N   0  0  0  0  0  0  0  0  0  0  0  0
  189.6850  173.5300  141.6980 C   0  0  2  0  0  3  0  0  0  0  0  0
  188.4180  176.7140  145.2110 C   0  0  0  0  0  0  0  0  0  0  0  0
  190.6150  177.1290  146.1090 C   0  0  0  0  0  3  0  0  0  0  0  0
  193.2530  174.3740  142.8500 C   0  0  0  0  0  0  0  0  0  0  0  0
  193.5330  175.3480  140.9560 C   0  0  0  0  0  3  0  0  0  0  0  0
  190.7000  174.0850  143.8970 N   0  0  0  0  0  0  0  0  0  0  0  0
  191.1600  176.0170  145.4410 C   0  0  0  0  0  0  0  0  0  0  0  0
  195.8260  174.5080  145.7240 O   0  0  0  0  0  0  0  0  0  0  0  0
  190.2360  171.2190  142.7450 C   0  0  0  0  0  2  0  0  0  0  0  0
  190.2760  175.2360  144.6280 C   0  0  0  0  0  0  0  0  0  0  0  0
  188.9170  175.6000  144.5300 C   0  0  0  0  0  0  0  0  0  0  0  0
  188.0650  174.8470  143.7890 F   0  0  0  0  0  0  0  0  0  0  0  0
  192.6200  175.7790  145.7180 C   0  0  0  0  0  0  0  0  0  0  0  0
  193.3580  176.5420  146.7580 C   0  0  0  0  0  3  0  0  0  0  0  0
  193.5160  174.9310  145.1970 C   0  0  0  0  0  0  0  0  0  0  0  0
  189.7230  171.8190  144.0430 C   0  0  0  0  0  2  0  0  0  0  0  0
  189.8440  172.0150  141.4950 C   0  0  0  0  0  2  0  0  0  0  0  0
  187.0310  177.0500  145.1070 N   0  0  0  0  0  2  0  0  0  0  0  0
  186.5350  178.2060  145.6100 O   0  0  0  0  0  0  0  0  0  0  0  0
  185.3960  178.4810  144.8480 C   0  0  0  0  0  2  0  0  0  0  0  0
  185.7300  179.4580  143.7260 C   0  0  0  0  0  2  0  0  0  0  0  0
  186.4470  177.4410  140.0030 C   0  0  0  0  0  3  0  0  0  0  0  0
  187.2590  178.3160  142.1120 C   0  0  0  0  0  3  0  0  0  0  0  0
  184.9140  178.5160  141.5400 C   0  0  0  0  0  3  0  0  0  0  0  0
  185.9670  178.7440  142.4350 C   0  0  0  0  0  0  0  0  0  0  0  0
  187.4990  177.6630  140.8980 C   0  0  0  0  0  3  0  0  0  0  0  0
  185.1540  177.8660  140.3250 C   0  0  0  0  0  3  0  0  0  0  0  0
  189.4520  174.1820  140.4210 N   0  0  0  0  0  2  0  0  0  0  0  0
  189.2750  173.1290  139.4350 C   0  0  0  0  0  2  0  0  0  0  0  0
  188.4050  174.1290  137.3210 O   0  0  0  0  0  0  0  0  0  0  0  0
  190.6490  173.7490  137.5940 O   0  0  0  0  0  1  0  0  0  0  0  0
  189.4870  173.6820  138.0690 C   0  0  0  0  0  0  0  0  0  0  0  0
  1 24  1  0  0  0  0
  3 12  1  0  0  0  0
  4  7  1  6  0  0  0
  4  6  1  0  0  0  0
  4 13  1  0  0  0  0
  6 15  1  1  0  0  0
  7 14  2  0  0  0  0
  8  2  1  0  0  0  0
  9 13  2  0  0  0  0
 10 37  1  6  0  0  0
 10  6  1  0  0  0  0
 11  3  2  0  0  0  0
 13  1  1  0  0  0  0
 14  9  1  0  0  0  0
 15  5  1  0  0  0  0
 15 19  1  0  0  0  0
 16 22  1  0  0  0  0
 16 12  2  0  0  0  0
 17  8  2  0  0  0  0
 18 25  1  0  0  0  0
 19 16  1  0  0  0  0
 20 19  2  0  0  0  0
 20 11  1  0  0  0  0
 21 20  1  0  0  0  0
 22 23  1  0  0  0  0
 23  2  2  0  0  0  0
 24 22  2  0  0  0  0
 24  8  1  0  0  0  0
 25  5  1  0  0  0  0
 26 10  1  0  0  0  0
 26 18  1  0  0  0  0
 27 11  1  0  0  0  0
 27 28  1  0  0  0  0
 29 28  1  0  0  0  0
 30 29  1  0  0  0  0
 31 36  2  0  0  0  0
 31 35  1  0  0  0  0
 32 34  1  0  0  0  0
 33 34  2  0  0  0  0
 34 30  1  0  0  0  0
 35 32  2  0  0  0  0
 36 33  1  0  0  0  0
 38 37  1  0  0  0  0
 39 41  2  0  0  0  0
 40 41  1  0  0  0  0
 41 38  1  0  0  0  0
M  END
>  <MODEL>
7

>  <REMARK>
 VINA RESULT:      -6.4      1.905      3.158
  Name = 
  8 active torsions:
  status: ('A' for Active; 'I' for Inactive)
    1  A    between atoms: N_3  and  O_14
    2  A    between atoms: N_3  and  C_21
    3  A    between atoms: N_9  and  C_20
    4  A    between atoms: N_9  and  C_29
    5  A    between atoms: O_14  and  C_41
    6  A    between atoms: C_17  and  C_27
    7  A    between atoms: C_24  and  C_29
    8  A    between atoms: C_27  and  C_41
                            x       y       z     vdW  Elec       q    Type
                         _______ _______ _______ _____ _____    ______ ____

>  <TORSDO>
F 8

$$$$
=
 OpenBabel11042419013D

 41 46  0  0  1  0  0  0  0  0999 V2000
  193.8000  172.2730  141.9260 O   0  0  0  0  0  0  0  0  0  0  0  0
  191.3550  170.3050  140.0300 N   0  0  0  0  0  0  0  0  0  0  0  0
  188.7960  174.8990  141.8050 C   0  0  0  0  0  3  0  0  0  0  0  0
  194.4030  173.4270  144.0790 C   0  0  1  0  0  3  0  0  0  0  0  0
  193.8850  175.1040  141.3940 C   0  0  0  0  0  2  0  0  0  0  0  0
  193.4290  174.5970  143.8770 C   0  0  1  0  0  3  0  0  0  0  0  0
  194.2920  172.9190  145.4380 N   0  0  0  0  0  0  0  0  0  0  0  0
  192.6460  170.5220  140.5610 C   0  0  0  0  0  0  0  0  0  0  0  0
  193.5540  171.2750  144.0580 N   0  0  0  0  0  0  0  0  0  0  0  0
  193.9120  175.9320  144.4530 C   0  0  2  0  0  3  0  0  0  0  0  0
  189.4690  175.9770  142.3690 C   0  0  0  0  0  0  0  0  0  0  0  0
  189.4950  173.7480  141.4540 C   0  0  0  0  0  3  0  0  0  0  0  0
  193.9130  172.2630  143.3100 C   0  0  0  0  0  0  0  0  0  0  0  0
  193.8140  171.7160  145.3860 C   0  0  0  0  0  3  0  0  0  0  0  0
  192.9770  174.7410  142.4830 N   0  0  0  0  0  0  0  0  0  0  0  0
  190.8830  173.6240  141.6490 C   0  0  0  0  0  0  0  0  0  0  0  0
  193.6110  169.7290  140.4150 O   0  0  0  0  0  0  0  0  0  0  0  0
  195.7520  176.1650  142.6360 C   0  0  0  0  0  2  0  0  0  0  0  0
  191.5710  174.7370  142.2310 C   0  0  0  0  0  0  0  0  0  0  0  0
  190.8480  175.8960  142.5800 C   0  0  0  0  0  0  0  0  0  0  0  0
  191.4970  176.9680  143.1020 F   0  0  0  0  0  0  0  0  0  0  0  0
  191.4640  172.3220  141.1650 C   0  0  0  0  0  0  0  0  0  0  0  0
  190.6650  171.3470  140.3790 C   0  0  0  0  0  3  0  0  0  0  0  0
  192.6810  171.7750  141.2780 C   0  0  0  0  0  0  0  0  0  0  0  0
  194.6020  176.4180  141.6750 C   0  0  0  0  0  2  0  0  0  0  0  0
  195.3660  176.2970  144.1130 C   0  0  0  0  0  2  0  0  0  0  0  0
  188.7640  177.1720  142.7160 N   0  0  0  0  0  2  0  0  0  0  0  0
  187.8960  177.7650  141.8610 O   0  0  0  0  0  0  0  0  0  0  0  0
  186.8750  178.2770  142.6680 C   0  0  0  0  0  2  0  0  0  0  0  0
  186.1010  177.1420  143.3290 C   0  0  0  0  0  2  0  0  0  0  0  0
  184.7990  178.2710  147.2620 C   0  0  0  0  0  3  0  0  0  0  0  0
  184.4930  178.2910  144.8580 C   0  0  0  0  0  3  0  0  0  0  0  0
  186.3770  177.1190  145.8300 C   0  0  0  0  0  3  0  0  0  0  0  0
  185.6480  177.5180  144.7020 C   0  0  0  0  0  0  0  0  0  0  0  0
  184.0670  178.6650  146.1380 C   0  0  0  0  0  3  0  0  0  0  0  0
  185.9540  177.4960  147.1090 C   0  0  0  0  0  3  0  0  0  0  0  0
  193.7130  175.9620  145.8910 N   0  0  0  0  0  2  0  0  0  0  0  0
  192.3710  176.4680  146.1230 C   0  0  0  0  0  2  0  0  0  0  0  0
  190.7450  174.5790  146.0180 O   0  0  0  0  0  0  0  0  0  0  0  0
  191.5800  175.2890  148.0320 O   0  0  0  0  0  1  0  0  0  0  0  0
  191.5460  175.4190  146.7820 C   0  0  0  0  0  0  0  0  0  0  0  0
  1 13  1  0  0  0  0
  2 23  2  0  0  0  0
  2  8  1  0  0  0  0
  3 11  1  0  0  0  0
  4 13  1  6  0  0  0
  4  7  1  0  0  0  0
  5 25  1  0  0  0  0
  5 15  1  0  0  0  0
  6 15  1  6  0  0  0
  6  4  1  0  0  0  0
  6 10  1  0  0  0  0
  8 24  1  0  0  0  0
  9 14  1  0  0  0  0
 10 37  1  1  0  0  0
 11 20  2  0  0  0  0
 11 27  1  0  0  0  0
 12 16  1  0  0  0  0
 12  3  2  0  0  0  0
 13  9  2  0  0  0  0
 14  7  2  0  0  0  0
 16 19  2  0  0  0  0
 17  8  2  0  0  0  0
 18 26  1  0  0  0  0
 19 15  1  0  0  0  0
 19 20  1  0  0  0  0
 20 21  1  0  0  0  0
 22 24  2  0  0  0  0
 22 16  1  0  0  0  0
 23 22  1  0  0  0  0
 24  1  1  0  0  0  0
 25 18  1  0  0  0  0
 26 10  1  0  0  0  0
 28 29  1  0  0  0  0
 28 27  1  0  0  0  0
 29 30  1  0  0  0  0
 30 34  1  0  0  0  0
 32 35  1  0  0  0  0
 33 36  2  0  0  0  0
 34 32  2  0  0  0  0
 34 33  1  0  0  0  0
 35 31  2  0  0  0  0
 36 31  1  0  0  0  0
 37 38  1  0  0  0  0
 38 41  1  0  0  0  0
 39 41  2  0  0  0  0
 41 40  1  0  0  0  0
M  END
>  <MODEL>
8

>  <REMARK>
 VINA RESULT:      -6.4      2.481      5.672
  Name = 
  8 active torsions:
  status: ('A' for Active; 'I' for Inactive)
    1  A    between atoms: N_3  and  O_14
    2  A    between atoms: N_3  and  C_21
    3  A    between atoms: N_9  and  C_20
    4  A    between atoms: N_9  and  C_29
    5  A    between atoms: O_14  and  C_41
    6  A    between atoms: C_17  and  C_27
    7  A    between atoms: C_24  and  C_29
    8  A    between atoms: C_27  and  C_41
                            x       y       z     vdW  Elec       q    Type
                         _______ _______ _______ _____ _____    ______ ____

>  <TORSDO>
F 8

$$$$
=
 OpenBabel11042419013D

 41 46  0  0  1  0  0  0  0  0999 V2000
  190.9560  173.6620  142.1980 O   0  0  0  0  0  0  0  0  0  0  0  0
  189.3620  172.9500  138.9730 N   0  0  0  0  0  0  0  0  0  0  0  0
  186.6560  177.2130  141.2760 C   0  0  0  0  0  3  0  0  0  0  0  0
  190.7100  173.9380  144.6860 C   0  0  1  0  0  3  0  0  0  0  0  0
  191.4650  176.4300  142.8140 C   0  0  0  0  0  2  0  0  0  0  0  0
  189.9950  175.2950  144.5960 C   0  0  1  0  0  3  0  0  0  0  0  0
  190.0130  173.0730  145.6270 N   0  0  0  0  0  0  0  0  0  0  0  0
  190.3350  172.7090  139.9690 C   0  0  0  0  0  0  0  0  0  0  0  0
  189.7830  172.1340  143.5730 N   0  0  0  0  0  0  0  0  0  0  0  0
  190.2990  176.2510  145.7550 C   0  0  2  0  0  3  0  0  0  0  0  0
  187.1180  177.8930  142.3980 C   0  0  0  0  0  0  0  0  0  0  0  0
  187.3480  176.1040  140.8010 C   0  0  0  0  0  3  0  0  0  0  0  0
  190.4910  173.2020  143.4230 C   0  0  0  0  0  0  0  0  0  0  0  0
  189.5090  172.0770  144.9670 C   0  0  0  0  0  3  0  0  0  0  0  0
  190.1660  175.9550  143.2920 N   0  0  0  0  0  0  0  0  0  0  0  0
  188.5200  175.6290  141.4170 C   0  0  0  0  0  0  0  0  0  0  0  0
  191.2120  171.8110  139.8960 O   0  0  0  0  0  0  0  0  0  0  0  0
  192.7340  176.6290  144.9370 C   0  0  0  0  0  2  0  0  0  0  0  0
  188.9910  176.3320  142.5720 C   0  0  0  0  0  0  0  0  0  0  0  0
  188.2790  177.4550  143.0410 C   0  0  0  0  0  0  0  0  0  0  0  0
  188.7350  178.1480  144.1150 F   0  0  0  0  0  0  0  0  0  0  0  0
  189.1490  174.4450  140.7300 C   0  0  0  0  0  0  0  0  0  0  0  0
  188.6710  173.9570  139.4100 C   0  0  0  0  0  3  0  0  0  0  0  0
  190.1680  173.6410  141.0590 C   0  0  0  0  0  0  0  0  0  0  0  0
  192.1020  177.4070  143.7940 C   0  0  0  0  0  2  0  0  0  0  0  0
  191.7870  176.3790  146.1160 C   0  0  0  0  0  2  0  0  0  0  0  0
  186.4250  179.0450  142.8850 N   0  0  0  0  0  2  0  0  0  0  0  0
  185.8900  179.0870  144.1290 O   0  0  0  0  0  0  0  0  0  0  0  0
  184.7450  178.2880  144.0660 C   0  0  0  0  0  2  0  0  0  0  0  0
  183.4940  179.1560  143.9990 C   0  0  0  0  0  2  0  0  0  0  0  0
  181.1540  178.2850  140.5050 C   0  0  0  0  0  3  0  0  0  0  0  0
  181.3220  179.1480  142.7640 C   0  0  0  0  0  3  0  0  0  0  0  0
  183.2920  178.2900  141.6450 C   0  0  0  0  0  3  0  0  0  0  0  0
  182.6910  178.8630  142.7740 C   0  0  0  0  0  0  0  0  0  0  0  0
  180.5540  178.8610  141.6290 C   0  0  0  0  0  3  0  0  0  0  0  0
  182.5240  178.0010  140.5130 C   0  0  0  0  0  3  0  0  0  0  0  0
  189.5310  175.8780  146.9300 N   0  0  0  0  0  2  0  0  0  0  0  0
  188.1610  175.6660  146.4920 C   0  0  0  0  0  2  0  0  0  0  0  0
  187.9210  178.0260  147.2630 O   0  0  0  0  0  1  0  0  0  0  0  0
  186.0690  176.7320  146.8750 O   0  0  0  0  0  0  0  0  0  0  0  0
  187.3230  176.8300  146.8870 C   0  0  0  0  0  0  0  0  0  0  0  0
  1 13  1  0  0  0  0
  2 23  2  0  0  0  0
  2  8  1  0  0  0  0
  3 11  1  0  0  0  0
  4 13  1  6  0  0  0
  4  7  1  0  0  0  0
  5 15  1  0  0  0  0
  5 25  1  0  0  0  0
  6 15  1  6  0  0  0
  6  4  1  0  0  0  0
  6 10  1  0  0  0  0
  8 24  1  0  0  0  0
  9 14  1  0  0  0  0
 10 26  1  0  0  0  0
 10 37  1  1  0  0  0
 11 27  1  0  0  0  0
 11 20  2  0  0  0  0
 12  3  2  0  0  0  0
 12 16  1  0  0  0  0
 13  9  2  0  0  0  0
 14  7  2  0  0  0  0
 16 19  2  0  0  0  0
 17  8  2  0  0  0  0
 18 26  1  0  0  0  0
 19 20  1  0  0  0  0
 19 15  1  0  0  0  0
 20 21  1  0  0  0  0
 22 24  2  0  0  0  0
 22 16  1  0  0  0  0
 23 22  1  0  0  0  0
 24  1  1  0  0  0  0
 25 18  1  0  0  0  0
 27 28  1  0  0  0  0
 29 28  1  0  0  0  0
 30 29  1  0  0  0  0
 31 36  2  0  0  0  0
 31 35  1  0  0  0  0
 32 34  1  0  0  0  0
 33 34  2  0  0  0  0
 34 30  1  0  0  0  0
 35 32  2  0  0  0  0
 36 33  1  0  0  0  0
 38 41  1  0  0  0  0
 38 37  1  0  0  0  0
 40 41  2  0  0  0  0
 41 39  1  0  0  0  0
M  END
>  <MODEL>
9

>  <REMARK>
 VINA RESULT:      -6.4      3.105      6.652
  Name = 
  8 active torsions:
  status: ('A' for Active; 'I' for Inactive)
    1  A    between atoms: N_3  and  O_14
    2  A    between atoms: N_3  and  C_21
    3  A    between atoms: N_9  and  C_20
    4  A    between atoms: N_9  and  C_29
    5  A    between atoms: O_14  and  C_41
    6  A    between atoms: C_17  and  C_27
    7  A    between atoms: C_24  and  C_29
    8  A    between atoms: C_27  and  C_41
                            x       y       z     vdW  Elec       q    Type
                         _______ _______ _______ _____ _____    ______ ____

>  <TORSDO>
F 8

$$$$
