=
 OpenBabel11042413423D

 58 61  0  0  1  0  0  0  0  0999 V2000
  187.3860  177.7260  140.4920 F   0  0  0  0  0  0  0  0  0  0  0  0
  183.3890  178.3690  142.3530 C   0  0  0  0  0  1  0  0  0  0  0  0
  186.8840  176.3540  143.8450 C   0  0  2  0  0  3  0  0  0  0  0  0
  185.6580  177.4360  142.2030 C   0  0  0  0  0  0  0  0  0  0  0  0
  184.6400  178.0680  141.6020 C   0  0  0  0  0  0  0  0  0  0  0  0
  186.8870  177.1010  141.5810 N   0  0  0  0  0  0  0  0  0  0  0  0
  187.7360  176.4470  142.5670 C   0  0  2  0  0  3  0  0  0  0  0  0
  185.6160  177.0130  143.5520 N   0  0  0  0  0  2  0  0  0  0  0  0
  184.7020  178.4660  140.1670 C   0  0  0  0  0  1  0  0  0  0  0  0
  187.5820  177.0560  144.9980 C   0  0  0  0  0  2  0  0  0  0  0  0
  187.0180  176.5750  146.3230 C   0  0  2  0  0  3  0  0  0  0  0  0
  185.2090  177.7870  147.2270 O   0  0  0  0  0  0  0  0  0  0  0  0
  186.4140  177.7290  147.0510 C   0  0  0  0  0  3  0  0  0  0  0  0
  188.1330  175.9530  147.1540 C   0  0  0  0  0  2  0  0  0  0  0  0
  189.9840  177.5610  147.5580 C   0  0  0  0  0  1  0  0  0  0  0  0
  189.5000  176.4190  146.6790 C   0  0  1  0  0  3  0  0  0  0  0  0
  190.4690  175.2550  146.7650 C   0  0  0  0  0  2  0  0  0  0  0  0
  191.1690  175.1070  145.5370 O   0  0  0  0  0  0  0  0  0  0  0  0
  192.7720  176.7620  145.6680 O   0  0  0  0  0  0  0  0  0  0  0  0
  193.4720  174.6810  144.8720 N   0  0  0  0  0  2  0  0  0  0  0  0
  192.4740  175.5710  145.3760 C   0  0  0  0  0  0  0  0  0  0  0  0
  196.7540  175.8740  140.4120 C   0  0  0  0  0  2  0  0  0  0  0  0
  197.0970  176.3470  142.7910 C   0  0  0  0  0  2  0  0  0  0  0  0
  196.1720  176.5990  141.6180 C   0  0  2  0  0  3  0  0  0  0  0  0
  195.9140  174.1410  142.7470 C   0  0  2  0  0  3  0  0  0  0  0  0
  194.8080  173.3920  141.9830 C   0  0  0  0  0  2  0  0  0  0  0  0
  194.8660  175.0660  144.7050 C   0  0  1  0  0  3  0  0  0  0  0  0
  195.6860  173.8620  144.2120 C   0  0  2  0  0  3  0  0  0  0  0  0
  194.3510  174.0100  140.6640 C   0  0  0  0  0  2  0  0  0  0  0  0
  195.7480  175.6450  142.7360 C   0  0  1  0  0  0  0  0  0  0  0  0
  195.5070  174.1890  139.6950 C   0  0  0  0  0  2  0  0  0  0  0  0
  194.9450  176.1260  143.7720 O   0  0  0  0  0  0  0  0  0  0  0  0
  195.7390  175.5530  139.5080 O   0  0  0  0  0  0  0  0  0  0  0  0
  197.0190  173.7680  144.9600 C   0  0  1  0  0  3  0  0  0  0  0  0
  196.7980  173.3650  146.2790 O   0  0  0  0  0  1  0  0  0  0  0  0
  197.9380  172.7660  144.2770 C   0  0  0  0  0  2  0  0  0  0  0  0
  197.7140  171.3780  144.8480 C   0  0  0  0  0  2  0  0  0  0  0  0
  196.9400  170.6300  143.9630 O   0  0  0  0  0  1  0  0  0  0  0  0
  188.0870  175.0370  142.1190 C   0  0  0  0  0  2  0  0  0  0  0  0
  189.5890  174.8120  142.1100 C   0  0  0  0  0  2  0  0  0  0  0  0
  189.9060  173.4730  141.4710 C   0  0  0  0  0  2  0  0  0  0  0  0
  188.8520  172.2010  139.1530 O   0  0  0  0  0  0  0  0  0  0  0  0
  190.3940  173.6700  140.1130 N   0  0  0  0  0  2  0  0  0  0  0  0
  189.8190  172.9940  138.9880 C   0  0  0  0  0  0  0  0  0  0  0  0
  189.9020  174.2310  136.9390 N   0  0  0  0  0  0  0  0  0  0  0  0
  190.3510  173.2270  137.6360 C   0  0  0  0  0  0  0  0  0  0  0  0
  190.3440  174.5600  135.5850 C   0  0  1  0  0  3  0  0  0  0  0  0
  189.1870  175.1410  134.7950 C   0  0  0  0  0  2  0  0  0  0  0  0
  188.3740  175.9020  135.6360 O   0  0  0  0  0  1  0  0  0  0  0  0
  192.2840  176.3270  135.6800 N   0  0  0  0  0  0  0  0  0  0  0  0
  191.4290  175.5480  135.6380 C   0  0  0  0  0  0  0  0  0  0  0  0
  191.3710  172.2830  137.0710 C   0  0  0  0  0  2  0  0  0  0  0  0
  192.6800  172.4180  137.8230 C   0  0  0  0  0  2  0  0  0  0  0  0
  193.2150  171.0380  138.1420 C   0  0  0  0  0  2  0  0  0  0  0  0
  192.2990  170.3290  139.1280 C   0  0  0  0  0  2  0  0  0  0  0  0
  192.7320  170.5730  140.5700 C   0  0  0  0  0  2  0  0  0  0  0  0
  194.1360  170.0460  140.8290 C   0  0  0  0  0  2  0  0  0  0  0  0
  194.1160  168.9810  141.9130 C   0  0  0  0  0  1  0  0  0  0  0  0
  1  6  1  0  0  0  0
  3 10  1  1  0  0  0
  4  8  1  0  0  0  0
  5  4  2  0  0  0  0
  5  2  1  0  0  0  0
  6  4  1  0  0  0  0
  6  7  1  0  0  0  0
  7 39  1  6  0  0  0
  7  3  1  0  0  0  0
  8  3  1  0  0  0  0
  9  5  1  0  0  0  0
 11 10  1  6  0  0  0
 11 13  1  0  0  0  0
 11 14  1  0  0  0  0
 13 12  2  0  0  0  0
 16 17  1  0  0  0  0
 16 14  1  0  0  0  0
 16 15  1  1  0  0  0
 18 17  1  0  0  0  0
 20 21  1  0  0  0  0
 21 18  1  0  0  0  0
 21 19  2  0  0  0  0
 24 22  1  6  0  0  0
 24 30  1  0  0  0  0
 24 23  1  0  0  0  0
 25 26  1  6  0  0  0
 25 28  1  0  0  0  0
 27 20  1  6  0  0  0
 28 27  1  0  0  0  0
 28 34  1  1  0  0  0
 29 26  1  0  0  0  0
 30 25  1  0  0  0  0
 30 23  1  1  0  0  0
 30 32  1  0  0  0  0
 31 29  1  0  0  0  0
 32 27  1  0  0  0  0
 33 31  1  0  0  0  0
 33 22  1  0  0  0  0
 34 35  1  1  0  0  0
 36 37  1  0  0  0  0
 36 34  1  0  0  0  0
 38 37  1  0  0  0  0
 40 39  1  0  0  0  0
 41 40  1  0  0  0  0
 43 41  1  0  0  0  0
 44 42  2  0  0  0  0
 44 43  1  0  0  0  0
 45 46  2  0  0  0  0
 46 44  1  0  0  0  0
 47 48  1  6  0  0  0
 47 51  1  0  0  0  0
 47 45  1  0  0  0  0
 48 49  1  0  0  0  0
 51 50  3  0  0  0  0
 52 46  1  0  0  0  0
 52 53  1  0  0  0  0
 53 54  1  0  0  0  0
 54 55  1  0  0  0  0
 55 56  1  0  0  0  0
 56 57  1  0  0  0  0
 57 58  1  0  0  0  0
M  END
>  <MODEL>
1

>  <REMARK>
 VINA RESULT:      -5.6      0.000      0.000
  Name = 
  26 active torsions:
  status: ('A' for Active; 'I' for Inactive)
    1  A    between atoms: C_1  and  C_30
    2  A    between atoms: C_1  and  C_45
    3  A    between atoms: C_1  and  C_58
    4  A    between atoms: CA_3  and  N_29
    5  A    between atoms: CA_3  and  C_33
    6  A    between atoms: CA_3  and  C_56
    7  A    between atoms: C_9  and  C_24
    8  A    between atoms: C_9  and  C_36
    9  A    between atoms: N_10  and  C_19
   10  A    between atoms: C_12  and  C_39
   11  A    between atoms: C_12  and  C_48
   12  A    between atoms: C_15  and  C_36
   13  A    between atoms: C_16  and  C_58
   14  A    between atoms: N_22  and  C_55
   15  A    between atoms: C_23  and  C_49
   16  A    between atoms: C_25  and  C_41
   17  A    between atoms: C_25  and  C_51
   18  A    between atoms: C_26  and  C_34
   19  A    between atoms: C_30  and  C_31
   20  A    between atoms: C_31  and  C_43
   21  A    between atoms: C_34  and  C_39
   22  A    between atoms: C_38  and  O_53
   23  A    between atoms: C_42  and  C_48
   24  A    between atoms: C_42  and  C_49
   25  A    between atoms: C_43  and  O_53
   26  A    between atoms: C_51  and  C_55
                            x       y       z     vdW  Elec       q    Type
                         _______ _______ _______ _____ _____    ______ ____

>  <TORSDO>
F 26

$$$$
=
 OpenBabel11042413423D

 58 61  0  0  1  0  0  0  0  0999 V2000
  187.9900  176.4360  147.1500 F   0  0  0  0  0  0  0  0  0  0  0  0
  184.2190  178.6630  146.3280 C   0  0  0  0  0  1  0  0  0  0  0  0
  187.1630  177.0470  143.6410 C   0  0  2  0  0  3  0  0  0  0  0  0
  186.3510  177.5880  145.7420 C   0  0  0  0  0  0  0  0  0  0  0  0
  185.5330  178.0600  146.6920 C   0  0  0  0  0  0  0  0  0  0  0  0
  187.6180  176.9990  145.9800 N   0  0  0  0  0  0  0  0  0  0  0  0
  188.1820  176.5930  144.7000 C   0  0  2  0  0  3  0  0  0  0  0  0
  186.0400  177.6320  144.3630 N   0  0  0  0  0  2  0  0  0  0  0  0
  185.9080  178.0340  148.1350 C   0  0  0  0  0  1  0  0  0  0  0  0
  186.6930  175.8580  142.8180 C   0  0  0  0  0  2  0  0  0  0  0  0
  187.6950  175.5530  141.7180 C   0  0  2  0  0  3  0  0  0  0  0  0
  187.4490  177.2890  140.1410 O   0  0  0  0  0  0  0  0  0  0  0  0
  187.2070  176.1290  140.4310 C   0  0  0  0  0  3  0  0  0  0  0  0
  187.8640  174.0450  141.5890 C   0  0  0  0  0  2  0  0  0  0  0  0
  189.1870  172.1570  142.5170 C   0  0  0  0  0  1  0  0  0  0  0  0
  189.2430  173.6030  142.0500 C   0  0  1  0  0  3  0  0  0  0  0  0
  190.2110  173.7320  140.8880 C   0  0  0  0  0  2  0  0  0  0  0  0
  189.5130  173.6270  139.6550 O   0  0  0  0  0  0  0  0  0  0  0  0
  189.5070  173.9500  137.3700 O   0  0  0  0  0  0  0  0  0  0  0  0
  191.5900  173.6650  138.3860 N   0  0  0  0  0  2  0  0  0  0  0  0
  190.1650  173.7570  138.4300 C   0  0  0  0  0  0  0  0  0  0  0  0
  197.0920  173.3400  137.0770 C   0  0  0  0  0  2  0  0  0  0  0  0
  195.1210  173.2900  135.6230 C   0  0  0  0  0  2  0  0  0  0  0  0
  195.8070  172.5830  136.7730 C   0  0  2  0  0  3  0  0  0  0  0  0
  194.5050  174.8630  137.4710 C   0  0  2  0  0  3  0  0  0  0  0  0
  194.6740  175.0490  138.9890 C   0  0  0  0  0  2  0  0  0  0  0  0
  192.3580  173.8240  137.1600 C   0  0  1  0  0  3  0  0  0  0  0  0
  193.0660  175.1890  137.1580 C   0  0  2  0  0  3  0  0  0  0  0  0
  195.7150  174.1680  139.6730 C   0  0  0  0  0  2  0  0  0  0  0  0
  194.5510  173.4170  137.0280 C   0  0  1  0  0  0  0  0  0  0  0  0
  197.0930  174.3380  139.0560 C   0  0  0  0  0  2  0  0  0  0  0  0
  193.3080  172.7800  137.0700 O   0  0  0  0  0  0  0  0  0  0  0  0
  197.4560  173.1530  138.4130 O   0  0  0  0  0  0  0  0  0  0  0  0
  192.9480  175.8610  135.7870 C   0  0  1  0  0  3  0  0  0  0  0  0
  191.6350  175.7670  135.3210 O   0  0  0  0  0  1  0  0  0  0  0  0
  193.3410  177.3280  135.8830 C   0  0  0  0  0  2  0  0  0  0  0  0
  193.2780  177.9770  134.5130 C   0  0  0  0  0  2  0  0  0  0  0  0
  193.6680  179.3120  134.6120 O   0  0  0  0  0  1  0  0  0  0  0  0
  189.4980  177.3130  144.4430 C   0  0  0  0  0  2  0  0  0  0  0  0
  189.8080  177.3940  142.9590 C   0  0  0  0  0  2  0  0  0  0  0  0
  191.3100  177.4580  142.7490 C   0  0  0  0  0  2  0  0  0  0  0  0
  193.9890  176.7280  142.1270 O   0  0  0  0  0  0  0  0  0  0  0  0
  191.9070  176.1580  143.0200 N   0  0  0  0  0  2  0  0  0  0  0  0
  193.2640  175.8540  142.6770 C   0  0  0  0  0  0  0  0  0  0  0  0
  193.0410  173.4810  142.9140 N   0  0  0  0  0  0  0  0  0  0  0  0
  193.8200  174.5230  142.9700 C   0  0  0  0  0  0  0  0  0  0  0  0
  193.4720  172.1120  143.1910 C   0  0  1  0  0  3  0  0  0  0  0  0
  192.4870  171.4450  144.1320 C   0  0  0  0  0  2  0  0  0  0  0  0
  191.6120  172.3980  144.6560 O   0  0  0  0  0  1  0  0  0  0  0  0
  193.5780  170.7370  140.9560 N   0  0  0  0  0  0  0  0  0  0  0  0
  193.5320  171.3430  141.9420 C   0  0  0  0  0  0  0  0  0  0  0  0
  195.2620  174.3950  143.3650 C   0  0  0  0  0  2  0  0  0  0  0  0
  195.3940  174.4310  144.8740 C   0  0  0  0  0  2  0  0  0  0  0  0
  195.2130  175.8560  145.3560 C   0  0  0  0  0  2  0  0  0  0  0  0
  194.2340  175.9010  146.5200 C   0  0  0  0  0  2  0  0  0  0  0  0
  193.1550  174.8320  146.3850 C   0  0  0  0  0  2  0  0  0  0  0  0
  191.9580  175.1300  147.2770 C   0  0  0  0  0  2  0  0  0  0  0  0
  191.6160  176.6100  147.2340 C   0  0  0  0  0  1  0  0  0  0  0  0
  2  5  1  0  0  0  0
  3 10  1  1  0  0  0
  3  8  1  0  0  0  0
  3  7  1  0  0  0  0
  4  6  1  0  0  0  0
  4  5  2  0  0  0  0
  5  9  1  0  0  0  0
  6  1  1  0  0  0  0
  7 39  1  6  0  0  0
  7  6  1  0  0  0  0
  8  4  1  0  0  0  0
 11 13  1  6  0  0  0
 11 10  1  0  0  0  0
 12 13  2  0  0  0  0
 14 11  1  0  0  0  0
 14 16  1  0  0  0  0
 16 15  1  6  0  0  0
 17 16  1  0  0  0  0
 18 17  1  0  0  0  0
 19 21  2  0  0  0  0
 20 21  1  0  0  0  0
 21 18  1  0  0  0  0
 22 33  1  0  0  0  0
 24 23  1  6  0  0  0
 24 30  1  0  0  0  0
 24 22  1  0  0  0  0
 25 26  1  1  0  0  0
 26 29  1  0  0  0  0
 27 20  1  1  0  0  0
 28 34  1  6  0  0  0
 28 27  1  0  0  0  0
 28 25  1  0  0  0  0
 30 23  1  6  0  0  0
 30 32  1  0  0  0  0
 30 25  1  0  0  0  0
 31 29  1  0  0  0  0
 32 27  1  0  0  0  0
 33 31  1  0  0  0  0
 34 35  1  1  0  0  0
 34 36  1  0  0  0  0
 37 38  1  0  0  0  0
 37 36  1  0  0  0  0
 40 39  1  0  0  0  0
 41 40  1  0  0  0  0
 41 43  1  0  0  0  0
 42 44  2  0  0  0  0
 44 46  1  0  0  0  0
 44 43  1  0  0  0  0
 45 46  2  0  0  0  0
 45 47  1  0  0  0  0
 46 52  1  0  0  0  0
 47 51  1  6  0  0  0
 47 48  1  0  0  0  0
 48 49  1  0  0  0  0
 50 51  3  0  0  0  0
 52 53  1  0  0  0  0
 53 54  1  0  0  0  0
 54 55  1  0  0  0  0
 56 55  1  0  0  0  0
 56 57  1  0  0  0  0
 58 57  1  0  0  0  0
M  END
>  <MODEL>
2

>  <REMARK>
 VINA RESULT:      -5.5      2.770      7.168
  Name = 
  26 active torsions:
  status: ('A' for Active; 'I' for Inactive)
    1  A    between atoms: C_1  and  C_30
    2  A    between atoms: C_1  and  C_45
    3  A    between atoms: C_1  and  C_58
    4  A    between atoms: CA_3  and  N_29
    5  A    between atoms: CA_3  and  C_33
    6  A    between atoms: CA_3  and  C_56
    7  A    between atoms: C_9  and  C_24
    8  A    between atoms: C_9  and  C_36
    9  A    between atoms: N_10  and  C_19
   10  A    between atoms: C_12  and  C_39
   11  A    between atoms: C_12  and  C_48
   12  A    between atoms: C_15  and  C_36
   13  A    between atoms: C_16  and  C_58
   14  A    between atoms: N_22  and  C_55
   15  A    between atoms: C_23  and  C_49
   16  A    between atoms: C_25  and  C_41
   17  A    between atoms: C_25  and  C_51
   18  A    between atoms: C_26  and  C_34
   19  A    between atoms: C_30  and  C_31
   20  A    between atoms: C_31  and  C_43
   21  A    between atoms: C_34  and  C_39
   22  A    between atoms: C_38  and  O_53
   23  A    between atoms: C_42  and  C_48
   24  A    between atoms: C_42  and  C_49
   25  A    between atoms: C_43  and  O_53
   26  A    between atoms: C_51  and  C_55
                            x       y       z     vdW  Elec       q    Type
                         _______ _______ _______ _____ _____    ______ ____

>  <TORSDO>
F 26

$$$$
=
 OpenBabel11042413423D

 58 61  0  0  1  0  0  0  0  0999 V2000
  190.3430  170.9630  141.8070 F   0  0  0  0  0  0  0  0  0  0  0  0
  193.7170  168.3720  140.4800 C   0  0  0  0  0  1  0  0  0  0  0  0
  191.9460  171.8320  138.6370 C   0  0  2  0  0  3  0  0  0  0  0  0
  192.0550  170.1690  140.2470 C   0  0  0  0  0  0  0  0  0  0  0  0
  192.4890  169.0940  140.9190 C   0  0  0  0  0  0  0  0  0  0  0  0
  190.9030  170.9240  140.5780 N   0  0  0  0  0  0  0  0  0  0  0  0
  190.7850  172.0210  139.6280 C   0  0  2  0  0  3  0  0  0  0  0  0
  192.7090  170.6780  139.1010 N   0  0  0  0  0  2  0  0  0  0  0  0
  191.7550  168.5600  142.1020 C   0  0  0  0  0  1  0  0  0  0  0  0
  192.8310  173.0680  138.6180 C   0  0  0  0  0  2  0  0  0  0  0  0
  193.3110  173.3460  137.2040 C   0  0  2  0  0  3  0  0  0  0  0  0
  192.8570  172.4590  135.0670 O   0  0  0  0  0  0  0  0  0  0  0  0
  192.5500  172.4910  136.2470 C   0  0  0  0  0  3  0  0  0  0  0  0
  194.8020  173.0450  137.1060 C   0  0  0  0  0  2  0  0  0  0  0  0
  194.8620  175.1810  135.8380 C   0  0  0  0  0  1  0  0  0  0  0  0
  195.6030  174.3100  136.8400 C   0  0  1  0  0  3  0  0  0  0  0  0
  195.7780  175.0610  138.1470 C   0  0  0  0  0  2  0  0  0  0  0  0
  196.0780  174.1530  139.1990 O   0  0  0  0  0  0  0  0  0  0  0  0
  195.6450  175.6980  140.8570 O   0  0  0  0  0  0  0  0  0  0  0  0
  196.3800  173.5920  141.5480 N   0  0  0  0  0  2  0  0  0  0  0  0
  196.0150  174.5340  140.5380 C   0  0  0  0  0  0  0  0  0  0  0  0
  196.2710  170.4470  146.2580 C   0  0  0  0  0  2  0  0  0  0  0  0
  196.7450  172.8330  145.9680 C   0  0  0  0  0  2  0  0  0  0  0  0
  197.2030  171.4430  145.5800 C   0  0  2  0  0  3  0  0  0  0  0  0
  195.0060  172.3180  144.2430 C   0  0  2  0  0  3  0  0  0  0  0  0
  194.5900  171.2120  143.2570 C   0  0  0  0  0  2  0  0  0  0  0  0
  196.3110  173.8890  142.9720 C   0  0  1  0  0  3  0  0  0  0  0  0
  194.8900  173.6220  143.4940 C   0  0  2  0  0  3  0  0  0  0  0  0
  195.2440  169.8470  143.4480 C   0  0  0  0  0  2  0  0  0  0  0  0
  196.4860  172.3250  144.5570 C   0  0  1  0  0  0  0  0  0  0  0  0
  195.0110  169.2980  144.8450 C   0  0  0  0  0  2  0  0  0  0  0  0
  197.2450  173.0790  143.6590 O   0  0  0  0  0  0  0  0  0  0  0  0
  196.2260  169.2570  145.5300 O   0  0  0  0  0  0  0  0  0  0  0  0
  194.4350  174.7460  144.4310 C   0  0  1  0  0  3  0  0  0  0  0  0
  195.2100  175.8890  144.2150 O   0  0  0  0  0  1  0  0  0  0  0  0
  192.9710  175.0790  144.1830 C   0  0  0  0  0  2  0  0  0  0  0  0
  192.8550  176.3730  143.3990 C   0  0  0  0  0  2  0  0  0  0  0  0
  192.2450  177.3450  144.1900 O   0  0  0  0  0  1  0  0  0  0  0  0
  189.4750  171.9240  138.8590 C   0  0  0  0  0  2  0  0  0  0  0  0
  188.3840  172.7550  139.5100 C   0  0  0  0  0  2  0  0  0  0  0  0
  188.8710  174.1780  139.7140 C   0  0  0  0  0  2  0  0  0  0  0  0
  187.3750  176.5980  139.6600 O   0  0  0  0  0  0  0  0  0  0  0  0
  188.2030  174.7740  140.8620 N   0  0  0  0  0  2  0  0  0  0  0  0
  187.4670  175.9990  140.7670 C   0  0  0  0  0  0  0  0  0  0  0  0
  185.7680  177.3250  141.8110 N   0  0  0  0  0  0  0  0  0  0  0  0
  186.8120  176.5620  141.9590 C   0  0  0  0  0  0  0  0  0  0  0  0
  185.0380  177.9490  142.9130 C   0  0  1  0  0  3  0  0  0  0  0  0
  185.7190  179.2440  143.3120 C   0  0  0  0  0  2  0  0  0  0  0  0
  185.0140  179.8500  144.3530 O   0  0  0  0  0  1  0  0  0  0  0  0
  182.5740  178.4770  142.1710 N   0  0  0  0  0  0  0  0  0  0  0  0
  183.6600  178.2430  142.4980 C   0  0  0  0  0  0  0  0  0  0  0  0
  187.3800  176.2770  143.3180 C   0  0  0  0  0  2  0  0  0  0  0  0
  188.6610  177.0610  143.5220 C   0  0  0  0  0  2  0  0  0  0  0  0
  188.7740  177.4600  144.9790 C   0  0  0  0  0  2  0  0  0  0  0  0
  188.7770  176.2250  145.8670 C   0  0  0  0  0  2  0  0  0  0  0  0
  187.6610  176.2790  146.9070 C   0  0  0  0  0  2  0  0  0  0  0  0
  186.6860  177.4120  146.6210 C   0  0  0  0  0  2  0  0  0  0  0  0
  185.2870  176.8650  146.3830 C   0  0  0  0  0  1  0  0  0  0  0  0
  2  5  1  0  0  0  0
  3 10  1  1  0  0  0
  3  8  1  0  0  0  0
  3  7  1  0  0  0  0
  4  6  1  0  0  0  0
  4  5  2  0  0  0  0
  5  9  1  0  0  0  0
  6  1  1  0  0  0  0
  7 39  1  6  0  0  0
  7  6  1  0  0  0  0
  8  4  1  0  0  0  0
 11 13  1  6  0  0  0
 11 10  1  0  0  0  0
 12 13  2  0  0  0  0
 14 11  1  0  0  0  0
 16 15  1  6  0  0  0
 16 14  1  0  0  0  0
 16 17  1  0  0  0  0
 17 18  1  0  0  0  0
 18 21  1  0  0  0  0
 21 19  2  0  0  0  0
 21 20  1  0  0  0  0
 24 23  1  1  0  0  0
 24 22  1  0  0  0  0
 25 26  1  6  0  0  0
 25 30  1  0  0  0  0
 26 29  1  0  0  0  0
 27 20  1  6  0  0  0
 27 28  1  0  0  0  0
 27 32  1  0  0  0  0
 28 25  1  0  0  0  0
 28 34  1  1  0  0  0
 29 31  1  0  0  0  0
 30 24  1  0  0  0  0
 30 23  1  1  0  0  0
 31 33  1  0  0  0  0
 32 30  1  0  0  0  0
 33 22  1  0  0  0  0
 34 35  1  6  0  0  0
 36 34  1  0  0  0  0
 37 36  1  0  0  0  0
 37 38  1  0  0  0  0
 39 40  1  0  0  0  0
 40 41  1  0  0  0  0
 41 43  1  0  0  0  0
 42 44  2  0  0  0  0
 44 43  1  0  0  0  0
 44 46  1  0  0  0  0
 45 46  2  0  0  0  0
 45 47  1  0  0  0  0
 46 52  1  0  0  0  0
 47 51  1  6  0  0  0
 47 48  1  0  0  0  0
 48 49  1  0  0  0  0
 50 51  3  0  0  0  0
 52 53  1  0  0  0  0
 53 54  1  0  0  0  0
 54 55  1  0  0  0  0
 55 56  1  0  0  0  0
 57 56  1  0  0  0  0
 58 57  1  0  0  0  0
M  END
>  <MODEL>
3

>  <REMARK>
 VINA RESULT:      -5.5      2.493      8.572
  Name = 
  26 active torsions:
  status: ('A' for Active; 'I' for Inactive)
    1  A    between atoms: C_1  and  C_30
    2  A    between atoms: C_1  and  C_45
    3  A    between atoms: C_1  and  C_58
    4  A    between atoms: CA_3  and  N_29
    5  A    between atoms: CA_3  and  C_33
    6  A    between atoms: CA_3  and  C_56
    7  A    between atoms: C_9  and  C_24
    8  A    between atoms: C_9  and  C_36
    9  A    between atoms: N_10  and  C_19
   10  A    between atoms: C_12  and  C_39
   11  A    between atoms: C_12  and  C_48
   12  A    between atoms: C_15  and  C_36
   13  A    between atoms: C_16  and  C_58
   14  A    between atoms: N_22  and  C_55
   15  A    between atoms: C_23  and  C_49
   16  A    between atoms: C_25  and  C_41
   17  A    between atoms: C_25  and  C_51
   18  A    between atoms: C_26  and  C_34
   19  A    between atoms: C_30  and  C_31
   20  A    between atoms: C_31  and  C_43
   21  A    between atoms: C_34  and  C_39
   22  A    between atoms: C_38  and  O_53
   23  A    between atoms: C_42  and  C_48
   24  A    between atoms: C_42  and  C_49
   25  A    between atoms: C_43  and  O_53
   26  A    between atoms: C_51  and  C_55
                            x       y       z     vdW  Elec       q    Type
                         _______ _______ _______ _____ _____    ______ ____

>  <TORSDO>
F 26

$$$$
=
 OpenBabel11042413423D

 58 61  0  0  1  0  0  0  0  0999 V2000
  191.9370  175.7360  142.2720 F   0  0  0  0  0  0  0  0  0  0  0  0
  194.4350  175.1700  145.9170 C   0  0  0  0  0  1  0  0  0  0  0  0
  192.7180  172.2920  143.2220 C   0  0  2  0  0  3  0  0  0  0  0  0
  193.0340  174.4390  144.0350 C   0  0  0  0  0  0  0  0  0  0  0  0
  193.4840  175.4410  144.8030 C   0  0  0  0  0  0  0  0  0  0  0  0
  192.1290  174.5860  142.9540 N   0  0  0  0  0  0  0  0  0  0  0  0
  191.9080  173.2750  142.3600 C   0  0  2  0  0  3  0  0  0  0  0  0
  193.4130  173.0890  144.2250 N   0  0  0  0  0  2  0  0  0  0  0  0
  193.0330  176.8470  144.5990 C   0  0  0  0  0  1  0  0  0  0  0  0
  193.7240  171.5420  142.3630 C   0  0  0  0  0  2  0  0  0  0  0  0
  193.2450  170.1220  142.1160 C   0  0  2  0  0  3  0  0  0  0  0  0
  195.0470  168.8710  141.2520 O   0  0  0  0  0  0  0  0  0  0  0  0
  194.3990  169.1840  142.2370 C   0  0  0  0  0  3  0  0  0  0  0  0
  192.6340  170.0270  140.7240 C   0  0  0  0  0  2  0  0  0  0  0  0
  190.7620  168.9170  141.9230 C   0  0  0  0  0  1  0  0  0  0  0  0
  191.5970  168.9190  140.6510 C   0  0  1  0  0  3  0  0  0  0  0  0
  190.7040  169.1640  139.4490 C   0  0  0  0  0  2  0  0  0  0  0  0
  191.3780  168.7960  138.2530 O   0  0  0  0  0  0  0  0  0  0  0  0
  190.9190  169.7260  136.1920 O   0  0  0  0  0  0  0  0  0  0  0  0
  192.6950  170.6530  137.3910 N   0  0  0  0  0  2  0  0  0  0  0  0
  191.6260  169.7180  137.2380 C   0  0  0  0  0  0  0  0  0  0  0  0
  195.8980  175.3250  137.3740 C   0  0  0  0  0  2  0  0  0  0  0  0
  194.9590  174.0520  135.5040 C   0  0  0  0  0  2  0  0  0  0  0  0
  195.8810  173.9590  136.7010 C   0  0  2  0  0  3  0  0  0  0  0  0
  193.2340  173.8890  137.3100 C   0  0  2  0  0  3  0  0  0  0  0  0
  193.1110  173.7400  138.8360 C   0  0  0  0  0  2  0  0  0  0  0  0
  193.0050  171.6740  136.4010 C   0  0  1  0  0  3  0  0  0  0  0  0
  192.2140  172.9570  136.7060 C   0  0  2  0  0  3  0  0  0  0  0  0
  194.3830  173.9670  139.6480 C   0  0  0  0  0  2  0  0  0  0  0  0
  194.5040  173.2950  136.7420 C   0  0  1  0  0  0  0  0  0  0  0  0
  194.9800  175.3390  139.3910 C   0  0  0  0  0  2  0  0  0  0  0  0
  194.3940  171.9380  136.4280 O   0  0  0  0  0  0  0  0  0  0  0  0
  196.2010  175.1900  138.7300 O   0  0  0  0  0  0  0  0  0  0  0  0
  191.6270  173.5520  135.4220 C   0  0  1  0  0  3  0  0  0  0  0  0
  190.7390  172.6450  134.8390 O   0  0  0  0  0  1  0  0  0  0  0  0
  190.8900  174.8470  135.7300 C   0  0  0  0  0  2  0  0  0  0  0  0
  189.3920  174.6130  135.7110 C   0  0  0  0  0  2  0  0  0  0  0  0
  188.9350  174.4080  137.0130 O   0  0  0  0  0  1  0  0  0  0  0  0
  190.4380  172.8910  142.4440 C   0  0  0  0  0  2  0  0  0  0  0  0
  189.8860  172.4950  141.0870 C   0  0  0  0  0  2  0  0  0  0  0  0
  189.1730  173.6760  140.4550 C   0  0  0  0  0  2  0  0  0  0  0  0
  187.5440  175.9770  140.0640 O   0  0  0  0  0  0  0  0  0  0  0  0
  188.9130  174.6980  141.4590 N   0  0  0  0  0  2  0  0  0  0  0  0
  188.0840  175.8360  141.1950 C   0  0  0  0  0  0  0  0  0  0  0  0
  186.6550  177.0010  142.7230 N   0  0  0  0  0  0  0  0  0  0  0  0
  187.8550  176.8420  142.2440 C   0  0  0  0  0  0  0  0  0  0  0  0
  186.3000  177.9710  143.7580 C   0  0  1  0  0  3  0  0  0  0  0  0
  185.2040  178.8880  143.2470 C   0  0  0  0  0  2  0  0  0  0  0  0
  184.0150  178.1720  143.1050 O   0  0  0  0  0  1  0  0  0  0  0  0
  185.4340  176.7200  145.8980 N   0  0  0  0  0  0  0  0  0  0  0  0
  185.8160  177.2720  144.9550 C   0  0  0  0  0  0  0  0  0  0  0  0
  188.9980  177.6910  142.7160 C   0  0  0  0  0  2  0  0  0  0  0  0
  189.2760  177.4240  144.1820 C   0  0  0  0  0  2  0  0  0  0  0  0
  189.3000  175.9280  144.4190 C   0  0  0  0  0  2  0  0  0  0  0  0
  189.1250  175.6240  145.8990 C   0  0  0  0  0  2  0  0  0  0  0  0
  190.2140  174.6860  146.4110 C   0  0  0  0  0  2  0  0  0  0  0  0
  190.9500  175.2810  147.6030 C   0  0  0  0  0  2  0  0  0  0  0  0
  190.7950  176.7920  147.6260 C   0  0  0  0  0  1  0  0  0  0  0  0
  1  6  1  0  0  0  0
  3 10  1  6  0  0  0
  3  8  1  0  0  0  0
  4  8  1  0  0  0  0
  4  5  2  0  0  0  0
  5  2  1  0  0  0  0
  6  4  1  0  0  0  0
  7 39  1  1  0  0  0
  7  6  1  0  0  0  0
  7  3  1  0  0  0  0
  9  5  1  0  0  0  0
 11 14  1  6  0  0  0
 11 13  1  0  0  0  0
 11 10  1  0  0  0  0
 12 13  2  0  0  0  0
 16 14  1  0  0  0  0
 16 15  1  1  0  0  0
 17 16  1  0  0  0  0
 18 17  1  0  0  0  0
 19 21  2  0  0  0  0
 21 20  1  0  0  0  0
 21 18  1  0  0  0  0
 22 33  1  0  0  0  0
 24 23  1  6  0  0  0
 24 30  1  0  0  0  0
 24 22  1  0  0  0  0
 25 26  1  1  0  0  0
 26 29  1  0  0  0  0
 27 32  1  0  0  0  0
 27 28  1  0  0  0  0
 27 20  1  1  0  0  0
 28 34  1  6  0  0  0
 28 25  1  0  0  0  0
 30 23  1  6  0  0  0
 30 25  1  0  0  0  0
 31 29  1  0  0  0  0
 32 30  1  0  0  0  0
 33 31  1  0  0  0  0
 34 35  1  1  0  0  0
 34 36  1  0  0  0  0
 37 36  1  0  0  0  0
 37 38  1  0  0  0  0
 40 39  1  0  0  0  0
 41 40  1  0  0  0  0
 41 43  1  0  0  0  0
 42 44  2  0  0  0  0
 44 43  1  0  0  0  0
 44 46  1  0  0  0  0
 45 47  1  0  0  0  0
 46 52  1  0  0  0  0
 46 45  2  0  0  0  0
 47 48  1  6  0  0  0
 47 51  1  0  0  0  0
 49 48  1  0  0  0  0
 51 50  3  0  0  0  0
 52 53  1  0  0  0  0
 53 54  1  0  0  0  0
 54 55  1  0  0  0  0
 55 56  1  0  0  0  0
 56 57  1  0  0  0  0
 57 58  1  0  0  0  0
M  END
>  <MODEL>
4

>  <REMARK>
 VINA RESULT:      -5.4      2.967      8.654
  Name = 
  26 active torsions:
  status: ('A' for Active; 'I' for Inactive)
    1  A    between atoms: C_1  and  C_30
    2  A    between atoms: C_1  and  C_45
    3  A    between atoms: C_1  and  C_58
    4  A    between atoms: CA_3  and  N_29
    5  A    between atoms: CA_3  and  C_33
    6  A    between atoms: CA_3  and  C_56
    7  A    between atoms: C_9  and  C_24
    8  A    between atoms: C_9  and  C_36
    9  A    between atoms: N_10  and  C_19
   10  A    between atoms: C_12  and  C_39
   11  A    between atoms: C_12  and  C_48
   12  A    between atoms: C_15  and  C_36
   13  A    between atoms: C_16  and  C_58
   14  A    between atoms: N_22  and  C_55
   15  A    between atoms: C_23  and  C_49
   16  A    between atoms: C_25  and  C_41
   17  A    between atoms: C_25  and  C_51
   18  A    between atoms: C_26  and  C_34
   19  A    between atoms: C_30  and  C_31
   20  A    between atoms: C_31  and  C_43
   21  A    between atoms: C_34  and  C_39
   22  A    between atoms: C_38  and  O_53
   23  A    between atoms: C_42  and  C_48
   24  A    between atoms: C_42  and  C_49
   25  A    between atoms: C_43  and  O_53
   26  A    between atoms: C_51  and  C_55
                            x       y       z     vdW  Elec       q    Type
                         _______ _______ _______ _____ _____    ______ ____

>  <TORSDO>
F 26

$$$$
=
 OpenBabel11042413423D

 58 61  0  0  1  0  0  0  0  0999 V2000
  192.4040  172.2680  145.0090 F   0  0  0  0  0  0  0  0  0  0  0  0
  196.7430  171.4410  144.4170 C   0  0  0  0  0  1  0  0  0  0  0  0
  194.0240  173.8960  142.1620 C   0  0  2  0  0  3  0  0  0  0  0  0
  194.5430  172.3620  143.8200 C   0  0  0  0  0  0  0  0  0  0  0  0
  195.2670  171.5440  144.5970 C   0  0  0  0  0  0  0  0  0  0  0  0
  193.1390  172.5330  143.9060 N   0  0  0  0  0  0  0  0  0  0  0  0
  192.7360  173.5200  142.9140 C   0  0  2  0  0  3  0  0  0  0  0  0
  195.1100  173.1580  142.7980 N   0  0  0  0  0  2  0  0  0  0  0  0
  194.6320  170.6880  145.6400 C   0  0  0  0  0  1  0  0  0  0  0  0
  194.2790  175.3910  142.2660 C   0  0  0  0  0  2  0  0  0  0  0  0
  195.7720  175.6670  142.2920 C   0  0  2  0  0  3  0  0  0  0  0  0
  195.8310  176.0460  144.6180 O   0  0  0  0  0  0  0  0  0  0  0  0
  196.1050  176.4670  143.5060 C   0  0  0  0  0  3  0  0  0  0  0  0
  196.1690  176.4300  141.0340 C   0  0  0  0  0  2  0  0  0  0  0  0
  197.9330  174.6810  140.9850 C   0  0  0  0  0  1  0  0  0  0  0  0
  197.0550  175.5850  140.1340 C   0  0  1  0  0  3  0  0  0  0  0  0
  196.1720  174.7450  139.2300 C   0  0  0  0  0  2  0  0  0  0  0  0
  196.7900  173.4920  138.9670 O   0  0  0  0  0  0  0  0  0  0  0  0
  196.3670  171.3350  139.6690 O   0  0  0  0  0  0  0  0  0  0  0  0
  194.9490  172.2040  138.0300 N   0  0  0  0  0  2  0  0  0  0  0  0
  196.0570  172.3070  138.9270 C   0  0  0  0  0  0  0  0  0  0  0  0
  189.7430  171.1750  136.0470 C   0  0  0  0  0  2  0  0  0  0  0  0
  191.5560  169.6220  136.5930 C   0  0  0  0  0  2  0  0  0  0  0  0
  191.1800  170.7950  135.7140 C   0  0  2  0  0  3  0  0  0  0  0  0
  191.7640  171.4560  138.2840 C   0  0  2  0  0  3  0  0  0  0  0  0
  191.6270  172.9830  138.4150 C   0  0  0  0  0  2  0  0  0  0  0  0
  194.1050  171.0210  137.9450 C   0  0  1  0  0  3  0  0  0  0  0  0
  193.0170  171.0740  139.0310 C   0  0  2  0  0  3  0  0  0  0  0  0
  190.9400  173.7070  137.2610 C   0  0  0  0  0  2  0  0  0  0  0  0
  192.1350  170.9960  136.8910 C   0  0  1  0  0  0  0  0  0  0  0  0
  189.5450  173.1650  137.0030 C   0  0  0  0  0  2  0  0  0  0  0  0
  193.5130  170.9670  136.6620 O   0  0  0  0  0  0  0  0  0  0  0  0
  189.5250  172.5250  135.7620 O   0  0  0  0  0  0  0  0  0  0  0  0
  192.8530  169.7070  139.7030 C   0  0  1  0  0  3  0  0  0  0  0  0
  193.7060  168.7770  139.1060 O   0  0  0  0  0  1  0  0  0  0  0  0
  193.1800  169.8070  141.1860 C   0  0  0  0  0  2  0  0  0  0  0  0
  192.0350  169.2510  142.0120 C   0  0  0  0  0  2  0  0  0  0  0  0
  190.9200  169.0650  141.1970 O   0  0  0  0  0  1  0  0  0  0  0  0
  191.7590  172.9100  141.9200 C   0  0  0  0  0  2  0  0  0  0  0  0
  190.3200  173.2170  142.2920 C   0  0  0  0  0  2  0  0  0  0  0  0
  189.6860  174.0930  141.2260 C   0  0  0  0  0  2  0  0  0  0  0  0
  187.0890  174.3270  142.3650 O   0  0  0  0  0  0  0  0  0  0  0  0
  189.1430  175.3010  141.8300 N   0  0  0  0  0  2  0  0  0  0  0  0
  187.8230  175.3530  142.3830 C   0  0  0  0  0  0  0  0  0  0  0  0
  186.1180  176.6300  143.4770 N   0  0  0  0  0  0  0  0  0  0  0  0
  187.3200  176.6010  142.9800 C   0  0  0  0  0  0  0  0  0  0  0  0
  185.5040  177.8080  144.0870 C   0  0  1  0  0  3  0  0  0  0  0  0
  184.2950  178.2350  143.2760 C   0  0  0  0  0  2  0  0  0  0  0  0
  183.5700  179.2000  143.9770 O   0  0  0  0  0  1  0  0  0  0  0  0
  184.7320  177.2490  146.5350 N   0  0  0  0  0  0  0  0  0  0  0  0
  185.0720  177.4960  145.4560 C   0  0  0  0  0  0  0  0  0  0  0  0
  188.1870  177.8260  142.9710 C   0  0  0  0  0  2  0  0  0  0  0  0
  189.4050  177.6090  143.8450 C   0  0  0  0  0  2  0  0  0  0  0  0
  188.9640  177.4600  145.2860 C   0  0  0  0  0  2  0  0  0  0  0  0
  190.1290  177.0070  146.1530 C   0  0  0  0  0  2  0  0  0  0  0  0
  190.6180  175.6180  145.7540 C   0  0  0  0  0  2  0  0  0  0  0  0
  192.1370  175.5400  145.7470 C   0  0  0  0  0  2  0  0  0  0  0  0
  192.7220  176.4120  146.8460 C   0  0  0  0  0  1  0  0  0  0  0  0
  2  5  1  0  0  0  0
  3 10  1  1  0  0  0
  3  8  1  0  0  0  0
  3  7  1  0  0  0  0
  4  6  1  0  0  0  0
  4  5  2  0  0  0  0
  5  9  1  0  0  0  0
  6  1  1  0  0  0  0
  7 39  1  6  0  0  0
  7  6  1  0  0  0  0
  8  4  1  0  0  0  0
 10 11  1  0  0  0  0
 11 14  1  6  0  0  0
 11 13  1  0  0  0  0
 13 12  2  0  0  0  0
 16 15  1  1  0  0  0
 16 14  1  0  0  0  0
 17 16  1  0  0  0  0
 18 17  1  0  0  0  0
 20 21  1  0  0  0  0
 21 18  1  0  0  0  0
 21 19  2  0  0  0  0
 24 22  1  1  0  0  0
 24 23  1  0  0  0  0
 24 30  1  0  0  0  0
 25 26  1  6  0  0  0
 25 28  1  0  0  0  0
 27 20  1  6  0  0  0
 27 28  1  0  0  0  0
 28 34  1  6  0  0  0
 29 26  1  0  0  0  0
 30 23  1  1  0  0  0
 30 25  1  0  0  0  0
 31 29  1  0  0  0  0
 32 30  1  0  0  0  0
 32 27  1  0  0  0  0
 33 22  1  0  0  0  0
 33 31  1  0  0  0  0
 34 35  1  6  0  0  0
 34 36  1  0  0  0  0
 36 37  1  0  0  0  0
 38 37  1  0  0  0  0
 39 40  1  0  0  0  0
 41 43  1  0  0  0  0
 41 40  1  0  0  0  0
 42 44  2  0  0  0  0
 43 44  1  0  0  0  0
 44 46  1  0  0  0  0
 45 47  1  0  0  0  0
 46 45  2  0  0  0  0
 47 48  1  6  0  0  0
 47 51  1  0  0  0  0
 48 49  1  0  0  0  0
 51 50  3  0  0  0  0
 52 46  1  0  0  0  0
 52 53  1  0  0  0  0
 53 54  1  0  0  0  0
 54 55  1  0  0  0  0
 56 55  1  0  0  0  0
 57 56  1  0  0  0  0
 57 58  1  0  0  0  0
M  END
>  <MODEL>
5

>  <REMARK>
 VINA RESULT:      -5.4      2.598      8.792
  Name = 
  26 active torsions:
  status: ('A' for Active; 'I' for Inactive)
    1  A    between atoms: C_1  and  C_30
    2  A    between atoms: C_1  and  C_45
    3  A    between atoms: C_1  and  C_58
    4  A    between atoms: CA_3  and  N_29
    5  A    between atoms: CA_3  and  C_33
    6  A    between atoms: CA_3  and  C_56
    7  A    between atoms: C_9  and  C_24
    8  A    between atoms: C_9  and  C_36
    9  A    between atoms: N_10  and  C_19
   10  A    between atoms: C_12  and  C_39
   11  A    between atoms: C_12  and  C_48
   12  A    between atoms: C_15  and  C_36
   13  A    between atoms: C_16  and  C_58
   14  A    between atoms: N_22  and  C_55
   15  A    between atoms: C_23  and  C_49
   16  A    between atoms: C_25  and  C_41
   17  A    between atoms: C_25  and  C_51
   18  A    between atoms: C_26  and  C_34
   19  A    between atoms: C_30  and  C_31
   20  A    between atoms: C_31  and  C_43
   21  A    between atoms: C_34  and  C_39
   22  A    between atoms: C_38  and  O_53
   23  A    between atoms: C_42  and  C_48
   24  A    between atoms: C_42  and  C_49
   25  A    between atoms: C_43  and  O_53
   26  A    between atoms: C_51  and  C_55
                            x       y       z     vdW  Elec       q    Type
                         _______ _______ _______ _____ _____    ______ ____

>  <TORSDO>
F 26

$$$$
=
 OpenBabel11042413423D

 58 61  0  0  1  0  0  0  0  0999 V2000
  185.7560  176.7900  147.4540 F   0  0  0  0  0  0  0  0  0  0  0  0
  185.3420  179.4290  143.8880 C   0  0  0  0  0  1  0  0  0  0  0  0
  188.4970  176.7400  145.0340 C   0  0  2  0  0  3  0  0  0  0  0  0
  186.5110  177.8770  145.3940 C   0  0  0  0  0  0  0  0  0  0  0  0
  185.4700  178.6930  145.1770 C   0  0  0  0  0  0  0  0  0  0  0  0
  186.7280  177.1350  146.5810 N   0  0  0  0  0  0  0  0  0  0  0  0
  187.9470  176.3560  146.4180 C   0  0  2  0  0  3  0  0  0  0  0  0
  187.5390  177.6680  144.4450 N   0  0  0  0  0  2  0  0  0  0  0  0
  184.4240  178.9220  146.2150 C   0  0  0  0  0  1  0  0  0  0  0  0
  188.6320  175.5040  144.1580 C   0  0  0  0  0  2  0  0  0  0  0  0
  189.8450  175.6340  143.2530 C   0  0  2  0  0  3  0  0  0  0  0  0
  191.5050  177.2720  142.9020 O   0  0  0  0  0  0  0  0  0  0  0  0
  190.4230  177.0020  143.3960 C   0  0  0  0  0  3  0  0  0  0  0  0
  189.4300  175.3860  141.8090 C   0  0  0  0  0  2  0  0  0  0  0  0
  190.8690  173.4380  142.3610 C   0  0  0  0  0  1  0  0  0  0  0  0
  190.0350  174.0990  141.2740 C   0  0  1  0  0  3  0  0  0  0  0  0
  188.9120  173.1710  140.8500 C   0  0  0  0  0  2  0  0  0  0  0  0
  189.4450  171.9650  140.3180 O   0  0  0  0  0  0  0  0  0  0  0  0
  189.8890  172.4170  138.1000 O   0  0  0  0  0  0  0  0  0  0  0  0
  191.6080  171.4340  139.3370 N   0  0  0  0  0  2  0  0  0  0  0  0
  190.2870  171.9630  139.2080 C   0  0  0  0  0  0  0  0  0  0  0  0
  197.2050  170.6370  138.9750 C   0  0  0  0  0  2  0  0  0  0  0  0
  195.4880  170.5680  137.2300 C   0  0  0  0  0  2  0  0  0  0  0  0
  195.9280  169.9350  138.5330 C   0  0  2  0  0  3  0  0  0  0  0  0
  194.7150  172.3500  138.8080 C   0  0  2  0  0  3  0  0  0  0  0  0
  194.6580  172.6750  140.3110 C   0  0  0  0  0  2  0  0  0  0  0  0
  192.5690  171.4230  138.2430 C   0  0  1  0  0  3  0  0  0  0  0  0
  193.3720  172.7340  138.2370 C   0  0  2  0  0  3  0  0  0  0  0  0
  195.5080  171.8020  141.2290 C   0  0  0  0  0  2  0  0  0  0  0  0
  194.7170  170.8680  138.5060 C   0  0  1  0  0  0  0  0  0  0  0  0
  196.9740  171.8240  140.8330 C   0  0  0  0  0  2  0  0  0  0  0  0
  193.4370  170.3170  138.4010 O   0  0  0  0  0  0  0  0  0  0  0  0
  197.3400  170.5610  140.3630 O   0  0  0  0  0  0  0  0  0  0  0  0
  193.5220  173.2730  136.8120 C   0  0  1  0  0  3  0  0  0  0  0  0
  192.2800  173.6900  136.3260 O   0  0  0  0  0  1  0  0  0  0  0  0
  194.4880  174.4490  136.7920 C   0  0  0  0  0  2  0  0  0  0  0  0
  193.7200  175.7570  136.8350 C   0  0  0  0  0  2  0  0  0  0  0  0
  193.9600  176.4770  135.6660 O   0  0  0  0  0  1  0  0  0  0  0  0
  188.9760  176.7450  147.4700 C   0  0  0  0  0  2  0  0  0  0  0  0
  190.3560  176.9200  146.8630 C   0  0  0  0  0  2  0  0  0  0  0  0
  191.3580  176.0500  147.5980 C   0  0  0  0  0  2  0  0  0  0  0  0
  194.0570  175.9860  146.6990 O   0  0  0  0  0  0  0  0  0  0  0  0
  191.9150  175.0550  146.6920 N   0  0  0  0  0  2  0  0  0  0  0  0
  193.2850  175.0830  146.2750 C   0  0  0  0  0  0  0  0  0  0  0  0
  193.7460  172.8020  145.7070 N   0  0  0  0  0  0  0  0  0  0  0  0
  193.7980  174.0550  145.3560 C   0  0  0  0  0  0  0  0  0  0  0  0
  194.2300  171.6930  144.8870 C   0  0  1  0  0  3  0  0  0  0  0  0
  195.0050  170.7160  145.7520 C   0  0  0  0  0  2  0  0  0  0  0  0
  195.0300  169.4600  145.1420 O   0  0  0  0  0  1  0  0  0  0  0  0
  192.2010  170.4380  143.7910 N   0  0  0  0  0  0  0  0  0  0  0  0
  193.0960  170.9910  144.2740 C   0  0  0  0  0  0  0  0  0  0  0  0
  194.4050  174.4700  144.0480 C   0  0  0  0  0  2  0  0  0  0  0  0
  195.8750  174.7900  144.2350 C   0  0  0  0  0  2  0  0  0  0  0  0
  196.5300  174.9300  142.8760 C   0  0  0  0  0  2  0  0  0  0  0  0
  195.6740  175.7940  141.9620 C   0  0  0  0  0  2  0  0  0  0  0  0
  196.5030  176.4210  140.8450 C   0  0  0  0  0  2  0  0  0  0  0  0
  197.6330  175.5010  140.4050 C   0  0  0  0  0  2  0  0  0  0  0  0
  197.3980  175.0080  138.9860 C   0  0  0  0  0  1  0  0  0  0  0  0
  2  5  1  0  0  0  0
  3 10  1  6  0  0  0
  3  7  1  0  0  0  0
  4  6  1  0  0  0  0
  5  4  2  0  0  0  0
  5  9  1  0  0  0  0
  6  1  1  0  0  0  0
  7  6  1  0  0  0  0
  7 39  1  1  0  0  0
  8  3  1  0  0  0  0
  8  4  1  0  0  0  0
 11 14  1  6  0  0  0
 11 13  1  0  0  0  0
 11 10  1  0  0  0  0
 12 13  2  0  0  0  0
 16 14  1  0  0  0  0
 16 15  1  1  0  0  0
 17 16  1  0  0  0  0
 18 17  1  0  0  0  0
 19 21  2  0  0  0  0
 21 20  1  0  0  0  0
 21 18  1  0  0  0  0
 22 33  1  0  0  0  0
 24 23  1  6  0  0  0
 24 22  1  0  0  0  0
 25 26  1  1  0  0  0
 26 29  1  0  0  0  0
 27 32  1  0  0  0  0
 27 20  1  1  0  0  0
 28 34  1  6  0  0  0
 28 27  1  0  0  0  0
 28 25  1  0  0  0  0
 30 23  1  6  0  0  0
 30 24  1  0  0  0  0
 30 25  1  0  0  0  0
 31 29  1  0  0  0  0
 32 30  1  0  0  0  0
 33 31  1  0  0  0  0
 34 35  1  1  0  0  0
 36 34  1  0  0  0  0
 36 37  1  0  0  0  0
 38 37  1  0  0  0  0
 40 39  1  0  0  0  0
 40 41  1  0  0  0  0
 43 41  1  0  0  0  0
 44 43  1  0  0  0  0
 44 42  2  0  0  0  0
 46 45  2  0  0  0  0
 46 44  1  0  0  0  0
 47 51  1  1  0  0  0
 47 45  1  0  0  0  0
 47 48  1  0  0  0  0
 49 48  1  0  0  0  0
 50 51  3  0  0  0  0
 52 53  1  0  0  0  0
 52 46  1  0  0  0  0
 54 53  1  0  0  0  0
 55 54  1  0  0  0  0
 56 55  1  0  0  0  0
 57 56  1  0  0  0  0
 58 57  1  0  0  0  0
M  END
>  <MODEL>
6

>  <REMARK>
 VINA RESULT:      -5.2      2.783      7.282
  Name = 
  26 active torsions:
  status: ('A' for Active; 'I' for Inactive)
    1  A    between atoms: C_1  and  C_30
    2  A    between atoms: C_1  and  C_45
    3  A    between atoms: C_1  and  C_58
    4  A    between atoms: CA_3  and  N_29
    5  A    between atoms: CA_3  and  C_33
    6  A    between atoms: CA_3  and  C_56
    7  A    between atoms: C_9  and  C_24
    8  A    between atoms: C_9  and  C_36
    9  A    between atoms: N_10  and  C_19
   10  A    between atoms: C_12  and  C_39
   11  A    between atoms: C_12  and  C_48
   12  A    between atoms: C_15  and  C_36
   13  A    between atoms: C_16  and  C_58
   14  A    between atoms: N_22  and  C_55
   15  A    between atoms: C_23  and  C_49
   16  A    between atoms: C_25  and  C_41
   17  A    between atoms: C_25  and  C_51
   18  A    between atoms: C_26  and  C_34
   19  A    between atoms: C_30  and  C_31
   20  A    between atoms: C_31  and  C_43
   21  A    between atoms: C_34  and  C_39
   22  A    between atoms: C_38  and  O_53
   23  A    between atoms: C_42  and  C_48
   24  A    between atoms: C_42  and  C_49
   25  A    between atoms: C_43  and  O_53
   26  A    between atoms: C_51  and  C_55
                            x       y       z     vdW  Elec       q    Type
                         _______ _______ _______ _____ _____    ______ ____

>  <TORSDO>
F 26

$$$$
=
 OpenBabel11042413423D

 58 61  0  0  1  0  0  0  0  0999 V2000
  185.9650  178.7090  142.2280 F   0  0  0  0  0  0  0  0  0  0  0  0
  185.9510  178.6680  146.6840 C   0  0  0  0  0  1  0  0  0  0  0  0
  188.9020  177.2860  143.8770 C   0  0  2  0  0  3  0  0  0  0  0  0
  186.8240  178.1360  144.4480 C   0  0  0  0  0  0  0  0  0  0  0  0
  185.8100  178.5830  145.2030 C   0  0  0  0  0  0  0  0  0  0  0  0
  186.7940  178.0140  143.0370 N   0  0  0  0  0  0  0  0  0  0  0  0
  188.0890  177.5180  142.5920 C   0  0  2  0  0  3  0  0  0  0  0  0
  188.0620  177.7170  144.9880 N   0  0  0  0  0  2  0  0  0  0  0  0
  184.5030  178.9790  144.6050 C   0  0  0  0  0  1  0  0  0  0  0  0
  190.1850  178.1020  143.8450 C   0  0  0  0  0  2  0  0  0  0  0  0
  191.3700  177.2290  144.2160 C   0  0  2  0  0  3  0  0  0  0  0  0
  192.9420  176.8600  142.4980 O   0  0  0  0  0  0  0  0  0  0  0  0
  191.8760  176.5380  142.9940 C   0  0  0  0  0  3  0  0  0  0  0  0
  190.9400  176.2050  145.2590 C   0  0  0  0  0  2  0  0  0  0  0  0
  190.8150  176.1720  147.7410 C   0  0  0  0  0  1  0  0  0  0  0  0
  191.7360  176.3610  146.5450 C   0  0  1  0  0  3  0  0  0  0  0  0
  192.8350  175.3150  146.5690 C   0  0  0  0  0  2  0  0  0  0  0  0
  194.0240  175.8390  145.9960 O   0  0  0  0  0  0  0  0  0  0  0  0
  195.8010  174.3840  146.2180 O   0  0  0  0  0  0  0  0  0  0  0  0
  195.1140  174.8800  144.0430 N   0  0  0  0  0  2  0  0  0  0  0  0
  195.0090  175.0100  145.4610 C   0  0  0  0  0  0  0  0  0  0  0  0
  196.9710  174.2620  138.7260 C   0  0  0  0  0  2  0  0  0  0  0  0
  197.9400  173.4760  140.8350 C   0  0  0  0  0  2  0  0  0  0  0  0
  197.5170  174.7150  140.0740 C   0  0  2  0  0  3  0  0  0  0  0  0
  195.4650  173.3190  141.1770 C   0  0  2  0  0  3  0  0  0  0  0  0
  194.1620  174.0660  140.8450 C   0  0  0  0  0  2  0  0  0  0  0  0
  196.0860  174.0100  143.3960 C   0  0  1  0  0  3  0  0  0  0  0  0
  195.3600  172.8970  142.6220 C   0  0  2  0  0  3  0  0  0  0  0  0
  194.2550  175.1620  139.7870 C   0  0  0  0  0  2  0  0  0  0  0  0
  196.6790  174.2190  141.2520 C   0  0  1  0  0  0  0  0  0  0  0  0
  194.8010  174.6330  138.4730 C   0  0  0  0  0  2  0  0  0  0  0  0
  196.8820  174.7790  142.5150 O   0  0  0  0  0  0  0  0  0  0  0  0
  196.0570  175.1980  138.2390 O   0  0  0  0  0  0  0  0  0  0  0  0
  196.0440  171.5450  142.8430 C   0  0  1  0  0  3  0  0  0  0  0  0
  196.5930  171.4930  144.1270 O   0  0  0  0  0  1  0  0  0  0  0  0
  195.0400  170.4130  142.6820 C   0  0  0  0  0  2  0  0  0  0  0  0
  193.8220  170.6680  143.5490 C   0  0  0  0  0  2  0  0  0  0  0  0
  193.7380  169.6860  144.5360 O   0  0  0  0  0  1  0  0  0  0  0  0
  187.9340  176.1870  141.8730 C   0  0  0  0  0  2  0  0  0  0  0  0
  187.7520  175.0410  142.8520 C   0  0  0  0  0  2  0  0  0  0  0  0
  188.4130  173.7880  142.3090 C   0  0  0  0  0  2  0  0  0  0  0  0
  190.5370  173.7300  140.4160 O   0  0  0  0  0  0  0  0  0  0  0  0
  188.2450  173.7200  140.8650 N   0  0  0  0  0  2  0  0  0  0  0  0
  189.3590  173.6980  139.9650 C   0  0  0  0  0  0  0  0  0  0  0  0
  188.8080  174.7150  137.8680 N   0  0  0  0  0  0  0  0  0  0  0  0
  189.1340  173.6310  138.5120 C   0  0  0  0  0  0  0  0  0  0  0  0
  188.5510  174.7750  136.4300 C   0  0  1  0  0  3  0  0  0  0  0  0
  187.2700  175.5460  136.1700 C   0  0  0  0  0  2  0  0  0  0  0  0
  187.3370  176.7980  136.7830 O   0  0  0  0  0  1  0  0  0  0  0  0
  190.5370  175.9910  135.2150 N   0  0  0  0  0  0  0  0  0  0  0  0
  189.6610  175.4550  135.7510 C   0  0  0  0  0  0  0  0  0  0  0  0
  189.2480  172.3130  137.8060 C   0  0  0  0  0  2  0  0  0  0  0  0
  190.0300  171.3310  138.6570 C   0  0  0  0  0  2  0  0  0  0  0  0
  191.3830  171.0900  138.0230 C   0  0  0  0  0  2  0  0  0  0  0  0
  192.4950  171.3890  139.0180 C   0  0  0  0  0  2  0  0  0  0  0  0
  193.5650  170.3010  139.0060 C   0  0  0  0  0  2  0  0  0  0  0  0
  194.7860  170.7260  138.2040 C   0  0  0  0  0  2  0  0  0  0  0  0
  195.9130  169.7210  138.3720 C   0  0  0  0  0  1  0  0  0  0  0  0
  1  6  1  0  0  0  0
  3 10  1  6  0  0  0
  3  8  1  0  0  0  0
  4  8  1  0  0  0  0
  4  5  2  0  0  0  0
  5  2  1  0  0  0  0
  6  4  1  0  0  0  0
  7 39  1  1  0  0  0
  7  6  1  0  0  0  0
  7  3  1  0  0  0  0
  9  5  1  0  0  0  0
 10 11  1  0  0  0  0
 11 13  1  6  0  0  0
 11 14  1  0  0  0  0
 12 13  2  0  0  0  0
 14 16  1  0  0  0  0
 16 17  1  0  0  0  0
 16 15  1  1  0  0  0
 18 17  1  0  0  0  0
 20 21  1  0  0  0  0
 21 18  1  0  0  0  0
 21 19  2  0  0  0  0
 24 22  1  6  0  0  0
 24 23  1  0  0  0  0
 24 30  1  0  0  0  0
 25 26  1  1  0  0  0
 25 30  1  0  0  0  0
 25 28  1  0  0  0  0
 27 20  1  6  0  0  0
 28 34  1  6  0  0  0
 28 27  1  0  0  0  0
 29 26  1  0  0  0  0
 30 23  1  1  0  0  0
 30 32  1  0  0  0  0
 31 29  1  0  0  0  0
 32 27  1  0  0  0  0
 33 31  1  0  0  0  0
 33 22  1  0  0  0  0
 34 35  1  1  0  0  0
 36 34  1  0  0  0  0
 36 37  1  0  0  0  0
 37 38  1  0  0  0  0
 39 40  1  0  0  0  0
 41 40  1  0  0  0  0
 43 41  1  0  0  0  0
 44 42  2  0  0  0  0
 44 43  1  0  0  0  0
 45 46  2  0  0  0  0
 46 44  1  0  0  0  0
 47 51  1  6  0  0  0
 47 45  1  0  0  0  0
 48 47  1  0  0  0  0
 48 49  1  0  0  0  0
 50 51  3  0  0  0  0
 52 46  1  0  0  0  0
 52 53  1  0  0  0  0
 54 53  1  0  0  0  0
 54 55  1  0  0  0  0
 56 55  1  0  0  0  0
 57 58  1  0  0  0  0
 57 56  1  0  0  0  0
M  END
>  <MODEL>
7

>  <REMARK>
 VINA RESULT:      -5.1      2.209      3.014
  Name = 
  26 active torsions:
  status: ('A' for Active; 'I' for Inactive)
    1  A    between atoms: C_1  and  C_30
    2  A    between atoms: C_1  and  C_45
    3  A    between atoms: C_1  and  C_58
    4  A    between atoms: CA_3  and  N_29
    5  A    between atoms: CA_3  and  C_33
    6  A    between atoms: CA_3  and  C_56
    7  A    between atoms: C_9  and  C_24
    8  A    between atoms: C_9  and  C_36
    9  A    between atoms: N_10  and  C_19
   10  A    between atoms: C_12  and  C_39
   11  A    between atoms: C_12  and  C_48
   12  A    between atoms: C_15  and  C_36
   13  A    between atoms: C_16  and  C_58
   14  A    between atoms: N_22  and  C_55
   15  A    between atoms: C_23  and  C_49
   16  A    between atoms: C_25  and  C_41
   17  A    between atoms: C_25  and  C_51
   18  A    between atoms: C_26  and  C_34
   19  A    between atoms: C_30  and  C_31
   20  A    between atoms: C_31  and  C_43
   21  A    between atoms: C_34  and  C_39
   22  A    between atoms: C_38  and  O_53
   23  A    between atoms: C_42  and  C_48
   24  A    between atoms: C_42  and  C_49
   25  A    between atoms: C_43  and  O_53
   26  A    between atoms: C_51  and  C_55
                            x       y       z     vdW  Elec       q    Type
                         _______ _______ _______ _____ _____    ______ ____

>  <TORSDO>
F 26

$$$$
=
 OpenBabel11042413423D

 58 61  0  0  1  0  0  0  0  0999 V2000
  191.5490  175.4370  136.0900 F   0  0  0  0  0  0  0  0  0  0  0  0
  195.8730  174.5150  135.5410 C   0  0  0  0  0  1  0  0  0  0  0  0
  192.7400  172.2470  137.4230 C   0  0  2  0  0  3  0  0  0  0  0  0
  193.6020  174.1420  136.4060 C   0  0  0  0  0  0  0  0  0  0  0  0
  194.4790  174.9650  135.8150 C   0  0  0  0  0  0  0  0  0  0  0  0
  192.2580  174.4700  136.7120 N   0  0  0  0  0  0  0  0  0  0  0  0
  191.6310  173.3070  137.3230 C   0  0  2  0  0  3  0  0  0  0  0  0
  193.9290  172.8260  136.8080 N   0  0  0  0  0  2  0  0  0  0  0  0
  194.1130  176.3610  135.4380 C   0  0  0  0  0  1  0  0  0  0  0  0
  192.3320  170.9840  136.6810 C   0  0  0  0  0  2  0  0  0  0  0  0
  192.0130  169.8760  137.6690 C   0  0  2  0  0  3  0  0  0  0  0  0
  189.9040  168.8340  137.5150 O   0  0  0  0  0  0  0  0  0  0  0  0
  190.5380  169.8110  137.8790 C   0  0  0  0  0  3  0  0  0  0  0  0
  192.7210  170.1550  138.9900 C   0  0  0  0  0  2  0  0  0  0  0  0
  194.1900  168.1680  139.2500 C   0  0  0  0  0  1  0  0  0  0  0  0
  192.9490  168.8730  139.7740 C   0  0  1  0  0  3  0  0  0  0  0  0
  193.1350  169.2240  141.2390 C   0  0  0  0  0  2  0  0  0  0  0  0
  191.9670  169.8540  141.7450 O   0  0  0  0  0  0  0  0  0  0  0  0
  191.0420  171.5820  142.9630 O   0  0  0  0  0  0  0  0  0  0  0  0
  193.1160  171.9880  141.9710 N   0  0  0  0  0  2  0  0  0  0  0  0
  191.9950  171.1500  142.2570 C   0  0  0  0  0  0  0  0  0  0  0  0
  196.6050  176.3240  140.9120 C   0  0  0  0  0  2  0  0  0  0  0  0
  194.4450  176.2860  142.0670 C   0  0  0  0  0  2  0  0  0  0  0  0
  195.1280  175.9890  140.7490 C   0  0  2  0  0  3  0  0  0  0  0  0
  195.5230  174.1080  142.6680 C   0  0  2  0  0  3  0  0  0  0  0  0
  196.3970  172.9980  142.0590 C   0  0  0  0  0  2  0  0  0  0  0  0
  193.2500  173.3410  142.4920 C   0  0  1  0  0  3  0  0  0  0  0  0
  194.4420  173.4140  143.4600 C   0  0  2  0  0  3  0  0  0  0  0  0
  197.0680  173.3130  140.7250 C   0  0  0  0  0  2  0  0  0  0  0  0
  194.6760  174.8410  141.6500 C   0  0  1  0  0  0  0  0  0  0  0  0
  197.9370  174.5560  140.8100 C   0  0  0  0  0  2  0  0  0  0  0  0
  193.4400  174.2350  141.4120 O   0  0  0  0  0  0  0  0  0  0  0  0
  197.3710  175.5640  140.0260 O   0  0  0  0  0  0  0  0  0  0  0  0
  194.0800  174.2240  144.7080 C   0  0  1  0  0  3  0  0  0  0  0  0
  193.6130  173.3710  145.7110 O   0  0  0  0  0  1  0  0  0  0  0  0
  195.2980  174.9780  145.2200 C   0  0  0  0  0  2  0  0  0  0  0  0
  194.9220  175.8290  146.4180 C   0  0  0  0  0  2  0  0  0  0  0  0
  194.5360  177.0970  145.9870 O   0  0  0  0  0  1  0  0  0  0  0  0
  191.1510  173.6360  138.7300 C   0  0  0  0  0  2  0  0  0  0  0  0
  189.6950  173.2540  138.9270 C   0  0  0  0  0  2  0  0  0  0  0  0
  189.3140  173.4070  140.3880 C   0  0  0  0  0  2  0  0  0  0  0  0
  189.1810  174.7170  142.9100 O   0  0  0  0  0  0  0  0  0  0  0  0
  188.7370  174.7230  140.6170 N   0  0  0  0  0  2  0  0  0  0  0  0
  188.6980  175.3260  141.9160 C   0  0  0  0  0  0  0  0  0  0  0  0
  186.8400  176.8330  141.8190 N   0  0  0  0  0  0  0  0  0  0  0  0
  188.1000  176.6580  142.0960 C   0  0  0  0  0  0  0  0  0  0  0  0
  186.1360  178.1080  141.9480 C   0  0  1  0  0  3  0  0  0  0  0  0
  185.3840  178.4100  140.6650 C   0  0  0  0  0  2  0  0  0  0  0  0
  185.5390  177.3540  139.7650 O   0  0  0  0  0  1  0  0  0  0  0  0
  184.4190  177.9870  143.9310 N   0  0  0  0  0  0  0  0  0  0  0  0
  185.1760  178.0400  143.0570 C   0  0  0  0  0  0  0  0  0  0  0  0
  188.9600  177.7980  142.5570 C   0  0  0  0  0  2  0  0  0  0  0  0
  188.8480  177.9590  144.0600 C   0  0  0  0  0  2  0  0  0  0  0  0
  190.2290  177.8620  144.6750 C   0  0  0  0  0  2  0  0  0  0  0  0
  190.1400  177.3130  146.0910 C   0  0  0  0  0  2  0  0  0  0  0  0
  191.1700  176.2120  146.3310 C   0  0  0  0  0  2  0  0  0  0  0  0
  190.5070  174.9100  146.7560 C   0  0  0  0  0  2  0  0  0  0  0  0
  188.9930  175.0380  146.7040 C   0  0  0  0  0  1  0  0  0  0  0  0
  1  6  1  0  0  0  0
  2  5  1  0  0  0  0
  3 10  1  6  0  0  0
  4  6  1  0  0  0  0
  4  8  1  0  0  0  0
  5  4  2  0  0  0  0
  6  7  1  0  0  0  0
  7  3  1  0  0  0  0
  7 39  1  1  0  0  0
  8  3  1  0  0  0  0
  9  5  1  0  0  0  0
 11 10  1  6  0  0  0
 11 13  1  0  0  0  0
 11 14  1  0  0  0  0
 12 13  2  0  0  0  0
 14 16  1  0  0  0  0
 16 15  1  6  0  0  0
 16 17  1  0  0  0  0
 17 18  1  0  0  0  0
 18 21  1  0  0  0  0
 20 21  1  0  0  0  0
 21 19  2  0  0  0  0
 24 22  1  1  0  0  0
 24 30  1  0  0  0  0
 24 23  1  0  0  0  0
 25 26  1  6  0  0  0
 25 28  1  0  0  0  0
 27 20  1  6  0  0  0
 27 28  1  0  0  0  0
 28 34  1  1  0  0  0
 29 31  1  0  0  0  0
 29 26  1  0  0  0  0
 30 23  1  1  0  0  0
 30 25  1  0  0  0  0
 32 30  1  0  0  0  0
 32 27  1  0  0  0  0
 33 31  1  0  0  0  0
 33 22  1  0  0  0  0
 34 36  1  0  0  0  0
 34 35  1  1  0  0  0
 36 37  1  0  0  0  0
 38 37  1  0  0  0  0
 39 40  1  0  0  0  0
 40 41  1  0  0  0  0
 41 43  1  0  0  0  0
 43 44  1  0  0  0  0
 44 46  1  0  0  0  0
 44 42  2  0  0  0  0
 45 47  1  0  0  0  0
 45 46  2  0  0  0  0
 46 52  1  0  0  0  0
 47 48  1  6  0  0  0
 47 51  1  0  0  0  0
 49 48  1  0  0  0  0
 51 50  3  0  0  0  0
 52 53  1  0  0  0  0
 53 54  1  0  0  0  0
 54 55  1  0  0  0  0
 55 56  1  0  0  0  0
 56 57  1  0  0  0  0
 58 57  1  0  0  0  0
M  END
>  <MODEL>
8

>  <REMARK>
 VINA RESULT:      -5.0      2.434      7.764
  Name = 
  26 active torsions:
  status: ('A' for Active; 'I' for Inactive)
    1  A    between atoms: C_1  and  C_30
    2  A    between atoms: C_1  and  C_45
    3  A    between atoms: C_1  and  C_58
    4  A    between atoms: CA_3  and  N_29
    5  A    between atoms: CA_3  and  C_33
    6  A    between atoms: CA_3  and  C_56
    7  A    between atoms: C_9  and  C_24
    8  A    between atoms: C_9  and  C_36
    9  A    between atoms: N_10  and  C_19
   10  A    between atoms: C_12  and  C_39
   11  A    between atoms: C_12  and  C_48
   12  A    between atoms: C_15  and  C_36
   13  A    between atoms: C_16  and  C_58
   14  A    between atoms: N_22  and  C_55
   15  A    between atoms: C_23  and  C_49
   16  A    between atoms: C_25  and  C_41
   17  A    between atoms: C_25  and  C_51
   18  A    between atoms: C_26  and  C_34
   19  A    between atoms: C_30  and  C_31
   20  A    between atoms: C_31  and  C_43
   21  A    between atoms: C_34  and  C_39
   22  A    between atoms: C_38  and  O_53
   23  A    between atoms: C_42  and  C_48
   24  A    between atoms: C_42  and  C_49
   25  A    between atoms: C_43  and  O_53
   26  A    between atoms: C_51  and  C_55
                            x       y       z     vdW  Elec       q    Type
                         _______ _______ _______ _____ _____    ______ ____

>  <TORSDO>
F 26

$$$$
=
 OpenBabel11042413423D

 58 61  0  0  1  0  0  0  0  0999 V2000
  182.5360  179.0130  144.8040 F   0  0  0  0  0  0  0  0  0  0  0  0
  181.4640  178.4650  140.5140 C   0  0  0  0  0  1  0  0  0  0  0  0
  185.2330  178.0290  142.5380 C   0  0  2  0  0  3  0  0  0  0  0  0
  182.9940  178.6160  142.4310 C   0  0  0  0  0  0  0  0  0  0  0  0
  181.7670  178.8150  141.9300 C   0  0  0  0  0  0  0  0  0  0  0  0
  183.3880  178.9150  143.7590 N   0  0  0  0  0  0  0  0  0  0  0  0
  184.7840  178.5350  143.9200 C   0  0  2  0  0  3  0  0  0  0  0  0
  184.0620  178.0830  141.6720 N   0  0  0  0  0  2  0  0  0  0  0  0
  180.6750  179.4150  142.7470 C   0  0  0  0  0  1  0  0  0  0  0  0
  185.7430  176.6000  142.6390 C   0  0  0  0  0  2  0  0  0  0  0  0
  187.0800  176.4700  141.9310 C   0  0  2  0  0  3  0  0  0  0  0  0
  187.1090  177.8700  140.0340 O   0  0  0  0  0  0  0  0  0  0  0  0
  186.8980  176.7540  140.4770 C   0  0  0  0  0  3  0  0  0  0  0  0
  187.6240  175.0610  142.1280 C   0  0  0  0  0  2  0  0  0  0  0  0
  189.4460  174.4210  140.5640 C   0  0  0  0  0  1  0  0  0  0  0  0
  189.1300  175.0180  141.9260 C   0  0  1  0  0  3  0  0  0  0  0  0
  189.6730  176.4330  142.0080 C   0  0  0  0  0  2  0  0  0  0  0  0
  190.4570  176.5910  143.1830 O   0  0  0  0  0  0  0  0  0  0  0  0
  192.2100  178.0840  143.3170 O   0  0  0  0  0  0  0  0  0  0  0  0
  192.7540  175.8650  142.8370 N   0  0  0  0  0  2  0  0  0  0  0  0
  191.8140  176.9020  143.1240 C   0  0  0  0  0  0  0  0  0  0  0  0
  196.9040  174.2950  139.3150 C   0  0  0  0  0  2  0  0  0  0  0  0
  196.8690  176.0470  141.0260 C   0  0  0  0  0  2  0  0  0  0  0  0
  196.2080  175.5780  139.7470 C   0  0  2  0  0  3  0  0  0  0  0  0
  195.4540  174.2120  141.9700 C   0  0  2  0  0  3  0  0  0  0  0  0
  194.4190  173.1570  141.5400 C   0  0  0  0  0  2  0  0  0  0  0  0
  194.1920  176.0880  142.7900 C   0  0  1  0  0  3  0  0  0  0  0  0
  194.9340  174.8220  143.2480 C   0  0  2  0  0  3  0  0  0  0  0  0
  194.2860  172.9050  140.0410 C   0  0  0  0  0  2  0  0  0  0  0  0
  195.4770  175.4370  141.0830 C   0  0  1  0  0  0  0  0  0  0  0  0
  195.6090  172.5000  139.4160 C   0  0  0  0  0  2  0  0  0  0  0  0
  194.5660  176.4230  141.4680 O   0  0  0  0  0  0  0  0  0  0  0  0
  196.0360  173.5110  138.5530 O   0  0  0  0  0  0  0  0  0  0  0  0
  196.0900  175.1790  144.1880 C   0  0  1  0  0  3  0  0  0  0  0  0
  195.5930  175.7790  145.3480 O   0  0  0  0  0  1  0  0  0  0  0  0
  196.8680  173.9270  144.5660 C   0  0  0  0  0  2  0  0  0  0  0  0
  196.0860  173.1100  145.5780 C   0  0  0  0  0  2  0  0  0  0  0  0
  196.6240  173.3060  146.8490 O   0  0  0  0  0  1  0  0  0  0  0  0
  185.6290  179.7460  144.2880 C   0  0  0  0  0  2  0  0  0  0  0  0
  185.8340  179.8480  145.7880 C   0  0  0  0  0  2  0  0  0  0  0  0
  185.6160  178.4910  146.4330 C   0  0  0  0  0  2  0  0  0  0  0  0
  186.8580  176.1510  145.3950 O   0  0  0  0  0  0  0  0  0  0  0  0
  186.8850  177.9450  146.8900 N   0  0  0  0  0  2  0  0  0  0  0  0
  187.4550  176.7580  146.3260 C   0  0  0  0  0  0  0  0  0  0  0  0
  189.6260  177.0830  147.2810 N   0  0  0  0  0  0  0  0  0  0  0  0
  188.7400  176.2450  146.8260 C   0  0  0  0  0  0  0  0  0  0  0  0
  190.9400  176.6980  147.7960 C   0  0  1  0  0  3  0  0  0  0  0  0
  191.9890  176.8850  146.7150 C   0  0  0  0  0  2  0  0  0  0  0  0
  193.2620  176.6940  147.2530 O   0  0  0  0  0  1  0  0  0  0  0  0
  191.5670  178.1970  149.8590 N   0  0  0  0  0  0  0  0  0  0  0  0
  191.2900  177.5350  148.9500 C   0  0  0  0  0  0  0  0  0  0  0  0
  189.0210  174.7730  146.7680 C   0  0  0  0  0  2  0  0  0  0  0  0
  189.6870  174.4200  145.4530 C   0  0  0  0  0  2  0  0  0  0  0  0
  190.0040  172.9390  145.4370 C   0  0  0  0  0  2  0  0  0  0  0  0
  191.3900  172.7010  144.8580 C   0  0  0  0  0  2  0  0  0  0  0  0
  191.4240  172.9720  143.3560 C   0  0  0  0  0  2  0  0  0  0  0  0
  191.1770  171.7030  142.5540 C   0  0  0  0  0  2  0  0  0  0  0  0
  189.6930  171.3780  142.5100 C   0  0  0  0  0  1  0  0  0  0  0  0
  2  5  1  0  0  0  0
  3 10  1  1  0  0  0
  3  7  1  0  0  0  0
  4  6  1  0  0  0  0
  5  4  2  0  0  0  0
  5  9  1  0  0  0  0
  6  7  1  0  0  0  0
  6  1  1  0  0  0  0
  7 39  1  6  0  0  0
  8  4  1  0  0  0  0
  8  3  1  0  0  0  0
 11 13  1  6  0  0  0
 11 14  1  0  0  0  0
 11 10  1  0  0  0  0
 12 13  2  0  0  0  0
 16 15  1  6  0  0  0
 16 17  1  0  0  0  0
 16 14  1  0  0  0  0
 17 18  1  0  0  0  0
 20 21  1  0  0  0  0
 21 18  1  0  0  0  0
 21 19  2  0  0  0  0
 24 22  1  1  0  0  0
 24 23  1  0  0  0  0
 24 30  1  0  0  0  0
 25 26  1  6  0  0  0
 25 28  1  0  0  0  0
 27 20  1  6  0  0  0
 27 28  1  0  0  0  0
 28 34  1  1  0  0  0
 29 26  1  0  0  0  0
 30 23  1  1  0  0  0
 30 32  1  0  0  0  0
 30 25  1  0  0  0  0
 31 29  1  0  0  0  0
 32 27  1  0  0  0  0
 33 22  1  0  0  0  0
 33 31  1  0  0  0  0
 34 36  1  0  0  0  0
 34 35  1  1  0  0  0
 36 37  1  0  0  0  0
 37 38  1  0  0  0  0
 39 40  1  0  0  0  0
 40 41  1  0  0  0  0
 41 43  1  0  0  0  0
 42 44  2  0  0  0  0
 44 46  1  0  0  0  0
 44 43  1  0  0  0  0
 45 47  1  0  0  0  0
 46 45  2  0  0  0  0
 47 48  1  6  0  0  0
 47 51  1  0  0  0  0
 48 49  1  0  0  0  0
 51 50  3  0  0  0  0
 52 46  1  0  0  0  0
 53 52  1  0  0  0  0
 54 53  1  0  0  0  0
 55 54  1  0  0  0  0
 56 55  1  0  0  0  0
 57 56  1  0  0  0  0
 58 57  1  0  0  0  0
M  END
>  <MODEL>
9

>  <REMARK>
 VINA RESULT:      -5.0      2.990      6.261
  Name = 
  26 active torsions:
  status: ('A' for Active; 'I' for Inactive)
    1  A    between atoms: C_1  and  C_30
    2  A    between atoms: C_1  and  C_45
    3  A    between atoms: C_1  and  C_58
    4  A    between atoms: CA_3  and  N_29
    5  A    between atoms: CA_3  and  C_33
    6  A    between atoms: CA_3  and  C_56
    7  A    between atoms: C_9  and  C_24
    8  A    between atoms: C_9  and  C_36
    9  A    between atoms: N_10  and  C_19
   10  A    between atoms: C_12  and  C_39
   11  A    between atoms: C_12  and  C_48
   12  A    between atoms: C_15  and  C_36
   13  A    between atoms: C_16  and  C_58
   14  A    between atoms: N_22  and  C_55
   15  A    between atoms: C_23  and  C_49
   16  A    between atoms: C_25  and  C_41
   17  A    between atoms: C_25  and  C_51
   18  A    between atoms: C_26  and  C_34
   19  A    between atoms: C_30  and  C_31
   20  A    between atoms: C_31  and  C_43
   21  A    between atoms: C_34  and  C_39
   22  A    between atoms: C_38  and  O_53
   23  A    between atoms: C_42  and  C_48
   24  A    between atoms: C_42  and  C_49
   25  A    between atoms: C_43  and  O_53
   26  A    between atoms: C_51  and  C_55
                            x       y       z     vdW  Elec       q    Type
                         _______ _______ _______ _____ _____    ______ ____

>  <TORSDO>
F 26

$$$$
